NLC.pdb
     RDKit          3D

 23 22  0  0  1  0  0  0  0  0999 V2000
   18.1207  -13.8247  -14.6895 N   0  0  0  0  0  0  0  0  0  0  0  0
   16.6960  -13.7877  -14.7113 C   0  0  0  0  0  0  0  0  0  0  0  0
   16.0410  -14.8387  -14.8563 O   0  0  0  0  0  0  0  0  0  0  0  0
   15.9705  -12.4965  -14.5627 C   0  0  0  0  0  0  0  0  0  0  0  0
   14.9713  -12.5514  -13.4800 C   0  0  2  0  0  0  0  0  0  0  0  0
   13.7963  -13.3341  -13.9115 N   0  0  0  0  0  0  0  0  0  0  0  0
   14.3706  -11.2258  -13.1036 C   0  0  0  0  0  0  0  0  0  0  0  0
   13.5367  -10.8148  -13.9944 O   0  0  0  0  0  0  0  0  0  0  0  0
   11.8555   -9.6177   -8.5004 C   0  0  0  0  0  0  0  0  0  0  0  0
   12.2491   -9.6440   -9.9266 C   0  0  1  0  0  0  0  0  0  0  0  0
   11.1493   -8.9251  -10.7066 C   0  0  0  0  0  0  0  0  0  0  0  0
   13.5967   -9.2139  -10.3066 C   0  0  0  0  0  0  0  0  0  0  0  0
   14.0762   -9.1935  -11.6874 C   0  0  2  0  0  0  0  0  0  0  0  0
   14.6903  -10.5365  -11.9316 N   0  0  0  0  0  0  0  0  0  0  0  0
   15.0988   -8.2454  -12.1253 C   0  0  0  0  0  0  0  0  0  0  0  0
   16.2316   -8.1347  -11.5279 O   0  0  0  0  0  0  0  0  0  0  0  0
   14.9786   -7.3513  -13.2518 N   0  0  0  0  0  0  0  0  0  0  0  0
   16.0599   -6.5086  -13.6513 C   0  0  1  0  0  0  0  0  0  0  0  0
   16.2222   -6.4902  -15.1769 C   0  0  0  0  0  0  0  0  0  0  0  0
   16.3747   -8.1896  -15.7856 S   0  0  0  0  0  0  0  0  0  0  0  0
   15.9613   -5.1224  -13.1522 C   0  0  0  0  0  0  0  0  0  0  0  0
   17.0288   -4.2490  -13.3706 O   0  0  0  0  0  0  0  0  0  0  0  0
   14.9823   -4.6507  -12.5365 O   0  0  0  0  0  0  0  0  0  0  0  0
  2  1  1  0
  2  3  2  0
  4  2  1  0
  5  4  1  0
  5  6  1  6
  7  5  1  0
  7  8  2  0
 10  9  1  1
 10 12  1  0
 11 10  1  0
 13 12  1  1
 13 15  1  0
 13 14  1  0
 14  7  1  0
 15 17  1  0
 16 15  2  0
 17 18  1  0
 18 21  1  0
 19 20  1  0
 18 19  1  6
 21 23  2  0
 21 22  1  0
M  END
$$$$
