NLC.pdb
     RDKit          3D

 23 22  0  0  1  0  0  0  0  0999 V2000
   41.4441   -8.6821  -10.5000 N   0  0  0  0  0  0  0  0  0  0  0  0
   42.8228   -8.7092  -10.1392 C   0  0  0  0  0  0  0  0  0  0  0  0
   43.5674   -7.7507  -10.4247 O   0  0  0  0  0  0  0  0  0  0  0  0
   43.3932   -9.8800   -9.4184 C   0  0  0  0  0  0  0  0  0  0  0  0
   42.4117  -10.9719   -9.2846 C   0  0  2  0  0  0  0  0  0  0  0  0
   41.3938  -10.6198   -8.2749 N   0  0  0  0  0  0  0  0  0  0  0  0
   42.9698  -12.2656   -8.7602 C   0  0  0  0  0  0  0  0  0  0  0  0
   43.0711  -12.2507   -7.4767 O   0  0  0  0  0  0  0  0  0  0  0  0
   42.6145  -18.1427  -10.0490 C   0  0  0  0  0  0  0  0  0  0  0  0
   43.3486  -17.1062   -9.2898 C   0  0  1  0  0  0  0  0  0  0  0  0
   44.8159  -17.5311   -9.2581 C   0  0  0  0  0  0  0  0  0  0  0  0
   43.1673  -15.6960   -9.6424 C   0  0  0  0  0  0  0  0  0  0  0  0
   43.8328  -14.5989   -8.9421 C   0  0  2  0  0  0  0  0  0  0  0  0
   43.3318  -13.3392   -9.5768 N   0  0  0  0  0  0  0  0  0  0  0  0
   45.2873  -14.4557   -8.9575 C   0  0  0  0  0  0  0  0  0  0  0  0
   45.9140  -13.9320   -9.9501 O   0  0  0  0  0  0  0  0  0  0  0  0
   46.1756  -14.8581   -7.8937 N   0  0  0  0  0  0  0  0  0  0  0  0
   47.5924  -14.7349   -8.0209 C   0  0  1  0  0  0  0  0  0  0  0  0
   48.2253  -14.1864   -6.7354 C   0  0  0  0  0  0  0  0  0  0  0  0
   49.8332  -13.4481   -7.1248 S   0  0  0  0  0  0  0  0  0  0  0  0
   48.2750  -15.9858   -8.4080 C   0  0  0  0  0  0  0  0  0  0  0  0
   49.6238  -15.9358   -8.7659 O   0  0  0  0  0  0  0  0  0  0  0  0
   47.7382  -17.1131   -8.4441 O   0  0  0  0  0  0  0  0  0  0  0  0
  2  1  1  0
  2  3  2  0
  4  2  1  0
  5  4  1  0
  5  6  1  1
  7  5  1  0
  7  8  2  0
 10  9  1  6
 10 12  1  0
 11 10  1  0
 13 12  1  6
 13 15  1  0
 13 14  1  0
 14  7  1  0
 15 17  1  0
 16 15  2  0
 17 18  1  0
 18 21  1  0
 19 20  1  0
 18 19  1  1
 21 23  2  0
 21 22  1  0
M  END
$$$$
