NLC.pdb
     RDKit          3D

 23 22  0  0  1  0  0  0  0  0999 V2000
   28.4958  -21.9997  -16.7133 N   0  0  0  0  0  0  0  0  0  0  0  0
   27.1175  -22.3265  -16.5550 C   0  0  0  0  0  0  0  0  0  0  0  0
   26.6795  -23.4217  -16.9589 O   0  0  0  0  0  0  0  0  0  0  0  0
   26.1821  -21.3666  -15.9074 C   0  0  0  0  0  0  0  0  0  0  0  0
   26.8793  -20.1559  -15.4364 C   0  0  2  0  0  0  0  0  0  0  0  0
   27.4551  -20.3892  -14.0972 N   0  0  0  0  0  0  0  0  0  0  0  0
   25.9954  -18.9599  -15.2170 C   0  0  0  0  0  0  0  0  0  0  0  0
   25.0934  -19.1955  -14.3289 O   0  0  0  0  0  0  0  0  0  0  0  0
   24.7211  -13.5657  -14.5693 C   0  0  0  0  0  0  0  0  0  0  0  0
   25.4476  -14.0499  -15.7640 C   0  0  1  0  0  0  0  0  0  0  0  0
   26.4579  -12.9675  -16.1413 C   0  0  0  0  0  0  0  0  0  0  0  0
   26.0255  -15.3959  -15.7551 C   0  0  0  0  0  0  0  0  0  0  0  0
   25.2340  -16.6109  -15.5705 C   0  0  2  0  0  0  0  0  0  0  0  0
   26.1445  -17.7518  -15.9018 N   0  0  0  0  0  0  0  0  0  0  0  0
   24.0335  -16.8665  -16.3641 C   0  0  0  0  0  0  0  0  0  0  0  0
   24.0901  -17.2079  -17.6021 O   0  0  0  0  0  0  0  0  0  0  0  0
   22.6781  -16.7836  -15.8755 N   0  0  0  0  0  0  0  0  0  0  0  0
   21.5622  -17.0286  -16.7319 C   0  0  1  0  0  0  0  0  0  0  0  0
   20.5845  -18.0317  -16.1060 C   0  0  0  0  0  0  0  0  0  0  0  0
   20.1774  -17.5031  -14.4217 S   0  0  0  0  0  0  0  0  0  0  0  0
   20.8275  -15.8110  -17.1296 C   0  0  0  0  0  0  0  0  0  0  0  0
   21.1751  -14.5917  -16.5445 O   0  0  0  0  0  0  0  0  0  0  0  0
   19.8992  -15.7752  -17.9645 O   0  0  0  0  0  0  0  0  0  0  0  0
  2  1  1  0
  2  3  2  0
  4  2  1  0
  5  4  1  0
  5  6  1  1
  7  5  1  0
  7  8  2  0
 10  9  1  1
 10 12  1  0
 11 10  1  0
 13 12  1  6
 13 15  1  0
 13 14  1  0
 14  7  1  0
 15 17  1  0
 16 15  2  0
 17 18  1  0
 18 21  1  0
 19 20  1  0
 18 19  1  1
 21 23  2  0
 21 22  1  0
M  END
$$$$
