NLC.pdb
     RDKit          3D

 23 22  0  0  1  0  0  0  0  0999 V2000
   20.0792  -12.5874  -21.7021 N   0  0  0  0  0  0  0  0  0  0  0  0
   21.3016  -11.9929  -21.2732 C   0  0  0  0  0  0  0  0  0  0  0  0
   22.3040  -12.0092  -22.0146 O   0  0  0  0  0  0  0  0  0  0  0  0
   21.3997  -11.3458  -19.9363 C   0  0  0  0  0  0  0  0  0  0  0  0
   22.6239  -11.7500  -19.2209 C   0  0  2  0  0  0  0  0  0  0  0  0
   22.4620  -13.1070  -18.6625 N   0  0  0  0  0  0  0  0  0  0  0  0
   22.9506  -10.9254  -18.0072 C   0  0  0  0  0  0  0  0  0  0  0  0
   22.1625  -11.1963  -17.0257 O   0  0  0  0  0  0  0  0  0  0  0  0
   28.0991  -10.1741  -16.4784 C   0  0  0  0  0  0  0  0  0  0  0  0
   26.6324  -10.3672  -16.4430 C   0  0  1  0  0  0  0  0  0  0  0  0
   26.3196  -11.1832  -15.1897 C   0  0  0  0  0  0  0  0  0  0  0  0
   25.7524   -9.2077  -16.6070 C   0  0  0  0  0  0  0  0  0  0  0  0
   24.2952   -9.3051  -16.6696 C   0  0  2  0  0  0  0  0  0  0  0  0
   23.9817   -9.9842  -17.9662 N   0  0  0  0  0  0  0  0  0  0  0  0
   23.4511   -8.1119  -16.6751 C   0  0  0  0  0  0  0  0  0  0  0  0
   23.3548   -7.3452  -17.7023 O   0  0  0  0  0  0  0  0  0  0  0  0
   22.6361   -7.6626  -15.5721 N   0  0  0  0  0  0  0  0  0  0  0  0
   21.8579   -6.4687  -15.6601 C   0  0  1  0  0  0  0  0  0  0  0  0
   20.3982   -6.7200  -15.2601 C   0  0  0  0  0  0  0  0  0  0  0  0
   19.5031   -5.1452  -15.2318 S   0  0  0  0  0  0  0  0  0  0  0  0
   22.3938   -5.3392  -14.8743 C   0  0  0  0  0  0  0  0  0  0  0  0
   22.4042   -4.0648  -15.4450 O   0  0  0  0  0  0  0  0  0  0  0  0
   22.8499   -5.4259  -13.7148 O   0  0  0  0  0  0  0  0  0  0  0  0
  2  1  1  0
  2  3  2  0
  4  2  1  0
  5  4  1  0
  5  6  1  1
  7  5  1  0
  7  8  2  0
 10  9  1  1
 10 12  1  0
 11 10  1  0
 13 12  1  6
 13 15  1  0
 13 14  1  0
 14  7  1  0
 15 17  1  0
 16 15  2  0
 17 18  1  0
 18 21  1  0
 19 20  1  0
 18 19  1  1
 21 23  2  0
 21 22  1  0
M  END
$$$$
