GLE.pdb
     RDKit          3D

 22 21  0  0  1  0  0  0  0  0999 V2000
    7.1899  -16.1513   19.6740 N   0  0  0  0  0  0  0  0  0  0  0  0
    6.5262  -16.2079   20.9499 C   0  0  0  0  0  0  0  0  0  0  0  0
    7.2658  -15.5219   22.0201 C   0  0  0  0  0  0  0  0  0  0  0  0
    8.5125  -15.3536   21.8699 O   0  0  0  0  0  0  0  0  0  0  0  0
    6.3086  -12.4811   27.4552 C   0  0  0  0  0  0  0  0  0  0  0  0
    7.1595  -12.9700   26.3432 C   0  0  2  0  0  0  0  0  0  0  0  0
    7.9301  -11.7644   25.7781 C   0  0  0  0  0  0  0  0  0  0  0  0
    6.4853  -13.6087   25.1944 C   0  0  0  0  0  0  0  0  0  0  0  0
    7.2995  -14.4403   24.2744 C   0  0  2  0  0  0  0  0  0  0  0  0
    6.5846  -15.0634   23.1909 N   0  0  0  0  0  0  0  0  0  0  0  0
    8.1685  -15.4085   24.9990 C   0  0  0  0  0  0  0  0  0  0  0  0
    7.6249  -16.4270   25.4886 O   0  0  0  0  0  0  0  0  0  0  0  0
    9.5678  -15.2528   25.1702 N   0  0  0  0  0  0  0  0  0  0  0  0
   10.4728  -16.4246   25.2061 C   0  0  1  0  0  0  0  0  0  0  0  0
   11.7122  -16.0518   24.4698 C   0  0  0  0  0  0  0  0  0  0  0  0
   12.8035  -17.0757   24.5389 C   0  0  0  0  0  0  0  0  0  0  0  0
   13.9646  -16.7756   23.6952 C   0  0  0  0  0  0  0  0  0  0  0  0
   14.8962  -16.0398   24.1019 O   0  0  0  0  0  0  0  0  0  0  0  0
   10.7584  -16.6767   26.6427 C   0  0  0  0  0  0  0  0  0  0  0  0
   11.1550  -17.8067   27.0321 O   0  0  0  0  0  0  0  0  0  0  0  0
   14.1010  -17.2844   22.4053 O   0  0  0  0  0  0  0  0  0  0  0  0
   10.6100  -15.7036   27.6222 O   0  0  0  0  0  0  0  0  0  0  0  0
  2  1  1  0
  2  3  1  0
  3 10  1  0
  3  4  2  0
  6  8  1  0
  6  5  1  1
  7  6  1  0
  9  8  1  1
 10  9  1  0
 11  9  1  0
 11 13  1  0
 12 11  2  0
 14 15  1  6
 14 13  1  0
 14 19  1  0
 16 15  1  0
 17 16  1  0
 18 17  2  0
 19 22  1  0
 20 19  2  0
 21 17  1  0
M  END
$$$$
