GLE.pdb
     RDKit          3D

 22 21  0  0  1  0  0  0  0  0999 V2000
   10.1246  -17.8452   16.6018 N   0  0  0  0  0  0  0  0  0  0  0  0
    9.4084  -18.0977   17.8245 C   0  0  0  0  0  0  0  0  0  0  0  0
    9.7897  -17.1916   18.9183 C   0  0  0  0  0  0  0  0  0  0  0  0
   11.0228  -16.9705   19.1070 O   0  0  0  0  0  0  0  0  0  0  0  0
    8.2280  -12.8758   19.7237 C   0  0  0  0  0  0  0  0  0  0  0  0
    7.4062  -13.9352   20.3577 C   0  0  2  0  0  0  0  0  0  0  0  0
    6.2575  -13.2468   21.1147 C   0  0  0  0  0  0  0  0  0  0  0  0
    8.0701  -14.8271   21.3303 C   0  0  0  0  0  0  0  0  0  0  0  0
    9.1410  -15.7293   20.8403 C   0  0  2  0  0  0  0  0  0  0  0  0
    8.7868  -16.5847   19.7375 N   0  0  0  0  0  0  0  0  0  0  0  0
    9.7999  -16.4837   21.9422 C   0  0  0  0  0  0  0  0  0  0  0  0
    9.3030  -17.5868   22.2721 O   0  0  0  0  0  0  0  0  0  0  0  0
   10.9503  -16.0357   22.6404 N   0  0  0  0  0  0  0  0  0  0  0  0
   11.5782  -16.8617   23.6970 C   0  0  1  0  0  0  0  0  0  0  0  0
   13.0122  -16.4684   23.7754 C   0  0  0  0  0  0  0  0  0  0  0  0
   13.8112  -16.7984   22.5520 C   0  0  0  0  0  0  0  0  0  0  0  0
   15.1266  -16.1525   22.4999 C   0  0  0  0  0  0  0  0  0  0  0  0
   15.6905  -15.9038   21.4068 O   0  0  0  0  0  0  0  0  0  0  0  0
   10.8618  -16.5290   24.9560 C   0  0  0  0  0  0  0  0  0  0  0  0
   10.0396  -15.5762   24.9969 O   0  0  0  0  0  0  0  0  0  0  0  0
   15.8211  -15.7804   23.6491 O   0  0  0  0  0  0  0  0  0  0  0  0
   11.0498  -17.2331   26.1381 O   0  0  0  0  0  0  0  0  0  0  0  0
  2  1  1  0
  2  3  1  0
  3 10  1  0
  3  4  2  0
  6  8  1  0
  6  5  1  1
  7  6  1  0
  9  8  1  1
 10  9  1  0
 11  9  1  0
 11 13  1  0
 12 11  2  0
 14 15  1  1
 14 13  1  0
 14 19  1  0
 16 15  1  0
 17 16  1  0
 18 17  2  0
 19 22  1  0
 20 19  2  0
 21 17  1  0
M  END
$$$$
