GLE.pdb
     RDKit          3D

 22 21  0  0  1  0  0  0  0  0999 V2000
    5.5611  -16.7027   20.9943 N   0  0  0  0  0  0  0  0  0  0  0  0
    5.5633  -16.8138   22.4293 C   0  0  0  0  0  0  0  0  0  0  0  0
    6.6486  -16.0544   23.0686 C   0  0  0  0  0  0  0  0  0  0  0  0
    7.7231  -15.8879   22.4185 O   0  0  0  0  0  0  0  0  0  0  0  0
    7.2858  -11.7027   25.1988 C   0  0  0  0  0  0  0  0  0  0  0  0
    6.5171  -12.7385   25.9308 C   0  0  2  0  0  0  0  0  0  0  0  0
    6.1109  -12.1463   27.2913 C   0  0  0  0  0  0  0  0  0  0  0  0
    7.1955  -14.0186   26.2199 C   0  0  0  0  0  0  0  0  0  0  0  0
    7.5722  -14.8884   25.0786 C   0  0  2  0  0  0  0  0  0  0  0  0
    6.4818  -15.5251   24.3867 N   0  0  0  0  0  0  0  0  0  0  0  0
    8.6503  -15.8540   25.4290 C   0  0  0  0  0  0  0  0  0  0  0  0
    8.3238  -16.8916   26.0528 O   0  0  0  0  0  0  0  0  0  0  0  0
   10.0191  -15.6756   25.1030 N   0  0  0  0  0  0  0  0  0  0  0  0
   10.9912  -16.7851   25.2339 C   0  0  1  0  0  0  0  0  0  0  0  0
   12.2470  -16.3580   24.5572 C   0  0  0  0  0  0  0  0  0  0  0  0
   13.3682  -17.3467   24.6545 C   0  0  0  0  0  0  0  0  0  0  0  0
   14.5947  -16.9356   23.9640 C   0  0  0  0  0  0  0  0  0  0  0  0
   15.2393  -17.7355   23.2433 O   0  0  0  0  0  0  0  0  0  0  0  0
   11.2053  -16.9712   26.6929 C   0  0  0  0  0  0  0  0  0  0  0  0
   11.0296  -16.0180   27.4966 O   0  0  0  0  0  0  0  0  0  0  0  0
   15.1117  -15.6457   24.0660 O   0  0  0  0  0  0  0  0  0  0  0  0
   11.6026  -18.1807   27.2475 O   0  0  0  0  0  0  0  0  0  0  0  0
  2  1  1  0
  2  3  1  0
  3 10  1  0
  3  4  2  0
  6  8  1  0
  6  5  1  1
  7  6  1  0
  9  8  1  1
 10  9  1  0
 11  9  1  0
 11 13  1  0
 12 11  2  0
 14 15  1  6
 14 13  1  0
 14 19  1  0
 16 15  1  0
 17 16  1  0
 18 17  2  0
 19 22  1  0
 20 19  2  0
 21 17  1  0
M  END
$$$$
