GLE.pdb
     RDKit          3D

 22 21  0  0  1  0  0  0  0  0999 V2000
    9.2006  -16.0789   20.4027 N   0  0  0  0  0  0  0  0  0  0  0  0
    8.2436  -16.1786   21.4731 C   0  0  0  0  0  0  0  0  0  0  0  0
    8.6118  -15.3869   22.6566 C   0  0  0  0  0  0  0  0  0  0  0  0
    9.8432  -15.2077   22.8947 O   0  0  0  0  0  0  0  0  0  0  0  0
    5.9504  -12.4521   27.5699 C   0  0  0  0  0  0  0  0  0  0  0  0
    7.1155  -12.9152   26.7775 C   0  0  2  0  0  0  0  0  0  0  0  0
    8.0425  -11.7073   26.5579 C   0  0  0  0  0  0  0  0  0  0  0  0
    6.8516  -13.4859   25.4407 C   0  0  0  0  0  0  0  0  0  0  0  0
    7.9247  -14.2761   24.7890 C   0  0  2  0  0  0  0  0  0  0  0  0
    7.5985  -14.8410   23.5054 N   0  0  0  0  0  0  0  0  0  0  0  0
    8.5273  -15.2838   25.7050 C   0  0  0  0  0  0  0  0  0  0  0  0
    7.8079  -16.2438   26.0704 O   0  0  0  0  0  0  0  0  0  0  0  0
    9.8593  -15.2275   26.1891 N   0  0  0  0  0  0  0  0  0  0  0  0
   10.4642  -16.3712   26.9097 C   0  0  1  0  0  0  0  0  0  0  0  0
   11.7011  -16.7555   26.1751 C   0  0  0  0  0  0  0  0  0  0  0  0
   12.4223  -15.6080   25.5368 C   0  0  0  0  0  0  0  0  0  0  0  0
   13.5953  -15.9983   24.7482 C   0  0  0  0  0  0  0  0  0  0  0  0
   14.7548  -15.9314   25.2233 O   0  0  0  0  0  0  0  0  0  0  0  0
   10.7836  -15.8728   28.2729 C   0  0  0  0  0  0  0  0  0  0  0  0
   11.2850  -16.6385   29.1378 O   0  0  0  0  0  0  0  0  0  0  0  0
   13.4930  -16.4617   23.4382 O   0  0  0  0  0  0  0  0  0  0  0  0
   10.5550  -14.5613   28.6681 O   0  0  0  0  0  0  0  0  0  0  0  0
  2  1  1  0
  2  3  1  0
  3 10  1  0
  3  4  2  0
  6  8  1  0
  6  5  1  6
  7  6  1  0
  9  8  1  1
 10  9  1  0
 11  9  1  0
 11 13  1  0
 12 11  2  0
 14 15  1  6
 14 13  1  0
 14 19  1  0
 16 15  1  0
 17 16  1  0
 18 17  2  0
 19 22  1  0
 20 19  2  0
 21 17  1  0
M  END
$$$$
