GLE.pdb
     RDKit          3D

 22 21  0  0  1  0  0  0  0  0999 V2000
   11.6050  -17.1119   15.7659 N   0  0  0  0  0  0  0  0  0  0  0  0
   10.6627  -17.2754   16.8416 C   0  0  0  0  0  0  0  0  0  0  0  0
   10.8453  -16.2995   17.9266 C   0  0  0  0  0  0  0  0  0  0  0  0
   12.0084  -15.8373   18.1234 O   0  0  0  0  0  0  0  0  0  0  0  0
    8.8838  -12.1579   19.2031 C   0  0  0  0  0  0  0  0  0  0  0  0
    8.1118  -13.3860   19.5120 C   0  0  2  0  0  0  0  0  0  0  0  0
    6.7954  -12.9558   20.1817 C   0  0  0  0  0  0  0  0  0  0  0  0
    8.7333  -14.3770   20.4142 C   0  0  0  0  0  0  0  0  0  0  0  0
    9.9215  -15.1215   19.9296 C   0  0  2  0  0  0  0  0  0  0  0  0
    9.7332  -15.8932   18.7286 N   0  0  0  0  0  0  0  0  0  0  0  0
   10.5751  -15.9159   21.0063 C   0  0  0  0  0  0  0  0  0  0  0  0
   10.0899  -17.0399   21.2780 O   0  0  0  0  0  0  0  0  0  0  0  0
   11.7081  -15.4838   21.7419 N   0  0  0  0  0  0  0  0  0  0  0  0
   12.3571  -16.3636   22.7409 C   0  0  1  0  0  0  0  0  0  0  0  0
   13.7215  -15.8221   22.9904 C   0  0  0  0  0  0  0  0  0  0  0  0
   14.6245  -15.8478   21.7954 C   0  0  0  0  0  0  0  0  0  0  0  0
   15.9492  -15.2641   22.0294 C   0  0  0  0  0  0  0  0  0  0  0  0
   16.2715  -14.8015   23.1505 O   0  0  0  0  0  0  0  0  0  0  0  0
   11.5167  -16.2830   23.9641 C   0  0  0  0  0  0  0  0  0  0  0  0
   11.8012  -16.9601   24.9870 O   0  0  0  0  0  0  0  0  0  0  0  0
   16.9185  -15.1894   21.0312 O   0  0  0  0  0  0  0  0  0  0  0  0
   10.3918  -15.4737   24.0530 O   0  0  0  0  0  0  0  0  0  0  0  0
  2  1  1  0
  2  3  1  0
  3 10  1  0
  3  4  2  0
  6  8  1  0
  6  5  1  1
  7  6  1  0
  9  8  1  1
 10  9  1  0
 11  9  1  0
 11 13  1  0
 12 11  2  0
 14 15  1  1
 14 13  1  0
 14 19  1  0
 16 15  1  0
 17 16  1  0
 18 17  2  0
 19 22  1  0
 20 19  2  0
 21 17  1  0
M  END
$$$$
