GLE.pdb
     RDKit          3D

 22 21  0  0  1  0  0  0  0  0999 V2000
    9.2630  -15.8382   19.8224 N   0  0  0  0  0  0  0  0  0  0  0  0
    8.1382  -15.6567   20.7019 C   0  0  0  0  0  0  0  0  0  0  0  0
    8.5180  -15.1731   22.0379 C   0  0  0  0  0  0  0  0  0  0  0  0
    9.6914  -15.4167   22.4489 O   0  0  0  0  0  0  0  0  0  0  0  0
    5.9417  -12.3206   27.0487 C   0  0  0  0  0  0  0  0  0  0  0  0
    7.0551  -12.9965   26.3393 C   0  0  2  0  0  0  0  0  0  0  0  0
    8.3106  -12.1216   26.4968 C   0  0  0  0  0  0  0  0  0  0  0  0
    6.8968  -13.2405   24.8910 C   0  0  0  0  0  0  0  0  0  0  0  0
    7.8420  -14.1715   24.2271 C   0  0  2  0  0  0  0  0  0  0  0  0
    7.5796  -14.4501   22.8390 N   0  0  0  0  0  0  0  0  0  0  0  0
    8.0636  -15.4163   25.0137 C   0  0  0  0  0  0  0  0  0  0  0  0
    7.0906  -16.1932   25.1623 O   0  0  0  0  0  0  0  0  0  0  0  0
    9.3015  -15.7785   25.6037 N   0  0  0  0  0  0  0  0  0  0  0  0
    9.5058  -17.1186   26.1999 C   0  0  1  0  0  0  0  0  0  0  0  0
   10.6023  -17.7806   25.4405 C   0  0  0  0  0  0  0  0  0  0  0  0
   11.9060  -17.0433   25.4689 C   0  0  0  0  0  0  0  0  0  0  0  0
   12.9642  -17.6608   24.6633 C   0  0  0  0  0  0  0  0  0  0  0  0
   12.7607  -18.7143   24.0126 O   0  0  0  0  0  0  0  0  0  0  0  0
    9.9001  -16.8817   27.6132 C   0  0  0  0  0  0  0  0  0  0  0  0
   10.1009  -15.7137   28.0389 O   0  0  0  0  0  0  0  0  0  0  0  0
   14.2452  -17.1200   24.5734 O   0  0  0  0  0  0  0  0  0  0  0  0
   10.0667  -17.9102   28.5312 O   0  0  0  0  0  0  0  0  0  0  0  0
  2  1  1  0
  2  3  1  0
  3 10  1  0
  3  4  2  0
  6  8  1  0
  6  5  1  6
  7  6  1  0
  9  8  1  1
 10  9  1  0
 11  9  1  0
 11 13  1  0
 12 11  2  0
 14 15  1  6
 14 13  1  0
 14 19  1  0
 16 15  1  0
 17 16  1  0
 18 17  2  0
 19 22  1  0
 20 19  2  0
 21 17  1  0
M  END
$$$$
