GLE.pdb
     RDKit          3D

 22 21  0  0  1  0  0  0  0  0999 V2000
    5.7642  -19.5110   23.4743 N   0  0  0  0  0  0  0  0  0  0  0  0
    5.7820  -18.6493   24.6270 C   0  0  0  0  0  0  0  0  0  0  0  0
    6.4633  -17.3687   24.3841 C   0  0  0  0  0  0  0  0  0  0  0  0
    7.2652  -17.2961   23.4060 O   0  0  0  0  0  0  0  0  0  0  0  0
    6.5885  -11.3891   26.3468 C   0  0  0  0  0  0  0  0  0  0  0  0
    7.0666  -12.5248   25.5214 C   0  0  2  0  0  0  0  0  0  0  0  0
    6.9966  -12.0939   24.0463 C   0  0  0  0  0  0  0  0  0  0  0  0
    6.3279  -13.8005   25.6180 C   0  0  0  0  0  0  0  0  0  0  0  0
    6.9797  -15.0310   25.1062 C   0  0  2  0  0  0  0  0  0  0  0  0
    6.2182  -16.2462   25.2356 N   0  0  0  0  0  0  0  0  0  0  0  0
    8.3727  -15.1896   25.6083 C   0  0  0  0  0  0  0  0  0  0  0  0
    8.5466  -15.2073   26.8500 O   0  0  0  0  0  0  0  0  0  0  0  0
    9.5121  -15.3216   24.7740 N   0  0  0  0  0  0  0  0  0  0  0  0
   10.7368  -16.0059   25.2484 C   0  0  1  0  0  0  0  0  0  0  0  0
   10.3864  -17.4346   25.4798 C   0  0  0  0  0  0  0  0  0  0  0  0
   11.5578  -18.3156   25.7891 C   0  0  0  0  0  0  0  0  0  0  0  0
   11.3670  -19.1828   26.9561 C   0  0  0  0  0  0  0  0  0  0  0  0
   11.5769  -18.7672   28.1213 O   0  0  0  0  0  0  0  0  0  0  0  0
   11.7320  -15.8690   24.1530 C   0  0  0  0  0  0  0  0  0  0  0  0
   12.9662  -15.8542   24.4021 O   0  0  0  0  0  0  0  0  0  0  0  0
   10.9456  -20.5060   26.8414 O   0  0  0  0  0  0  0  0  0  0  0  0
   11.3706  -15.7524   22.8173 O   0  0  0  0  0  0  0  0  0  0  0  0
  2  1  1  0
  2  3  1  0
  3 10  1  0
  3  4  2  0
  6  8  1  0
  6  5  1  1
  7  6  1  0
  9  8  1  1
 10  9  1  0
 11  9  1  0
 11 13  1  0
 12 11  2  0
 14 15  1  6
 14 13  1  0
 14 19  1  0
 16 15  1  0
 17 16  1  0
 18 17  2  0
 19 22  1  0
 20 19  2  0
 21 17  1  0
M  END
$$$$
