GLE.pdb
     RDKit          3D

 22 21  0  0  1  0  0  0  0  0999 V2000
    4.7291  -17.7497   21.6645 N   0  0  0  0  0  0  0  0  0  0  0  0
    4.8446  -17.5916   23.0905 C   0  0  0  0  0  0  0  0  0  0  0  0
    6.0194  -16.8042   23.4940 C   0  0  0  0  0  0  0  0  0  0  0  0
    7.0446  -16.8390   22.7504 O   0  0  0  0  0  0  0  0  0  0  0  0
    7.5839  -12.2779   24.8320 C   0  0  0  0  0  0  0  0  0  0  0  0
    6.6053  -12.9865   25.6923 C   0  0  2  0  0  0  0  0  0  0  0  0
    6.3497  -12.1104   26.9307 C   0  0  0  0  0  0  0  0  0  0  0  0
    6.9794  -14.3231   26.1980 C   0  0  0  0  0  0  0  0  0  0  0  0
    7.1862  -15.4146   25.2146 C   0  0  2  0  0  0  0  0  0  0  0  0
    5.9913  -16.0263   24.6937 N   0  0  0  0  0  0  0  0  0  0  0  0
    8.1715  -16.4271   25.6852 C   0  0  0  0  0  0  0  0  0  0  0  0
    7.7605  -17.3262   26.4567 O   0  0  0  0  0  0  0  0  0  0  0  0
    9.5413  -16.4395   25.3174 N   0  0  0  0  0  0  0  0  0  0  0  0
   10.4017  -17.6118   25.5978 C   0  0  1  0  0  0  0  0  0  0  0  0
   11.5566  -17.5501   24.6599 C   0  0  0  0  0  0  0  0  0  0  0  0
   12.5792  -18.6249   24.8676 C   0  0  0  0  0  0  0  0  0  0  0  0
   13.7043  -18.5747   23.9285 C   0  0  0  0  0  0  0  0  0  0  0  0
   13.5519  -18.8352   22.7105 O   0  0  0  0  0  0  0  0  0  0  0  0
   10.8480  -17.4636   27.0078 C   0  0  0  0  0  0  0  0  0  0  0  0
   10.7820  -16.3494   27.5907 O   0  0  0  0  0  0  0  0  0  0  0  0
   14.9957  -18.2381   24.3288 O   0  0  0  0  0  0  0  0  0  0  0  0
   11.3531  -18.5209   27.7530 O   0  0  0  0  0  0  0  0  0  0  0  0
  2  1  1  0
  2  3  1  0
  3 10  1  0
  3  4  2  0
  6  8  1  0
  6  5  1  1
  7  6  1  0
  9  8  1  1
 10  9  1  0
 11  9  1  0
 11 13  1  0
 12 11  2  0
 14 15  1  6
 14 13  1  0
 14 19  1  0
 16 15  1  0
 17 16  1  0
 18 17  2  0
 19 22  1  0
 20 19  2  0
 21 17  1  0
M  END
$$$$
