GLE.pdb
     RDKit          3D

 22 21  0  0  1  0  0  0  0  0999 V2000
    8.6033  -16.2516   20.1661 N   0  0  0  0  0  0  0  0  0  0  0  0
    7.6809  -16.1747   21.2683 C   0  0  0  0  0  0  0  0  0  0  0  0
    8.2208  -15.4484   22.4276 C   0  0  0  0  0  0  0  0  0  0  0  0
    9.4673  -15.2245   22.4632 O   0  0  0  0  0  0  0  0  0  0  0  0
    8.1474  -13.2438   27.5440 C   0  0  0  0  0  0  0  0  0  0  0  0
    7.4049  -12.5934   26.4371 C   0  0  2  0  0  0  0  0  0  0  0  0
    6.1763  -11.8946   27.0442 C   0  0  0  0  0  0  0  0  0  0  0  0
    6.8981  -13.4576   25.3514 C   0  0  0  0  0  0  0  0  0  0  0  0
    7.8648  -14.3232   24.6321 C   0  0  2  0  0  0  0  0  0  0  0  0
    7.3522  -15.0134   23.4771 N   0  0  0  0  0  0  0  0  0  0  0  0
    8.6018  -15.2380   25.5472 C   0  0  0  0  0  0  0  0  0  0  0  0
    7.9497  -16.1490   26.1106 O   0  0  0  0  0  0  0  0  0  0  0  0
    9.9902  -15.1452   25.8214 N   0  0  0  0  0  0  0  0  0  0  0  0
   10.7313  -16.2754   26.4268 C   0  0  1  0  0  0  0  0  0  0  0  0
   12.1448  -16.1765   25.9688 C   0  0  0  0  0  0  0  0  0  0  0  0
   12.3294  -16.3506   24.4925 C   0  0  0  0  0  0  0  0  0  0  0  0
   13.7166  -16.2089   24.0386 C   0  0  0  0  0  0  0  0  0  0  0  0
   14.4599  -15.2998   24.4809 O   0  0  0  0  0  0  0  0  0  0  0  0
   10.6305  -16.0893   27.8979 C   0  0  0  0  0  0  0  0  0  0  0  0
   10.2794  -14.9823   28.3847 O   0  0  0  0  0  0  0  0  0  0  0  0
   14.2856  -17.0663   23.0993 O   0  0  0  0  0  0  0  0  0  0  0  0
   10.9100  -17.1019   28.8061 O   0  0  0  0  0  0  0  0  0  0  0  0
  2  1  1  0
  2  3  1  0
  3 10  1  0
  3  4  2  0
  6  8  1  0
  6  5  1  1
  7  6  1  0
  9  8  1  1
 10  9  1  0
 11  9  1  0
 11 13  1  0
 12 11  2  0
 14 15  1  6
 14 13  1  0
 14 19  1  0
 16 15  1  0
 17 16  1  0
 18 17  2  0
 19 22  1  0
 20 19  2  0
 21 17  1  0
M  END
$$$$
