GLE.pdb
     RDKit          3D

 22 21  0  0  1  0  0  0  0  0999 V2000
    6.2295  -18.9334   23.7342 N   0  0  0  0  0  0  0  0  0  0  0  0
    5.6998  -17.6816   24.2075 C   0  0  0  0  0  0  0  0  0  0  0  0
    6.7223  -16.6337   24.3460 C   0  0  0  0  0  0  0  0  0  0  0  0
    7.5487  -16.4781   23.3984 O   0  0  0  0  0  0  0  0  0  0  0  0
    6.7108  -11.7025   24.8584 C   0  0  0  0  0  0  0  0  0  0  0  0
    6.2480  -12.6367   25.9133 C   0  0  2  0  0  0  0  0  0  0  0  0
    5.7365  -11.7937   27.0941 C   0  0  0  0  0  0  0  0  0  0  0  0
    7.2362  -13.5812   26.4734 C   0  0  0  0  0  0  0  0  0  0  0  0
    7.6849  -14.7138   25.6268 C   0  0  2  0  0  0  0  0  0  0  0  0
    6.7706  -15.8212   25.5219 N   0  0  0  0  0  0  0  0  0  0  0  0
    9.0665  -15.1605   25.9573 C   0  0  0  0  0  0  0  0  0  0  0  0
    9.5315  -14.8386   27.0765 O   0  0  0  0  0  0  0  0  0  0  0  0
    9.8878  -15.9248   25.0895 N   0  0  0  0  0  0  0  0  0  0  0  0
   11.2583  -16.3249   25.4828 C   0  0  1  0  0  0  0  0  0  0  0  0
   11.1414  -17.1726   26.7015 C   0  0  0  0  0  0  0  0  0  0  0  0
   10.6182  -18.5528   26.4462 C   0  0  0  0  0  0  0  0  0  0  0  0
   10.6400  -19.4313   27.6201 C   0  0  0  0  0  0  0  0  0  0  0  0
   11.6372  -19.4831   28.3801 O   0  0  0  0  0  0  0  0  0  0  0  0
   11.8012  -17.1033   24.3389 C   0  0  0  0  0  0  0  0  0  0  0  0
   11.0466  -17.4947   23.4100 O   0  0  0  0  0  0  0  0  0  0  0  0
    9.5659  -20.2521   27.9578 O   0  0  0  0  0  0  0  0  0  0  0  0
   13.1440  -17.4385   24.2258 O   0  0  0  0  0  0  0  0  0  0  0  0
  2  1  1  0
  2  3  1  0
  3 10  1  0
  3  4  2  0
  6  8  1  0
  6  5  1  6
  7  6  1  0
  9  8  1  1
 10  9  1  0
 11  9  1  0
 11 13  1  0
 12 11  2  0
 14 15  1  1
 14 13  1  0
 14 19  1  0
 16 15  1  0
 17 16  1  0
 18 17  2  0
 19 22  1  0
 20 19  2  0
 21 17  1  0
M  END
$$$$
