GLE.pdb
     RDKit          3D

 22 21  0  0  1  0  0  0  0  0999 V2000
    7.0776  -18.8137   18.7367 N   0  0  0  0  0  0  0  0  0  0  0  0
    8.4005  -18.4812   18.2775 C   0  0  0  0  0  0  0  0  0  0  0  0
    9.0721  -17.4788   19.1184 C   0  0  0  0  0  0  0  0  0  0  0  0
   10.2825  -17.2029   18.8656 O   0  0  0  0  0  0  0  0  0  0  0  0
    8.2101  -13.0177   19.8518 C   0  0  0  0  0  0  0  0  0  0  0  0
    7.3912  -13.9077   20.7103 C   0  0  2  0  0  0  0  0  0  0  0  0
    6.5138  -13.0166   21.6063 C   0  0  0  0  0  0  0  0  0  0  0  0
    8.1041  -14.8334   21.6142 C   0  0  0  0  0  0  0  0  0  0  0  0
    9.0031  -15.8495   21.0140 C   0  0  2  0  0  0  0  0  0  0  0  0
    8.3669  -16.8419   20.1871 N   0  0  0  0  0  0  0  0  0  0  0  0
    9.9202  -16.4619   22.0147 C   0  0  0  0  0  0  0  0  0  0  0  0
    9.4749  -17.4017   22.7155 O   0  0  0  0  0  0  0  0  0  0  0  0
   11.2614  -16.0514   22.2252 N   0  0  0  0  0  0  0  0  0  0  0  0
   12.1892  -16.8533   23.0555 C   0  0  1  0  0  0  0  0  0  0  0  0
   13.5733  -16.4142   22.7257 C   0  0  0  0  0  0  0  0  0  0  0  0
   14.6446  -17.1055   23.5122 C   0  0  0  0  0  0  0  0  0  0  0  0
   16.0076  -16.6868   23.1698 C   0  0  0  0  0  0  0  0  0  0  0  0
   16.4260  -15.5354   23.4415 O   0  0  0  0  0  0  0  0  0  0  0  0
   11.8496  -16.5390   24.4679 C   0  0  0  0  0  0  0  0  0  0  0  0
   11.2306  -15.4827   24.7620 O   0  0  0  0  0  0  0  0  0  0  0  0
   16.9096  -17.5339   22.5293 O   0  0  0  0  0  0  0  0  0  0  0  0
   12.1855  -17.3725   25.5266 O   0  0  0  0  0  0  0  0  0  0  0  0
  2  1  1  0
  2  3  1  0
  3 10  1  0
  3  4  2  0
  6  8  1  0
  6  5  1  1
  7  6  1  0
  9  8  1  1
 10  9  1  0
 11  9  1  0
 11 13  1  0
 12 11  2  0
 14 15  1  6
 14 13  1  0
 14 19  1  0
 16 15  1  0
 17 16  1  0
 18 17  2  0
 19 22  1  0
 20 19  2  0
 21 17  1  0
M  END
$$$$
