GLE.pdb
     RDKit          3D

 22 21  0  0  1  0  0  0  0  0999 V2000
    9.8270  -18.4272   16.9272 N   0  0  0  0  0  0  0  0  0  0  0  0
    8.9355  -18.2195   18.0379 C   0  0  0  0  0  0  0  0  0  0  0  0
    9.4661  -17.2841   19.0411 C   0  0  0  0  0  0  0  0  0  0  0  0
   10.7231  -17.1512   19.1265 O   0  0  0  0  0  0  0  0  0  0  0  0
    8.3068  -12.7558   19.7419 C   0  0  0  0  0  0  0  0  0  0  0  0
    7.4564  -13.7513   20.4388 C   0  0  2  0  0  0  0  0  0  0  0  0
    6.3787  -12.9810   21.2210 C   0  0  0  0  0  0  0  0  0  0  0  0
    8.1113  -14.6519   21.4095 C   0  0  0  0  0  0  0  0  0  0  0  0
    9.0775  -15.6546   20.8977 C   0  0  2  0  0  0  0  0  0  0  0  0
    8.5770  -16.5524   19.8893 N   0  0  0  0  0  0  0  0  0  0  0  0
    9.7796  -16.3805   21.9920 C   0  0  0  0  0  0  0  0  0  0  0  0
    9.2660  -17.4461   22.4083 O   0  0  0  0  0  0  0  0  0  0  0  0
   10.9889  -15.9450   22.5918 N   0  0  0  0  0  0  0  0  0  0  0  0
   11.6413  -16.7307   23.6642 C   0  0  1  0  0  0  0  0  0  0  0  0
   13.0840  -16.3621   23.6705 C   0  0  0  0  0  0  0  0  0  0  0  0
   13.8079  -16.6782   22.3976 C   0  0  0  0  0  0  0  0  0  0  0  0
   15.2180  -16.2758   22.3913 C   0  0  0  0  0  0  0  0  0  0  0  0
   15.6104  -15.2572   23.0102 O   0  0  0  0  0  0  0  0  0  0  0  0
   10.9787  -16.3230   24.9307 C   0  0  0  0  0  0  0  0  0  0  0  0
   10.1717  -15.3567   24.9535 O   0  0  0  0  0  0  0  0  0  0  0  0
   16.1955  -16.9933   21.7050 O   0  0  0  0  0  0  0  0  0  0  0  0
   11.2028  -16.9685   26.1396 O   0  0  0  0  0  0  0  0  0  0  0  0
  2  1  1  0
  2  3  1  0
  3 10  1  0
  3  4  2  0
  6  8  1  0
  6  5  1  1
  7  6  1  0
  9  8  1  1
 10  9  1  0
 11  9  1  0
 11 13  1  0
 12 11  2  0
 14 15  1  1
 14 13  1  0
 14 19  1  0
 16 15  1  0
 17 16  1  0
 18 17  2  0
 19 22  1  0
 20 19  2  0
 21 17  1  0
M  END
$$$$
