GLE.pdb
     RDKit          3D

 22 21  0  0  1  0  0  0  0  0999 V2000
    7.2066  -14.4972   19.9982 N   0  0  0  0  0  0  0  0  0  0  0  0
    6.4924  -14.6605   21.2371 C   0  0  0  0  0  0  0  0  0  0  0  0
    7.3236  -14.4083   22.4239 C   0  0  0  0  0  0  0  0  0  0  0  0
    8.5758  -14.3025   22.2633 O   0  0  0  0  0  0  0  0  0  0  0  0
    7.7786  -11.2553   25.9754 C   0  0  0  0  0  0  0  0  0  0  0  0
    6.6144  -12.1696   26.0670 C   0  0  2  0  0  0  0  0  0  0  0  0
    5.8625  -11.8417   27.3684 C   0  0  0  0  0  0  0  0  0  0  0  0
    6.8845  -13.6217   26.0968 C   0  0  0  0  0  0  0  0  0  0  0  0
    7.5240  -14.2427   24.9110 C   0  0  2  0  0  0  0  0  0  0  0  0
    6.7222  -14.2883   23.7159 N   0  0  0  0  0  0  0  0  0  0  0  0
    8.1393  -15.5629   25.2206 C   0  0  0  0  0  0  0  0  0  0  0  0
    7.3773  -16.4914   25.5809 O   0  0  0  0  0  0  0  0  0  0  0  0
    9.5283  -15.8366   25.1342 N   0  0  0  0  0  0  0  0  0  0  0  0
   10.0547  -17.2077   25.3242 C   0  0  1  0  0  0  0  0  0  0  0  0
   11.1995  -17.3782   24.3874 C   0  0  0  0  0  0  0  0  0  0  0  0
   12.3173  -16.4026   24.5939 C   0  0  0  0  0  0  0  0  0  0  0  0
   13.4569  -16.5931   23.6909 C   0  0  0  0  0  0  0  0  0  0  0  0
   13.3023  -17.0341   22.5264 O   0  0  0  0  0  0  0  0  0  0  0  0
   10.5046  -17.2807   26.7389 C   0  0  0  0  0  0  0  0  0  0  0  0
   10.9158  -18.3652   27.2291 O   0  0  0  0  0  0  0  0  0  0  0  0
   14.7654  -16.2988   24.0687 O   0  0  0  0  0  0  0  0  0  0  0  0
   10.5004  -16.1820   27.5881 O   0  0  0  0  0  0  0  0  0  0  0  0
  2  1  1  0
  2  3  1  0
  3 10  1  0
  3  4  2  0
  6  8  1  0
  6  5  1  1
  7  6  1  0
  9  8  1  1
 10  9  1  0
 11  9  1  0
 11 13  1  0
 12 11  2  0
 14 15  1  6
 14 13  1  0
 14 19  1  0
 16 15  1  0
 17 16  1  0
 18 17  2  0
 19 22  1  0
 20 19  2  0
 21 17  1  0
M  END
$$$$
