GLE.pdb
     RDKit          3D

 22 21  0  0  1  0  0  0  0  0999 V2000
    7.9061  -15.2099   19.2906 N   0  0  0  0  0  0  0  0  0  0  0  0
    7.0285  -15.2937   20.4283 C   0  0  0  0  0  0  0  0  0  0  0  0
    7.6643  -14.8685   21.6844 C   0  0  0  0  0  0  0  0  0  0  0  0
    8.8998  -15.1036   21.8368 O   0  0  0  0  0  0  0  0  0  0  0  0
    6.1769  -12.1767   27.1927 C   0  0  0  0  0  0  0  0  0  0  0  0
    7.1186  -12.8480   26.2641 C   0  0  2  0  0  0  0  0  0  0  0  0
    8.4098  -12.0129   26.2216 C   0  0  0  0  0  0  0  0  0  0  0  0
    6.6897  -13.0229   24.8613 C   0  0  0  0  0  0  0  0  0  0  0  0
    7.4371  -13.9822   24.0116 C   0  0  2  0  0  0  0  0  0  0  0  0
    6.8977  -14.2096   22.6961 N   0  0  0  0  0  0  0  0  0  0  0  0
    7.7371  -15.2575   24.7196 C   0  0  0  0  0  0  0  0  0  0  0  0
    6.7840  -16.0440   24.9334 O   0  0  0  0  0  0  0  0  0  0  0  0
    9.0282  -15.6384   25.1662 N   0  0  0  0  0  0  0  0  0  0  0  0
    9.2790  -16.9822   25.7357 C   0  0  1  0  0  0  0  0  0  0  0  0
   10.0505  -17.7567   24.7246 C   0  0  0  0  0  0  0  0  0  0  0  0
   11.3795  -17.1616   24.3729 C   0  0  0  0  0  0  0  0  0  0  0  0
   12.1411  -17.9317   23.3844 C   0  0  0  0  0  0  0  0  0  0  0  0
   12.7683  -17.3659   22.4564 O   0  0  0  0  0  0  0  0  0  0  0  0
   10.0810  -16.7612   26.9674 C   0  0  0  0  0  0  0  0  0  0  0  0
   10.4203  -17.7292   27.6976 O   0  0  0  0  0  0  0  0  0  0  0  0
   12.2127  -19.3228   23.4166 O   0  0  0  0  0  0  0  0  0  0  0  0
   10.4973  -15.5020   27.3791 O   0  0  0  0  0  0  0  0  0  0  0  0
  2  1  1  0
  2  3  1  0
  3 10  1  0
  3  4  2  0
  6  8  1  0
  6  5  1  1
  7  6  1  0
  9  8  1  1
 10  9  1  0
 11  9  1  0
 11 13  1  0
 12 11  2  0
 14 15  1  6
 14 13  1  0
 14 19  1  0
 16 15  1  0
 17 16  1  0
 18 17  2  0
 19 22  1  0
 20 19  2  0
 21 17  1  0
M  END
$$$$
