HWV.pdb
     RDKit          3D

 32 34  0  0  1  0  0  0  0  0999 V2000
    8.3123  -17.6458   19.4432 N   0  0  0  0  0  0  0  0  0  0  0  0
    9.6520  -17.1203   19.5502 C   0  0  1  0  0  0  0  0  0  0  0  0
    9.8771  -16.0868   18.4740 C   0  0  0  0  0  0  0  0  0  0  0  0
    9.5462  -16.5826   17.1309 C   0  0  0  0  0  0  0  0  0  0  0  0
   10.4095  -16.7070   16.0673 C   0  0  0  0  0  0  0  0  0  0  0  0
    9.7244  -17.1910   15.0404 N   0  0  0  0  0  0  0  0  0  0  0  0
    8.4562  -17.3717   15.4356 C   0  0  0  0  0  0  0  0  0  0  0  0
    8.3474  -16.9974   16.7211 N   0  0  0  0  0  0  0  0  0  0  0  0
    9.7866  -16.4407   20.8665 C   0  0  0  0  0  0  0  0  0  0  0  0
   10.8874  -15.8825   21.1009 O   0  0  0  0  0  0  0  0  0  0  0  0
    8.7807  -16.3862   21.8424 N   0  0  0  0  0  0  0  0  0  0  0  0
    8.9507  -15.8384   23.1670 C   0  0  1  0  0  0  0  0  0  0  0  0
    7.7682  -15.0836   23.6543 C   0  0  0  0  0  0  0  0  0  0  0  0
    8.0476  -14.5082   24.9927 C   0  0  0  0  0  0  0  0  0  0  0  0
    8.9418  -14.9405   25.9556 C   0  0  0  0  0  0  0  0  0  0  0  0
    8.8855  -14.1441   27.0327 N   0  0  0  0  0  0  0  0  0  0  0  0
    7.9709  -13.1844   26.8132 C   0  0  0  0  0  0  0  0  0  0  0  0
    7.5083  -12.1065   27.5791 C   0  0  0  0  0  0  0  0  0  0  0  0
    6.5341  -11.2856   27.0483 C   0  0  0  0  0  0  0  0  0  0  0  0
    5.9891  -11.4727   25.7950 C   0  0  0  0  0  0  0  0  0  0  0  0
    6.4693  -12.5479   25.0646 C   0  0  0  0  0  0  0  0  0  0  0  0
    7.4423  -13.3946   25.5550 C   0  0  0  0  0  0  0  0  0  0  0  0
    9.2209  -16.9673   24.0933 C   0  0  0  0  0  0  0  0  0  0  0  0
    8.3701  -17.8582   24.3155 O   0  0  0  0  0  0  0  0  0  0  0  0
   12.9157  -19.5575   26.1221 C   0  0  0  0  0  0  0  0  0  0  0  0
   12.4061  -18.4081   25.2894 C   0  0  1  0  0  0  0  0  0  0  0  0
   12.6845  -18.6030   23.8187 C   0  0  0  0  0  0  0  0  0  0  0  0
   10.9089  -18.1816   25.5403 C   0  0  2  0  0  0  0  0  0  0  0  0
   10.4884  -17.0535   24.7609 N   0  0  0  0  0  0  0  0  0  0  0  0
   10.7795  -17.9584   26.9962 C   0  0  0  0  0  0  0  0  0  0  0  0
   10.5057  -19.0564   27.7987 O   0  0  0  0  0  0  0  0  0  0  0  0
   10.9001  -16.8421   27.5606 O   0  0  0  0  0  0  0  0  0  0  0  0
  2  3  1  0
  2  1  1  6
  3  4  1  0
  4  8  1  0
  4  5  2  0
  5  6  1  0
  7  6  1  0
  8  7  2  0
  9 10  2  0
  9  2  1  0
 11  9  1  0
 12 11  1  0
 12 13  1  1
 13 14  1  0
 14 22  1  0
 14 15  2  0
 15 16  1  0
 17 16  1  0
 17 18  2  0
 19 18  1  0
 20 19  2  0
 21 20  1  0
 21 22  2  0
 22 17  1  0
 23 29  1  0
 23 12  1  0
 24 23  2  0
 26 28  1  0
 26 25  1  1
 27 26  1  0
 28 29  1  6
 28 30  1  0
 30 31  1  0
 32 30  2  0
M  END
$$$$
