HWV.pdb
     RDKit          3D

 32 34  0  0  1  0  0  0  0  0999 V2000
    8.8560  -16.4095   20.0052 N   0  0  0  0  0  0  0  0  0  0  0  0
    8.8187  -15.0139   20.3704 C   0  0  1  0  0  0  0  0  0  0  0  0
    7.7157  -14.3212   19.6085 C   0  0  0  0  0  0  0  0  0  0  0  0
    7.9250  -14.3478   18.1542 C   0  0  0  0  0  0  0  0  0  0  0  0
    8.3922  -13.3157   17.3742 C   0  0  0  0  0  0  0  0  0  0  0  0
    8.4382  -13.7415   16.1193 N   0  0  0  0  0  0  0  0  0  0  0  0
    8.0119  -15.0122   16.0962 C   0  0  0  0  0  0  0  0  0  0  0  0
    7.6966  -15.3844   17.3477 N   0  0  0  0  0  0  0  0  0  0  0  0
    8.4992  -14.9157   21.8199 C   0  0  0  0  0  0  0  0  0  0  0  0
    7.3973  -14.3913   22.1182 O   0  0  0  0  0  0  0  0  0  0  0  0
    9.3358  -15.3631   22.8529 N   0  0  0  0  0  0  0  0  0  0  0  0
    8.9919  -15.3430   24.2547 C   0  0  1  0  0  0  0  0  0  0  0  0
    7.7917  -16.1533   24.5841 C   0  0  0  0  0  0  0  0  0  0  0  0
    6.8177  -15.3341   25.3458 C   0  0  0  0  0  0  0  0  0  0  0  0
    5.5375  -15.6621   25.7548 C   0  0  0  0  0  0  0  0  0  0  0  0
    4.9843  -14.6360   26.4171 N   0  0  0  0  0  0  0  0  0  0  0  0
    5.8672  -13.6241   26.4617 C   0  0  0  0  0  0  0  0  0  0  0  0
    5.8252  -12.3374   27.0143 C   0  0  0  0  0  0  0  0  0  0  0  0
    6.9310  -11.5223   26.8818 C   0  0  0  0  0  0  0  0  0  0  0  0
    8.0824  -11.9114   26.2295 C   0  0  0  0  0  0  0  0  0  0  0  0
    8.0901  -13.1898   25.6949 C   0  0  0  0  0  0  0  0  0  0  0  0
    7.0079  -14.0389   25.8033 C   0  0  0  0  0  0  0  0  0  0  0  0
   10.1550  -15.8680   25.0143 C   0  0  0  0  0  0  0  0  0  0  0  0
   10.9650  -16.6768   24.5075 O   0  0  0  0  0  0  0  0  0  0  0  0
   11.4329  -13.7620   28.3988 C   0  0  0  0  0  0  0  0  0  0  0  0
   11.3174  -15.2555   28.5734 C   0  0  1  0  0  0  0  0  0  0  0  0
   10.0588  -15.6472   29.3087 C   0  0  0  0  0  0  0  0  0  0  0  0
   11.4048  -15.9662   27.2157 C   0  0  2  0  0  0  0  0  0  0  0  0
   10.3702  -15.4465   26.3692 N   0  0  0  0  0  0  0  0  0  0  0  0
   11.2416  -17.4060   27.5100 C   0  0  0  0  0  0  0  0  0  0  0  0
   12.3231  -18.0831   28.0545 O   0  0  0  0  0  0  0  0  0  0  0  0
   10.1905  -18.0624   27.3015 O   0  0  0  0  0  0  0  0  0  0  0  0
  2  3  1  0
  2  1  1  6
  3  4  1  0
  4  8  1  0
  4  5  2  0
  5  6  1  0
  7  6  1  0
  8  7  2  0
  9 10  2  0
  9  2  1  0
 11  9  1  0
 12 11  1  0
 12 13  1  6
 13 14  1  0
 14 22  1  0
 14 15  2  0
 15 16  1  0
 17 16  1  0
 17 18  2  0
 19 18  1  0
 20 19  2  0
 21 20  1  0
 21 22  2  0
 22 17  1  0
 23 29  1  0
 23 12  1  0
 24 23  2  0
 26 28  1  0
 26 25  1  6
 27 26  1  0
 28 29  1  6
 28 30  1  0
 30 31  1  0
 32 30  2  0
M  END
$$$$
