HWV.pdb
     RDKit          3D

 32 34  0  0  1  0  0  0  0  0999 V2000
    8.8293  -15.7126   20.4459 N   0  0  0  0  0  0  0  0  0  0  0  0
    8.5532  -16.8796   21.2485 C   0  0  1  0  0  0  0  0  0  0  0  0
    9.3026  -18.0651   20.6916 C   0  0  0  0  0  0  0  0  0  0  0  0
    8.8486  -18.4444   19.3465 C   0  0  0  0  0  0  0  0  0  0  0  0
    7.7732  -19.2454   19.0398 C   0  0  0  0  0  0  0  0  0  0  0  0
    7.7000  -19.3417   17.7193 N   0  0  0  0  0  0  0  0  0  0  0  0
    8.7015  -18.6217   17.1944 C   0  0  0  0  0  0  0  0  0  0  0  0
    9.4073  -18.0703   18.1954 N   0  0  0  0  0  0  0  0  0  0  0  0
    9.0561  -16.6322   22.6264 C   0  0  0  0  0  0  0  0  0  0  0  0
   10.1801  -16.0794   22.7237 O   0  0  0  0  0  0  0  0  0  0  0  0
    8.3668  -16.9715   23.7998 N   0  0  0  0  0  0  0  0  0  0  0  0
    8.8729  -16.7705   25.1366 C   0  0  1  0  0  0  0  0  0  0  0  0
    7.8079  -16.5612   26.1503 C   0  0  0  0  0  0  0  0  0  0  0  0
    7.0848  -15.2956   25.8750 C   0  0  0  0  0  0  0  0  0  0  0  0
    5.8362  -15.1131   25.3081 C   0  0  0  0  0  0  0  0  0  0  0  0
    5.5485  -13.8061   25.2290 N   0  0  0  0  0  0  0  0  0  0  0  0
    6.5791  -13.1056   25.7318 C   0  0  0  0  0  0  0  0  0  0  0  0
    6.8181  -11.7351   25.8974 C   0  0  0  0  0  0  0  0  0  0  0  0
    8.0115  -11.3336   26.4625 C   0  0  0  0  0  0  0  0  0  0  0  0
    8.9870  -12.2172   26.8753 C   0  0  0  0  0  0  0  0  0  0  0  0
    8.7182  -13.5648   26.6969 C   0  0  0  0  0  0  0  0  0  0  0  0
    7.5391  -14.0118   26.1365 C   0  0  0  0  0  0  0  0  0  0  0  0
    9.6653  -17.9708   25.5066 C   0  0  0  0  0  0  0  0  0  0  0  0
    9.2743  -19.1294   25.2388 O   0  0  0  0  0  0  0  0  0  0  0  0
   14.0647  -19.5659   27.2105 C   0  0  0  0  0  0  0  0  0  0  0  0
   13.1844  -18.4741   26.6562 C   0  0  1  0  0  0  0  0  0  0  0  0
   13.6118  -18.0446   25.2738 C   0  0  0  0  0  0  0  0  0  0  0  0
   11.7127  -18.9098   26.6662 C   0  0  2  0  0  0  0  0  0  0  0  0
   10.9169  -17.8151   26.1916 N   0  0  0  0  0  0  0  0  0  0  0  0
   11.4160  -19.2745   28.0681 C   0  0  0  0  0  0  0  0  0  0  0  0
   11.9402  -20.4637   28.5534 O   0  0  0  0  0  0  0  0  0  0  0  0
   10.7210  -18.5826   28.8537 O   0  0  0  0  0  0  0  0  0  0  0  0
  2  3  1  0
  2  1  1  6
  3  4  1  0
  4  8  1  0
  4  5  2  0
  5  6  1  0
  7  6  1  0
  8  7  2  0
  9 10  2  0
  9  2  1  0
 11  9  1  0
 12 11  1  0
 12 13  1  1
 13 14  1  0
 14 22  1  0
 14 15  2  0
 15 16  1  0
 17 16  1  0
 17 18  2  0
 19 18  1  0
 20 19  2  0
 21 20  1  0
 21 22  2  0
 22 17  1  0
 23 29  1  0
 23 12  1  0
 24 23  2  0
 26 28  1  0
 26 25  1  6
 27 26  1  0
 28 29  1  1
 28 30  1  0
 30 31  1  0
 32 30  2  0
M  END
$$$$
