HWV.pdb
     RDKit          3D

 32 34  0  0  1  0  0  0  0  0999 V2000
   10.1414  -18.0674   20.9407 N   0  0  0  0  0  0  0  0  0  0  0  0
   10.5786  -16.6923   20.9608 C   0  0  1  0  0  0  0  0  0  0  0  0
    9.9338  -15.9400   19.8226 C   0  0  0  0  0  0  0  0  0  0  0  0
   10.3544  -16.4335   18.5039 C   0  0  0  0  0  0  0  0  0  0  0  0
   11.1655  -17.5159   18.2540 C   0  0  0  0  0  0  0  0  0  0  0  0
   11.3020  -17.6285   16.9399 N   0  0  0  0  0  0  0  0  0  0  0  0
   10.5971  -16.6447   16.3635 C   0  0  0  0  0  0  0  0  0  0  0  0
   10.0147  -15.9103   17.3257 N   0  0  0  0  0  0  0  0  0  0  0  0
   10.1193  -16.0715   22.2321 C   0  0  0  0  0  0  0  0  0  0  0  0
   10.4114  -14.8619   22.4046 O   0  0  0  0  0  0  0  0  0  0  0  0
    9.3952  -16.7401   23.2300 N   0  0  0  0  0  0  0  0  0  0  0  0
    9.0825  -16.1885   24.5267 C   0  0  1  0  0  0  0  0  0  0  0  0
    7.8621  -16.7699   25.1415 C   0  0  0  0  0  0  0  0  0  0  0  0
    6.8172  -15.7268   25.2839 C   0  0  0  0  0  0  0  0  0  0  0  0
    5.4418  -15.8722   25.3155 C   0  0  0  0  0  0  0  0  0  0  0  0
    4.8513  -14.6764   25.4524 N   0  0  0  0  0  0  0  0  0  0  0  0
    5.8025  -13.7292   25.5134 C   0  0  0  0  0  0  0  0  0  0  0  0
    5.7617  -12.3356   25.6511 C   0  0  0  0  0  0  0  0  0  0  0  0
    6.9516  -11.6369   25.6795 C   0  0  0  0  0  0  0  0  0  0  0  0
    8.1864  -12.2434   25.5789 C   0  0  0  0  0  0  0  0  0  0  0  0
    8.1903  -13.6225   25.4439 C   0  0  0  0  0  0  0  0  0  0  0  0
    7.0256  -14.3617   25.4107 C   0  0  0  0  0  0  0  0  0  0  0  0
   10.2426  -16.4415   25.4187 C   0  0  0  0  0  0  0  0  0  0  0  0
   11.1775  -17.2049   25.0868 O   0  0  0  0  0  0  0  0  0  0  0  0
   11.2845  -13.6377   28.2889 C   0  0  0  0  0  0  0  0  0  0  0  0
   11.1732  -15.0461   28.8165 C   0  0  1  0  0  0  0  0  0  0  0  0
    9.8866  -15.2708   29.5730 C   0  0  0  0  0  0  0  0  0  0  0  0
   11.3261  -16.0632   27.6772 C   0  0  2  0  0  0  0  0  0  0  0  0
   10.3084  -15.8008   26.7013 N   0  0  0  0  0  0  0  0  0  0  0  0
   11.1902  -17.3924   28.3106 C   0  0  0  0  0  0  0  0  0  0  0  0
   12.2522  -17.8599   29.0709 O   0  0  0  0  0  0  0  0  0  0  0  0
   10.1788  -18.1311   28.2092 O   0  0  0  0  0  0  0  0  0  0  0  0
  2  3  1  0
  2  1  1  1
  3  4  1  0
  4  8  1  0
  4  5  2  0
  5  6  1  0
  7  6  1  0
  8  7  2  0
  9 10  2  0
  9  2  1  0
 11  9  1  0
 12 11  1  0
 12 13  1  1
 13 14  1  0
 14 22  1  0
 14 15  2  0
 15 16  1  0
 17 16  1  0
 17 18  2  0
 19 18  1  0
 20 19  2  0
 21 20  1  0
 21 22  2  0
 22 17  1  0
 23 29  1  0
 23 12  1  0
 24 23  2  0
 26 28  1  0
 26 25  1  6
 27 26  1  0
 28 29  1  6
 28 30  1  0
 30 31  1  0
 32 30  2  0
M  END
$$$$
