HWV.pdb
     RDKit          3D

 32 34  0  0  1  0  0  0  0  0999 V2000
   10.0794  -18.2656   20.8534 N   0  0  0  0  0  0  0  0  0  0  0  0
   10.8777  -17.0766   21.0308 C   0  0  1  0  0  0  0  0  0  0  0  0
   10.5997  -16.1086   19.9071 C   0  0  0  0  0  0  0  0  0  0  0  0
   10.9224  -16.6635   18.5852 C   0  0  0  0  0  0  0  0  0  0  0  0
   11.1794  -17.9822   18.2902 C   0  0  0  0  0  0  0  0  0  0  0  0
   11.4239  -18.0689   16.9899 N   0  0  0  0  0  0  0  0  0  0  0  0
   11.3262  -16.8389   16.4661 C   0  0  0  0  0  0  0  0  0  0  0  0
   11.0178  -15.9752   17.4475 N   0  0  0  0  0  0  0  0  0  0  0  0
   10.4706  -16.4226   22.3034 C   0  0  0  0  0  0  0  0  0  0  0  0
   10.8998  -15.2583   22.4993 O   0  0  0  0  0  0  0  0  0  0  0  0
    9.6539  -17.0142   23.2782 N   0  0  0  0  0  0  0  0  0  0  0  0
    9.2313  -16.3677   24.4977 C   0  0  1  0  0  0  0  0  0  0  0  0
    7.9580  -16.9026   25.0436 C   0  0  0  0  0  0  0  0  0  0  0  0
    6.8975  -15.8683   24.9685 C   0  0  0  0  0  0  0  0  0  0  0  0
    5.5984  -15.9867   24.5080 C   0  0  0  0  0  0  0  0  0  0  0  0
    4.9623  -14.8105   24.6045 N   0  0  0  0  0  0  0  0  0  0  0  0
    5.8080  -13.9030   25.1210 C   0  0  0  0  0  0  0  0  0  0  0  0
    5.6825  -12.5432   25.4341 C   0  0  0  0  0  0  0  0  0  0  0  0
    6.7708  -11.8821   25.9663 C   0  0  0  0  0  0  0  0  0  0  0  0
    7.9830  -12.4946   26.2074 C   0  0  0  0  0  0  0  0  0  0  0  0
    8.0726  -13.8396   25.8863 C   0  0  0  0  0  0  0  0  0  0  0  0
    7.0107  -14.5407   25.3524 C   0  0  0  0  0  0  0  0  0  0  0  0
   10.3066  -16.5528   25.5051 C   0  0  0  0  0  0  0  0  0  0  0  0
   11.1994  -17.4194   25.3674 O   0  0  0  0  0  0  0  0  0  0  0  0
   11.7113  -15.1376   30.1087 C   0  0  0  0  0  0  0  0  0  0  0  0
   10.8311  -14.9461   28.8992 C   0  0  1  0  0  0  0  0  0  0  0  0
   10.8882  -13.5332   28.3714 C   0  0  0  0  0  0  0  0  0  0  0  0
   11.1922  -15.9577   27.8028 C   0  0  2  0  0  0  0  0  0  0  0  0
   10.3370  -15.7230   26.6757 N   0  0  0  0  0  0  0  0  0  0  0  0
   10.9935  -17.2906   28.4112 C   0  0  0  0  0  0  0  0  0  0  0  0
    9.7041  -17.8012   28.4473 O   0  0  0  0  0  0  0  0  0  0  0  0
   11.9115  -17.9962   28.8995 O   0  0  0  0  0  0  0  0  0  0  0  0
  2  3  1  0
  2  1  1  6
  3  4  1  0
  4  8  1  0
  4  5  2  0
  5  6  1  0
  7  6  1  0
  8  7  2  0
  9 10  2  0
  9  2  1  0
 11  9  1  0
 12 11  1  0
 12 13  1  1
 13 14  1  0
 14 22  1  0
 14 15  2  0
 15 16  1  0
 17 16  1  0
 17 18  2  0
 19 18  1  0
 20 19  2  0
 21 20  1  0
 21 22  2  0
 22 17  1  0
 23 29  1  0
 23 12  1  0
 24 23  2  0
 26 28  1  0
 26 25  1  1
 27 26  1  0
 28 29  1  6
 28 30  1  0
 30 31  1  0
 32 30  2  0
M  END
$$$$
