HWV.pdb
     RDKit          3D

 32 34  0  0  1  0  0  0  0  0999 V2000
    7.8843  -16.4314   20.3588 N   0  0  0  0  0  0  0  0  0  0  0  0
    8.9556  -17.2335   20.8987 C   0  0  1  0  0  0  0  0  0  0  0  0
   10.1449  -17.1786   19.9716 C   0  0  0  0  0  0  0  0  0  0  0  0
    9.8716  -17.7801   18.6591 C   0  0  0  0  0  0  0  0  0  0  0  0
    9.8516  -19.1228   18.3608 C   0  0  0  0  0  0  0  0  0  0  0  0
    9.5652  -19.2500   17.0724 N   0  0  0  0  0  0  0  0  0  0  0  0
    9.4061  -18.0219   16.5592 C   0  0  0  0  0  0  0  0  0  0  0  0
    9.5946  -17.1186   17.5353 N   0  0  0  0  0  0  0  0  0  0  0  0
    9.3696  -16.6488   22.2023 C   0  0  0  0  0  0  0  0  0  0  0  0
   10.1487  -15.6644   22.1546 O   0  0  0  0  0  0  0  0  0  0  0  0
    8.9526  -17.1198   23.4559 N   0  0  0  0  0  0  0  0  0  0  0  0
    9.5299  -16.7195   24.7168 C   0  0  1  0  0  0  0  0  0  0  0  0
    8.5619  -16.7275   25.8431 C   0  0  0  0  0  0  0  0  0  0  0  0
    7.5060  -15.7112   25.6141 C   0  0  0  0  0  0  0  0  0  0  0  0
    6.2228  -15.8849   25.1273 C   0  0  0  0  0  0  0  0  0  0  0  0
    5.5856  -14.7069   25.0666 N   0  0  0  0  0  0  0  0  0  0  0  0
    6.4150  -13.7440   25.5031 C   0  0  0  0  0  0  0  0  0  0  0  0
    6.2812  -12.3575   25.6533 C   0  0  0  0  0  0  0  0  0  0  0  0
    7.3521  -11.6370   26.1417 C   0  0  0  0  0  0  0  0  0  0  0  0
    8.5547  -12.2148   26.4919 C   0  0  0  0  0  0  0  0  0  0  0  0
    8.6529  -13.5876   26.3309 C   0  0  0  0  0  0  0  0  0  0  0  0
    7.6084  -14.3480   25.8463 C   0  0  0  0  0  0  0  0  0  0  0  0
   10.6402  -17.6564   25.0250 C   0  0  0  0  0  0  0  0  0  0  0  0
   10.4662  -18.8952   25.0706 O   0  0  0  0  0  0  0  0  0  0  0  0
   15.5722  -17.9765   25.7706 C   0  0  0  0  0  0  0  0  0  0  0  0
   14.3574  -17.1486   25.4340 C   0  0  1  0  0  0  0  0  0  0  0  0
   14.4094  -16.6076   24.0259 C   0  0  0  0  0  0  0  0  0  0  0  0
   13.0727  -17.9559   25.6659 C   0  0  2  0  0  0  0  0  0  0  0  0
   11.9558  -17.1429   25.2806 N   0  0  0  0  0  0  0  0  0  0  0  0
   13.0712  -18.2952   27.1051 C   0  0  0  0  0  0  0  0  0  0  0  0
   13.8293  -19.3820   27.5158 O   0  0  0  0  0  0  0  0  0  0  0  0
   12.4305  -17.6679   27.9855 O   0  0  0  0  0  0  0  0  0  0  0  0
  2  3  1  0
  2  1  1  6
  3  4  1  0
  4  8  1  0
  4  5  2  0
  5  6  1  0
  7  6  1  0
  8  7  2  0
  9 10  2  0
  9  2  1  0
 11  9  1  0
 12 11  1  0
 12 13  1  1
 13 14  1  0
 14 22  1  0
 14 15  2  0
 15 16  1  0
 17 16  1  0
 17 18  2  0
 19 18  1  0
 20 19  2  0
 21 20  1  0
 21 22  2  0
 22 17  1  0
 23 29  1  0
 23 12  1  0
 24 23  2  0
 26 28  1  0
 26 25  1  6
 27 26  1  0
 28 29  1  1
 28 30  1  0
 30 31  1  0
 32 30  2  0
M  END
$$$$
