HWV.pdb
     RDKit          3D

 32 34  0  0  1  0  0  0  0  0999 V2000
   11.1958  -18.0317   20.3687 N   0  0  0  0  0  0  0  0  0  0  0  0
   12.0630  -17.0223   20.9267 C   0  0  1  0  0  0  0  0  0  0  0  0
   12.5007  -16.0736   19.8379 C   0  0  0  0  0  0  0  0  0  0  0  0
   13.0101  -16.7693   18.6480 C   0  0  0  0  0  0  0  0  0  0  0  0
   13.0580  -18.1299   18.4516 C   0  0  0  0  0  0  0  0  0  0  0  0
   13.5825  -18.3508   17.2540 N   0  0  0  0  0  0  0  0  0  0  0  0
   13.8631  -17.1636   16.6982 C   0  0  0  0  0  0  0  0  0  0  0  0
   13.5109  -16.1917   17.5559 N   0  0  0  0  0  0  0  0  0  0  0  0
   11.2894  -16.2385   21.9267 C   0  0  0  0  0  0  0  0  0  0  0  0
   11.8032  -15.1596   22.3145 O   0  0  0  0  0  0  0  0  0  0  0  0
   10.0472  -16.6223   22.4528 N   0  0  0  0  0  0  0  0  0  0  0  0
    9.3220  -15.8900   23.4634 C   0  0  1  0  0  0  0  0  0  0  0  0
    7.8540  -16.1103   23.4187 C   0  0  0  0  0  0  0  0  0  0  0  0
    7.1917  -15.3499   24.5065 C   0  0  0  0  0  0  0  0  0  0  0  0
    6.4884  -15.8275   25.5979 C   0  0  0  0  0  0  0  0  0  0  0  0
    6.0420  -14.8079   26.3452 N   0  0  0  0  0  0  0  0  0  0  0  0
    6.4313  -13.6536   25.7780 C   0  0  0  0  0  0  0  0  0  0  0  0
    6.2498  -12.3071   26.1200 C   0  0  0  0  0  0  0  0  0  0  0  0
    6.7923  -11.3364   25.3026 C   0  0  0  0  0  0  0  0  0  0  0  0
    7.5083  -11.6251   24.1595 C   0  0  0  0  0  0  0  0  0  0  0  0
    7.6688  -12.9664   23.8508 C   0  0  0  0  0  0  0  0  0  0  0  0
    7.1442  -13.9704   24.6387 C   0  0  0  0  0  0  0  0  0  0  0  0
    9.8363  -16.3171   24.7895 C   0  0  0  0  0  0  0  0  0  0  0  0
   10.1772  -17.5000   25.0166 O   0  0  0  0  0  0  0  0  0  0  0  0
    9.1927  -13.7809   28.1310 C   0  0  0  0  0  0  0  0  0  0  0  0
   10.5788  -14.3440   27.9417 C   0  0  1  0  0  0  0  0  0  0  0  0
   11.2938  -14.5504   29.2548 C   0  0  0  0  0  0  0  0  0  0  0  0
   10.5262  -15.6478   27.1334 C   0  0  2  0  0  0  0  0  0  0  0  0
    9.9514  -15.3588   25.8516 N   0  0  0  0  0  0  0  0  0  0  0  0
    9.7071  -16.5805   27.9369 C   0  0  0  0  0  0  0  0  0  0  0  0
   10.3457  -17.3223   28.9200 O   0  0  0  0  0  0  0  0  0  0  0  0
    8.4704  -16.7499   27.7926 O   0  0  0  0  0  0  0  0  0  0  0  0
  2  3  1  0
  2  1  1  6
  3  4  1  0
  4  8  1  0
  4  5  2  0
  5  6  1  0
  7  6  1  0
  8  7  2  0
  9 10  2  0
  9  2  1  0
 11  9  1  0
 12 11  1  0
 12 13  1  1
 13 14  1  0
 14 22  1  0
 14 15  2  0
 15 16  1  0
 17 16  1  0
 17 18  2  0
 19 18  1  0
 20 19  2  0
 21 20  1  0
 21 22  2  0
 22 17  1  0
 23 29  1  0
 23 12  1  0
 24 23  2  0
 26 28  1  0
 26 25  1  1
 27 26  1  0
 28 29  1  6
 28 30  1  0
 30 31  1  0
 32 30  2  0
M  END
$$$$
