HWV.pdb
     RDKit          3D

 32 34  0  0  1  0  0  0  0  0999 V2000
   11.3659  -16.3149   20.4286 N   0  0  0  0  0  0  0  0  0  0  0  0
   10.3045  -17.0744   21.0442 C   0  0  1  0  0  0  0  0  0  0  0  0
   10.5841  -18.5493   20.8919 C   0  0  0  0  0  0  0  0  0  0  0  0
   10.2521  -19.0561   19.5531 C   0  0  0  0  0  0  0  0  0  0  0  0
   11.1155  -19.6564   18.6664 C   0  0  0  0  0  0  0  0  0  0  0  0
   10.4283  -19.9692   17.5764 N   0  0  0  0  0  0  0  0  0  0  0  0
    9.1588  -19.5798   17.7600 C   0  0  0  0  0  0  0  0  0  0  0  0
    9.0512  -19.0184   18.9756 N   0  0  0  0  0  0  0  0  0  0  0  0
   10.2872  -16.7643   22.4990 C   0  0  0  0  0  0  0  0  0  0  0  0
   11.2780  -16.1388   22.9521 O   0  0  0  0  0  0  0  0  0  0  0  0
    9.2539  -17.1204   23.3780 N   0  0  0  0  0  0  0  0  0  0  0  0
    9.1391  -16.6577   24.7404 C   0  0  1  0  0  0  0  0  0  0  0  0
    7.7456  -16.3422   25.1457 C   0  0  0  0  0  0  0  0  0  0  0  0
    7.3242  -15.0485   24.5551 C   0  0  0  0  0  0  0  0  0  0  0  0
    7.0766  -14.7369   23.2302 C   0  0  0  0  0  0  0  0  0  0  0  0
    6.7215  -13.4493   23.1143 N   0  0  0  0  0  0  0  0  0  0  0  0
    6.7252  -12.8885   24.3355 C   0  0  0  0  0  0  0  0  0  0  0  0
    6.4416  -11.5973   24.7994 C   0  0  0  0  0  0  0  0  0  0  0  0
    6.5427  -11.3415   26.1518 C   0  0  0  0  0  0  0  0  0  0  0  0
    6.9107  -12.2972   27.0760 C   0  0  0  0  0  0  0  0  0  0  0  0
    7.1841  -13.5631   26.5831 C   0  0  0  0  0  0  0  0  0  0  0  0
    7.0960  -13.8642   25.2394 C   0  0  0  0  0  0  0  0  0  0  0  0
    9.6728  -17.7226   25.6274 C   0  0  0  0  0  0  0  0  0  0  0  0
    9.1634  -17.9699   26.7438 O   0  0  0  0  0  0  0  0  0  0  0  0
   12.0083  -20.7167   23.7950 C   0  0  0  0  0  0  0  0  0  0  0  0
   12.4871  -20.2180   25.1353 C   0  0  1  0  0  0  0  0  0  0  0  0
   13.6178  -19.2268   25.0033 C   0  0  0  0  0  0  0  0  0  0  0  0
   11.3225  -19.6201   25.9365 C   0  0  2  0  0  0  0  0  0  0  0  0
   10.8045  -18.4989   25.2075 N   0  0  0  0  0  0  0  0  0  0  0  0
   11.8943  -19.2429   27.2469 C   0  0  0  0  0  0  0  0  0  0  0  0
   12.1253  -17.8968   27.4903 O   0  0  0  0  0  0  0  0  0  0  0  0
   12.1870  -20.0566   28.1587 O   0  0  0  0  0  0  0  0  0  0  0  0
  2  3  1  0
  2  1  1  6
  3  4  1  0
  4  8  1  0
  4  5  2  0
  5  6  1  0
  7  6  1  0
  8  7  2  0
  9 10  2  0
  9  2  1  0
 11  9  1  0
 12 11  1  0
 12 13  1  1
 13 14  1  0
 14 22  1  0
 14 15  2  0
 15 16  1  0
 17 16  1  0
 17 18  2  0
 19 18  1  0
 20 19  2  0
 21 20  1  0
 21 22  2  0
 22 17  1  0
 23 29  1  0
 23 12  1  0
 24 23  2  0
 26 28  1  0
 26 25  1  6
 27 26  1  0
 28 29  1  6
 28 30  1  0
 30 31  1  0
 32 30  2  0
M  END
$$$$
