HWV.pdb
     RDKit          3D

 32 34  0  0  1  0  0  0  0  0999 V2000
    9.9682  -16.4738   19.4970 N   0  0  0  0  0  0  0  0  0  0  0  0
   10.7183  -16.9458   20.6359 C   0  0  1  0  0  0  0  0  0  0  0  0
   12.1655  -16.5443   20.4897 C   0  0  0  0  0  0  0  0  0  0  0  0
   12.9207  -17.4481   19.6109 C   0  0  0  0  0  0  0  0  0  0  0  0
   13.0959  -18.8015   19.7825 C   0  0  0  0  0  0  0  0  0  0  0  0
   13.8346  -19.2479   18.7758 N   0  0  0  0  0  0  0  0  0  0  0  0
   14.1247  -18.2083   17.9808 C   0  0  0  0  0  0  0  0  0  0  0  0
   13.5625  -17.1020   18.4949 N   0  0  0  0  0  0  0  0  0  0  0  0
   10.1855  -16.2838   21.8568 C   0  0  0  0  0  0  0  0  0  0  0  0
   10.2070  -15.0278   21.8700 O   0  0  0  0  0  0  0  0  0  0  0  0
    9.6713  -16.9620   22.9717 N   0  0  0  0  0  0  0  0  0  0  0  0
    9.1057  -16.3200   24.1342 C   0  0  1  0  0  0  0  0  0  0  0  0
    7.8482  -16.9514   24.6092 C   0  0  0  0  0  0  0  0  0  0  0  0
    6.8860  -15.9082   25.0406 C   0  0  0  0  0  0  0  0  0  0  0  0
    5.5363  -16.0312   25.3177 C   0  0  0  0  0  0  0  0  0  0  0  0
    5.0246  -14.8437   25.6719 N   0  0  0  0  0  0  0  0  0  0  0  0
    6.0038  -13.9240   25.6386 C   0  0  0  0  0  0  0  0  0  0  0  0
    6.0391  -12.5497   25.9080 C   0  0  0  0  0  0  0  0  0  0  0  0
    7.2377  -11.8785   25.7752 C   0  0  0  0  0  0  0  0  0  0  0  0
    8.4098  -12.4946   25.3887 C   0  0  0  0  0  0  0  0  0  0  0  0
    8.3393  -13.8541   25.1301 C   0  0  0  0  0  0  0  0  0  0  0  0
    7.1630  -14.5657   25.2498 C   0  0  0  0  0  0  0  0  0  0  0  0
   10.1170  -16.3764   25.2203 C   0  0  0  0  0  0  0  0  0  0  0  0
   11.0889  -17.1643   25.1783 O   0  0  0  0  0  0  0  0  0  0  0  0
   11.0383  -14.7418   29.8683 C   0  0  0  0  0  0  0  0  0  0  0  0
   10.1863  -14.7253   28.6240 C   0  0  1  0  0  0  0  0  0  0  0  0
    9.9397  -13.3237   28.1212 C   0  0  0  0  0  0  0  0  0  0  0  0
   10.8125  -15.6000   27.5292 C   0  0  2  0  0  0  0  0  0  0  0  0
    9.9906  -15.5099   26.3574 N   0  0  0  0  0  0  0  0  0  0  0  0
   10.8657  -16.9656   28.0939 C   0  0  0  0  0  0  0  0  0  0  0  0
    9.6839  -17.6898   28.1518 O   0  0  0  0  0  0  0  0  0  0  0  0
   11.9078  -17.5188   28.5265 O   0  0  0  0  0  0  0  0  0  0  0  0
  2  3  1  0
  2  1  1  6
  3  4  1  0
  4  8  1  0
  4  5  2  0
  5  6  1  0
  7  6  1  0
  8  7  2  0
  9 10  2  0
  9  2  1  0
 11  9  1  0
 12 11  1  0
 12 13  1  1
 13 14  1  0
 14 22  1  0
 14 15  2  0
 15 16  1  0
 17 16  1  0
 17 18  2  0
 19 18  1  0
 20 19  2  0
 21 20  1  0
 21 22  2  0
 22 17  1  0
 23 29  1  0
 23 12  1  0
 24 23  2  0
 26 28  1  0
 26 25  1  1
 27 26  1  0
 28 29  1  6
 28 30  1  0
 30 31  1  0
 32 30  2  0
M  END
$$$$
