HWV.pdb
     RDKit          3D

 32 34  0  0  1  0  0  0  0  0999 V2000
    9.8995  -15.6923   20.0608 N   0  0  0  0  0  0  0  0  0  0  0  0
    9.7929  -16.7369   21.0507 C   0  0  1  0  0  0  0  0  0  0  0  0
   11.0317  -17.5977   21.0128 C   0  0  0  0  0  0  0  0  0  0  0  0
   11.1216  -18.4122   19.7931 C   0  0  0  0  0  0  0  0  0  0  0  0
   10.0789  -19.0249   19.1378 C   0  0  0  0  0  0  0  0  0  0  0  0
   10.5755  -19.6589   18.0844 N   0  0  0  0  0  0  0  0  0  0  0  0
   11.9007  -19.4576   18.0654 C   0  0  0  0  0  0  0  0  0  0  0  0
   12.2358  -18.6911   19.1163 N   0  0  0  0  0  0  0  0  0  0  0  0
    9.7212  -16.1048   22.3953 C   0  0  0  0  0  0  0  0  0  0  0  0
   10.3475  -15.0258   22.5432 O   0  0  0  0  0  0  0  0  0  0  0  0
    9.0122  -16.6289   23.4860 N   0  0  0  0  0  0  0  0  0  0  0  0
    8.8325  -15.9539   24.7493 C   0  0  1  0  0  0  0  0  0  0  0  0
    7.5561  -16.2934   25.4283 C   0  0  0  0  0  0  0  0  0  0  0  0
    6.5501  -15.2315   25.1818 C   0  0  0  0  0  0  0  0  0  0  0  0
    5.2701  -15.3482   24.6702 C   0  0  0  0  0  0  0  0  0  0  0  0
    4.6863  -14.1434   24.6002 N   0  0  0  0  0  0  0  0  0  0  0  0
    5.5484  -13.2184   25.0548 C   0  0  0  0  0  0  0  0  0  0  0  0
    5.4723  -11.8276   25.2058 C   0  0  0  0  0  0  0  0  0  0  0  0
    6.5641  -11.1553   25.7163 C   0  0  0  0  0  0  0  0  0  0  0  0
    7.7334  -11.7857   26.0880 C   0  0  0  0  0  0  0  0  0  0  0  0
    7.7747  -13.1612   25.9255 C   0  0  0  0  0  0  0  0  0  0  0  0
    6.7074  -13.8745   25.4192 C   0  0  0  0  0  0  0  0  0  0  0  0
    9.9663  -16.3321   25.6307 C   0  0  0  0  0  0  0  0  0  0  0  0
   10.8030  -17.2008   25.2955 O   0  0  0  0  0  0  0  0  0  0  0  0
   11.8816  -15.5977   30.2079 C   0  0  0  0  0  0  0  0  0  0  0  0
   10.8099  -15.3243   29.1826 C   0  0  1  0  0  0  0  0  0  0  0  0
   10.6155  -13.8469   28.9422 C   0  0  0  0  0  0  0  0  0  0  0  0
   11.1176  -16.0591   27.8707 C   0  0  2  0  0  0  0  0  0  0  0  0
   10.1209  -15.6933   26.9065 N   0  0  0  0  0  0  0  0  0  0  0  0
   11.0951  -17.4988   28.2071 C   0  0  0  0  0  0  0  0  0  0  0  0
    9.8594  -18.1194   28.3184 O   0  0  0  0  0  0  0  0  0  0  0  0
   12.1181  -18.2026   28.4001 O   0  0  0  0  0  0  0  0  0  0  0  0
  2  3  1  0
  2  1  1  6
  3  4  1  0
  4  8  1  0
  4  5  2  0
  5  6  1  0
  7  6  1  0
  8  7  2  0
  9 10  2  0
  9  2  1  0
 11  9  1  0
 12 11  1  0
 12 13  1  1
 13 14  1  0
 14 22  1  0
 14 15  2  0
 15 16  1  0
 17 16  1  0
 17 18  2  0
 19 18  1  0
 20 19  2  0
 21 20  1  0
 21 22  2  0
 22 17  1  0
 23 29  1  0
 23 12  1  0
 24 23  2  0
 26 28  1  0
 26 25  1  1
 27 26  1  0
 28 29  1  6
 28 30  1  0
 30 31  1  0
 32 30  2  0
M  END
$$$$
