HWV.pdb
     RDKit          3D

 32 34  0  0  1  0  0  0  0  0999 V2000
   10.6102  -16.0939   19.5234 N   0  0  0  0  0  0  0  0  0  0  0  0
   10.4740  -17.0421   20.6027 C   0  0  1  0  0  0  0  0  0  0  0  0
   11.8177  -17.6574   20.9077 C   0  0  0  0  0  0  0  0  0  0  0  0
   12.1379  -18.7899   20.0277 C   0  0  0  0  0  0  0  0  0  0  0  0
   11.7744  -18.9314   18.7087 C   0  0  0  0  0  0  0  0  0  0  0  0
   12.2580  -20.0871   18.2742 N   0  0  0  0  0  0  0  0  0  0  0  0
   12.9136  -20.6701   19.2877 C   0  0  0  0  0  0  0  0  0  0  0  0
   12.8394  -19.8720   20.3656 N   0  0  0  0  0  0  0  0  0  0  0  0
   10.0244  -16.3105   21.8173 C   0  0  0  0  0  0  0  0  0  0  0  0
   10.4125  -15.1212   21.9329 O   0  0  0  0  0  0  0  0  0  0  0  0
    9.2108  -16.8557   22.8212 N   0  0  0  0  0  0  0  0  0  0  0  0
    8.7971  -16.1551   24.0135 C   0  0  1  0  0  0  0  0  0  0  0  0
    7.5154  -16.6486   24.5785 C   0  0  0  0  0  0  0  0  0  0  0  0
    6.7093  -15.5101   25.0827 C   0  0  0  0  0  0  0  0  0  0  0  0
    5.4043  -15.5045   25.5418 C   0  0  0  0  0  0  0  0  0  0  0  0
    5.0443  -14.2646   25.9029 N   0  0  0  0  0  0  0  0  0  0  0  0
    6.0816  -13.4358   25.6957 C   0  0  0  0  0  0  0  0  0  0  0  0
    6.2652  -12.0608   25.8913 C   0  0  0  0  0  0  0  0  0  0  0  0
    7.4853  -11.5023   25.5685 C   0  0  0  0  0  0  0  0  0  0  0  0
    8.5396  -12.2323   25.0602 C   0  0  0  0  0  0  0  0  0  0  0  0
    8.3239  -13.5890   24.8794 C   0  0  0  0  0  0  0  0  0  0  0  0
    7.1208  -14.1902   25.1882 C   0  0  0  0  0  0  0  0  0  0  0  0
    9.8687  -16.3163   25.0289 C   0  0  0  0  0  0  0  0  0  0  0  0
   10.7689  -17.1778   24.9090 O   0  0  0  0  0  0  0  0  0  0  0  0
   11.2454  -14.8376   29.6177 C   0  0  0  0  0  0  0  0  0  0  0  0
   10.3633  -14.6693   28.4062 C   0  0  1  0  0  0  0  0  0  0  0  0
   10.3572  -13.2475   27.8993 C   0  0  0  0  0  0  0  0  0  0  0  0
   10.7766  -15.6466   27.2972 C   0  0  2  0  0  0  0  0  0  0  0  0
    9.8867  -15.4683   26.1867 N   0  0  0  0  0  0  0  0  0  0  0  0
   10.6850  -16.9935   27.9005 C   0  0  0  0  0  0  0  0  0  0  0  0
   11.8610  -17.5959   28.3231 O   0  0  0  0  0  0  0  0  0  0  0  0
    9.6152  -17.6336   28.0582 O   0  0  0  0  0  0  0  0  0  0  0  0
  2  3  1  0
  2  1  1  6
  3  4  1  0
  4  8  1  0
  4  5  2  0
  5  6  1  0
  7  6  1  0
  8  7  2  0
  9 10  2  0
  9  2  1  0
 11  9  1  0
 12 11  1  0
 12 13  1  1
 13 14  1  0
 14 22  1  0
 14 15  2  0
 15 16  1  0
 17 16  1  0
 17 18  2  0
 19 18  1  0
 20 19  2  0
 21 20  1  0
 21 22  2  0
 22 17  1  0
 23 29  1  0
 23 12  1  0
 24 23  2  0
 26 28  1  0
 26 25  1  1
 27 26  1  0
 28 29  1  6
 28 30  1  0
 30 31  1  0
 32 30  2  0
M  END
$$$$
