HWV.pdb
     RDKit          3D

 32 34  0  0  1  0  0  0  0  0999 V2000
    7.6235  -16.2784   20.1069 N   0  0  0  0  0  0  0  0  0  0  0  0
    8.7581  -17.0805   20.4965 C   0  0  1  0  0  0  0  0  0  0  0  0
    9.8287  -16.9902   19.4369 C   0  0  0  0  0  0  0  0  0  0  0  0
    9.4080  -17.5667   18.1524 C   0  0  0  0  0  0  0  0  0  0  0  0
    9.6849  -18.8329   17.6921 C   0  0  0  0  0  0  0  0  0  0  0  0
    9.1271  -18.9632   16.4963 N   0  0  0  0  0  0  0  0  0  0  0  0
    8.5094  -17.8113   16.1986 C   0  0  0  0  0  0  0  0  0  0  0  0
    8.6825  -16.9531   17.2173 N   0  0  0  0  0  0  0  0  0  0  0  0
    9.3186  -16.5216   21.7559 C   0  0  0  0  0  0  0  0  0  0  0  0
   10.1500  -15.5876   21.6352 O   0  0  0  0  0  0  0  0  0  0  0  0
    8.9831  -16.9646   23.0436 N   0  0  0  0  0  0  0  0  0  0  0  0
    9.6630  -16.5648   24.2525 C   0  0  1  0  0  0  0  0  0  0  0  0
    8.8265  -16.6878   25.4735 C   0  0  0  0  0  0  0  0  0  0  0  0
    7.6754  -15.7553   25.3980 C   0  0  0  0  0  0  0  0  0  0  0  0
    6.3843  -16.0008   24.9662 C   0  0  0  0  0  0  0  0  0  0  0  0
    5.6461  -14.8849   25.0508 N   0  0  0  0  0  0  0  0  0  0  0  0
    6.4153  -13.8934   25.5313 C   0  0  0  0  0  0  0  0  0  0  0  0
    6.1727  -12.5437   25.8183 C   0  0  0  0  0  0  0  0  0  0  0  0
    7.2061  -11.7752   26.3146 C   0  0  0  0  0  0  0  0  0  0  0  0
    8.4730  -12.2703   26.5441 C   0  0  0  0  0  0  0  0  0  0  0  0
    8.6782  -13.6086   26.2495 C   0  0  0  0  0  0  0  0  0  0  0  0
    7.6748  -14.4146   25.7518 C   0  0  0  0  0  0  0  0  0  0  0  0
   10.8663  -17.4225   24.4008 C   0  0  0  0  0  0  0  0  0  0  0  0
   10.8134  -18.6654   24.2620 O   0  0  0  0  0  0  0  0  0  0  0  0
   15.8244  -17.4494   24.6589 C   0  0  0  0  0  0  0  0  0  0  0  0
   14.5255  -16.7053   24.4763 C   0  0  1  0  0  0  0  0  0  0  0  0
   14.3374  -16.2278   23.0568 C   0  0  0  0  0  0  0  0  0  0  0  0
   13.3400  -17.5697   24.9273 C   0  0  2  0  0  0  0  0  0  0  0  0
   12.1334  -16.8248   24.7122 N   0  0  0  0  0  0  0  0  0  0  0  0
   13.5873  -17.8697   26.3539 C   0  0  0  0  0  0  0  0  0  0  0  0
   14.4051  -18.9483   26.6573 O   0  0  0  0  0  0  0  0  0  0  0  0
   13.1082  -17.2157   27.3141 O   0  0  0  0  0  0  0  0  0  0  0  0
  2  3  1  0
  2  1  1  6
  3  4  1  0
  4  8  1  0
  4  5  2  0
  5  6  1  0
  7  6  1  0
  8  7  2  0
  9 10  2  0
  9  2  1  0
 11  9  1  0
 12 11  1  0
 12 13  1  1
 13 14  1  0
 14 22  1  0
 14 15  2  0
 15 16  1  0
 17 16  1  0
 17 18  2  0
 19 18  1  0
 20 19  2  0
 21 20  1  0
 21 22  2  0
 22 17  1  0
 23 29  1  0
 23 12  1  0
 24 23  2  0
 26 28  1  0
 26 25  1  6
 27 26  1  0
 28 29  1  1
 28 30  1  0
 30 31  1  0
 32 30  2  0
M  END
$$$$
