HWV.pdb
     RDKit          3D

 32 34  0  0  1  0  0  0  0  0999 V2000
    9.5978  -16.4377   19.4503 N   0  0  0  0  0  0  0  0  0  0  0  0
   10.3410  -17.0112   20.5462 C   0  0  1  0  0  0  0  0  0  0  0  0
   11.8094  -16.7094   20.3741 C   0  0  0  0  0  0  0  0  0  0  0  0
   12.4431  -17.5378   19.3390 C   0  0  0  0  0  0  0  0  0  0  0  0
   11.8645  -18.5833   18.6577 C   0  0  0  0  0  0  0  0  0  0  0  0
   12.7639  -19.0661   17.8115 N   0  0  0  0  0  0  0  0  0  0  0  0
   13.8884  -18.3491   17.9470 C   0  0  0  0  0  0  0  0  0  0  0  0
   13.6905  -17.4096   18.8863 N   0  0  0  0  0  0  0  0  0  0  0  0
    9.8906  -16.3657   21.8084 C   0  0  0  0  0  0  0  0  0  0  0  0
    9.7149  -15.1223   21.7722 O   0  0  0  0  0  0  0  0  0  0  0  0
    9.6550  -17.0461   23.0121 N   0  0  0  0  0  0  0  0  0  0  0  0
    9.1756  -16.4272   24.2248 C   0  0  1  0  0  0  0  0  0  0  0  0
    7.9672  -17.0811   24.7884 C   0  0  0  0  0  0  0  0  0  0  0  0
    6.9460  -16.0595   25.1258 C   0  0  0  0  0  0  0  0  0  0  0  0
    5.5883  -16.2231   25.3349 C   0  0  0  0  0  0  0  0  0  0  0  0
    5.0158  -15.0433   25.6137 N   0  0  0  0  0  0  0  0  0  0  0  0
    5.9618  -14.0891   25.5963 C   0  0  0  0  0  0  0  0  0  0  0  0
    5.9330  -12.7052   25.8123 C   0  0  0  0  0  0  0  0  0  0  0  0
    7.1123  -11.9946   25.7172 C   0  0  0  0  0  0  0  0  0  0  0  0
    8.3251  -12.5800   25.4187 C   0  0  0  0  0  0  0  0  0  0  0  0
    8.3176  -13.9500   25.2111 C   0  0  0  0  0  0  0  0  0  0  0  0
    7.1628  -14.7006   25.2959 C   0  0  0  0  0  0  0  0  0  0  0  0
   10.2702  -16.4851   25.2267 C   0  0  0  0  0  0  0  0  0  0  0  0
   11.1175  -17.4066   25.2275 O   0  0  0  0  0  0  0  0  0  0  0  0
   11.2942  -14.6751   29.7704 C   0  0  0  0  0  0  0  0  0  0  0  0
   10.5174  -14.6205   28.4790 C   0  0  1  0  0  0  0  0  0  0  0  0
   10.4731  -13.2274   27.8996 C   0  0  0  0  0  0  0  0  0  0  0  0
   11.0871  -15.6205   27.4635 C   0  0  2  0  0  0  0  0  0  0  0  0
   10.3732  -15.4635   26.2295 N   0  0  0  0  0  0  0  0  0  0  0  0
   10.9010  -16.9548   28.0729 C   0  0  0  0  0  0  0  0  0  0  0  0
   12.0198  -17.5955   28.5849 O   0  0  0  0  0  0  0  0  0  0  0  0
    9.7988  -17.5519   28.1604 O   0  0  0  0  0  0  0  0  0  0  0  0
  2  3  1  0
  2  1  1  6
  3  4  1  0
  4  8  1  0
  4  5  2  0
  5  6  1  0
  7  6  1  0
  8  7  2  0
  9 10  2  0
  9  2  1  0
 11  9  1  0
 12 11  1  0
 12 13  1  1
 13 14  1  0
 14 22  1  0
 14 15  2  0
 15 16  1  0
 17 16  1  0
 17 18  2  0
 19 18  1  0
 20 19  2  0
 21 20  1  0
 21 22  2  0
 22 17  1  0
 23 29  1  0
 23 12  1  0
 24 23  2  0
 26 28  1  0
 26 25  1  1
 27 26  1  0
 28 29  1  6
 28 30  1  0
 30 31  1  0
 32 30  2  0
M  END
$$$$
