HWV.pdb
     RDKit          3D

 32 34  0  0  1  0  0  0  0  0999 V2000
   11.0448  -18.2343   21.0254 N   0  0  0  0  0  0  0  0  0  0  0  0
   11.4842  -16.8598   21.0128 C   0  0  1  0  0  0  0  0  0  0  0  0
   11.0017  -16.1863   19.7517 C   0  0  0  0  0  0  0  0  0  0  0  0
   11.5497  -16.7994   18.5338 C   0  0  0  0  0  0  0  0  0  0  0  0
   12.8340  -17.2575   18.3532 C   0  0  0  0  0  0  0  0  0  0  0  0
   12.9259  -17.7386   17.1211 N   0  0  0  0  0  0  0  0  0  0  0  0
   11.7324  -17.5926   16.5283 C   0  0  0  0  0  0  0  0  0  0  0  0
   10.8867  -17.0151   17.3975 N   0  0  0  0  0  0  0  0  0  0  0  0
   10.8634  -16.1572   22.1678 C   0  0  0  0  0  0  0  0  0  0  0  0
   11.1417  -14.9394   22.3004 O   0  0  0  0  0  0  0  0  0  0  0  0
   10.0042  -16.7588   23.0989 N   0  0  0  0  0  0  0  0  0  0  0  0
    9.4992  -16.1128   24.2869 C   0  0  1  0  0  0  0  0  0  0  0  0
    8.0610  -16.3802   24.5433 C   0  0  0  0  0  0  0  0  0  0  0  0
    7.2514  -15.1870   24.1952 C   0  0  0  0  0  0  0  0  0  0  0  0
    6.5619  -14.9146   23.0272 C   0  0  0  0  0  0  0  0  0  0  0  0
    5.9591  -13.7200   23.1116 N   0  0  0  0  0  0  0  0  0  0  0  0
    6.2294  -13.1835   24.3135 C   0  0  0  0  0  0  0  0  0  0  0  0
    5.8682  -11.9782   24.9296 C   0  0  0  0  0  0  0  0  0  0  0  0
    6.3252  -11.7233   26.2067 C   0  0  0  0  0  0  0  0  0  0  0  0
    7.1240  -12.5991   26.9121 C   0  0  0  0  0  0  0  0  0  0  0  0
    7.4622  -13.7813   26.2733 C   0  0  0  0  0  0  0  0  0  0  0  0
    7.0283  -14.0783   24.9974 C   0  0  0  0  0  0  0  0  0  0  0  0
   10.2963  -16.5997   25.4414 C   0  0  0  0  0  0  0  0  0  0  0  0
   10.9774  -17.6482   25.3793 O   0  0  0  0  0  0  0  0  0  0  0  0
   11.3073  -13.8582   28.4316 C   0  0  0  0  0  0  0  0  0  0  0  0
   10.7997  -15.1892   28.9266 C   0  0  1  0  0  0  0  0  0  0  0  0
    9.3599  -15.1188   29.3743 C   0  0  0  0  0  0  0  0  0  0  0  0
   10.9903  -16.2720   27.8557 C   0  0  2  0  0  0  0  0  0  0  0  0
   10.2960  -15.8590   26.6707 N   0  0  0  0  0  0  0  0  0  0  0  0
   10.4419  -17.5130   28.4437 C   0  0  0  0  0  0  0  0  0  0  0  0
   11.2021  -18.1674   29.4020 O   0  0  0  0  0  0  0  0  0  0  0  0
    9.3334  -18.0189   28.1366 O   0  0  0  0  0  0  0  0  0  0  0  0
  2  3  1  0
  2  1  1  6
  3  4  1  0
  4  8  1  0
  4  5  2  0
  5  6  1  0
  7  6  1  0
  8  7  2  0
  9 10  2  0
  9  2  1  0
 11  9  1  0
 12 11  1  0
 12 13  1  1
 13 14  1  0
 14 22  1  0
 14 15  2  0
 15 16  1  0
 17 16  1  0
 17 18  2  0
 19 18  1  0
 20 19  2  0
 21 20  1  0
 21 22  2  0
 22 17  1  0
 23 29  1  0
 23 12  1  0
 24 23  2  0
 26 28  1  0
 26 25  1  6
 27 26  1  0
 28 29  1  6
 28 30  1  0
 30 31  1  0
 32 30  2  0
M  END
$$$$
