WGH.pdb
     RDKit          3D

 29 31  0  0  1  0  0  0  0  0999 V2000
   13.0779  -22.6305   -1.3206 N   0  0  0  0  0  0  0  0  0  0  0  0
   13.8415  -23.3261   -0.2235 C   0  0  1  0  0  0  0  0  0  0  0  0
   15.2858  -23.1336   -0.5072 C   0  0  0  0  0  0  0  0  0  0  0  0
   15.7998  -23.7834   -1.6942 C   0  0  0  0  0  0  0  0  0  0  0  0
   15.7370  -23.4694   -3.0090 C   0  0  0  0  0  0  0  0  0  0  0  0
   16.3910  -24.4218   -3.7313 N   0  0  0  0  0  0  0  0  0  0  0  0
   16.8895  -25.3637   -2.9209 C   0  0  0  0  0  0  0  0  0  0  0  0
   17.6329  -26.5269   -3.1603 C   0  0  0  0  0  0  0  0  0  0  0  0
   18.0050  -27.2932   -2.1001 C   0  0  0  0  0  0  0  0  0  0  0  0
   17.6739  -26.9576   -0.8205 C   0  0  0  0  0  0  0  0  0  0  0  0
   16.9346  -25.7974   -0.5988 C   0  0  0  0  0  0  0  0  0  0  0  0
   16.5361  -24.9889   -1.6558 C   0  0  0  0  0  0  0  0  0  0  0  0
   13.3661  -22.7871    1.0674 C   0  0  0  0  0  0  0  0  0  0  0  0
   12.6199  -21.7740    1.1618 O   0  0  0  0  0  0  0  0  0  0  0  0
   13.7359  -23.3993    2.3251 N   0  0  0  0  0  0  0  0  0  0  0  0
   13.8293  -22.6000    3.5189 C   0  0  0  0  0  0  0  0  0  0  0  0
   14.1791  -23.3077    4.7480 C   0  0  0  0  0  0  0  0  0  0  0  0
   14.9985  -24.2862    4.6290 O   0  0  0  0  0  0  0  0  0  0  0  0
   13.6928  -22.9964    6.0210 N   0  0  0  0  0  0  0  0  0  0  0  0
   14.4453  -23.0026    7.2468 C   0  0  1  0  0  0  0  0  0  0  0  0
   15.7267  -22.2500    7.1130 C   0  0  0  0  0  0  0  0  0  0  0  0
   16.7422  -22.8588    6.2468 C   0  0  0  0  0  0  0  0  0  0  0  0
   17.1959  -24.1583    6.3315 C   0  0  0  0  0  0  0  0  0  0  0  0
   18.1214  -24.3460    5.3785 N   0  0  0  0  0  0  0  0  0  0  0  0
   18.2424  -23.2001    4.7191 C   0  0  0  0  0  0  0  0  0  0  0  0
   17.4043  -22.2835    5.2410 N   0  0  0  0  0  0  0  0  0  0  0  0
   13.6501  -22.6334    8.4368 C   0  0  0  0  0  0  0  0  0  0  0  0
   14.0491  -22.7552    9.7530 O   0  0  0  0  0  0  0  0  0  0  0  0
   12.4983  -22.1586    8.2496 O   0  0  0  0  0  0  0  0  0  0  0  0
  2  1  1  6
  2 13  1  0
  3  2  1  0
  3  4  1  0
  4 12  1  0
  4  5  2  0
  5  6  1  0
  7  8  2  0
  7  6  1  0
  9  8  1  0
 10  9  2  0
 11 10  1  0
 11 12  2  0
 12  7  1  0
 13 15  1  0
 13 14  2  0
 15 16  1  0
 17 16  1  0
 17 18  2  0
 19 17  1  0
 20 19  1  0
 20 21  1  6
 22 21  1  0
 23 22  2  0
 24 25  1  0
 24 23  1  0
 25 26  2  0
 26 22  1  0
 27 20  1  0
 28 27  1  0
 29 27  2  0
M  END
$$$$
