WGH.pdb
     RDKit          3D

 29 31  0  0  1  0  0  0  0  0999 V2000
   21.2888  -19.0101  -18.2959 N   0  0  0  0  0  0  0  0  0  0  0  0
   22.6964  -19.3281  -17.8625 C   0  0  1  0  0  0  0  0  0  0  0  0
   23.1854  -18.1654  -17.0798 C   0  0  0  0  0  0  0  0  0  0  0  0
   23.1137  -16.8754  -17.7325 C   0  0  0  0  0  0  0  0  0  0  0  0
   22.2485  -15.8408  -17.6220 C   0  0  0  0  0  0  0  0  0  0  0  0
   22.6288  -14.8430  -18.4682 N   0  0  0  0  0  0  0  0  0  0  0  0
   23.7327  -15.1940  -19.1394 C   0  0  0  0  0  0  0  0  0  0  0  0
   24.5096  -14.5352  -20.1014 C   0  0  0  0  0  0  0  0  0  0  0  0
   25.6035  -15.1693  -20.6025 C   0  0  0  0  0  0  0  0  0  0  0  0
   25.9581  -16.4209  -20.1931 C   0  0  0  0  0  0  0  0  0  0  0  0
   25.1754  -17.0627  -19.2353 C   0  0  0  0  0  0  0  0  0  0  0  0
   24.0508  -16.4475  -18.6999 C   0  0  0  0  0  0  0  0  0  0  0  0
   22.6649  -20.6169  -17.1406 C   0  0  0  0  0  0  0  0  0  0  0  0
   23.6856  -21.1418  -16.6165 O   0  0  0  0  0  0  0  0  0  0  0  0
   21.4386  -21.3698  -16.9897 N   0  0  0  0  0  0  0  0  0  0  0  0
   21.4616  -22.6763  -16.3855 C   0  0  0  0  0  0  0  0  0  0  0  0
   20.9544  -22.7682  -15.0186 C   0  0  0  0  0  0  0  0  0  0  0  0
   20.8751  -23.9455  -14.5179 O   0  0  0  0  0  0  0  0  0  0  0  0
   20.5590  -21.6816  -14.2332 N   0  0  0  0  0  0  0  0  0  0  0  0
   20.1525  -21.7286  -12.8543 C   0  0  1  0  0  0  0  0  0  0  0  0
   20.9091  -20.7491  -12.0210 C   0  0  0  0  0  0  0  0  0  0  0  0
   22.3336  -21.0386  -11.8231 C   0  0  0  0  0  0  0  0  0  0  0  0
   22.9888  -22.1755  -12.2477 C   0  0  0  0  0  0  0  0  0  0  0  0
   24.2766  -22.0824  -11.8829 N   0  0  0  0  0  0  0  0  0  0  0  0
   24.4216  -20.9243  -11.2502 C   0  0  0  0  0  0  0  0  0  0  0  0
   23.2406  -20.2776  -11.2074 N   0  0  0  0  0  0  0  0  0  0  0  0
   18.6878  -21.6800  -12.6621 C   0  0  0  0  0  0  0  0  0  0  0  0
   18.0019  -22.0650  -11.5275 O   0  0  0  0  0  0  0  0  0  0  0  0
   17.9846  -21.2458  -13.6130 O   0  0  0  0  0  0  0  0  0  0  0  0
  2  1  1  1
  2 13  1  0
  3  2  1  0
  3  4  1  0
  4 12  1  0
  4  5  2  0
  5  6  1  0
  7  8  2  0
  7  6  1  0
  9  8  1  0
 10  9  2  0
 11 10  1  0
 11 12  2  0
 12  7  1  0
 13 15  1  0
 13 14  2  0
 15 16  1  0
 17 16  1  0
 17 18  2  0
 19 17  1  0
 20 19  1  0
 20 21  1  1
 22 21  1  0
 23 22  2  0
 24 25  1  0
 24 23  1  0
 25 26  2  0
 26 22  1  0
 27 20  1  0
 28 27  1  0
 29 27  2  0
M  END
$$$$
