WGH.pdb
     RDKit          3D

 29 31  0  0  1  0  0  0  0  0999 V2000
   34.3927  -15.7247   -4.2846 N   0  0  0  0  0  0  0  0  0  0  0  0
   33.7668  -15.9983   -5.6277 C   0  0  1  0  0  0  0  0  0  0  0  0
   32.3502  -15.5623   -5.5461 C   0  0  0  0  0  0  0  0  0  0  0  0
   31.4885  -16.3364   -4.6781 C   0  0  0  0  0  0  0  0  0  0  0  0
   31.1399  -16.2010   -3.3776 C   0  0  0  0  0  0  0  0  0  0  0  0
   30.2885  -17.2070   -3.0322 N   0  0  0  0  0  0  0  0  0  0  0  0
   30.0627  -18.0094   -4.0798 C   0  0  0  0  0  0  0  0  0  0  0  0
   29.2759  -19.1567   -4.2458 C   0  0  0  0  0  0  0  0  0  0  0  0
   29.2489  -19.7586   -5.4652 C   0  0  0  0  0  0  0  0  0  0  0  0
   29.9641  -19.2746   -6.5206 C   0  0  0  0  0  0  0  0  0  0  0  0
   30.7415  -18.1323   -6.3396 C   0  0  0  0  0  0  0  0  0  0  0  0
   30.7947  -17.4896   -5.1092 C   0  0  0  0  0  0  0  0  0  0  0  0
   34.5864  -15.3199   -6.6529 C   0  0  0  0  0  0  0  0  0  0  0  0
   34.1874  -15.1118   -7.8317 O   0  0  0  0  0  0  0  0  0  0  0  0
   35.9219  -14.8456   -6.3617 N   0  0  0  0  0  0  0  0  0  0  0  0
   36.7970  -14.4452   -7.4326 C   0  0  0  0  0  0  0  0  0  0  0  0
   36.9467  -13.0077   -7.6452 C   0  0  0  0  0  0  0  0  0  0  0  0
   36.1074  -12.4591   -8.4438 O   0  0  0  0  0  0  0  0  0  0  0  0
   37.9220  -12.2040   -7.0479 N   0  0  0  0  0  0  0  0  0  0  0  0
   38.1241  -10.7979   -7.2732 C   0  0  1  0  0  0  0  0  0  0  0  0
   38.4038  -10.0687   -6.0018 C   0  0  0  0  0  0  0  0  0  0  0  0
   37.3124  -10.0437   -5.0218 C   0  0  0  0  0  0  0  0  0  0  0  0
   36.0887  -10.6631   -5.1662 C   0  0  0  0  0  0  0  0  0  0  0  0
   35.3567  -10.4137   -4.0698 N   0  0  0  0  0  0  0  0  0  0  0  0
   36.0992   -9.6623   -3.2657 C   0  0  0  0  0  0  0  0  0  0  0  0
   37.2968   -9.4295   -3.8371 N   0  0  0  0  0  0  0  0  0  0  0  0
   39.0776  -10.4992   -8.3625 C   0  0  0  0  0  0  0  0  0  0  0  0
   39.8292  -11.4215   -9.0629 O   0  0  0  0  0  0  0  0  0  0  0  0
   39.2280   -9.2941   -8.6975 O   0  0  0  0  0  0  0  0  0  0  0  0
  2  1  1  1
  2 13  1  0
  3  2  1  0
  3  4  1  0
  4 12  1  0
  4  5  2  0
  5  6  1  0
  7  8  2  0
  7  6  1  0
  9  8  1  0
 10  9  2  0
 11 10  1  0
 11 12  2  0
 12  7  1  0
 13 15  1  0
 13 14  2  0
 15 16  1  0
 17 16  1  0
 17 18  2  0
 19 17  1  0
 20 19  1  0
 20 21  1  1
 22 21  1  0
 23 22  2  0
 24 25  1  0
 24 23  1  0
 25 26  2  0
 26 22  1  0
 27 20  1  0
 28 27  1  0
 29 27  2  0
M  END
$$$$
