WGH.pdb
     RDKit          3D

 29 31  0  0  1  0  0  0  0  0999 V2000
   27.1427  -22.0913  -13.3266 N   0  0  0  0  0  0  0  0  0  0  0  0
   26.0499  -22.1707  -12.2922 C   0  0  1  0  0  0  0  0  0  0  0  0
   26.2243  -21.0103  -11.3830 C   0  0  0  0  0  0  0  0  0  0  0  0
   27.4687  -20.9529  -10.6456 C   0  0  0  0  0  0  0  0  0  0  0  0
   28.7465  -21.2438  -10.9831 C   0  0  0  0  0  0  0  0  0  0  0  0
   29.5579  -21.0174   -9.9123 N   0  0  0  0  0  0  0  0  0  0  0  0
   28.8436  -20.5794   -8.8681 C   0  0  0  0  0  0  0  0  0  0  0  0
   29.1969  -20.2060   -7.5647 C   0  0  0  0  0  0  0  0  0  0  0  0
   28.2182  -19.7882   -6.7178 C   0  0  0  0  0  0  0  0  0  0  0  0
   26.9122  -19.7250   -7.1053 C   0  0  0  0  0  0  0  0  0  0  0  0
   26.5769  -20.0995   -8.4050 C   0  0  0  0  0  0  0  0  0  0  0  0
   27.5484  -20.5315   -9.2991 C   0  0  0  0  0  0  0  0  0  0  0  0
   24.7580  -22.2348  -13.0061 C   0  0  0  0  0  0  0  0  0  0  0  0
   23.6450  -22.3160  -12.4172 O   0  0  0  0  0  0  0  0  0  0  0  0
   24.6900  -22.2095  -14.4511 N   0  0  0  0  0  0  0  0  0  0  0  0
   23.4505  -22.5029  -15.1223 C   0  0  0  0  0  0  0  0  0  0  0  0
   22.3514  -21.5684  -14.8930 C   0  0  0  0  0  0  0  0  0  0  0  0
   22.6214  -20.3238  -15.0388 O   0  0  0  0  0  0  0  0  0  0  0  0
   21.0499  -21.9307  -14.5343 N   0  0  0  0  0  0  0  0  0  0  0  0
   19.9580  -21.0339  -14.2652 C   0  0  1  0  0  0  0  0  0  0  0  0
   20.4318  -19.7458  -13.6796 C   0  0  0  0  0  0  0  0  0  0  0  0
   20.9520  -19.8154  -12.3098 C   0  0  0  0  0  0  0  0  0  0  0  0
   20.9358  -20.9317  -11.5000 C   0  0  0  0  0  0  0  0  0  0  0  0
   21.4943  -20.6087  -10.3236 N   0  0  0  0  0  0  0  0  0  0  0  0
   21.8483  -19.3313  -10.3957 C   0  0  0  0  0  0  0  0  0  0  0  0
   21.5217  -18.8357  -11.6051 N   0  0  0  0  0  0  0  0  0  0  0  0
   19.0241  -20.8736  -15.3996 C   0  0  0  0  0  0  0  0  0  0  0  0
   19.1025  -21.5204  -16.6169 O   0  0  0  0  0  0  0  0  0  0  0  0
   18.0581  -20.0775  -15.2574 O   0  0  0  0  0  0  0  0  0  0  0  0
  2  1  1  6
  2 13  1  0
  3  2  1  0
  3  4  1  0
  4 12  1  0
  4  5  2  0
  5  6  1  0
  7  8  2  0
  7  6  1  0
  9  8  1  0
 10  9  2  0
 11 10  1  0
 11 12  2  0
 12  7  1  0
 13 15  1  0
 13 14  2  0
 15 16  1  0
 17 16  1  0
 17 18  2  0
 19 17  1  0
 20 19  1  0
 20 21  1  6
 22 21  1  0
 23 22  2  0
 24 25  1  0
 24 23  1  0
 25 26  2  0
 26 22  1  0
 27 20  1  0
 28 27  1  0
 29 27  2  0
M  END
$$$$
