WGH.pdb
     RDKit          3D

 29 31  0  0  1  0  0  0  0  0999 V2000
   26.1545  -22.0849   -9.5870 N   0  0  0  0  0  0  0  0  0  0  0  0
   25.6084  -20.6846   -9.4804 C   0  0  1  0  0  0  0  0  0  0  0  0
   26.6007  -19.8859   -8.7182 C   0  0  0  0  0  0  0  0  0  0  0  0
   26.8470  -20.3000   -7.3532 C   0  0  0  0  0  0  0  0  0  0  0  0
   26.2176  -21.1747   -6.5348 C   0  0  0  0  0  0  0  0  0  0  0  0
   26.8541  -21.2028   -5.3304 N   0  0  0  0  0  0  0  0  0  0  0  0
   27.8971  -20.3634   -5.3327 C   0  0  0  0  0  0  0  0  0  0  0  0
   28.8550  -20.0355   -4.3642 C   0  0  0  0  0  0  0  0  0  0  0  0
   29.8171  -19.1273   -4.6793 C   0  0  0  0  0  0  0  0  0  0  0  0
   29.8699  -18.5340   -5.9061 C   0  0  0  0  0  0  0  0  0  0  0  0
   28.9102  -18.8710   -6.8587 C   0  0  0  0  0  0  0  0  0  0  0  0
   27.9120  -19.7942   -6.5742 C   0  0  0  0  0  0  0  0  0  0  0  0
   25.3201  -20.2084  -10.8491 C   0  0  0  0  0  0  0  0  0  0  0  0
   26.1427  -19.5451  -11.5388 O   0  0  0  0  0  0  0  0  0  0  0  0
   24.0526  -20.4779  -11.4927 N   0  0  0  0  0  0  0  0  0  0  0  0
   23.5876  -19.6291  -12.5585 C   0  0  0  0  0  0  0  0  0  0  0  0
   22.3277  -20.0124  -13.1906 C   0  0  0  0  0  0  0  0  0  0  0  0
   21.9135  -19.2577  -14.1404 O   0  0  0  0  0  0  0  0  0  0  0  0
   21.5581  -21.1253  -12.8396 N   0  0  0  0  0  0  0  0  0  0  0  0
   20.3586  -21.5740  -13.4942 C   0  0  1  0  0  0  0  0  0  0  0  0
   20.3069  -23.0618  -13.5949 C   0  0  0  0  0  0  0  0  0  0  0  0
   21.4730  -23.7052  -14.2100 C   0  0  0  0  0  0  0  0  0  0  0  0
   22.2133  -23.1953  -15.2558 C   0  0  0  0  0  0  0  0  0  0  0  0
   23.1937  -24.0650  -15.5433 N   0  0  0  0  0  0  0  0  0  0  0  0
   23.0700  -25.0861  -14.7040 C   0  0  0  0  0  0  0  0  0  0  0  0
   22.0215  -24.8774  -13.8842 N   0  0  0  0  0  0  0  0  0  0  0  0
   19.1233  -20.9620  -12.9610 C   0  0  0  0  0  0  0  0  0  0  0  0
   17.9627  -20.7204  -13.6688 O   0  0  0  0  0  0  0  0  0  0  0  0
   19.1108  -20.6260  -11.7469 O   0  0  0  0  0  0  0  0  0  0  0  0
  2  1  1  6
  2 13  1  0
  3  2  1  0
  3  4  1  0
  4 12  1  0
  4  5  2  0
  5  6  1  0
  7  8  2  0
  7  6  1  0
  9  8  1  0
 10  9  2  0
 11 10  1  0
 11 12  2  0
 12  7  1  0
 13 15  1  0
 13 14  2  0
 15 16  1  0
 17 16  1  0
 17 18  2  0
 19 17  1  0
 20 19  1  0
 20 21  1  1
 22 21  1  0
 23 22  2  0
 24 25  1  0
 24 23  1  0
 25 26  2  0
 26 22  1  0
 27 20  1  0
 28 27  1  0
 29 27  2  0
M  END
$$$$
