WGH.pdb
     RDKit          3D

 29 31  0  0  1  0  0  0  0  0999 V2000
   25.2122  -19.7469  -11.6367 N   0  0  0  0  0  0  0  0  0  0  0  0
   26.6456  -20.2095  -11.6823 C   0  0  1  0  0  0  0  0  0  0  0  0
   26.7865  -21.2938  -10.6783 C   0  0  0  0  0  0  0  0  0  0  0  0
   26.4318  -20.9580   -9.3156 C   0  0  0  0  0  0  0  0  0  0  0  0
   25.2410  -20.8129   -8.6893 C   0  0  0  0  0  0  0  0  0  0  0  0
   25.4554  -20.4867   -7.3840 N   0  0  0  0  0  0  0  0  0  0  0  0
   26.7677  -20.4135   -7.1292 C   0  0  0  0  0  0  0  0  0  0  0  0
   27.4955  -20.1253   -5.9672 C   0  0  0  0  0  0  0  0  0  0  0  0
   28.8541  -20.1352   -6.0290 C   0  0  0  0  0  0  0  0  0  0  0  0
   29.5180  -20.4171   -7.1863 C   0  0  0  0  0  0  0  0  0  0  0  0
   28.7799  -20.7021   -8.3334 C   0  0  0  0  0  0  0  0  0  0  0  0
   27.3910  -20.7017   -8.3100 C   0  0  0  0  0  0  0  0  0  0  0  0
   26.9529  -20.5863  -13.0774 C   0  0  0  0  0  0  0  0  0  0  0  0
   26.0779  -20.9805  -13.8967 O   0  0  0  0  0  0  0  0  0  0  0  0
   28.3016  -20.5261  -13.5979 N   0  0  0  0  0  0  0  0  0  0  0  0
   28.5425  -20.7073  -15.0057 C   0  0  0  0  0  0  0  0  0  0  0  0
   27.7787  -21.7643  -15.6640 C   0  0  0  0  0  0  0  0  0  0  0  0
   28.0826  -22.9688  -15.3477 O   0  0  0  0  0  0  0  0  0  0  0  0
   26.7576  -21.5571  -16.5957 N   0  0  0  0  0  0  0  0  0  0  0  0
   25.3636  -21.8628  -16.4160 C   0  0  1  0  0  0  0  0  0  0  0  0
   24.8561  -21.3765  -15.0998 C   0  0  0  0  0  0  0  0  0  0  0  0
   23.4690  -21.7278  -14.7763 C   0  0  0  0  0  0  0  0  0  0  0  0
   22.6232  -22.4738  -15.5701 C   0  0  0  0  0  0  0  0  0  0  0  0
   21.4414  -22.5814  -14.9441 N   0  0  0  0  0  0  0  0  0  0  0  0
   21.5451  -21.9236  -13.7957 C   0  0  0  0  0  0  0  0  0  0  0  0
   22.7801  -21.3974  -13.6821 N   0  0  0  0  0  0  0  0  0  0  0  0
   24.5166  -21.4841  -17.5666 C   0  0  0  0  0  0  0  0  0  0  0  0
   24.3260  -20.2057  -18.0520 O   0  0  0  0  0  0  0  0  0  0  0  0
   23.9064  -22.4034  -18.1746 O   0  0  0  0  0  0  0  0  0  0  0  0
  2  1  1  6
  2 13  1  0
  3  2  1  0
  3  4  1  0
  4 12  1  0
  4  5  2  0
  5  6  1  0
  7  8  2  0
  7  6  1  0
  9  8  1  0
 10  9  2  0
 11 10  1  0
 11 12  2  0
 12  7  1  0
 13 15  1  0
 13 14  2  0
 15 16  1  0
 17 16  1  0
 17 18  2  0
 19 17  1  0
 20 19  1  0
 20 21  1  1
 22 21  1  0
 23 22  2  0
 24 25  1  0
 24 23  1  0
 25 26  2  0
 26 22  1  0
 27 20  1  0
 28 27  1  0
 29 27  2  0
M  END
$$$$
