WGH.pdb
     RDKit          3D

 29 31  0  0  1  0  0  0  0  0999 V2000
   24.7052  -20.8315   -9.3091 N   0  0  0  0  0  0  0  0  0  0  0  0
   26.0119  -20.0909   -9.4291 C   0  0  1  0  0  0  0  0  0  0  0  0
   27.0050  -20.8209   -8.6018 C   0  0  0  0  0  0  0  0  0  0  0  0
   26.7654  -20.8361   -7.1743 C   0  0  0  0  0  0  0  0  0  0  0  0
   25.8050  -21.4111   -6.4138 C   0  0  0  0  0  0  0  0  0  0  0  0
   26.0341  -21.1198   -5.1027 N   0  0  0  0  0  0  0  0  0  0  0  0
   27.1306  -20.3622   -4.9762 C   0  0  0  0  0  0  0  0  0  0  0  0
   27.7823  -19.8118   -3.8647 C   0  0  0  0  0  0  0  0  0  0  0  0
   28.9072  -19.0747   -4.0669 C   0  0  0  0  0  0  0  0  0  0  0  0
   29.4108  -18.8612   -5.3161 C   0  0  0  0  0  0  0  0  0  0  0  0
   28.7514  -19.4157   -6.4114 C   0  0  0  0  0  0  0  0  0  0  0  0
   27.5997  -20.1745   -6.2453 C   0  0  0  0  0  0  0  0  0  0  0  0
   26.3357  -19.9792  -10.8663 C   0  0  0  0  0  0  0  0  0  0  0  0
   27.4504  -19.5719  -11.2951 O   0  0  0  0  0  0  0  0  0  0  0  0
   25.3754  -20.3355  -11.8882 N   0  0  0  0  0  0  0  0  0  0  0  0
   25.6876  -20.1278  -13.2782 C   0  0  0  0  0  0  0  0  0  0  0  0
   24.6497  -20.4952  -14.2383 C   0  0  0  0  0  0  0  0  0  0  0  0
   24.9144  -20.2807  -15.4741 O   0  0  0  0  0  0  0  0  0  0  0  0
   23.4122  -21.0556  -13.9091 N   0  0  0  0  0  0  0  0  0  0  0  0
   22.3366  -21.3435  -14.8196 C   0  0  1  0  0  0  0  0  0  0  0  0
   21.9135  -22.7723  -14.7418 C   0  0  0  0  0  0  0  0  0  0  0  0
   22.9878  -23.7668  -14.8366 C   0  0  0  0  0  0  0  0  0  0  0  0
   24.3259  -23.4887  -15.0212 C   0  0  0  0  0  0  0  0  0  0  0  0
   24.9975  -24.6496  -15.0601 N   0  0  0  0  0  0  0  0  0  0  0  0
   24.1075  -25.6223  -14.9048 C   0  0  0  0  0  0  0  0  0  0  0  0
   22.8755  -25.0948  -14.7674 N   0  0  0  0  0  0  0  0  0  0  0  0
   21.2193  -20.3786  -14.7474 C   0  0  0  0  0  0  0  0  0  0  0  0
   20.2312  -20.2039  -15.6958 O   0  0  0  0  0  0  0  0  0  0  0  0
   21.1456  -19.6403  -13.7292 O   0  0  0  0  0  0  0  0  0  0  0  0
  2  1  1  6
  2 13  1  0
  3  2  1  0
  3  4  1  0
  4 12  1  0
  4  5  2  0
  5  6  1  0
  7  8  2  0
  7  6  1  0
  9  8  1  0
 10  9  2  0
 11 10  1  0
 11 12  2  0
 12  7  1  0
 13 15  1  0
 13 14  2  0
 15 16  1  0
 17 16  1  0
 17 18  2  0
 19 17  1  0
 20 19  1  0
 20 21  1  1
 22 21  1  0
 23 22  2  0
 24 25  1  0
 24 23  1  0
 25 26  2  0
 26 22  1  0
 27 20  1  0
 28 27  1  0
 29 27  2  0
M  END
$$$$
