WGH.pdb
     RDKit          3D

 29 31  0  0  1  0  0  0  0  0999 V2000
   26.3305  -22.4410  -11.4710 N   0  0  0  0  0  0  0  0  0  0  0  0
   25.8435  -21.0726  -11.0698 C   0  0  1  0  0  0  0  0  0  0  0  0
   27.0209  -20.1688  -11.0835 C   0  0  0  0  0  0  0  0  0  0  0  0
   28.1242  -20.5372  -10.2218 C   0  0  0  0  0  0  0  0  0  0  0  0
   29.3572  -21.0336  -10.4757 C   0  0  0  0  0  0  0  0  0  0  0  0
   30.0227  -21.2098   -9.3000 N   0  0  0  0  0  0  0  0  0  0  0  0
   29.2555  -20.8384   -8.2677 C   0  0  0  0  0  0  0  0  0  0  0  0
   29.4701  -20.8180   -6.8832 C   0  0  0  0  0  0  0  0  0  0  0  0
   28.4731  -20.3679   -6.0750 C   0  0  0  0  0  0  0  0  0  0  0  0
   27.2798  -19.9396   -6.5775 C   0  0  0  0  0  0  0  0  0  0  0  0
   27.0820  -19.9657   -7.9567 C   0  0  0  0  0  0  0  0  0  0  0  0
   28.0764  -20.4185   -8.8145 C   0  0  0  0  0  0  0  0  0  0  0  0
   24.7420  -20.7015  -11.9819 C   0  0  0  0  0  0  0  0  0  0  0  0
   24.1534  -19.5862  -11.9385 O   0  0  0  0  0  0  0  0  0  0  0  0
   24.2618  -21.6124  -12.9982 N   0  0  0  0  0  0  0  0  0  0  0  0
   23.2219  -21.2014  -13.9052 C   0  0  0  0  0  0  0  0  0  0  0  0
   21.8694  -21.1401  -13.3567 C   0  0  0  0  0  0  0  0  0  0  0  0
   21.7022  -21.6516  -12.1933 O   0  0  0  0  0  0  0  0  0  0  0  0
   20.7663  -20.5712  -13.9997 N   0  0  0  0  0  0  0  0  0  0  0  0
   19.4083  -20.5721  -13.5256 C   0  0  1  0  0  0  0  0  0  0  0  0
   18.6138  -19.4586  -14.1216 C   0  0  0  0  0  0  0  0  0  0  0  0
   19.0778  -18.1014  -13.8135 C   0  0  0  0  0  0  0  0  0  0  0  0
   19.7530  -17.7230  -12.6721 C   0  0  0  0  0  0  0  0  0  0  0  0
   20.0059  -16.4075  -12.7471 N   0  0  0  0  0  0  0  0  0  0  0  0
   19.5046  -15.9773  -13.8986 C   0  0  0  0  0  0  0  0  0  0  0  0
   18.9346  -17.0039  -14.5591 N   0  0  0  0  0  0  0  0  0  0  0  0
   18.7497  -21.8930  -13.6046 C   0  0  0  0  0  0  0  0  0  0  0  0
   17.8372  -22.4034  -12.7030 O   0  0  0  0  0  0  0  0  0  0  0  0
   19.0348  -22.6341  -14.5827 O   0  0  0  0  0  0  0  0  0  0  0  0
  2  1  1  6
  2 13  1  0
  3  2  1  0
  3  4  1  0
  4 12  1  0
  4  5  2  0
  5  6  1  0
  7  8  2  0
  7  6  1  0
  9  8  1  0
 10  9  2  0
 11 10  1  0
 11 12  2  0
 12  7  1  0
 13 15  1  0
 13 14  2  0
 15 16  1  0
 17 16  1  0
 17 18  2  0
 19 17  1  0
 20 19  1  0
 20 21  1  6
 22 21  1  0
 23 22  2  0
 24 25  1  0
 24 23  1  0
 25 26  2  0
 26 22  1  0
 27 20  1  0
 28 27  1  0
 29 27  2  0
M  END
$$$$
