WGH.pdb
     RDKit          3D

 29 31  0  0  1  0  0  0  0  0999 V2000
   26.0141  -21.8762   -9.7223 N   0  0  0  0  0  0  0  0  0  0  0  0
   26.1765  -20.3927   -9.5140 C   0  0  1  0  0  0  0  0  0  0  0  0
   27.6143  -20.0793   -9.7088 C   0  0  0  0  0  0  0  0  0  0  0  0
   28.5171  -20.5318   -8.6717 C   0  0  0  0  0  0  0  0  0  0  0  0
   29.5937  -21.3514   -8.6894 C   0  0  0  0  0  0  0  0  0  0  0  0
   30.1020  -21.4548   -7.4295 N   0  0  0  0  0  0  0  0  0  0  0  0
   29.3839  -20.7177   -6.5732 C   0  0  0  0  0  0  0  0  0  0  0  0
   29.4938  -20.4847   -5.1960 C   0  0  0  0  0  0  0  0  0  0  0  0
   28.5915  -19.6600   -4.5997 C   0  0  0  0  0  0  0  0  0  0  0  0
   27.5911  -19.0599   -5.3061 C   0  0  0  0  0  0  0  0  0  0  0  0
   27.4955  -19.3013   -6.6752 C   0  0  0  0  0  0  0  0  0  0  0  0
   28.3982  -20.1375   -7.3199 C   0  0  0  0  0  0  0  0  0  0  0  0
   25.2425  -19.7047  -10.4290 C   0  0  0  0  0  0  0  0  0  0  0  0
   25.4292  -18.5318  -10.8552 O   0  0  0  0  0  0  0  0  0  0  0  0
   24.0339  -20.3461  -10.8993 N   0  0  0  0  0  0  0  0  0  0  0  0
   23.1140  -19.6270  -11.7417 C   0  0  0  0  0  0  0  0  0  0  0  0
   21.8899  -20.3312  -12.1151 C   0  0  0  0  0  0  0  0  0  0  0  0
   20.7881  -19.7114  -11.9023 O   0  0  0  0  0  0  0  0  0  0  0  0
   21.8378  -21.6088  -12.6796 N   0  0  0  0  0  0  0  0  0  0  0  0
   20.6523  -22.3139  -13.0871 C   0  0  1  0  0  0  0  0  0  0  0  0
   20.9078  -23.1892  -14.2682 C   0  0  0  0  0  0  0  0  0  0  0  0
   21.3822  -22.5114  -15.4797 C   0  0  0  0  0  0  0  0  0  0  0  0
   21.5368  -21.1493  -15.6299 C   0  0  0  0  0  0  0  0  0  0  0  0
   21.9856  -20.9091  -16.8713 N   0  0  0  0  0  0  0  0  0  0  0  0
   22.1075  -22.0837  -17.4778 C   0  0  0  0  0  0  0  0  0  0  0  0
   21.7414  -23.0706  -16.6370 N   0  0  0  0  0  0  0  0  0  0  0  0
   19.9484  -22.9893  -11.9766 C   0  0  0  0  0  0  0  0  0  0  0  0
   18.6769  -23.5252  -12.0241 O   0  0  0  0  0  0  0  0  0  0  0  0
   20.5534  -23.0971  -10.8768 O   0  0  0  0  0  0  0  0  0  0  0  0
  2  1  1  6
  2 13  1  0
  3  2  1  0
  3  4  1  0
  4 12  1  0
  4  5  2  0
  5  6  1  0
  7  8  2  0
  7  6  1  0
  9  8  1  0
 10  9  2  0
 11 10  1  0
 11 12  2  0
 12  7  1  0
 13 15  1  0
 13 14  2  0
 15 16  1  0
 17 16  1  0
 17 18  2  0
 19 17  1  0
 20 19  1  0
 20 21  1  6
 22 21  1  0
 23 22  2  0
 24 25  1  0
 24 23  1  0
 25 26  2  0
 26 22  1  0
 27 20  1  0
 28 27  1  0
 29 27  2  0
M  END
$$$$
