WGH.pdb
     RDKit          3D

 29 31  0  0  1  0  0  0  0  0999 V2000
   25.0122  -20.6335   -8.4810 N   0  0  0  0  0  0  0  0  0  0  0  0
   26.3064  -20.3382   -9.1941 C   0  0  1  0  0  0  0  0  0  0  0  0
   27.4020  -20.8833   -8.3540 C   0  0  0  0  0  0  0  0  0  0  0  0
   27.6038  -20.2478   -7.0691 C   0  0  0  0  0  0  0  0  0  0  0  0
   26.7621  -19.6159   -6.2187 C   0  0  0  0  0  0  0  0  0  0  0  0
   27.4591  -19.1908   -5.1279 N   0  0  0  0  0  0  0  0  0  0  0  0
   28.7498  -19.5295   -5.2360 C   0  0  0  0  0  0  0  0  0  0  0  0
   29.8565  -19.3350   -4.3992 C   0  0  0  0  0  0  0  0  0  0  0  0
   31.0663  -19.8139   -4.7954 C   0  0  0  0  0  0  0  0  0  0  0  0
   31.2247  -20.4735   -5.9785 C   0  0  0  0  0  0  0  0  0  0  0  0
   30.1142  -20.6593   -6.7995 C   0  0  0  0  0  0  0  0  0  0  0  0
   28.8622  -20.1847   -6.4292 C   0  0  0  0  0  0  0  0  0  0  0  0
   26.2070  -20.8985  -10.5576 C   0  0  0  0  0  0  0  0  0  0  0  0
   25.9135  -22.1033  -10.7911 O   0  0  0  0  0  0  0  0  0  0  0  0
   26.4462  -20.0843  -11.7295 N   0  0  0  0  0  0  0  0  0  0  0  0
   26.0144  -20.5379  -13.0259 C   0  0  0  0  0  0  0  0  0  0  0  0
   24.6765  -20.1271  -13.4446 C   0  0  0  0  0  0  0  0  0  0  0  0
   23.9150  -19.6487  -12.5311 O   0  0  0  0  0  0  0  0  0  0  0  0
   24.1794  -20.2161  -14.7480 N   0  0  0  0  0  0  0  0  0  0  0  0
   22.8897  -19.7692  -15.2016 C   0  0  1  0  0  0  0  0  0  0  0  0
   22.8504  -19.6081  -16.6845 C   0  0  0  0  0  0  0  0  0  0  0  0
   21.6288  -19.0097  -17.2338 C   0  0  0  0  0  0  0  0  0  0  0  0
   21.1994  -17.7173  -17.0166 C   0  0  0  0  0  0  0  0  0  0  0  0
   20.0458  -17.5383  -17.6777 N   0  0  0  0  0  0  0  0  0  0  0  0
   19.7629  -18.6825  -18.2886 C   0  0  0  0  0  0  0  0  0  0  0  0
   20.7234  -19.5895  -18.0244 N   0  0  0  0  0  0  0  0  0  0  0  0
   21.7605  -20.5465  -14.6489 C   0  0  0  0  0  0  0  0  0  0  0  0
   21.7252  -21.9146  -14.4667 O   0  0  0  0  0  0  0  0  0  0  0  0
   20.7261  -19.9155  -14.3039 O   0  0  0  0  0  0  0  0  0  0  0  0
  2  1  1  1
  2 13  1  0
  3  2  1  0
  3  4  1  0
  4 12  1  0
  4  5  2  0
  5  6  1  0
  7  8  2  0
  7  6  1  0
  9  8  1  0
 10  9  2  0
 11 10  1  0
 11 12  2  0
 12  7  1  0
 13 15  1  0
 13 14  2  0
 15 16  1  0
 17 16  1  0
 17 18  2  0
 19 17  1  0
 20 19  1  0
 20 21  1  6
 22 21  1  0
 23 22  2  0
 24 25  1  0
 24 23  1  0
 25 26  2  0
 26 22  1  0
 27 20  1  0
 28 27  1  0
 29 27  2  0
M  END
$$$$
