WGH.pdb
     RDKit          3D

 29 31  0  0  1  0  0  0  0  0999 V2000
   26.8593  -22.0036  -10.7575 N   0  0  0  0  0  0  0  0  0  0  0  0
   25.9513  -20.9373  -10.2015 C   0  0  1  0  0  0  0  0  0  0  0  0
   26.8199  -19.8941   -9.6008 C   0  0  0  0  0  0  0  0  0  0  0  0
   28.0112  -20.3612   -8.9239 C   0  0  0  0  0  0  0  0  0  0  0  0
   29.0984  -21.0439   -9.3518 C   0  0  0  0  0  0  0  0  0  0  0  0
   29.9488  -21.2385   -8.3052 N   0  0  0  0  0  0  0  0  0  0  0  0
   29.4480  -20.6965   -7.1882 C   0  0  0  0  0  0  0  0  0  0  0  0
   29.9249  -20.6191   -5.8730 C   0  0  0  0  0  0  0  0  0  0  0  0
   29.1677  -19.9807   -4.9409 C   0  0  0  0  0  0  0  0  0  0  0  0
   27.9654  -19.4189   -5.2550 C   0  0  0  0  0  0  0  0  0  0  0  0
   27.5050  -19.5039   -6.5675 C   0  0  0  0  0  0  0  0  0  0  0  0
   28.2499  -20.1478   -7.5475 C   0  0  0  0  0  0  0  0  0  0  0  0
   25.0688  -20.4822  -11.2955 C   0  0  0  0  0  0  0  0  0  0  0  0
   24.1633  -19.6172  -11.1400 O   0  0  0  0  0  0  0  0  0  0  0  0
   25.1910  -21.0119  -12.6363 N   0  0  0  0  0  0  0  0  0  0  0  0
   24.2331  -20.6487  -13.6478 C   0  0  0  0  0  0  0  0  0  0  0  0
   22.9753  -21.3917  -13.6470 C   0  0  0  0  0  0  0  0  0  0  0  0
   23.0303  -22.6062  -14.0532 O   0  0  0  0  0  0  0  0  0  0  0  0
   21.7398  -20.8802  -13.2399 N   0  0  0  0  0  0  0  0  0  0  0  0
   20.7279  -21.5833  -12.4980 C   0  0  1  0  0  0  0  0  0  0  0  0
   21.2486  -22.0879  -11.1939 C   0  0  0  0  0  0  0  0  0  0  0  0
   20.3076  -22.8715  -10.3860 C   0  0  0  0  0  0  0  0  0  0  0  0
   18.9978  -23.1461  -10.7192 C   0  0  0  0  0  0  0  0  0  0  0  0
   18.4572  -23.8827   -9.7368 N   0  0  0  0  0  0  0  0  0  0  0  0
   19.3991  -24.0627   -8.8186 C   0  0  0  0  0  0  0  0  0  0  0  0
   20.5346  -23.4490   -9.2045 N   0  0  0  0  0  0  0  0  0  0  0  0
   19.4477  -20.8519  -12.3943 C   0  0  0  0  0  0  0  0  0  0  0  0
   18.1952  -21.3571  -12.6814 O   0  0  0  0  0  0  0  0  0  0  0  0
   19.4852  -19.6540  -12.0058 O   0  0  0  0  0  0  0  0  0  0  0  0
  2  1  1  6
  2 13  1  0
  3  2  1  0
  3  4  1  0
  4 12  1  0
  4  5  2  0
  5  6  1  0
  7  8  2  0
  7  6  1  0
  9  8  1  0
 10  9  2  0
 11 10  1  0
 11 12  2  0
 12  7  1  0
 13 15  1  0
 13 14  2  0
 15 16  1  0
 17 16  1  0
 17 18  2  0
 19 17  1  0
 20 19  1  0
 20 21  1  1
 22 21  1  0
 23 22  2  0
 24 25  1  0
 24 23  1  0
 25 26  2  0
 26 22  1  0
 27 20  1  0
 28 27  1  0
 29 27  2  0
M  END
$$$$
