WGH.pdb
     RDKit          3D

 29 31  0  0  1  0  0  0  0  0999 V2000
   25.0849  -20.5200   -8.8244 N   0  0  0  0  0  0  0  0  0  0  0  0
   26.5296  -20.4371   -9.2447 C   0  0  1  0  0  0  0  0  0  0  0  0
   27.3233  -21.1690   -8.2261 C   0  0  0  0  0  0  0  0  0  0  0  0
   27.4373  -20.5408   -6.9269 C   0  0  0  0  0  0  0  0  0  0  0  0
   26.5189  -20.0344   -6.0718 C   0  0  0  0  0  0  0  0  0  0  0  0
   27.1514  -19.5504   -4.9663 N   0  0  0  0  0  0  0  0  0  0  0  0
   28.4745  -19.7268   -5.0692 C   0  0  0  0  0  0  0  0  0  0  0  0
   29.5436  -19.4164   -4.2184 C   0  0  0  0  0  0  0  0  0  0  0  0
   30.8054  -19.7356   -4.6130 C   0  0  0  0  0  0  0  0  0  0  0  0
   31.0512  -20.3459   -5.8075 C   0  0  0  0  0  0  0  0  0  0  0  0
   29.9772  -20.6485   -6.6423 C   0  0  0  0  0  0  0  0  0  0  0  0
   28.6742  -20.3382   -6.2742 C   0  0  0  0  0  0  0  0  0  0  0  0
   26.6272  -20.9554  -10.6249 C   0  0  0  0  0  0  0  0  0  0  0  0
   27.7146  -21.0309  -11.2605 O   0  0  0  0  0  0  0  0  0  0  0  0
   25.4595  -21.4151  -11.3449 N   0  0  0  0  0  0  0  0  0  0  0  0
   25.5798  -21.8625  -12.7080 C   0  0  0  0  0  0  0  0  0  0  0  0
   24.7776  -21.1488  -13.6985 C   0  0  0  0  0  0  0  0  0  0  0  0
   23.7207  -20.5675  -13.2645 O   0  0  0  0  0  0  0  0  0  0  0  0
   25.0782  -21.0558  -15.0604 N   0  0  0  0  0  0  0  0  0  0  0  0
   24.3332  -20.3255  -16.0506 C   0  0  1  0  0  0  0  0  0  0  0  0
   25.1539  -20.0455  -17.2649 C   0  0  0  0  0  0  0  0  0  0  0  0
   24.5015  -19.2528  -18.3128 C   0  0  0  0  0  0  0  0  0  0  0  0
   24.3158  -17.8865  -18.2883 C   0  0  0  0  0  0  0  0  0  0  0  0
   23.6823  -17.5257  -19.4146 N   0  0  0  0  0  0  0  0  0  0  0  0
   23.4783  -18.6313  -20.1206 C   0  0  0  0  0  0  0  0  0  0  0  0
   23.9747  -19.6935  -19.4570 N   0  0  0  0  0  0  0  0  0  0  0  0
   23.0030  -20.9009  -16.3409 C   0  0  0  0  0  0  0  0  0  0  0  0
   21.8818  -20.2005  -16.7389 O   0  0  0  0  0  0  0  0  0  0  0  0
   22.8632  -22.1472  -16.2213 O   0  0  0  0  0  0  0  0  0  0  0  0
  2  1  1  1
  2 13  1  0
  3  2  1  0
  3  4  1  0
  4 12  1  0
  4  5  2  0
  5  6  1  0
  7  8  2  0
  7  6  1  0
  9  8  1  0
 10  9  2  0
 11 10  1  0
 11 12  2  0
 12  7  1  0
 13 15  1  0
 13 14  2  0
 15 16  1  0
 17 16  1  0
 17 18  2  0
 19 17  1  0
 20 19  1  0
 20 21  1  6
 22 21  1  0
 23 22  2  0
 24 25  1  0
 24 23  1  0
 25 26  2  0
 26 22  1  0
 27 20  1  0
 28 27  1  0
 29 27  2  0
M  END
$$$$
