WGH.pdb
     RDKit          3D

 29 31  0  0  1  0  0  0  0  0999 V2000
   27.3296  -20.6095  -12.8943 N   0  0  0  0  0  0  0  0  0  0  0  0
   28.5597  -20.9954  -12.1142 C   0  0  1  0  0  0  0  0  0  0  0  0
   28.1045  -21.7924  -10.9475 C   0  0  0  0  0  0  0  0  0  0  0  0
   27.3147  -21.0903   -9.9582 C   0  0  0  0  0  0  0  0  0  0  0  0
   25.9953  -20.8004   -9.8784 C   0  0  0  0  0  0  0  0  0  0  0  0
   25.7544  -20.1105   -8.7285 N   0  0  0  0  0  0  0  0  0  0  0  0
   26.8896  -19.9369   -8.0403 C   0  0  0  0  0  0  0  0  0  0  0  0
   27.1742  -19.3122   -6.8189 C   0  0  0  0  0  0  0  0  0  0  0  0
   28.4588  -19.3075   -6.3722 C   0  0  0  0  0  0  0  0  0  0  0  0
   29.4671  -19.8922   -7.0802 C   0  0  0  0  0  0  0  0  0  0  0  0
   29.1678  -20.5098   -8.2930 C   0  0  0  0  0  0  0  0  0  0  0  0
   27.8679  -20.5353   -8.7822 C   0  0  0  0  0  0  0  0  0  0  0  0
   29.4815  -21.6860  -13.0396 C   0  0  0  0  0  0  0  0  0  0  0  0
   30.5688  -22.2095  -12.6710 O   0  0  0  0  0  0  0  0  0  0  0  0
   29.1880  -21.8045  -14.4514 N   0  0  0  0  0  0  0  0  0  0  0  0
   30.1792  -22.3281  -15.3548 C   0  0  0  0  0  0  0  0  0  0  0  0
   30.0761  -23.7489  -15.6786 C   0  0  0  0  0  0  0  0  0  0  0  0
   29.2727  -24.4409  -14.9583 O   0  0  0  0  0  0  0  0  0  0  0  0
   30.7780  -24.3933  -16.7013 N   0  0  0  0  0  0  0  0  0  0  0  0
   30.8061  -25.8085  -16.9564 C   0  0  1  0  0  0  0  0  0  0  0  0
   29.5481  -26.2784  -17.6068 C   0  0  0  0  0  0  0  0  0  0  0  0
   29.5126  -27.6940  -17.9898 C   0  0  0  0  0  0  0  0  0  0  0  0
   28.7377  -28.6678  -17.3954 C   0  0  0  0  0  0  0  0  0  0  0  0
   28.9772  -29.8344  -18.0134 N   0  0  0  0  0  0  0  0  0  0  0  0
   29.8735  -29.5974  -18.9637 C   0  0  0  0  0  0  0  0  0  0  0  0
   30.2083  -28.2924  -18.9587 N   0  0  0  0  0  0  0  0  0  0  0  0
   32.0404  -26.2696  -17.6262 C   0  0  0  0  0  0  0  0  0  0  0  0
   32.7488  -25.5822  -18.5916 O   0  0  0  0  0  0  0  0  0  0  0  0
   32.5046  -27.3927  -17.2941 O   0  0  0  0  0  0  0  0  0  0  0  0
  2  1  1  6
  2 13  1  0
  3  2  1  0
  3  4  1  0
  4 12  1  0
  4  5  2  0
  5  6  1  0
  7  8  2  0
  7  6  1  0
  9  8  1  0
 10  9  2  0
 11 10  1  0
 11 12  2  0
 12  7  1  0
 13 15  1  0
 13 14  2  0
 15 16  1  0
 17 16  1  0
 17 18  2  0
 19 17  1  0
 20 19  1  0
 20 21  1  6
 22 21  1  0
 23 22  2  0
 24 25  1  0
 24 23  1  0
 25 26  2  0
 26 22  1  0
 27 20  1  0
 28 27  1  0
 29 27  2  0
M  END
$$$$
