WGH.pdb
     RDKit          3D

 29 31  0  0  1  0  0  0  0  0999 V2000
   21.8184  -19.1122  -19.9580 N   0  0  0  0  0  0  0  0  0  0  0  0
   22.2816  -18.2157  -18.8389 C   0  0  1  0  0  0  0  0  0  0  0  0
   21.0991  -17.4455  -18.3787 C   0  0  0  0  0  0  0  0  0  0  0  0
   20.4932  -16.5577  -19.3483 C   0  0  0  0  0  0  0  0  0  0  0  0
   19.3023  -16.5801  -19.9906 C   0  0  0  0  0  0  0  0  0  0  0  0
   19.2136  -15.4975  -20.8130 N   0  0  0  0  0  0  0  0  0  0  0  0
   20.3235  -14.7536  -20.7288 C   0  0  0  0  0  0  0  0  0  0  0  0
   20.7188  -13.5626  -21.3521 C   0  0  0  0  0  0  0  0  0  0  0  0
   21.9357  -13.0384  -21.0454 C   0  0  0  0  0  0  0  0  0  0  0  0
   22.7723  -13.6405  -20.1525 C   0  0  0  0  0  0  0  0  0  0  0  0
   22.3646  -14.8243  -19.5407 C   0  0  0  0  0  0  0  0  0  0  0  0
   21.1290  -15.3904  -19.8281 C   0  0  0  0  0  0  0  0  0  0  0  0
   22.9271  -19.0668  -17.8181 C   0  0  0  0  0  0  0  0  0  0  0  0
   22.7683  -20.3172  -17.7584 O   0  0  0  0  0  0  0  0  0  0  0  0
   23.7954  -18.5069  -16.8053 N   0  0  0  0  0  0  0  0  0  0  0  0
   24.3890  -19.3602  -15.8091 C   0  0  0  0  0  0  0  0  0  0  0  0
   23.4657  -20.0466  -14.9090 C   0  0  0  0  0  0  0  0  0  0  0  0
   22.2321  -19.7077  -14.9907 O   0  0  0  0  0  0  0  0  0  0  0  0
   23.8270  -21.0302  -13.9839 N   0  0  0  0  0  0  0  0  0  0  0  0
   22.9411  -21.7296  -13.0924 C   0  0  1  0  0  0  0  0  0  0  0  0
   23.5069  -23.0437  -12.6689 C   0  0  0  0  0  0  0  0  0  0  0  0
   23.8716  -23.9651  -13.7506 C   0  0  0  0  0  0  0  0  0  0  0  0
   24.7730  -23.7016  -14.7606 C   0  0  0  0  0  0  0  0  0  0  0  0
   24.8400  -24.7778  -15.5589 N   0  0  0  0  0  0  0  0  0  0  0  0
   24.0069  -25.6851  -15.0638 C   0  0  0  0  0  0  0  0  0  0  0  0
   23.4091  -25.1995  -13.9584 N   0  0  0  0  0  0  0  0  0  0  0  0
   22.4410  -20.9000  -11.9759 C   0  0  0  0  0  0  0  0  0  0  0  0
   22.9186  -19.6585  -11.6060 O   0  0  0  0  0  0  0  0  0  0  0  0
   21.4870  -21.3529  -11.2890 O   0  0  0  0  0  0  0  0  0  0  0  0
  2  1  1  6
  2 13  1  0
  3  2  1  0
  3  4  1  0
  4 12  1  0
  4  5  2  0
  5  6  1  0
  7  8  2  0
  7  6  1  0
  9  8  1  0
 10  9  2  0
 11 10  1  0
 11 12  2  0
 12  7  1  0
 13 15  1  0
 13 14  2  0
 15 16  1  0
 17 16  1  0
 17 18  2  0
 19 17  1  0
 20 19  1  0
 20 21  1  1
 22 21  1  0
 23 22  2  0
 24 25  1  0
 24 23  1  0
 25 26  2  0
 26 22  1  0
 27 20  1  0
 28 27  1  0
 29 27  2  0
M  END
$$$$
