WGH.pdb
     RDKit          3D

 29 31  0  0  1  0  0  0  0  0999 V2000
   26.3788  -19.0049  -10.1867 N   0  0  0  0  0  0  0  0  0  0  0  0
   27.4930  -20.0113  -10.3150 C   0  0  1  0  0  0  0  0  0  0  0  0
   27.2275  -21.0850   -9.3250 C   0  0  0  0  0  0  0  0  0  0  0  0
   26.8333  -20.6547   -8.0003 C   0  0  0  0  0  0  0  0  0  0  0  0
   25.6251  -20.4405   -7.4296 C   0  0  0  0  0  0  0  0  0  0  0  0
   25.8011  -20.0377   -6.1400 N   0  0  0  0  0  0  0  0  0  0  0  0
   27.1049  -19.9811   -5.8411 C   0  0  0  0  0  0  0  0  0  0  0  0
   27.7979  -19.6379   -4.6728 C   0  0  0  0  0  0  0  0  0  0  0  0
   29.1571  -19.6856   -4.6826 C   0  0  0  0  0  0  0  0  0  0  0  0
   29.8544  -20.0568   -5.7943 C   0  0  0  0  0  0  0  0  0  0  0  0
   29.1506  -20.3955   -6.9483 C   0  0  0  0  0  0  0  0  0  0  0  0
   27.7622  -20.3591   -6.9772 C   0  0  0  0  0  0  0  0  0  0  0  0
   27.5491  -20.4431  -11.7268 C   0  0  0  0  0  0  0  0  0  0  0  0
   28.1394  -21.4916  -12.1069 O   0  0  0  0  0  0  0  0  0  0  0  0
   26.9201  -19.6744  -12.7788 N   0  0  0  0  0  0  0  0  0  0  0  0
   27.0172  -20.1075  -14.1484 C   0  0  0  0  0  0  0  0  0  0  0  0
   25.8643  -20.8266  -14.6848 C   0  0  0  0  0  0  0  0  0  0  0  0
   26.1195  -21.8344  -15.4348 O   0  0  0  0  0  0  0  0  0  0  0  0
   24.5276  -20.4994  -14.4398 N   0  0  0  0  0  0  0  0  0  0  0  0
   23.3737  -21.2268  -14.8959 C   0  0  1  0  0  0  0  0  0  0  0  0
   22.4462  -21.5527  -13.7735 C   0  0  0  0  0  0  0  0  0  0  0  0
   21.2394  -22.3045  -14.1347 C   0  0  0  0  0  0  0  0  0  0  0  0
   21.2146  -23.5149  -14.7952 C   0  0  0  0  0  0  0  0  0  0  0  0
   19.9346  -23.8864  -14.9491 N   0  0  0  0  0  0  0  0  0  0  0  0
   19.1832  -22.9382  -14.4024 C   0  0  0  0  0  0  0  0  0  0  0  0
   19.9698  -21.9660  -13.9014 N   0  0  0  0  0  0  0  0  0  0  0  0
   22.7111  -20.6197  -16.0694 C   0  0  0  0  0  0  0  0  0  0  0  0
   22.2747  -21.2891  -17.1954 O   0  0  0  0  0  0  0  0  0  0  0  0
   22.5159  -19.3752  -16.0553 O   0  0  0  0  0  0  0  0  0  0  0  0
  2  1  1  6
  2 13  1  0
  3  2  1  0
  3  4  1  0
  4 12  1  0
  4  5  2  0
  5  6  1  0
  7  8  2  0
  7  6  1  0
  9  8  1  0
 10  9  2  0
 11 10  1  0
 11 12  2  0
 12  7  1  0
 13 15  1  0
 13 14  2  0
 15 16  1  0
 17 16  1  0
 17 18  2  0
 19 17  1  0
 20 19  1  0
 20 21  1  1
 22 21  1  0
 23 22  2  0
 24 25  1  0
 24 23  1  0
 25 26  2  0
 26 22  1  0
 27 20  1  0
 28 27  1  0
 29 27  2  0
M  END
$$$$
