WDQ.pdb
     RDKit          3D

 32 33  0  0  1  0  0  0  0  0999 V2000
   24.7782  -19.4619  -11.7142 N   0  0  0  0  0  0  0  0  0  0  0  0
   25.8994  -20.3002  -12.0695 C   0  0  1  0  0  0  0  0  0  0  0  0
   25.9627  -21.4704  -11.1150 C   0  0  0  0  0  0  0  0  0  0  0  0
   26.1727  -21.0885   -9.7148 C   0  0  0  0  0  0  0  0  0  0  0  0
   25.1850  -20.8019   -8.7973 C   0  0  0  0  0  0  0  0  0  0  0  0
   25.7698  -20.4964   -7.6049 N   0  0  0  0  0  0  0  0  0  0  0  0
   27.0823  -20.5778   -7.7300 C   0  0  0  0  0  0  0  0  0  0  0  0
   28.1310  -20.3721   -6.8542 C   0  0  0  0  0  0  0  0  0  0  0  0
   29.4254  -20.5353   -7.2928 C   0  0  0  0  0  0  0  0  0  0  0  0
   29.7346  -20.9064   -8.6049 C   0  0  0  0  0  0  0  0  0  0  0  0
   28.6745  -21.1071   -9.4639 C   0  0  0  0  0  0  0  0  0  0  0  0
   27.3651  -20.9457   -9.0361 C   0  0  0  0  0  0  0  0  0  0  0  0
   25.6847  -20.8682  -13.4306 C   0  0  0  0  0  0  0  0  0  0  0  0
   24.5252  -21.0058  -13.8861 O   0  0  0  0  0  0  0  0  0  0  0  0
   26.7576  -21.2869  -14.2852 N   0  0  0  0  0  0  0  0  0  0  0  0
   26.7193  -21.2390  -15.7032 C   0  0  1  0  0  0  0  0  0  0  0  0
   27.9174  -20.7251  -16.4113 C   0  0  0  0  0  0  0  0  0  0  0  0
   28.2689  -19.3153  -16.0800 C   0  0  0  0  0  0  0  0  0  0  0  0
   29.4256  -18.9984  -15.7892 O   0  0  0  0  0  0  0  0  0  0  0  0
   26.3719  -22.5793  -16.2970 C   0  0  0  0  0  0  0  0  0  0  0  0
   26.4361  -22.8084  -17.5147 O   0  0  0  0  0  0  0  0  0  0  0  0
   27.2780  -18.2987  -16.0947 O   0  0  0  0  0  0  0  0  0  0  0  0
   22.1381  -25.2822  -13.3829 N   0  0  0  0  0  0  0  0  0  0  0  0
   22.5675  -26.4870  -14.0290 C   0  0  0  0  0  0  0  0  0  0  0  0
   21.7833  -27.4675  -14.1009 O   0  0  0  0  0  0  0  0  0  0  0  0
   23.8977  -26.6086  -14.6182 C   0  0  0  0  0  0  0  0  0  0  0  0
   24.7984  -25.4467  -14.5472 C   0  0  0  0  0  0  0  0  0  0  0  0
   25.1087  -24.7265  -15.8177 C   0  0  2  0  0  0  0  0  0  0  0  0
   25.9616  -23.5917  -15.4013 N   0  0  0  0  0  0  0  0  0  0  0  0
   23.9346  -24.1755  -16.4743 C   0  0  0  0  0  0  0  0  0  0  0  0
   23.4488  -24.7868  -17.6360 O   0  0  0  0  0  0  0  0  0  0  0  0
   23.3030  -23.1722  -16.0811 O   0  0  0  0  0  0  0  0  0  0  0  0
  2  1  1  1
  3  4  1  0
  3  2  1  0
  4 12  1  0
  4  5  2  0
  5  6  1  0
  7  8  2  0
  7  6  1  0
  9  8  1  0
 10  9  2  0
 11 10  1  0
 11 12  2  0
 12  7  1  0
 13  2  1  0
 14 13  2  0
 15 13  1  0
 16 15  1  0
 16 17  1  6
 18 19  2  0
 18 17  1  0
 20 16  1  0
 21 20  2  0
 22 18  1  0
 23 24  1  0
 24 26  1  0
 25 24  2  0
 27 26  1  0
 28 27  1  1
 28 29  1  0
 29 20  1  0
 30 28  1  0
 30 31  1  0
 32 30  2  0
M  END
$$$$
