WDQ.pdb
     RDKit          3D

 32 33  0  0  1  0  0  0  0  0999 V2000
   27.8551  -20.4696  -12.4498 N   0  0  0  0  0  0  0  0  0  0  0  0
   26.8188  -21.3195  -11.9114 C   0  0  1  0  0  0  0  0  0  0  0  0
   26.5586  -20.9305  -10.4742 C   0  0  0  0  0  0  0  0  0  0  0  0
   27.7387  -21.0195   -9.6082 C   0  0  0  0  0  0  0  0  0  0  0  0
   28.9558  -21.5666   -9.9528 C   0  0  0  0  0  0  0  0  0  0  0  0
   29.8011  -21.4601   -8.8891 N   0  0  0  0  0  0  0  0  0  0  0  0
   29.1707  -20.8702   -7.8893 C   0  0  0  0  0  0  0  0  0  0  0  0
   29.5472  -20.5243   -6.6057 C   0  0  0  0  0  0  0  0  0  0  0  0
   28.6410  -19.9060   -5.7744 C   0  0  0  0  0  0  0  0  0  0  0  0
   27.3353  -19.6057   -6.1745 C   0  0  0  0  0  0  0  0  0  0  0  0
   26.9785  -19.9587   -7.4591 C   0  0  0  0  0  0  0  0  0  0  0  0
   27.8809  -20.5827   -8.3075 C   0  0  0  0  0  0  0  0  0  0  0  0
   25.5483  -21.0876  -12.6552 C   0  0  0  0  0  0  0  0  0  0  0  0
   25.3496  -20.0029  -13.2509 O   0  0  0  0  0  0  0  0  0  0  0  0
   24.4962  -22.0589  -12.7349 N   0  0  0  0  0  0  0  0  0  0  0  0
   23.3573  -21.9412  -13.5737 C   0  0  1  0  0  0  0  0  0  0  0  0
   23.1835  -22.9467  -14.6506 C   0  0  0  0  0  0  0  0  0  0  0  0
   21.9863  -22.7253  -15.5101 C   0  0  0  0  0  0  0  0  0  0  0  0
   21.7525  -21.6189  -16.0043 O   0  0  0  0  0  0  0  0  0  0  0  0
   22.0801  -21.8939  -12.7761 C   0  0  0  0  0  0  0  0  0  0  0  0
   21.3726  -22.8952  -12.5861 O   0  0  0  0  0  0  0  0  0  0  0  0
   21.0850  -23.7872  -15.7846 O   0  0  0  0  0  0  0  0  0  0  0  0
   18.5824  -17.0228  -13.5076 N   0  0  0  0  0  0  0  0  0  0  0  0
   19.9902  -16.9925  -13.7729 C   0  0  0  0  0  0  0  0  0  0  0  0
   20.5515  -15.8964  -14.0276 O   0  0  0  0  0  0  0  0  0  0  0  0
   20.8010  -18.2063  -13.7488 C   0  0  0  0  0  0  0  0  0  0  0  0
   20.1195  -19.4936  -13.5370 C   0  0  0  0  0  0  0  0  0  0  0  0
   20.3031  -20.1712  -12.2192 C   0  0  2  0  0  0  0  0  0  0  0  0
   21.7052  -20.6428  -12.2376 N   0  0  0  0  0  0  0  0  0  0  0  0
   19.4505  -21.3351  -12.0411 C   0  0  0  0  0  0  0  0  0  0  0  0
   19.8020  -22.3034  -11.0935 O   0  0  0  0  0  0  0  0  0  0  0  0
   18.4003  -21.5538  -12.6808 O   0  0  0  0  0  0  0  0  0  0  0  0
  2  1  1  6
  3  4  1  0
  3  2  1  0
  4 12  1  0
  4  5  2  0
  5  6  1  0
  7  8  2  0
  7  6  1  0
  9  8  1  0
 10  9  2  0
 11 10  1  0
 11 12  2  0
 12  7  1  0
 13  2  1  0
 14 13  2  0
 15 13  1  0
 16 15  1  0
 16 17  1  6
 18 19  2  0
 18 17  1  0
 20 16  1  0
 21 20  2  0
 22 18  1  0
 23 24  1  0
 24 26  1  0
 25 24  2  0
 27 26  1  0
 28 27  1  6
 28 29  1  0
 29 20  1  0
 30 28  1  0
 30 31  1  0
 32 30  2  0
M  END
$$$$
