WDQ.pdb
     RDKit          3D

 32 33  0  0  1  0  0  0  0  0999 V2000
   23.9513  -19.8144  -11.1677 N   0  0  0  0  0  0  0  0  0  0  0  0
   25.2837  -19.9738  -11.7021 C   0  0  1  0  0  0  0  0  0  0  0  0
   25.9446  -21.1582  -11.0348 C   0  0  0  0  0  0  0  0  0  0  0  0
   26.4669  -20.8739   -9.6943 C   0  0  0  0  0  0  0  0  0  0  0  0
   25.7334  -20.4190   -8.6198 C   0  0  0  0  0  0  0  0  0  0  0  0
   26.5647  -20.2803   -7.5489 N   0  0  0  0  0  0  0  0  0  0  0  0
   27.7897  -20.6276   -7.9007 C   0  0  0  0  0  0  0  0  0  0  0  0
   28.9924  -20.6722   -7.2220 C   0  0  0  0  0  0  0  0  0  0  0  0
   30.1291  -21.0855   -7.8790 C   0  0  0  0  0  0  0  0  0  0  0  0
   30.1241  -21.4697   -9.2234 C   0  0  0  0  0  0  0  0  0  0  0  0
   28.9143  -21.4183   -9.8835 C   0  0  0  0  0  0  0  0  0  0  0  0
   27.7610  -21.0033   -9.2346 C   0  0  0  0  0  0  0  0  0  0  0  0
   25.2024  -20.2911  -13.1560 C   0  0  0  0  0  0  0  0  0  0  0  0
   24.1423  -20.7422  -13.6496 O   0  0  0  0  0  0  0  0  0  0  0  0
   26.2994  -20.1109  -14.0620 N   0  0  0  0  0  0  0  0  0  0  0  0
   26.1982  -19.4795  -15.3290 C   0  0  1  0  0  0  0  0  0  0  0  0
   27.4215  -18.8567  -15.8920 C   0  0  0  0  0  0  0  0  0  0  0  0
   27.2479  -18.2884  -17.2587 C   0  0  0  0  0  0  0  0  0  0  0  0
   26.5945  -17.2575  -17.4419 O   0  0  0  0  0  0  0  0  0  0  0  0
   25.6320  -20.4085  -16.3712 C   0  0  0  0  0  0  0  0  0  0  0  0
   26.2115  -21.4457  -16.7286 O   0  0  0  0  0  0  0  0  0  0  0  0
   27.8355  -18.9199  -18.3862 O   0  0  0  0  0  0  0  0  0  0  0  0
   22.1562  -23.6133  -14.1706 N   0  0  0  0  0  0  0  0  0  0  0  0
   22.5241  -24.1838  -15.4325 C   0  0  0  0  0  0  0  0  0  0  0  0
   22.4716  -25.4304  -15.5904 O   0  0  0  0  0  0  0  0  0  0  0  0
   22.9550  -23.3529  -16.5529 C   0  0  0  0  0  0  0  0  0  0  0  0
   23.0698  -21.9013  -16.3382 C   0  0  0  0  0  0  0  0  0  0  0  0
   23.4556  -21.0525  -17.5044 C   0  0  2  0  0  0  0  0  0  0  0  0
   24.3896  -20.0527  -16.9416 N   0  0  0  0  0  0  0  0  0  0  0  0
   22.3391  -20.3293  -18.0907 C   0  0  0  0  0  0  0  0  0  0  0  0
   21.9245  -19.1236  -17.5131 O   0  0  0  0  0  0  0  0  0  0  0  0
   21.6968  -20.7023  -19.0948 O   0  0  0  0  0  0  0  0  0  0  0  0
  2  1  1  1
  3  4  1  0
  3  2  1  0
  4 12  1  0
  4  5  2  0
  5  6  1  0
  7  8  2  0
  7  6  1  0
  9  8  1  0
 10  9  2  0
 11 10  1  0
 11 12  2  0
 12  7  1  0
 13  2  1  0
 14 13  2  0
 15 13  1  0
 16 15  1  0
 16 17  1  6
 18 19  2  0
 18 17  1  0
 20 16  1  0
 21 20  2  0
 22 18  1  0
 23 24  1  0
 24 26  1  0
 25 24  2  0
 27 26  1  0
 28 27  1  1
 28 29  1  0
 29 20  1  0
 30 28  1  0
 30 31  1  0
 32 30  2  0
M  END
$$$$
