WDQ.pdb
     RDKit          3D

 32 33  0  0  1  0  0  0  0  0999 V2000
   26.4820  -18.3348   -9.9981 N   0  0  0  0  0  0  0  0  0  0  0  0
   26.6097  -19.7725  -10.0519 C   0  0  1  0  0  0  0  0  0  0  0  0
   26.3651  -20.3417   -8.6732 C   0  0  0  0  0  0  0  0  0  0  0  0
   27.1728  -19.7206   -7.6186 C   0  0  0  0  0  0  0  0  0  0  0  0
   27.7922  -18.4916   -7.6916 C   0  0  0  0  0  0  0  0  0  0  0  0
   28.4413  -18.2575   -6.5165 N   0  0  0  0  0  0  0  0  0  0  0  0
   28.2587  -19.2844   -5.7060 C   0  0  0  0  0  0  0  0  0  0  0  0
   28.6872  -19.5651   -4.4227 C   0  0  0  0  0  0  0  0  0  0  0  0
   28.3258  -20.7534   -3.8297 C   0  0  0  0  0  0  0  0  0  0  0  0
   27.5313  -21.7060   -4.4750 C   0  0  0  0  0  0  0  0  0  0  0  0
   27.1135  -21.4076   -5.7551 C   0  0  0  0  0  0  0  0  0  0  0  0
   27.4705  -20.2145   -6.3655 C   0  0  0  0  0  0  0  0  0  0  0  0
   25.5531  -20.3332  -10.9410 C   0  0  0  0  0  0  0  0  0  0  0  0
   24.3753  -19.9100  -10.8734 O   0  0  0  0  0  0  0  0  0  0  0  0
   25.8032  -21.3668  -11.9032 N   0  0  0  0  0  0  0  0  0  0  0  0
   24.9932  -21.6162  -13.0417 C   0  0  1  0  0  0  0  0  0  0  0  0
   25.6457  -22.1933  -14.2427 C   0  0  0  0  0  0  0  0  0  0  0  0
   24.7547  -22.3037  -15.4322 C   0  0  0  0  0  0  0  0  0  0  0  0
   24.6375  -23.3691  -16.0439 O   0  0  0  0  0  0  0  0  0  0  0  0
   23.8054  -22.4788  -12.7026 C   0  0  0  0  0  0  0  0  0  0  0  0
   23.8979  -23.5001  -12.0042 O   0  0  0  0  0  0  0  0  0  0  0  0
   24.0139  -21.1822  -15.8893 O   0  0  0  0  0  0  0  0  0  0  0  0
   19.4503  -24.3748   -9.9117 N   0  0  0  0  0  0  0  0  0  0  0  0
   19.0889  -22.9939  -10.0373 C   0  0  0  0  0  0  0  0  0  0  0  0
   18.0728  -22.5599   -9.4365 O   0  0  0  0  0  0  0  0  0  0  0  0
   19.8764  -22.0657  -10.8432 C   0  0  0  0  0  0  0  0  0  0  0  0
   21.1707  -22.5278  -11.3701 C   0  0  0  0  0  0  0  0  0  0  0  0
   21.2865  -22.7449  -12.8428 C   0  0  2  0  0  0  0  0  0  0  0  0
   22.5525  -22.0772  -13.2170 N   0  0  0  0  0  0  0  0  0  0  0  0
   20.2186  -22.1214  -13.6072 C   0  0  0  0  0  0  0  0  0  0  0  0
   20.3678  -20.7987  -14.0400 O   0  0  0  0  0  0  0  0  0  0  0  0
   19.1460  -22.6798  -13.9196 O   0  0  0  0  0  0  0  0  0  0  0  0
  2  1  1  1
  3  4  1  0
  3  2  1  0
  4 12  1  0
  4  5  2  0
  5  6  1  0
  7  8  2  0
  7  6  1  0
  9  8  1  0
 10  9  2  0
 11 10  1  0
 11 12  2  0
 12  7  1  0
 13  2  1  0
 14 13  2  0
 15 13  1  0
 16 15  1  0
 16 17  1  6
 18 19  2  0
 18 17  1  0
 20 16  1  0
 21 20  2  0
 22 18  1  0
 23 24  1  0
 24 26  1  0
 25 24  2  0
 27 26  1  0
 28 27  1  1
 28 29  1  0
 29 20  1  0
 30 28  1  0
 30 31  1  0
 32 30  2  0
M  END
$$$$
