WDQ.pdb
     RDKit          3D

 32 33  0  0  1  0  0  0  0  0999 V2000
   21.2845  -10.3122  -16.9917 N   0  0  0  0  0  0  0  0  0  0  0  0
   19.9410   -9.8078  -16.8281 C   0  0  1  0  0  0  0  0  0  0  0  0
   19.2763  -10.5365  -15.6827 C   0  0  0  0  0  0  0  0  0  0  0  0
   18.9259  -11.9284  -15.9832 C   0  0  0  0  0  0  0  0  0  0  0  0
   19.7099  -13.0331  -15.7294 C   0  0  0  0  0  0  0  0  0  0  0  0
   19.0432  -14.1478  -16.1419 N   0  0  0  0  0  0  0  0  0  0  0  0
   17.8737  -13.7948  -16.6444 C   0  0  0  0  0  0  0  0  0  0  0  0
   16.8268  -14.5078  -17.1964 C   0  0  0  0  0  0  0  0  0  0  0  0
   15.7115  -13.8390  -17.6474 C   0  0  0  0  0  0  0  0  0  0  0  0
   15.5853  -12.4485  -17.5713 C   0  0  0  0  0  0  0  0  0  0  0  0
   16.6405  -11.7547  -17.0172 C   0  0  0  0  0  0  0  0  0  0  0  0
   17.7709  -12.4152  -16.5592 C   0  0  0  0  0  0  0  0  0  0  0  0
   19.9926   -8.3677  -16.4479 C   0  0  0  0  0  0  0  0  0  0  0  0
   20.8161   -7.9654  -15.5929 O   0  0  0  0  0  0  0  0  0  0  0  0
   19.1274   -7.3741  -17.0144 N   0  0  0  0  0  0  0  0  0  0  0  0
   19.1739   -5.9924  -16.6933 C   0  0  1  0  0  0  0  0  0  0  0  0
   18.7133   -5.0268  -17.7211 C   0  0  0  0  0  0  0  0  0  0  0  0
   19.4785   -5.0785  -18.9989 C   0  0  0  0  0  0  0  0  0  0  0  0
   18.9153   -4.9209  -20.0857 O   0  0  0  0  0  0  0  0  0  0  0  0
   18.4360   -5.6922  -15.4146 C   0  0  0  0  0  0  0  0  0  0  0  0
   17.2974   -6.1264  -15.1815 O   0  0  0  0  0  0  0  0  0  0  0  0
   20.8795   -5.3074  -18.9959 O   0  0  0  0  0  0  0  0  0  0  0  0
   20.0211   -6.5416  -10.1495 N   0  0  0  0  0  0  0  0  0  0  0  0
   19.6482   -5.1998   -9.8121 C   0  0  0  0  0  0  0  0  0  0  0  0
   19.4125   -4.9027   -8.6130 O   0  0  0  0  0  0  0  0  0  0  0  0
   19.5401   -4.1561  -10.8271 C   0  0  0  0  0  0  0  0  0  0  0  0
   19.7488   -4.5311  -12.2350 C   0  0  0  0  0  0  0  0  0  0  0  0
   18.5480   -4.6206  -13.1179 C   0  0  2  0  0  0  0  0  0  0  0  0
   19.0985   -4.8816  -14.4661 N   0  0  0  0  0  0  0  0  0  0  0  0
   17.7847   -3.3853  -13.1868 C   0  0  0  0  0  0  0  0  0  0  0  0
   16.6685   -3.2223  -12.3581 O   0  0  0  0  0  0  0  0  0  0  0  0
   18.0451   -2.4280  -13.9456 O   0  0  0  0  0  0  0  0  0  0  0  0
  2  1  1  1
  3  4  1  0
  3  2  1  0
  4 12  1  0
  4  5  2  0
  5  6  1  0
  7  8  2  0
  7  6  1  0
  9  8  1  0
 10  9  2  0
 11 10  1  0
 11 12  2  0
 12  7  1  0
 13  2  1  0
 14 13  2  0
 15 13  1  0
 16 15  1  0
 16 17  1  6
 18 19  2  0
 18 17  1  0
 20 16  1  0
 21 20  2  0
 22 18  1  0
 23 24  1  0
 24 26  1  0
 25 24  2  0
 27 26  1  0
 28 27  1  1
 28 29  1  0
 29 20  1  0
 30 28  1  0
 30 31  1  0
 32 30  2  0
M  END
$$$$
