WDQ.pdb
     RDKit          3D

 32 33  0  0  1  0  0  0  0  0999 V2000
   27.3384  -19.2420   -9.9287 N   0  0  0  0  0  0  0  0  0  0  0  0
   26.4417  -20.3355   -9.6350 C   0  0  1  0  0  0  0  0  0  0  0  0
   25.9018  -20.1681   -8.2332 C   0  0  0  0  0  0  0  0  0  0  0  0
   26.8734  -19.6226   -7.2799 C   0  0  0  0  0  0  0  0  0  0  0  0
   26.8262  -18.3719   -6.7026 C   0  0  0  0  0  0  0  0  0  0  0  0
   27.8961  -18.2329   -5.8700 N   0  0  0  0  0  0  0  0  0  0  0  0
   28.6156  -19.3403   -5.8968 C   0  0  0  0  0  0  0  0  0  0  0  0
   29.7785  -19.7290   -5.2598 C   0  0  0  0  0  0  0  0  0  0  0  0
   30.3010  -20.9793   -5.5014 C   0  0  0  0  0  0  0  0  0  0  0  0
   29.7000  -21.8905   -6.3752 C   0  0  0  0  0  0  0  0  0  0  0  0
   28.5403  -21.4843   -7.0012 C   0  0  0  0  0  0  0  0  0  0  0  0
   28.0026  -20.2273   -6.7679 C   0  0  0  0  0  0  0  0  0  0  0  0
   25.2706  -20.2800  -10.5550 C   0  0  0  0  0  0  0  0  0  0  0  0
   24.2983  -19.5310  -10.3014 O   0  0  0  0  0  0  0  0  0  0  0  0
   25.1772  -21.0590  -11.7556 N   0  0  0  0  0  0  0  0  0  0  0  0
   24.0943  -20.9957  -12.6708 C   0  0  1  0  0  0  0  0  0  0  0  0
   24.4139  -20.8637  -14.1136 C   0  0  0  0  0  0  0  0  0  0  0  0
   24.7062  -19.4699  -14.5527 C   0  0  0  0  0  0  0  0  0  0  0  0
   24.4844  -18.5085  -13.8114 O   0  0  0  0  0  0  0  0  0  0  0  0
   23.1598  -22.1666  -12.5106 C   0  0  0  0  0  0  0  0  0  0  0  0
   23.4003  -23.1149  -11.7475 O   0  0  0  0  0  0  0  0  0  0  0  0
   25.2524  -19.2146  -15.8380 O   0  0  0  0  0  0  0  0  0  0  0  0
   17.8805  -21.3773  -11.0523 N   0  0  0  0  0  0  0  0  0  0  0  0
   18.0562  -22.7577  -10.7103 C   0  0  0  0  0  0  0  0  0  0  0  0
   17.1404  -23.3693  -10.1030 O   0  0  0  0  0  0  0  0  0  0  0  0
   19.2747  -23.4838  -11.0557 C   0  0  0  0  0  0  0  0  0  0  0  0
   20.3990  -22.7239  -11.6255 C   0  0  0  0  0  0  0  0  0  0  0  0
   20.8408  -23.0656  -13.0102 C   0  0  2  0  0  0  0  0  0  0  0  0
   21.9718  -22.1492  -13.2747 N   0  0  0  0  0  0  0  0  0  0  0  0
   19.8269  -22.8150  -14.0215 C   0  0  0  0  0  0  0  0  0  0  0  0
   19.0463  -23.8791  -14.4877 O   0  0  0  0  0  0  0  0  0  0  0  0
   19.5855  -21.6988  -14.5274 O   0  0  0  0  0  0  0  0  0  0  0  0
  2  1  1  6
  3  4  1  0
  3  2  1  0
  4 12  1  0
  4  5  2  0
  5  6  1  0
  7  8  2  0
  7  6  1  0
  9  8  1  0
 10  9  2  0
 11 10  1  0
 11 12  2  0
 12  7  1  0
 13  2  1  0
 14 13  2  0
 15 13  1  0
 16 15  1  0
 16 17  1  6
 18 19  2  0
 18 17  1  0
 20 16  1  0
 21 20  2  0
 22 18  1  0
 23 24  1  0
 24 26  1  0
 25 24  2  0
 27 26  1  0
 28 27  1  1
 28 29  1  0
 29 20  1  0
 30 28  1  0
 30 31  1  0
 32 30  2  0
M  END
$$$$
