WDQ.pdb
     RDKit          3D

 32 33  0  0  1  0  0  0  0  0999 V2000
   27.8521  -22.0583  -10.9566 N   0  0  0  0  0  0  0  0  0  0  0  0
   26.7110  -21.5196  -10.2539 C   0  0  1  0  0  0  0  0  0  0  0  0
   27.0806  -20.1754   -9.6698 C   0  0  0  0  0  0  0  0  0  0  0  0
   28.1525  -20.2326   -8.6707 C   0  0  0  0  0  0  0  0  0  0  0  0
   29.4966  -20.3864   -8.9338 C   0  0  0  0  0  0  0  0  0  0  0  0
   30.1771  -20.3867   -7.7531 N   0  0  0  0  0  0  0  0  0  0  0  0
   29.3216  -20.2398   -6.7574 C   0  0  0  0  0  0  0  0  0  0  0  0
   29.4686  -20.1772   -5.3849 C   0  0  0  0  0  0  0  0  0  0  0  0
   28.3572  -20.0190   -4.5884 C   0  0  0  0  0  0  0  0  0  0  0  0
   27.0645  -19.9161   -5.1114 C   0  0  0  0  0  0  0  0  0  0  0  0
   26.9385  -19.9807   -6.4833 C   0  0  0  0  0  0  0  0  0  0  0  0
   28.0493  -20.1406   -7.2982 C   0  0  0  0  0  0  0  0  0  0  0  0
   25.6010  -21.2773  -11.2186 C   0  0  0  0  0  0  0  0  0  0  0  0
   25.8461  -20.8884  -12.3846 O   0  0  0  0  0  0  0  0  0  0  0  0
   24.2180  -21.4634  -10.8877 N   0  0  0  0  0  0  0  0  0  0  0  0
   23.1542  -21.4076  -11.8255 C   0  0  1  0  0  0  0  0  0  0  0  0
   22.0427  -22.3779  -11.6702 C   0  0  0  0  0  0  0  0  0  0  0  0
   21.0299  -22.3314  -12.7626 C   0  0  0  0  0  0  0  0  0  0  0  0
   21.3323  -21.9483  -13.8961 O   0  0  0  0  0  0  0  0  0  0  0  0
   22.5543  -20.0280  -11.9065 C   0  0  0  0  0  0  0  0  0  0  0  0
   22.2249  -19.3815  -10.9001 O   0  0  0  0  0  0  0  0  0  0  0  0
   19.6888  -22.7319  -12.5249 O   0  0  0  0  0  0  0  0  0  0  0  0
   23.2235  -16.9797  -17.4493 N   0  0  0  0  0  0  0  0  0  0  0  0
   22.4928  -16.0532  -16.6363 C   0  0  0  0  0  0  0  0  0  0  0  0
   22.2172  -14.9124  -17.0882 O   0  0  0  0  0  0  0  0  0  0  0  0
   22.0484  -16.3999  -15.2897 C   0  0  0  0  0  0  0  0  0  0  0  0
   22.4080  -17.7245  -14.7583 C   0  0  0  0  0  0  0  0  0  0  0  0
   21.8765  -18.1049  -13.4159 C   0  0  2  0  0  0  0  0  0  0  0  0
   22.3753  -19.4803  -13.1963 N   0  0  0  0  0  0  0  0  0  0  0  0
   20.4246  -18.1499  -13.3578 C   0  0  0  0  0  0  0  0  0  0  0  0
   19.7564  -19.2980  -13.7987 O   0  0  0  0  0  0  0  0  0  0  0  0
   19.6992  -17.2242  -12.9373 O   0  0  0  0  0  0  0  0  0  0  0  0
  2  1  1  6
  3  4  1  0
  3  2  1  0
  4 12  1  0
  4  5  2  0
  5  6  1  0
  7  8  2  0
  7  6  1  0
  9  8  1  0
 10  9  2  0
 11 10  1  0
 11 12  2  0
 12  7  1  0
 13  2  1  0
 14 13  2  0
 15 13  1  0
 16 15  1  0
 16 17  1  1
 18 19  2  0
 18 17  1  0
 20 16  1  0
 21 20  2  0
 22 18  1  0
 23 24  1  0
 24 26  1  0
 25 24  2  0
 27 26  1  0
 28 27  1  6
 28 29  1  0
 29 20  1  0
 30 28  1  0
 30 31  1  0
 32 30  2  0
M  END
$$$$
