WDQ.pdb
     RDKit          3D

 32 33  0  0  1  0  0  0  0  0999 V2000
   28.0022  -20.9189  -15.8030 N   0  0  0  0  0  0  0  0  0  0  0  0
   27.1232  -20.3191  -14.8264 C   0  0  1  0  0  0  0  0  0  0  0  0
   25.9807  -19.6371  -15.5437 C   0  0  0  0  0  0  0  0  0  0  0  0
   26.3858  -18.4786  -16.3463 C   0  0  0  0  0  0  0  0  0  0  0  0
   26.4636  -18.4343  -17.7216 C   0  0  0  0  0  0  0  0  0  0  0  0
   26.8698  -17.1890  -18.0977 N   0  0  0  0  0  0  0  0  0  0  0  0
   27.0515  -16.4463  -17.0205 C   0  0  0  0  0  0  0  0  0  0  0  0
   27.4543  -15.1385  -16.8296 C   0  0  0  0  0  0  0  0  0  0  0  0
   27.5546  -14.6374  -15.5515 C   0  0  0  0  0  0  0  0  0  0  0  0
   27.2624  -15.4020  -14.4179 C   0  0  0  0  0  0  0  0  0  0  0  0
   26.8620  -16.7048  -14.6291 C   0  0  0  0  0  0  0  0  0  0  0  0
   26.7571  -17.2234  -15.9111 C   0  0  0  0  0  0  0  0  0  0  0  0
   26.5208  -21.3854  -13.9773 C   0  0  0  0  0  0  0  0  0  0  0  0
   26.1377  -22.4639  -14.4882 O   0  0  0  0  0  0  0  0  0  0  0  0
   26.3403  -21.2533  -12.5607 N   0  0  0  0  0  0  0  0  0  0  0  0
   25.1242  -21.5182  -11.8786 C   0  0  1  0  0  0  0  0  0  0  0  0
   25.1496  -21.5254  -10.3953 C   0  0  0  0  0  0  0  0  0  0  0  0
   26.3193  -20.8214   -9.7977 C   0  0  0  0  0  0  0  0  0  0  0  0
   27.3269  -20.5782  -10.4674 O   0  0  0  0  0  0  0  0  0  0  0  0
   24.0249  -20.5857  -12.3166 C   0  0  0  0  0  0  0  0  0  0  0  0
   24.2487  -19.5217  -12.9141 O   0  0  0  0  0  0  0  0  0  0  0  0
   26.3004  -20.4089   -8.4394 O   0  0  0  0  0  0  0  0  0  0  0  0
   22.7880  -20.7704  -16.8412 N   0  0  0  0  0  0  0  0  0  0  0  0
   21.4137  -21.0813  -16.5812 C   0  0  0  0  0  0  0  0  0  0  0  0
   20.5599  -20.9358  -17.4931 O   0  0  0  0  0  0  0  0  0  0  0  0
   20.9722  -21.5737  -15.2797 C   0  0  0  0  0  0  0  0  0  0  0  0
   21.9323  -21.5483  -14.1645 C   0  0  0  0  0  0  0  0  0  0  0  0
   21.5751  -20.7491  -12.9550 C   0  0  2  0  0  0  0  0  0  0  0  0
   22.6989  -20.9716  -12.0190 N   0  0  0  0  0  0  0  0  0  0  0  0
   20.3601  -21.2021  -12.2979 C   0  0  0  0  0  0  0  0  0  0  0  0
   19.2406  -20.3623  -12.2728 O   0  0  0  0  0  0  0  0  0  0  0  0
   20.2244  -22.3087  -11.7349 O   0  0  0  0  0  0  0  0  0  0  0  0
  2  1  1  6
  3  4  1  0
  3  2  1  0
  4 12  1  0
  4  5  2  0
  5  6  1  0
  7  8  2  0
  7  6  1  0
  9  8  1  0
 10  9  2  0
 11 10  1  0
 11 12  2  0
 12  7  1  0
 13  2  1  0
 14 13  2  0
 15 13  1  0
 16 15  1  0
 16 17  1  1
 18 19  2  0
 18 17  1  0
 20 16  1  0
 21 20  2  0
 22 18  1  0
 23 24  1  0
 24 26  1  0
 25 24  2  0
 27 26  1  0
 28 27  1  6
 28 29  1  0
 29 20  1  0
 30 28  1  0
 30 31  1  0
 32 30  2  0
M  END
$$$$
