WDQ.pdb
     RDKit          3D

 32 33  0  0  1  0  0  0  0  0999 V2000
   26.3819  -10.9453  -18.9346 N   0  0  0  0  0  0  0  0  0  0  0  0
   26.0176  -10.7221  -17.5549 C   0  0  1  0  0  0  0  0  0  0  0  0
   26.9348   -9.6753  -16.9654 C   0  0  0  0  0  0  0  0  0  0  0  0
   28.3495  -10.0610  -16.9498 C   0  0  0  0  0  0  0  0  0  0  0  0
   29.4195   -9.2223  -17.1757 C   0  0  0  0  0  0  0  0  0  0  0  0
   30.5712   -9.9432  -17.0709 N   0  0  0  0  0  0  0  0  0  0  0  0
   30.2747  -11.1991  -16.7890 C   0  0  0  0  0  0  0  0  0  0  0  0
   31.0422  -12.3295  -16.5833 C   0  0  0  0  0  0  0  0  0  0  0  0
   30.4263  -13.5281  -16.3032 C   0  0  0  0  0  0  0  0  0  0  0  0
   29.0370  -13.6581  -16.2146 C   0  0  0  0  0  0  0  0  0  0  0  0
   28.2882  -12.5188  -16.4229 C   0  0  0  0  0  0  0  0  0  0  0  0
   28.8951  -11.3044  -16.7067 C   0  0  0  0  0  0  0  0  0  0  0  0
   24.6357  -10.1679  -17.4883 C   0  0  0  0  0  0  0  0  0  0  0  0
   24.2244   -9.3785  -18.3707 O   0  0  0  0  0  0  0  0  0  0  0  0
   23.7109  -10.4874  -16.4397 N   0  0  0  0  0  0  0  0  0  0  0  0
   22.3749  -10.0125  -16.3759 C   0  0  1  0  0  0  0  0  0  0  0  0
   21.3978  -10.7986  -15.5833 C   0  0  0  0  0  0  0  0  0  0  0  0
   21.2220  -12.2046  -16.0451 C   0  0  0  0  0  0  0  0  0  0  0  0
   21.1561  -12.4771  -17.2470 O   0  0  0  0  0  0  0  0  0  0  0  0
   22.3130   -8.5846  -15.8995 C   0  0  0  0  0  0  0  0  0  0  0  0
   23.1063   -8.1229  -15.0648 O   0  0  0  0  0  0  0  0  0  0  0  0
   21.1296  -13.2685  -15.1096 O   0  0  0  0  0  0  0  0  0  0  0  0
   21.6465   -4.2286  -19.9799 N   0  0  0  0  0  0  0  0  0  0  0  0
   21.2746   -3.5140  -18.7949 C   0  0  0  0  0  0  0  0  0  0  0  0
   21.0564   -2.2771  -18.8574 O   0  0  0  0  0  0  0  0  0  0  0  0
   21.1328   -4.1866  -17.5070 C   0  0  0  0  0  0  0  0  0  0  0  0
   21.2627   -5.6523  -17.4699 C   0  0  0  0  0  0  0  0  0  0  0  0
   21.1836   -6.3258  -16.1398 C   0  0  2  0  0  0  0  0  0  0  0  0
   21.2988   -7.7682  -16.4477 N   0  0  0  0  0  0  0  0  0  0  0  0
   19.9147   -6.1218  -15.4603 C   0  0  0  0  0  0  0  0  0  0  0  0
   19.7356   -4.9796  -14.6714 O   0  0  0  0  0  0  0  0  0  0  0  0
   18.9411   -6.9019  -15.5196 O   0  0  0  0  0  0  0  0  0  0  0  0
  2  1  1  6
  3  4  1  0
  3  2  1  0
  4 12  1  0
  4  5  2  0
  5  6  1  0
  7  8  2  0
  7  6  1  0
  9  8  1  0
 10  9  2  0
 11 10  1  0
 11 12  2  0
 12  7  1  0
 13  2  1  0
 14 13  2  0
 15 13  1  0
 16 15  1  0
 16 17  1  1
 18 19  2  0
 18 17  1  0
 20 16  1  0
 21 20  2  0
 22 18  1  0
 23 24  1  0
 24 26  1  0
 25 24  2  0
 27 26  1  0
 28 27  1  6
 28 29  1  0
 29 20  1  0
 30 28  1  0
 30 31  1  0
 32 30  2  0
M  END
$$$$
