WDQ.pdb
     RDKit          3D

 32 33  0  0  1  0  0  0  0  0999 V2000
   23.8234  -20.5837  -10.1336 N   0  0  0  0  0  0  0  0  0  0  0  0
   24.8113  -20.2186  -11.1220 C   0  0  1  0  0  0  0  0  0  0  0  0
   26.0019  -21.1409  -10.9937 C   0  0  0  0  0  0  0  0  0  0  0  0
   26.8353  -20.8803   -9.8156 C   0  0  0  0  0  0  0  0  0  0  0  0
   26.4003  -20.3598   -8.6158 C   0  0  0  0  0  0  0  0  0  0  0  0
   27.4621  -20.2703   -7.7662 N   0  0  0  0  0  0  0  0  0  0  0  0
   28.5471  -20.7112   -8.3772 C   0  0  0  0  0  0  0  0  0  0  0  0
   29.8671  -20.8365   -7.9887 C   0  0  0  0  0  0  0  0  0  0  0  0
   30.7920  -21.3404   -8.8749 C   0  0  0  0  0  0  0  0  0  0  0  0
   30.4531  -21.7389  -10.1715 C   0  0  0  0  0  0  0  0  0  0  0  0
   29.1309  -21.6061  -10.5406 C   0  0  0  0  0  0  0  0  0  0  0  0
   28.1881  -21.0994   -9.6585 C   0  0  0  0  0  0  0  0  0  0  0  0
   24.2513  -20.4288  -12.4870 C   0  0  0  0  0  0  0  0  0  0  0  0
   23.5223  -21.4191  -12.7292 O   0  0  0  0  0  0  0  0  0  0  0  0
   24.5033  -19.5410  -13.5848 N   0  0  0  0  0  0  0  0  0  0  0  0
   23.8725  -19.6336  -14.8528 C   0  0  1  0  0  0  0  0  0  0  0  0
   24.0084  -18.4831  -15.7795 C   0  0  0  0  0  0  0  0  0  0  0  0
   22.8526  -18.2978  -16.7019 C   0  0  0  0  0  0  0  0  0  0  0  0
   23.0009  -17.7840  -17.8141 O   0  0  0  0  0  0  0  0  0  0  0  0
   24.2923  -20.8758  -15.5948 C   0  0  0  0  0  0  0  0  0  0  0  0
   25.4214  -21.3762  -15.4766 O   0  0  0  0  0  0  0  0  0  0  0  0
   21.5490  -18.7128  -16.3226 O   0  0  0  0  0  0  0  0  0  0  0  0
   22.5251  -26.2701  -13.4276 N   0  0  0  0  0  0  0  0  0  0  0  0
   23.0930  -25.8047  -14.6581 C   0  0  0  0  0  0  0  0  0  0  0  0
   22.8962  -26.4525  -15.7180 O   0  0  0  0  0  0  0  0  0  0  0  0
   23.8943  -24.5860  -14.7200 C   0  0  0  0  0  0  0  0  0  0  0  0
   23.2070  -23.3157  -15.0035 C   0  0  0  0  0  0  0  0  0  0  0  0
   23.0403  -22.9170  -16.4326 C   0  0  2  0  0  0  0  0  0  0  0  0
   23.3356  -21.4674  -16.4494 N   0  0  0  0  0  0  0  0  0  0  0  0
   21.6864  -23.0951  -16.9309 C   0  0  0  0  0  0  0  0  0  0  0  0
   20.7010  -22.1627  -16.5862 O   0  0  0  0  0  0  0  0  0  0  0  0
   21.3138  -24.0375  -17.6610 O   0  0  0  0  0  0  0  0  0  0  0  0
  2  1  1  1
  3  4  1  0
  3  2  1  0
  4 12  1  0
  4  5  2  0
  5  6  1  0
  7  8  2  0
  7  6  1  0
  9  8  1  0
 10  9  2  0
 11 10  1  0
 11 12  2  0
 12  7  1  0
 13  2  1  0
 14 13  2  0
 15 13  1  0
 16 15  1  0
 16 17  1  6
 18 19  2  0
 18 17  1  0
 20 16  1  0
 21 20  2  0
 22 18  1  0
 23 24  1  0
 24 26  1  0
 25 24  2  0
 27 26  1  0
 28 27  1  1
 28 29  1  0
 29 20  1  0
 30 28  1  0
 30 31  1  0
 32 30  2  0
M  END
$$$$
