WDQ.pdb
     RDKit          3D

 32 33  0  0  1  0  0  0  0  0999 V2000
   25.7436  -17.3136  -17.6201 N   0  0  0  0  0  0  0  0  0  0  0  0
   25.7055  -17.1820  -16.1822 C   0  0  1  0  0  0  0  0  0  0  0  0
   24.7421  -16.0772  -15.8131 C   0  0  0  0  0  0  0  0  0  0  0  0
   25.1434  -14.7502  -16.2913 C   0  0  0  0  0  0  0  0  0  0  0  0
   24.4029  -13.9283  -17.1133 C   0  0  0  0  0  0  0  0  0  0  0  0
   25.1037  -12.7800  -17.3312 N   0  0  0  0  0  0  0  0  0  0  0  0
   26.2530  -12.8416  -16.6831 C   0  0  0  0  0  0  0  0  0  0  0  0
   27.3203  -11.9722  -16.5644 C   0  0  0  0  0  0  0  0  0  0  0  0
   28.4076  -12.3304  -15.8001 C   0  0  0  0  0  0  0  0  0  0  0  0
   28.4841  -13.5530  -15.1260 C   0  0  0  0  0  0  0  0  0  0  0  0
   27.4091  -14.4071  -15.2567 C   0  0  0  0  0  0  0  0  0  0  0  0
   26.3072  -14.0598  -16.0240 C   0  0  0  0  0  0  0  0  0  0  0  0
   25.1699  -18.4363  -15.5814 C   0  0  0  0  0  0  0  0  0  0  0  0
   24.5980  -19.2905  -16.2985 O   0  0  0  0  0  0  0  0  0  0  0  0
   25.2662  -18.7412  -14.1834 N   0  0  0  0  0  0  0  0  0  0  0  0
   24.8570  -19.9685  -13.5997 C   0  0  1  0  0  0  0  0  0  0  0  0
   25.5225  -20.3939  -12.3439 C   0  0  0  0  0  0  0  0  0  0  0  0
   25.3154  -21.8278  -11.9945 C   0  0  0  0  0  0  0  0  0  0  0  0
   25.8027  -22.3105  -10.9685 O   0  0  0  0  0  0  0  0  0  0  0  0
   23.3687  -20.0072  -13.3692 C   0  0  0  0  0  0  0  0  0  0  0  0
   22.7744  -19.1554  -12.6905 O   0  0  0  0  0  0  0  0  0  0  0  0
   24.5465  -22.6748  -12.8352 O   0  0  0  0  0  0  0  0  0  0  0  0
   19.8546  -24.2247  -11.9754 N   0  0  0  0  0  0  0  0  0  0  0  0
   19.0959  -23.0452  -11.6816 C   0  0  0  0  0  0  0  0  0  0  0  0
   17.9013  -23.1524  -11.3034 O   0  0  0  0  0  0  0  0  0  0  0  0
   19.6758  -21.7109  -11.8023 C   0  0  0  0  0  0  0  0  0  0  0  0
   21.0418  -21.5923  -12.3375 C   0  0  0  0  0  0  0  0  0  0  0  0
   21.1972  -21.2518  -13.7829 C   0  0  2  0  0  0  0  0  0  0  0  0
   22.6539  -21.0696  -13.9658 N   0  0  0  0  0  0  0  0  0  0  0  0
   20.5482  -20.0065  -14.1590 C   0  0  0  0  0  0  0  0  0  0  0  0
   19.1506  -19.9502  -14.2099 O   0  0  0  0  0  0  0  0  0  0  0  0
   21.1477  -18.9505  -14.4513 O   0  0  0  0  0  0  0  0  0  0  0  0
  2  1  1  6
  3  4  1  0
  3  2  1  0
  4 12  1  0
  4  5  2  0
  5  6  1  0
  7  8  2  0
  7  6  1  0
  9  8  1  0
 10  9  2  0
 11 10  1  0
 11 12  2  0
 12  7  1  0
 13  2  1  0
 14 13  2  0
 15 13  1  0
 16 15  1  0
 16 17  1  1
 18 19  2  0
 18 17  1  0
 20 16  1  0
 21 20  2  0
 22 18  1  0
 23 24  1  0
 24 26  1  0
 25 24  2  0
 27 26  1  0
 28 27  1  1
 28 29  1  0
 29 20  1  0
 30 28  1  0
 30 31  1  0
 32 30  2  0
M  END
$$$$
