WDQ.pdb
     RDKit          3D

 32 33  0  0  1  0  0  0  0  0999 V2000
   26.5821  -22.5748  -12.8703 N   0  0  0  0  0  0  0  0  0  0  0  0
   25.7226  -21.7110  -12.0949 C   0  0  1  0  0  0  0  0  0  0  0  0
   26.4492  -20.4160  -11.8128 C   0  0  0  0  0  0  0  0  0  0  0  0
   27.5766  -20.5533  -10.8852 C   0  0  0  0  0  0  0  0  0  0  0  0
   28.8742  -20.8652  -11.2292 C   0  0  0  0  0  0  0  0  0  0  0  0
   29.6325  -20.8956  -10.0973 N   0  0  0  0  0  0  0  0  0  0  0  0
   28.8705  -20.6168   -9.0550 C   0  0  0  0  0  0  0  0  0  0  0  0
   29.1201  -20.5183   -7.6996 C   0  0  0  0  0  0  0  0  0  0  0  0
   28.0914  -20.2074   -6.8395 C   0  0  0  0  0  0  0  0  0  0  0  0
   26.7837  -19.9820   -7.2801 C   0  0  0  0  0  0  0  0  0  0  0  0
   26.5547  -20.0848   -8.6362 C   0  0  0  0  0  0  0  0  0  0  0  0
   27.5813  -20.3980   -9.5145 C   0  0  0  0  0  0  0  0  0  0  0  0
   24.5159  -21.3600  -12.8960 C   0  0  0  0  0  0  0  0  0  0  0  0
   24.6210  -21.0773  -14.1125 O   0  0  0  0  0  0  0  0  0  0  0  0
   23.1922  -21.3193  -12.3457 N   0  0  0  0  0  0  0  0  0  0  0  0
   22.0246  -21.0002  -13.0868 C   0  0  1  0  0  0  0  0  0  0  0  0
   20.7099  -21.3312  -12.4842 C   0  0  0  0  0  0  0  0  0  0  0  0
   20.5021  -20.7721  -11.1185 C   0  0  0  0  0  0  0  0  0  0  0  0
   20.0926  -19.6190  -10.9575 O   0  0  0  0  0  0  0  0  0  0  0  0
   21.9969  -19.5474  -13.4850 C   0  0  0  0  0  0  0  0  0  0  0  0
   22.3594  -18.6379  -12.7230 O   0  0  0  0  0  0  0  0  0  0  0  0
   20.7679  -21.5571   -9.9659 O   0  0  0  0  0  0  0  0  0  0  0  0
   25.8214  -18.0881  -15.4230 N   0  0  0  0  0  0  0  0  0  0  0  0
   25.0621  -18.5642  -16.5410 C   0  0  0  0  0  0  0  0  0  0  0  0
   25.6264  -19.2563  -17.4265 O   0  0  0  0  0  0  0  0  0  0  0  0
   23.6383  -18.2734  -16.6802 C   0  0  0  0  0  0  0  0  0  0  0  0
   22.9638  -17.5603  -15.5833 C   0  0  0  0  0  0  0  0  0  0  0  0
   21.5256  -17.8712  -15.3300 C   0  0  2  0  0  0  0  0  0  0  0  0
   21.5346  -19.2468  -14.7856 N   0  0  0  0  0  0  0  0  0  0  0  0
   20.7128  -17.8813  -16.5352 C   0  0  0  0  0  0  0  0  0  0  0  0
   20.1158  -19.0776  -16.9493 O   0  0  0  0  0  0  0  0  0  0  0  0
   20.4954  -16.8850  -17.2565 O   0  0  0  0  0  0  0  0  0  0  0  0
  2  1  1  6
  3  4  1  0
  3  2  1  0
  4 12  1  0
  4  5  2  0
  5  6  1  0
  7  8  2  0
  7  6  1  0
  9  8  1  0
 10  9  2  0
 11 10  1  0
 11 12  2  0
 12  7  1  0
 13  2  1  0
 14 13  2  0
 15 13  1  0
 16 15  1  0
 16 17  1  1
 18 19  2  0
 18 17  1  0
 20 16  1  0
 21 20  2  0
 22 18  1  0
 23 24  1  0
 24 26  1  0
 25 24  2  0
 27 26  1  0
 28 27  1  6
 28 29  1  0
 29 20  1  0
 30 28  1  0
 30 31  1  0
 32 30  2  0
M  END
$$$$
