WDQ.pdb
     RDKit          3D

 32 33  0  0  1  0  0  0  0  0999 V2000
   27.8212  -21.3548  -13.2368 N   0  0  0  0  0  0  0  0  0  0  0  0
   26.7160  -21.6627  -12.3593 C   0  0  1  0  0  0  0  0  0  0  0  0
   26.7150  -20.6862  -11.2055 C   0  0  0  0  0  0  0  0  0  0  0  0
   27.8814  -20.8018  -10.3242 C   0  0  0  0  0  0  0  0  0  0  0  0
   29.1806  -21.0245  -10.7264 C   0  0  0  0  0  0  0  0  0  0  0  0
   29.9803  -21.0634   -9.6236 N   0  0  0  0  0  0  0  0  0  0  0  0
   29.2428  -20.8750   -8.5441 C   0  0  0  0  0  0  0  0  0  0  0  0
   29.5359  -20.8239   -7.1948 C   0  0  0  0  0  0  0  0  0  0  0  0
   28.5239  -20.6104   -6.2865 C   0  0  0  0  0  0  0  0  0  0  0  0
   27.1906  -20.4391   -6.6713 C   0  0  0  0  0  0  0  0  0  0  0  0
   26.9182  -20.4933   -8.0222 C   0  0  0  0  0  0  0  0  0  0  0  0
   27.9276  -20.7084   -8.9487 C   0  0  0  0  0  0  0  0  0  0  0  0
   25.4313  -21.4657  -13.0887 C   0  0  0  0  0  0  0  0  0  0  0  0
   25.3190  -20.5560  -13.9435 O   0  0  0  0  0  0  0  0  0  0  0  0
   24.2696  -22.2768  -12.8667 N   0  0  0  0  0  0  0  0  0  0  0  0
   23.0734  -22.1900  -13.6257 C   0  0  1  0  0  0  0  0  0  0  0  0
   22.2415  -23.4121  -13.7492 C   0  0  0  0  0  0  0  0  0  0  0  0
   21.0497  -23.2572  -14.6305 C   0  0  0  0  0  0  0  0  0  0  0  0
   21.1535  -22.7833  -15.7653 O   0  0  0  0  0  0  0  0  0  0  0  0
   22.1851  -21.0742  -13.1404 C   0  0  0  0  0  0  0  0  0  0  0  0
   21.9152  -20.9075  -11.9409 O   0  0  0  0  0  0  0  0  0  0  0  0
   19.7621  -23.6561  -14.1849 O   0  0  0  0  0  0  0  0  0  0  0  0
   22.2090  -16.0947  -15.4532 N   0  0  0  0  0  0  0  0  0  0  0  0
   20.8126  -15.9209  -15.1828 C   0  0  0  0  0  0  0  0  0  0  0  0
   20.3466  -14.7618  -15.0388 O   0  0  0  0  0  0  0  0  0  0  0  0
   19.9051  -17.0595  -15.0759 C   0  0  0  0  0  0  0  0  0  0  0  0
   20.4831  -18.4131  -15.0902 C   0  0  0  0  0  0  0  0  0  0  0  0
   20.7874  -19.0551  -13.7769 C   0  0  2  0  0  0  0  0  0  0  0  0
   21.6571  -20.2021  -14.1183 N   0  0  0  0  0  0  0  0  0  0  0  0
   19.6123  -19.5807  -13.1016 C   0  0  0  0  0  0  0  0  0  0  0  0
   18.9537  -20.6932  -13.6381 O   0  0  0  0  0  0  0  0  0  0  0  0
   19.1231  -19.1106  -12.0529 O   0  0  0  0  0  0  0  0  0  0  0  0
  2  1  1  6
  3  4  1  0
  3  2  1  0
  4 12  1  0
  4  5  2  0
  5  6  1  0
  7  8  2  0
  7  6  1  0
  9  8  1  0
 10  9  2  0
 11 10  1  0
 11 12  2  0
 12  7  1  0
 13  2  1  0
 14 13  2  0
 15 13  1  0
 16 15  1  0
 16 17  1  1
 18 19  2  0
 18 17  1  0
 20 16  1  0
 21 20  2  0
 22 18  1  0
 23 24  1  0
 24 26  1  0
 25 24  2  0
 27 26  1  0
 28 27  1  6
 28 29  1  0
 29 20  1  0
 30 28  1  0
 30 31  1  0
 32 30  2  0
M  END
$$$$
