WDQ.pdb
     RDKit          3D

 32 33  0  0  1  0  0  0  0  0999 V2000
   27.3757  -18.4235   -9.2684 N   0  0  0  0  0  0  0  0  0  0  0  0
   27.1945  -19.8564   -9.2733 C   0  0  1  0  0  0  0  0  0  0  0  0
   26.5330  -20.2746   -7.9802 C   0  0  0  0  0  0  0  0  0  0  0  0
   27.1856  -19.7472   -6.7775 C   0  0  0  0  0  0  0  0  0  0  0  0
   26.7590  -18.6692   -6.0322 C   0  0  0  0  0  0  0  0  0  0  0  0
   27.6188  -18.4890   -4.9904 N   0  0  0  0  0  0  0  0  0  0  0  0
   28.5684  -19.4055   -5.0458 C   0  0  0  0  0  0  0  0  0  0  0  0
   29.6706  -19.6752   -4.2575 C   0  0  0  0  0  0  0  0  0  0  0  0
   30.4988  -20.7254   -4.5826 C   0  0  0  0  0  0  0  0  0  0  0  0
   30.2733  -21.5468   -5.6914 C   0  0  0  0  0  0  0  0  0  0  0  0
   29.1682  -21.2617   -6.4658 C   0  0  0  0  0  0  0  0  0  0  0  0
   28.3253  -20.2064   -6.1507 C   0  0  0  0  0  0  0  0  0  0  0  0
   26.2641  -20.2369  -10.3736 C   0  0  0  0  0  0  0  0  0  0  0  0
   25.1456  -19.6815  -10.4805 O   0  0  0  0  0  0  0  0  0  0  0  0
   26.5738  -21.2370  -11.3537 N   0  0  0  0  0  0  0  0  0  0  0  0
   26.0013  -21.2933  -12.6512 C   0  0  1  0  0  0  0  0  0  0  0  0
   26.7674  -21.9853  -13.7166 C   0  0  0  0  0  0  0  0  0  0  0  0
   26.1238  -21.9458  -15.0602 C   0  0  0  0  0  0  0  0  0  0  0  0
   25.0496  -21.3641  -15.2353 O   0  0  0  0  0  0  0  0  0  0  0  0
   24.6147  -21.8817  -12.6236 C   0  0  0  0  0  0  0  0  0  0  0  0
   24.4016  -23.0813  -12.3890 O   0  0  0  0  0  0  0  0  0  0  0  0
   26.7355  -22.5759  -16.1756 O   0  0  0  0  0  0  0  0  0  0  0  0
   19.7945  -17.6857  -12.7354 N   0  0  0  0  0  0  0  0  0  0  0  0
   19.1451  -18.9545  -12.5883 C   0  0  0  0  0  0  0  0  0  0  0  0
   17.8938  -19.0029  -12.4726 O   0  0  0  0  0  0  0  0  0  0  0  0
   19.8991  -20.2046  -12.5761 C   0  0  0  0  0  0  0  0  0  0  0  0
   21.3668  -20.1322  -12.6586 C   0  0  0  0  0  0  0  0  0  0  0  0
   22.1242  -21.4157  -12.7492 C   0  0  2  0  0  0  0  0  0  0  0  0
   23.5388  -21.0025  -12.8787 N   0  0  0  0  0  0  0  0  0  0  0  0
   21.7886  -22.2062  -13.9221 C   0  0  0  0  0  0  0  0  0  0  0  0
   20.7564  -23.1481  -13.8413 O   0  0  0  0  0  0  0  0  0  0  0  0
   22.3597  -22.1166  -15.0293 O   0  0  0  0  0  0  0  0  0  0  0  0
  2  1  1  1
  3  4  1  0
  3  2  1  0
  4 12  1  0
  4  5  2  0
  5  6  1  0
  7  8  2  0
  7  6  1  0
  9  8  1  0
 10  9  2  0
 11 10  1  0
 11 12  2  0
 12  7  1  0
 13  2  1  0
 14 13  2  0
 15 13  1  0
 16 15  1  0
 16 17  1  6
 18 19  2  0
 18 17  1  0
 20 16  1  0
 21 20  2  0
 22 18  1  0
 23 24  1  0
 24 26  1  0
 25 24  2  0
 27 26  1  0
 28 27  1  6
 28 29  1  0
 29 20  1  0
 30 28  1  0
 30 31  1  0
 32 30  2  0
M  END
$$$$
