WDQ.pdb
     RDKit          3D

 32 33  0  0  1  0  0  0  0  0999 V2000
   25.6942  -11.5845  -18.9555 N   0  0  0  0  0  0  0  0  0  0  0  0
   25.3493  -11.3103  -17.5800 C   0  0  1  0  0  0  0  0  0  0  0  0
   26.2266  -10.1925  -17.0646 C   0  0  0  0  0  0  0  0  0  0  0  0
   27.6638  -10.4635  -17.1716 C   0  0  0  0  0  0  0  0  0  0  0  0
   28.6235   -9.5782  -17.6130 C   0  0  0  0  0  0  0  0  0  0  0  0
   29.8401  -10.1903  -17.5639 N   0  0  0  0  0  0  0  0  0  0  0  0
   29.6899  -11.4221  -17.1112 C   0  0  0  0  0  0  0  0  0  0  0  0
   30.5738  -12.4568  -16.8720 C   0  0  0  0  0  0  0  0  0  0  0  0
   30.1020  -13.6567  -16.3901 C   0  0  0  0  0  0  0  0  0  0  0  0
   28.7475  -13.8817  -16.1259 C   0  0  0  0  0  0  0  0  0  0  0  0
   27.8811  -12.8370  -16.3708 C   0  0  0  0  0  0  0  0  0  0  0  0
   28.3422  -11.6227  -16.8570 C   0  0  0  0  0  0  0  0  0  0  0  0
   23.9436  -10.8203  -17.5073 C   0  0  0  0  0  0  0  0  0  0  0  0
   23.3995  -10.2998  -18.5093 O   0  0  0  0  0  0  0  0  0  0  0  0
   23.1426  -10.9050  -16.3208 N   0  0  0  0  0  0  0  0  0  0  0  0
   21.7865  -10.4947  -16.2372 C   0  0  1  0  0  0  0  0  0  0  0  0
   20.7797  -11.5085  -15.8378 C   0  0  0  0  0  0  0  0  0  0  0  0
   19.3702  -11.0272  -15.8882 C   0  0  0  0  0  0  0  0  0  0  0  0
   18.6137  -11.3652  -16.8029 O   0  0  0  0  0  0  0  0  0  0  0  0
   21.6203   -9.2993  -15.3355 C   0  0  0  0  0  0  0  0  0  0  0  0
   22.2660   -9.1585  -14.2855 O   0  0  0  0  0  0  0  0  0  0  0  0
   18.8613  -10.1680  -14.8792 O   0  0  0  0  0  0  0  0  0  0  0  0
   22.3249   -5.4315  -12.8996 N   0  0  0  0  0  0  0  0  0  0  0  0
   22.4191   -4.5154  -13.9974 C   0  0  0  0  0  0  0  0  0  0  0  0
   22.6357   -3.2970  -13.7738 O   0  0  0  0  0  0  0  0  0  0  0  0
   22.2771   -4.9597  -15.3808 C   0  0  0  0  0  0  0  0  0  0  0  0
   22.0166   -6.3869  -15.6295 C   0  0  0  0  0  0  0  0  0  0  0  0
   20.6979   -6.9400  -15.2002 C   0  0  2  0  0  0  0  0  0  0  0  0
   20.6837   -8.3197  -15.7339 N   0  0  0  0  0  0  0  0  0  0  0  0
   19.5602   -6.2370  -15.7701 C   0  0  0  0  0  0  0  0  0  0  0  0
   19.0166   -5.1441  -15.0851 O   0  0  0  0  0  0  0  0  0  0  0  0
   19.0075   -6.5333  -16.8503 O   0  0  0  0  0  0  0  0  0  0  0  0
  2  1  1  6
  3  4  1  0
  3  2  1  0
  4 12  1  0
  4  5  2  0
  5  6  1  0
  7  8  2  0
  7  6  1  0
  9  8  1  0
 10  9  2  0
 11 10  1  0
 11 12  2  0
 12  7  1  0
 13  2  1  0
 14 13  2  0
 15 13  1  0
 16 15  1  0
 16 17  1  1
 18 19  2  0
 18 17  1  0
 20 16  1  0
 21 20  2  0
 22 18  1  0
 23 24  1  0
 24 26  1  0
 25 24  2  0
 27 26  1  0
 28 27  1  6
 28 29  1  0
 29 20  1  0
 30 28  1  0
 30 31  1  0
 32 30  2  0
M  END
$$$$
