EEC.pdb
     RDKit          3D

 25 24  0  0  1  0  0  0  0  0999 V2000
   11.9111  -17.4048   19.9400 N   0  0  0  0  0  0  0  0  0  0  0  0
   11.9836  -17.6016   21.3466 C   0  0  1  0  0  0  0  0  0  0  0  0
   13.3263  -17.4203   21.9596 C   0  0  0  0  0  0  0  0  0  0  0  0
   14.0432  -16.2451   21.4069 C   0  0  0  0  0  0  0  0  0  0  0  0
   15.4037  -16.1426   21.9481 C   0  0  0  0  0  0  0  0  0  0  0  0
   15.8898  -15.1250   22.4658 O   0  0  0  0  0  0  0  0  0  0  0  0
   10.9549  -16.7282   22.0083 C   0  0  0  0  0  0  0  0  0  0  0  0
   10.6874  -15.5931   21.5612 O   0  0  0  0  0  0  0  0  0  0  0  0
   16.2234  -17.2722   21.8805 O   0  0  0  0  0  0  0  0  0  0  0  0
   10.2796  -17.2003   23.1555 N   0  0  0  0  0  0  0  0  0  0  0  0
    9.1602  -16.5003   23.7589 C   0  0  1  0  0  0  0  0  0  0  0  0
    8.0008  -17.4313   24.0388 C   0  0  0  0  0  0  0  0  0  0  0  0
    8.4559  -18.7927   24.4707 C   0  0  0  0  0  0  0  0  0  0  0  0
    7.2773  -19.6410   24.7251 C   0  0  0  0  0  0  0  0  0  0  0  0
    7.4112  -20.7304   25.3122 O   0  0  0  0  0  0  0  0  0  0  0  0
    9.6720  -15.9005   25.0299 C   0  0  0  0  0  0  0  0  0  0  0  0
   10.6468  -16.4592   25.5789 O   0  0  0  0  0  0  0  0  0  0  0  0
    6.0294  -19.2322   24.3152 O   0  0  0  0  0  0  0  0  0  0  0  0
    9.1149  -14.7564   25.6231 N   0  0  0  0  0  0  0  0  0  0  0  0
    9.5653  -14.2117   26.8789 C   0  0  1  0  0  0  0  0  0  0  0  0
    8.8571  -12.9003   27.1463 C   0  0  0  0  0  0  0  0  0  0  0  0
    7.0704  -13.1761   26.8811 S   0  0  0  0  0  0  0  0  0  0  0  0
    9.2621  -15.1128   28.0091 C   0  0  0  0  0  0  0  0  0  0  0  0
    9.7550  -14.8806   29.2668 O   0  0  0  0  0  0  0  0  0  0  0  0
    8.5319  -16.1149   27.7986 O   0  0  0  0  0  0  0  0  0  0  0  0
  2  1  1  6
  3  4  1  0
  3  2  1  0
  5  4  1  0
  5  6  2  0
  7  2  1  0
  7  8  2  0
  9  5  1  0
 10  7  1  0
 11 10  1  0
 11 16  1  0
 11 12  1  1
 13 12  1  0
 14 13  1  0
 14 15  2  0
 16 17  2  0
 18 14  1  0
 19 16  1  0
 19 20  1  0
 20 23  1  0
 20 21  1  1
 22 21  1  0
 23 25  2  0
 23 24  1  0
M  END
$$$$
