EEC.pdb
     RDKit          3D

 25 24  0  0  1  0  0  0  0  0999 V2000
    9.7313  -12.7632   20.0671 N   0  0  0  0  0  0  0  0  0  0  0  0
    8.4466  -13.3732   20.0658 C   0  0  1  0  0  0  0  0  0  0  0  0
    7.9229  -13.7823   18.7354 C   0  0  0  0  0  0  0  0  0  0  0  0
    8.9199  -14.5500   17.9500 C   0  0  0  0  0  0  0  0  0  0  0  0
    8.3613  -15.0048   16.6711 C   0  0  0  0  0  0  0  0  0  0  0  0
    7.2333  -14.7149   16.2429 O   0  0  0  0  0  0  0  0  0  0  0  0
    8.4608  -14.5268   21.0292 C   0  0  0  0  0  0  0  0  0  0  0  0
    7.4243  -15.1811   21.2687 O   0  0  0  0  0  0  0  0  0  0  0  0
    9.1525  -15.8279   15.8655 O   0  0  0  0  0  0  0  0  0  0  0  0
    9.6679  -14.8762   21.6741 N   0  0  0  0  0  0  0  0  0  0  0  0
    9.7648  -15.9535   22.6420 C   0  0  1  0  0  0  0  0  0  0  0  0
   10.7853  -16.9908   22.2273 C   0  0  0  0  0  0  0  0  0  0  0  0
   10.1454  -18.2367   21.6933 C   0  0  0  0  0  0  0  0  0  0  0  0
   11.1964  -19.1944   21.3041 C   0  0  0  0  0  0  0  0  0  0  0  0
   10.8829  -20.3107   20.8514 O   0  0  0  0  0  0  0  0  0  0  0  0
   10.1548  -15.3216   23.9404 C   0  0  0  0  0  0  0  0  0  0  0  0
   11.2435  -14.7076   23.9782 O   0  0  0  0  0  0  0  0  0  0  0  0
   12.5234  -18.8581   21.4400 O   0  0  0  0  0  0  0  0  0  0  0  0
    9.3645  -15.3866   25.0991 N   0  0  0  0  0  0  0  0  0  0  0  0
    9.7328  -14.7715   26.3490 C   0  0  1  0  0  0  0  0  0  0  0  0
    8.6112  -13.8705   26.8211 C   0  0  0  0  0  0  0  0  0  0  0  0
    9.1283  -13.1365   28.4125 S   0  0  0  0  0  0  0  0  0  0  0  0
    9.9653  -15.7746   27.4078 C   0  0  0  0  0  0  0  0  0  0  0  0
    9.6097  -17.0883   27.2449 O   0  0  0  0  0  0  0  0  0  0  0  0
   10.5040  -15.4009   28.4810 O   0  0  0  0  0  0  0  0  0  0  0  0
  2  1  1  6
  3  4  1  0
  3  2  1  0
  5  4  1  0
  5  6  2  0
  7  2  1  0
  7  8  2  0
  9  5  1  0
 10  7  1  0
 11 10  1  0
 11 16  1  0
 11 12  1  6
 13 12  1  0
 14 13  1  0
 14 15  2  0
 16 17  2  0
 18 14  1  0
 19 16  1  0
 19 20  1  0
 20 23  1  0
 20 21  1  1
 22 21  1  0
 23 25  2  0
 23 24  1  0
M  END
$$$$
