EEC.pdb
     RDKit          3D

 25 24  0  0  1  0  0  0  0  0999 V2000
    5.9935  -16.9473   20.2844 N   0  0  0  0  0  0  0  0  0  0  0  0
    7.3451  -16.7752   20.6922 C   0  0  1  0  0  0  0  0  0  0  0  0
    8.1259  -15.7572   19.9402 C   0  0  0  0  0  0  0  0  0  0  0  0
    7.6178  -14.3814   20.1623 C   0  0  0  0  0  0  0  0  0  0  0  0
    8.3177  -13.4073   19.3163 C   0  0  0  0  0  0  0  0  0  0  0  0
    8.6580  -12.2685   19.6728 O   0  0  0  0  0  0  0  0  0  0  0  0
    7.3709  -16.5058   22.1706 C   0  0  0  0  0  0  0  0  0  0  0  0
    6.4002  -15.9716   22.7469 O   0  0  0  0  0  0  0  0  0  0  0  0
    8.6300  -13.7809   18.0065 O   0  0  0  0  0  0  0  0  0  0  0  0
    8.5134  -16.8635   22.9202 N   0  0  0  0  0  0  0  0  0  0  0  0
    8.5194  -16.9296   24.3703 C   0  0  1  0  0  0  0  0  0  0  0  0
    9.6074  -17.8459   24.8859 C   0  0  0  0  0  0  0  0  0  0  0  0
    9.6841  -17.8518   26.3830 C   0  0  0  0  0  0  0  0  0  0  0  0
   10.7844  -18.7354   26.8098 C   0  0  0  0  0  0  0  0  0  0  0  0
   11.5464  -18.3796   27.7274 O   0  0  0  0  0  0  0  0  0  0  0  0
    8.7348  -15.5316   24.8565 C   0  0  0  0  0  0  0  0  0  0  0  0
    9.6713  -14.8811   24.3431 O   0  0  0  0  0  0  0  0  0  0  0  0
   10.9717  -19.9524   26.1964 O   0  0  0  0  0  0  0  0  0  0  0  0
    7.9441  -14.9282   25.8474 N   0  0  0  0  0  0  0  0  0  0  0  0
    8.2380  -13.6416   26.4259 C   0  0  1  0  0  0  0  0  0  0  0  0
    6.9500  -12.9741   26.8598 C   0  0  0  0  0  0  0  0  0  0  0  0
    5.8428  -12.9192   25.4073 S   0  0  0  0  0  0  0  0  0  0  0  0
    9.0958  -13.7600   27.6224 C   0  0  0  0  0  0  0  0  0  0  0  0
    9.5756  -12.6549   28.2760 O   0  0  0  0  0  0  0  0  0  0  0  0
    9.3859  -14.9097   28.0416 O   0  0  0  0  0  0  0  0  0  0  0  0
  2  1  1  6
  3  4  1  0
  3  2  1  0
  5  4  1  0
  5  6  2  0
  7  2  1  0
  7  8  2  0
  9  5  1  0
 10  7  1  0
 11 10  1  0
 11 16  1  0
 11 12  1  6
 13 12  1  0
 14 13  1  0
 14 15  2  0
 16 17  2  0
 18 14  1  0
 19 16  1  0
 19 20  1  0
 20 23  1  0
 20 21  1  1
 22 21  1  0
 23 25  2  0
 23 24  1  0
M  END
$$$$
