EEC.pdb
     RDKit          3D

 25 24  0  0  1  0  0  0  0  0999 V2000
    9.7018  -16.3889   20.2102 N   0  0  0  0  0  0  0  0  0  0  0  0
    8.4320  -15.7780   20.0176 C   0  0  1  0  0  0  0  0  0  0  0  0
    7.6096  -16.3254   18.9061 C   0  0  0  0  0  0  0  0  0  0  0  0
    7.9344  -17.7423   18.6108 C   0  0  0  0  0  0  0  0  0  0  0  0
    7.0844  -18.2761   17.5397 C   0  0  0  0  0  0  0  0  0  0  0  0
    7.3229  -18.1796   16.3258 O   0  0  0  0  0  0  0  0  0  0  0  0
    7.6829  -15.8045   21.3203 C   0  0  0  0  0  0  0  0  0  0  0  0
    6.5058  -15.3941   21.3969 O   0  0  0  0  0  0  0  0  0  0  0  0
    5.9140  -18.9469   17.9040 O   0  0  0  0  0  0  0  0  0  0  0  0
    8.3221  -16.3024   22.4772 N   0  0  0  0  0  0  0  0  0  0  0  0
    7.6762  -16.3587   23.7759 C   0  0  1  0  0  0  0  0  0  0  0  0
    7.8575  -17.7084   24.4352 C   0  0  0  0  0  0  0  0  0  0  0  0
    7.7790  -17.6266   25.9299 C   0  0  0  0  0  0  0  0  0  0  0  0
    8.0005  -18.9670   26.5023 C   0  0  0  0  0  0  0  0  0  0  0  0
    8.2761  -19.9236   25.7551 O   0  0  0  0  0  0  0  0  0  0  0  0
    8.2986  -15.2804   24.6049 C   0  0  0  0  0  0  0  0  0  0  0  0
    9.5382  -15.1360   24.5256 O   0  0  0  0  0  0  0  0  0  0  0  0
    7.9032  -19.1639   27.8603 O   0  0  0  0  0  0  0  0  0  0  0  0
    7.5636  -14.4374   25.4536 N   0  0  0  0  0  0  0  0  0  0  0  0
    8.1443  -13.3356   26.1783 C   0  0  1  0  0  0  0  0  0  0  0  0
    7.0857  -12.2844   26.4373 C   0  0  0  0  0  0  0  0  0  0  0  0
    5.6121  -13.1392   27.0981 S   0  0  0  0  0  0  0  0  0  0  0  0
    8.6732  -13.7588   27.4908 C   0  0  0  0  0  0  0  0  0  0  0  0
    8.5717  -15.0555   27.9232 O   0  0  0  0  0  0  0  0  0  0  0  0
    9.2284  -12.8978   28.2202 O   0  0  0  0  0  0  0  0  0  0  0  0
  2  1  1  1
  3  4  1  0
  3  2  1  0
  5  4  1  0
  5  6  2  0
  7  2  1  0
  7  8  2  0
  9  5  1  0
 10  7  1  0
 11 10  1  0
 11 16  1  0
 11 12  1  1
 13 12  1  0
 14 13  1  0
 14 15  2  0
 16 17  2  0
 18 14  1  0
 19 16  1  0
 19 20  1  0
 20 23  1  0
 20 21  1  1
 22 21  1  0
 23 25  2  0
 23 24  1  0
M  END
$$$$
