EEC.pdb
     RDKit          3D

 25 24  0  0  1  0  0  0  0  0999 V2000
    9.1524  -15.3815   20.2300 N   0  0  0  0  0  0  0  0  0  0  0  0
    8.0781  -16.0133   20.9151 C   0  0  1  0  0  0  0  0  0  0  0  0
    7.2731  -16.9744   20.1152 C   0  0  0  0  0  0  0  0  0  0  0  0
    8.1149  -17.8044   19.2192 C   0  0  0  0  0  0  0  0  0  0  0  0
    7.3079  -18.7769   18.4727 C   0  0  0  0  0  0  0  0  0  0  0  0
    7.7409  -19.5343   17.5903 O   0  0  0  0  0  0  0  0  0  0  0  0
    8.6143  -16.6525   22.1653 C   0  0  0  0  0  0  0  0  0  0  0  0
    7.8702  -17.3043   22.9277 O   0  0  0  0  0  0  0  0  0  0  0  0
    5.9456  -18.8652   18.7709 O   0  0  0  0  0  0  0  0  0  0  0  0
    9.9836  -16.5130   22.4823 N   0  0  0  0  0  0  0  0  0  0  0  0
   10.5892  -17.1143   23.6564 C   0  0  1  0  0  0  0  0  0  0  0  0
   11.9087  -17.7787   23.3298 C   0  0  0  0  0  0  0  0  0  0  0  0
   13.0433  -16.7999   23.2871 C   0  0  0  0  0  0  0  0  0  0  0  0
   14.2803  -17.5062   22.9072 C   0  0  0  0  0  0  0  0  0  0  0  0
   14.4342  -17.9041   21.7379 O   0  0  0  0  0  0  0  0  0  0  0  0
   10.7873  -16.0082   24.6436 C   0  0  0  0  0  0  0  0  0  0  0  0
   11.1383  -14.8939   24.1973 O   0  0  0  0  0  0  0  0  0  0  0  0
   15.2655  -17.7270   23.8416 O   0  0  0  0  0  0  0  0  0  0  0  0
   10.5990  -16.1639   26.0261 N   0  0  0  0  0  0  0  0  0  0  0  0
   10.4443  -15.0586   26.9376 C   0  0  1  0  0  0  0  0  0  0  0  0
    9.1841  -14.2918   26.5961 C   0  0  0  0  0  0  0  0  0  0  0  0
    9.0567  -12.8943   27.7664 S   0  0  0  0  0  0  0  0  0  0  0  0
   10.3155  -15.5140   28.3367 C   0  0  0  0  0  0  0  0  0  0  0  0
   10.6529  -14.7052   29.3906 O   0  0  0  0  0  0  0  0  0  0  0  0
    9.8840  -16.6754   28.5526 O   0  0  0  0  0  0  0  0  0  0  0  0
  2  1  1  6
  3  4  1  0
  3  2  1  0
  5  4  1  0
  5  6  2  0
  7  2  1  0
  7  8  2  0
  9  5  1  0
 10  7  1  0
 11 10  1  0
 11 16  1  0
 11 12  1  6
 13 12  1  0
 14 13  1  0
 14 15  2  0
 16 17  2  0
 18 14  1  0
 19 16  1  0
 19 20  1  0
 20 23  1  0
 20 21  1  6
 22 21  1  0
 23 25  2  0
 23 24  1  0
M  END
$$$$
