EEC.pdb
     RDKit          3D

 25 24  0  0  1  0  0  0  0  0999 V2000
    9.8123  -18.9313   20.6190 N   0  0  0  0  0  0  0  0  0  0  0  0
   10.8021  -18.8640   21.6381 C   0  0  1  0  0  0  0  0  0  0  0  0
   11.9525  -17.9612   21.3677 C   0  0  0  0  0  0  0  0  0  0  0  0
   13.0470  -18.6474   20.6387 C   0  0  0  0  0  0  0  0  0  0  0  0
   14.2440  -17.8027   20.5480 C   0  0  0  0  0  0  0  0  0  0  0  0
   15.0407  -17.5937   21.4761 O   0  0  0  0  0  0  0  0  0  0  0  0
   10.1308  -18.5241   22.9391 C   0  0  0  0  0  0  0  0  0  0  0  0
    9.1294  -17.7786   22.9738 O   0  0  0  0  0  0  0  0  0  0  0  0
   14.5172  -17.1812   19.3266 O   0  0  0  0  0  0  0  0  0  0  0  0
   10.6420  -19.0579   24.1428 N   0  0  0  0  0  0  0  0  0  0  0  0
   10.0635  -18.7732   25.4433 C   0  0  1  0  0  0  0  0  0  0  0  0
   10.4775  -19.7963   26.4781 C   0  0  0  0  0  0  0  0  0  0  0  0
    9.9190  -19.4910   27.8353 C   0  0  0  0  0  0  0  0  0  0  0  0
   10.2923  -20.5696   28.7684 C   0  0  0  0  0  0  0  0  0  0  0  0
   11.0239  -21.4995   28.3821 O   0  0  0  0  0  0  0  0  0  0  0  0
   10.5427  -17.4101   25.8301 C   0  0  0  0  0  0  0  0  0  0  0  0
   11.7074  -17.0944   25.5020 O   0  0  0  0  0  0  0  0  0  0  0  0
    9.8340  -20.5516   30.0653 O   0  0  0  0  0  0  0  0  0  0  0  0
    9.7546  -16.4852   26.5334 N   0  0  0  0  0  0  0  0  0  0  0  0
   10.1767  -15.1383   26.8235 C   0  0  1  0  0  0  0  0  0  0  0  0
    8.9684  -14.2269   26.8708 C   0  0  0  0  0  0  0  0  0  0  0  0
    9.5614  -12.5486   27.2834 S   0  0  0  0  0  0  0  0  0  0  0  0
   10.8497  -15.0436   28.1348 C   0  0  0  0  0  0  0  0  0  0  0  0
   11.5896  -13.9446   28.4862 O   0  0  0  0  0  0  0  0  0  0  0  0
   10.7328  -16.0026   28.9401 O   0  0  0  0  0  0  0  0  0  0  0  0
  2  1  1  6
  3  4  1  0
  3  2  1  0
  5  4  1  0
  5  6  2  0
  7  2  1  0
  7  8  2  0
  9  5  1  0
 10  7  1  0
 11 10  1  0
 11 16  1  0
 11 12  1  1
 13 12  1  0
 14 13  1  0
 14 15  2  0
 16 17  2  0
 18 14  1  0
 19 16  1  0
 19 20  1  0
 20 23  1  0
 20 21  1  1
 22 21  1  0
 23 25  2  0
 23 24  1  0
M  END
$$$$
