EEC.pdb
     RDKit          3D

 25 24  0  0  1  0  0  0  0  0999 V2000
   12.1455  -14.2504   20.0459 N   0  0  0  0  0  0  0  0  0  0  0  0
   10.7804  -13.9523   19.7807 C   0  0  1  0  0  0  0  0  0  0  0  0
   10.3083  -14.2422   18.4006 C   0  0  0  0  0  0  0  0  0  0  0  0
    8.9235  -13.7645   18.1676 C   0  0  0  0  0  0  0  0  0  0  0  0
    8.4396  -14.1488   16.8362 C   0  0  0  0  0  0  0  0  0  0  0  0
    9.0788  -14.0183   15.7807 O   0  0  0  0  0  0  0  0  0  0  0  0
    9.9287  -14.6424   20.8091 C   0  0  0  0  0  0  0  0  0  0  0  0
    8.7090  -14.3938   20.9097 O   0  0  0  0  0  0  0  0  0  0  0  0
    7.1619  -14.7060   16.7383 O   0  0  0  0  0  0  0  0  0  0  0  0
   10.5192  -15.5883   21.6761 N   0  0  0  0  0  0  0  0  0  0  0  0
    9.7891  -16.2468   22.7439 C   0  0  1  0  0  0  0  0  0  0  0  0
   10.1659  -17.7072   22.8642 C   0  0  0  0  0  0  0  0  0  0  0  0
   11.6507  -17.9130   22.8712 C   0  0  0  0  0  0  0  0  0  0  0  0
   11.9409  -19.3564   22.9460 C   0  0  0  0  0  0  0  0  0  0  0  0
   11.2315  -20.0968   23.6515 O   0  0  0  0  0  0  0  0  0  0  0  0
   10.1254  -15.5114   24.0022 C   0  0  0  0  0  0  0  0  0  0  0  0
   11.2750  -15.0287   24.0975 O   0  0  0  0  0  0  0  0  0  0  0  0
   12.9942  -19.8877   22.2383 O   0  0  0  0  0  0  0  0  0  0  0  0
    9.2213  -15.3422   25.0630 N   0  0  0  0  0  0  0  0  0  0  0  0
    9.5380  -14.6242   26.2716 C   0  0  1  0  0  0  0  0  0  0  0  0
    8.4364  -13.6307   26.5750 C   0  0  0  0  0  0  0  0  0  0  0  0
    8.8634  -12.7988   28.1449 S   0  0  0  0  0  0  0  0  0  0  0  0
    9.6471  -15.5276   27.4349 C   0  0  0  0  0  0  0  0  0  0  0  0
   10.2699  -15.1384   28.5923 O   0  0  0  0  0  0  0  0  0  0  0  0
    9.1519  -16.6804   27.3482 O   0  0  0  0  0  0  0  0  0  0  0  0
  2  1  1  6
  3  4  1  0
  3  2  1  0
  5  4  1  0
  5  6  2  0
  7  2  1  0
  7  8  2  0
  9  5  1  0
 10  7  1  0
 11 10  1  0
 11 16  1  0
 11 12  1  1
 13 12  1  0
 14 13  1  0
 14 15  2  0
 16 17  2  0
 18 14  1  0
 19 16  1  0
 19 20  1  0
 20 23  1  0
 20 21  1  1
 22 21  1  0
 23 25  2  0
 23 24  1  0
M  END
$$$$
