EEC.pdb
     RDKit          3D

 25 24  0  0  1  0  0  0  0  0999 V2000
   10.7312  -17.2168   18.6523 N   0  0  0  0  0  0  0  0  0  0  0  0
   11.0630  -16.6535   19.9154 C   0  0  1  0  0  0  0  0  0  0  0  0
   11.8730  -15.4070   19.8783 C   0  0  0  0  0  0  0  0  0  0  0  0
   13.2179  -15.6271   19.2925 C   0  0  0  0  0  0  0  0  0  0  0  0
   13.9878  -14.3789   19.2309 C   0  0  0  0  0  0  0  0  0  0  0  0
   14.4266  -13.7630   20.2147 O   0  0  0  0  0  0  0  0  0  0  0  0
    9.7980  -16.4636   20.7046 C   0  0  0  0  0  0  0  0  0  0  0  0
    8.6819  -16.4571   20.1443 O   0  0  0  0  0  0  0  0  0  0  0  0
   14.2529  -13.8333   17.9721 O   0  0  0  0  0  0  0  0  0  0  0  0
    9.8741  -16.2896   22.1043 N   0  0  0  0  0  0  0  0  0  0  0  0
    8.7077  -16.3058   22.9682 C   0  0  1  0  0  0  0  0  0  0  0  0
    8.5180  -17.6530   23.6302 C   0  0  0  0  0  0  0  0  0  0  0  0
    9.7717  -18.1450   24.2884 C   0  0  0  0  0  0  0  0  0  0  0  0
    9.5109  -19.4547   24.9130 C   0  0  0  0  0  0  0  0  0  0  0  0
    8.3911  -19.9859   24.7977 O   0  0  0  0  0  0  0  0  0  0  0  0
    8.9275  -15.2412   23.9955 C   0  0  0  0  0  0  0  0  0  0  0  0
   10.0912  -15.0889   24.4274 O   0  0  0  0  0  0  0  0  0  0  0  0
   10.5017  -20.0918   25.6235 O   0  0  0  0  0  0  0  0  0  0  0  0
    7.9012  -14.4190   24.4873 N   0  0  0  0  0  0  0  0  0  0  0  0
    8.0831  -13.4757   25.5615 C   0  0  1  0  0  0  0  0  0  0  0  0
    6.8106  -12.6790   25.7581 C   0  0  0  0  0  0  0  0  0  0  0  0
    7.0941  -11.5234   27.1448 S   0  0  0  0  0  0  0  0  0  0  0  0
    8.3806  -14.1507   26.8411 C   0  0  0  0  0  0  0  0  0  0  0  0
    9.2700  -13.6252   27.7420 O   0  0  0  0  0  0  0  0  0  0  0  0
    7.7963  -15.2342   27.0982 O   0  0  0  0  0  0  0  0  0  0  0  0
  2  1  1  6
  3  4  1  0
  3  2  1  0
  5  4  1  0
  5  6  2  0
  7  2  1  0
  7  8  2  0
  9  5  1  0
 10  7  1  0
 11 10  1  0
 11 16  1  0
 11 12  1  1
 13 12  1  0
 14 13  1  0
 14 15  2  0
 16 17  2  0
 18 14  1  0
 19 16  1  0
 19 20  1  0
 20 23  1  0
 20 21  1  1
 22 21  1  0
 23 25  2  0
 23 24  1  0
M  END
$$$$
