EEC.pdb
     RDKit          3D

 25 24  0  0  1  0  0  0  0  0999 V2000
    7.5537  -14.3965   18.5785 N   0  0  0  0  0  0  0  0  0  0  0  0
    8.6195  -14.2339   19.5060 C   0  0  1  0  0  0  0  0  0  0  0  0
    9.2052  -12.8695   19.5899 C   0  0  0  0  0  0  0  0  0  0  0  0
   10.0791  -12.5601   18.4320 C   0  0  0  0  0  0  0  0  0  0  0  0
   11.3568  -13.2778   18.5165 C   0  0  0  0  0  0  0  0  0  0  0  0
   12.4006  -12.8191   19.0061 O   0  0  0  0  0  0  0  0  0  0  0  0
    8.1632  -14.7198   20.8532 C   0  0  0  0  0  0  0  0  0  0  0  0
    6.9962  -14.5203   21.2506 O   0  0  0  0  0  0  0  0  0  0  0  0
   11.4130  -14.5787   18.0097 O   0  0  0  0  0  0  0  0  0  0  0  0
    9.0710  -15.4143   21.6831 N   0  0  0  0  0  0  0  0  0  0  0  0
    8.7042  -15.9525   22.9804 C   0  0  1  0  0  0  0  0  0  0  0  0
    9.6029  -17.0999   23.3866 C   0  0  0  0  0  0  0  0  0  0  0  0
    9.2634  -17.6352   24.7450 C   0  0  0  0  0  0  0  0  0  0  0  0
   10.1413  -18.7797   25.0498 C   0  0  0  0  0  0  0  0  0  0  0  0
   10.4163  -19.0537   26.2324 O   0  0  0  0  0  0  0  0  0  0  0  0
    8.8197  -14.8235   23.9546 C   0  0  0  0  0  0  0  0  0  0  0  0
    9.1490  -13.7047   23.5034 O   0  0  0  0  0  0  0  0  0  0  0  0
   10.6578  -19.5458   24.0307 O   0  0  0  0  0  0  0  0  0  0  0  0
    8.5782  -14.9630   25.3306 N   0  0  0  0  0  0  0  0  0  0  0  0
    8.2018  -13.8674   26.1876 C   0  0  1  0  0  0  0  0  0  0  0  0
    6.8786  -13.2937   25.7263 C   0  0  0  0  0  0  0  0  0  0  0  0
    6.3413  -12.0754   26.9776 S   0  0  0  0  0  0  0  0  0  0  0  0
    8.0279  -14.3004   27.5889 C   0  0  0  0  0  0  0  0  0  0  0  0
    8.3344  -13.4758   28.6401 O   0  0  0  0  0  0  0  0  0  0  0  0
    7.5867  -15.4573   27.8093 O   0  0  0  0  0  0  0  0  0  0  0  0
  2  1  1  6
  3  4  1  0
  3  2  1  0
  5  4  1  0
  5  6  2  0
  7  2  1  0
  7  8  2  0
  9  5  1  0
 10  7  1  0
 11 10  1  0
 11 16  1  0
 11 12  1  1
 13 12  1  0
 14 13  1  0
 14 15  2  0
 16 17  2  0
 18 14  1  0
 19 16  1  0
 19 20  1  0
 20 23  1  0
 20 21  1  6
 22 21  1  0
 23 25  2  0
 23 24  1  0
M  END
$$$$
