MGQ.pdb
     RDKit          3D

 22 21  0  0  1  0  0  0  0  0999 V2000
    5.4815  -10.7349   27.6933 C   0  0  0  0  0  0  0  0  0  0  0  0
    6.2649  -11.4082   26.2158 S   0  0  0  0  0  0  0  0  0  0  0  0
    6.5208  -13.1902   26.3559 C   0  0  0  0  0  0  0  0  0  0  0  0
    7.0926  -13.7659   25.0631 C   0  0  0  0  0  0  0  0  0  0  0  0
    7.3085  -15.2381   25.2564 C   0  0  2  0  0  0  0  0  0  0  0  0
    8.0663  -15.4459   26.4799 N   0  0  0  0  0  0  0  0  0  0  0  0
    8.0459  -15.8068   24.1163 C   0  0  0  0  0  0  0  0  0  0  0  0
    9.1356  -15.2810   23.7446 O   0  0  0  0  0  0  0  0  0  0  0  0
    7.5871  -16.9440   23.3927 N   0  0  0  0  0  0  0  0  0  0  0  0
    8.3775  -17.4528   22.2960 C   0  0  0  0  0  0  0  0  0  0  0  0
    9.5947  -18.1293   22.7959 C   0  0  0  0  0  0  0  0  0  0  0  0
   10.1709  -18.9519   22.0267 O   0  0  0  0  0  0  0  0  0  0  0  0
   14.5660  -15.7802   24.2915 N   0  0  0  0  0  0  0  0  0  0  0  0
   13.7763  -16.1320   23.1638 C   0  0  0  0  0  0  0  0  0  0  0  0
   14.1593  -15.7376   22.0401 O   0  0  0  0  0  0  0  0  0  0  0  0
   12.5507  -16.9275   23.2835 C   0  0  0  0  0  0  0  0  0  0  0  0
   12.5144  -17.9057   24.4002 C   0  0  0  0  0  0  0  0  0  0  0  0
   11.2446  -18.6805   24.5568 C   0  0  2  0  0  0  0  0  0  0  0  0
   10.1209  -17.8834   24.0898 N   0  0  0  0  0  0  0  0  0  0  0  0
   11.0048  -19.1487   25.9529 C   0  0  0  0  0  0  0  0  0  0  0  0
   10.0595  -18.6830   26.6320 O   0  0  0  0  0  0  0  0  0  0  0  0
   11.8108  -20.1130   26.5576 O   0  0  0  0  0  0  0  0  0  0  0  0
  2  1  1  0
  3  2  1  0
  3  4  1  0
  4  5  1  0
  5  7  1  0
  5  6  1  1
  7  8  2  0
  9 10  1  0
  9  7  1  0
 10 11  1  0
 11 12  2  0
 11 19  1  0
 14 13  1  0
 14 15  2  0
 16 17  1  0
 16 14  1  0
 18 20  1  0
 18 17  1  1
 19 18  1  0
 20 22  1  0
 21 20  2  0
M  END
$$$$
