MGQ.pdb
     RDKit          3D

 22 21  0  0  1  0  0  0  0  0999 V2000
    7.8019  -11.7920   26.8316 C   0  0  0  0  0  0  0  0  0  0  0  0
    6.2456  -12.4003   26.1547 S   0  0  0  0  0  0  0  0  0  0  0  0
    6.4524  -13.0160   24.4698 C   0  0  0  0  0  0  0  0  0  0  0  0
    7.7460  -13.8141   24.3319 C   0  0  0  0  0  0  0  0  0  0  0  0
    7.8583  -14.2907   22.9136 C   0  0  2  0  0  0  0  0  0  0  0  0
    6.6621  -15.0447   22.5745 N   0  0  0  0  0  0  0  0  0  0  0  0
    9.0447  -15.1462   22.7478 C   0  0  0  0  0  0  0  0  0  0  0  0
   10.2019  -14.6354   22.7932 O   0  0  0  0  0  0  0  0  0  0  0  0
    8.9569  -16.5512   22.5339 N   0  0  0  0  0  0  0  0  0  0  0  0
    8.7996  -17.4325   23.6675 C   0  0  0  0  0  0  0  0  0  0  0  0
   10.0971  -17.6559   24.3426 C   0  0  0  0  0  0  0  0  0  0  0  0
   11.0718  -16.9235   24.0052 O   0  0  0  0  0  0  0  0  0  0  0  0
   10.7426  -14.5682   27.6512 N   0  0  0  0  0  0  0  0  0  0  0  0
   10.6308  -15.4906   28.7262 C   0  0  0  0  0  0  0  0  0  0  0  0
   11.1682  -15.1842   29.8134 O   0  0  0  0  0  0  0  0  0  0  0  0
    9.9174  -16.7646   28.5939 C   0  0  0  0  0  0  0  0  0  0  0  0
    9.6832  -17.2402   27.2068 C   0  0  0  0  0  0  0  0  0  0  0  0
   10.6594  -18.2437   26.6803 C   0  0  2  0  0  0  0  0  0  0  0  0
   10.2717  -18.6505   25.3386 N   0  0  0  0  0  0  0  0  0  0  0  0
   10.8139  -19.4381   27.5609 C   0  0  0  0  0  0  0  0  0  0  0  0
    9.8628  -20.2369   27.7307 O   0  0  0  0  0  0  0  0  0  0  0  0
   12.0078  -19.7162   28.2260 O   0  0  0  0  0  0  0  0  0  0  0  0
  2  1  1  0
  3  2  1  0
  3  4  1  0
  4  5  1  0
  5  7  1  0
  5  6  1  1
  7  8  2  0
  9 10  1  0
  9  7  1  0
 10 11  1  0
 11 12  2  0
 11 19  1  0
 14 13  1  0
 14 15  2  0
 16 17  1  0
 16 14  1  0
 18 20  1  0
 18 17  1  1
 19 18  1  0
 20 22  1  0
 21 20  2  0
M  END
$$$$
