MGQ.pdb
     RDKit          3D

 22 21  0  0  1  0  0  0  0  0999 V2000
    6.5008  -12.1326   26.5325 C   0  0  0  0  0  0  0  0  0  0  0  0
    7.3491  -12.0743   24.9428 S   0  0  0  0  0  0  0  0  0  0  0  0
    6.9977  -13.5417   23.9508 C   0  0  0  0  0  0  0  0  0  0  0  0
    7.7884  -13.5240   22.6454 C   0  0  0  0  0  0  0  0  0  0  0  0
    7.4997  -14.7943   21.9009 C   0  0  2  0  0  0  0  0  0  0  0  0
    6.5431  -15.5799   22.6640 N   0  0  0  0  0  0  0  0  0  0  0  0
    8.7343  -15.5721   21.7069 C   0  0  0  0  0  0  0  0  0  0  0  0
    8.8481  -16.3346   20.7030 O   0  0  0  0  0  0  0  0  0  0  0  0
    9.8330  -15.5105   22.6104 N   0  0  0  0  0  0  0  0  0  0  0  0
   10.9835  -16.3546   22.3862 C   0  0  0  0  0  0  0  0  0  0  0  0
   11.9243  -16.2729   23.5253 C   0  0  0  0  0  0  0  0  0  0  0  0
   12.9469  -17.0172   23.5009 O   0  0  0  0  0  0  0  0  0  0  0  0
   11.0009  -15.0733   30.1992 N   0  0  0  0  0  0  0  0  0  0  0  0
   10.1459  -15.1273   29.0656 C   0  0  0  0  0  0  0  0  0  0  0  0
    9.2567  -14.2531   28.9660 O   0  0  0  0  0  0  0  0  0  0  0  0
   10.2778  -16.1604   28.0337 C   0  0  0  0  0  0  0  0  0  0  0  0
   10.4138  -15.6741   26.6373 C   0  0  0  0  0  0  0  0  0  0  0  0
   11.7253  -15.9432   25.9704 C   0  0  2  0  0  0  0  0  0  0  0  0
   11.7124  -15.3984   24.6217 N   0  0  0  0  0  0  0  0  0  0  0  0
   12.0901  -17.3896   25.9429 C   0  0  0  0  0  0  0  0  0  0  0  0
   13.0492  -17.8221   26.6246 O   0  0  0  0  0  0  0  0  0  0  0  0
   11.3897  -18.3137   25.1679 O   0  0  0  0  0  0  0  0  0  0  0  0
  2  1  1  0
  3  2  1  0
  3  4  1  0
  4  5  1  0
  5  7  1  0
  5  6  1  1
  7  8  2  0
  9 10  1  0
  9  7  1  0
 10 11  1  0
 11 12  2  0
 11 19  1  0
 14 13  1  0
 14 15  2  0
 16 17  1  0
 16 14  1  0
 18 20  1  0
 18 17  1  6
 19 18  1  0
 20 22  1  0
 21 20  2  0
M  END
$$$$
