MGQ.pdb
     RDKit          3D

 22 21  0  0  1  0  0  0  0  0999 V2000
    6.9565  -10.9701   26.5296 C   0  0  0  0  0  0  0  0  0  0  0  0
    6.6791  -12.6215   27.1975 S   0  0  0  0  0  0  0  0  0  0  0  0
    6.2337  -13.7945   25.8989 C   0  0  0  0  0  0  0  0  0  0  0  0
    6.8407  -13.3866   24.5591 C   0  0  0  0  0  0  0  0  0  0  0  0
    6.6834  -14.5308   23.6013 C   0  0  2  0  0  0  0  0  0  0  0  0
    6.3477  -15.7301   24.3519 N   0  0  0  0  0  0  0  0  0  0  0  0
    7.9298  -14.7514   22.8498 C   0  0  0  0  0  0  0  0  0  0  0  0
    8.5038  -13.7775   22.2806 O   0  0  0  0  0  0  0  0  0  0  0  0
    8.5380  -16.0330   22.7267 N   0  0  0  0  0  0  0  0  0  0  0  0
    9.7929  -16.1575   22.0223 C   0  0  0  0  0  0  0  0  0  0  0  0
   10.9281  -16.1722   22.9712 C   0  0  0  0  0  0  0  0  0  0  0  0
   10.7638  -15.6187   24.0967 O   0  0  0  0  0  0  0  0  0  0  0  0
   11.8186  -19.7354   26.2530 N   0  0  0  0  0  0  0  0  0  0  0  0
   13.1978  -19.4188   26.3823 C   0  0  0  0  0  0  0  0  0  0  0  0
   13.7598  -19.7001   27.4639 O   0  0  0  0  0  0  0  0  0  0  0  0
   13.9600  -18.7839   25.3028 C   0  0  0  0  0  0  0  0  0  0  0  0
   13.1939  -18.4399   24.0782 C   0  0  0  0  0  0  0  0  0  0  0  0
   13.1418  -16.9888   23.7191 C   0  0  2  0  0  0  0  0  0  0  0  0
   12.1707  -16.7794   22.6565 N   0  0  0  0  0  0  0  0  0  0  0  0
   14.4678  -16.4272   23.3291 C   0  0  0  0  0  0  0  0  0  0  0  0
   14.7457  -16.2161   22.1250 O   0  0  0  0  0  0  0  0  0  0  0  0
   15.4451  -16.1157   24.2740 O   0  0  0  0  0  0  0  0  0  0  0  0
  2  1  1  0
  3  2  1  0
  3  4  1  0
  4  5  1  0
  5  7  1  0
  5  6  1  1
  7  8  2  0
  9 10  1  0
  9  7  1  0
 10 11  1  0
 11 12  2  0
 11 19  1  0
 14 13  1  0
 14 15  2  0
 16 17  1  0
 16 14  1  0
 18 20  1  0
 18 17  1  6
 19 18  1  0
 20 22  1  0
 21 20  2  0
M  END
$$$$
