MGQ.pdb
     RDKit          3D

 22 21  0  0  1  0  0  0  0  0999 V2000
    7.0927  -11.4114   20.5771 C   0  0  0  0  0  0  0  0  0  0  0  0
    7.9124  -12.9170   20.0190 S   0  0  0  0  0  0  0  0  0  0  0  0
    6.7473  -14.2883   19.8689 C   0  0  0  0  0  0  0  0  0  0  0  0
    7.4535  -15.5606   19.4083 C   0  0  0  0  0  0  0  0  0  0  0  0
    8.6574  -15.7741   20.2780 C   0  0  2  0  0  0  0  0  0  0  0  0
    9.4449  -16.8674   19.7312 N   0  0  0  0  0  0  0  0  0  0  0  0
    8.2499  -16.0993   21.6546 C   0  0  0  0  0  0  0  0  0  0  0  0
    7.7497  -15.2013   22.3931 O   0  0  0  0  0  0  0  0  0  0  0  0
    8.3923  -17.4016   22.2123 N   0  0  0  0  0  0  0  0  0  0  0  0
    7.9869  -17.6360   23.5787 C   0  0  0  0  0  0  0  0  0  0  0  0
    8.6501  -16.6813   24.4940 C   0  0  0  0  0  0  0  0  0  0  0  0
    9.8414  -16.3446   24.2338 O   0  0  0  0  0  0  0  0  0  0  0  0
    8.0849  -11.5433   26.8579 N   0  0  0  0  0  0  0  0  0  0  0  0
    6.9970  -12.2288   26.2534 C   0  0  0  0  0  0  0  0  0  0  0  0
    6.2166  -11.5635   25.5370 O   0  0  0  0  0  0  0  0  0  0  0  0
    6.7721  -13.6648   26.4458 C   0  0  0  0  0  0  0  0  0  0  0  0
    7.7838  -14.3795   27.2647 C   0  0  0  0  0  0  0  0  0  0  0  0
    8.7362  -15.2577   26.5171 C   0  0  2  0  0  0  0  0  0  0  0  0
    7.9966  -16.1450   25.6329 N   0  0  0  0  0  0  0  0  0  0  0  0
    9.6389  -16.0449   27.4066 C   0  0  0  0  0  0  0  0  0  0  0  0
    9.4316  -17.2638   27.6138 O   0  0  0  0  0  0  0  0  0  0  0  0
   10.7396  -15.4679   28.0394 O   0  0  0  0  0  0  0  0  0  0  0  0
  2  1  1  0
  3  2  1  0
  3  4  1  0
  4  5  1  0
  5  7  1  0
  5  6  1  6
  7  8  2  0
  9 10  1  0
  9  7  1  0
 10 11  1  0
 11 12  2  0
 11 19  1  0
 14 13  1  0
 14 15  2  0
 16 17  1  0
 16 14  1  0
 18 20  1  0
 18 17  1  1
 19 18  1  0
 20 22  1  0
 21 20  2  0
M  END
$$$$
