MGQ.pdb
     RDKit          3D

 22 21  0  0  1  0  0  0  0  0999 V2000
    6.9167  -11.8153   19.6584 C   0  0  0  0  0  0  0  0  0  0  0  0
    8.0822  -13.1734   19.4406 S   0  0  0  0  0  0  0  0  0  0  0  0
    8.2852  -14.1221   20.9635 C   0  0  0  0  0  0  0  0  0  0  0  0
    7.0463  -14.9649   21.2544 C   0  0  0  0  0  0  0  0  0  0  0  0
    7.2858  -15.7361   22.5190 C   0  0  2  0  0  0  0  0  0  0  0  0
    7.4278  -14.7990   23.6219 N   0  0  0  0  0  0  0  0  0  0  0  0
    8.5057  -16.5519   22.4042 C   0  0  0  0  0  0  0  0  0  0  0  0
    8.4801  -17.6364   21.7520 O   0  0  0  0  0  0  0  0  0  0  0  0
    9.7421  -16.1765   23.0024 N   0  0  0  0  0  0  0  0  0  0  0  0
   10.8879  -17.0455   22.8671 C   0  0  0  0  0  0  0  0  0  0  0  0
   11.5689  -17.2226   24.1687 C   0  0  0  0  0  0  0  0  0  0  0  0
   12.7827  -17.5786   24.1562 O   0  0  0  0  0  0  0  0  0  0  0  0
    9.5345  -14.4549   29.4723 N   0  0  0  0  0  0  0  0  0  0  0  0
    9.6475  -14.0723   28.1086 C   0  0  0  0  0  0  0  0  0  0  0  0
    9.0719  -13.0211   27.7501 O   0  0  0  0  0  0  0  0  0  0  0  0
   10.4049  -14.8630   27.1336 C   0  0  0  0  0  0  0  0  0  0  0  0
   11.0186  -16.1149   27.6447 C   0  0  0  0  0  0  0  0  0  0  0  0
   11.6936  -16.9807   26.6289 C   0  0  2  0  0  0  0  0  0  0  0  0
   10.9079  -17.0075   25.4050 N   0  0  0  0  0  0  0  0  0  0  0  0
   11.9514  -18.3688   27.1111 C   0  0  0  0  0  0  0  0  0  0  0  0
   11.1298  -19.2886   26.8865 O   0  0  0  0  0  0  0  0  0  0  0  0
   13.1030  -18.7013   27.8242 O   0  0  0  0  0  0  0  0  0  0  0  0
  2  1  1  0
  3  2  1  0
  3  4  1  0
  4  5  1  0
  5  7  1  0
  5  6  1  1
  7  8  2  0
  9 10  1  0
  9  7  1  0
 10 11  1  0
 11 12  2  0
 11 19  1  0
 14 13  1  0
 14 15  2  0
 16 17  1  0
 16 14  1  0
 18 20  1  0
 18 17  1  1
 19 18  1  0
 20 22  1  0
 21 20  2  0
M  END
$$$$
