MGQ.pdb
     RDKit          3D

 22 21  0  0  1  0  0  0  0  0999 V2000
    8.4011  -11.9286   27.1654 C   0  0  0  0  0  0  0  0  0  0  0  0
    7.2105  -12.4677   25.9236 S   0  0  0  0  0  0  0  0  0  0  0  0
    7.2865  -14.2531   25.6648 C   0  0  0  0  0  0  0  0  0  0  0  0
    6.4998  -14.6616   24.4223 C   0  0  0  0  0  0  0  0  0  0  0  0
    7.4458  -14.7088   23.2585 C   0  0  2  0  0  0  0  0  0  0  0  0
    6.7291  -14.3224   22.0537 N   0  0  0  0  0  0  0  0  0  0  0  0
    7.9950  -16.0644   23.0929 C   0  0  0  0  0  0  0  0  0  0  0  0
    7.2593  -16.9927   22.6467 O   0  0  0  0  0  0  0  0  0  0  0  0
    9.3419  -16.3942   23.4160 N   0  0  0  0  0  0  0  0  0  0  0  0
   10.4076  -15.5144   22.9958 C   0  0  0  0  0  0  0  0  0  0  0  0
   11.7283  -16.1005   23.3144 C   0  0  0  0  0  0  0  0  0  0  0  0
   12.7317  -15.6808   22.6683 O   0  0  0  0  0  0  0  0  0  0  0  0
    8.9109  -15.2956   27.8715 N   0  0  0  0  0  0  0  0  0  0  0  0
   10.2156  -15.0279   28.3665 C   0  0  0  0  0  0  0  0  0  0  0  0
   10.3174  -14.6120   29.5418 O   0  0  0  0  0  0  0  0  0  0  0  0
   11.4179  -15.2223   27.5503 C   0  0  0  0  0  0  0  0  0  0  0  0
   11.1975  -15.7468   26.1787 C   0  0  0  0  0  0  0  0  0  0  0  0
   12.2295  -16.6989   25.6633 C   0  0  2  0  0  0  0  0  0  0  0  0
   11.8940  -17.1008   24.3061 N   0  0  0  0  0  0  0  0  0  0  0  0
   12.4135  -17.8992   26.5300 C   0  0  0  0  0  0  0  0  0  0  0  0
   13.2905  -17.9150   27.4257 O   0  0  0  0  0  0  0  0  0  0  0  0
   11.6284  -19.0427   26.3850 O   0  0  0  0  0  0  0  0  0  0  0  0
  2  1  1  0
  3  2  1  0
  3  4  1  0
  4  5  1  0
  5  7  1  0
  5  6  1  6
  7  8  2  0
  9 10  1  0
  9  7  1  0
 10 11  1  0
 11 12  2  0
 11 19  1  0
 14 13  1  0
 14 15  2  0
 16 17  1  0
 16 14  1  0
 18 20  1  0
 18 17  1  1
 19 18  1  0
 20 22  1  0
 21 20  2  0
M  END
$$$$
