MGQ.pdb
     RDKit          3D

 22 21  0  0  1  0  0  0  0  0999 V2000
    7.2215  -10.7732   26.2293 C   0  0  0  0  0  0  0  0  0  0  0  0
    5.6381  -11.6346   26.1941 S   0  0  0  0  0  0  0  0  0  0  0  0
    5.8341  -13.3601   25.6991 C   0  0  0  0  0  0  0  0  0  0  0  0
    6.8197  -13.4903   24.5410 C   0  0  0  0  0  0  0  0  0  0  0  0
    6.9351  -14.9420   24.1798 C   0  0  2  0  0  0  0  0  0  0  0  0
    7.0477  -15.7233   25.4010 N   0  0  0  0  0  0  0  0  0  0  0  0
    8.1186  -15.1725   23.3354 C   0  0  0  0  0  0  0  0  0  0  0  0
    8.2315  -14.5677   22.2292 O   0  0  0  0  0  0  0  0  0  0  0  0
    9.1677  -16.0609   23.7061 N   0  0  0  0  0  0  0  0  0  0  0  0
   10.4760  -15.8986   23.1158 C   0  0  0  0  0  0  0  0  0  0  0  0
   11.3761  -16.9997   23.5239 C   0  0  0  0  0  0  0  0  0  0  0  0
   12.5234  -17.0516   22.9934 O   0  0  0  0  0  0  0  0  0  0  0  0
    9.6997  -14.4790   27.8771 N   0  0  0  0  0  0  0  0  0  0  0  0
   10.6359  -15.3070   28.5530 C   0  0  0  0  0  0  0  0  0  0  0  0
   10.8078  -15.1114   29.7765 O   0  0  0  0  0  0  0  0  0  0  0  0
   11.3888  -16.3607   27.8657 C   0  0  0  0  0  0  0  0  0  0  0  0
   11.0628  -16.5657   26.4315 C   0  0  0  0  0  0  0  0  0  0  0  0
   11.4912  -17.8702   25.8381 C   0  0  2  0  0  0  0  0  0  0  0  0
   10.9925  -17.9785   24.4759 N   0  0  0  0  0  0  0  0  0  0  0  0
   11.0684  -19.0539   26.6418 C   0  0  0  0  0  0  0  0  0  0  0  0
   10.0061  -19.6638   26.3749 O   0  0  0  0  0  0  0  0  0  0  0  0
   11.8258  -19.5290   27.7121 O   0  0  0  0  0  0  0  0  0  0  0  0
  2  1  1  0
  3  2  1  0
  3  4  1  0
  4  5  1  0
  5  7  1  0
  5  6  1  1
  7  8  2  0
  9 10  1  0
  9  7  1  0
 10 11  1  0
 11 12  2  0
 11 19  1  0
 14 13  1  0
 14 15  2  0
 16 17  1  0
 16 14  1  0
 18 20  1  0
 18 17  1  1
 19 18  1  0
 20 22  1  0
 21 20  2  0
M  END
$$$$
