MGQ.pdb
     RDKit          3D

 22 21  0  0  1  0  0  0  0  0999 V2000
    7.2604  -11.3828   25.7295 C   0  0  0  0  0  0  0  0  0  0  0  0
    6.1772  -12.5165   26.6193 S   0  0  0  0  0  0  0  0  0  0  0  0
    5.9844  -14.0790   25.7349 C   0  0  0  0  0  0  0  0  0  0  0  0
    7.3233  -14.5716   25.1924 C   0  0  0  0  0  0  0  0  0  0  0  0
    7.0774  -15.8080   24.3788 C   0  0  2  0  0  0  0  0  0  0  0  0
    6.5230  -16.8376   25.2432 N   0  0  0  0  0  0  0  0  0  0  0  0
    8.3320  -16.2902   23.7786 C   0  0  0  0  0  0  0  0  0  0  0  0
    8.9202  -17.2973   24.2705 O   0  0  0  0  0  0  0  0  0  0  0  0
    8.9328  -15.6688   22.6471 N   0  0  0  0  0  0  0  0  0  0  0  0
   10.1396  -16.2312   22.0868 C   0  0  0  0  0  0  0  0  0  0  0  0
   11.2678  -16.1034   23.0355 C   0  0  0  0  0  0  0  0  0  0  0  0
   12.4125  -16.4738   22.6447 O   0  0  0  0  0  0  0  0  0  0  0  0
   10.3048  -16.2659   29.7855 N   0  0  0  0  0  0  0  0  0  0  0  0
   10.7128  -15.4248   28.7155 C   0  0  0  0  0  0  0  0  0  0  0  0
   10.3156  -14.2386   28.7246 O   0  0  0  0  0  0  0  0  0  0  0  0
   11.5681  -15.9037   27.6253 C   0  0  0  0  0  0  0  0  0  0  0  0
   11.8528  -14.9280   26.5427 C   0  0  0  0  0  0  0  0  0  0  0  0
   12.2579  -15.5060   25.2240 C   0  0  2  0  0  0  0  0  0  0  0  0
   11.1012  -15.5862   24.3457 N   0  0  0  0  0  0  0  0  0  0  0  0
   12.9162  -16.8399   25.3391 C   0  0  0  0  0  0  0  0  0  0  0  0
   12.2633  -17.8948   25.1595 O   0  0  0  0  0  0  0  0  0  0  0  0
   14.2699  -16.9715   25.6477 O   0  0  0  0  0  0  0  0  0  0  0  0
  2  1  1  0
  3  2  1  0
  3  4  1  0
  4  5  1  0
  5  7  1  0
  5  6  1  1
  7  8  2  0
  9 10  1  0
  9  7  1  0
 10 11  1  0
 11 12  2  0
 11 19  1  0
 14 13  1  0
 14 15  2  0
 16 17  1  0
 16 14  1  0
 18 20  1  0
 18 17  1  1
 19 18  1  0
 20 22  1  0
 21 20  2  0
M  END
$$$$
