MGQ.pdb
     RDKit          3D

 22 21  0  0  1  0  0  0  0  0999 V2000
    6.1751  -10.5699   27.4950 C   0  0  0  0  0  0  0  0  0  0  0  0
    5.8190  -11.6572   26.1017 S   0  0  0  0  0  0  0  0  0  0  0  0
    6.7854  -13.1801   26.1867 C   0  0  0  0  0  0  0  0  0  0  0  0
    6.5333  -14.0591   24.9646 C   0  0  0  0  0  0  0  0  0  0  0  0
    7.4264  -15.2614   25.0549 C   0  0  2  0  0  0  0  0  0  0  0  0
    8.6346  -14.8968   25.7772 N   0  0  0  0  0  0  0  0  0  0  0  0
    7.7816  -15.7441   23.7104 C   0  0  0  0  0  0  0  0  0  0  0  0
    7.0701  -16.6278   23.1492 O   0  0  0  0  0  0  0  0  0  0  0  0
    8.9100  -15.2578   22.9910 N   0  0  0  0  0  0  0  0  0  0  0  0
    9.8210  -16.1982   22.3809 C   0  0  0  0  0  0  0  0  0  0  0  0
   10.9496  -16.5000   23.2888 C   0  0  0  0  0  0  0  0  0  0  0  0
   12.1081  -16.1398   22.9304 O   0  0  0  0  0  0  0  0  0  0  0  0
    9.9961  -13.9443   28.7295 N   0  0  0  0  0  0  0  0  0  0  0  0
   10.4528  -15.2416   28.3723 C   0  0  0  0  0  0  0  0  0  0  0  0
   10.3673  -16.1453   29.2329 O   0  0  0  0  0  0  0  0  0  0  0  0
   11.0100  -15.5389   27.0492 C   0  0  0  0  0  0  0  0  0  0  0  0
   11.4552  -16.9381   26.8283 C   0  0  0  0  0  0  0  0  0  0  0  0
   11.8951  -17.2785   25.4398 C   0  0  2  0  0  0  0  0  0  0  0  0
   10.7685  -17.1695   24.5260 N   0  0  0  0  0  0  0  0  0  0  0  0
   12.5232  -18.6275   25.3314 C   0  0  0  0  0  0  0  0  0  0  0  0
   11.9009  -19.5849   24.8141 O   0  0  0  0  0  0  0  0  0  0  0  0
   13.8141  -18.8808   25.7946 O   0  0  0  0  0  0  0  0  0  0  0  0
  2  1  1  0
  3  2  1  0
  3  4  1  0
  4  5  1  0
  5  7  1  0
  5  6  1  6
  7  8  2  0
  9 10  1  0
  9  7  1  0
 10 11  1  0
 11 12  2  0
 11 19  1  0
 14 13  1  0
 14 15  2  0
 16 17  1  0
 16 14  1  0
 18 20  1  0
 18 17  1  1
 19 18  1  0
 20 22  1  0
 21 20  2  0
M  END
$$$$
