MGQ.pdb
     RDKit          3D

 22 21  0  0  1  0  0  0  0  0999 V2000
    6.3423  -11.8320   27.8026 C   0  0  0  0  0  0  0  0  0  0  0  0
    6.2497  -12.0681   26.0177 S   0  0  0  0  0  0  0  0  0  0  0  0
    7.7363  -12.8690   25.3779 C   0  0  0  0  0  0  0  0  0  0  0  0
    7.7788  -12.8100   23.8534 C   0  0  0  0  0  0  0  0  0  0  0  0
    7.1938  -14.0824   23.3148 C   0  0  2  0  0  0  0  0  0  0  0  0
    6.5753  -14.8155   24.4078 N   0  0  0  0  0  0  0  0  0  0  0  0
    8.2404  -14.9110   22.6945 C   0  0  0  0  0  0  0  0  0  0  0  0
    8.9063  -14.4589   21.7176 O   0  0  0  0  0  0  0  0  0  0  0  0
    8.5505  -16.2253   23.1461 N   0  0  0  0  0  0  0  0  0  0  0  0
    9.6029  -16.9692   22.4940 C   0  0  0  0  0  0  0  0  0  0  0  0
   10.7362  -17.1949   23.4181 C   0  0  0  0  0  0  0  0  0  0  0  0
   11.6783  -16.3508   23.4140 O   0  0  0  0  0  0  0  0  0  0  0  0
   12.0471  -20.1012   29.9715 N   0  0  0  0  0  0  0  0  0  0  0  0
   11.4713  -19.1502   29.0866 C   0  0  0  0  0  0  0  0  0  0  0  0
   10.3978  -18.6094   29.4329 O   0  0  0  0  0  0  0  0  0  0  0  0
   12.0912  -18.7965   27.8059 C   0  0  0  0  0  0  0  0  0  0  0  0
   11.1734  -18.6942   26.6431 C   0  0  0  0  0  0  0  0  0  0  0  0
   11.8048  -18.3415   25.3339 C   0  0  2  0  0  0  0  0  0  0  0  0
   10.7913  -18.3116   24.2909 N   0  0  0  0  0  0  0  0  0  0  0  0
   12.9197  -19.2550   24.9488 C   0  0  0  0  0  0  0  0  0  0  0  0
   12.7251  -20.2047   24.1539 O   0  0  0  0  0  0  0  0  0  0  0  0
   14.2118  -19.0958   25.4491 O   0  0  0  0  0  0  0  0  0  0  0  0
  2  1  1  0
  3  2  1  0
  3  4  1  0
  4  5  1  0
  5  7  1  0
  5  6  1  1
  7  8  2  0
  9 10  1  0
  9  7  1  0
 10 11  1  0
 11 12  2  0
 11 19  1  0
 14 13  1  0
 14 15  2  0
 16 17  1  0
 16 14  1  0
 18 20  1  0
 18 17  1  1
 19 18  1  0
 20 22  1  0
 21 20  2  0
M  END
$$$$
