MGQ.pdb
     RDKit          3D

 22 21  0  0  1  0  0  0  0  0999 V2000
    2.2819  -19.9062   22.2986 C   0  0  0  0  0  0  0  0  0  0  0  0
    3.5387  -18.6339   22.5264 S   0  0  0  0  0  0  0  0  0  0  0  0
    4.6348  -18.5227   21.0958 C   0  0  0  0  0  0  0  0  0  0  0  0
    5.7506  -17.5094   21.3367 C   0  0  0  0  0  0  0  0  0  0  0  0
    6.6346  -17.4829   20.1246 C   0  0  2  0  0  0  0  0  0  0  0  0
    7.0743  -18.8379   19.8332 N   0  0  0  0  0  0  0  0  0  0  0  0
    7.8063  -16.6229   20.3576 C   0  0  0  0  0  0  0  0  0  0  0  0
    7.6441  -15.4142   20.6965 O   0  0  0  0  0  0  0  0  0  0  0  0
    9.1441  -17.0903   20.2186 N   0  0  0  0  0  0  0  0  0  0  0  0
   10.2398  -16.1643   20.3875 C   0  0  0  0  0  0  0  0  0  0  0  0
   10.5838  -16.0138   21.8187 C   0  0  0  0  0  0  0  0  0  0  0  0
   11.6442  -15.3876   22.1082 O   0  0  0  0  0  0  0  0  0  0  0  0
    6.5922  -15.8396   26.6263 N   0  0  0  0  0  0  0  0  0  0  0  0
    6.9917  -14.8568   25.6810 C   0  0  0  0  0  0  0  0  0  0  0  0
    6.2616  -13.8501   25.5454 O   0  0  0  0  0  0  0  0  0  0  0  0
    8.2111  -14.9922   24.8784 C   0  0  0  0  0  0  0  0  0  0  0  0
    9.0211  -16.2124   25.1233 C   0  0  0  0  0  0  0  0  0  0  0  0
   10.2079  -16.4054   24.2336 C   0  0  2  0  0  0  0  0  0  0  0  0
    9.7708  -16.5434   22.8531 N   0  0  0  0  0  0  0  0  0  0  0  0
   11.0607  -17.5647   24.6269 C   0  0  0  0  0  0  0  0  0  0  0  0
   11.5993  -17.6099   25.7581 O   0  0  0  0  0  0  0  0  0  0  0  0
   11.2940  -18.6362   23.7653 O   0  0  0  0  0  0  0  0  0  0  0  0
  2  1  1  0
  3  2  1  0
  3  4  1  0
  4  5  1  0
  5  7  1  0
  5  6  1  1
  7  8  2  0
  9 10  1  0
  9  7  1  0
 10 11  1  0
 11 12  2  0
 11 19  1  0
 14 13  1  0
 14 15  2  0
 16 17  1  0
 16 14  1  0
 18 20  1  0
 18 17  1  1
 19 18  1  0
 20 22  1  0
 21 20  2  0
M  END
$$$$
