MGQ.pdb
     RDKit          3D

 22 21  0  0  1  0  0  0  0  0999 V2000
    6.8799  -10.7605   26.0214 C   0  0  0  0  0  0  0  0  0  0  0  0
    5.6491  -11.8838   26.7097 S   0  0  0  0  0  0  0  0  0  0  0  0
    6.1132  -13.6103   26.4557 C   0  0  0  0  0  0  0  0  0  0  0  0
    6.4707  -13.8734   24.9954 C   0  0  0  0  0  0  0  0  0  0  0  0
    6.8525  -15.3177   24.8552 C   0  0  2  0  0  0  0  0  0  0  0  0
    7.5181  -15.7489   26.0740 N   0  0  0  0  0  0  0  0  0  0  0  0
    7.7545  -15.5053   23.7072 C   0  0  0  0  0  0  0  0  0  0  0  0
    7.4477  -16.3231   22.7911 O   0  0  0  0  0  0  0  0  0  0  0  0
    8.9829  -14.7985   23.5697 N   0  0  0  0  0  0  0  0  0  0  0  0
    9.9703  -15.2697   22.6266 C   0  0  0  0  0  0  0  0  0  0  0  0
   10.9968  -16.0896   23.3072 C   0  0  0  0  0  0  0  0  0  0  0  0
   12.0323  -16.4027   22.6514 O   0  0  0  0  0  0  0  0  0  0  0  0
   11.4187  -15.9635   29.5594 N   0  0  0  0  0  0  0  0  0  0  0  0
   10.8306  -15.1788   28.5310 C   0  0  0  0  0  0  0  0  0  0  0  0
   10.1505  -14.1865   28.8739 O   0  0  0  0  0  0  0  0  0  0  0  0
   10.9975  -15.4981   27.1099 C   0  0  0  0  0  0  0  0  0  0  0  0
   11.9567  -16.5868   26.7942 C   0  0  0  0  0  0  0  0  0  0  0  0
   12.0216  -17.0136   25.3621 C   0  0  2  0  0  0  0  0  0  0  0  0
   10.8517  -16.5244   24.6494 N   0  0  0  0  0  0  0  0  0  0  0  0
   12.1557  -18.4894   25.1893 C   0  0  0  0  0  0  0  0  0  0  0  0
   13.1389  -19.1040   25.6660 O   0  0  0  0  0  0  0  0  0  0  0  0
   11.2058  -19.2418   24.4989 O   0  0  0  0  0  0  0  0  0  0  0  0
  2  1  1  0
  3  2  1  0
  3  4  1  0
  4  5  1  0
  5  7  1  0
  5  6  1  1
  7  8  2  0
  9 10  1  0
  9  7  1  0
 10 11  1  0
 11 12  2  0
 11 19  1  0
 14 13  1  0
 14 15  2  0
 16 17  1  0
 16 14  1  0
 18 20  1  0
 18 17  1  1
 19 18  1  0
 20 22  1  0
 21 20  2  0
M  END
$$$$
