MGQ.pdb
     RDKit          3D

 22 21  0  0  1  0  0  0  0  0999 V2000
    6.2904  -11.8989   27.9613 C   0  0  0  0  0  0  0  0  0  0  0  0
    7.2383  -12.0018   26.4313 S   0  0  0  0  0  0  0  0  0  0  0  0
    6.7711  -13.4502   25.4594 C   0  0  0  0  0  0  0  0  0  0  0  0
    7.5685  -13.5195   24.1597 C   0  0  0  0  0  0  0  0  0  0  0  0
    7.1689  -14.7660   23.4262 C   0  0  2  0  0  0  0  0  0  0  0  0
    6.9848  -15.8400   24.3891 N   0  0  0  0  0  0  0  0  0  0  0  0
    8.2050  -15.1479   22.4528 C   0  0  0  0  0  0  0  0  0  0  0  0
    8.6565  -14.2872   21.6420 O   0  0  0  0  0  0  0  0  0  0  0  0
    8.7384  -16.4657   22.3734 N   0  0  0  0  0  0  0  0  0  0  0  0
    9.7161  -16.7747   21.3560 C   0  0  0  0  0  0  0  0  0  0  0  0
   11.0889  -16.6669   21.8974 C   0  0  0  0  0  0  0  0  0  0  0  0
   11.9210  -17.5652   21.5796 O   0  0  0  0  0  0  0  0  0  0  0  0
    9.6226  -18.2344   26.6550 N   0  0  0  0  0  0  0  0  0  0  0  0
   10.9768  -17.9790   27.0011 C   0  0  0  0  0  0  0  0  0  0  0  0
   11.4094  -18.4779   28.0635 O   0  0  0  0  0  0  0  0  0  0  0  0
   11.8589  -17.1622   26.1618 C   0  0  0  0  0  0  0  0  0  0  0  0
   11.2466  -16.5895   24.9362 C   0  0  0  0  0  0  0  0  0  0  0  0
   12.1828  -15.9130   23.9859 C   0  0  2  0  0  0  0  0  0  0  0  0
   11.4871  -15.6029   22.7466 N   0  0  0  0  0  0  0  0  0  0  0  0
   13.4161  -16.7043   23.7053 C   0  0  0  0  0  0  0  0  0  0  0  0
   14.5480  -16.2542   24.0014 O   0  0  0  0  0  0  0  0  0  0  0  0
   13.3659  -17.9640   23.1088 O   0  0  0  0  0  0  0  0  0  0  0  0
  2  1  1  0
  3  2  1  0
  3  4  1  0
  4  5  1  0
  5  7  1  0
  5  6  1  1
  7  8  2  0
  9 10  1  0
  9  7  1  0
 10 11  1  0
 11 12  2  0
 11 19  1  0
 14 13  1  0
 14 15  2  0
 16 17  1  0
 16 14  1  0
 18 20  1  0
 18 17  1  1
 19 18  1  0
 20 22  1  0
 21 20  2  0
M  END
$$$$
