IRK.pdb
     RDKit          3D

 29 28  0  0  1  0  0  0  0  0999 V2000
   29.0189  -20.0167  -11.4112 C   0  0  0  0  0  0  0  0  0  0  0  0
   27.9719  -21.0422  -11.7847 C   0  0  0  0  0  0  0  0  0  0  0  0
   26.6098  -20.5651  -11.3293 C   0  0  2  0  0  0  0  0  0  0  0  0
   26.6965  -20.1942   -9.8856 C   0  0  0  0  0  0  0  0  0  0  0  0
   25.5008  -21.5059  -11.6765 C   0  0  2  0  0  0  0  0  0  0  0  0
   25.6578  -21.8842  -13.0672 N   0  0  0  0  0  0  0  0  0  0  0  0
   24.1477  -21.0058  -11.3793 C   0  0  0  0  0  0  0  0  0  0  0  0
   23.9251  -19.7702  -11.3381 O   0  0  0  0  0  0  0  0  0  0  0  0
   20.0097  -18.2753  -16.3904 N   0  0  0  0  0  0  0  0  0  0  0  0
   19.2879  -19.4341  -15.9592 C   0  0  0  0  0  0  0  0  0  0  0  0
   18.1408  -19.7262  -16.4581 N   0  0  0  0  0  0  0  0  0  0  0  0
   19.8331  -20.2837  -14.9668 N   0  0  0  0  0  0  0  0  0  0  0  0
   21.1248  -19.9671  -14.4191 C   0  0  0  0  0  0  0  0  0  0  0  0
   21.5705  -21.0512  -13.4183 C   0  0  0  0  0  0  0  0  0  0  0  0
   21.3388  -20.4833  -12.0675 C   0  0  0  0  0  0  0  0  0  0  0  0
   21.6824  -21.3297  -10.8960 C   0  0  2  0  0  0  0  0  0  0  0  0
   23.0468  -21.8671  -11.1286 N   0  0  0  0  0  0  0  0  0  0  0  0
   20.7975  -22.4670  -10.6172 C   0  0  0  0  0  0  0  0  0  0  0  0
   20.9966  -23.5450  -11.2668 O   0  0  0  0  0  0  0  0  0  0  0  0
   17.6216  -20.6000  -16.2205 N   0  0  0  0  0  0  0  0  0  0  0  0
   19.7451  -22.5032   -9.7001 C   0  0  2  0  0  0  0  0  0  0  0  0
   18.9333  -23.7631   -9.5086 C   0  0  0  0  0  0  0  0  0  0  0  0
   18.6250  -23.8105   -8.0622 C   0  0  0  0  0  0  0  0  0  0  0  0
   18.0420  -24.9285   -7.3651 C   0  0  0  0  0  0  0  0  0  0  0  0
   17.6978  -24.9251   -5.9357 C   0  0  0  0  0  0  0  0  0  0  0  0
   17.0903  -26.3396   -5.6340 N   0  0  0  0  0  0  0  0  0  0  0  0
   16.8432  -26.3575   -4.2231 C   0  0  0  0  0  0  0  0  0  0  0  0
   17.8234  -23.6093  -10.4473 O   0  0  0  0  0  0  0  0  0  0  0  0
   17.4220  -22.5093  -10.8402 O   0  0  0  0  0  0  0  0  0  0  0  0
  2  1  1  0
  2  3  1  0
  3  4  1  1
  5  6  1  6
  5  3  1  0
  7  5  1  0
  8  7  2  0
 10 12  1  0
 10  9  1  0
 11 10  2  0
 13 14  1  0
 13 12  1  0
 16 15  1  6
 15 14  1  0
 16 17  1  0
 17  7  1  0
 18 19  2  0
 18 16  1  0
 20 18  1  0
 21 20  1  0
 22 23  1  0
 21 22  1  1
 23 24  1  0
 24 25  1  0
 25 26  1  0
 27 29  1  0
 27 21  1  0
 28 27  2  0
M  END
$$$$
