IRK.pdb
     RDKit          3D

 29 28  0  0  1  0  0  0  0  0999 V2000
   16.2393  -16.2380  -17.6146 C   0  0  0  0  0  0  0  0  0  0  0  0
   16.6605  -14.8831  -18.1382 C   0  0  0  0  0  0  0  0  0  0  0  0
   17.7477  -14.3130  -17.2530 C   0  0  2  0  0  0  0  0  0  0  0  0
   17.2763  -14.3562  -15.8370 C   0  0  0  0  0  0  0  0  0  0  0  0
   18.2553  -12.9837  -17.7118 C   0  0  2  0  0  0  0  0  0  0  0  0
   18.7166  -13.1313  -19.0782 N   0  0  0  0  0  0  0  0  0  0  0  0
   19.2718  -12.3731  -16.8381 C   0  0  0  0  0  0  0  0  0  0  0  0
   19.0653  -12.2707  -15.6034 O   0  0  0  0  0  0  0  0  0  0  0  0
   25.6631  -15.3822  -16.2693 N   0  0  0  0  0  0  0  0  0  0  0  0
   26.3193  -14.1238  -16.4581 C   0  0  0  0  0  0  0  0  0  0  0  0
   27.5310  -14.0630  -16.8802 N   0  0  0  0  0  0  0  0  0  0  0  0
   25.6357  -12.9159  -16.1797 N   0  0  0  0  0  0  0  0  0  0  0  0
   24.2521  -12.9780  -15.7917 C   0  0  0  0  0  0  0  0  0  0  0  0
   23.3360  -12.8279  -17.0221 C   0  0  0  0  0  0  0  0  0  0  0  0
   22.8341  -11.4321  -16.9926 C   0  0  0  0  0  0  0  0  0  0  0  0
   21.4790  -11.1989  -16.4306 C   0  0  2  0  0  0  0  0  0  0  0  0
   20.5098  -11.8782  -17.3271 N   0  0  0  0  0  0  0  0  0  0  0  0
   21.0511   -9.8022  -16.2889 C   0  0  0  0  0  0  0  0  0  0  0  0
   21.0385   -9.0778  -17.3372 O   0  0  0  0  0  0  0  0  0  0  0  0
   28.0364  -13.1628  -17.0343 N   0  0  0  0  0  0  0  0  0  0  0  0
   20.6444   -9.1667  -15.1139 C   0  0  1  0  0  0  0  0  0  0  0  0
   20.2988   -7.6957  -15.1138 C   0  0  0  0  0  0  0  0  0  0  0  0
   18.8243   -7.6431  -15.0023 C   0  0  0  0  0  0  0  0  0  0  0  0
   18.0250   -6.4444  -15.0071 C   0  0  0  0  0  0  0  0  0  0  0  0
   16.5610   -6.4245  -14.8740 C   0  0  0  0  0  0  0  0  0  0  0  0
   16.1349   -4.9210  -15.0100 N   0  0  0  0  0  0  0  0  0  0  0  0
   14.7025   -4.9277  -15.0167 C   0  0  0  0  0  0  0  0  0  0  0  0
   21.0950   -7.1502  -14.0160 O   0  0  0  0  0  0  0  0  0  0  0  0
   21.6935   -7.8600  -13.2015 O   0  0  0  0  0  0  0  0  0  0  0  0
  2  1  1  0
  2  3  1  0
  3  4  1  1
  5  6  1  6
  5  3  1  0
  7  5  1  0
  8  7  2  0
 10 12  1  0
 10  9  1  0
 11 10  2  0
 13 14  1  0
 13 12  1  0
 16 15  1  6
 15 14  1  0
 16 17  1  0
 17  7  1  0
 18 19  2  0
 18 16  1  0
 20 18  1  0
 21 20  1  0
 22 23  1  0
 21 22  1  1
 23 24  1  0
 24 25  1  0
 25 26  1  0
 27 29  1  0
 27 21  1  0
 28 27  2  0
M  END
$$$$
