IRK.pdb
     RDKit          3D

 29 28  0  0  1  0  0  0  0  0999 V2000
   13.6353  -14.5045  -13.3289 C   0  0  0  0  0  0  0  0  0  0  0  0
   13.6291  -13.0454  -13.7268 C   0  0  0  0  0  0  0  0  0  0  0  0
   14.5600  -12.2688  -12.8208 C   0  0  2  0  0  0  0  0  0  0  0  0
   14.2094  -12.5799  -11.4033 C   0  0  0  0  0  0  0  0  0  0  0  0
   14.6360  -10.8124  -13.1500 C   0  0  2  0  0  0  0  0  0  0  0  0
   15.0094  -10.6908  -14.5456 N   0  0  0  0  0  0  0  0  0  0  0  0
   15.5070  -10.0212  -12.2641 C   0  0  0  0  0  0  0  0  0  0  0  0
   15.3809  -10.1018  -11.0169 O   0  0  0  0  0  0  0  0  0  0  0  0
   22.1637   -7.0186  -16.1644 N   0  0  0  0  0  0  0  0  0  0  0  0
   22.4272   -8.2758  -15.5321 C   0  0  0  0  0  0  0  0  0  0  0  0
   23.5334   -8.8988  -15.7271 N   0  0  0  0  0  0  0  0  0  0  0  0
   21.4628   -8.8567  -14.6739 N   0  0  0  0  0  0  0  0  0  0  0  0
   20.4934   -8.0013  -14.0437 C   0  0  0  0  0  0  0  0  0  0  0  0
   19.5002   -8.8310  -13.2066 C   0  0  0  0  0  0  0  0  0  0  0  0
   18.5256   -7.8626  -12.6469 C   0  0  0  0  0  0  0  0  0  0  0  0
   17.4075   -8.4033  -11.8319 C   0  0  2  0  0  0  0  0  0  0  0  0
   16.5117   -9.1455  -12.7544 N   0  0  0  0  0  0  0  0  0  0  0  0
   16.5871   -7.4292  -11.1023 C   0  0  0  0  0  0  0  0  0  0  0  0
   15.7702   -6.7207  -11.7764 O   0  0  0  0  0  0  0  0  0  0  0  0
   23.7729   -9.7973  -15.2530 N   0  0  0  0  0  0  0  0  0  0  0  0
   16.5976   -7.1899   -9.7267 C   0  0  1  0  0  0  0  0  0  0  0  0
   15.7255   -6.1122   -9.1257 C   0  0  0  0  0  0  0  0  0  0  0  0
   14.7129   -6.8343   -8.3240 C   0  0  0  0  0  0  0  0  0  0  0  0
   13.3635   -6.3915   -8.0815 C   0  0  0  0  0  0  0  0  0  0  0  0
   12.3754   -7.1403   -7.2912 C   0  0  0  0  0  0  0  0  0  0  0  0
   11.0518   -6.3002   -7.3459 N   0  0  0  0  0  0  0  0  0  0  0  0
   10.1194   -6.9994   -6.5128 C   0  0  0  0  0  0  0  0  0  0  0  0
   16.6726   -5.2466   -8.4256 O   0  0  0  0  0  0  0  0  0  0  0  0
   17.8095   -5.6107   -8.1088 O   0  0  0  0  0  0  0  0  0  0  0  0
  2  1  1  0
  2  3  1  0
  3  4  1  1
  5  6  1  6
  5  3  1  0
  7  5  1  0
  8  7  2  0
 10 12  1  0
 10  9  1  0
 11 10  2  0
 13 14  1  0
 13 12  1  0
 16 15  1  6
 15 14  1  0
 16 17  1  0
 17  7  1  0
 18 19  2  0
 18 16  1  0
 20 18  1  0
 21 20  1  0
 22 23  1  0
 21 22  1  6
 23 24  1  0
 24 25  1  0
 25 26  1  0
 27 29  1  0
 27 21  1  0
 28 27  2  0
M  END
$$$$
