IRK.pdb
     RDKit          3D

 29 28  0  0  1  0  0  0  0  0999 V2000
   24.9237  -19.9785   -8.1759 C   0  0  0  0  0  0  0  0  0  0  0  0
   24.2326  -20.8271   -9.2198 C   0  0  0  0  0  0  0  0  0  0  0  0
   22.8153  -21.1205   -8.7778 C   0  0  2  0  0  0  0  0  0  0  0  0
   22.8557  -21.6607   -7.3865 C   0  0  0  0  0  0  0  0  0  0  0  0
   22.0435  -21.9465   -9.7563 C   0  0  2  0  0  0  0  0  0  0  0  0
   22.0974  -21.2786  -11.0420 N   0  0  0  0  0  0  0  0  0  0  0  0
   20.6655  -22.2666   -9.3464 C   0  0  0  0  0  0  0  0  0  0  0  0
   19.7330  -21.4574   -9.5772 O   0  0  0  0  0  0  0  0  0  0  0  0
   15.5352  -28.1890   -9.4771 N   0  0  0  0  0  0  0  0  0  0  0  0
   15.1640  -27.5290  -10.6921 C   0  0  0  0  0  0  0  0  0  0  0  0
   13.9667  -27.6056  -11.1509 N   0  0  0  0  0  0  0  0  0  0  0  0
   16.1206  -26.7744  -11.4130 N   0  0  0  0  0  0  0  0  0  0  0  0
   17.4350  -26.6086  -10.8532 C   0  0  0  0  0  0  0  0  0  0  0  0
   17.3923  -25.6594   -9.6397 C   0  0  0  0  0  0  0  0  0  0  0  0
   18.6842  -24.9301   -9.6430 C   0  0  0  0  0  0  0  0  0  0  0  0
   18.9085  -23.9208   -8.5764 C   0  0  2  0  0  0  0  0  0  0  0  0
   20.3205  -23.4749   -8.6848 N   0  0  0  0  0  0  0  0  0  0  0  0
   18.6840  -24.3567   -7.1930 C   0  0  0  0  0  0  0  0  0  0  0  0
   19.7020  -24.7022   -6.5089 O   0  0  0  0  0  0  0  0  0  0  0  0
   13.6651  -27.1434  -12.0369 N   0  0  0  0  0  0  0  0  0  0  0  0
   17.4586  -24.4327   -6.5280 C   0  0  2  0  0  0  0  0  0  0  0  0
   17.3987  -24.7965   -5.0627 C   0  0  0  0  0  0  0  0  0  0  0  0
   16.1837  -24.1285   -4.5460 C   0  0  0  0  0  0  0  0  0  0  0  0
   15.8117  -24.0207   -3.1583 C   0  0  0  0  0  0  0  0  0  0  0  0
   14.6513  -23.2624   -2.6683 C   0  0  0  0  0  0  0  0  0  0  0  0
   14.6124  -23.4866   -1.1162 N   0  0  0  0  0  0  0  0  0  0  0  0
   13.5426  -22.6635   -0.6368 C   0  0  0  0  0  0  0  0  0  0  0  0
   17.4366  -26.2577   -5.0639 O   0  0  0  0  0  0  0  0  0  0  0  0
   17.0347  -26.9404   -6.0115 O   0  0  0  0  0  0  0  0  0  0  0  0
  2  1  1  0
  2  3  1  0
  3  4  1  1
  5  6  1  6
  5  3  1  0
  7  5  1  0
  8  7  2  0
 10 12  1  0
 10  9  1  0
 11 10  2  0
 13 14  1  0
 13 12  1  0
 16 15  1  6
 15 14  1  0
 16 17  1  0
 17  7  1  0
 18 19  2  0
 18 16  1  0
 20 18  1  0
 21 20  1  0
 22 23  1  0
 21 22  1  6
 23 24  1  0
 24 25  1  0
 25 26  1  0
 27 29  1  0
 27 21  1  0
 28 27  2  0
M  END
$$$$
