IRK.pdb
     RDKit          3D

 29 28  0  0  1  0  0  0  0  0999 V2000
   22.0727  -13.5396  -19.3780 C   0  0  0  0  0  0  0  0  0  0  0  0
   23.1384  -14.5743  -19.0933 C   0  0  0  0  0  0  0  0  0  0  0  0
   22.5303  -15.7323  -18.3319 C   0  0  2  0  0  0  0  0  0  0  0  0
   21.8016  -15.1892  -17.1473 C   0  0  0  0  0  0  0  0  0  0  0  0
   23.5043  -16.8257  -18.0303 C   0  0  2  0  0  0  0  0  0  0  0  0
   24.1477  -17.2035  -19.2734 N   0  0  0  0  0  0  0  0  0  0  0  0
   22.9363  -17.9826  -17.3172 C   0  0  0  0  0  0  0  0  0  0  0  0
   21.8151  -18.4415  -17.6487 O   0  0  0  0  0  0  0  0  0  0  0  0
   26.4539  -24.0663  -15.4689 N   0  0  0  0  0  0  0  0  0  0  0  0
   27.0721  -23.3646  -16.5530 C   0  0  0  0  0  0  0  0  0  0  0  0
   27.4294  -23.9778  -17.6236 N   0  0  0  0  0  0  0  0  0  0  0  0
   27.3011  -21.9707  -16.4601 N   0  0  0  0  0  0  0  0  0  0  0  0
   26.4491  -21.1853  -15.6082 C   0  0  0  0  0  0  0  0  0  0  0  0
   24.9655  -21.4840  -15.9002 C   0  0  0  0  0  0  0  0  0  0  0  0
   24.1838  -20.5917  -15.0093 C   0  0  0  0  0  0  0  0  0  0  0  0
   23.0453  -19.8474  -15.6064 C   0  0  2  0  0  0  0  0  0  0  0  0
   23.6043  -18.6282  -16.2431 N   0  0  0  0  0  0  0  0  0  0  0  0
   21.9781  -19.4231  -14.6925 C   0  0  0  0  0  0  0  0  0  0  0  0
   22.1220  -18.3089  -14.0913 O   0  0  0  0  0  0  0  0  0  0  0  0
   27.8985  -23.5003  -18.4245 N   0  0  0  0  0  0  0  0  0  0  0  0
   20.7986  -20.1133  -14.4055 C   0  0  1  0  0  0  0  0  0  0  0  0
   19.7366  -19.4920  -13.5284 C   0  0  0  0  0  0  0  0  0  0  0  0
   19.2792  -18.2920  -14.2634 C   0  0  0  0  0  0  0  0  0  0  0  0
   18.3523  -17.3071  -13.7669 C   0  0  0  0  0  0  0  0  0  0  0  0
   17.8582  -16.1653  -14.5505 C   0  0  0  0  0  0  0  0  0  0  0  0
   16.8664  -15.3936  -13.6117 N   0  0  0  0  0  0  0  0  0  0  0  0
   16.5140  -14.2015  -14.3237 C   0  0  0  0  0  0  0  0  0  0  0  0
   18.7814  -20.5775  -13.3146 O   0  0  0  0  0  0  0  0  0  0  0  0
   18.7612  -21.6017  -14.0047 O   0  0  0  0  0  0  0  0  0  0  0  0
  2  1  1  0
  2  3  1  0
  3  4  1  1
  5  6  1  6
  5  3  1  0
  7  5  1  0
  8  7  2  0
 10 12  1  0
 10  9  1  0
 11 10  2  0
 13 14  1  0
 13 12  1  0
 16 15  1  1
 15 14  1  0
 16 17  1  0
 17  7  1  0
 18 19  2  0
 18 16  1  0
 20 18  1  0
 21 20  1  0
 22 23  1  0
 21 22  1  1
 23 24  1  0
 24 25  1  0
 25 26  1  0
 27 29  1  0
 27 21  1  0
 28 27  2  0
M  END
$$$$
