IRK.pdb
     RDKit          3D

 29 28  0  0  1  0  0  0  0  0999 V2000
   23.2421   -9.1760    7.7867 C   0  0  0  0  0  0  0  0  0  0  0  0
   22.4771  -10.0163    8.7847 C   0  0  0  0  0  0  0  0  0  0  0  0
   21.8589  -11.2040    8.0791 C   0  0  2  0  0  0  0  0  0  0  0  0
   21.0530  -10.7028    6.9265 C   0  0  0  0  0  0  0  0  0  0  0  0
   21.1376  -12.1359    8.9992 C   0  0  2  0  0  0  0  0  0  0  0  0
   22.0216  -12.4392   10.1075 N   0  0  0  0  0  0  0  0  0  0  0  0
   20.6030  -13.3495    8.3582 C   0  0  0  0  0  0  0  0  0  0  0  0
   21.3775  -14.1559    7.7859 O   0  0  0  0  0  0  0  0  0  0  0  0
   15.6733  -18.9778   10.7656 N   0  0  0  0  0  0  0  0  0  0  0  0
   16.5236  -19.7931    9.9520 C   0  0  0  0  0  0  0  0  0  0  0  0
   16.0767  -20.8498    9.3745 N   0  0  0  0  0  0  0  0  0  0  0  0
   17.8832  -19.4431    9.7699 N   0  0  0  0  0  0  0  0  0  0  0  0
   18.2751  -18.0718    9.9559 C   0  0  0  0  0  0  0  0  0  0  0  0
   18.2388  -17.3104    8.6163 C   0  0  0  0  0  0  0  0  0  0  0  0
   18.7295  -15.9413    8.9087 C   0  0  0  0  0  0  0  0  0  0  0  0
   18.7272  -14.9564    7.7966 C   0  0  2  0  0  0  0  0  0  0  0  0
   19.2194  -13.6695    8.3497 N   0  0  0  0  0  0  0  0  0  0  0  0
   17.4387  -14.6966    7.1435 C   0  0  0  0  0  0  0  0  0  0  0  0
   16.6525  -13.8605    7.6971 O   0  0  0  0  0  0  0  0  0  0  0  0
   16.6649  -21.4568    8.7621 N   0  0  0  0  0  0  0  0  0  0  0  0
   16.9702  -15.2695    5.9594 C   0  0  2  0  0  0  0  0  0  0  0  0
   15.5711  -14.9829    5.4660 C   0  0  0  0  0  0  0  0  0  0  0  0
   15.7381  -13.9964    4.3759 C   0  0  0  0  0  0  0  0  0  0  0  0
   14.7596  -13.0190    3.9720 C   0  0  0  0  0  0  0  0  0  0  0  0
   14.9746  -12.0193    2.9157 C   0  0  0  0  0  0  0  0  0  0  0  0
   13.7276  -11.0687    2.9598 N   0  0  0  0  0  0  0  0  0  0  0  0
   13.8994  -10.1601    1.8657 C   0  0  0  0  0  0  0  0  0  0  0  0
   15.0426  -16.3033    5.1284 O   0  0  0  0  0  0  0  0  0  0  0  0
   15.7369  -17.3247    5.1235 O   0  0  0  0  0  0  0  0  0  0  0  0
  2  1  1  0
  2  3  1  0
  3  4  1  6
  5  6  1  1
  5  3  1  0
  7  5  1  0
  8  7  2  0
 10 12  1  0
 10  9  1  0
 11 10  2  0
 13 14  1  0
 13 12  1  0
 16 15  1  1
 15 14  1  0
 16 17  1  0
 17  7  1  0
 18 19  2  0
 18 16  1  0
 20 18  1  0
 21 20  1  0
 22 23  1  0
 21 22  1  6
 23 24  1  0
 24 25  1  0
 25 26  1  0
 27 29  1  0
 27 21  1  0
 28 27  2  0
M  END
$$$$
