IRK.pdb
     RDKit          3D

 29 28  0  0  1  0  0  0  0  0999 V2000
   28.3407  -19.1904   -5.3679 C   0  0  0  0  0  0  0  0  0  0  0  0
   28.3126  -20.1775   -6.5135 C   0  0  0  0  0  0  0  0  0  0  0  0
   26.9668  -20.1161   -7.2029 C   0  0  2  0  0  0  0  0  0  0  0  0
   25.9022  -20.3620   -6.1854 C   0  0  0  0  0  0  0  0  0  0  0  0
   26.8834  -20.9707   -8.4268 C   0  0  2  0  0  0  0  0  0  0  0  0
   28.1712  -20.9231   -9.0910 N   0  0  0  0  0  0  0  0  0  0  0  0
   25.7701  -20.6459   -9.3350 C   0  0  0  0  0  0  0  0  0  0  0  0
   25.6318  -19.4768   -9.7729 O   0  0  0  0  0  0  0  0  0  0  0  0
   24.8102  -23.5463  -15.1824 N   0  0  0  0  0  0  0  0  0  0  0  0
   23.9017  -22.4614  -15.4002 C   0  0  0  0  0  0  0  0  0  0  0  0
   22.8203  -22.6254  -16.0737 N   0  0  0  0  0  0  0  0  0  0  0  0
   24.1846  -21.1792  -14.8712 N   0  0  0  0  0  0  0  0  0  0  0  0
   25.3837  -20.9995  -14.0976 C   0  0  0  0  0  0  0  0  0  0  0  0
   25.0471  -20.4708  -12.6895 C   0  0  0  0  0  0  0  0  0  0  0  0
   24.1847  -21.5005  -12.0595 C   0  0  0  0  0  0  0  0  0  0  0  0
   23.7069  -21.2467  -10.6761 C   0  0  2  0  0  0  0  0  0  0  0  0
   24.8149  -21.6085   -9.7564 N   0  0  0  0  0  0  0  0  0  0  0  0
   22.5111  -21.9790  -10.2426 C   0  0  0  0  0  0  0  0  0  0  0  0
   22.6834  -23.0642   -9.5972 O   0  0  0  0  0  0  0  0  0  0  0  0
   22.1071  -21.8735  -16.1987 N   0  0  0  0  0  0  0  0  0  0  0  0
   21.1812  -21.6118  -10.4575 C   0  0  2  0  0  0  0  0  0  0  0  0
   20.0553  -22.5581  -10.1114 C   0  0  0  0  0  0  0  0  0  0  0  0
   19.0554  -21.7292   -9.4025 C   0  0  0  0  0  0  0  0  0  0  0  0
   17.7528  -22.1704   -8.9732 C   0  0  0  0  0  0  0  0  0  0  0  0
   17.4069  -22.5015   -7.5831 C   0  0  0  0  0  0  0  0  0  0  0  0
   15.9066  -22.9591   -7.6081 N   0  0  0  0  0  0  0  0  0  0  0  0
   15.5834  -23.2872   -6.2517 C   0  0  0  0  0  0  0  0  0  0  0  0
   19.6818  -23.1419  -11.3983 O   0  0  0  0  0  0  0  0  0  0  0  0
   19.8758  -22.5727  -12.4771 O   0  0  0  0  0  0  0  0  0  0  0  0
  2  1  1  0
  2  3  1  0
  3  4  1  1
  5  6  1  6
  5  3  1  0
  7  5  1  0
  8  7  2  0
 10 12  1  0
 10  9  1  0
 11 10  2  0
 13 14  1  0
 13 12  1  0
 16 15  1  6
 15 14  1  0
 16 17  1  0
 17  7  1  0
 18 19  2  0
 18 16  1  0
 20 18  1  0
 21 20  1  0
 22 23  1  0
 21 22  1  6
 23 24  1  0
 24 25  1  0
 25 26  1  0
 27 29  1  0
 27 21  1  0
 28 27  2  0
M  END
$$$$
