IRK.pdb
     RDKit          3D

 29 28  0  0  1  0  0  0  0  0999 V2000
   14.5286  -26.6073   -6.7472 C   0  0  0  0  0  0  0  0  0  0  0  0
   15.2748  -26.4494   -5.4412 C   0  0  0  0  0  0  0  0  0  0  0  0
   15.8260  -25.0437   -5.3389 C   0  0  2  0  0  0  0  0  0  0  0  0
   16.6700  -24.7777   -6.5414 C   0  0  0  0  0  0  0  0  0  0  0  0
   16.4823  -24.7537   -4.0272 C   0  0  2  0  0  0  0  0  0  0  0  0
   17.6914  -25.5499   -3.9493 N   0  0  0  0  0  0  0  0  0  0  0  0
   15.6166  -24.9295   -2.8486 C   0  0  0  0  0  0  0  0  0  0  0  0
   15.7958  -25.8999   -2.0715 O   0  0  0  0  0  0  0  0  0  0  0  0
   12.2807  -18.2246   -0.4622 N   0  0  0  0  0  0  0  0  0  0  0  0
   13.1886  -18.9444    0.3788 C   0  0  0  0  0  0  0  0  0  0  0  0
   13.4882  -18.5169    1.5524 N   0  0  0  0  0  0  0  0  0  0  0  0
   13.7755  -20.1500   -0.0752 N   0  0  0  0  0  0  0  0  0  0  0  0
   13.9133  -21.2430    0.8495 C   0  0  0  0  0  0  0  0  0  0  0  0
   14.4897  -22.4843    0.1406 C   0  0  0  0  0  0  0  0  0  0  0  0
   13.3962  -23.0170   -0.7087 C   0  0  0  0  0  0  0  0  0  0  0  0
   13.6306  -24.3085   -1.4041 C   0  0  2  0  0  0  0  0  0  0  0  0
   14.5583  -24.0374   -2.5312 N   0  0  0  0  0  0  0  0  0  0  0  0
   12.4519  -24.9905   -1.9517 C   0  0  0  0  0  0  0  0  0  0  0  0
   12.0611  -24.6531   -3.1166 O   0  0  0  0  0  0  0  0  0  0  0  0
   14.1065  -19.0416    2.2096 N   0  0  0  0  0  0  0  0  0  0  0  0
   11.6991  -25.9890   -1.3304 C   0  0  2  0  0  0  0  0  0  0  0  0
   10.6327  -26.7379   -2.0953 C   0  0  0  0  0  0  0  0  0  0  0  0
   10.5779  -28.0792   -1.4728 C   0  0  0  0  0  0  0  0  0  0  0  0
    9.6596  -29.1313   -1.8271 C   0  0  0  0  0  0  0  0  0  0  0  0
    9.5426  -30.4066   -1.1050 C   0  0  0  0  0  0  0  0  0  0  0  0
    8.4138  -31.2149   -1.8352 N   0  0  0  0  0  0  0  0  0  0  0  0
    8.4013  -32.5045   -1.2115 C   0  0  0  0  0  0  0  0  0  0  0  0
    9.4562  -25.8772   -1.9874 O   0  0  0  0  0  0  0  0  0  0  0  0
    9.3443  -24.9950   -1.1303 O   0  0  0  0  0  0  0  0  0  0  0  0
  2  1  1  0
  2  3  1  0
  3  4  1  6
  5  6  1  1
  5  3  1  0
  7  5  1  0
  8  7  2  0
 10 12  1  0
 10  9  1  0
 11 10  2  0
 13 14  1  0
 13 12  1  0
 16 15  1  6
 15 14  1  0
 16 17  1  0
 17  7  1  0
 18 19  2  0
 18 16  1  0
 20 18  1  0
 21 20  1  0
 22 23  1  0
 21 22  1  1
 23 24  1  0
 24 25  1  0
 25 26  1  0
 27 29  1  0
 27 21  1  0
 28 27  2  0
M  END
$$$$
