IRK.pdb
     RDKit          3D

 29 28  0  0  1  0  0  0  0  0999 V2000
   13.3890  -24.5291  -13.5052 C   0  0  0  0  0  0  0  0  0  0  0  0
   14.6907  -24.5468  -12.7354 C   0  0  0  0  0  0  0  0  0  0  0  0
   15.5107  -23.3274  -13.0978 C   0  0  2  0  0  0  0  0  0  0  0  0
   15.6213  -23.2564  -14.5850 C   0  0  0  0  0  0  0  0  0  0  0  0
   16.8086  -23.2402  -12.3608 C   0  0  2  0  0  0  0  0  0  0  0  0
   16.5120  -23.1864  -10.9427 N   0  0  0  0  0  0  0  0  0  0  0  0
   17.6938  -22.1448  -12.7918 C   0  0  0  0  0  0  0  0  0  0  0  0
   17.4167  -20.9552  -12.4987 O   0  0  0  0  0  0  0  0  0  0  0  0
   25.6643  -23.2858  -14.6225 N   0  0  0  0  0  0  0  0  0  0  0  0
   24.3567  -23.7874  -14.3252 C   0  0  0  0  0  0  0  0  0  0  0  0
   24.1747  -25.0166  -13.9997 N   0  0  0  0  0  0  0  0  0  0  0  0
   23.2338  -22.9275  -14.3859 N   0  0  0  0  0  0  0  0  0  0  0  0
   23.4399  -21.5436  -14.7189 C   0  0  0  0  0  0  0  0  0  0  0  0
   22.0996  -20.7826  -14.7303 C   0  0  0  0  0  0  0  0  0  0  0  0
   21.0955  -21.7107  -14.1546 C   0  0  0  0  0  0  0  0  0  0  0  0
   19.6941  -21.2298  -14.0481 C   0  0  2  0  0  0  0  0  0  0  0  0
   18.8789  -22.3633  -13.5433 N   0  0  0  0  0  0  0  0  0  0  0  0
   19.0644  -20.7430  -15.2813 C   0  0  0  0  0  0  0  0  0  0  0  0
   18.6394  -21.6113  -16.1114 O   0  0  0  0  0  0  0  0  0  0  0  0
   23.2361  -25.4135  -13.7739 N   0  0  0  0  0  0  0  0  0  0  0  0
   18.8709  -19.4108  -15.6525 C   0  0  2  0  0  0  0  0  0  0  0  0
   18.1772  -19.0658  -16.9498 C   0  0  0  0  0  0  0  0  0  0  0  0
   17.9945  -17.5978  -16.9140 C   0  0  0  0  0  0  0  0  0  0  0  0
   16.7517  -16.9018  -17.1297 C   0  0  0  0  0  0  0  0  0  0  0  0
   16.5872  -15.4453  -17.0148 C   0  0  0  0  0  0  0  0  0  0  0  0
   15.0665  -15.1603  -17.2736 N   0  0  0  0  0  0  0  0  0  0  0  0
   14.9092  -13.7454  -17.1140 C   0  0  0  0  0  0  0  0  0  0  0  0
   19.0541  -19.6285  -17.9750 O   0  0  0  0  0  0  0  0  0  0  0  0
   20.2862  -19.6060  -17.8928 O   0  0  0  0  0  0  0  0  0  0  0  0
  2  1  1  0
  2  3  1  0
  3  4  1  6
  5  6  1  1
  5  3  1  0
  7  5  1  0
  8  7  2  0
 10 12  1  0
 10  9  1  0
 11 10  2  0
 13 14  1  0
 13 12  1  0
 16 15  1  6
 15 14  1  0
 16 17  1  0
 17  7  1  0
 18 19  2  0
 18 16  1  0
 20 18  1  0
 21 20  1  0
 22 23  1  0
 21 22  1  1
 23 24  1  0
 24 25  1  0
 25 26  1  0
 27 29  1  0
 27 21  1  0
 28 27  2  0
M  END
$$$$
