IRK.pdb
     RDKit          3D

 29 28  0  0  1  0  0  0  0  0999 V2000
   23.6955  -29.4382  -17.7567 C   0  0  0  0  0  0  0  0  0  0  0  0
   22.2692  -29.1329  -17.3572 C   0  0  0  0  0  0  0  0  0  0  0  0
   22.2261  -27.8314  -16.5860 C   0  0  2  0  0  0  0  0  0  0  0  0
   23.2255  -27.9039  -15.4792 C   0  0  0  0  0  0  0  0  0  0  0  0
   20.8475  -27.4293  -16.1699 C   0  0  2  0  0  0  0  0  0  0  0  0
   20.0799  -27.1649  -17.3710 N   0  0  0  0  0  0  0  0  0  0  0  0
   20.7904  -26.3141  -15.2095 C   0  0  0  0  0  0  0  0  0  0  0  0
   21.4550  -26.3619  -14.1447 O   0  0  0  0  0  0  0  0  0  0  0  0
   23.3084  -20.7550  -17.1792 N   0  0  0  0  0  0  0  0  0  0  0  0
   22.3819  -20.8848  -18.2629 C   0  0  0  0  0  0  0  0  0  0  0  0
   22.7897  -21.0066  -19.4748 N   0  0  0  0  0  0  0  0  0  0  0  0
   20.9886  -20.8809  -18.0124 N   0  0  0  0  0  0  0  0  0  0  0  0
   20.5308  -20.9488  -16.6506 C   0  0  0  0  0  0  0  0  0  0  0  0
   20.9940  -22.2605  -15.9870 C   0  0  0  0  0  0  0  0  0  0  0  0
   19.8234  -22.7764  -15.2357 C   0  0  0  0  0  0  0  0  0  0  0  0
   20.0023  -24.0278  -14.4556 C   0  0  2  0  0  0  0  0  0  0  0  0
   20.0026  -25.1523  -15.4250 N   0  0  0  0  0  0  0  0  0  0  0  0
   18.9917  -24.3219  -13.4327 C   0  0  0  0  0  0  0  0  0  0  0  0
   17.8959  -24.8465  -13.8171 O   0  0  0  0  0  0  0  0  0  0  0  0
   22.1418  -21.1102  -20.2866 N   0  0  0  0  0  0  0  0  0  0  0  0
   19.0992  -24.0916  -12.0597 C   0  0  2  0  0  0  0  0  0  0  0  0
   17.9501  -24.4129  -11.1326 C   0  0  0  0  0  0  0  0  0  0  0  0
   18.5703  -24.6338   -9.8074 C   0  0  0  0  0  0  0  0  0  0  0  0
   17.8643  -24.9617   -8.5951 C   0  0  0  0  0  0  0  0  0  0  0  0
   18.5168  -25.2707   -7.3143 C   0  0  0  0  0  0  0  0  0  0  0  0
   17.3607  -25.4146   -6.2638 N   0  0  0  0  0  0  0  0  0  0  0  0
   17.9897  -25.8771   -5.0628 C   0  0  0  0  0  0  0  0  0  0  0  0
   17.0450  -23.2762  -11.2913 O   0  0  0  0  0  0  0  0  0  0  0  0
   17.4249  -22.1600  -11.6591 O   0  0  0  0  0  0  0  0  0  0  0  0
  2  1  1  0
  2  3  1  0
  3  4  1  1
  5  6  1  6
  5  3  1  0
  7  5  1  0
  8  7  2  0
 10 12  1  0
 10  9  1  0
 11 10  2  0
 13 14  1  0
 13 12  1  0
 16 15  1  6
 15 14  1  0
 16 17  1  0
 17  7  1  0
 18 19  2  0
 18 16  1  0
 20 18  1  0
 21 20  1  0
 22 23  1  0
 21 22  1  6
 23 24  1  0
 24 25  1  0
 25 26  1  0
 27 29  1  0
 27 21  1  0
 28 27  2  0
M  END
$$$$
