IRK.pdb
     RDKit          3D

 29 28  0  0  1  0  0  0  0  0999 V2000
   28.5831  -23.6691  -16.6539 C   0  0  0  0  0  0  0  0  0  0  0  0
   28.3009  -22.4266  -15.8391 C   0  0  0  0  0  0  0  0  0  0  0  0
   27.1764  -21.6435  -16.4814 C   0  0  2  0  0  0  0  0  0  0  0  0
   27.5239  -21.4047  -17.9137 C   0  0  0  0  0  0  0  0  0  0  0  0
   26.7837  -20.4229  -15.7125 C   0  0  2  0  0  0  0  0  0  0  0  0
   26.6428  -20.8008  -14.3200 N   0  0  0  0  0  0  0  0  0  0  0  0
   25.5954  -19.7214  -16.2276 C   0  0  0  0  0  0  0  0  0  0  0  0
   25.5942  -19.2509  -17.3923 O   0  0  0  0  0  0  0  0  0  0  0  0
   19.5606  -22.9352  -13.0899 N   0  0  0  0  0  0  0  0  0  0  0  0
   18.9124  -22.7217  -14.3485 C   0  0  0  0  0  0  0  0  0  0  0  0
   18.2403  -23.6572  -14.9169 N   0  0  0  0  0  0  0  0  0  0  0  0
   19.0033  -21.4638  -14.9915 N   0  0  0  0  0  0  0  0  0  0  0  0
   20.0293  -20.5464  -14.5740 C   0  0  0  0  0  0  0  0  0  0  0  0
   21.0520  -20.3243  -15.7055 C   0  0  0  0  0  0  0  0  0  0  0  0
   22.0484  -19.3614  -15.1753 C   0  0  0  0  0  0  0  0  0  0  0  0
   23.1786  -18.9814  -16.0613 C   0  0  2  0  0  0  0  0  0  0  0  0
   24.4150  -19.5408  -15.4590 N   0  0  0  0  0  0  0  0  0  0  0  0
   23.3983  -17.5465  -16.2775 C   0  0  0  0  0  0  0  0  0  0  0  0
   23.7128  -16.8371  -15.2667 O   0  0  0  0  0  0  0  0  0  0  0  0
   17.8039  -23.5536  -15.8594 N   0  0  0  0  0  0  0  0  0  0  0  0
   23.3044  -16.8587  -17.4891 C   0  0  2  0  0  0  0  0  0  0  0  0
   23.4969  -15.3609  -17.5415 C   0  0  0  0  0  0  0  0  0  0  0  0
   24.7156  -15.1541  -18.3547 C   0  0  0  0  0  0  0  0  0  0  0  0
   25.2859  -13.8773  -18.7013 C   0  0  0  0  0  0  0  0  0  0  0  0
   26.5416  -13.7059  -19.4467 C   0  0  0  0  0  0  0  0  0  0  0  0
   26.7225  -12.1596  -19.6391 N   0  0  0  0  0  0  0  0  0  0  0  0
   27.9521  -12.0040  -20.3574 C   0  0  0  0  0  0  0  0  0  0  0  0
   22.2252  -14.8636  -18.0631 O   0  0  0  0  0  0  0  0  0  0  0  0
   21.9764  -13.6610  -18.1954 O   0  0  0  0  0  0  0  0  0  0  0  0
  2  1  1  0
  2  3  1  0
  3  4  1  6
  5  6  1  1
  5  3  1  0
  7  5  1  0
  8  7  2  0
 10 12  1  0
 10  9  1  0
 11 10  2  0
 13 14  1  0
 13 12  1  0
 16 15  1  1
 15 14  1  0
 16 17  1  0
 17  7  1  0
 18 19  2  0
 18 16  1  0
 20 18  1  0
 21 20  1  0
 22 23  1  0
 21 22  1  1
 23 24  1  0
 24 25  1  0
 25 26  1  0
 27 29  1  0
 27 21  1  0
 28 27  2  0
M  END
$$$$
