IRK.pdb
     RDKit          3D

 29 28  0  0  1  0  0  0  0  0999 V2000
   17.5579  -20.5702  -14.7832 C   0  0  0  0  0  0  0  0  0  0  0  0
   18.7196  -21.5342  -14.6906 C   0  0  0  0  0  0  0  0  0  0  0  0
   20.0218  -20.7713  -14.8025 C   0  0  2  0  0  0  0  0  0  0  0  0
   20.5333  -20.9103  -16.1983 C   0  0  0  0  0  0  0  0  0  0  0  0
   21.0066  -21.1103  -13.7298 C   0  0  2  0  0  0  0  0  0  0  0  0
   20.4034  -20.7829  -12.4528 N   0  0  0  0  0  0  0  0  0  0  0  0
   22.3376  -20.5018  -13.8954 C   0  0  0  0  0  0  0  0  0  0  0  0
   22.5104  -19.2822  -13.6492 O   0  0  0  0  0  0  0  0  0  0  0  0
   26.4137  -20.0398   -9.1806 N   0  0  0  0  0  0  0  0  0  0  0  0
   25.3352  -20.9467   -9.4338 C   0  0  0  0  0  0  0  0  0  0  0  0
   24.2969  -20.9720   -8.6779 N   0  0  0  0  0  0  0  0  0  0  0  0
   25.3976  -21.8378  -10.5319 N   0  0  0  0  0  0  0  0  0  0  0  0
   26.5214  -21.7560  -11.4258 C   0  0  0  0  0  0  0  0  0  0  0  0
   26.3008  -20.6490  -12.4752 C   0  0  0  0  0  0  0  0  0  0  0  0
   25.7703  -21.3279  -13.6830 C   0  0  0  0  0  0  0  0  0  0  0  0
   24.7917  -20.5845  -14.5174 C   0  0  2  0  0  0  0  0  0  0  0  0
   23.4714  -21.2376  -14.3311 N   0  0  0  0  0  0  0  0  0  0  0  0
   25.0595  -20.5251  -15.9593 C   0  0  0  0  0  0  0  0  0  0  0  0
   24.8381  -21.5753  -16.6461 O   0  0  0  0  0  0  0  0  0  0  0  0
   23.4742  -21.5880   -8.8599 N   0  0  0  0  0  0  0  0  0  0  0  0
   25.5342  -19.4257  -16.6775 C   0  0  1  0  0  0  0  0  0  0  0  0
   25.7065  -19.5014  -18.1768 C   0  0  0  0  0  0  0  0  0  0  0  0
   25.5786  -18.1064  -18.6533 C   0  0  0  0  0  0  0  0  0  0  0  0
   25.3276  -17.7045  -20.0139 C   0  0  0  0  0  0  0  0  0  0  0  0
   25.3457  -16.3112  -20.4829 C   0  0  0  0  0  0  0  0  0  0  0  0
   25.0609  -16.3702  -22.0243 N   0  0  0  0  0  0  0  0  0  0  0  0
   25.1389  -15.0145  -22.4806 C   0  0  0  0  0  0  0  0  0  0  0  0
   26.9927  -20.1747  -18.3468 O   0  0  0  0  0  0  0  0  0  0  0  0
   27.8857  -20.1449  -17.4941 O   0  0  0  0  0  0  0  0  0  0  0  0
  2  1  1  0
  2  3  1  0
  3  4  1  6
  5  6  1  1
  5  3  1  0
  7  5  1  0
  8  7  2  0
 10 12  1  0
 10  9  1  0
 11 10  2  0
 13 14  1  0
 13 12  1  0
 16 15  1  1
 15 14  1  0
 16 17  1  0
 17  7  1  0
 18 19  2  0
 18 16  1  0
 20 18  1  0
 21 20  1  0
 22 23  1  0
 21 22  1  6
 23 24  1  0
 24 25  1  0
 25 26  1  0
 27 29  1  0
 27 21  1  0
 28 27  2  0
M  END
$$$$
