IRK.pdb
     RDKit          3D

 29 28  0  0  1  0  0  0  0  0999 V2000
   17.3136  -23.5514  -11.2956 C   0  0  0  0  0  0  0  0  0  0  0  0
   18.0764  -23.4572   -9.9931 C   0  0  0  0  0  0  0  0  0  0  0  0
   17.4149  -24.3357   -8.9533 C   0  0  2  0  0  0  0  0  0  0  0  0
   15.9810  -23.9356   -8.8387 C   0  0  0  0  0  0  0  0  0  0  0  0
   18.1617  -24.3953   -7.6595 C   0  0  2  0  0  0  0  0  0  0  0  0
   19.5274  -24.7843   -7.9518 N   0  0  0  0  0  0  0  0  0  0  0  0
   17.5444  -25.2439   -6.6259 C   0  0  0  0  0  0  0  0  0  0  0  0
   16.3405  -25.0787   -6.3081 O   0  0  0  0  0  0  0  0  0  0  0  0
   19.3569  -33.2318   -5.5686 N   0  0  0  0  0  0  0  0  0  0  0  0
   18.0731  -32.8092   -5.0964 C   0  0  0  0  0  0  0  0  0  0  0  0
   17.2953  -33.6186   -4.4720 N   0  0  0  0  0  0  0  0  0  0  0  0
   17.6375  -31.4797   -5.3127 N   0  0  0  0  0  0  0  0  0  0  0  0
   18.3985  -30.6380   -6.1965 C   0  0  0  0  0  0  0  0  0  0  0  0
   17.7432  -29.2485   -6.3206 C   0  0  0  0  0  0  0  0  0  0  0  0
   18.1310  -28.5009   -5.0993 C   0  0  0  0  0  0  0  0  0  0  0  0
   17.5919  -27.1268   -4.9322 C   0  0  2  0  0  0  0  0  0  0  0  0
   18.2545  -26.2695   -5.9472 N   0  0  0  0  0  0  0  0  0  0  0  0
   17.7831  -26.4942   -3.6217 C   0  0  0  0  0  0  0  0  0  0  0  0
   18.8999  -25.9231   -3.3976 O   0  0  0  0  0  0  0  0  0  0  0  0
   16.3023  -33.3925   -4.2433 N   0  0  0  0  0  0  0  0  0  0  0  0
   16.8605  -26.4425   -2.5749 C   0  0  2  0  0  0  0  0  0  0  0  0
   17.1811  -25.6944   -1.3018 C   0  0  0  0  0  0  0  0  0  0  0  0
   16.0705  -24.7325   -1.1264 C   0  0  0  0  0  0  0  0  0  0  0  0
   15.9343  -23.7980   -0.0383 C   0  0  0  0  0  0  0  0  0  0  0  0
   14.8294  -22.8373    0.0951 C   0  0  0  0  0  0  0  0  0  0  0  0
   15.1570  -21.9751    1.3640 N   0  0  0  0  0  0  0  0  0  0  0  0
   14.1571  -20.9500    1.3993 C   0  0  0  0  0  0  0  0  0  0  0  0
   17.3430  -26.7525   -0.3064 O   0  0  0  0  0  0  0  0  0  0  0  0
   17.5276  -26.5249    0.8935 O   0  0  0  0  0  0  0  0  0  0  0  0
  2  1  1  0
  2  3  1  0
  3  4  1  1
  5  6  1  6
  5  3  1  0
  7  5  1  0
  8  7  2  0
 10 12  1  0
 10  9  1  0
 11 10  2  0
 13 14  1  0
 13 12  1  0
 16 15  1  1
 15 14  1  0
 16 17  1  0
 17  7  1  0
 18 19  2  0
 18 16  1  0
 20 18  1  0
 21 20  1  0
 22 23  1  0
 21 22  1  6
 23 24  1  0
 24 25  1  0
 25 26  1  0
 27 29  1  0
 27 21  1  0
 28 27  2  0
M  END
$$$$
