GWN.pdb
     RDKit          3D

 27 28  0  0  1  0  0  0  0  0999 V2000
   28.8996  -20.7714  -13.9079 N   0  0  0  0  0  0  0  0  0  0  0  0
   28.3548  -19.8862  -12.8978 C   0  0  0  0  0  0  0  0  0  0  0  0
   27.4063  -20.6382  -12.0370 C   0  0  0  0  0  0  0  0  0  0  0  0
   26.8953  -21.7286  -12.4007 O   0  0  0  0  0  0  0  0  0  0  0  0
   27.0536  -20.1390  -10.7761 N   0  0  0  0  0  0  0  0  0  0  0  0
   25.9820  -20.6436   -9.9450 C   0  0  1  0  0  0  0  0  0  0  0  0
   26.1833  -20.1789   -8.4918 C   0  0  0  0  0  0  0  0  0  0  0  0
   27.5515  -20.4657   -8.0311 C   0  0  0  0  0  0  0  0  0  0  0  0
   28.5174  -21.1568   -8.7110 C   0  0  0  0  0  0  0  0  0  0  0  0
   29.6486  -21.2238   -7.9768 N   0  0  0  0  0  0  0  0  0  0  0  0
   29.3973  -20.5705   -6.8235 C   0  0  0  0  0  0  0  0  0  0  0  0
   30.1762  -20.3285   -5.7242 C   0  0  0  0  0  0  0  0  0  0  0  0
   29.6594  -19.6240   -4.6699 C   0  0  0  0  0  0  0  0  0  0  0  0
   28.3912  -19.1360   -4.6413 C   0  0  0  0  0  0  0  0  0  0  0  0
   27.5924  -19.3757   -5.7516 C   0  0  0  0  0  0  0  0  0  0  0  0
   28.0856  -20.0825   -6.8289 C   0  0  0  0  0  0  0  0  0  0  0  0
   24.6583  -20.1791  -10.3891 C   0  0  0  0  0  0  0  0  0  0  0  0
   24.4604  -18.9591  -10.6764 O   0  0  0  0  0  0  0  0  0  0  0  0
   21.8310  -19.6878  -14.6123 N   0  0  0  0  0  0  0  0  0  0  0  0
   21.7428  -20.8907  -13.8286 C   0  0  0  0  0  0  0  0  0  0  0  0
   20.7384  -21.5862  -14.0289 O   0  0  0  0  0  0  0  0  0  0  0  0
   22.8435  -21.1622  -12.8829 C   0  0  0  0  0  0  0  0  0  0  0  0
   22.4646  -20.7454  -11.5052 C   0  0  2  0  0  0  0  0  0  0  0  0
   23.5164  -21.0184  -10.5350 N   0  0  0  0  0  0  0  0  0  0  0  0
   21.1983  -21.2943  -10.9969 C   0  0  0  0  0  0  0  0  0  0  0  0
   20.1314  -20.5794  -11.0715 O   0  0  0  0  0  0  0  0  0  0  0  0
   21.0000  -22.5339  -10.4247 O   0  0  0  0  0  0  0  0  0  0  0  0
  1  2  1  0
  2  3  1  0
  3  4  2  0
  5  6  1  0
  5  3  1  0
  6 17  1  0
  7  8  1  0
  6  7  1  1
  8 16  1  0
  9  8  2  0
  9 10  1  0
 10 11  1  0
 11 12  1  0
 12 13  2  0
 14 13  1  0
 15 14  2  0
 16 11  2  0
 16 15  1  0
 17 18  2  0
 19 20  1  0
 20 22  1  0
 21 20  2  0
 23 22  1  6
 23 25  1  0
 24 23  1  0
 24 17  1  0
 25 26  2  0
 25 27  1  0
M  END
$$$$
