GWN.pdb
     RDKit          3D

 27 28  0  0  1  0  0  0  0  0999 V2000
   29.0442  -19.9185  -14.6976 N   0  0  0  0  0  0  0  0  0  0  0  0
   28.8198  -19.5435  -13.3157 C   0  0  0  0  0  0  0  0  0  0  0  0
   27.8449  -20.4788  -12.6987 C   0  0  0  0  0  0  0  0  0  0  0  0
   27.1508  -21.2700  -13.3875 O   0  0  0  0  0  0  0  0  0  0  0  0
   27.6743  -20.5003  -11.3080 N   0  0  0  0  0  0  0  0  0  0  0  0
   26.7562  -21.3575  -10.5896 C   0  0  1  0  0  0  0  0  0  0  0  0
   27.3626  -21.7526   -9.2315 C   0  0  0  0  0  0  0  0  0  0  0  0
   27.1875  -20.6765   -8.2427 C   0  0  0  0  0  0  0  0  0  0  0  0
   26.3721  -19.5833   -8.3565 C   0  0  0  0  0  0  0  0  0  0  0  0
   26.4712  -18.8096   -7.2544 N   0  0  0  0  0  0  0  0  0  0  0  0
   27.3557  -19.4169   -6.4367 C   0  0  0  0  0  0  0  0  0  0  0  0
   27.8327  -19.0807   -5.1986 C   0  0  0  0  0  0  0  0  0  0  0  0
   28.7446  -19.8939   -4.5804 C   0  0  0  0  0  0  0  0  0  0  0  0
   29.2202  -21.0431   -5.1285 C   0  0  0  0  0  0  0  0  0  0  0  0
   28.7427  -21.3937   -6.3844 C   0  0  0  0  0  0  0  0  0  0  0  0
   27.8235  -20.5941   -7.0318 C   0  0  0  0  0  0  0  0  0  0  0  0
   25.4610  -20.7074  -10.3347 C   0  0  0  0  0  0  0  0  0  0  0  0
   25.4044  -19.5636   -9.7881 O   0  0  0  0  0  0  0  0  0  0  0  0
   22.9313  -19.3220  -14.9398 N   0  0  0  0  0  0  0  0  0  0  0  0
   22.8334  -19.2574  -13.5063 C   0  0  0  0  0  0  0  0  0  0  0  0
   21.9048  -18.5678  -13.0648 O   0  0  0  0  0  0  0  0  0  0  0  0
   23.8367  -20.0092  -12.7267 C   0  0  0  0  0  0  0  0  0  0  0  0
   23.2227  -20.5821  -11.4978 C   0  0  2  0  0  0  0  0  0  0  0  0
   24.1959  -21.2739  -10.6633 N   0  0  0  0  0  0  0  0  0  0  0  0
   22.0692  -21.4687  -11.7134 C   0  0  0  0  0  0  0  0  0  0  0  0
   22.2287  -22.5493  -12.3930 O   0  0  0  0  0  0  0  0  0  0  0  0
   20.7802  -21.2808  -11.2591 O   0  0  0  0  0  0  0  0  0  0  0  0
  1  2  1  0
  2  3  1  0
  3  4  2  0
  5  6  1  0
  5  3  1  0
  6 17  1  0
  7  8  1  0
  6  7  1  1
  8 16  1  0
  9  8  2  0
  9 10  1  0
 10 11  1  0
 11 12  1  0
 12 13  2  0
 14 13  1  0
 15 14  2  0
 16 11  2  0
 16 15  1  0
 17 18  2  0
 19 20  1  0
 20 22  1  0
 21 20  2  0
 23 22  1  6
 23 25  1  0
 24 23  1  0
 24 17  1  0
 25 26  2  0
 25 27  1  0
M  END
$$$$
