GWN.pdb
     RDKit          3D

 27 28  0  0  1  0  0  0  0  0999 V2000
   31.3919  -21.5588  -10.4740 N   0  0  0  0  0  0  0  0  0  0  0  0
   30.3780  -20.5313  -10.6045 C   0  0  0  0  0  0  0  0  0  0  0  0
   29.1089  -21.0047   -9.9951 C   0  0  0  0  0  0  0  0  0  0  0  0
   28.9976  -22.1516   -9.4908 O   0  0  0  0  0  0  0  0  0  0  0  0
   27.9861  -20.1668   -9.9685 N   0  0  0  0  0  0  0  0  0  0  0  0
   26.6682  -20.5462   -9.5071 C   0  0  1  0  0  0  0  0  0  0  0  0
   26.2387  -19.6358   -8.3432 C   0  0  0  0  0  0  0  0  0  0  0  0
   27.3185  -19.5024   -7.3518 C   0  0  0  0  0  0  0  0  0  0  0  0
   28.3570  -18.6118   -7.3855 C   0  0  0  0  0  0  0  0  0  0  0  0
   29.1539  -18.7820   -6.3089 N   0  0  0  0  0  0  0  0  0  0  0  0
   28.6163  -19.7876   -5.5881 C   0  0  0  0  0  0  0  0  0  0  0  0
   29.0023  -20.3754   -4.4137 C   0  0  0  0  0  0  0  0  0  0  0  0
   28.2576  -21.3994   -3.8922 C   0  0  0  0  0  0  0  0  0  0  0  0
   27.1310  -21.8838   -4.4781 C   0  0  0  0  0  0  0  0  0  0  0  0
   26.7304  -21.2946   -5.6700 C   0  0  0  0  0  0  0  0  0  0  0  0
   27.4605  -20.2610   -6.2196 C   0  0  0  0  0  0  0  0  0  0  0  0
   25.6495  -20.4407  -10.5636 C   0  0  0  0  0  0  0  0  0  0  0  0
   25.6876  -19.4971  -11.4111 O   0  0  0  0  0  0  0  0  0  0  0  0
   23.0048  -22.7314  -14.8618 N   0  0  0  0  0  0  0  0  0  0  0  0
   22.5140  -22.7756  -13.5105 C   0  0  0  0  0  0  0  0  0  0  0  0
   21.2825  -22.8149  -13.3904 O   0  0  0  0  0  0  0  0  0  0  0  0
   23.5174  -22.7690  -12.4275 C   0  0  0  0  0  0  0  0  0  0  0  0
   23.7539  -21.3822  -11.9416 C   0  0  2  0  0  0  0  0  0  0  0  0
   24.5658  -21.3499  -10.7325 N   0  0  0  0  0  0  0  0  0  0  0  0
   22.5492  -20.5670  -11.7242 C   0  0  0  0  0  0  0  0  0  0  0  0
   22.1207  -20.3907  -10.5241 O   0  0  0  0  0  0  0  0  0  0  0  0
   21.7857  -19.9390  -12.6866 O   0  0  0  0  0  0  0  0  0  0  0  0
  1  2  1  0
  2  3  1  0
  3  4  2  0
  5  6  1  0
  5  3  1  0
  6 17  1  0
  7  8  1  0
  6  7  1  1
  8 16  1  0
  9  8  2  0
  9 10  1  0
 10 11  1  0
 11 12  1  0
 12 13  2  0
 14 13  1  0
 15 14  2  0
 16 11  2  0
 16 15  1  0
 17 18  2  0
 19 20  1  0
 20 22  1  0
 21 20  2  0
 23 22  1  1
 23 25  1  0
 24 23  1  0
 24 17  1  0
 25 26  2  0
 25 27  1  0
M  END
$$$$
