GWN.pdb
     RDKit          3D

 27 28  0  0  1  0  0  0  0  0999 V2000
   29.0551  -21.2775  -14.3871 N   0  0  0  0  0  0  0  0  0  0  0  0
   28.5803  -20.2952  -13.4329 C   0  0  0  0  0  0  0  0  0  0  0  0
   27.6095  -20.9313  -12.5061 C   0  0  0  0  0  0  0  0  0  0  0  0
   27.0595  -22.0318  -12.7676 O   0  0  0  0  0  0  0  0  0  0  0  0
   27.2792  -20.3062  -11.2962 N   0  0  0  0  0  0  0  0  0  0  0  0
   26.2203  -20.7200  -10.4011 C   0  0  1  0  0  0  0  0  0  0  0  0
   26.4187  -20.0710   -9.0199 C   0  0  0  0  0  0  0  0  0  0  0  0
   27.6874  -20.5029   -8.4115 C   0  0  0  0  0  0  0  0  0  0  0  0
   28.6299  -21.3204   -8.9741 C   0  0  0  0  0  0  0  0  0  0  0  0
   29.6621  -21.4990   -8.1222 N   0  0  0  0  0  0  0  0  0  0  0  0
   29.3715  -20.7896   -7.0122 C   0  0  0  0  0  0  0  0  0  0  0  0
   30.0546  -20.6104   -5.8397 C   0  0  0  0  0  0  0  0  0  0  0  0
   29.5181  -19.8218   -4.8571 C   0  0  0  0  0  0  0  0  0  0  0  0
   28.3211  -19.1884   -4.9714 C   0  0  0  0  0  0  0  0  0  0  0  0
   27.6197  -19.3634   -6.1570 C   0  0  0  0  0  0  0  0  0  0  0  0
   28.1349  -20.1521   -7.1649 C   0  0  0  0  0  0  0  0  0  0  0  0
   24.8865  -20.3394  -10.8924 C   0  0  0  0  0  0  0  0  0  0  0  0
   24.6986  -19.2214  -11.4624 O   0  0  0  0  0  0  0  0  0  0  0  0
   21.4907  -22.2133  -14.9249 N   0  0  0  0  0  0  0  0  0  0  0  0
   21.3002  -21.9193  -13.5299 C   0  0  0  0  0  0  0  0  0  0  0  0
   20.1725  -21.5144  -13.2185 O   0  0  0  0  0  0  0  0  0  0  0  0
   22.4536  -22.1286  -12.6324 C   0  0  0  0  0  0  0  0  0  0  0  0
   22.5758  -21.0032  -11.6661 C   0  0  2  0  0  0  0  0  0  0  0  0
   23.7236  -21.1547  -10.7818 N   0  0  0  0  0  0  0  0  0  0  0  0
   21.3832  -20.7290  -10.8502 C   0  0  0  0  0  0  0  0  0  0  0  0
   21.0017  -21.6021   -9.9858 O   0  0  0  0  0  0  0  0  0  0  0  0
   20.5856  -19.6042  -10.8958 O   0  0  0  0  0  0  0  0  0  0  0  0
  1  2  1  0
  2  3  1  0
  3  4  2  0
  5  6  1  0
  5  3  1  0
  6 17  1  0
  7  8  1  0
  6  7  1  1
  8 16  1  0
  9  8  2  0
  9 10  1  0
 10 11  1  0
 11 12  1  0
 12 13  2  0
 14 13  1  0
 15 14  2  0
 16 11  2  0
 16 15  1  0
 17 18  2  0
 19 20  1  0
 20 22  1  0
 21 20  2  0
 23 22  1  1
 23 25  1  0
 24 23  1  0
 24 17  1  0
 25 26  2  0
 25 27  1  0
M  END
$$$$
