GWN.pdb
     RDKit          3D

 27 28  0  0  1  0  0  0  0  0999 V2000
   29.4826  -21.2472  -14.4399 N   0  0  0  0  0  0  0  0  0  0  0  0
   28.8792  -20.2669  -13.5593 C   0  0  0  0  0  0  0  0  0  0  0  0
   27.8123  -20.9129  -12.7528 C   0  0  0  0  0  0  0  0  0  0  0  0
   27.2377  -21.9671  -13.1279 O   0  0  0  0  0  0  0  0  0  0  0  0
   27.4152  -20.3504  -11.5323 N   0  0  0  0  0  0  0  0  0  0  0  0
   26.3348  -20.8329  -10.6994 C   0  0  1  0  0  0  0  0  0  0  0  0
   26.4149  -20.1805   -9.3080 C   0  0  0  0  0  0  0  0  0  0  0  0
   27.6925  -20.4976   -8.6496 C   0  0  0  0  0  0  0  0  0  0  0  0
   28.7432  -21.1893   -9.1888 C   0  0  0  0  0  0  0  0  0  0  0  0
   29.7471  -21.2887   -8.2915 N   0  0  0  0  0  0  0  0  0  0  0  0
   29.3294  -20.6556   -7.1758 C   0  0  0  0  0  0  0  0  0  0  0  0
   29.9329  -20.4484   -5.9648 C   0  0  0  0  0  0  0  0  0  0  0  0
   29.2687  -19.7579   -4.9865 C   0  0  0  0  0  0  0  0  0  0  0  0
   28.0171  -19.2512   -5.1417 C   0  0  0  0  0  0  0  0  0  0  0  0
   27.3957  -19.4558   -6.3665 C   0  0  0  0  0  0  0  0  0  0  0  0
   28.0400  -20.1476   -7.3713 C   0  0  0  0  0  0  0  0  0  0  0  0
   25.0101  -20.5316  -11.2648 C   0  0  0  0  0  0  0  0  0  0  0  0
   24.6696  -19.3365  -11.5213 O   0  0  0  0  0  0  0  0  0  0  0  0
   23.9068  -23.9962  -14.2397 N   0  0  0  0  0  0  0  0  0  0  0  0
   23.3805  -22.6579  -14.2121 C   0  0  0  0  0  0  0  0  0  0  0  0
   23.8289  -21.8897  -15.0732 O   0  0  0  0  0  0  0  0  0  0  0  0
   22.3769  -22.3486  -13.1744 C   0  0  0  0  0  0  0  0  0  0  0  0
   22.8246  -21.2011  -12.3389 C   0  0  2  0  0  0  0  0  0  0  0  0
   24.0210  -21.5110  -11.5677 N   0  0  0  0  0  0  0  0  0  0  0  0
   21.8120  -20.6358  -11.4342 C   0  0  0  0  0  0  0  0  0  0  0  0
   21.8436  -20.9474  -10.1864 O   0  0  0  0  0  0  0  0  0  0  0  0
   20.7867  -19.7754  -11.7682 O   0  0  0  0  0  0  0  0  0  0  0  0
  1  2  1  0
  2  3  1  0
  3  4  2  0
  5  6  1  0
  5  3  1  0
  6 17  1  0
  7  8  1  0
  6  7  1  1
  8 16  1  0
  9  8  2  0
  9 10  1  0
 10 11  1  0
 11 12  1  0
 12 13  2  0
 14 13  1  0
 15 14  2  0
 16 11  2  0
 16 15  1  0
 17 18  2  0
 19 20  1  0
 20 22  1  0
 21 20  2  0
 23 22  1  1
 23 25  1  0
 24 23  1  0
 24 17  1  0
 25 26  2  0
 25 27  1  0
M  END
$$$$
