GWN.pdb
     RDKit          3D

 27 28  0  0  1  0  0  0  0  0999 V2000
   31.2960  -21.2904  -10.7321 N   0  0  0  0  0  0  0  0  0  0  0  0
   30.2163  -20.3436  -10.9285 C   0  0  0  0  0  0  0  0  0  0  0  0
   28.9561  -20.9055  -10.3787 C   0  0  0  0  0  0  0  0  0  0  0  0
   28.8112  -22.1367  -10.1658 O   0  0  0  0  0  0  0  0  0  0  0  0
   27.8803  -20.0590  -10.0795 N   0  0  0  0  0  0  0  0  0  0  0  0
   26.6040  -20.4827   -9.5454 C   0  0  1  0  0  0  0  0  0  0  0  0
   26.1895  -19.5602   -8.3855 C   0  0  0  0  0  0  0  0  0  0  0  0
   27.2734  -19.4357   -7.3975 C   0  0  0  0  0  0  0  0  0  0  0  0
   28.3809  -18.6372   -7.4919 C   0  0  0  0  0  0  0  0  0  0  0  0
   29.1580  -18.7846   -6.3976 N   0  0  0  0  0  0  0  0  0  0  0  0
   28.5383  -19.6828   -5.6044 C   0  0  0  0  0  0  0  0  0  0  0  0
   28.8716  -20.2041   -4.3834 C   0  0  0  0  0  0  0  0  0  0  0  0
   28.0446  -21.1196   -3.7894 C   0  0  0  0  0  0  0  0  0  0  0  0
   26.8842  -21.5569   -4.3458 C   0  0  0  0  0  0  0  0  0  0  0  0
   26.5365  -21.0343   -5.5845 C   0  0  0  0  0  0  0  0  0  0  0  0
   27.3498  -20.1103   -6.2074 C   0  0  0  0  0  0  0  0  0  0  0  0
   25.5329  -20.4508  -10.5538 C   0  0  0  0  0  0  0  0  0  0  0  0
   25.3446  -19.4201  -11.2695 O   0  0  0  0  0  0  0  0  0  0  0  0
   22.7433  -22.7165  -14.8624 N   0  0  0  0  0  0  0  0  0  0  0  0
   22.3273  -22.7631  -13.4863 C   0  0  0  0  0  0  0  0  0  0  0  0
   21.1042  -22.7366  -13.2969 O   0  0  0  0  0  0  0  0  0  0  0  0
   23.3885  -22.8362  -12.4625 C   0  0  0  0  0  0  0  0  0  0  0  0
   23.6591  -21.4883  -11.8922 C   0  0  2  0  0  0  0  0  0  0  0  0
   24.6394  -21.5292  -10.8154 N   0  0  0  0  0  0  0  0  0  0  0  0
   22.4796  -20.7413  -11.4298 C   0  0  0  0  0  0  0  0  0  0  0  0
   21.8479  -19.9910  -12.2623 O   0  0  0  0  0  0  0  0  0  0  0  0
   21.9399  -20.7430  -10.1601 O   0  0  0  0  0  0  0  0  0  0  0  0
  1  2  1  0
  2  3  1  0
  3  4  2  0
  5  6  1  0
  5  3  1  0
  6 17  1  0
  7  8  1  0
  6  7  1  1
  8 16  1  0
  9  8  2  0
  9 10  1  0
 10 11  1  0
 11 12  1  0
 12 13  2  0
 14 13  1  0
 15 14  2  0
 16 11  2  0
 16 15  1  0
 17 18  2  0
 19 20  1  0
 20 22  1  0
 21 20  2  0
 23 22  1  1
 23 25  1  0
 24 23  1  0
 24 17  1  0
 25 26  2  0
 25 27  1  0
M  END
$$$$
