GWN.pdb
     RDKit          3D

 27 28  0  0  1  0  0  0  0  0999 V2000
   18.0354  -12.2499  -14.7738 N   0  0  0  0  0  0  0  0  0  0  0  0
   18.7152  -11.5003  -15.8115 C   0  0  0  0  0  0  0  0  0  0  0  0
   19.2806  -10.2537  -15.2350 C   0  0  0  0  0  0  0  0  0  0  0  0
   18.9844   -9.8590  -14.0780 O   0  0  0  0  0  0  0  0  0  0  0  0
   20.1739   -9.4751  -15.9829 N   0  0  0  0  0  0  0  0  0  0  0  0
   20.7970   -8.2493  -15.5325 C   0  0  1  0  0  0  0  0  0  0  0  0
   22.2416   -8.1726  -16.0574 C   0  0  0  0  0  0  0  0  0  0  0  0
   23.0898   -9.1916  -15.4182 C   0  0  0  0  0  0  0  0  0  0  0  0
   22.6834  -10.1718  -14.5538 C   0  0  0  0  0  0  0  0  0  0  0  0
   23.7379  -10.9221  -14.1689 N   0  0  0  0  0  0  0  0  0  0  0  0
   24.8199  -10.4136  -14.7938 C   0  0  0  0  0  0  0  0  0  0  0  0
   26.1397  -10.7761  -14.7722 C   0  0  0  0  0  0  0  0  0  0  0  0
   27.0475  -10.0723  -15.5175 C   0  0  0  0  0  0  0  0  0  0  0  0
   26.7171   -9.0098  -16.2979 C   0  0  0  0  0  0  0  0  0  0  0  0
   25.3807   -8.6336  -16.3272 C   0  0  0  0  0  0  0  0  0  0  0  0
   24.4431   -9.3236  -15.5869 C   0  0  0  0  0  0  0  0  0  0  0  0
   20.0824   -7.0502  -15.9978 C   0  0  0  0  0  0  0  0  0  0  0  0
   19.6756   -6.9603  -17.1964 O   0  0  0  0  0  0  0  0  0  0  0  0
   16.8018   -5.9590  -16.1771 N   0  0  0  0  0  0  0  0  0  0  0  0
   16.7703   -5.0093  -15.0974 C   0  0  0  0  0  0  0  0  0  0  0  0
   15.6853   -4.9033  -14.5108 O   0  0  0  0  0  0  0  0  0  0  0  0
   18.0173   -4.2733  -14.8093 C   0  0  0  0  0  0  0  0  0  0  0  0
   19.1158   -4.7358  -15.7007 C   0  0  2  0  0  0  0  0  0  0  0  0
   19.7884   -5.9196  -15.1825 N   0  0  0  0  0  0  0  0  0  0  0  0
   20.1301   -3.7267  -16.0415 C   0  0  0  0  0  0  0  0  0  0  0  0
   21.1075   -3.5229  -15.2303 O   0  0  0  0  0  0  0  0  0  0  0  0
   20.1686   -2.9354  -17.1709 O   0  0  0  0  0  0  0  0  0  0  0  0
  1  2  1  0
  2  3  1  0
  3  4  2  0
  5  6  1  0
  5  3  1  0
  6 17  1  0
  7  8  1  0
  6  7  1  6
  8 16  1  0
  9  8  2  0
  9 10  1  0
 10 11  1  0
 11 12  1  0
 12 13  2  0
 14 13  1  0
 15 14  2  0
 16 11  2  0
 16 15  1  0
 17 18  2  0
 19 20  1  0
 20 22  1  0
 21 20  2  0
 23 22  1  1
 23 25  1  0
 24 23  1  0
 24 17  1  0
 25 26  2  0
 25 27  1  0
M  END
$$$$
