GWN.pdb
     RDKit          3D

 27 28  0  0  1  0  0  0  0  0999 V2000
   28.7034  -20.6924  -15.0010 N   0  0  0  0  0  0  0  0  0  0  0  0
   28.1458  -19.8754  -13.9416 C   0  0  0  0  0  0  0  0  0  0  0  0
   27.1370  -20.6615  -13.1862 C   0  0  0  0  0  0  0  0  0  0  0  0
   26.6628  -21.7393  -13.6284 O   0  0  0  0  0  0  0  0  0  0  0  0
   26.6830  -20.2099  -11.9398 N   0  0  0  0  0  0  0  0  0  0  0  0
   25.6147  -20.8095  -11.1697 C   0  0  1  0  0  0  0  0  0  0  0  0
   25.7979  -20.4826   -9.6771 C   0  0  0  0  0  0  0  0  0  0  0  0
   27.1832  -20.7346   -9.2483 C   0  0  0  0  0  0  0  0  0  0  0  0
   28.1219  -21.4824   -9.9061 C   0  0  0  0  0  0  0  0  0  0  0  0
   29.2809  -21.4921   -9.2136 N   0  0  0  0  0  0  0  0  0  0  0  0
   29.0750  -20.7452   -8.1093 C   0  0  0  0  0  0  0  0  0  0  0  0
   29.8964  -20.4159   -7.0649 C   0  0  0  0  0  0  0  0  0  0  0  0
   29.4212  -19.6253   -6.0529 C   0  0  0  0  0  0  0  0  0  0  0  0
   28.1550  -19.1327   -6.0151 C   0  0  0  0  0  0  0  0  0  0  0  0
   27.3134  -19.4607   -7.0698 C   0  0  0  0  0  0  0  0  0  0  0  0
   27.7640  -20.2553   -8.1036 C   0  0  0  0  0  0  0  0  0  0  0  0
   24.2861  -20.3269  -11.5787 C   0  0  0  0  0  0  0  0  0  0  0  0
   24.0818  -19.0940  -11.7982 O   0  0  0  0  0  0  0  0  0  0  0  0
   21.4796  -19.4986  -15.8035 N   0  0  0  0  0  0  0  0  0  0  0  0
   21.3846  -20.7094  -15.0329 C   0  0  0  0  0  0  0  0  0  0  0  0
   20.3613  -21.3813  -15.2178 O   0  0  0  0  0  0  0  0  0  0  0  0
   22.5014  -21.0161  -14.1173 C   0  0  0  0  0  0  0  0  0  0  0  0
   22.0814  -20.8355  -12.7008 C   0  0  2  0  0  0  0  0  0  0  0  0
   23.1462  -21.1616  -11.7616 N   0  0  0  0  0  0  0  0  0  0  0  0
   20.8612  -21.5520  -12.2997 C   0  0  0  0  0  0  0  0  0  0  0  0
   20.8887  -22.8352  -12.2126 O   0  0  0  0  0  0  0  0  0  0  0  0
   19.6358  -20.9984  -11.9910 O   0  0  0  0  0  0  0  0  0  0  0  0
  1  2  1  0
  2  3  1  0
  3  4  2  0
  5  6  1  0
  5  3  1  0
  6 17  1  0
  7  8  1  0
  6  7  1  1
  8 16  1  0
  9  8  2  0
  9 10  1  0
 10 11  1  0
 11 12  1  0
 12 13  2  0
 14 13  1  0
 15 14  2  0
 16 11  2  0
 16 15  1  0
 17 18  2  0
 19 20  1  0
 20 22  1  0
 21 20  2  0
 23 22  1  6
 23 25  1  0
 24 23  1  0
 24 17  1  0
 25 26  2  0
 25 27  1  0
M  END
$$$$
