GWN.pdb
     RDKit          3D

 27 28  0  0  1  0  0  0  0  0999 V2000
   28.6587  -25.8170  -16.8269 N   0  0  0  0  0  0  0  0  0  0  0  0
   28.1287  -24.6038  -17.4167 C   0  0  0  0  0  0  0  0  0  0  0  0
   28.1055  -23.5242  -16.3969 C   0  0  0  0  0  0  0  0  0  0  0  0
   28.3035  -23.7545  -15.1762 O   0  0  0  0  0  0  0  0  0  0  0  0
   27.8576  -22.1995  -16.7807 N   0  0  0  0  0  0  0  0  0  0  0  0
   27.7097  -21.0790  -15.8770 C   0  0  1  0  0  0  0  0  0  0  0  0
   27.6824  -19.7632  -16.6746 C   0  0  0  0  0  0  0  0  0  0  0  0
   27.2567  -18.6398  -15.8241 C   0  0  0  0  0  0  0  0  0  0  0  0
   27.3391  -18.5673  -14.4599 C   0  0  0  0  0  0  0  0  0  0  0  0
   26.8514  -17.3860  -14.0244 N   0  0  0  0  0  0  0  0  0  0  0  0
   26.4573  -16.7054  -15.1205 C   0  0  0  0  0  0  0  0  0  0  0  0
   25.8949  -15.4666  -15.2714 C   0  0  0  0  0  0  0  0  0  0  0  0
   25.5873  -15.0107  -16.5254 C   0  0  0  0  0  0  0  0  0  0  0  0
   25.8088  -15.7250  -17.6603 C   0  0  0  0  0  0  0  0  0  0  0  0
   26.3790  -16.9832  -17.5185 C   0  0  0  0  0  0  0  0  0  0  0  0
   26.6998  -17.4692  -16.2679 C   0  0  0  0  0  0  0  0  0  0  0  0
   26.4718  -21.1538  -15.0851 C   0  0  0  0  0  0  0  0  0  0  0  0
   25.3602  -21.4125  -15.6396 O   0  0  0  0  0  0  0  0  0  0  0  0
   24.0313  -20.4778   -9.3927 N   0  0  0  0  0  0  0  0  0  0  0  0
   24.0433  -20.8884  -10.7711 C   0  0  0  0  0  0  0  0  0  0  0  0
   22.9489  -21.2343  -11.2350 O   0  0  0  0  0  0  0  0  0  0  0  0
   25.3411  -20.8540  -11.4743 C   0  0  0  0  0  0  0  0  0  0  0  0
   25.1435  -20.9810  -12.9440 C   0  0  2  0  0  0  0  0  0  0  0  0
   26.4023  -20.9522  -13.6766 N   0  0  0  0  0  0  0  0  0  0  0  0
   24.2207  -20.0099  -13.5511 C   0  0  0  0  0  0  0  0  0  0  0  0
   23.1902  -20.4403  -14.1898 O   0  0  0  0  0  0  0  0  0  0  0  0
   24.3239  -18.6345  -13.5214 O   0  0  0  0  0  0  0  0  0  0  0  0
  1  2  1  0
  2  3  1  0
  3  4  2  0
  5  6  1  0
  5  3  1  0
  6 17  1  0
  7  8  1  0
  6  7  1  6
  8 16  1  0
  9  8  2  0
  9 10  1  0
 10 11  1  0
 11 12  1  0
 12 13  2  0
 14 13  1  0
 15 14  2  0
 16 11  2  0
 16 15  1  0
 17 18  2  0
 19 20  1  0
 20 22  1  0
 21 20  2  0
 23 22  1  1
 23 25  1  0
 24 23  1  0
 24 17  1  0
 25 26  2  0
 25 27  1  0
M  END
$$$$
