GWN.pdb
     RDKit          3D

 27 28  0  0  1  0  0  0  0  0999 V2000
   19.2054  -10.3201  -16.9576 N   0  0  0  0  0  0  0  0  0  0  0  0
   18.6600   -9.0693  -16.4691 C   0  0  0  0  0  0  0  0  0  0  0  0
   18.9763   -8.9189  -15.0257 C   0  0  0  0  0  0  0  0  0  0  0  0
   19.2546   -9.9056  -14.2969 O   0  0  0  0  0  0  0  0  0  0  0  0
   18.9713   -7.6490  -14.4333 N   0  0  0  0  0  0  0  0  0  0  0  0
   19.2381   -7.3744  -13.0378 C   0  0  1  0  0  0  0  0  0  0  0  0
   20.3336   -6.3006  -12.9156 C   0  0  0  0  0  0  0  0  0  0  0  0
   21.5211   -6.6666  -13.7046 C   0  0  0  0  0  0  0  0  0  0  0  0
   22.0426   -5.9802  -14.7675 C   0  0  0  0  0  0  0  0  0  0  0  0
   23.1350   -6.6152  -15.2434 N   0  0  0  0  0  0  0  0  0  0  0  0
   23.3067   -7.7117  -14.4765 C   0  0  0  0  0  0  0  0  0  0  0  0
   24.2458   -8.7071  -14.5058 C   0  0  0  0  0  0  0  0  0  0  0  0
   24.1841   -9.7235  -13.5904 C   0  0  0  0  0  0  0  0  0  0  0  0
   23.2274   -9.8125  -12.6291 C   0  0  0  0  0  0  0  0  0  0  0  0
   22.2696   -8.8077  -12.5904 C   0  0  0  0  0  0  0  0  0  0  0  0
   22.3061   -7.7708  -13.4996 C   0  0  0  0  0  0  0  0  0  0  0  0
   18.0476   -6.8896  -12.3216 C   0  0  0  0  0  0  0  0  0  0  0  0
   17.1518   -6.2244  -12.9258 O   0  0  0  0  0  0  0  0  0  0  0  0
   14.4843   -8.6072  -10.5600 N   0  0  0  0  0  0  0  0  0  0  0  0
   15.5879   -8.7168   -9.6441 C   0  0  0  0  0  0  0  0  0  0  0  0
   15.9406   -9.8710   -9.3684 O   0  0  0  0  0  0  0  0  0  0  0  0
   16.1726   -7.4590   -9.1383 C   0  0  0  0  0  0  0  0  0  0  0  0
   16.6081   -6.5930  -10.2677 C   0  0  2  0  0  0  0  0  0  0  0  0
   17.7937   -7.1107  -10.9374 N   0  0  0  0  0  0  0  0  0  0  0  0
   16.8314   -5.1771   -9.9382 C   0  0  0  0  0  0  0  0  0  0  0  0
   15.8652   -4.4910   -9.4375 O   0  0  0  0  0  0  0  0  0  0  0  0
   17.9974   -4.4588  -10.1050 O   0  0  0  0  0  0  0  0  0  0  0  0
  1  2  1  0
  2  3  1  0
  3  4  2  0
  5  6  1  0
  5  3  1  0
  6 17  1  0
  7  8  1  0
  6  7  1  6
  8 16  1  0
  9  8  2  0
  9 10  1  0
 10 11  1  0
 11 12  1  0
 12 13  2  0
 14 13  1  0
 15 14  2  0
 16 11  2  0
 16 15  1  0
 17 18  2  0
 19 20  1  0
 20 22  1  0
 21 20  2  0
 23 22  1  1
 23 25  1  0
 24 23  1  0
 24 17  1  0
 25 26  2  0
 25 27  1  0
M  END
$$$$
