TNE.pdb
     RDKit          3D

 25 24  0  0  1  0  0  0  0  0999 V2000
   15.5076  -10.3919  -16.9855 C   0  0  0  0  0  0  0  0  0  0  0  0
   15.8512   -9.8906  -15.6246 C   0  0  1  0  0  0  0  0  0  0  0  0
   14.8377  -10.2829  -14.7503 O   0  0  0  0  0  0  0  0  0  0  0  0
   17.1444  -10.4288  -15.0833 C   0  0  2  0  0  0  0  0  0  0  0  0
   17.0388  -11.8742  -15.0023 N   0  0  0  0  0  0  0  0  0  0  0  0
   17.4758   -9.8816  -13.7430 C   0  0  0  0  0  0  0  0  0  0  0  0
   17.0692  -10.4799  -12.7235 O   0  0  0  0  0  0  0  0  0  0  0  0
   20.9957   -9.2848  -12.7655 N   0  0  0  0  0  0  0  0  0  0  0  0
   21.0174   -7.8556  -12.5984 C   0  0  0  0  0  0  0  0  0  0  0  0
   22.1161   -7.2479  -12.6292 O   0  0  0  0  0  0  0  0  0  0  0  0
   19.7409   -7.1376  -12.3939 C   0  0  0  0  0  0  0  0  0  0  0  0
   18.5692   -8.0925  -12.3305 C   0  0  2  0  0  0  0  0  0  0  0  0
   18.2434   -8.6952  -13.5823 N   0  0  0  0  0  0  0  0  0  0  0  0
   17.3917   -7.3616  -11.7405 C   0  0  0  0  0  0  0  0  0  0  0  0
   16.8065   -6.5375  -12.4856 O   0  0  0  0  0  0  0  0  0  0  0  0
   16.9454   -7.5693  -10.4249 N   0  0  0  0  0  0  0  0  0  0  0  0
   15.7826   -6.8790   -9.9058 C   0  0  1  0  0  0  0  0  0  0  0  0
   15.1184   -7.6970   -8.8212 C   0  0  0  0  0  0  0  0  0  0  0  0
   13.8312   -7.0133   -8.4120 C   0  0  0  0  0  0  0  0  0  0  0  0
   13.0441   -7.8384   -7.4697 C   0  0  0  0  0  0  0  0  0  0  0  0
   13.0925   -7.5840   -6.2502 O   0  0  0  0  0  0  0  0  0  0  0  0
   16.1388   -5.5322   -9.3849 C   0  0  0  0  0  0  0  0  0  0  0  0
   17.4190   -5.1859   -9.0285 O   0  0  0  0  0  0  0  0  0  0  0  0
   12.2609   -8.8794   -7.9129 O   0  0  0  0  0  0  0  0  0  0  0  0
   15.2149   -4.6897   -9.2736 O   0  0  0  0  0  0  0  0  0  0  0  0
  2  1  1  6
  2  3  1  0
  2  4  1  0
  4  6  1  0
  4  5  1  1
  6 13  1  0
  6  7  2  0
  9  8  1  0
  9 10  2  0
 11  9  1  0
 12 14  1  0
 12 11  1  6
 13 12  1  0
 14 16  1  0
 15 14  2  0
 16 17  1  0
 17 18  1  1
 17 22  1  0
 18 19  1  0
 19 20  1  0
 20 24  1  0
 20 21  2  0
 22 25  2  0
 22 23  1  0
M  END
$$$$
