TNE.pdb
     RDKit          3D

 25 24  0  0  1  0  0  0  0  0999 V2000
   18.1173  -10.4699  -15.2682 C   0  0  0  0  0  0  0  0  0  0  0  0
   16.7024  -10.6266  -14.8268 C   0  0  1  0  0  0  0  0  0  0  0  0
   16.3385  -11.9611  -15.0057 O   0  0  0  0  0  0  0  0  0  0  0  0
   16.4716  -10.2881  -13.3821 C   0  0  2  0  0  0  0  0  0  0  0  0
   15.0825  -10.5651  -13.0649 N   0  0  0  0  0  0  0  0  0  0  0  0
   16.7759   -8.8682  -13.0711 C   0  0  0  0  0  0  0  0  0  0  0  0
   16.1401   -7.9664  -13.6584 O   0  0  0  0  0  0  0  0  0  0  0  0
   15.8591   -6.8561  -10.4774 N   0  0  0  0  0  0  0  0  0  0  0  0
   17.0676   -6.7056   -9.7107 C   0  0  0  0  0  0  0  0  0  0  0  0
   16.9913   -6.4540   -8.4826 O   0  0  0  0  0  0  0  0  0  0  0  0
   18.3723   -6.8518  -10.3915 C   0  0  0  0  0  0  0  0  0  0  0  0
   18.2009   -7.1658  -11.8614 C   0  0  2  0  0  0  0  0  0  0  0  0
   17.7708   -8.5010  -12.1234 N   0  0  0  0  0  0  0  0  0  0  0  0
   19.4916   -6.8470  -12.5693 C   0  0  0  0  0  0  0  0  0  0  0  0
   20.4188   -7.6866  -12.4600 O   0  0  0  0  0  0  0  0  0  0  0  0
   19.6802   -5.6764  -13.3225 N   0  0  0  0  0  0  0  0  0  0  0  0
   20.9049   -5.4443  -14.0604 C   0  0  1  0  0  0  0  0  0  0  0  0
   20.6814   -4.4254  -15.1552 C   0  0  0  0  0  0  0  0  0  0  0  0
   19.6787   -4.9816  -16.1436 C   0  0  0  0  0  0  0  0  0  0  0  0
   19.4121   -4.0361  -17.2496 C   0  0  0  0  0  0  0  0  0  0  0  0
   20.1846   -4.0097  -18.2279 O   0  0  0  0  0  0  0  0  0  0  0  0
   22.0032   -4.9975  -13.1624 C   0  0  0  0  0  0  0  0  0  0  0  0
   23.3191   -4.9655  -13.5537 O   0  0  0  0  0  0  0  0  0  0  0  0
   18.3298   -3.1869  -17.2193 O   0  0  0  0  0  0  0  0  0  0  0  0
   21.6930   -4.6379  -12.0003 O   0  0  0  0  0  0  0  0  0  0  0  0
  2  1  1  1
  2  3  1  0
  2  4  1  0
  4  6  1  0
  4  5  1  6
  6 13  1  0
  6  7  2  0
  9  8  1  0
  9 10  2  0
 11  9  1  0
 12 14  1  0
 12 11  1  1
 13 12  1  0
 14 16  1  0
 15 14  2  0
 16 17  1  0
 17 18  1  6
 17 22  1  0
 18 19  1  0
 19 20  1  0
 20 24  1  0
 20 21  2  0
 22 25  2  0
 22 23  1  0
M  END
$$$$
