TNE.pdb
     RDKit          3D

 25 24  0  0  1  0  0  0  0  0999 V2000
   16.5655   -8.3335  -15.0409 C   0  0  0  0  0  0  0  0  0  0  0  0
   16.0972   -8.6344  -13.6584 C   0  0  1  0  0  0  0  0  0  0  0  0
   14.9783   -9.4620  -13.7510 O   0  0  0  0  0  0  0  0  0  0  0  0
   17.1123   -9.3450  -12.8101 C   0  0  2  0  0  0  0  0  0  0  0  0
   16.5264   -9.5875  -11.5044 N   0  0  0  0  0  0  0  0  0  0  0  0
   18.3692   -8.5701  -12.6516 C   0  0  0  0  0  0  0  0  0  0  0  0
   18.3910   -7.5994  -11.8643 O   0  0  0  0  0  0  0  0  0  0  0  0
   20.8442   -9.7344  -15.5597 N   0  0  0  0  0  0  0  0  0  0  0  0
   21.9849   -9.8284  -14.6875 C   0  0  0  0  0  0  0  0  0  0  0  0
   22.9301  -10.5983  -14.9895 O   0  0  0  0  0  0  0  0  0  0  0  0
   22.0142   -9.0132  -13.4540 C   0  0  0  0  0  0  0  0  0  0  0  0
   20.7723   -8.1596  -13.3214 C   0  0  2  0  0  0  0  0  0  0  0  0
   19.5524   -8.8985  -13.3692 N   0  0  0  0  0  0  0  0  0  0  0  0
   20.8167   -7.0881  -14.3790 C   0  0  0  0  0  0  0  0  0  0  0  0
   20.2418   -7.3422  -15.4660 O   0  0  0  0  0  0  0  0  0  0  0  0
   21.4614   -5.8546  -14.1894 N   0  0  0  0  0  0  0  0  0  0  0  0
   21.3686   -4.7966  -15.1744 C   0  0  1  0  0  0  0  0  0  0  0  0
   19.9333   -4.3519  -15.3440 C   0  0  0  0  0  0  0  0  0  0  0  0
   19.4497   -3.7526  -14.0406 C   0  0  0  0  0  0  0  0  0  0  0  0
   18.0745   -3.2200  -14.1553 C   0  0  0  0  0  0  0  0  0  0  0  0
   17.8956   -2.1030  -14.6795 O   0  0  0  0  0  0  0  0  0  0  0  0
   22.2233   -3.6362  -14.8065 C   0  0  0  0  0  0  0  0  0  0  0  0
   22.4148   -2.5591  -15.6367 O   0  0  0  0  0  0  0  0  0  0  0  0
   16.9909   -3.9326  -13.6954 O   0  0  0  0  0  0  0  0  0  0  0  0
   22.7852   -3.6616  -13.6843 O   0  0  0  0  0  0  0  0  0  0  0  0
  2  1  1  6
  2  3  1  0
  2  4  1  0
  4  6  1  0
  4  5  1  1
  6 13  1  0
  6  7  2  0
  9  8  1  0
  9 10  2  0
 11  9  1  0
 12 14  1  0
 12 11  1  6
 13 12  1  0
 14 16  1  0
 15 14  2  0
 16 17  1  0
 17 18  1  1
 17 22  1  0
 18 19  1  0
 19 20  1  0
 20 24  1  0
 20 21  2  0
 22 25  2  0
 22 23  1  0
M  END
$$$$
