TNE.pdb
     RDKit          3D

 25 24  0  0  1  0  0  0  0  0999 V2000
   26.2835  -10.6408  -15.4785 C   0  0  0  0  0  0  0  0  0  0  0  0
   26.0172  -11.6194  -16.5707 C   0  0  1  0  0  0  0  0  0  0  0  0
   26.9781  -12.6273  -16.4925 O   0  0  0  0  0  0  0  0  0  0  0  0
   24.6695  -12.2766  -16.4876 C   0  0  2  0  0  0  0  0  0  0  0  0
   24.5716  -13.2535  -17.5567 N   0  0  0  0  0  0  0  0  0  0  0  0
   23.5512  -11.3060  -16.6011 C   0  0  0  0  0  0  0  0  0  0  0  0
   23.2786  -10.8191  -17.7196 O   0  0  0  0  0  0  0  0  0  0  0  0
   19.8415  -11.5201  -16.6710 N   0  0  0  0  0  0  0  0  0  0  0  0
   19.5951  -11.1551  -15.3010 C   0  0  0  0  0  0  0  0  0  0  0  0
   18.5697  -11.5911  -14.7215 O   0  0  0  0  0  0  0  0  0  0  0  0
   20.5594  -10.2730  -14.6088 C   0  0  0  0  0  0  0  0  0  0  0  0
   21.7387   -9.9346  -15.4940 C   0  0  2  0  0  0  0  0  0  0  0  0
   22.7785  -10.9117  -15.4741 N   0  0  0  0  0  0  0  0  0  0  0  0
   22.2477   -8.5709  -15.1069 C   0  0  0  0  0  0  0  0  0  0  0  0
   22.8750   -8.4884  -14.0222 O   0  0  0  0  0  0  0  0  0  0  0  0
   22.0471   -7.4280  -15.8986 N   0  0  0  0  0  0  0  0  0  0  0  0
   22.4713   -6.1174  -15.4510 C   0  0  1  0  0  0  0  0  0  0  0  0
   22.2721   -5.0916  -16.5441 C   0  0  0  0  0  0  0  0  0  0  0  0
   22.7028   -3.7357  -16.0268 C   0  0  0  0  0  0  0  0  0  0  0  0
   22.4984   -2.6711  -17.0333 C   0  0  0  0  0  0  0  0  0  0  0  0
   22.3951   -2.9819  -18.2362 O   0  0  0  0  0  0  0  0  0  0  0  0
   21.7443   -5.7022  -14.2216 C   0  0  0  0  0  0  0  0  0  0  0  0
   22.3257   -4.9504  -13.2303 O   0  0  0  0  0  0  0  0  0  0  0  0
   22.4201   -1.3468  -16.6677 O   0  0  0  0  0  0  0  0  0  0  0  0
   20.5483   -6.0648  -14.1039 O   0  0  0  0  0  0  0  0  0  0  0  0
  2  1  1  1
  2  3  1  0
  2  4  1  0
  4  6  1  0
  4  5  1  6
  6 13  1  0
  6  7  2  0
  9  8  1  0
  9 10  2  0
 11  9  1  0
 12 14  1  0
 12 11  1  1
 13 12  1  0
 14 16  1  0
 15 14  2  0
 16 17  1  0
 17 18  1  6
 17 22  1  0
 18 19  1  0
 19 20  1  0
 20 24  1  0
 20 21  2  0
 22 25  2  0
 22 23  1  0
M  END
$$$$
