TNE.pdb
     RDKit          3D

 25 24  0  0  1  0  0  0  0  0999 V2000
   26.2389  -16.2165  -15.5482 C   0  0  0  0  0  0  0  0  0  0  0  0
   26.8074  -17.0109  -16.6738 C   0  0  1  0  0  0  0  0  0  0  0  0
   27.6185  -16.1673  -17.4326 O   0  0  0  0  0  0  0  0  0  0  0  0
   27.6527  -18.1726  -16.2366 C   0  0  2  0  0  0  0  0  0  0  0  0
   28.2184  -18.7958  -17.4191 N   0  0  0  0  0  0  0  0  0  0  0  0
   26.8834  -19.1823  -15.4658 C   0  0  0  0  0  0  0  0  0  0  0  0
   26.2065  -20.0331  -16.0827 O   0  0  0  0  0  0  0  0  0  0  0  0
   24.7295  -21.8931  -11.7113 N   0  0  0  0  0  0  0  0  0  0  0  0
   25.6908  -21.0804  -11.0140 C   0  0  0  0  0  0  0  0  0  0  0  0
   25.8428  -21.2303   -9.7764 O   0  0  0  0  0  0  0  0  0  0  0  0
   26.4773  -20.0864  -11.7758 C   0  0  0  0  0  0  0  0  0  0  0  0
   26.0831  -20.0659  -13.2363 C   0  0  2  0  0  0  0  0  0  0  0  0
   26.8924  -19.2120  -14.0439 N   0  0  0  0  0  0  0  0  0  0  0  0
   24.6242  -19.7031  -13.3299 C   0  0  0  0  0  0  0  0  0  0  0  0
   24.2981  -18.5614  -12.9213 O   0  0  0  0  0  0  0  0  0  0  0  0
   23.6517  -20.5767  -13.8439 N   0  0  0  0  0  0  0  0  0  0  0  0
   22.2614  -20.1825  -13.9426 C   0  0  1  0  0  0  0  0  0  0  0  0
   21.7379  -20.4242  -15.3406 C   0  0  0  0  0  0  0  0  0  0  0  0
   20.2995  -19.9574  -15.4116 C   0  0  0  0  0  0  0  0  0  0  0  0
   19.7099  -20.1897  -16.7482 C   0  0  0  0  0  0  0  0  0  0  0  0
   20.4494  -20.1714  -17.7518 O   0  0  0  0  0  0  0  0  0  0  0  0
   21.4209  -20.9041  -12.9500 C   0  0  0  0  0  0  0  0  0  0  0  0
   21.4997  -22.2609  -12.7533 O   0  0  0  0  0  0  0  0  0  0  0  0
   18.3632  -20.4253  -16.9046 O   0  0  0  0  0  0  0  0  0  0  0  0
   20.6108  -20.2255  -12.2727 O   0  0  0  0  0  0  0  0  0  0  0  0
  2  1  1  1
  2  3  1  0
  2  4  1  0
  4  6  1  0
  4  5  1  6
  6 13  1  0
  6  7  2  0
  9  8  1  0
  9 10  2  0
 11  9  1  0
 12 14  1  0
 12 11  1  1
 13 12  1  0
 14 16  1  0
 15 14  2  0
 16 17  1  0
 17 18  1  6
 17 22  1  0
 18 19  1  0
 19 20  1  0
 20 24  1  0
 20 21  2  0
 22 25  2  0
 22 23  1  0
M  END
$$$$
