TNE.pdb
     RDKit          3D

 25 24  0  0  1  0  0  0  0  0999 V2000
   19.5243   -9.9649  -13.9196 C   0  0  0  0  0  0  0  0  0  0  0  0
   18.5713  -10.3170  -15.0099 C   0  0  1  0  0  0  0  0  0  0  0  0
   19.2051  -11.2190  -15.8643 O   0  0  0  0  0  0  0  0  0  0  0  0
   17.3058  -10.9672  -14.5295 C   0  0  2  0  0  0  0  0  0  0  0  0
   16.4937  -11.2956  -15.6869 N   0  0  0  0  0  0  0  0  0  0  0  0
   16.5280  -10.0971  -13.6110 C   0  0  0  0  0  0  0  0  0  0  0  0
   15.9721   -9.0742  -14.0661 O   0  0  0  0  0  0  0  0  0  0  0  0
   14.5754   -7.9167   -9.4141 N   0  0  0  0  0  0  0  0  0  0  0  0
   14.3731   -9.3308   -9.2404 C   0  0  0  0  0  0  0  0  0  0  0  0
   13.6580   -9.7395   -8.2923 O   0  0  0  0  0  0  0  0  0  0  0  0
   15.0149  -10.2690  -10.1863 C   0  0  0  0  0  0  0  0  0  0  0  0
   15.7881   -9.5351  -11.2598 C   0  0  2  0  0  0  0  0  0  0  0  0
   16.3954  -10.3917  -12.2260 N   0  0  0  0  0  0  0  0  0  0  0  0
   16.8008   -8.6433  -10.5906 C   0  0  0  0  0  0  0  0  0  0  0  0
   17.7491   -9.2118   -9.9955 O   0  0  0  0  0  0  0  0  0  0  0  0
   16.7166   -7.2413  -10.6131 N   0  0  0  0  0  0  0  0  0  0  0  0
   17.8817   -6.4127  -10.3808 C   0  0  1  0  0  0  0  0  0  0  0  0
   18.8841   -6.5781  -11.5009 C   0  0  0  0  0  0  0  0  0  0  0  0
   20.0652   -5.6681  -11.2385 C   0  0  0  0  0  0  0  0  0  0  0  0
   21.1054   -5.8001  -12.2819 C   0  0  0  0  0  0  0  0  0  0  0  0
   21.3928   -6.9331  -12.7156 O   0  0  0  0  0  0  0  0  0  0  0  0
   17.5086   -4.9801  -10.2360 C   0  0  0  0  0  0  0  0  0  0  0  0
   18.2616   -4.0830   -9.5191 O   0  0  0  0  0  0  0  0  0  0  0  0
   21.7606   -4.6982  -12.7819 O   0  0  0  0  0  0  0  0  0  0  0  0
   16.4562   -4.5942  -10.8010 O   0  0  0  0  0  0  0  0  0  0  0  0
  2  1  1  1
  2  3  1  0
  2  4  1  0
  4  6  1  0
  4  5  1  6
  6 13  1  0
  6  7  2  0
  9  8  1  0
  9 10  2  0
 11  9  1  0
 12 14  1  0
 12 11  1  1
 13 12  1  0
 14 16  1  0
 15 14  2  0
 16 17  1  0
 17 18  1  6
 17 22  1  0
 18 19  1  0
 19 20  1  0
 20 24  1  0
 20 21  2  0
 22 25  2  0
 22 23  1  0
M  END
$$$$
