TNE.pdb
     RDKit          3D

 25 24  0  0  1  0  0  0  0  0999 V2000
   22.9016  -10.0806  -18.7730 C   0  0  0  0  0  0  0  0  0  0  0  0
   21.7457  -10.8561  -19.3058 C   0  0  1  0  0  0  0  0  0  0  0  0
   22.2462  -11.9647  -19.9884 O   0  0  0  0  0  0  0  0  0  0  0  0
   20.8108  -11.3653  -18.2468 C   0  0  2  0  0  0  0  0  0  0  0  0
   19.7785  -12.1563  -18.8915 N   0  0  0  0  0  0  0  0  0  0  0  0
   20.1795  -10.2710  -17.4661 C   0  0  0  0  0  0  0  0  0  0  0  0
   19.5763   -9.3597  -18.0729 O   0  0  0  0  0  0  0  0  0  0  0  0
   18.6656   -7.1663  -13.7020 N   0  0  0  0  0  0  0  0  0  0  0  0
   18.7660   -8.4582  -13.0762 C   0  0  0  0  0  0  0  0  0  0  0  0
   18.3403   -8.6104  -11.9044 O   0  0  0  0  0  0  0  0  0  0  0  0
   19.3700   -9.5767  -13.8319 C   0  0  0  0  0  0  0  0  0  0  0  0
   19.7462   -9.1601  -15.2368 C   0  0  2  0  0  0  0  0  0  0  0  0
   20.2397  -10.2269  -16.0459 N   0  0  0  0  0  0  0  0  0  0  0  0
   20.7328   -8.0254  -15.1480 C   0  0  0  0  0  0  0  0  0  0  0  0
   21.9212   -8.3291  -14.8797 O   0  0  0  0  0  0  0  0  0  0  0  0
   20.3723   -6.6829  -15.3502 N   0  0  0  0  0  0  0  0  0  0  0  0
   21.3714   -5.6361  -15.4151 C   0  0  1  0  0  0  0  0  0  0  0  0
   20.8517   -4.4526  -16.1999 C   0  0  0  0  0  0  0  0  0  0  0  0
   21.9364   -3.3990  -16.2717 C   0  0  0  0  0  0  0  0  0  0  0  0
   21.4672   -2.1698  -16.9477 C   0  0  0  0  0  0  0  0  0  0  0  0
   20.3764   -2.1850  -17.5513 O   0  0  0  0  0  0  0  0  0  0  0  0
   21.7927   -5.2031  -14.0559 C   0  0  0  0  0  0  0  0  0  0  0  0
   23.0076   -4.6141  -13.8050 O   0  0  0  0  0  0  0  0  0  0  0  0
   22.2104   -1.0120  -16.9231 O   0  0  0  0  0  0  0  0  0  0  0  0
   20.9888   -5.3930  -13.1108 O   0  0  0  0  0  0  0  0  0  0  0  0
  2  1  1  1
  2  3  1  0
  2  4  1  0
  4  6  1  0
  4  5  1  6
  6 13  1  0
  6  7  2  0
  9  8  1  0
  9 10  2  0
 11  9  1  0
 12 14  1  0
 12 11  1  1
 13 12  1  0
 14 16  1  0
 15 14  2  0
 16 17  1  0
 17 18  1  1
 17 22  1  0
 18 19  1  0
 19 20  1  0
 20 24  1  0
 20 21  2  0
 22 25  2  0
 22 23  1  0
M  END
$$$$
