TNE.pdb
     RDKit          3D

 25 24  0  0  1  0  0  0  0  0999 V2000
   24.2312  -10.5594  -16.0401 C   0  0  0  0  0  0  0  0  0  0  0  0
   23.3970  -11.3430  -16.9948 C   0  0  1  0  0  0  0  0  0  0  0  0
   24.0483  -12.5500  -17.2488 O   0  0  0  0  0  0  0  0  0  0  0  0
   22.0253  -11.6726  -16.4802 C   0  0  2  0  0  0  0  0  0  0  0  0
   21.3413  -12.4692  -17.4824 N   0  0  0  0  0  0  0  0  0  0  0  0
   21.2209  -10.4614  -16.1780 C   0  0  0  0  0  0  0  0  0  0  0  0
   20.8014   -9.7578  -17.1223 O   0  0  0  0  0  0  0  0  0  0  0  0
   17.7925  -10.1934  -14.7482 N   0  0  0  0  0  0  0  0  0  0  0  0
   18.1379   -9.7801  -13.4138 C   0  0  0  0  0  0  0  0  0  0  0  0
   17.3644  -10.0555  -12.4634 O   0  0  0  0  0  0  0  0  0  0  0  0
   19.3990   -9.0392  -13.1958 C   0  0  0  0  0  0  0  0  0  0  0  0
   20.1912   -8.9000  -14.4771 C   0  0  2  0  0  0  0  0  0  0  0  0
   20.9117  -10.0756  -14.8446 N   0  0  0  0  0  0  0  0  0  0  0  0
   21.1011   -7.7067  -14.3462 C   0  0  0  0  0  0  0  0  0  0  0  0
   22.2181   -7.9038  -13.8076 O   0  0  0  0  0  0  0  0  0  0  0  0
   20.7466   -6.4236  -14.7946 N   0  0  0  0  0  0  0  0  0  0  0  0
   21.6874   -5.3232  -14.7499 C   0  0  1  0  0  0  0  0  0  0  0  0
   21.3066   -4.2566  -15.7519 C   0  0  0  0  0  0  0  0  0  0  0  0
   22.3774   -3.1864  -15.7577 C   0  0  0  0  0  0  0  0  0  0  0  0
   22.0628   -2.0969  -16.7076 C   0  0  0  0  0  0  0  0  0  0  0  0
   21.0465   -2.1878  -17.4240 O   0  0  0  0  0  0  0  0  0  0  0  0
   21.7719   -4.7364  -13.3857 C   0  0  0  0  0  0  0  0  0  0  0  0
   22.8965   -4.1046  -12.9148 O   0  0  0  0  0  0  0  0  0  0  0  0
   22.8691   -0.9870  -16.8153 O   0  0  0  0  0  0  0  0  0  0  0  0
   20.7606   -4.8334  -12.6484 O   0  0  0  0  0  0  0  0  0  0  0  0
  2  1  1  1
  2  3  1  0
  2  4  1  0
  4  6  1  0
  4  5  1  6
  6 13  1  0
  6  7  2  0
  9  8  1  0
  9 10  2  0
 11  9  1  0
 12 14  1  0
 12 11  1  1
 13 12  1  0
 14 16  1  0
 15 14  2  0
 16 17  1  0
 17 18  1  6
 17 22  1  0
 18 19  1  0
 19 20  1  0
 20 24  1  0
 20 21  2  0
 22 25  2  0
 22 23  1  0
M  END
$$$$
