TNE.pdb
     RDKit          3D

 25 24  0  0  1  0  0  0  0  0999 V2000
   26.8175  -10.5455  -15.1775 C   0  0  0  0  0  0  0  0  0  0  0  0
   26.8994  -11.3968  -16.3981 C   0  0  1  0  0  0  0  0  0  0  0  0
   28.0172  -12.2219  -16.2760 O   0  0  0  0  0  0  0  0  0  0  0  0
   25.7063  -12.2848  -16.6054 C   0  0  2  0  0  0  0  0  0  0  0  0
   25.9399  -13.0943  -17.7873 N   0  0  0  0  0  0  0  0  0  0  0  0
   24.4448  -11.5191  -16.7722 C   0  0  0  0  0  0  0  0  0  0  0  0
   24.1889  -11.0010  -17.8806 O   0  0  0  0  0  0  0  0  0  0  0  0
   19.9881   -9.1878  -16.1007 N   0  0  0  0  0  0  0  0  0  0  0  0
   19.9490  -10.2981  -15.1861 C   0  0  0  0  0  0  0  0  0  0  0  0
   18.8834  -10.5544  -14.5727 O   0  0  0  0  0  0  0  0  0  0  0  0
   21.1689  -11.1111  -14.9918 C   0  0  0  0  0  0  0  0  0  0  0  0
   22.3431  -10.5449  -15.7594 C   0  0  2  0  0  0  0  0  0  0  0  0
   23.5159  -11.3562  -15.7076 N   0  0  0  0  0  0  0  0  0  0  0  0
   22.6087   -9.1488  -15.2604 C   0  0  0  0  0  0  0  0  0  0  0  0
   23.2035   -9.0454  -14.1594 O   0  0  0  0  0  0  0  0  0  0  0  0
   22.2224   -7.9986  -15.9683 N   0  0  0  0  0  0  0  0  0  0  0  0
   22.6289   -6.6768  -15.5376 C   0  0  1  0  0  0  0  0  0  0  0  0
   22.4468   -5.6738  -16.6546 C   0  0  0  0  0  0  0  0  0  0  0  0
   22.9668   -4.3288  -16.1937 C   0  0  0  0  0  0  0  0  0  0  0  0
   22.6816   -3.2611  -17.1770 C   0  0  0  0  0  0  0  0  0  0  0  0
   22.0713   -3.5463  -18.2261 O   0  0  0  0  0  0  0  0  0  0  0  0
   21.8734   -6.2426  -14.3322 C   0  0  0  0  0  0  0  0  0  0  0  0
   22.4241   -5.4545  -13.3517 O   0  0  0  0  0  0  0  0  0  0  0  0
   23.0765   -1.9616  -16.9562 O   0  0  0  0  0  0  0  0  0  0  0  0
   20.6822   -6.6235  -14.2252 O   0  0  0  0  0  0  0  0  0  0  0  0
  2  1  1  1
  2  3  1  0
  2  4  1  0
  4  6  1  0
  4  5  1  6
  6 13  1  0
  6  7  2  0
  9  8  1  0
  9 10  2  0
 11  9  1  0
 12 14  1  0
 12 11  1  1
 13 12  1  0
 14 16  1  0
 15 14  2  0
 16 17  1  0
 17 18  1  6
 17 22  1  0
 18 19  1  0
 19 20  1  0
 20 24  1  0
 20 21  2  0
 22 25  2  0
 22 23  1  0
M  END
$$$$
