TNE.pdb
     RDKit          3D

 25 24  0  0  1  0  0  0  0  0999 V2000
   22.2775  -12.3642  -16.7402 C   0  0  0  0  0  0  0  0  0  0  0  0
   21.0320  -12.8831  -17.3733 C   0  0  1  0  0  0  0  0  0  0  0  0
   21.1214  -14.2740  -17.4280 O   0  0  0  0  0  0  0  0  0  0  0  0
   19.7769  -12.5431  -16.6222 C   0  0  2  0  0  0  0  0  0  0  0  0
   18.6653  -13.2267  -17.2579 N   0  0  0  0  0  0  0  0  0  0  0  0
   19.5063  -11.0832  -16.5905 C   0  0  0  0  0  0  0  0  0  0  0  0
   19.5637  -10.4301  -17.6548 O   0  0  0  0  0  0  0  0  0  0  0  0
   16.4885   -9.5100  -16.3049 N   0  0  0  0  0  0  0  0  0  0  0  0
   16.5126   -8.8911  -15.0059 C   0  0  0  0  0  0  0  0  0  0  0  0
   15.4292   -8.5928  -14.4450 O   0  0  0  0  0  0  0  0  0  0  0  0
   17.8170   -8.6216  -14.3634 C   0  0  0  0  0  0  0  0  0  0  0  0
   18.9706   -8.9966  -15.2674 C   0  0  2  0  0  0  0  0  0  0  0  0
   19.1831  -10.4028  -15.3842 N   0  0  0  0  0  0  0  0  0  0  0  0
   20.2060   -8.2847  -14.7818 C   0  0  0  0  0  0  0  0  0  0  0  0
   20.8262   -8.8154  -13.8277 O   0  0  0  0  0  0  0  0  0  0  0  0
   20.6675   -7.0845  -15.3473 N   0  0  0  0  0  0  0  0  0  0  0  0
   21.9167   -6.4844  -14.9260 C   0  0  1  0  0  0  0  0  0  0  0  0
   22.5147   -5.6601  -16.0439 C   0  0  0  0  0  0  0  0  0  0  0  0
   23.7879   -5.0105  -15.5454 C   0  0  0  0  0  0  0  0  0  0  0  0
   24.4186   -4.1655  -16.5829 C   0  0  0  0  0  0  0  0  0  0  0  0
   25.3257   -4.6454  -17.2908 O   0  0  0  0  0  0  0  0  0  0  0  0
   21.7330   -5.6438  -13.7128 C   0  0  0  0  0  0  0  0  0  0  0  0
   22.7115   -5.4828  -12.7629 O   0  0  0  0  0  0  0  0  0  0  0  0
   24.0238   -2.8623  -16.7811 O   0  0  0  0  0  0  0  0  0  0  0  0
   20.6284   -5.0649  -13.5693 O   0  0  0  0  0  0  0  0  0  0  0  0
  2  1  1  1
  2  3  1  0
  2  4  1  0
  4  6  1  0
  4  5  1  6
  6 13  1  0
  6  7  2  0
  9  8  1  0
  9 10  2  0
 11  9  1  0
 12 14  1  0
 12 11  1  1
 13 12  1  0
 14 16  1  0
 15 14  2  0
 16 17  1  0
 17 18  1  6
 17 22  1  0
 18 19  1  0
 19 20  1  0
 20 24  1  0
 20 21  2  0
 22 25  2  0
 22 23  1  0
M  END
$$$$
