TNE.pdb
     RDKit          3D

 25 24  0  0  1  0  0  0  0  0999 V2000
   24.2641  -10.3434  -15.1953 C   0  0  0  0  0  0  0  0  0  0  0  0
   23.6012  -11.6107  -15.6146 C   0  0  1  0  0  0  0  0  0  0  0  0
   24.3009  -12.6742  -15.0446 O   0  0  0  0  0  0  0  0  0  0  0  0
   22.1704  -11.7271  -15.1740 C   0  0  2  0  0  0  0  0  0  0  0  0
   21.6616  -13.0143  -15.6111 N   0  0  0  0  0  0  0  0  0  0  0  0
   21.3130  -10.6450  -15.7214 C   0  0  0  0  0  0  0  0  0  0  0  0
   20.6797  -10.8466  -16.7801 O   0  0  0  0  0  0  0  0  0  0  0  0
   17.1487   -6.6089  -14.8530 N   0  0  0  0  0  0  0  0  0  0  0  0
   18.1582   -7.2393  -15.6620 C   0  0  0  0  0  0  0  0  0  0  0  0
   18.3448   -6.8391  -16.8378 O   0  0  0  0  0  0  0  0  0  0  0  0
   18.9521   -8.3458  -15.0856 C   0  0  0  0  0  0  0  0  0  0  0  0
   20.3919   -8.2970  -15.5474 C   0  0  2  0  0  0  0  0  0  0  0  0
   21.1893   -9.3831  -15.0773 N   0  0  0  0  0  0  0  0  0  0  0  0
   20.9737   -6.9656  -15.1503 C   0  0  0  0  0  0  0  0  0  0  0  0
   21.3047   -6.8295  -13.9468 O   0  0  0  0  0  0  0  0  0  0  0  0
   21.1501   -5.9083  -16.0581 N   0  0  0  0  0  0  0  0  0  0  0  0
   21.7468   -4.6540  -15.6473 C   0  0  1  0  0  0  0  0  0  0  0  0
   22.2952   -3.9087  -16.8433 C   0  0  0  0  0  0  0  0  0  0  0  0
   22.9427   -2.6264  -16.3656 C   0  0  0  0  0  0  0  0  0  0  0  0
   23.5479   -1.8657  -17.4806 C   0  0  0  0  0  0  0  0  0  0  0  0
   24.3910   -2.4225  -18.2110 O   0  0  0  0  0  0  0  0  0  0  0  0
   20.7703   -3.8018  -14.9175 C   0  0  0  0  0  0  0  0  0  0  0  0
   19.4133   -3.8944  -15.1067 O   0  0  0  0  0  0  0  0  0  0  0  0
   23.1986   -0.5576  -17.7265 O   0  0  0  0  0  0  0  0  0  0  0  0
   21.2264   -2.9681  -14.0974 O   0  0  0  0  0  0  0  0  0  0  0  0
  2  1  1  1
  2  3  1  0
  2  4  1  0
  4  6  1  0
  4  5  1  6
  6 13  1  0
  6  7  2  0
  9  8  1  0
  9 10  2  0
 11  9  1  0
 12 14  1  0
 12 11  1  1
 13 12  1  0
 14 16  1  0
 15 14  2  0
 16 17  1  0
 17 18  1  6
 17 22  1  0
 18 19  1  0
 19 20  1  0
 20 24  1  0
 20 21  2  0
 22 25  2  0
 22 23  1  0
M  END
$$$$
