LYT.pdb
     RDKit          3D

 28 28  0  0  1  0  0  0  0  0999 V2000
    7.7174  -12.2373   19.0652 C   0  0  0  0  0  0  0  0  0  0  0  0
    7.9030  -13.7197   19.3237 C   0  0  1  0  0  0  0  0  0  0  0  0
    8.7654  -14.2827   18.2448 C   0  0  0  0  0  0  0  0  0  0  0  0
    8.5021  -13.8753   20.6995 C   0  0  0  0  0  0  0  0  0  0  0  0
    8.7117  -15.2984   21.0925 C   0  0  2  0  0  0  0  0  0  0  0  0
    7.4672  -16.0112   20.8946 N   0  0  0  0  0  0  0  0  0  0  0  0
    9.0896  -15.2933   22.5520 C   0  0  0  0  0  0  0  0  0  0  0  0
   10.1062  -14.6876   22.9489 O   0  0  0  0  0  0  0  0  0  0  0  0
    6.0951  -10.2541   26.5067 O   0  0  0  0  0  0  0  0  0  0  0  0
    6.4794  -11.5756   26.3367 C   0  0  0  0  0  0  0  0  0  0  0  0
    7.4899  -12.0712   27.0954 C   0  0  0  0  0  0  0  0  0  0  0  0
    7.8871  -13.3694   26.9471 C   0  0  0  0  0  0  0  0  0  0  0  0
    7.3183  -14.2591   26.0476 C   0  0  0  0  0  0  0  0  0  0  0  0
    7.7230  -15.6542   25.8774 C   0  0  0  0  0  0  0  0  0  0  0  0
    8.7551  -15.9648   24.9162 C   0  0  2  0  0  0  0  0  0  0  0  0
    8.3436  -15.9507   23.5318 N   0  0  0  0  0  0  0  0  0  0  0  0
    9.4330  -17.2552   25.1040 C   0  0  0  0  0  0  0  0  0  0  0  0
    8.8225  -18.2986   24.6476 O   0  0  0  0  0  0  0  0  0  0  0  0
    6.2773  -13.7080   25.2823 C   0  0  0  0  0  0  0  0  0  0  0  0
    5.8781  -12.4002   25.4323 C   0  0  0  0  0  0  0  0  0  0  0  0
   13.4769  -17.8714   25.9039 C   0  0  0  0  0  0  0  0  0  0  0  0
   12.6138  -18.8490   25.1273 C   0  0  1  0  0  0  0  0  0  0  0  0
   13.1398  -20.1276   25.3021 O   0  0  0  0  0  0  0  0  0  0  0  0
   11.2254  -18.8012   25.7716 C   0  0  2  0  0  0  0  0  0  0  0  0
   10.7014  -17.4557   25.7326 N   0  0  0  0  0  0  0  0  0  0  0  0
   11.2327  -19.3376   27.1171 C   0  0  0  0  0  0  0  0  0  0  0  0
   11.5592  -20.6090   27.4367 O   0  0  0  0  0  0  0  0  0  0  0  0
   10.9075  -18.5564   28.0728 O   0  0  0  0  0  0  0  0  0  0  0  0
  2  1  1  6
  3  2  1  0
  4  2  1  0
  4  5  1  0
  5  6  1  1
  7  5  1  0
  7  8  2  0
  9 10  1  0
 10 11  2  0
 10 20  1  0
 11 12  1  0
 12 13  2  0
 13 14  1  0
 15 14  1  1
 15 16  1  0
 15 17  1  0
 16  7  1  0
 17 25  1  0
 18 17  2  0
 19 13  1  0
 20 19  2  0
 22 24  1  0
 22 21  1  1
 22 23  1  0
 24 26  1  0
 24 25  1  1
 26 28  2  0
 26 27  1  0
M  END
$$$$
