LYT.pdb
     RDKit          3D

 28 28  0  0  1  0  0  0  0  0999 V2000
    7.3888  -11.8232   18.9416 C   0  0  0  0  0  0  0  0  0  0  0  0
    7.5666  -13.3128   19.1610 C   0  0  1  0  0  0  0  0  0  0  0  0
    8.1002  -13.9147   17.9049 C   0  0  0  0  0  0  0  0  0  0  0  0
    8.4877  -13.4973   20.3414 C   0  0  0  0  0  0  0  0  0  0  0  0
    8.6978  -14.9279   20.7058 C   0  0  2  0  0  0  0  0  0  0  0  0
    7.4029  -15.5711   20.7822 N   0  0  0  0  0  0  0  0  0  0  0  0
    9.3706  -14.9366   22.0550 C   0  0  0  0  0  0  0  0  0  0  0  0
   10.5412  -14.5251   22.1902 O   0  0  0  0  0  0  0  0  0  0  0  0
   10.7288  -15.3331   30.8607 O   0  0  0  0  0  0  0  0  0  0  0  0
   10.2052  -15.2359   29.5802 C   0  0  0  0  0  0  0  0  0  0  0  0
    9.7740  -16.3618   28.9570 C   0  0  0  0  0  0  0  0  0  0  0  0
    9.2543  -16.2927   27.6959 C   0  0  0  0  0  0  0  0  0  0  0  0
    9.1260  -15.1172   26.9707 C   0  0  0  0  0  0  0  0  0  0  0  0
    8.5665  -15.0195   25.6231 C   0  0  0  0  0  0  0  0  0  0  0  0
    9.4032  -15.3653   24.4978 C   0  0  2  0  0  0  0  0  0  0  0  0
    8.7420  -15.3950   23.2140 N   0  0  0  0  0  0  0  0  0  0  0  0
   10.1071  -16.6514   24.5990 C   0  0  0  0  0  0  0  0  0  0  0  0
    9.4067  -17.7117   24.3651 O   0  0  0  0  0  0  0  0  0  0  0  0
    9.5833  -13.9760   27.6500 C   0  0  0  0  0  0  0  0  0  0  0  0
   10.1066  -14.0467   28.9202 C   0  0  0  0  0  0  0  0  0  0  0  0
   14.0450  -17.2859   23.8197 C   0  0  0  0  0  0  0  0  0  0  0  0
   12.9465  -18.3185   23.6447 C   0  0  1  0  0  0  0  0  0  0  0  0
   13.5290  -19.5839   23.6815 O   0  0  0  0  0  0  0  0  0  0  0  0
   12.0228  -18.1720   24.8574 C   0  0  2  0  0  0  0  0  0  0  0  0
   11.4886  -16.8314   24.9207 N   0  0  0  0  0  0  0  0  0  0  0  0
   12.6828  -18.5477   26.0908 C   0  0  0  0  0  0  0  0  0  0  0  0
   13.1783  -19.7765   26.3548 O   0  0  0  0  0  0  0  0  0  0  0  0
   12.8069  -17.6568   26.9966 O   0  0  0  0  0  0  0  0  0  0  0  0
  2  1  1  6
  3  2  1  0
  4  2  1  0
  4  5  1  0
  5  6  1  1
  7  5  1  0
  7  8  2  0
  9 10  1  0
 10 11  2  0
 10 20  1  0
 11 12  1  0
 12 13  2  0
 13 14  1  0
 15 14  1  1
 15 16  1  0
 15 17  1  0
 16  7  1  0
 17 25  1  0
 18 17  2  0
 19 13  1  0
 20 19  2  0
 22 24  1  0
 22 21  1  1
 22 23  1  0
 24 26  1  0
 24 25  1  1
 26 28  2  0
 26 27  1  0
M  END
$$$$
