LYT.pdb
     RDKit          3D

 28 28  0  0  1  0  0  0  0  0999 V2000
    9.1755  -17.6702   16.9907 C   0  0  0  0  0  0  0  0  0  0  0  0
    9.0631  -18.4588   18.2807 C   0  0  1  0  0  0  0  0  0  0  0  0
    9.6161  -19.8245   18.0488 C   0  0  0  0  0  0  0  0  0  0  0  0
    9.8032  -17.6966   19.3518 C   0  0  0  0  0  0  0  0  0  0  0  0
    9.7089  -18.3318   20.6976 C   0  0  2  0  0  0  0  0  0  0  0  0
    8.3935  -18.9222   20.8291 N   0  0  0  0  0  0  0  0  0  0  0  0
    9.8955  -17.2304   21.7101 C   0  0  0  0  0  0  0  0  0  0  0  0
   10.9737  -16.6061   21.7868 O   0  0  0  0  0  0  0  0  0  0  0  0
    7.2405  -12.7958   17.9632 O   0  0  0  0  0  0  0  0  0  0  0  0
    7.4428  -13.2509   19.2574 C   0  0  0  0  0  0  0  0  0  0  0  0
    8.6131  -12.9636   19.8819 C   0  0  0  0  0  0  0  0  0  0  0  0
    8.8367  -13.4003   21.1564 C   0  0  0  0  0  0  0  0  0  0  0  0
    7.9278  -14.1437   21.8948 C   0  0  0  0  0  0  0  0  0  0  0  0
    8.1436  -14.6152   23.2623 C   0  0  0  0  0  0  0  0  0  0  0  0
    9.0605  -15.7091   23.4823 C   0  0  2  0  0  0  0  0  0  0  0  0
    8.8972  -16.8464   22.6070 N   0  0  0  0  0  0  0  0  0  0  0  0
    9.0717  -16.2672   24.8418 C   0  0  0  0  0  0  0  0  0  0  0  0
    8.9880  -15.4194   25.8135 O   0  0  0  0  0  0  0  0  0  0  0  0
    6.7308  -14.4196   21.2136 C   0  0  0  0  0  0  0  0  0  0  0  0
    6.5066  -13.9794   19.9298 C   0  0  0  0  0  0  0  0  0  0  0  0
    6.6265  -17.8628   26.5918 C   0  0  0  0  0  0  0  0  0  0  0  0
    7.7844  -18.8130   26.8366 C   0  0  1  0  0  0  0  0  0  0  0  0
    7.7103  -19.8401   25.8977 O   0  0  0  0  0  0  0  0  0  0  0  0
    9.0616  -18.0084   26.5787 C   0  0  2  0  0  0  0  0  0  0  0  0
    9.1562  -17.6534   25.1817 N   0  0  0  0  0  0  0  0  0  0  0  0
   10.2448  -18.7063   27.0384 C   0  0  0  0  0  0  0  0  0  0  0  0
   10.4229  -19.1747   28.2930 O   0  0  0  0  0  0  0  0  0  0  0  0
   11.1900  -18.8940   26.2012 O   0  0  0  0  0  0  0  0  0  0  0  0
  2  1  1  6
  3  2  1  0
  4  2  1  0
  4  5  1  0
  5  6  1  1
  7  5  1  0
  7  8  2  0
  9 10  1  0
 10 11  2  0
 10 20  1  0
 11 12  1  0
 12 13  2  0
 13 14  1  0
 15 14  1  1
 15 16  1  0
 15 17  1  0
 16  7  1  0
 17 25  1  0
 18 17  2  0
 19 13  1  0
 20 19  2  0
 22 24  1  0
 22 21  1  6
 22 23  1  0
 24 26  1  0
 24 25  1  6
 26 28  2  0
 26 27  1  0
M  END
$$$$
