LYT.pdb
     RDKit          3D

 28 28  0  0  1  0  0  0  0  0999 V2000
    3.4522  -20.2247   15.5695 C   0  0  0  0  0  0  0  0  0  0  0  0
    4.8545  -20.7288   15.8489 C   0  0  1  0  0  0  0  0  0  0  0  0
    5.7020  -20.4545   14.6526 C   0  0  0  0  0  0  0  0  0  0  0  0
    5.3517  -20.0388   17.0950 C   0  0  0  0  0  0  0  0  0  0  0  0
    6.7980  -20.2817   17.3648 C   0  0  2  0  0  0  0  0  0  0  0  0
    6.9526  -21.6514   17.8077 N   0  0  0  0  0  0  0  0  0  0  0  0
    7.2007  -19.3257   18.4589 C   0  0  0  0  0  0  0  0  0  0  0  0
    6.3446  -18.6541   19.0706 O   0  0  0  0  0  0  0  0  0  0  0  0
   11.7473  -16.2252   25.4392 O   0  0  0  0  0  0  0  0  0  0  0  0
   11.1700  -16.9252   24.3905 C   0  0  0  0  0  0  0  0  0  0  0  0
   11.9212  -17.2131   23.2974 C   0  0  0  0  0  0  0  0  0  0  0  0
   11.3760  -17.9014   22.2513 C   0  0  0  0  0  0  0  0  0  0  0  0
   10.0635  -18.3486   22.2138 C   0  0  0  0  0  0  0  0  0  0  0  0
    9.4618  -19.0927   21.1080 C   0  0  0  0  0  0  0  0  0  0  0  0
    8.8688  -18.3552   20.0170 C   0  0  2  0  0  0  0  0  0  0  0  0
    8.5270  -19.1342   18.8497 N   0  0  0  0  0  0  0  0  0  0  0  0
    9.6586  -17.2248   19.5087 C   0  0  0  0  0  0  0  0  0  0  0  0
   10.4976  -17.4876   18.5618 O   0  0  0  0  0  0  0  0  0  0  0  0
    9.3204  -18.0307   23.3626 C   0  0  0  0  0  0  0  0  0  0  0  0
    9.8704  -17.3373   24.4157 C   0  0  0  0  0  0  0  0  0  0  0  0
   10.5353  -12.6500   18.3292 C   0  0  0  0  0  0  0  0  0  0  0  0
    9.5905  -13.6135   19.0240 C   0  0  1  0  0  0  0  0  0  0  0  0
    8.5543  -13.9177   18.1433 O   0  0  0  0  0  0  0  0  0  0  0  0
   10.3959  -14.8890   19.2878 C   0  0  2  0  0  0  0  0  0  0  0  0
    9.5746  -15.8701   19.9581 N   0  0  0  0  0  0  0  0  0  0  0  0
   11.6167  -14.6184   20.0189 C   0  0  0  0  0  0  0  0  0  0  0  0
   12.7584  -14.1549   19.4650 O   0  0  0  0  0  0  0  0  0  0  0  0
   11.6187  -14.8324   21.2773 O   0  0  0  0  0  0  0  0  0  0  0  0
  2  1  1  6
  3  2  1  0
  4  2  1  0
  4  5  1  0
  5  6  1  1
  7  5  1  0
  7  8  2  0
  9 10  1  0
 10 11  2  0
 10 20  1  0
 11 12  1  0
 12 13  2  0
 13 14  1  0
 15 14  1  1
 15 16  1  0
 15 17  1  0
 16  7  1  0
 17 25  1  0
 18 17  2  0
 19 13  1  0
 20 19  2  0
 22 24  1  0
 22 21  1  6
 22 23  1  0
 24 26  1  0
 24 25  1  1
 26 28  2  0
 26 27  1  0
M  END
$$$$
