LYT.pdb
     RDKit          3D

 28 28  0  0  1  0  0  0  0  0999 V2000
    7.1230  -12.0724   19.4078 C   0  0  0  0  0  0  0  0  0  0  0  0
    7.4239  -13.5556   19.4979 C   0  0  1  0  0  0  0  0  0  0  0  0
    8.0396  -13.9914   18.2112 C   0  0  0  0  0  0  0  0  0  0  0  0
    8.3273  -13.7703   20.6869 C   0  0  0  0  0  0  0  0  0  0  0  0
    8.6049  -15.2093   20.9627 C   0  0  2  0  0  0  0  0  0  0  0  0
    7.3639  -15.9435   20.8316 N   0  0  0  0  0  0  0  0  0  0  0  0
    9.1164  -15.2878   22.3787 C   0  0  0  0  0  0  0  0  0  0  0  0
   10.1738  -14.7139   22.7111 O   0  0  0  0  0  0  0  0  0  0  0  0
    5.9625  -10.6532   26.7946 O   0  0  0  0  0  0  0  0  0  0  0  0
    6.4704  -11.9208   26.5531 C   0  0  0  0  0  0  0  0  0  0  0  0
    5.6263  -12.9030   26.1471 C   0  0  0  0  0  0  0  0  0  0  0  0
    6.1018  -14.1597   25.9026 C   0  0  0  0  0  0  0  0  0  0  0  0
    7.4318  -14.5288   26.0409 C   0  0  0  0  0  0  0  0  0  0  0  0
    7.9633  -15.8656   25.7780 C   0  0  0  0  0  0  0  0  0  0  0  0
    8.9559  -16.0259   24.7412 C   0  0  2  0  0  0  0  0  0  0  0  0
    8.4553  -15.9915   23.3869 N   0  0  0  0  0  0  0  0  0  0  0  0
    9.7688  -17.2477   24.8211 C   0  0  0  0  0  0  0  0  0  0  0  0
    9.2094  -18.3396   24.4152 O   0  0  0  0  0  0  0  0  0  0  0  0
    8.2718  -13.4850   26.4624 C   0  0  0  0  0  0  0  0  0  0  0  0
    7.7918  -12.2195   26.7085 C   0  0  0  0  0  0  0  0  0  0  0  0
   13.7400  -19.9572   24.8900 C   0  0  0  0  0  0  0  0  0  0  0  0
   13.2050  -18.5369   24.9088 C   0  0  1  0  0  0  0  0  0  0  0  0
   13.2659  -18.0320   23.6114 O   0  0  0  0  0  0  0  0  0  0  0  0
   11.7344  -18.6379   25.3237 C   0  0  2  0  0  0  0  0  0  0  0  0
   11.1152  -17.3332   25.2945 N   0  0  0  0  0  0  0  0  0  0  0  0
   11.5770  -19.2801   26.6125 C   0  0  0  0  0  0  0  0  0  0  0  0
   11.6141  -20.6151   26.8164 O   0  0  0  0  0  0  0  0  0  0  0  0
   11.3890  -18.5349   27.6317 O   0  0  0  0  0  0  0  0  0  0  0  0
  2  1  1  6
  3  2  1  0
  4  2  1  0
  4  5  1  0
  5  6  1  1
  7  5  1  0
  7  8  2  0
  9 10  1  0
 10 11  2  0
 10 20  1  0
 11 12  1  0
 12 13  2  0
 13 14  1  0
 15 14  1  1
 15 16  1  0
 15 17  1  0
 16  7  1  0
 17 25  1  0
 18 17  2  0
 19 13  1  0
 20 19  2  0
 22 24  1  0
 22 21  1  6
 22 23  1  0
 24 26  1  0
 24 25  1  1
 26 28  2  0
 26 27  1  0
M  END
$$$$
