LYT.pdb
     RDKit          3D

 28 28  0  0  1  0  0  0  0  0999 V2000
    6.4726  -18.4114   19.7591 C   0  0  0  0  0  0  0  0  0  0  0  0
    7.3222  -17.1615   19.8795 C   0  0  1  0  0  0  0  0  0  0  0  0
    7.8781  -16.8369   18.5341 C   0  0  0  0  0  0  0  0  0  0  0  0
    6.4499  -16.0644   20.4379 C   0  0  0  0  0  0  0  0  0  0  0  0
    7.1504  -14.7523   20.5439 C   0  0  2  0  0  0  0  0  0  0  0  0
    7.9653  -14.5766   19.3602 N   0  0  0  0  0  0  0  0  0  0  0  0
    8.0179  -14.8230   21.7749 C   0  0  0  0  0  0  0  0  0  0  0  0
    9.2575  -14.9342   21.6801 O   0  0  0  0  0  0  0  0  0  0  0  0
   10.7398  -14.4747   30.2623 O   0  0  0  0  0  0  0  0  0  0  0  0
   10.0026  -14.4331   29.0885 C   0  0  0  0  0  0  0  0  0  0  0  0
   10.0323  -13.3073   28.3309 C   0  0  0  0  0  0  0  0  0  0  0  0
    9.3151  -13.2413   27.1705 C   0  0  0  0  0  0  0  0  0  0  0  0
    8.5268  -14.2734   26.6833 C   0  0  0  0  0  0  0  0  0  0  0  0
    7.7568  -14.2267   25.4408 C   0  0  0  0  0  0  0  0  0  0  0  0
    8.3648  -14.7241   24.2289 C   0  0  2  0  0  0  0  0  0  0  0  0
    7.5025  -14.7698   23.0711 N   0  0  0  0  0  0  0  0  0  0  0  0
    8.9609  -16.0645   24.3191 C   0  0  0  0  0  0  0  0  0  0  0  0
    8.1410  -17.0628   24.2911 O   0  0  0  0  0  0  0  0  0  0  0  0
    8.5229  -15.4194   27.4956 C   0  0  0  0  0  0  0  0  0  0  0  0
    9.2456  -15.4849   28.6642 C   0  0  0  0  0  0  0  0  0  0  0  0
   10.8692  -17.9462   22.0793 C   0  0  0  0  0  0  0  0  0  0  0  0
   11.6807  -18.1088   23.3516 C   0  0  1  0  0  0  0  0  0  0  0  0
   12.7241  -17.1856   23.3229 O   0  0  0  0  0  0  0  0  0  0  0  0
   10.7431  -17.7487   24.5075 C   0  0  2  0  0  0  0  0  0  0  0  0
   10.3559  -16.3596   24.4240 N   0  0  0  0  0  0  0  0  0  0  0  0
   11.3219  -18.0699   25.7959 C   0  0  0  0  0  0  0  0  0  0  0  0
   11.6389  -19.3170   26.2075 O   0  0  0  0  0  0  0  0  0  0  0  0
   11.5501  -17.1086   26.6041 O   0  0  0  0  0  0  0  0  0  0  0  0
  2  1  1  6
  3  2  1  0
  4  2  1  0
  4  5  1  0
  5  6  1  6
  7  5  1  0
  7  8  2  0
  9 10  1  0
 10 11  2  0
 10 20  1  0
 11 12  1  0
 12 13  2  0
 13 14  1  0
 15 14  1  1
 15 16  1  0
 15 17  1  0
 16  7  1  0
 17 25  1  0
 18 17  2  0
 19 13  1  0
 20 19  2  0
 22 24  1  0
 22 21  1  6
 22 23  1  0
 24 26  1  0
 24 25  1  1
 26 28  2  0
 26 27  1  0
M  END
$$$$
