LYT.pdb
     RDKit          3D

 28 28  0  0  1  0  0  0  0  0999 V2000
    8.9716  -20.8416   19.2416 C   0  0  0  0  0  0  0  0  0  0  0  0
    9.0244  -19.4221   18.7116 C   0  0  1  0  0  0  0  0  0  0  0  0
    7.7267  -19.1199   18.0412 C   0  0  0  0  0  0  0  0  0  0  0  0
    9.3144  -18.5070   19.8755 C   0  0  0  0  0  0  0  0  0  0  0  0
    9.1810  -17.0614   19.5348 C   0  0  2  0  0  0  0  0  0  0  0  0
   10.2650  -16.7037   18.6441 N   0  0  0  0  0  0  0  0  0  0  0  0
    9.2911  -16.2993   20.8309 C   0  0  0  0  0  0  0  0  0  0  0  0
   10.3921  -15.8657   21.2282 O   0  0  0  0  0  0  0  0  0  0  0  0
    7.0597  -11.7498   28.1749 O   0  0  0  0  0  0  0  0  0  0  0  0
    7.0751  -12.4209   26.9615 C   0  0  0  0  0  0  0  0  0  0  0  0
    7.4405  -11.7483   25.8406 C   0  0  0  0  0  0  0  0  0  0  0  0
    7.4638  -12.3866   24.6335 C   0  0  0  0  0  0  0  0  0  0  0  0
    7.1311  -13.7210   24.4525 C   0  0  0  0  0  0  0  0  0  0  0  0
    7.1559  -14.4257   23.1712 C   0  0  0  0  0  0  0  0  0  0  0  0
    8.3134  -15.2235   22.8407 C   0  0  2  0  0  0  0  0  0  0  0  0
    8.1935  -16.0352   21.6520 N   0  0  0  0  0  0  0  0  0  0  0  0
    8.7743  -16.1429   23.8906 C   0  0  0  0  0  0  0  0  0  0  0  0
    7.9751  -17.1094   24.2017 O   0  0  0  0  0  0  0  0  0  0  0  0
    6.7590  -14.3808   25.6353 C   0  0  0  0  0  0  0  0  0  0  0  0
    6.7357  -13.7369   26.8507 C   0  0  0  0  0  0  0  0  0  0  0  0
   11.6753  -18.2022   23.7552 C   0  0  0  0  0  0  0  0  0  0  0  0
   11.7316  -17.7057   25.1884 C   0  0  1  0  0  0  0  0  0  0  0  0
   12.6591  -16.6677   25.2530 O   0  0  0  0  0  0  0  0  0  0  0  0
   10.3437  -17.1390   25.5010 C   0  0  2  0  0  0  0  0  0  0  0  0
   10.0218  -16.0692   24.5854 N   0  0  0  0  0  0  0  0  0  0  0  0
   10.2275  -16.7189   26.8824 C   0  0  0  0  0  0  0  0  0  0  0  0
   10.0984  -17.5579   27.9334 O   0  0  0  0  0  0  0  0  0  0  0  0
   10.2478  -15.4666   27.1290 O   0  0  0  0  0  0  0  0  0  0  0  0
  2  1  1  1
  3  2  1  0
  4  2  1  0
  4  5  1  0
  5  6  1  6
  7  5  1  0
  7  8  2  0
  9 10  1  0
 10 11  2  0
 10 20  1  0
 11 12  1  0
 12 13  2  0
 13 14  1  0
 15 14  1  1
 15 16  1  0
 15 17  1  0
 16  7  1  0
 17 25  1  0
 18 17  2  0
 19 13  1  0
 20 19  2  0
 22 24  1  0
 22 21  1  6
 22 23  1  0
 24 26  1  0
 24 25  1  6
 26 28  2  0
 26 27  1  0
M  END
$$$$
