LYT.pdb
     RDKit          3D

 28 28  0  0  1  0  0  0  0  0999 V2000
    6.9922  -21.9882   23.3230 C   0  0  0  0  0  0  0  0  0  0  0  0
    6.9955  -21.1670   22.0485 C   0  0  1  0  0  0  0  0  0  0  0  0
    5.6032  -21.1160   21.5161 C   0  0  0  0  0  0  0  0  0  0  0  0
    7.5504  -19.8040   22.3810 C   0  0  0  0  0  0  0  0  0  0  0  0
    7.5550  -18.8710   21.2178 C   0  0  2  0  0  0  0  0  0  0  0  0
    8.0862  -19.5782   20.0715 N   0  0  0  0  0  0  0  0  0  0  0  0
    8.4548  -17.7199   21.5899 C   0  0  0  0  0  0  0  0  0  0  0  0
    9.6449  -17.6893   21.2147 O   0  0  0  0  0  0  0  0  0  0  0  0
    7.5616  -12.9609   16.9023 O   0  0  0  0  0  0  0  0  0  0  0  0
    7.7930  -13.2689   18.2344 C   0  0  0  0  0  0  0  0  0  0  0  0
    6.7354  -13.3894   19.0766 C   0  0  0  0  0  0  0  0  0  0  0  0
    6.9368  -13.6921   20.3930 C   0  0  0  0  0  0  0  0  0  0  0  0
    8.1853  -13.8950   20.9625 C   0  0  0  0  0  0  0  0  0  0  0  0
    8.4232  -14.2266   22.3669 C   0  0  0  0  0  0  0  0  0  0  0  0
    8.9090  -15.5464   22.6953 C   0  0  2  0  0  0  0  0  0  0  0  0
    8.0248  -16.6384   22.3605 N   0  0  0  0  0  0  0  0  0  0  0  0
    9.2697  -15.7601   24.1039 C   0  0  0  0  0  0  0  0  0  0  0  0
    9.1209  -14.7504   24.8964 O   0  0  0  0  0  0  0  0  0  0  0  0
    9.2522  -13.7613   20.0587 C   0  0  0  0  0  0  0  0  0  0  0  0
    9.0483  -13.4563   18.7329 C   0  0  0  0  0  0  0  0  0  0  0  0
    7.7839  -15.6829   25.9722 C   0  0  0  0  0  0  0  0  0  0  0  0
    8.3630  -16.8967   26.6759 C   0  0  1  0  0  0  0  0  0  0  0  0
    7.5948  -18.0071   26.3310 O   0  0  0  0  0  0  0  0  0  0  0  0
    9.7742  -17.0866   26.1124 C   0  0  2  0  0  0  0  0  0  0  0  0
    9.7571  -16.9782   24.6722 N   0  0  0  0  0  0  0  0  0  0  0  0
   10.3711  -18.3311   26.5519 C   0  0  0  0  0  0  0  0  0  0  0  0
   10.7150  -18.6110   27.8280 O   0  0  0  0  0  0  0  0  0  0  0  0
   10.5901  -19.2310   25.6733 O   0  0  0  0  0  0  0  0  0  0  0  0
  2  1  1  1
  3  2  1  0
  4  2  1  0
  4  5  1  0
  5  6  1  6
  7  5  1  0
  7  8  2  0
  9 10  1  0
 10 11  2  0
 10 20  1  0
 11 12  1  0
 12 13  2  0
 13 14  1  0
 15 14  1  1
 15 16  1  0
 15 17  1  0
 16  7  1  0
 17 25  1  0
 18 17  2  0
 19 13  1  0
 20 19  2  0
 22 24  1  0
 22 21  1  6
 22 23  1  0
 24 26  1  0
 24 25  1  6
 26 28  2  0
 26 27  1  0
M  END
$$$$
