LYT.pdb
     RDKit          3D

 28 28  0  0  1  0  0  0  0  0999 V2000
    6.0864  -11.6112   26.9775 C   0  0  0  0  0  0  0  0  0  0  0  0
    7.0293  -12.7948   26.8841 C   0  0  1  0  0  0  0  0  0  0  0  0
    7.8059  -12.8811   28.1546 C   0  0  0  0  0  0  0  0  0  0  0  0
    6.1982  -14.0250   26.6158 C   0  0  0  0  0  0  0  0  0  0  0  0
    7.0128  -15.2121   26.2276 C   0  0  2  0  0  0  0  0  0  0  0  0
    8.3395  -15.0534   26.7851 N   0  0  0  0  0  0  0  0  0  0  0  0
    7.0723  -15.2223   24.7211 C   0  0  0  0  0  0  0  0  0  0  0  0
    6.0290  -15.2865   24.0388 O   0  0  0  0  0  0  0  0  0  0  0  0
    7.9750  -13.0297   16.4118 O   0  0  0  0  0  0  0  0  0  0  0  0
    8.0629  -13.2095   17.7840 C   0  0  0  0  0  0  0  0  0  0  0  0
    9.2659  -13.0555   18.3934 C   0  0  0  0  0  0  0  0  0  0  0  0
    9.3788  -13.2271   19.7435 C   0  0  0  0  0  0  0  0  0  0  0  0
    8.3208  -13.5594   20.5768 C   0  0  0  0  0  0  0  0  0  0  0  0
    8.4178  -13.7410   22.0247 C   0  0  0  0  0  0  0  0  0  0  0  0
    8.2921  -15.0738   22.5666 C   0  0  2  0  0  0  0  0  0  0  0  0
    8.2708  -15.1621   24.0081 N   0  0  0  0  0  0  0  0  0  0  0  0
    9.3167  -16.0355   22.1363 C   0  0  0  0  0  0  0  0  0  0  0  0
   10.3087  -16.2204   22.9434 O   0  0  0  0  0  0  0  0  0  0  0  0
    7.0946  -13.7097   19.9081 C   0  0  0  0  0  0  0  0  0  0  0  0
    6.9820  -13.5368   18.5481 C   0  0  0  0  0  0  0  0  0  0  0  0
    8.7217  -19.5603   20.4764 C   0  0  0  0  0  0  0  0  0  0  0  0
    9.8786  -18.8687   19.7786 C   0  0  1  0  0  0  0  0  0  0  0  0
    9.3927  -18.2753   18.6151 O   0  0  0  0  0  0  0  0  0  0  0  0
   10.3534  -17.7641   20.7271 C   0  0  2  0  0  0  0  0  0  0  0  0
    9.3084  -16.7856   20.9191 N   0  0  0  0  0  0  0  0  0  0  0  0
   11.5866  -17.1535   20.2750 C   0  0  0  0  0  0  0  0  0  0  0  0
   11.7132  -15.8618   19.9002 O   0  0  0  0  0  0  0  0  0  0  0  0
   12.6315  -17.8851   20.2250 O   0  0  0  0  0  0  0  0  0  0  0  0
  2  1  1  1
  3  2  1  0
  4  2  1  0
  4  5  1  0
  5  6  1  1
  7  5  1  0
  7  8  2  0
  9 10  1  0
 10 11  2  0
 10 20  1  0
 11 12  1  0
 12 13  2  0
 13 14  1  0
 15 14  1  1
 15 16  1  0
 15 17  1  0
 16  7  1  0
 17 25  1  0
 18 17  2  0
 19 13  1  0
 20 19  2  0
 22 24  1  0
 22 21  1  1
 22 23  1  0
 24 26  1  0
 24 25  1  6
 26 28  2  0
 26 27  1  0
M  END
$$$$
