LYT.pdb
     RDKit          3D

 28 28  0  0  1  0  0  0  0  0999 V2000
    6.3943  -13.7741   20.0606 C   0  0  0  0  0  0  0  0  0  0  0  0
    7.5288  -13.7540   19.0550 C   0  0  1  0  0  0  0  0  0  0  0  0
    8.0960  -12.3753   19.0106 C   0  0  0  0  0  0  0  0  0  0  0  0
    8.5370  -14.7935   19.4781 C   0  0  0  0  0  0  0  0  0  0  0  0
    9.7596  -14.8091   18.6245 C   0  0  2  0  0  0  0  0  0  0  0  0
    9.4499  -15.5203   17.4020 N   0  0  0  0  0  0  0  0  0  0  0  0
   10.8227  -15.5401   19.4044 C   0  0  0  0  0  0  0  0  0  0  0  0
   11.0936  -16.7330   19.1562 O   0  0  0  0  0  0  0  0  0  0  0  0
   17.1359  -13.8955   16.7225 O   0  0  0  0  0  0  0  0  0  0  0  0
   16.3203  -14.1183   17.8217 C   0  0  0  0  0  0  0  0  0  0  0  0
   16.6862  -15.0527   18.7355 C   0  0  0  0  0  0  0  0  0  0  0  0
   15.9002  -15.2908   19.8268 C   0  0  0  0  0  0  0  0  0  0  0  0
   14.7100  -14.6281   20.0878 C   0  0  0  0  0  0  0  0  0  0  0  0
   13.8572  -14.8621   21.2526 C   0  0  0  0  0  0  0  0  0  0  0  0
   12.6466  -15.6312   21.0828 C   0  0  2  0  0  0  0  0  0  0  0  0
   11.5563  -14.9435   20.4313 N   0  0  0  0  0  0  0  0  0  0  0  0
   12.0696  -16.1906   22.3132 C   0  0  0  0  0  0  0  0  0  0  0  0
   11.5571  -15.3454   23.1455 O   0  0  0  0  0  0  0  0  0  0  0  0
   14.3671  -13.6702   19.1194 C   0  0  0  0  0  0  0  0  0  0  0  0
   15.1594  -13.4312   18.0205 C   0  0  0  0  0  0  0  0  0  0  0  0
    9.3397  -18.6740   22.9018 C   0  0  0  0  0  0  0  0  0  0  0  0
   10.4964  -19.1350   23.7697 C   0  0  1  0  0  0  0  0  0  0  0  0
   11.1870  -20.1304   23.0812 O   0  0  0  0  0  0  0  0  0  0  0  0
   11.4200  -17.9244   23.9321 C   0  0  2  0  0  0  0  0  0  0  0  0
   12.0163  -17.5758   22.6635 N   0  0  0  0  0  0  0  0  0  0  0  0
   12.4210  -18.1390   24.9569 C   0  0  0  0  0  0  0  0  0  0  0  0
   12.1509  -18.3531   26.2632 O   0  0  0  0  0  0  0  0  0  0  0  0
   13.6479  -18.1252   24.6050 O   0  0  0  0  0  0  0  0  0  0  0  0
  2  1  1  1
  3  2  1  0
  4  2  1  0
  4  5  1  0
  5  6  1  6
  7  5  1  0
  7  8  2  0
  9 10  1  0
 10 11  2  0
 10 20  1  0
 11 12  1  0
 12 13  2  0
 13 14  1  0
 15 14  1  1
 15 16  1  0
 15 17  1  0
 16  7  1  0
 17 25  1  0
 18 17  2  0
 19 13  1  0
 20 19  2  0
 22 24  1  0
 22 21  1  6
 22 23  1  0
 24 26  1  0
 24 25  1  6
 26 28  2  0
 26 27  1  0
M  END
$$$$
