LYT.pdb
     RDKit          3D

 28 28  0  0  1  0  0  0  0  0999 V2000
    7.8978  -20.4896   18.9422 C   0  0  0  0  0  0  0  0  0  0  0  0
    8.3470  -19.1304   18.4426 C   0  0  1  0  0  0  0  0  0  0  0  0
    7.2220  -18.5108   17.6843 C   0  0  0  0  0  0  0  0  0  0  0  0
    8.7700  -18.3167   19.6405 C   0  0  0  0  0  0  0  0  0  0  0  0
    8.8960  -16.8600   19.3475 C   0  0  2  0  0  0  0  0  0  0  0  0
   10.0725  -16.6628   18.5271 N   0  0  0  0  0  0  0  0  0  0  0  0
    9.0568  -16.1638   20.6751 C   0  0  0  0  0  0  0  0  0  0  0  0
   10.1890  -15.9634   21.1609 O   0  0  0  0  0  0  0  0  0  0  0  0
    7.0337  -12.0407   28.3380 O   0  0  0  0  0  0  0  0  0  0  0  0
    7.0233  -12.5719   27.0571 C   0  0  0  0  0  0  0  0  0  0  0  0
    7.6907  -11.9235   26.0690 C   0  0  0  0  0  0  0  0  0  0  0  0
    7.6956  -12.4262   24.7992 C   0  0  0  0  0  0  0  0  0  0  0  0
    7.0477  -13.5932   24.4218 C   0  0  0  0  0  0  0  0  0  0  0  0
    7.0458  -14.1527   23.0706 C   0  0  0  0  0  0  0  0  0  0  0  0
    8.1622  -14.9700   22.6567 C   0  0  2  0  0  0  0  0  0  0  0  0
    7.9743  -15.7086   21.4298 N   0  0  0  0  0  0  0  0  0  0  0  0
    8.6233  -15.9625   23.6377 C   0  0  0  0  0  0  0  0  0  0  0  0
    7.9266  -17.0468   23.7314 O   0  0  0  0  0  0  0  0  0  0  0  0
    6.3694  -14.2332   25.4721 C   0  0  0  0  0  0  0  0  0  0  0  0
    6.3649  -13.7261   26.7509 C   0  0  0  0  0  0  0  0  0  0  0  0
   11.9678  -18.5535   25.8017 C   0  0  0  0  0  0  0  0  0  0  0  0
   11.5988  -17.4114   24.8727 C   0  0  1  0  0  0  0  0  0  0  0  0
   11.5971  -17.8965   23.5663 O   0  0  0  0  0  0  0  0  0  0  0  0
   10.1702  -17.0021   25.2423 C   0  0  2  0  0  0  0  0  0  0  0  0
    9.7699  -15.8403   24.4830 N   0  0  0  0  0  0  0  0  0  0  0  0
   10.0171  -16.7931   26.6674 C   0  0  0  0  0  0  0  0  0  0  0  0
    9.6238  -17.7410   27.5461 O   0  0  0  0  0  0  0  0  0  0  0  0
   10.2705  -15.6311   27.1309 O   0  0  0  0  0  0  0  0  0  0  0  0
  2  1  1  1
  3  2  1  0
  4  2  1  0
  4  5  1  0
  5  6  1  6
  7  5  1  0
  7  8  2  0
  9 10  1  0
 10 11  2  0
 10 20  1  0
 11 12  1  0
 12 13  2  0
 13 14  1  0
 15 14  1  1
 15 16  1  0
 15 17  1  0
 16  7  1  0
 17 25  1  0
 18 17  2  0
 19 13  1  0
 20 19  2  0
 22 24  1  0
 22 21  1  1
 22 23  1  0
 24 26  1  0
 24 25  1  6
 26 28  2  0
 26 27  1  0
M  END
$$$$
