QGR.pdb
     RDKit          3D

 25 24  0  0  1  0  0  0  0  0999 V2000
   27.7069  -33.1743   -4.0111 N   0  0  0  0  0  0  0  0  0  0  0  0
   26.5183  -33.9168   -4.0862 C   0  0  0  0  0  0  0  0  0  0  0  0
   26.4142  -34.9152   -3.3013 O   0  0  0  0  0  0  0  0  0  0  0  0
   25.4025  -33.6249   -4.9873 C   0  0  0  0  0  0  0  0  0  0  0  0
   25.6124  -33.9150   -6.4171 C   0  0  0  0  0  0  0  0  0  0  0  0
   26.0987  -32.7705   -7.2573 C   0  0  2  0  0  0  0  0  0  0  0  0
   24.9000  -32.0158   -7.7118 N   0  0  0  0  0  0  0  0  0  0  0  0
   26.8805  -33.1138   -8.4264 C   0  0  0  0  0  0  0  0  0  0  0  0
   28.0094  -33.6199   -8.3430 O   0  0  0  0  0  0  0  0  0  0  0  0
   26.3258  -32.8656   -9.7244 N   0  0  0  0  0  0  0  0  0  0  0  0
   27.0882  -33.2757  -10.8554 C   0  0  0  0  0  0  0  0  0  0  0  0
   26.4584  -33.0378  -12.1712 C   0  0  0  0  0  0  0  0  0  0  0  0
   25.2106  -32.8011  -12.1491 O   0  0  0  0  0  0  0  0  0  0  0  0
   30.5904  -30.3254  -18.3415 N   0  0  0  0  0  0  0  0  0  0  0  0
   30.2533  -31.7013  -18.2134 C   0  0  0  0  0  0  0  0  0  0  0  0
   31.2370  -32.5429  -18.3064 N   0  0  0  0  0  0  0  0  0  0  0  0
   28.9295  -32.1141  -17.9990 N   0  0  0  0  0  0  0  0  0  0  0  0
   27.8701  -31.0619  -17.9071 C   0  0  0  0  0  0  0  0  0  0  0  0
   26.9564  -31.4153  -16.8149 C   0  0  0  0  0  0  0  0  0  0  0  0
   27.3325  -32.2245  -15.6602 C   0  0  0  0  0  0  0  0  0  0  0  0
   26.3316  -32.5236  -14.6250 C   0  0  2  0  0  0  0  0  0  0  0  0
   27.0891  -33.0460  -13.4191 N   0  0  0  0  0  0  0  0  0  0  0  0
   25.4747  -33.6870  -14.9909 C   0  0  0  0  0  0  0  0  0  0  0  0
   25.9271  -34.8458  -14.6315 O   0  0  0  0  0  0  0  0  0  0  0  0
   24.2975  -33.6481  -15.6422 O   0  0  0  0  0  0  0  0  0  0  0  0
  2  3  2  0
  2  1  1  0
  4  2  1  0
  5  4  1  0
  6  5  1  0
  6  7  1  6
  8  9  2  0
  8  6  1  0
 10  8  1  0
 11 12  1  0
 11 10  1  0
 12 22  1  0
 13 12  2  0
 15 14  1  0
 16 15  2  0
 17 15  1  0
 18 17  1  0
 19 18  1  0
 20 19  1  0
 21 22  1  0
 21 20  1  6
 23 21  1  0
 24 23  2  0
 25 23  1  0
M  END
$$$$
