QGR.pdb
     RDKit          3D

 25 24  0  0  1  0  0  0  0  0999 V2000
   23.1167  -19.0931  -20.2984 N   0  0  0  0  0  0  0  0  0  0  0  0
   23.4480  -19.3903  -18.9675 C   0  0  0  0  0  0  0  0  0  0  0  0
   24.6251  -19.0850  -18.5866 O   0  0  0  0  0  0  0  0  0  0  0  0
   22.5460  -20.0132  -17.9976 C   0  0  0  0  0  0  0  0  0  0  0  0
   21.8421  -19.1080  -17.0714 C   0  0  0  0  0  0  0  0  0  0  0  0
   22.4344  -18.9786  -15.6987 C   0  0  2  0  0  0  0  0  0  0  0  0
   23.4259  -20.0763  -15.5402 N   0  0  0  0  0  0  0  0  0  0  0  0
   21.5098  -19.0475  -14.5868 C   0  0  0  0  0  0  0  0  0  0  0  0
   20.5041  -18.3257  -14.5161 O   0  0  0  0  0  0  0  0  0  0  0  0
   21.7638  -19.9882  -13.5358 N   0  0  0  0  0  0  0  0  0  0  0  0
   20.8498  -20.0176  -12.4439 C   0  0  0  0  0  0  0  0  0  0  0  0
   20.2652  -21.3396  -12.1352 C   0  0  0  0  0  0  0  0  0  0  0  0
   20.7738  -22.3245  -12.7555 O   0  0  0  0  0  0  0  0  0  0  0  0
   17.4480  -25.5222   -4.7713 N   0  0  0  0  0  0  0  0  0  0  0  0
   17.9064  -26.4452   -5.7516 C   0  0  0  0  0  0  0  0  0  0  0  0
   18.0968  -27.6634   -5.3463 N   0  0  0  0  0  0  0  0  0  0  0  0
   18.1366  -26.0505   -7.0782 N   0  0  0  0  0  0  0  0  0  0  0  0
   18.3946  -24.6016   -7.3470 C   0  0  0  0  0  0  0  0  0  0  0  0
   18.5287  -24.4135   -8.7959 C   0  0  0  0  0  0  0  0  0  0  0  0
   18.7628  -23.1238   -9.4373 C   0  0  0  0  0  0  0  0  0  0  0  0
   18.9124  -23.0552  -10.8988 C   0  0  2  0  0  0  0  0  0  0  0  0
   19.2246  -21.6108  -11.2414 N   0  0  0  0  0  0  0  0  0  0  0  0
   17.6201  -23.2781  -11.6074 C   0  0  0  0  0  0  0  0  0  0  0  0
   16.8521  -22.2400  -11.7033 O   0  0  0  0  0  0  0  0  0  0  0  0
   17.1864  -24.4310  -12.1497 O   0  0  0  0  0  0  0  0  0  0  0  0
  2  3  2  0
  2  1  1  0
  4  2  1  0
  5  4  1  0
  6  5  1  0
  6  7  1  1
  8  9  2  0
  8  6  1  0
 10  8  1  0
 11 12  1  0
 11 10  1  0
 12 22  1  0
 13 12  2  0
 15 14  1  0
 16 15  2  0
 17 15  1  0
 18 17  1  0
 19 18  1  0
 20 19  1  0
 21 22  1  0
 21 20  1  1
 23 21  1  0
 24 23  2  0
 25 23  1  0
M  END
$$$$
