QGR.pdb
     RDKit          3D

 25 24  0  0  1  0  0  0  0  0999 V2000
   33.3464   -9.7066  -17.2575 N   0  0  0  0  0  0  0  0  0  0  0  0
   32.4258   -8.7039  -16.9159 C   0  0  0  0  0  0  0  0  0  0  0  0
   32.8833   -7.6935  -16.2887 O   0  0  0  0  0  0  0  0  0  0  0  0
   30.9968   -8.7347  -17.2308 C   0  0  0  0  0  0  0  0  0  0  0  0
   30.4791   -9.9734  -17.8394 C   0  0  0  0  0  0  0  0  0  0  0  0
   29.0010  -10.0142  -18.0955 C   0  0  2  0  0  0  0  0  0  0  0  0
   28.4965   -8.6184  -17.9941 N   0  0  0  0  0  0  0  0  0  0  0  0
   28.2133  -10.8398  -17.2046 C   0  0  0  0  0  0  0  0  0  0  0  0
   28.4087  -12.0584  -17.0850 O   0  0  0  0  0  0  0  0  0  0  0  0
   27.1768  -10.2242  -16.4296 N   0  0  0  0  0  0  0  0  0  0  0  0
   26.4929  -11.0374  -15.4811 C   0  0  0  0  0  0  0  0  0  0  0  0
   25.3621  -11.8265  -16.0132 C   0  0  0  0  0  0  0  0  0  0  0  0
   25.0777  -11.6258  -17.2348 O   0  0  0  0  0  0  0  0  0  0  0  0
   20.9038  -19.5372  -14.8849 N   0  0  0  0  0  0  0  0  0  0  0  0
   20.2051  -18.7143  -15.8111 C   0  0  0  0  0  0  0  0  0  0  0  0
   19.2163  -19.2720  -16.4401 N   0  0  0  0  0  0  0  0  0  0  0  0
   20.5725  -17.3771  -16.0248 N   0  0  0  0  0  0  0  0  0  0  0  0
   21.7924  -16.8623  -15.3285 C   0  0  0  0  0  0  0  0  0  0  0  0
   21.9240  -15.4299  -15.6178 C   0  0  0  0  0  0  0  0  0  0  0  0
   23.0697  -14.6157  -15.2250 C   0  0  0  0  0  0  0  0  0  0  0  0
   23.4542  -13.4577  -16.0460 C   0  0  2  0  0  0  0  0  0  0  0  0
   24.5863  -12.7587  -15.3174 N   0  0  0  0  0  0  0  0  0  0  0  0
   22.3954  -12.4088  -16.0697 C   0  0  0  0  0  0  0  0  0  0  0  0
   22.5177  -11.4750  -15.1810 O   0  0  0  0  0  0  0  0  0  0  0  0
   21.3483  -12.3390  -16.9123 O   0  0  0  0  0  0  0  0  0  0  0  0
  2  3  2  0
  2  1  1  0
  4  2  1  0
  5  4  1  0
  6  5  1  0
  6  7  1  1
  8  9  2  0
  8  6  1  0
 10  8  1  0
 11 12  1  0
 11 10  1  0
 12 22  1  0
 13 12  2  0
 15 14  1  0
 16 15  2  0
 17 15  1  0
 18 17  1  0
 19 18  1  0
 20 19  1  0
 21 22  1  0
 21 20  1  1
 23 21  1  0
 24 23  2  0
 25 23  1  0
M  END
$$$$
