QGR.pdb
     RDKit          3D

 25 24  0  0  1  0  0  0  0  0999 V2000
   24.1938  -15.9073  -18.7860 N   0  0  0  0  0  0  0  0  0  0  0  0
   23.4246  -14.7467  -18.9618 C   0  0  0  0  0  0  0  0  0  0  0  0
   22.4533  -14.8202  -19.7832 O   0  0  0  0  0  0  0  0  0  0  0  0
   23.6538  -13.4761  -18.2723 C   0  0  0  0  0  0  0  0  0  0  0  0
   25.0560  -13.1169  -17.9942 C   0  0  0  0  0  0  0  0  0  0  0  0
   25.3595  -12.6844  -16.5896 C   0  0  2  0  0  0  0  0  0  0  0  0
   24.7767  -13.7049  -15.6775 N   0  0  0  0  0  0  0  0  0  0  0  0
   24.8553  -11.3876  -16.1896 C   0  0  0  0  0  0  0  0  0  0  0  0
   25.2498  -10.3341  -16.7111 O   0  0  0  0  0  0  0  0  0  0  0  0
   23.8607  -11.3218  -15.1599 N   0  0  0  0  0  0  0  0  0  0  0  0
   23.4096  -10.0308  -14.7620 C   0  0  0  0  0  0  0  0  0  0  0  0
   22.0864   -9.6275  -15.2829 C   0  0  0  0  0  0  0  0  0  0  0  0
   21.7447  -10.1569  -16.3858 O   0  0  0  0  0  0  0  0  0  0  0  0
   13.6893   -9.4860  -13.0250 N   0  0  0  0  0  0  0  0  0  0  0  0
   13.7886   -8.8100  -14.2726 C   0  0  0  0  0  0  0  0  0  0  0  0
   12.6702   -8.5791  -14.8893 N   0  0  0  0  0  0  0  0  0  0  0  0
   15.0301   -8.4196  -14.7972 N   0  0  0  0  0  0  0  0  0  0  0  0
   16.2681   -8.9128  -14.1175 C   0  0  0  0  0  0  0  0  0  0  0  0
   17.4301   -8.2748  -14.7464 C   0  0  0  0  0  0  0  0  0  0  0  0
   18.8153   -8.5462  -14.3758 C   0  0  0  0  0  0  0  0  0  0  0  0
   19.8724   -8.4495  -15.3937 C   0  0  2  0  0  0  0  0  0  0  0  0
   21.1862   -8.7358  -14.6916 N   0  0  0  0  0  0  0  0  0  0  0  0
   20.0656   -7.0513  -15.8726 C   0  0  0  0  0  0  0  0  0  0  0  0
   20.8384   -6.3143  -15.1401 O   0  0  0  0  0  0  0  0  0  0  0  0
   19.5279   -6.4944  -16.9736 O   0  0  0  0  0  0  0  0  0  0  0  0
  2  3  2  0
  2  1  1  0
  4  2  1  0
  5  4  1  0
  6  5  1  0
  6  7  1  1
  8  9  2  0
  8  6  1  0
 10  8  1  0
 11 12  1  0
 11 10  1  0
 12 22  1  0
 13 12  2  0
 15 14  1  0
 16 15  2  0
 17 15  1  0
 18 17  1  0
 19 18  1  0
 20 19  1  0
 21 22  1  0
 21 20  1  1
 23 21  1  0
 24 23  2  0
 25 23  1  0
M  END
$$$$
