QGR.pdb
     RDKit          3D

 25 24  0  0  1  0  0  0  0  0999 V2000
    7.9317  -22.5162    1.1811 N   0  0  0  0  0  0  0  0  0  0  0  0
    8.4705  -22.2436    2.4480 C   0  0  0  0  0  0  0  0  0  0  0  0
    7.6729  -22.3165    3.4392 O   0  0  0  0  0  0  0  0  0  0  0  0
    9.8672  -21.8917    2.7076 C   0  0  0  0  0  0  0  0  0  0  0  0
   10.2734  -21.7910    4.1209 C   0  0  0  0  0  0  0  0  0  0  0  0
    9.7418  -20.6086    4.8768 C   0  0  2  0  0  0  0  0  0  0  0  0
    8.8105  -19.8864    3.9690 N   0  0  0  0  0  0  0  0  0  0  0  0
   10.7206  -19.6581    5.3610 C   0  0  0  0  0  0  0  0  0  0  0  0
   10.4339  -18.4756    5.5997 O   0  0  0  0  0  0  0  0  0  0  0  0
   12.0656  -20.1031    5.5779 N   0  0  0  0  0  0  0  0  0  0  0  0
   12.9773  -19.1805    6.1663 C   0  0  0  0  0  0  0  0  0  0  0  0
   14.2866  -19.7403    6.5624 C   0  0  0  0  0  0  0  0  0  0  0  0
   14.3761  -21.0069    6.5295 O   0  0  0  0  0  0  0  0  0  0  0  0
   20.9042  -22.9916    3.3520 N   0  0  0  0  0  0  0  0  0  0  0  0
   19.8367  -23.6707    4.0020 C   0  0  0  0  0  0  0  0  0  0  0  0
   20.0303  -24.9279    4.2595 N   0  0  0  0  0  0  0  0  0  0  0  0
   18.6464  -23.0093    4.3407 N   0  0  0  0  0  0  0  0  0  0  0  0
   18.7196  -21.5512    4.6670 C   0  0  0  0  0  0  0  0  0  0  0  0
   17.8200  -21.2805    5.7941 C   0  0  0  0  0  0  0  0  0  0  0  0
   17.5394  -19.9476    6.3177 C   0  0  0  0  0  0  0  0  0  0  0  0
   16.6294  -19.7931    7.4627 C   0  0  2  0  0  0  0  0  0  0  0  0
   15.4201  -19.0260    6.9628 N   0  0  0  0  0  0  0  0  0  0  0  0
   17.1816  -18.8759    8.4999 C   0  0  0  0  0  0  0  0  0  0  0  0
   16.9193  -17.6196    8.3279 O   0  0  0  0  0  0  0  0  0  0  0  0
   17.9082  -19.2226    9.5784 O   0  0  0  0  0  0  0  0  0  0  0  0
  2  3  2  0
  2  1  1  0
  4  2  1  0
  5  4  1  0
  6  5  1  0
  6  7  1  6
  8  9  2  0
  8  6  1  0
 10  8  1  0
 11 12  1  0
 11 10  1  0
 12 22  1  0
 13 12  2  0
 15 14  1  0
 16 15  2  0
 17 15  1  0
 18 17  1  0
 19 18  1  0
 20 19  1  0
 21 22  1  0
 21 20  1  6
 23 21  1  0
 24 23  2  0
 25 23  1  0
M  END
$$$$
