QGR.pdb
     RDKit          3D

 25 24  0  0  1  0  0  0  0  0999 V2000
   21.9556  -19.0250  -20.9250 N   0  0  0  0  0  0  0  0  0  0  0  0
   23.1508  -19.0841  -21.6582 C   0  0  0  0  0  0  0  0  0  0  0  0
   23.2936  -20.0763  -22.4450 O   0  0  0  0  0  0  0  0  0  0  0  0
   24.2281  -18.0959  -21.5873 C   0  0  0  0  0  0  0  0  0  0  0  0
   23.9908  -16.9174  -20.7344 C   0  0  0  0  0  0  0  0  0  0  0  0
   24.3829  -17.0577  -19.2925 C   0  0  2  0  0  0  0  0  0  0  0  0
   25.0563  -18.3758  -19.1442 N   0  0  0  0  0  0  0  0  0  0  0  0
   23.3106  -16.9919  -18.3221 C   0  0  0  0  0  0  0  0  0  0  0  0
   22.6631  -15.9540  -18.1199 O   0  0  0  0  0  0  0  0  0  0  0  0
   22.9832  -18.1704  -17.5750 N   0  0  0  0  0  0  0  0  0  0  0  0
   21.9006  -18.0858  -16.6534 C   0  0  0  0  0  0  0  0  0  0  0  0
   21.7488  -19.2366  -15.7384 C   0  0  0  0  0  0  0  0  0  0  0  0
   21.9552  -20.3795  -16.2528 O   0  0  0  0  0  0  0  0  0  0  0  0
   26.1789  -21.3831   -9.0420 N   0  0  0  0  0  0  0  0  0  0  0  0
   25.9479  -20.7534  -10.2963 C   0  0  0  0  0  0  0  0  0  0  0  0
   26.9510  -20.7319  -11.1195 N   0  0  0  0  0  0  0  0  0  0  0  0
   24.7026  -20.1907  -10.6149 N   0  0  0  0  0  0  0  0  0  0  0  0
   23.4695  -20.9304  -10.2023 C   0  0  0  0  0  0  0  0  0  0  0  0
   22.6390  -21.1509  -11.3916 C   0  0  0  0  0  0  0  0  0  0  0  0
   22.4439  -20.1654  -12.4500 C   0  0  0  0  0  0  0  0  0  0  0  0
   21.5244  -20.4618  -13.5588 C   0  0  2  0  0  0  0  0  0  0  0  0
   21.4068  -19.1939  -14.3833 N   0  0  0  0  0  0  0  0  0  0  0  0
   20.1247  -20.6667  -13.0890 C   0  0  0  0  0  0  0  0  0  0  0  0
   19.8041  -21.8907  -12.8136 O   0  0  0  0  0  0  0  0  0  0  0  0
   19.1830  -19.7195  -12.9230 O   0  0  0  0  0  0  0  0  0  0  0  0
  2  3  2  0
  2  1  1  0
  4  2  1  0
  5  4  1  0
  6  5  1  0
  6  7  1  6
  8  9  2  0
  8  6  1  0
 10  8  1  0
 11 12  1  0
 11 10  1  0
 12 22  1  0
 13 12  2  0
 15 14  1  0
 16 15  2  0
 17 15  1  0
 18 17  1  0
 19 18  1  0
 20 19  1  0
 21 22  1  0
 21 20  1  1
 23 21  1  0
 24 23  2  0
 25 23  1  0
M  END
$$$$
