QGR.pdb
     RDKit          3D

 25 24  0  0  1  0  0  0  0  0999 V2000
   25.9242  -22.8510  -15.5464 N   0  0  0  0  0  0  0  0  0  0  0  0
   25.3893  -23.2170  -14.3017 C   0  0  0  0  0  0  0  0  0  0  0  0
   24.8929  -24.3871  -14.2114 O   0  0  0  0  0  0  0  0  0  0  0  0
   25.3673  -22.3619  -13.1140 C   0  0  0  0  0  0  0  0  0  0  0  0
   26.0650  -21.0676  -13.2166 C   0  0  0  0  0  0  0  0  0  0  0  0
   25.2713  -19.9354  -13.8001 C   0  0  2  0  0  0  0  0  0  0  0  0
   23.8444  -20.1707  -13.4516 N   0  0  0  0  0  0  0  0  0  0  0  0
   25.3577  -19.7575  -15.2342 C   0  0  0  0  0  0  0  0  0  0  0  0
   26.4421  -19.7392  -15.8352 O   0  0  0  0  0  0  0  0  0  0  0  0
   24.1462  -19.6043  -15.9844 N   0  0  0  0  0  0  0  0  0  0  0  0
   23.7295  -20.7006  -16.7927 C   0  0  0  0  0  0  0  0  0  0  0  0
   22.4196  -21.2900  -16.4442 C   0  0  0  0  0  0  0  0  0  0  0  0
   22.0114  -22.2162  -17.2116 O   0  0  0  0  0  0  0  0  0  0  0  0
   17.8909  -25.7311   -9.3769 N   0  0  0  0  0  0  0  0  0  0  0  0
   18.1181  -24.3867   -9.7819 C   0  0  0  0  0  0  0  0  0  0  0  0
   18.0825  -23.4919   -8.8425 N   0  0  0  0  0  0  0  0  0  0  0  0
   18.3657  -24.0579  -11.1233 N   0  0  0  0  0  0  0  0  0  0  0  0
   19.5226  -23.1590  -11.4258 C   0  0  0  0  0  0  0  0  0  0  0  0
   19.5776  -22.9429  -12.8761 C   0  0  0  0  0  0  0  0  0  0  0  0
   20.5594  -22.0931  -13.5420 C   0  0  0  0  0  0  0  0  0  0  0  0
   20.4536  -21.8571  -14.9898 C   0  0  2  0  0  0  0  0  0  0  0  0
   21.5975  -20.9362  -15.3698 N   0  0  0  0  0  0  0  0  0  0  0  0
   19.2574  -21.0399  -15.3404 C   0  0  0  0  0  0  0  0  0  0  0  0
   18.2342  -21.7074  -15.7697 O   0  0  0  0  0  0  0  0  0  0  0  0
   19.1404  -19.7021  -15.2509 O   0  0  0  0  0  0  0  0  0  0  0  0
  2  3  2  0
  2  1  1  0
  4  2  1  0
  5  4  1  0
  6  5  1  0
  6  7  1  6
  8  9  2  0
  8  6  1  0
 10  8  1  0
 11 12  1  0
 11 10  1  0
 12 22  1  0
 13 12  2  0
 15 14  1  0
 16 15  2  0
 17 15  1  0
 18 17  1  0
 19 18  1  0
 20 19  1  0
 21 22  1  0
 21 20  1  1
 23 21  1  0
 24 23  2  0
 25 23  1  0
M  END
$$$$
