QGR.pdb
     RDKit          3D

 25 24  0  0  1  0  0  0  0  0999 V2000
   23.9486  -18.8989  -15.1685 N   0  0  0  0  0  0  0  0  0  0  0  0
   22.8400  -19.1027  -16.0046 C   0  0  0  0  0  0  0  0  0  0  0  0
   21.9519  -19.9182  -15.5924 O   0  0  0  0  0  0  0  0  0  0  0  0
   22.6328  -18.4482  -17.2972 C   0  0  0  0  0  0  0  0  0  0  0  0
   22.2939  -17.0140  -17.2667 C   0  0  0  0  0  0  0  0  0  0  0  0
   21.1639  -16.5847  -18.1562 C   0  0  2  0  0  0  0  0  0  0  0  0
   21.6822  -15.5051  -19.0387 N   0  0  0  0  0  0  0  0  0  0  0  0
   19.9742  -16.0899  -17.4962 C   0  0  0  0  0  0  0  0  0  0  0  0
   19.2466  -16.8204  -16.8074 O   0  0  0  0  0  0  0  0  0  0  0  0
   19.6310  -14.7058  -17.6395 N   0  0  0  0  0  0  0  0  0  0  0  0
   18.5174  -14.2233  -16.8942 C   0  0  0  0  0  0  0  0  0  0  0  0
   18.3057  -12.7610  -16.9357 C   0  0  0  0  0  0  0  0  0  0  0  0
   19.1196  -12.1077  -17.6597 O   0  0  0  0  0  0  0  0  0  0  0  0
   12.1160   -6.5706  -14.5492 N   0  0  0  0  0  0  0  0  0  0  0  0
   13.1198   -5.9691  -15.3577 C   0  0  0  0  0  0  0  0  0  0  0  0
   12.9404   -4.7193  -15.6580 N   0  0  0  0  0  0  0  0  0  0  0  0
   14.2362   -6.6949  -15.8001 N   0  0  0  0  0  0  0  0  0  0  0  0
   14.3473   -8.1311  -15.3961 C   0  0  0  0  0  0  0  0  0  0  0  0
   15.5631   -8.6910  -15.9971 C   0  0  0  0  0  0  0  0  0  0  0  0
   15.9369  -10.1001  -15.9304 C   0  0  0  0  0  0  0  0  0  0  0  0
   17.2175  -10.5404  -16.5041 C   0  0  2  0  0  0  0  0  0  0  0  0
   17.3137  -12.0358  -16.2686 N   0  0  0  0  0  0  0  0  0  0  0  0
   18.3853  -10.0217  -15.7367 C   0  0  0  0  0  0  0  0  0  0  0  0
   18.7044  -10.7019  -14.6821 O   0  0  0  0  0  0  0  0  0  0  0  0
   19.1273   -8.9382  -16.0320 O   0  0  0  0  0  0  0  0  0  0  0  0
  2  3  2  0
  2  1  1  0
  4  2  1  0
  5  4  1  0
  6  5  1  0
  6  7  1  6
  8  9  2  0
  8  6  1  0
 10  8  1  0
 11 12  1  0
 11 10  1  0
 12 22  1  0
 13 12  2  0
 15 14  1  0
 16 15  2  0
 17 15  1  0
 18 17  1  0
 19 18  1  0
 20 19  1  0
 21 22  1  0
 21 20  1  1
 23 21  1  0
 24 23  2  0
 25 23  1  0
M  END
$$$$
