QGR.pdb
     RDKit          3D

 25 24  0  0  1  0  0  0  0  0999 V2000
   31.8874  -22.8110   -8.8647 N   0  0  0  0  0  0  0  0  0  0  0  0
   32.4409  -22.2475  -10.0247 C   0  0  0  0  0  0  0  0  0  0  0  0
   33.5988  -22.6558  -10.3656 O   0  0  0  0  0  0  0  0  0  0  0  0
   31.7872  -21.2409  -10.8624 C   0  0  0  0  0  0  0  0  0  0  0  0
   30.4319  -20.8235  -10.4605 C   0  0  0  0  0  0  0  0  0  0  0  0
   29.3037  -21.6774  -10.9608 C   0  0  2  0  0  0  0  0  0  0  0  0
   29.3340  -21.6229  -12.4471 N   0  0  0  0  0  0  0  0  0  0  0  0
   27.9727  -21.3085  -10.5270 C   0  0  0  0  0  0  0  0  0  0  0  0
   27.7000  -21.0926   -9.3369 O   0  0  0  0  0  0  0  0  0  0  0  0
   26.9372  -21.1823  -11.5098 N   0  0  0  0  0  0  0  0  0  0  0  0
   25.6334  -20.8374  -11.0516 C   0  0  0  0  0  0  0  0  0  0  0  0
   24.6025  -20.7002  -12.1018 C   0  0  0  0  0  0  0  0  0  0  0  0
   25.0390  -20.5309  -13.2826 O   0  0  0  0  0  0  0  0  0  0  0  0
   18.2724  -25.9693  -14.7752 N   0  0  0  0  0  0  0  0  0  0  0  0
   18.1896  -24.8088  -15.5934 C   0  0  0  0  0  0  0  0  0  0  0  0
   17.3730  -24.8750  -16.5999 N   0  0  0  0  0  0  0  0  0  0  0  0
   18.9521  -23.6634  -15.3190 N   0  0  0  0  0  0  0  0  0  0  0  0
   19.8781  -23.6988  -14.1445 C   0  0  0  0  0  0  0  0  0  0  0  0
   20.6410  -22.4458  -14.1152 C   0  0  0  0  0  0  0  0  0  0  0  0
   21.6106  -22.1000  -13.0808 C   0  0  0  0  0  0  0  0  0  0  0  0
   22.3269  -20.8177  -13.1554 C   0  0  2  0  0  0  0  0  0  0  0  0
   23.2155  -20.7385  -11.9285 N   0  0  0  0  0  0  0  0  0  0  0  0
   21.4163  -19.6531  -12.9645 C   0  0  0  0  0  0  0  0  0  0  0  0
   20.7838  -19.2621  -14.0245 O   0  0  0  0  0  0  0  0  0  0  0  0
   21.1904  -18.9858  -11.8177 O   0  0  0  0  0  0  0  0  0  0  0  0
  2  3  2  0
  2  1  1  0
  4  2  1  0
  5  4  1  0
  6  5  1  0
  6  7  1  6
  8  9  2  0
  8  6  1  0
 10  8  1  0
 11 12  1  0
 11 10  1  0
 12 22  1  0
 13 12  2  0
 15 14  1  0
 16 15  2  0
 17 15  1  0
 18 17  1  0
 19 18  1  0
 20 19  1  0
 21 22  1  0
 21 20  1  1
 23 21  1  0
 24 23  2  0
 25 23  1  0
M  END
$$$$
