QGR.pdb
     RDKit          3D

 25 24  0  0  1  0  0  0  0  0999 V2000
   27.1584  -13.3326  -17.3014 N   0  0  0  0  0  0  0  0  0  0  0  0
   25.8033  -13.2882  -16.9391 C   0  0  0  0  0  0  0  0  0  0  0  0
   25.1016  -12.3567  -17.4525 O   0  0  0  0  0  0  0  0  0  0  0  0
   25.1472  -14.2283  -16.0291 C   0  0  0  0  0  0  0  0  0  0  0  0
   25.9732  -15.3328  -15.5092 C   0  0  0  0  0  0  0  0  0  0  0  0
   26.3367  -16.4045  -16.4949 C   0  0  2  0  0  0  0  0  0  0  0  0
   25.0813  -17.1159  -16.8569 N   0  0  0  0  0  0  0  0  0  0  0  0
   27.2977  -17.3919  -16.0508 C   0  0  0  0  0  0  0  0  0  0  0  0
   28.3656  -17.0778  -15.5045 O   0  0  0  0  0  0  0  0  0  0  0  0
   26.9995  -18.7804  -16.2439 N   0  0  0  0  0  0  0  0  0  0  0  0
   27.9578  -19.7293  -15.7859 C   0  0  0  0  0  0  0  0  0  0  0  0
   27.6057  -20.4431  -14.5404 C   0  0  0  0  0  0  0  0  0  0  0  0
   28.2788  -21.4928  -14.2988 O   0  0  0  0  0  0  0  0  0  0  0  0
   22.3043  -21.0036   -9.2539 N   0  0  0  0  0  0  0  0  0  0  0  0
   23.0346  -21.5295   -8.1524 C   0  0  0  0  0  0  0  0  0  0  0  0
   22.3662  -22.2730   -7.3249 N   0  0  0  0  0  0  0  0  0  0  0  0
   24.3995  -21.2537   -7.9799 N   0  0  0  0  0  0  0  0  0  0  0  0
   25.0412  -20.2690   -8.9054 C   0  0  0  0  0  0  0  0  0  0  0  0
   25.3451  -20.9482  -10.1700 C   0  0  0  0  0  0  0  0  0  0  0  0
   25.9924  -20.3074  -11.3102 C   0  0  0  0  0  0  0  0  0  0  0  0
   26.2295  -21.0791  -12.5395 C   0  0  2  0  0  0  0  0  0  0  0  0
   26.6213  -20.0834  -13.6148 N   0  0  0  0  0  0  0  0  0  0  0  0
   24.9725  -21.6622  -13.0887 C   0  0  0  0  0  0  0  0  0  0  0  0
   24.2531  -20.8585  -13.8051 O   0  0  0  0  0  0  0  0  0  0  0  0
   24.5253  -22.9201  -12.9179 O   0  0  0  0  0  0  0  0  0  0  0  0
  2  3  2  0
  2  1  1  0
  4  2  1  0
  5  4  1  0
  6  5  1  0
  6  7  1  1
  8  9  2  0
  8  6  1  0
 10  8  1  0
 11 12  1  0
 11 10  1  0
 12 22  1  0
 13 12  2  0
 15 14  1  0
 16 15  2  0
 17 15  1  0
 18 17  1  0
 19 18  1  0
 20 19  1  0
 21 22  1  0
 21 20  1  1
 23 21  1  0
 24 23  2  0
 25 23  1  0
M  END
$$$$
