QGR.pdb
     RDKit          3D

 25 24  0  0  1  0  0  0  0  0999 V2000
   24.8964  -21.1389  -11.3344 N   0  0  0  0  0  0  0  0  0  0  0  0
   25.8693  -21.8344  -12.0688 C   0  0  0  0  0  0  0  0  0  0  0  0
   25.8592  -23.1052  -11.9765 O   0  0  0  0  0  0  0  0  0  0  0  0
   26.8780  -21.2103  -12.9264 C   0  0  0  0  0  0  0  0  0  0  0  0
   26.9031  -19.7368  -12.9551 C   0  0  0  0  0  0  0  0  0  0  0  0
   26.5668  -19.0974  -14.2705 C   0  0  2  0  0  0  0  0  0  0  0  0
   26.6827  -17.6255  -14.0885 N   0  0  0  0  0  0  0  0  0  0  0  0
   25.2526  -19.3791  -14.8086 C   0  0  0  0  0  0  0  0  0  0  0  0
   25.0865  -20.0799  -15.8179 O   0  0  0  0  0  0  0  0  0  0  0  0
   24.1046  -18.8337  -14.1462 N   0  0  0  0  0  0  0  0  0  0  0  0
   22.8235  -19.1502  -14.6820 C   0  0  0  0  0  0  0  0  0  0  0  0
   22.2317  -20.4215  -14.2149 C   0  0  0  0  0  0  0  0  0  0  0  0
   22.7365  -21.4775  -14.7085 O   0  0  0  0  0  0  0  0  0  0  0  0
   17.0829  -23.5498   -8.6868 N   0  0  0  0  0  0  0  0  0  0  0  0
   17.8680  -24.7300   -8.8042 C   0  0  0  0  0  0  0  0  0  0  0  0
   17.2942  -25.8374   -8.4452 N   0  0  0  0  0  0  0  0  0  0  0  0
   19.1866  -24.6880   -9.2820 N   0  0  0  0  0  0  0  0  0  0  0  0
   19.7698  -23.3531   -9.6223 C   0  0  0  0  0  0  0  0  0  0  0  0
   19.4571  -23.0520  -11.0239 C   0  0  0  0  0  0  0  0  0  0  0  0
   19.9014  -21.8509  -11.7237 C   0  0  0  0  0  0  0  0  0  0  0  0
   20.7470  -21.9776  -12.9202 C   0  0  2  0  0  0  0  0  0  0  0  0
   21.1881  -20.5760  -13.2972 N   0  0  0  0  0  0  0  0  0  0  0  0
   19.9666  -22.3986  -14.1183 C   0  0  0  0  0  0  0  0  0  0  0  0
   19.3515  -21.4463  -14.7442 O   0  0  0  0  0  0  0  0  0  0  0  0
   19.8462  -23.6480  -14.6041 O   0  0  0  0  0  0  0  0  0  0  0  0
  2  3  2  0
  2  1  1  0
  4  2  1  0
  5  4  1  0
  6  5  1  0
  6  7  1  1
  8  9  2  0
  8  6  1  0
 10  8  1  0
 11 12  1  0
 11 10  1  0
 12 22  1  0
 13 12  2  0
 15 14  1  0
 16 15  2  0
 17 15  1  0
 18 17  1  0
 19 18  1  0
 20 19  1  0
 21 22  1  0
 21 20  1  1
 23 21  1  0
 24 23  2  0
 25 23  1  0
M  END
$$$$
