QGR.pdb
     RDKit          3D

 25 24  0  0  1  0  0  0  0  0999 V2000
   23.9529  -15.0007  -17.0945 N   0  0  0  0  0  0  0  0  0  0  0  0
   24.0475  -15.8577  -18.2018 C   0  0  0  0  0  0  0  0  0  0  0  0
   25.1054  -15.7708  -18.9068 O   0  0  0  0  0  0  0  0  0  0  0  0
   23.0317  -16.8354  -18.5950 C   0  0  0  0  0  0  0  0  0  0  0  0
   21.8661  -16.9746  -17.7035 C   0  0  0  0  0  0  0  0  0  0  0  0
   21.5503  -18.3680  -17.2443 C   0  0  2  0  0  0  0  0  0  0  0  0
   20.1178  -18.3868  -16.8433 N   0  0  0  0  0  0  0  0  0  0  0  0
   22.3313  -18.8757  -16.1361 C   0  0  0  0  0  0  0  0  0  0  0  0
   23.5599  -19.0273  -16.2063 O   0  0  0  0  0  0  0  0  0  0  0  0
   21.6601  -19.2076  -14.9140 N   0  0  0  0  0  0  0  0  0  0  0  0
   22.4085  -19.8992  -13.9189 C   0  0  0  0  0  0  0  0  0  0  0  0
   21.8592  -21.2054  -13.4989 C   0  0  0  0  0  0  0  0  0  0  0  0
   22.5966  -22.2131  -13.7320 O   0  0  0  0  0  0  0  0  0  0  0  0
   15.8994  -24.7685   -9.5909 N   0  0  0  0  0  0  0  0  0  0  0  0
   16.8320  -25.7715   -9.2073 C   0  0  0  0  0  0  0  0  0  0  0  0
   16.3386  -26.9442   -8.9508 N   0  0  0  0  0  0  0  0  0  0  0  0
   18.2051  -25.4979   -9.1145 N   0  0  0  0  0  0  0  0  0  0  0  0
   18.6735  -24.1206   -9.4634 C   0  0  0  0  0  0  0  0  0  0  0  0
   18.6137  -23.9638  -10.9211 C   0  0  0  0  0  0  0  0  0  0  0  0
   19.0700  -22.7773  -11.6377 C   0  0  0  0  0  0  0  0  0  0  0  0
   20.2581  -22.8613  -12.5005 C   0  0  2  0  0  0  0  0  0  0  0  0
   20.6279  -21.4396  -12.8790 N   0  0  0  0  0  0  0  0  0  0  0  0
   19.9495  -23.4729  -13.8243 C   0  0  0  0  0  0  0  0  0  0  0  0
   19.4780  -22.6607  -14.7159 O   0  0  0  0  0  0  0  0  0  0  0  0
   20.1148  -24.7616  -14.1753 O   0  0  0  0  0  0  0  0  0  0  0  0
  2  3  2  0
  2  1  1  0
  4  2  1  0
  5  4  1  0
  6  5  1  0
  6  7  1  1
  8  9  2  0
  8  6  1  0
 10  8  1  0
 11 12  1  0
 11 10  1  0
 12 22  1  0
 13 12  2  0
 15 14  1  0
 16 15  2  0
 17 15  1  0
 18 17  1  0
 19 18  1  0
 20 19  1  0
 21 22  1  0
 21 20  1  1
 23 21  1  0
 24 23  2  0
 25 23  1  0
M  END
$$$$
