QGR.pdb
     RDKit          3D

 25 24  0  0  1  0  0  0  0  0999 V2000
   29.0700  -23.0511  -21.6779 N   0  0  0  0  0  0  0  0  0  0  0  0
   28.1538  -22.0738  -21.2598 C   0  0  0  0  0  0  0  0  0  0  0  0
   27.8654  -21.1599  -22.0998 O   0  0  0  0  0  0  0  0  0  0  0  0
   27.5105  -22.0345  -19.9457 C   0  0  0  0  0  0  0  0  0  0  0  0
   27.8366  -20.8849  -19.0827 C   0  0  0  0  0  0  0  0  0  0  0  0
   28.6927  -21.1809  -17.8861 C   0  0  2  0  0  0  0  0  0  0  0  0
   28.4982  -22.6165  -17.5481 N   0  0  0  0  0  0  0  0  0  0  0  0
   28.4296  -20.4016  -16.6948 C   0  0  0  0  0  0  0  0  0  0  0  0
   28.3419  -19.1650  -16.7182 O   0  0  0  0  0  0  0  0  0  0  0  0
   28.2580  -21.0856  -15.4471 N   0  0  0  0  0  0  0  0  0  0  0  0
   28.0268  -20.2915  -14.2875 C   0  0  0  0  0  0  0  0  0  0  0  0
   26.7641  -20.5626  -13.5686 C   0  0  0  0  0  0  0  0  0  0  0  0
   26.1313  -21.5995  -13.9399 O   0  0  0  0  0  0  0  0  0  0  0  0
   23.7337  -20.7202   -6.3282 N   0  0  0  0  0  0  0  0  0  0  0  0
   23.1878  -21.7601   -7.1304 C   0  0  0  0  0  0  0  0  0  0  0  0
   22.1237  -22.3416   -6.6676 N   0  0  0  0  0  0  0  0  0  0  0  0
   23.7742  -22.1282   -8.3508 N   0  0  0  0  0  0  0  0  0  0  0  0
   24.9341  -21.3234   -8.8456 C   0  0  0  0  0  0  0  0  0  0  0  0
   24.4310  -20.0370   -9.3405 C   0  0  0  0  0  0  0  0  0  0  0  0
   24.7741  -19.4671  -10.6394 C   0  0  0  0  0  0  0  0  0  0  0  0
   25.0092  -20.3585  -11.7852 C   0  0  2  0  0  0  0  0  0  0  0  0
   26.2052  -19.8040  -12.5356 N   0  0  0  0  0  0  0  0  0  0  0  0
   23.9238  -20.2646  -12.8026 C   0  0  0  0  0  0  0  0  0  0  0  0
   24.0429  -19.2974  -13.6552 O   0  0  0  0  0  0  0  0  0  0  0  0
   22.8560  -21.0755  -12.9196 O   0  0  0  0  0  0  0  0  0  0  0  0
  2  3  2  0
  2  1  1  0
  4  2  1  0
  5  4  1  0
  6  5  1  0
  6  7  1  1
  8  9  2  0
  8  6  1  0
 10  8  1  0
 11 12  1  0
 11 10  1  0
 12 22  1  0
 13 12  2  0
 15 14  1  0
 16 15  2  0
 17 15  1  0
 18 17  1  0
 19 18  1  0
 20 19  1  0
 21 22  1  0
 21 20  1  1
 23 21  1  0
 24 23  2  0
 25 23  1  0
M  END
$$$$
