WIG.pdb
     RDKit          3D

 27 28  0  0  1  0  0  0  0  0999 V2000
   21.1253  -14.3439  -16.5210 N   0  0  0  0  0  0  0  0  0  0  0  0
   19.8280  -14.2139  -15.9299 C   0  0  1  0  0  0  0  0  0  0  0  0
   18.9454  -13.5142  -16.9738 C   0  0  0  0  0  0  0  0  0  0  0  0
   19.2103  -12.0563  -17.0095 C   0  0  0  0  0  0  0  0  0  0  0  0
   20.1853  -11.3824  -16.3245 C   0  0  0  0  0  0  0  0  0  0  0  0
   20.0673  -10.0831  -16.6470 N   0  0  0  0  0  0  0  0  0  0  0  0
   19.0635   -9.8914  -17.5059 C   0  0  0  0  0  0  0  0  0  0  0  0
   18.5753   -8.7440  -18.1072 C   0  0  0  0  0  0  0  0  0  0  0  0
   17.5056   -8.8869  -18.9631 C   0  0  0  0  0  0  0  0  0  0  0  0
   16.9172  -10.1057  -19.2355 C   0  0  0  0  0  0  0  0  0  0  0  0
   17.4227  -11.2251  -18.6249 C   0  0  0  0  0  0  0  0  0  0  0  0
   18.5070  -11.1296  -17.7488 C   0  0  0  0  0  0  0  0  0  0  0  0
   19.2237  -15.5547  -15.7303 C   0  0  0  0  0  0  0  0  0  0  0  0
   19.5504  -16.4871  -16.4981 O   0  0  0  0  0  0  0  0  0  0  0  0
   18.0261  -20.0413  -13.7103 C   0  0  0  0  0  0  0  0  0  0  0  0
   17.2780  -19.0186  -12.8808 C   0  0  0  0  0  0  0  0  0  0  0  0
   17.9521  -17.6866  -13.1040 C   0  0  2  0  0  0  0  0  0  0  0  0
   17.4320  -16.6889  -12.1077 C   0  0  0  0  0  0  0  0  0  0  0  0
   17.7084  -17.1535  -14.5063 C   0  0  2  0  0  0  0  0  0  0  0  0
   18.2859  -15.8483  -14.7087 N   0  0  0  0  0  0  0  0  0  0  0  0
   16.2513  -17.1659  -14.8421 C   0  0  0  0  0  0  0  0  0  0  0  0
   15.5069  -16.2374  -14.4356 O   0  0  0  0  0  0  0  0  0  0  0  0
   15.7012  -18.2365  -15.6279 N   0  0  0  0  0  0  0  0  0  0  0  0
   14.2884  -18.2119  -15.8631 C   0  0  0  0  0  0  0  0  0  0  0  0
   13.4871  -18.7231  -14.7584 C   0  0  0  0  0  0  0  0  0  0  0  0
   14.0334  -19.1103  -13.7048 O   0  0  0  0  0  0  0  0  0  0  0  0
   12.1140  -18.7870  -14.8599 O   0  0  0  0  0  0  0  0  0  0  0  0
  2  1  1  6
  3  2  1  0
  4  3  1  0
  4  5  2  0
  6  5  1  0
  7  6  1  0
  8  7  2  0
  9  8  1  0
 10  9  2  0
 10 11  1  0
 11 12  2  0
 12  7  1  0
 12  4  1  0
 13  2  1  0
 14 13  2  0
 16 15  1  0
 17 16  1  0
 17 18  1  1
 19 17  1  0
 19 20  1  1
 20 13  1  0
 21 19  1  0
 22 21  2  0
 23 21  1  0
 24 23  1  0
 25 24  1  0
 25 27  1  0
 26 25  2  0
M  END
$$$$
