WIG.pdb
     RDKit          3D

 27 28  0  0  1  0  0  0  0  0999 V2000
   27.1113  -19.8038  -16.7043 N   0  0  0  0  0  0  0  0  0  0  0  0
   25.9552  -19.5679  -15.8937 C   0  0  1  0  0  0  0  0  0  0  0  0
   24.7383  -19.9063  -16.7671 C   0  0  0  0  0  0  0  0  0  0  0  0
   24.3767  -18.7694  -17.6466 C   0  0  0  0  0  0  0  0  0  0  0  0
   23.6332  -17.6718  -17.3051 C   0  0  0  0  0  0  0  0  0  0  0  0
   23.5496  -16.8963  -18.3995 N   0  0  0  0  0  0  0  0  0  0  0  0
   24.2037  -17.4438  -19.4264 C   0  0  0  0  0  0  0  0  0  0  0  0
   24.3899  -17.0165  -20.7299 C   0  0  0  0  0  0  0  0  0  0  0  0
   25.1313  -17.8281  -21.5597 C   0  0  0  0  0  0  0  0  0  0  0  0
   25.6821  -19.0248  -21.1465 C   0  0  0  0  0  0  0  0  0  0  0  0
   25.4807  -19.4220  -19.8492 C   0  0  0  0  0  0  0  0  0  0  0  0
   24.7353  -18.6317  -18.9704 C   0  0  0  0  0  0  0  0  0  0  0  0
   25.9189  -20.5333  -14.7669 C   0  0  0  0  0  0  0  0  0  0  0  0
   26.2090  -21.7307  -14.9852 O   0  0  0  0  0  0  0  0  0  0  0  0
   29.4668  -20.2774  -11.9640 C   0  0  0  0  0  0  0  0  0  0  0  0
   28.3236  -21.2530  -12.1509 C   0  0  0  0  0  0  0  0  0  0  0  0
   27.0929  -20.6149  -11.5536 C   0  0  2  0  0  0  0  0  0  0  0  0
   26.9634  -21.0271  -10.1142 C   0  0  0  0  0  0  0  0  0  0  0  0
   25.8279  -21.0149  -12.2950 C   0  0  2  0  0  0  0  0  0  0  0  0
   25.5708  -20.1772  -13.4398 N   0  0  0  0  0  0  0  0  0  0  0  0
   24.6523  -21.0567  -11.3719 C   0  0  0  0  0  0  0  0  0  0  0  0
   24.6596  -21.8339  -10.3832 O   0  0  0  0  0  0  0  0  0  0  0  0
   23.5154  -20.2107  -11.6128 N   0  0  0  0  0  0  0  0  0  0  0  0
   22.4238  -20.3090  -10.6905 C   0  0  0  0  0  0  0  0  0  0  0  0
   21.3029  -21.1073  -11.1704 C   0  0  0  0  0  0  0  0  0  0  0  0
   21.3745  -21.7098  -12.2614 O   0  0  0  0  0  0  0  0  0  0  0  0
   20.1466  -21.2092  -10.4272 O   0  0  0  0  0  0  0  0  0  0  0  0
  2  1  1  6
  3  2  1  0
  4  3  1  0
  4  5  2  0
  6  5  1  0
  7  6  1  0
  8  7  2  0
  9  8  1  0
 10  9  2  0
 10 11  1  0
 11 12  2  0
 12  7  1  0
 12  4  1  0
 13  2  1  0
 14 13  2  0
 16 15  1  0
 17 16  1  0
 17 18  1  1
 19 17  1  0
 19 20  1  6
 20 13  1  0
 21 19  1  0
 22 21  2  0
 23 21  1  0
 24 23  1  0
 25 24  1  0
 25 27  1  0
 26 25  2  0
M  END
$$$$
