WIG.pdb
     RDKit          3D

 27 28  0  0  1  0  0  0  0  0999 V2000
   26.2137  -20.1987  -16.9986 N   0  0  0  0  0  0  0  0  0  0  0  0
   25.3053  -19.9177  -15.9285 C   0  0  1  0  0  0  0  0  0  0  0  0
   23.9273  -20.4147  -16.3894 C   0  0  0  0  0  0  0  0  0  0  0  0
   23.3986  -19.5809  -17.4948 C   0  0  0  0  0  0  0  0  0  0  0  0
   23.3816  -19.8983  -18.8264 C   0  0  0  0  0  0  0  0  0  0  0  0
   22.8165  -18.8633  -19.4711 N   0  0  0  0  0  0  0  0  0  0  0  0
   22.4704  -17.8975  -18.6170 C   0  0  0  0  0  0  0  0  0  0  0  0
   21.8685  -16.6669  -18.8166 C   0  0  0  0  0  0  0  0  0  0  0  0
   21.6416  -15.8881  -17.7035 C   0  0  0  0  0  0  0  0  0  0  0  0
   21.9854  -16.2827  -16.4259 C   0  0  0  0  0  0  0  0  0  0  0  0
   22.5803  -17.5072  -16.2594 C   0  0  0  0  0  0  0  0  0  0  0  0
   22.8306  -18.3323  -17.3590 C   0  0  0  0  0  0  0  0  0  0  0  0
   25.6493  -20.7388  -14.7409 C   0  0  0  0  0  0  0  0  0  0  0  0
   25.9027  -21.9541  -14.8972 O   0  0  0  0  0  0  0  0  0  0  0  0
   29.6796  -20.1960  -11.6994 C   0  0  0  0  0  0  0  0  0  0  0  0
   28.4900  -20.7386  -12.4636 C   0  0  0  0  0  0  0  0  0  0  0  0
   27.2844  -20.5997  -11.5660 C   0  0  2  0  0  0  0  0  0  0  0  0
   27.4751  -21.4433  -10.3370 C   0  0  0  0  0  0  0  0  0  0  0  0
   26.0037  -21.0288  -12.2629 C   0  0  2  0  0  0  0  0  0  0  0  0
   25.7094  -20.2235  -13.4218 N   0  0  0  0  0  0  0  0  0  0  0  0
   24.8533  -21.0557  -11.3080 C   0  0  0  0  0  0  0  0  0  0  0  0
   24.8920  -21.8089  -10.3016 O   0  0  0  0  0  0  0  0  0  0  0  0
   23.7048  -20.2227  -11.5387 N   0  0  0  0  0  0  0  0  0  0  0  0
   22.6791  -20.2368  -10.5389 C   0  0  0  0  0  0  0  0  0  0  0  0
   21.5069  -21.0270  -10.8929 C   0  0  0  0  0  0  0  0  0  0  0  0
   21.4867  -21.6942  -11.9478 O   0  0  0  0  0  0  0  0  0  0  0  0
   20.4025  -21.0499  -10.0684 O   0  0  0  0  0  0  0  0  0  0  0  0
  2  1  1  6
  3  2  1  0
  4  3  1  0
  4  5  2  0
  6  5  1  0
  7  6  1  0
  8  7  2  0
  9  8  1  0
 10  9  2  0
 10 11  1  0
 11 12  2  0
 12  7  1  0
 12  4  1  0
 13  2  1  0
 14 13  2  0
 16 15  1  0
 17 16  1  0
 17 18  1  1
 19 17  1  0
 19 20  1  6
 20 13  1  0
 21 19  1  0
 22 21  2  0
 23 21  1  0
 24 23  1  0
 25 24  1  0
 25 27  1  0
 26 25  2  0
M  END
$$$$
