WIG.pdb
     RDKit          3D

 27 28  0  0  1  0  0  0  0  0999 V2000
   25.4276  -19.3546  -17.3283 N   0  0  0  0  0  0  0  0  0  0  0  0
   25.3412  -18.8579  -15.9885 C   0  0  1  0  0  0  0  0  0  0  0  0
   24.0391  -18.0475  -15.9108 C   0  0  0  0  0  0  0  0  0  0  0  0
   24.1861  -16.7314  -16.5766 C   0  0  0  0  0  0  0  0  0  0  0  0
   23.4281  -16.2439  -17.6070 C   0  0  0  0  0  0  0  0  0  0  0  0
   23.9021  -15.0211  -17.9008 N   0  0  0  0  0  0  0  0  0  0  0  0
   24.9275  -14.7011  -17.1084 C   0  0  0  0  0  0  0  0  0  0  0  0
   25.7181  -13.5666  -17.0419 C   0  0  0  0  0  0  0  0  0  0  0  0
   26.7148  -13.5474  -16.0915 C   0  0  0  0  0  0  0  0  0  0  0  0
   26.9474  -14.5955  -15.2235 C   0  0  0  0  0  0  0  0  0  0  0  0
   26.1479  -15.7064  -15.3131 C   0  0  0  0  0  0  0  0  0  0  0  0
   25.1239  -15.7716  -16.2616 C   0  0  0  0  0  0  0  0  0  0  0  0
   25.1672  -19.9851  -15.0387 C   0  0  0  0  0  0  0  0  0  0  0  0
   24.9037  -21.1222  -15.4895 O   0  0  0  0  0  0  0  0  0  0  0  0
   28.9270  -20.9581  -11.5086 C   0  0  0  0  0  0  0  0  0  0  0  0
   27.8077  -21.2053  -12.4985 C   0  0  0  0  0  0  0  0  0  0  0  0
   26.5101  -20.9181  -11.7828 C   0  0  2  0  0  0  0  0  0  0  0  0
   26.3085  -21.9268  -10.6872 C   0  0  0  0  0  0  0  0  0  0  0  0
   25.3178  -20.9697  -12.7238 C   0  0  2  0  0  0  0  0  0  0  0  0
   25.2829  -19.8509  -13.6324 N   0  0  0  0  0  0  0  0  0  0  0  0
   24.0364  -21.0984  -11.9639 C   0  0  0  0  0  0  0  0  0  0  0  0
   23.8683  -22.0662  -11.1787 O   0  0  0  0  0  0  0  0  0  0  0  0
   22.9979  -20.1185  -12.1298 N   0  0  0  0  0  0  0  0  0  0  0  0
   21.7479  -20.3784  -11.4801 C   0  0  0  0  0  0  0  0  0  0  0  0
   20.8343  -21.2137  -12.2491 C   0  0  0  0  0  0  0  0  0  0  0  0
   21.1832  -21.6887  -13.3496 O   0  0  0  0  0  0  0  0  0  0  0  0
   19.5709  -21.4920  -11.7733 O   0  0  0  0  0  0  0  0  0  0  0  0
  2  1  1  6
  3  2  1  0
  4  3  1  0
  4  5  2  0
  6  5  1  0
  7  6  1  0
  8  7  2  0
  9  8  1  0
 10  9  2  0
 10 11  1  0
 11 12  2  0
 12  7  1  0
 12  4  1  0
 13  2  1  0
 14 13  2  0
 16 15  1  0
 17 16  1  0
 17 18  1  1
 19 17  1  0
 19 20  1  1
 20 13  1  0
 21 19  1  0
 22 21  2  0
 23 21  1  0
 24 23  1  0
 25 24  1  0
 25 27  1  0
 26 25  2  0
M  END
$$$$
