WIG.pdb
     RDKit          3D

 27 28  0  0  1  0  0  0  0  0999 V2000
   27.4975  -21.5063  -15.6600 N   0  0  0  0  0  0  0  0  0  0  0  0
   26.6258  -21.1593  -14.5788 C   0  0  1  0  0  0  0  0  0  0  0  0
   27.0375  -19.7507  -14.1264 C   0  0  0  0  0  0  0  0  0  0  0  0
   28.2754  -19.7893  -13.3122 C   0  0  0  0  0  0  0  0  0  0  0  0
   29.4718  -19.1940  -13.6092 C   0  0  0  0  0  0  0  0  0  0  0  0
   30.3162  -19.4833  -12.6044 N   0  0  0  0  0  0  0  0  0  0  0  0
   29.7188  -20.2355  -11.6774 C   0  0  0  0  0  0  0  0  0  0  0  0
   30.1831  -20.7669  -10.4864 C   0  0  0  0  0  0  0  0  0  0  0  0
   29.2974  -21.5136   -9.7415 C   0  0  0  0  0  0  0  0  0  0  0  0
   27.9935  -21.7451  -10.1320 C   0  0  0  0  0  0  0  0  0  0  0  0
   27.5620  -21.2057  -11.3169 C   0  0  0  0  0  0  0  0  0  0  0  0
   28.4245  -20.4409  -12.1067 C   0  0  0  0  0  0  0  0  0  0  0  0
   25.2318  -21.0290  -15.0714 C   0  0  0  0  0  0  0  0  0  0  0  0
   25.0343  -20.5595  -16.2142 O   0  0  0  0  0  0  0  0  0  0  0  0
   20.6386  -22.9578  -16.8583 C   0  0  0  0  0  0  0  0  0  0  0  0
   20.6536  -22.6046  -15.3857 C   0  0  0  0  0  0  0  0  0  0  0  0
   22.0862  -22.7013  -14.9201 C   0  0  2  0  0  0  0  0  0  0  0  0
   22.1315  -23.3675  -13.5737 C   0  0  0  0  0  0  0  0  0  0  0  0
   22.7436  -21.3351  -14.8148 C   0  0  2  0  0  0  0  0  0  0  0  0
   24.0942  -21.4094  -14.3161 N   0  0  0  0  0  0  0  0  0  0  0  0
   21.9103  -20.3970  -14.0015 C   0  0  0  0  0  0  0  0  0  0  0  0
   21.9860  -20.4194  -12.7464 O   0  0  0  0  0  0  0  0  0  0  0  0
   21.0237  -19.4710  -14.6517 N   0  0  0  0  0  0  0  0  0  0  0  0
   20.3039  -18.5603  -13.8123 C   0  0  0  0  0  0  0  0  0  0  0  0
   19.0597  -19.0956  -13.2744 C   0  0  0  0  0  0  0  0  0  0  0  0
   18.6726  -20.2396  -13.5902 O   0  0  0  0  0  0  0  0  0  0  0  0
   18.2914  -18.3470  -12.4089 O   0  0  0  0  0  0  0  0  0  0  0  0
  2  1  1  6
  3  2  1  0
  4  3  1  0
  4  5  2  0
  6  5  1  0
  7  6  1  0
  8  7  2  0
  9  8  1  0
 10  9  2  0
 10 11  1  0
 11 12  2  0
 12  7  1  0
 12  4  1  0
 13  2  1  0
 14 13  2  0
 16 15  1  0
 17 16  1  0
 17 18  1  1
 19 17  1  0
 19 20  1  1
 20 13  1  0
 21 19  1  0
 22 21  2  0
 23 21  1  0
 24 23  1  0
 25 24  1  0
 25 27  1  0
 26 25  2  0
M  END
$$$$
