WIG.pdb
     RDKit          3D

 27 28  0  0  1  0  0  0  0  0999 V2000
   26.1218  -18.6442   -9.0045 N   0  0  0  0  0  0  0  0  0  0  0  0
   26.6273  -19.9289   -9.3828 C   0  0  1  0  0  0  0  0  0  0  0  0
   26.9097  -20.6845   -8.0760 C   0  0  0  0  0  0  0  0  0  0  0  0
   27.5368  -19.7970   -7.0681 C   0  0  0  0  0  0  0  0  0  0  0  0
   27.6348  -18.4326   -7.1237 C   0  0  0  0  0  0  0  0  0  0  0  0
   28.2738  -18.0376   -6.0093 N   0  0  0  0  0  0  0  0  0  0  0  0
   28.5903  -19.0830   -5.2418 C   0  0  0  0  0  0  0  0  0  0  0  0
   29.2408  -19.1641   -4.0225 C   0  0  0  0  0  0  0  0  0  0  0  0
   29.4140  -20.4193   -3.4825 C   0  0  0  0  0  0  0  0  0  0  0  0
   28.9721  -21.5721   -4.1004 C   0  0  0  0  0  0  0  0  0  0  0  0
   28.3310  -21.4603   -5.3078 C   0  0  0  0  0  0  0  0  0  0  0  0
   28.1321  -20.2079   -5.8947 C   0  0  0  0  0  0  0  0  0  0  0  0
   25.5698  -20.7079  -10.0740 C   0  0  0  0  0  0  0  0  0  0  0  0
   24.4909  -20.9259   -9.4789 O   0  0  0  0  0  0  0  0  0  0  0  0
   26.0218  -18.4339  -15.2304 C   0  0  0  0  0  0  0  0  0  0  0  0
   25.3005  -19.7072  -14.8403 C   0  0  0  0  0  0  0  0  0  0  0  0
   26.0126  -20.2696  -13.6340 C   0  0  2  0  0  0  0  0  0  0  0  0
   26.8150  -21.4730  -14.0420 C   0  0  0  0  0  0  0  0  0  0  0  0
   25.0413  -20.6751  -12.5377 C   0  0  2  0  0  0  0  0  0  0  0  0
   25.7088  -21.2274  -11.3854 N   0  0  0  0  0  0  0  0  0  0  0  0
   23.9941  -21.6048  -13.0621 C   0  0  0  0  0  0  0  0  0  0  0  0
   24.2277  -22.8389  -13.1268 O   0  0  0  0  0  0  0  0  0  0  0  0
   22.7225  -21.0904  -13.4917 N   0  0  0  0  0  0  0  0  0  0  0  0
   21.7592  -22.0425  -13.9583 C   0  0  0  0  0  0  0  0  0  0  0  0
   20.7771  -22.4417  -12.9583 C   0  0  0  0  0  0  0  0  0  0  0  0
   20.6993  -21.8369  -11.8690 O   0  0  0  0  0  0  0  0  0  0  0  0
   19.9192  -23.4931  -13.1998 O   0  0  0  0  0  0  0  0  0  0  0  0
  2  1  1  1
  3  2  1  0
  4  3  1  0
  4  5  2  0
  6  5  1  0
  7  6  1  0
  8  7  2  0
  9  8  1  0
 10  9  2  0
 10 11  1  0
 11 12  2  0
 12  7  1  0
 12  4  1  0
 13  2  1  0
 14 13  2  0
 16 15  1  0
 17 16  1  0
 17 18  1  6
 19 17  1  0
 19 20  1  1
 20 13  1  0
 21 19  1  0
 22 21  2  0
 23 21  1  0
 24 23  1  0
 25 24  1  0
 25 27  1  0
 26 25  2  0
M  END
$$$$
