WIG.pdb
     RDKit          3D

 27 28  0  0  1  0  0  0  0  0999 V2000
   22.7282  -12.5303  -17.9380 N   0  0  0  0  0  0  0  0  0  0  0  0
   23.4343  -13.0324  -16.7985 C   0  0  1  0  0  0  0  0  0  0  0  0
   22.7521  -12.4242  -15.5644 C   0  0  0  0  0  0  0  0  0  0  0  0
   23.0893  -10.9883  -15.4183 C   0  0  0  0  0  0  0  0  0  0  0  0
   22.2159   -9.9596  -15.1880 C   0  0  0  0  0  0  0  0  0  0  0  0
   22.9434   -8.8313  -15.1258 N   0  0  0  0  0  0  0  0  0  0  0  0
   24.2413   -9.0871  -15.3052 C   0  0  0  0  0  0  0  0  0  0  0  0
   25.3476   -8.2551  -15.3232 C   0  0  0  0  0  0  0  0  0  0  0  0
   26.5749   -8.8427  -15.5364 C   0  0  0  0  0  0  0  0  0  0  0  0
   26.7363  -10.2004  -15.7284 C   0  0  0  0  0  0  0  0  0  0  0  0
   25.6217  -10.9995  -15.7052 C   0  0  0  0  0  0  0  0  0  0  0  0
   24.3554  -10.4485  -15.4923 C   0  0  0  0  0  0  0  0  0  0  0  0
   23.2354  -14.4987  -16.6827 C   0  0  0  0  0  0  0  0  0  0  0  0
   22.2919  -15.0334  -17.3068 O   0  0  0  0  0  0  0  0  0  0  0  0
   27.1465  -16.0308  -16.0241 C   0  0  0  0  0  0  0  0  0  0  0  0
   26.3505  -17.2313  -16.4920 C   0  0  0  0  0  0  0  0  0  0  0  0
   25.2522  -17.4574  -15.4815 C   0  0  2  0  0  0  0  0  0  0  0  0
   25.0048  -18.9322  -15.3321 C   0  0  0  0  0  0  0  0  0  0  0  0
   23.9545  -16.7803  -15.8905 C   0  0  2  0  0  0  0  0  0  0  0  0
   24.0604  -15.3426  -15.8976 N   0  0  0  0  0  0  0  0  0  0  0  0
   22.8144  -17.2414  -15.0399 C   0  0  0  0  0  0  0  0  0  0  0  0
   22.8510  -17.0668  -13.7950 O   0  0  0  0  0  0  0  0  0  0  0  0
   21.6782  -17.8832  -15.6426 N   0  0  0  0  0  0  0  0  0  0  0  0
   20.6379  -18.3256  -14.7628 C   0  0  0  0  0  0  0  0  0  0  0  0
   20.6611  -19.7545  -14.4769 C   0  0  0  0  0  0  0  0  0  0  0  0
   21.4881  -20.5007  -15.0405 O   0  0  0  0  0  0  0  0  0  0  0  0
   19.7704  -20.3039  -13.5799 O   0  0  0  0  0  0  0  0  0  0  0  0
  2  1  1  6
  3  2  1  0
  4  3  1  0
  4  5  2  0
  6  5  1  0
  7  6  1  0
  8  7  2  0
  9  8  1  0
 10  9  2  0
 10 11  1  0
 11 12  2  0
 12  7  1  0
 12  4  1  0
 13  2  1  0
 14 13  2  0
 16 15  1  0
 17 16  1  0
 17 18  1  6
 19 17  1  0
 19 20  1  1
 20 13  1  0
 21 19  1  0
 22 21  2  0
 23 21  1  0
 24 23  1  0
 25 24  1  0
 25 27  1  0
 26 25  2  0
M  END
$$$$
