WIG.pdb
     RDKit          3D

 27 28  0  0  1  0  0  0  0  0999 V2000
   25.3703  -19.3399   -9.1368 N   0  0  0  0  0  0  0  0  0  0  0  0
   26.3913  -20.1030   -9.7884 C   0  0  1  0  0  0  0  0  0  0  0  0
   26.9651  -21.0528   -8.7268 C   0  0  0  0  0  0  0  0  0  0  0  0
   27.1529  -20.3582   -7.4310 C   0  0  0  0  0  0  0  0  0  0  0  0
   26.2998  -19.4583   -6.8511 C   0  0  0  0  0  0  0  0  0  0  0  0
   26.8575  -19.0791   -5.6886 N   0  0  0  0  0  0  0  0  0  0  0  0
   28.0273  -19.6925   -5.4953 C   0  0  0  0  0  0  0  0  0  0  0  0
   28.9432  -19.6188   -4.4599 C   0  0  0  0  0  0  0  0  0  0  0  0
   30.0757  -20.3959   -4.5633 C   0  0  0  0  0  0  0  0  0  0  0  0
   30.3233  -21.2261   -5.6383 C   0  0  0  0  0  0  0  0  0  0  0  0
   29.3975  -21.2782   -6.6490 C   0  0  0  0  0  0  0  0  0  0  0  0
   28.2333  -20.5079   -6.5881 C   0  0  0  0  0  0  0  0  0  0  0  0
   25.7885  -20.9789  -10.8239 C   0  0  0  0  0  0  0  0  0  0  0  0
   24.6386  -21.4355  -10.6370 O   0  0  0  0  0  0  0  0  0  0  0  0
   28.8330  -18.6023  -14.7498 C   0  0  0  0  0  0  0  0  0  0  0  0
   27.5716  -18.9018  -13.9669 C   0  0  0  0  0  0  0  0  0  0  0  0
   27.2827  -20.3737  -14.1359 C   0  0  2  0  0  0  0  0  0  0  0  0
   27.0243  -20.6701  -15.5864 C   0  0  0  0  0  0  0  0  0  0  0  0
   26.0772  -20.8141  -13.3219 C   0  0  2  0  0  0  0  0  0  0  0  0
   26.4446  -21.3350  -12.0289 N   0  0  0  0  0  0  0  0  0  0  0  0
   25.2371  -21.7870  -14.0859 C   0  0  0  0  0  0  0  0  0  0  0  0
   24.7230  -21.4455  -15.1816 O   0  0  0  0  0  0  0  0  0  0  0  0
   25.0168  -23.1105  -13.5700 N   0  0  0  0  0  0  0  0  0  0  0  0
   24.3668  -24.0473  -14.4371 C   0  0  0  0  0  0  0  0  0  0  0  0
   25.2505  -24.6780  -15.4094 C   0  0  0  0  0  0  0  0  0  0  0  0
   26.4794  -24.4600  -15.3844 O   0  0  0  0  0  0  0  0  0  0  0  0
   24.7429  -25.5247  -16.3713 O   0  0  0  0  0  0  0  0  0  0  0  0
  2  1  1  1
  3  2  1  0
  4  3  1  0
  4  5  2  0
  6  5  1  0
  7  6  1  0
  8  7  2  0
  9  8  1  0
 10  9  2  0
 10 11  1  0
 11 12  2  0
 12  7  1  0
 12  4  1  0
 13  2  1  0
 14 13  2  0
 16 15  1  0
 17 16  1  0
 17 18  1  6
 19 17  1  0
 19 20  1  1
 20 13  1  0
 21 19  1  0
 22 21  2  0
 23 21  1  0
 24 23  1  0
 25 24  1  0
 25 27  1  0
 26 25  2  0
M  END
$$$$
