WIG.pdb
     RDKit          3D

 27 28  0  0  1  0  0  0  0  0999 V2000
   27.5376  -21.0628  -13.7762 N   0  0  0  0  0  0  0  0  0  0  0  0
   26.5163  -20.3666  -13.0543 C   0  0  1  0  0  0  0  0  0  0  0  0
   25.1995  -20.6405  -13.7955 C   0  0  0  0  0  0  0  0  0  0  0  0
   25.0702  -19.7796  -14.9951 C   0  0  0  0  0  0  0  0  0  0  0  0
   26.0528  -19.4803  -15.9001 C   0  0  0  0  0  0  0  0  0  0  0  0
   25.5051  -18.6717  -16.8234 N   0  0  0  0  0  0  0  0  0  0  0  0
   24.2187  -18.4382  -16.5540 C   0  0  0  0  0  0  0  0  0  0  0  0
   23.2653  -17.6800  -17.2117 C   0  0  0  0  0  0  0  0  0  0  0  0
   22.0015  -17.6439  -16.6652 C   0  0  0  0  0  0  0  0  0  0  0  0
   21.6607  -18.3215  -15.5115 C   0  0  0  0  0  0  0  0  0  0  0  0
   22.6265  -19.0645  -14.8819 C   0  0  0  0  0  0  0  0  0  0  0  0
   23.9229  -19.1312  -15.3991 C   0  0  0  0  0  0  0  0  0  0  0  0
   26.3480  -20.9656  -11.7068 C   0  0  0  0  0  0  0  0  0  0  0  0
   26.3323  -22.2117  -11.5951 O   0  0  0  0  0  0  0  0  0  0  0  0
   28.3357  -18.8076   -7.1803 C   0  0  0  0  0  0  0  0  0  0  0  0
   27.9108  -19.9201   -8.1161 C   0  0  0  0  0  0  0  0  0  0  0  0
   26.4031  -19.9822   -8.0767 C   0  0  2  0  0  0  0  0  0  0  0  0
   25.9619  -20.6323   -6.7956 C   0  0  0  0  0  0  0  0  0  0  0  0
   25.8353  -20.7677   -9.2474 C   0  0  2  0  0  0  0  0  0  0  0  0
   26.2021  -20.2019  -10.5216 N   0  0  0  0  0  0  0  0  0  0  0  0
   24.3534  -20.9240   -9.1236 C   0  0  0  0  0  0  0  0  0  0  0  0
   23.8703  -21.5753   -8.1624 O   0  0  0  0  0  0  0  0  0  0  0  0
   23.4814  -20.3315  -10.1008 N   0  0  0  0  0  0  0  0  0  0  0  0
   22.0757  -20.3711   -9.8281 C   0  0  0  0  0  0  0  0  0  0  0  0
   21.3671  -21.4608  -10.4871 C   0  0  0  0  0  0  0  0  0  0  0  0
   21.9809  -22.2679  -11.2152 O   0  0  0  0  0  0  0  0  0  0  0  0
   20.0082  -21.6171  -10.3165 O   0  0  0  0  0  0  0  0  0  0  0  0
  2  1  1  6
  3  2  1  0
  4  3  1  0
  4  5  2  0
  6  5  1  0
  7  6  1  0
  8  7  2  0
  9  8  1  0
 10  9  2  0
 10 11  1  0
 11 12  2  0
 12  7  1  0
 12  4  1  0
 13  2  1  0
 14 13  2  0
 16 15  1  0
 17 16  1  0
 17 18  1  1
 19 17  1  0
 19 20  1  6
 20 13  1  0
 21 19  1  0
 22 21  2  0
 23 21  1  0
 24 23  1  0
 25 24  1  0
 25 27  1  0
 26 25  2  0
M  END
$$$$
