WIG.pdb
     RDKit          3D

 27 28  0  0  1  0  0  0  0  0999 V2000
   24.5767  -20.3773   -9.6365 N   0  0  0  0  0  0  0  0  0  0  0  0
   25.9247  -20.1754  -10.0739 C   0  0  1  0  0  0  0  0  0  0  0  0
   26.8049  -21.0709   -9.1898 C   0  0  0  0  0  0  0  0  0  0  0  0
   26.6704  -20.7099   -7.7586 C   0  0  0  0  0  0  0  0  0  0  0  0
   25.5210  -20.7167   -7.0151 C   0  0  0  0  0  0  0  0  0  0  0  0
   25.8523  -20.3223   -5.7737 N   0  0  0  0  0  0  0  0  0  0  0  0
   27.1587  -20.0629   -5.6855 C   0  0  0  0  0  0  0  0  0  0  0  0
   27.9413  -19.6367   -4.6261 C   0  0  0  0  0  0  0  0  0  0  0  0
   29.2859  -19.4597   -4.8665 C   0  0  0  0  0  0  0  0  0  0  0  0
   29.8666  -19.6871   -6.0983 C   0  0  0  0  0  0  0  0  0  0  0  0
   29.0659  -20.1088   -7.1290 C   0  0  0  0  0  0  0  0  0  0  0  0
   27.6960  -20.3023   -6.9328 C   0  0  0  0  0  0  0  0  0  0  0  0
   26.0930  -20.6896  -11.4560 C   0  0  0  0  0  0  0  0  0  0  0  0
   27.2489  -20.8272  -11.9148 O   0  0  0  0  0  0  0  0  0  0  0  0
   24.4533  -25.1036  -13.4594 C   0  0  0  0  0  0  0  0  0  0  0  0
   25.1779  -23.8147  -13.1321 C   0  0  0  0  0  0  0  0  0  0  0  0
   24.6094  -22.7444  -14.0320 C   0  0  2  0  0  0  0  0  0  0  0  0
   24.9416  -23.0643  -15.4624 C   0  0  0  0  0  0  0  0  0  0  0  0
   25.1585  -21.3677  -13.6960 C   0  0  2  0  0  0  0  0  0  0  0  0
   25.0094  -21.0396  -12.3001 N   0  0  0  0  0  0  0  0  0  0  0  0
   24.5549  -20.3177  -14.5730 C   0  0  0  0  0  0  0  0  0  0  0  0
   24.5445  -20.4739  -15.8208 O   0  0  0  0  0  0  0  0  0  0  0  0
   23.9874  -19.1316  -13.9923 N   0  0  0  0  0  0  0  0  0  0  0  0
   23.3641  -18.2029  -14.8871 C   0  0  0  0  0  0  0  0  0  0  0  0
   24.2975  -17.3563  -15.6192 C   0  0  0  0  0  0  0  0  0  0  0  0
   25.5104  -17.6470  -15.6714 O   0  0  0  0  0  0  0  0  0  0  0  0
   23.8555  -16.2217  -16.2651 O   0  0  0  0  0  0  0  0  0  0  0  0
  2  1  1  1
  3  2  1  0
  4  3  1  0
  4  5  2  0
  6  5  1  0
  7  6  1  0
  8  7  2  0
  9  8  1  0
 10  9  2  0
 10 11  1  0
 11 12  2  0
 12  7  1  0
 12  4  1  0
 13  2  1  0
 14 13  2  0
 16 15  1  0
 17 16  1  0
 17 18  1  6
 19 17  1  0
 19 20  1  1
 20 13  1  0
 21 19  1  0
 22 21  2  0
 23 21  1  0
 24 23  1  0
 25 24  1  0
 25 27  1  0
 26 25  2  0
M  END
$$$$
