WIG.pdb
     RDKit          3D

 27 28  0  0  1  0  0  0  0  0999 V2000
   26.9544  -20.6738  -14.6530 N   0  0  0  0  0  0  0  0  0  0  0  0
   25.9233  -20.1463  -13.8118 C   0  0  1  0  0  0  0  0  0  0  0  0
   24.5902  -20.5105  -14.4815 C   0  0  0  0  0  0  0  0  0  0  0  0
   24.4497  -19.8406  -15.7961 C   0  0  0  0  0  0  0  0  0  0  0  0
   24.2527  -20.4452  -17.0084 C   0  0  0  0  0  0  0  0  0  0  0  0
   24.1828  -19.4687  -17.9292 N   0  0  0  0  0  0  0  0  0  0  0  0
   24.3257  -18.2671  -17.3657 C   0  0  0  0  0  0  0  0  0  0  0  0
   24.3232  -16.9927  -17.9064 C   0  0  0  0  0  0  0  0  0  0  0  0
   24.4984  -15.9387  -17.0372 C   0  0  0  0  0  0  0  0  0  0  0  0
   24.6724  -16.1050  -15.6777 C   0  0  0  0  0  0  0  0  0  0  0  0
   24.6703  -17.3796  -15.1710 C   0  0  0  0  0  0  0  0  0  0  0  0
   24.4960  -18.4803  -16.0139 C   0  0  0  0  0  0  0  0  0  0  0  0
   25.9208  -20.8530  -12.5067 C   0  0  0  0  0  0  0  0  0  0  0  0
   26.1745  -22.0780  -12.4803 O   0  0  0  0  0  0  0  0  0  0  0  0
   27.4160  -18.6771   -7.8466 C   0  0  0  0  0  0  0  0  0  0  0  0
   27.2190  -19.8575   -8.7749 C   0  0  0  0  0  0  0  0  0  0  0  0
   25.7391  -20.1528   -8.8103 C   0  0  2  0  0  0  0  0  0  0  0  0
   25.3589  -20.9528   -7.5962 C   0  0  0  0  0  0  0  0  0  0  0  0
   25.3437  -20.9304  -10.0548 C   0  0  2  0  0  0  0  0  0  0  0  0
   25.6448  -20.2165  -11.2705 N   0  0  0  0  0  0  0  0  0  0  0  0
   23.9064  -21.3390  -10.0012 C   0  0  0  0  0  0  0  0  0  0  0  0
   23.5327  -22.2083   -9.1727 O   0  0  0  0  0  0  0  0  0  0  0  0
   22.9524  -20.7402  -10.8943 N   0  0  0  0  0  0  0  0  0  0  0  0
   21.5700  -21.0372  -10.6645 C   0  0  0  0  0  0  0  0  0  0  0  0
   21.0754  -22.1961  -11.3967 C   0  0  0  0  0  0  0  0  0  0  0  0
   21.8495  -22.8829  -12.0949 O   0  0  0  0  0  0  0  0  0  0  0  0
   19.7454  -22.5517  -11.3295 O   0  0  0  0  0  0  0  0  0  0  0  0
  2  1  1  6
  3  2  1  0
  4  3  1  0
  4  5  2  0
  6  5  1  0
  7  6  1  0
  8  7  2  0
  9  8  1  0
 10  9  2  0
 10 11  1  0
 11 12  2  0
 12  7  1  0
 12  4  1  0
 13  2  1  0
 14 13  2  0
 16 15  1  0
 17 16  1  0
 17 18  1  1
 19 17  1  0
 19 20  1  6
 20 13  1  0
 21 19  1  0
 22 21  2  0
 23 21  1  0
 24 23  1  0
 25 24  1  0
 25 27  1  0
 26 25  2  0
M  END
$$$$
