WIG.pdb
     RDKit          3D

 27 28  0  0  1  0  0  0  0  0999 V2000
   17.1488  -14.8975    3.7944 N   0  0  0  0  0  0  0  0  0  0  0  0
   17.2129  -15.0319    5.2181 C   0  0  1  0  0  0  0  0  0  0  0  0
   16.8524  -16.4915    5.5313 C   0  0  0  0  0  0  0  0  0  0  0  0
   15.7568  -16.9728    4.6569 C   0  0  0  0  0  0  0  0  0  0  0  0
   14.4475  -16.5741    4.6869 C   0  0  0  0  0  0  0  0  0  0  0  0
   13.8041  -17.2613    3.7277 N   0  0  0  0  0  0  0  0  0  0  0  0
   14.6378  -18.0815    3.0841 C   0  0  0  0  0  0  0  0  0  0  0  0
   14.4314  -18.9680    2.0411 C   0  0  0  0  0  0  0  0  0  0  0  0
   15.5219  -19.6814    1.5948 C   0  0  0  0  0  0  0  0  0  0  0  0
   16.7836  -19.5462    2.1386 C   0  0  0  0  0  0  0  0  0  0  0  0
   16.9575  -18.6601    3.1710 C   0  0  0  0  0  0  0  0  0  0  0  0
   15.8807  -17.9141    3.6576 C   0  0  0  0  0  0  0  0  0  0  0  0
   18.6117  -14.8575    5.6827 C   0  0  0  0  0  0  0  0  0  0  0  0
   19.5462  -15.2679    4.9590 O   0  0  0  0  0  0  0  0  0  0  0  0
   20.1781  -10.2469    7.7937 C   0  0  0  0  0  0  0  0  0  0  0  0
   20.0656  -11.5479    7.0265 C   0  0  0  0  0  0  0  0  0  0  0  0
   20.5214  -12.6501    7.9517 C   0  0  2  0  0  0  0  0  0  0  0  0
   21.9796  -12.4685    8.2668 C   0  0  0  0  0  0  0  0  0  0  0  0
   20.3184  -14.0265    7.3401 C   0  0  2  0  0  0  0  0  0  0  0  0
   18.9590  -14.2459    6.9133 N   0  0  0  0  0  0  0  0  0  0  0  0
   20.7813  -15.1028    8.2692 C   0  0  0  0  0  0  0  0  0  0  0  0
   20.0800  -15.4147    9.2655 O   0  0  0  0  0  0  0  0  0  0  0  0
   22.0253  -15.7805    8.0254 N   0  0  0  0  0  0  0  0  0  0  0  0
   22.3191  -16.9172    8.8461 C   0  0  0  0  0  0  0  0  0  0  0  0
   22.8799  -16.5871   10.1500 C   0  0  0  0  0  0  0  0  0  0  0  0
   23.0261  -15.3962   10.4945 O   0  0  0  0  0  0  0  0  0  0  0  0
   23.2576  -17.5847   11.0230 O   0  0  0  0  0  0  0  0  0  0  0  0
  2  1  1  6
  3  2  1  0
  4  3  1  0
  4  5  2  0
  6  5  1  0
  7  6  1  0
  8  7  2  0
  9  8  1  0
 10  9  2  0
 10 11  1  0
 11 12  2  0
 12  7  1  0
 12  4  1  0
 13  2  1  0
 14 13  2  0
 16 15  1  0
 17 16  1  0
 17 18  1  6
 19 17  1  0
 19 20  1  1
 20 13  1  0
 21 19  1  0
 22 21  2  0
 23 21  1  0
 24 23  1  0
 25 24  1  0
 25 27  1  0
 26 25  2  0
M  END
$$$$
