WIG.pdb
     RDKit          3D

 27 28  0  0  1  0  0  0  0  0999 V2000
   17.4636  -16.1179    4.2076 N   0  0  0  0  0  0  0  0  0  0  0  0
   17.4731  -17.1844    5.1624 C   0  0  1  0  0  0  0  0  0  0  0  0
   17.3115  -18.4841    4.3606 C   0  0  0  0  0  0  0  0  0  0  0  0
   15.9344  -18.6188    3.8293 C   0  0  0  0  0  0  0  0  0  0  0  0
   14.8468  -17.8588    4.1663 C   0  0  0  0  0  0  0  0  0  0  0  0
   13.8065  -18.3204    3.4515 N   0  0  0  0  0  0  0  0  0  0  0  0
   14.1747  -19.3399    2.6724 C   0  0  0  0  0  0  0  0  0  0  0  0
   13.4594  -20.1179    1.7783 C   0  0  0  0  0  0  0  0  0  0  0  0
   14.1466  -21.1114    1.1166 C   0  0  0  0  0  0  0  0  0  0  0  0
   15.4922  -21.3527    1.3097 C   0  0  0  0  0  0  0  0  0  0  0  0
   16.1746  -20.5656    2.2019 C   0  0  0  0  0  0  0  0  0  0  0  0
   15.5198  -19.5452    2.8966 C   0  0  0  0  0  0  0  0  0  0  0  0
   18.8063  -17.2767    5.8082 C   0  0  0  0  0  0  0  0  0  0  0  0
   19.8276  -17.3180    5.0865 O   0  0  0  0  0  0  0  0  0  0  0  0
   22.7833  -15.3813    8.7690 C   0  0  0  0  0  0  0  0  0  0  0  0
   21.9359  -16.4387    9.4454 C   0  0  0  0  0  0  0  0  0  0  0  0
   20.5506  -16.3436    8.8534 C   0  0  2  0  0  0  0  0  0  0  0  0
   19.5289  -16.4409    9.9512 C   0  0  0  0  0  0  0  0  0  0  0  0
   20.2886  -17.4448    7.8392 C   0  0  2  0  0  0  0  0  0  0  0  0
   18.9963  -17.3216    7.2121 N   0  0  0  0  0  0  0  0  0  0  0  0
   20.4739  -18.7965    8.4510 C   0  0  0  0  0  0  0  0  0  0  0  0
   19.5648  -19.2905    9.1660 O   0  0  0  0  0  0  0  0  0  0  0  0
   21.6883  -19.5311    8.2234 N   0  0  0  0  0  0  0  0  0  0  0  0
   21.7346  -20.8784    8.7076 C   0  0  0  0  0  0  0  0  0  0  0  0
   21.9830  -20.9934   10.1390 C   0  0  0  0  0  0  0  0  0  0  0  0
   22.1871  -19.9748   10.8311 O   0  0  0  0  0  0  0  0  0  0  0  0
   21.9965  -22.2286   10.7506 O   0  0  0  0  0  0  0  0  0  0  0  0
  2  1  1  6
  3  2  1  0
  4  3  1  0
  4  5  2  0
  6  5  1  0
  7  6  1  0
  8  7  2  0
  9  8  1  0
 10  9  2  0
 10 11  1  0
 11 12  2  0
 12  7  1  0
 12  4  1  0
 13  2  1  0
 14 13  2  0
 16 15  1  0
 17 16  1  0
 17 18  1  1
 19 17  1  0
 19 20  1  1
 20 13  1  0
 21 19  1  0
 22 21  2  0
 23 21  1  0
 24 23  1  0
 25 24  1  0
 25 27  1  0
 26 25  2  0
M  END
$$$$
