WIG.pdb
     RDKit          3D

 27 28  0  0  1  0  0  0  0  0999 V2000
   25.2597  -18.2433  -15.5868 N   0  0  0  0  0  0  0  0  0  0  0  0
   24.1444  -19.1203  -15.7770 C   0  0  1  0  0  0  0  0  0  0  0  0
   24.3329  -19.7664  -17.1573 C   0  0  0  0  0  0  0  0  0  0  0  0
   24.4147  -18.7399  -18.2233 C   0  0  0  0  0  0  0  0  0  0  0  0
   25.4836  -18.4895  -19.0411 C   0  0  0  0  0  0  0  0  0  0  0  0
   25.1289  -17.4813  -19.8560 N   0  0  0  0  0  0  0  0  0  0  0  0
   23.8839  -17.0731  -19.6000 C   0  0  0  0  0  0  0  0  0  0  0  0
   23.1059  -16.0821  -20.1733 C   0  0  0  0  0  0  0  0  0  0  0  0
   21.8352  -15.9084  -19.6712 C   0  0  0  0  0  0  0  0  0  0  0  0
   21.3226  -16.6703  -18.6402 C   0  0  0  0  0  0  0  0  0  0  0  0
   22.1170  -17.6449  -18.0920 C   0  0  0  0  0  0  0  0  0  0  0  0
   23.4132  -17.8580  -18.5684 C   0  0  0  0  0  0  0  0  0  0  0  0
   24.2040  -20.2375  -14.8017 C   0  0  0  0  0  0  0  0  0  0  0  0
   24.6829  -21.3347  -15.1655 O   0  0  0  0  0  0  0  0  0  0  0  0
   25.8398  -20.0473   -9.6530 C   0  0  0  0  0  0  0  0  0  0  0  0
   25.5742  -20.5429  -11.0593 C   0  0  0  0  0  0  0  0  0  0  0  0
   24.1044  -20.8763  -11.1427 C   0  0  2  0  0  0  0  0  0  0  0  0
   23.7982  -22.0242  -10.2223 C   0  0  0  0  0  0  0  0  0  0  0  0
   23.6857  -21.2530  -12.5543 C   0  0  2  0  0  0  0  0  0  0  0  0
   23.7454  -20.1364  -13.4643 N   0  0  0  0  0  0  0  0  0  0  0  0
   22.3352  -21.8949  -12.5629 C   0  0  0  0  0  0  0  0  0  0  0  0
   22.1749  -23.0239  -12.0324 O   0  0  0  0  0  0  0  0  0  0  0  0
   21.2215  -21.2241  -13.1759 N   0  0  0  0  0  0  0  0  0  0  0  0
   19.9537  -21.8890  -13.1264 C   0  0  0  0  0  0  0  0  0  0  0  0
   19.4145  -22.0537  -11.7825 C   0  0  0  0  0  0  0  0  0  0  0  0
   19.7671  -23.0172  -11.0714 O   0  0  0  0  0  0  0  0  0  0  0  0
   18.5070  -21.1482  -11.2761 O   0  0  0  0  0  0  0  0  0  0  0  0
  2  1  1  1
  3  2  1  0
  4  3  1  0
  4  5  2  0
  6  5  1  0
  7  6  1  0
  8  7  2  0
  9  8  1  0
 10  9  2  0
 10 11  1  0
 11 12  2  0
 12  7  1  0
 12  4  1  0
 13  2  1  0
 14 13  2  0
 16 15  1  0
 17 16  1  0
 17 18  1  1
 19 17  1  0
 19 20  1  6
 20 13  1  0
 21 19  1  0
 22 21  2  0
 23 21  1  0
 24 23  1  0
 25 24  1  0
 25 27  1  0
 26 25  2  0
M  END
$$$$
