WIG.pdb
     RDKit          3D

 27 28  0  0  1  0  0  0  0  0999 V2000
   27.9478  -21.8749  -10.2276 N   0  0  0  0  0  0  0  0  0  0  0  0
   26.8728  -21.1297   -9.6458 C   0  0  1  0  0  0  0  0  0  0  0  0
   27.5101  -19.9060   -8.9715 C   0  0  0  0  0  0  0  0  0  0  0  0
   28.4655  -20.3133   -7.9140 C   0  0  0  0  0  0  0  0  0  0  0  0
   29.6076  -21.0497   -8.0793 C   0  0  0  0  0  0  0  0  0  0  0  0
   30.1681  -21.1856   -6.8653 N   0  0  0  0  0  0  0  0  0  0  0  0
   29.4403  -20.5717   -5.9296 C   0  0  0  0  0  0  0  0  0  0  0  0
   29.6198  -20.4443   -4.5629 C   0  0  0  0  0  0  0  0  0  0  0  0
   28.6686  -19.7329   -3.8656 C   0  0  0  0  0  0  0  0  0  0  0  0
   27.5684  -19.1561   -4.4681 C   0  0  0  0  0  0  0  0  0  0  0  0
   27.4173  -19.2991   -5.8238 C   0  0  0  0  0  0  0  0  0  0  0  0
   28.3566  -20.0123   -6.5733 C   0  0  0  0  0  0  0  0  0  0  0  0
   25.9954  -20.5862  -10.7124 C   0  0  0  0  0  0  0  0  0  0  0  0
   26.4982  -19.8621  -11.6003 O   0  0  0  0  0  0  0  0  0  0  0  0
   25.9671  -22.2651  -14.5455 C   0  0  0  0  0  0  0  0  0  0  0  0
   25.6070  -21.1583  -13.5765 C   0  0  0  0  0  0  0  0  0  0  0  0
   24.1769  -21.3879  -13.1513 C   0  0  2  0  0  0  0  0  0  0  0  0
   23.2556  -21.0513  -14.2900 C   0  0  0  0  0  0  0  0  0  0  0  0
   23.7988  -20.5420  -11.9467 C   0  0  2  0  0  0  0  0  0  0  0  0
   24.6030  -20.8407  -10.7881 N   0  0  0  0  0  0  0  0  0  0  0  0
   22.3388  -20.6565  -11.6444 C   0  0  0  0  0  0  0  0  0  0  0  0
   21.8808  -21.7240  -11.1624 O   0  0  0  0  0  0  0  0  0  0  0  0
   21.4594  -19.5495  -11.9038 N   0  0  0  0  0  0  0  0  0  0  0  0
   20.1055  -19.6740  -11.4527 C   0  0  0  0  0  0  0  0  0  0  0  0
   19.2129  -20.3219  -12.4052 C   0  0  0  0  0  0  0  0  0  0  0  0
   19.6716  -21.0440  -13.3143 O   0  0  0  0  0  0  0  0  0  0  0  0
   17.8484  -20.1473  -12.3169 O   0  0  0  0  0  0  0  0  0  0  0  0
  2  1  1  6
  3  2  1  0
  4  3  1  0
  4  5  2  0
  6  5  1  0
  7  6  1  0
  8  7  2  0
  9  8  1  0
 10  9  2  0
 10 11  1  0
 11 12  2  0
 12  7  1  0
 12  4  1  0
 13  2  1  0
 14 13  2  0
 16 15  1  0
 17 16  1  0
 17 18  1  6
 19 17  1  0
 19 20  1  1
 20 13  1  0
 21 19  1  0
 22 21  2  0
 23 21  1  0
 24 23  1  0
 25 24  1  0
 25 27  1  0
 26 25  2  0
M  END
$$$$
