ECI.pdb
     RDKit          3D

 24 23  0  0  1  0  0  0  0  0999 V2000
   10.7627  -19.4382   20.2964 N   0  0  0  0  0  0  0  0  0  0  0  0
   10.4375  -18.0851   19.9024 C   0  0  1  0  0  0  0  0  0  0  0  0
   10.0257  -18.1045   18.4565 C   0  0  0  0  0  0  0  0  0  0  0  0
   10.9643  -18.8841   17.5890 C   0  0  0  0  0  0  0  0  0  0  0  0
   11.9263  -17.9562   16.9605 C   0  0  0  0  0  0  0  0  0  0  0  0
   13.1394  -18.0414   17.2584 O   0  0  0  0  0  0  0  0  0  0  0  0
    9.2670  -17.5939   20.6883 C   0  0  0  0  0  0  0  0  0  0  0  0
    8.2771  -17.0466   20.1242 O   0  0  0  0  0  0  0  0  0  0  0  0
   11.5483  -16.9845   16.0464 O   0  0  0  0  0  0  0  0  0  0  0  0
    9.1875  -17.7056   22.0937 N   0  0  0  0  0  0  0  0  0  0  0  0
    8.1122  -17.2580   22.9104 C   0  0  1  0  0  0  0  0  0  0  0  0
    7.3063  -18.3491   23.5446 C   0  0  0  0  0  0  0  0  0  0  0  0
    8.2836  -19.2379   24.7888 S   0  0  0  0  0  0  0  0  0  0  0  0
    8.5853  -16.2533   23.8972 C   0  0  0  0  0  0  0  0  0  0  0  0
    9.7942  -16.2458   24.2379 O   0  0  0  0  0  0  0  0  0  0  0  0
    6.8441  -10.9519   26.7129 C   0  0  0  0  0  0  0  0  0  0  0  0
    7.7848  -12.1025   26.5374 C   0  0  0  0  0  0  0  0  0  0  0  0
    7.2135  -13.1746   25.6346 C   0  0  2  0  0  0  0  0  0  0  0  0
    5.9348  -13.7563   26.2131 C   0  0  0  0  0  0  0  0  0  0  0  0
    8.1845  -14.3139   25.4591 C   0  0  2  0  0  0  0  0  0  0  0  0
    7.7358  -15.2869   24.4855 N   0  0  0  0  0  0  0  0  0  0  0  0
    8.5231  -14.9663   26.7489 C   0  0  0  0  0  0  0  0  0  0  0  0
    7.9443  -16.0123   27.1180 O   0  0  0  0  0  0  0  0  0  0  0  0
    9.4911  -14.4441   27.5932 O   0  0  0  0  0  0  0  0  0  0  0  0
  2  1  1  1
  3  2  1  0
  4  3  1  0
  4  5  1  0
  5  6  2  0
  7  2  1  0
  8  7  2  0
  9  5  1  0
 10  7  1  0
 11 10  1  0
 11 14  1  0
 12 13  1  0
 11 12  1  1
 14 21  1  0
 15 14  2  0
 17 16  1  0
 18 20  1  0
 18 17  1  0
 18 19  1  1
 20 22  1  0
 20 21  1  6
 22 23  2  0
 22 24  1  0
M  END
$$$$
