ECI.pdb
     RDKit          3D

 24 23  0  0  1  0  0  0  0  0999 V2000
    8.5795  -17.9485   18.6732 N   0  0  0  0  0  0  0  0  0  0  0  0
    9.1715  -18.0682   19.9875 C   0  0  1  0  0  0  0  0  0  0  0  0
   10.4631  -17.2986   19.9912 C   0  0  0  0  0  0  0  0  0  0  0  0
   11.6178  -18.0866   19.4555 C   0  0  0  0  0  0  0  0  0  0  0  0
   12.8677  -17.3364   19.6928 C   0  0  0  0  0  0  0  0  0  0  0  0
   13.5770  -17.0082   18.7148 O   0  0  0  0  0  0  0  0  0  0  0  0
    8.2796  -17.4390   21.0063 C   0  0  0  0  0  0  0  0  0  0  0  0
    7.3958  -16.5970   20.6785 O   0  0  0  0  0  0  0  0  0  0  0  0
   13.2993  -16.9734   20.9595 O   0  0  0  0  0  0  0  0  0  0  0  0
    8.3618  -17.7374   22.3839 N   0  0  0  0  0  0  0  0  0  0  0  0
    7.5155  -17.2223   23.4048 C   0  0  1  0  0  0  0  0  0  0  0  0
    6.7124  -18.2526   24.1367 C   0  0  0  0  0  0  0  0  0  0  0  0
    6.0262  -17.5699   25.6717 S   0  0  0  0  0  0  0  0  0  0  0  0
    8.2787  -16.3382   24.3231 C   0  0  0  0  0  0  0  0  0  0  0  0
    9.4453  -16.6593   24.6598 O   0  0  0  0  0  0  0  0  0  0  0  0
    5.9245  -11.7630   27.0387 C   0  0  0  0  0  0  0  0  0  0  0  0
    6.5213  -13.0760   26.6398 C   0  0  0  0  0  0  0  0  0  0  0  0
    7.8274  -12.9066   25.8941 C   0  0  2  0  0  0  0  0  0  0  0  0
    7.6010  -12.3001   24.5197 C   0  0  0  0  0  0  0  0  0  0  0  0
    8.5151  -14.2324   25.6908 C   0  0  2  0  0  0  0  0  0  0  0  0
    7.7562  -15.1334   24.8491 N   0  0  0  0  0  0  0  0  0  0  0  0
    8.8765  -14.8801   26.9767 C   0  0  0  0  0  0  0  0  0  0  0  0
    9.5898  -14.2929   27.8204 O   0  0  0  0  0  0  0  0  0  0  0  0
    8.4393  -16.1573   27.2930 O   0  0  0  0  0  0  0  0  0  0  0  0
  2  1  1  6
  3  2  1  0
  4  3  1  0
  4  5  1  0
  5  6  2  0
  7  2  1  0
  8  7  2  0
  9  5  1  0
 10  7  1  0
 11 10  1  0
 11 14  1  0
 12 13  1  0
 11 12  1  1
 14 21  1  0
 15 14  2  0
 17 16  1  0
 18 20  1  0
 18 17  1  0
 18 19  1  6
 20 22  1  0
 20 21  1  1
 22 23  2  0
 22 24  1  0
M  END
$$$$
