ECI.pdb
     RDKit          3D

 24 23  0  0  1  0  0  0  0  0999 V2000
    9.8048  -16.8892   19.4548 N   0  0  0  0  0  0  0  0  0  0  0  0
   10.4254  -17.5917   20.5563 C   0  0  1  0  0  0  0  0  0  0  0  0
   11.8924  -17.2622   20.5550 C   0  0  0  0  0  0  0  0  0  0  0  0
   12.7316  -18.3216   19.9109 C   0  0  0  0  0  0  0  0  0  0  0  0
   14.1500  -17.9129   19.9616 C   0  0  0  0  0  0  0  0  0  0  0  0
   14.4463  -16.7976   20.4470 O   0  0  0  0  0  0  0  0  0  0  0  0
    9.8645  -17.1041   21.8512 C   0  0  0  0  0  0  0  0  0  0  0  0
    9.7262  -15.8700   22.0866 O   0  0  0  0  0  0  0  0  0  0  0  0
   15.1814  -18.7124   19.4929 O   0  0  0  0  0  0  0  0  0  0  0  0
    9.4568  -17.9752   22.8850 N   0  0  0  0  0  0  0  0  0  0  0  0
    8.7838  -17.5996   24.0806 C   0  0  1  0  0  0  0  0  0  0  0  0
    7.5854  -18.4320   24.4171 C   0  0  0  0  0  0  0  0  0  0  0  0
    6.8019  -17.8520   25.9478 S   0  0  0  0  0  0  0  0  0  0  0  0
    9.7411  -17.4972   25.2121 C   0  0  0  0  0  0  0  0  0  0  0  0
   10.6521  -18.3540   25.3281 O   0  0  0  0  0  0  0  0  0  0  0  0
    9.0772  -13.9814   29.8694 C   0  0  0  0  0  0  0  0  0  0  0  0
    9.3009  -15.2399   29.0912 C   0  0  0  0  0  0  0  0  0  0  0  0
   10.4247  -15.0983   28.0873 C   0  0  2  0  0  0  0  0  0  0  0  0
   10.1398  -13.9819   27.0969 C   0  0  0  0  0  0  0  0  0  0  0  0
   10.6087  -16.3657   27.2926 C   0  0  2  0  0  0  0  0  0  0  0  0
    9.6836  -16.4706   26.1839 N   0  0  0  0  0  0  0  0  0  0  0  0
   10.5557  -17.5774   28.1486 C   0  0  0  0  0  0  0  0  0  0  0  0
   11.4347  -17.8015   29.0102 O   0  0  0  0  0  0  0  0  0  0  0  0
    9.5331  -18.5061   28.0277 O   0  0  0  0  0  0  0  0  0  0  0  0
  2  1  1  6
  3  2  1  0
  4  3  1  0
  4  5  1  0
  5  6  2  0
  7  2  1  0
  8  7  2  0
  9  5  1  0
 10  7  1  0
 11 10  1  0
 11 14  1  0
 12 13  1  0
 11 12  1  1
 14 21  1  0
 15 14  2  0
 17 16  1  0
 18 20  1  0
 18 17  1  0
 18 19  1  6
 20 22  1  0
 20 21  1  6
 22 23  2  0
 22 24  1  0
M  END
$$$$
