ECI.pdb
     RDKit          3D

 24 23  0  0  1  0  0  0  0  0999 V2000
    7.9937  -17.9535   20.2378 N   0  0  0  0  0  0  0  0  0  0  0  0
    8.4564  -18.7907   21.3226 C   0  0  1  0  0  0  0  0  0  0  0  0
    9.9331  -19.0119   21.1464 C   0  0  0  0  0  0  0  0  0  0  0  0
   10.6755  -17.7622   20.7881 C   0  0  0  0  0  0  0  0  0  0  0  0
   12.1086  -18.0802   20.6250 C   0  0  0  0  0  0  0  0  0  0  0  0
   12.7316  -18.5949   21.5812 O   0  0  0  0  0  0  0  0  0  0  0  0
    8.2678  -18.0860   22.6252 C   0  0  0  0  0  0  0  0  0  0  0  0
    8.3748  -16.8299   22.7166 O   0  0  0  0  0  0  0  0  0  0  0  0
   12.8060  -17.8342   19.4521 O   0  0  0  0  0  0  0  0  0  0  0  0
    7.9618  -18.7645   23.8251 N   0  0  0  0  0  0  0  0  0  0  0  0
    7.7178  -18.1613   25.0901 C   0  0  1  0  0  0  0  0  0  0  0  0
    6.7731  -18.9137   25.9752 C   0  0  0  0  0  0  0  0  0  0  0  0
    7.6782  -19.9712   27.1396 S   0  0  0  0  0  0  0  0  0  0  0  0
    8.9970  -17.8341   25.7713 C   0  0  0  0  0  0  0  0  0  0  0  0
   10.0473  -18.4326   25.4305 O   0  0  0  0  0  0  0  0  0  0  0  0
    9.5191  -13.3252   29.4235 C   0  0  0  0  0  0  0  0  0  0  0  0
    9.5675  -14.7722   29.0448 C   0  0  0  0  0  0  0  0  0  0  0  0
   10.3719  -15.0059   27.7842 C   0  0  2  0  0  0  0  0  0  0  0  0
    9.8051  -14.2168   26.6162 C   0  0  0  0  0  0  0  0  0  0  0  0
   10.3582  -16.4607   27.3906 C   0  0  2  0  0  0  0  0  0  0  0  0
    9.1007  -16.8692   26.8007 N   0  0  0  0  0  0  0  0  0  0  0  0
   10.7330  -17.3507   28.5181 C   0  0  0  0  0  0  0  0  0  0  0  0
   11.8801  -17.3176   29.0164 O   0  0  0  0  0  0  0  0  0  0  0  0
    9.8295  -18.2509   29.0622 O   0  0  0  0  0  0  0  0  0  0  0  0
  2  1  1  6
  3  2  1  0
  4  3  1  0
  4  5  1  0
  5  6  2  0
  7  2  1  0
  8  7  2  0
  9  5  1  0
 10  7  1  0
 11 10  1  0
 11 14  1  0
 12 13  1  0
 11 12  1  1
 14 21  1  0
 15 14  2  0
 17 16  1  0
 18 20  1  0
 18 17  1  0
 18 19  1  6
 20 22  1  0
 20 21  1  1
 22 23  2  0
 22 24  1  0
M  END
$$$$
