ECI.pdb
     RDKit          3D

 24 23  0  0  1  0  0  0  0  0999 V2000
   10.8217  -16.8397   19.7986 N   0  0  0  0  0  0  0  0  0  0  0  0
   10.5304  -17.9439   20.6861 C   0  0  1  0  0  0  0  0  0  0  0  0
   11.8161  -18.6710   20.9669 C   0  0  0  0  0  0  0  0  0  0  0  0
   13.0035  -17.7613   21.0296 C   0  0  0  0  0  0  0  0  0  0  0  0
   14.2259  -18.5720   21.2034 C   0  0  0  0  0  0  0  0  0  0  0  0
   15.3441  -18.0275   21.0606 O   0  0  0  0  0  0  0  0  0  0  0  0
   10.0212  -17.4271   21.9910 C   0  0  0  0  0  0  0  0  0  0  0  0
   10.2957  -16.2596   22.3898 O   0  0  0  0  0  0  0  0  0  0  0  0
   14.1959  -19.9215   21.5206 O   0  0  0  0  0  0  0  0  0  0  0  0
    9.2110  -18.1958   22.8550 N   0  0  0  0  0  0  0  0  0  0  0  0
    8.6226  -17.7487   24.0705 C   0  0  1  0  0  0  0  0  0  0  0  0
    7.3760  -18.4750   24.4714 C   0  0  0  0  0  0  0  0  0  0  0  0
    6.6245  -17.7133   25.9371 S   0  0  0  0  0  0  0  0  0  0  0  0
    9.6327  -17.7087   25.1592 C   0  0  0  0  0  0  0  0  0  0  0  0
   10.4808  -18.6310   25.2473 O   0  0  0  0  0  0  0  0  0  0  0  0
    9.3784  -13.8990   29.5615 C   0  0  0  0  0  0  0  0  0  0  0  0
    9.4067  -15.2011   28.8246 C   0  0  0  0  0  0  0  0  0  0  0  0
   10.6415  -15.3416   27.9606 C   0  0  2  0  0  0  0  0  0  0  0  0
   10.7160  -14.2335   26.9239 C   0  0  0  0  0  0  0  0  0  0  0  0
   10.6397  -16.6521   27.2161 C   0  0  2  0  0  0  0  0  0  0  0  0
    9.6944  -16.6718   26.1197 N   0  0  0  0  0  0  0  0  0  0  0  0
   10.4327  -17.8110   28.1205 C   0  0  0  0  0  0  0  0  0  0  0  0
    9.3980  -18.5109   28.0508 O   0  0  0  0  0  0  0  0  0  0  0  0
   11.3746  -18.1626   29.0753 O   0  0  0  0  0  0  0  0  0  0  0  0
  2  1  1  6
  3  2  1  0
  4  3  1  0
  4  5  1  0
  5  6  2  0
  7  2  1  0
  8  7  2  0
  9  5  1  0
 10  7  1  0
 11 10  1  0
 11 14  1  0
 12 13  1  0
 11 12  1  1
 14 21  1  0
 15 14  2  0
 17 16  1  0
 18 20  1  0
 18 17  1  0
 18 19  1  6
 20 22  1  0
 20 21  1  6
 22 23  2  0
 22 24  1  0
M  END
$$$$
