ECI.pdb
     RDKit          3D

 24 23  0  0  1  0  0  0  0  0999 V2000
    9.9200  -16.8977   19.7359 N   0  0  0  0  0  0  0  0  0  0  0  0
   10.3985  -17.7056   20.8361 C   0  0  1  0  0  0  0  0  0  0  0  0
   11.8906  -17.5423   20.9228 C   0  0  0  0  0  0  0  0  0  0  0  0
   12.6136  -18.1158   19.7440 C   0  0  0  0  0  0  0  0  0  0  0  0
   14.0689  -17.9736   19.9525 C   0  0  0  0  0  0  0  0  0  0  0  0
   14.8545  -18.3843   19.0684 O   0  0  0  0  0  0  0  0  0  0  0  0
    9.8242  -17.2069   22.1208 C   0  0  0  0  0  0  0  0  0  0  0  0
    9.7770  -15.9721   22.3863 O   0  0  0  0  0  0  0  0  0  0  0  0
   14.6142  -17.4012   21.0915 O   0  0  0  0  0  0  0  0  0  0  0  0
    9.3030  -18.0677   23.1114 N   0  0  0  0  0  0  0  0  0  0  0  0
    8.6871  -17.6675   24.3296 C   0  0  1  0  0  0  0  0  0  0  0  0
    7.4788  -18.4631   24.7157 C   0  0  0  0  0  0  0  0  0  0  0  0
    6.9761  -18.0935   26.4198 S   0  0  0  0  0  0  0  0  0  0  0  0
    9.6894  -17.5883   25.4234 C   0  0  0  0  0  0  0  0  0  0  0  0
   10.5380  -18.5056   25.5493 O   0  0  0  0  0  0  0  0  0  0  0  0
    9.6971  -13.3351   29.4303 C   0  0  0  0  0  0  0  0  0  0  0  0
    9.6051  -14.7109   28.8490 C   0  0  0  0  0  0  0  0  0  0  0  0
   10.8175  -15.0598   28.0128 C   0  0  2  0  0  0  0  0  0  0  0  0
   10.9790  -14.0957   26.8498 C   0  0  0  0  0  0  0  0  0  0  0  0
   10.6991  -16.4458   27.4325 C   0  0  2  0  0  0  0  0  0  0  0  0
    9.7428  -16.5187   26.3479 N   0  0  0  0  0  0  0  0  0  0  0  0
   10.4075  -17.4658   28.4709 C   0  0  0  0  0  0  0  0  0  0  0  0
   11.2185  -17.7014   29.3940 O   0  0  0  0  0  0  0  0  0  0  0  0
    9.2287  -18.1958   28.4590 O   0  0  0  0  0  0  0  0  0  0  0  0
  2  1  1  6
  3  2  1  0
  4  3  1  0
  4  5  1  0
  5  6  2  0
  7  2  1  0
  8  7  2  0
  9  5  1  0
 10  7  1  0
 11 10  1  0
 11 14  1  0
 12 13  1  0
 11 12  1  1
 14 21  1  0
 15 14  2  0
 17 16  1  0
 18 20  1  0
 18 17  1  0
 18 19  1  6
 20 22  1  0
 20 21  1  6
 22 23  2  0
 22 24  1  0
M  END
$$$$
