ECI.pdb
     RDKit          3D

 24 23  0  0  1  0  0  0  0  0999 V2000
    7.0595  -19.7073   24.9605 N   0  0  0  0  0  0  0  0  0  0  0  0
    8.4573  -19.6819   24.5898 C   0  0  1  0  0  0  0  0  0  0  0  0
    8.7004  -20.7899   23.6030 C   0  0  0  0  0  0  0  0  0  0  0  0
    7.6153  -20.9127   22.5788 C   0  0  0  0  0  0  0  0  0  0  0  0
    7.9853  -21.9593   21.6045 C   0  0  0  0  0  0  0  0  0  0  0  0
    7.2078  -22.2121   20.6564 O   0  0  0  0  0  0  0  0  0  0  0  0
    8.7773  -18.3975   23.8993 C   0  0  0  0  0  0  0  0  0  0  0  0
    9.9414  -18.1501   23.4737 O   0  0  0  0  0  0  0  0  0  0  0  0
    9.1645  -22.6838   21.6888 O   0  0  0  0  0  0  0  0  0  0  0  0
    7.8158  -17.3874   23.6780 N   0  0  0  0  0  0  0  0  0  0  0  0
    8.0610  -16.1076   23.1074 C   0  0  1  0  0  0  0  0  0  0  0  0
    6.9360  -15.5581   22.2860 C   0  0  0  0  0  0  0  0  0  0  0  0
    7.4599  -14.0777   21.3764 S   0  0  0  0  0  0  0  0  0  0  0  0
    8.5284  -15.1513   24.1439 C   0  0  0  0  0  0  0  0  0  0  0  0
    8.7028  -13.9461   23.8367 O   0  0  0  0  0  0  0  0  0  0  0  0
    6.4046  -12.0135   26.1133 C   0  0  0  0  0  0  0  0  0  0  0  0
    7.5279  -12.9249   25.7301 C   0  0  0  0  0  0  0  0  0  0  0  0
    8.1003  -13.6587   26.9237 C   0  0  2  0  0  0  0  0  0  0  0  0
    8.6865  -12.6891   27.9359 C   0  0  0  0  0  0  0  0  0  0  0  0
    9.2057  -14.5956   26.5090 C   0  0  2  0  0  0  0  0  0  0  0  0
    8.7929  -15.5284   25.4816 N   0  0  0  0  0  0  0  0  0  0  0  0
    9.8024  -15.3070   27.6673 C   0  0  0  0  0  0  0  0  0  0  0  0
    9.4578  -16.4737   27.9592 O   0  0  0  0  0  0  0  0  0  0  0  0
   10.7624  -14.7086   28.4692 O   0  0  0  0  0  0  0  0  0  0  0  0
  2  1  1  6
  3  2  1  0
  4  3  1  0
  4  5  1  0
  5  6  2  0
  7  2  1  0
  8  7  2  0
  9  5  1  0
 10  7  1  0
 11 10  1  0
 11 14  1  0
 12 13  1  0
 11 12  1  1
 14 21  1  0
 15 14  2  0
 17 16  1  0
 18 20  1  0
 18 17  1  0
 18 19  1  1
 20 22  1  0
 20 21  1  6
 22 23  2  0
 22 24  1  0
M  END
$$$$
