ECI.pdb
     RDKit          3D

 24 23  0  0  1  0  0  0  0  0999 V2000
    8.7109  -18.0182   18.8365 N   0  0  0  0  0  0  0  0  0  0  0  0
    9.4256  -18.0076   20.0939 C   0  0  1  0  0  0  0  0  0  0  0  0
   10.5732  -17.0439   19.9722 C   0  0  0  0  0  0  0  0  0  0  0  0
   11.5194  -17.3942   18.8661 C   0  0  0  0  0  0  0  0  0  0  0  0
   12.7118  -18.0512   19.4389 C   0  0  0  0  0  0  0  0  0  0  0  0
   13.0222  -19.1994   19.0480 O   0  0  0  0  0  0  0  0  0  0  0  0
    8.5361  -17.5002   21.1803 C   0  0  0  0  0  0  0  0  0  0  0  0
    7.8069  -16.4814   21.0132 O   0  0  0  0  0  0  0  0  0  0  0  0
   13.5135  -17.4527   20.3989 O   0  0  0  0  0  0  0  0  0  0  0  0
    8.4506  -18.1144   22.4488 N   0  0  0  0  0  0  0  0  0  0  0  0
    7.6422  -17.6819   23.5365 C   0  0  1  0  0  0  0  0  0  0  0  0
    6.9160  -18.7762   24.2559 C   0  0  0  0  0  0  0  0  0  0  0  0
    6.2017  -18.1684   25.8094 S   0  0  0  0  0  0  0  0  0  0  0  0
    8.4214  -16.8150   24.4577 C   0  0  0  0  0  0  0  0  0  0  0  0
    9.6335  -17.0697   24.6660 O   0  0  0  0  0  0  0  0  0  0  0  0
    6.1604  -11.9128   25.9042 C   0  0  0  0  0  0  0  0  0  0  0  0
    7.1771  -12.8922   25.4077 C   0  0  0  0  0  0  0  0  0  0  0  0
    7.8068  -13.6822   26.5347 C   0  0  2  0  0  0  0  0  0  0  0  0
    8.7375  -12.8125   27.3626 C   0  0  0  0  0  0  0  0  0  0  0  0
    8.6231  -14.8329   26.0042 C   0  0  2  0  0  0  0  0  0  0  0  0
    7.8652  -15.6987   25.1255 N   0  0  0  0  0  0  0  0  0  0  0  0
    9.2703  -15.6098   27.0910 C   0  0  0  0  0  0  0  0  0  0  0  0
    8.6954  -16.5867   27.6206 O   0  0  0  0  0  0  0  0  0  0  0  0
   10.5337  -15.2848   27.5610 O   0  0  0  0  0  0  0  0  0  0  0  0
  2  1  1  6
  3  2  1  0
  4  3  1  0
  4  5  1  0
  5  6  2  0
  7  2  1  0
  8  7  2  0
  9  5  1  0
 10  7  1  0
 11 10  1  0
 11 14  1  0
 12 13  1  0
 11 12  1  1
 14 21  1  0
 15 14  2  0
 17 16  1  0
 18 20  1  0
 18 17  1  0
 18 19  1  6
 20 22  1  0
 20 21  1  1
 22 23  2  0
 22 24  1  0
M  END
$$$$
