ECI.pdb
     RDKit          3D

 24 23  0  0  1  0  0  0  0  0999 V2000
    9.5595  -18.7013   19.6758 N   0  0  0  0  0  0  0  0  0  0  0  0
   10.0843  -17.9202   20.7741 C   0  0  1  0  0  0  0  0  0  0  0  0
   11.3882  -17.3131   20.3362 C   0  0  0  0  0  0  0  0  0  0  0  0
   12.5101  -18.3033   20.2880 C   0  0  0  0  0  0  0  0  0  0  0  0
   13.7367  -17.6230   19.8253 C   0  0  0  0  0  0  0  0  0  0  0  0
   13.8260  -17.2760   18.6257 O   0  0  0  0  0  0  0  0  0  0  0  0
    9.1556  -16.7937   21.0865 C   0  0  0  0  0  0  0  0  0  0  0  0
    8.5580  -16.1590   20.1713 O   0  0  0  0  0  0  0  0  0  0  0  0
   14.8064  -17.3465   20.6632 O   0  0  0  0  0  0  0  0  0  0  0  0
    8.8860  -16.3673   22.4054 N   0  0  0  0  0  0  0  0  0  0  0  0
    7.7567  -16.7322   23.1896 C   0  0  1  0  0  0  0  0  0  0  0  0
    7.4247  -18.1922   23.1750 C   0  0  0  0  0  0  0  0  0  0  0  0
    6.0814  -18.5636   24.3373 S   0  0  0  0  0  0  0  0  0  0  0  0
    7.8771  -16.1900   24.5676 C   0  0  0  0  0  0  0  0  0  0  0  0
    7.0285  -16.5157   25.4344 O   0  0  0  0  0  0  0  0  0  0  0  0
    6.1784  -12.4466   26.1736 C   0  0  0  0  0  0  0  0  0  0  0  0
    7.2795  -13.3402   25.6954 C   0  0  0  0  0  0  0  0  0  0  0  0
    8.0297  -13.9850   26.8409 C   0  0  2  0  0  0  0  0  0  0  0  0
    8.6850  -12.9391   27.7269 C   0  0  0  0  0  0  0  0  0  0  0  0
    9.1224  -14.8917   26.3353 C   0  0  2  0  0  0  0  0  0  0  0  0
    8.9123  -15.3118   24.9658 N   0  0  0  0  0  0  0  0  0  0  0  0
    9.3385  -16.0602   27.2250 C   0  0  0  0  0  0  0  0  0  0  0  0
    8.8608  -17.1829   26.9482 O   0  0  0  0  0  0  0  0  0  0  0  0
   10.0759  -15.9543   28.3945 O   0  0  0  0  0  0  0  0  0  0  0  0
  2  1  1  6
  3  2  1  0
  4  3  1  0
  4  5  1  0
  5  6  2  0
  7  2  1  0
  8  7  2  0
  9  5  1  0
 10  7  1  0
 11 10  1  0
 11 14  1  0
 12 13  1  0
 11 12  1  1
 14 21  1  0
 15 14  2  0
 17 16  1  0
 18 20  1  0
 18 17  1  0
 18 19  1  1
 20 22  1  0
 20 21  1  6
 22 23  2  0
 22 24  1  0
M  END
$$$$
