ECI.pdb
     RDKit          3D

 24 23  0  0  1  0  0  0  0  0999 V2000
   10.1280  -17.2303   19.3440 N   0  0  0  0  0  0  0  0  0  0  0  0
   10.3534  -17.9846   20.5573 C   0  0  1  0  0  0  0  0  0  0  0  0
   11.8326  -18.2151   20.6975 C   0  0  0  0  0  0  0  0  0  0  0  0
   12.5691  -18.1093   19.3984 C   0  0  0  0  0  0  0  0  0  0  0  0
   14.0117  -18.3124   19.6419 C   0  0  0  0  0  0  0  0  0  0  0  0
   14.8213  -18.1167   18.7071 O   0  0  0  0  0  0  0  0  0  0  0  0
    9.9168  -17.1863   21.7410 C   0  0  0  0  0  0  0  0  0  0  0  0
    9.9828  -15.9241   21.7456 O   0  0  0  0  0  0  0  0  0  0  0  0
   14.5195  -18.7136   20.8681 O   0  0  0  0  0  0  0  0  0  0  0  0
    9.4082  -17.7782   22.9178 N   0  0  0  0  0  0  0  0  0  0  0  0
    8.8490  -17.0879   24.0288 C   0  0  1  0  0  0  0  0  0  0  0  0
    7.4601  -17.5089   24.3978 C   0  0  0  0  0  0  0  0  0  0  0  0
    7.3428  -19.3151   24.5277 S   0  0  0  0  0  0  0  0  0  0  0  0
    9.7788  -17.1168   25.1872 C   0  0  0  0  0  0  0  0  0  0  0  0
   10.7266  -17.9409   25.1963 O   0  0  0  0  0  0  0  0  0  0  0  0
    9.2988  -13.4992   29.7549 C   0  0  0  0  0  0  0  0  0  0  0  0
    9.2913  -14.7920   29.0013 C   0  0  0  0  0  0  0  0  0  0  0  0
   10.5663  -15.0008   28.2129 C   0  0  2  0  0  0  0  0  0  0  0  0
   10.7726  -13.8899   27.1971 C   0  0  0  0  0  0  0  0  0  0  0  0
   10.5304  -16.3017   27.4525 C   0  0  2  0  0  0  0  0  0  0  0  0
    9.6547  -16.2529   26.3006 N   0  0  0  0  0  0  0  0  0  0  0  0
   10.1978  -17.4539   28.3275 C   0  0  0  0  0  0  0  0  0  0  0  0
   10.9686  -17.8155   29.2443 O   0  0  0  0  0  0  0  0  0  0  0  0
    9.0236  -18.1730   28.1640 O   0  0  0  0  0  0  0  0  0  0  0  0
  2  1  1  6
  3  2  1  0
  4  3  1  0
  4  5  1  0
  5  6  2  0
  7  2  1  0
  8  7  2  0
  9  5  1  0
 10  7  1  0
 11 10  1  0
 11 14  1  0
 12 13  1  0
 11 12  1  1
 14 21  1  0
 15 14  2  0
 17 16  1  0
 18 20  1  0
 18 17  1  0
 18 19  1  6
 20 22  1  0
 20 21  1  6
 22 23  2  0
 22 24  1  0
M  END
$$$$
