ECI.pdb
     RDKit          3D

 24 23  0  0  1  0  0  0  0  0999 V2000
    9.7969  -19.0747   18.7395 N   0  0  0  0  0  0  0  0  0  0  0  0
   10.2007  -18.7933   20.0995 C   0  0  1  0  0  0  0  0  0  0  0  0
   11.4899  -18.0210   20.0550 C   0  0  0  0  0  0  0  0  0  0  0  0
   12.2760  -18.2621   18.8039 C   0  0  0  0  0  0  0  0  0  0  0  0
   13.5662  -17.5493   18.8979 C   0  0  0  0  0  0  0  0  0  0  0  0
   14.5441  -18.1254   19.4264 O   0  0  0  0  0  0  0  0  0  0  0  0
    9.1859  -17.9207   20.7612 C   0  0  0  0  0  0  0  0  0  0  0  0
    8.4159  -17.1779   20.0881 O   0  0  0  0  0  0  0  0  0  0  0  0
   13.7502  -16.2592   18.4244 O   0  0  0  0  0  0  0  0  0  0  0  0
    9.0199  -17.8668   22.1624 N   0  0  0  0  0  0  0  0  0  0  0  0
    7.9360  -17.2593   22.8550 C   0  0  1  0  0  0  0  0  0  0  0  0
    6.8816  -18.2094   23.3322 C   0  0  0  0  0  0  0  0  0  0  0  0
    6.4415  -17.8751   25.0607 S   0  0  0  0  0  0  0  0  0  0  0  0
    8.4356  -16.3733   23.9380 C   0  0  0  0  0  0  0  0  0  0  0  0
    9.5149  -16.6544   24.5155 O   0  0  0  0  0  0  0  0  0  0  0  0
    7.1009  -10.9858   26.8746 C   0  0  0  0  0  0  0  0  0  0  0  0
    7.9303  -12.2165   26.6826 C   0  0  0  0  0  0  0  0  0  0  0  0
    7.3734  -13.1176   25.6016 C   0  0  2  0  0  0  0  0  0  0  0  0
    5.9644  -13.5750   25.9391 C   0  0  0  0  0  0  0  0  0  0  0  0
    8.2178  -14.3548   25.4344 C   0  0  2  0  0  0  0  0  0  0  0  0
    7.7519  -15.2100   24.3631 N   0  0  0  0  0  0  0  0  0  0  0  0
    8.3570  -15.1147   26.7020 C   0  0  0  0  0  0  0  0  0  0  0  0
    7.6223  -16.0956   26.9539 O   0  0  0  0  0  0  0  0  0  0  0  0
    9.3036  -14.7687   27.6543 O   0  0  0  0  0  0  0  0  0  0  0  0
  2  1  1  6
  3  2  1  0
  4  3  1  0
  4  5  1  0
  5  6  2  0
  7  2  1  0
  8  7  2  0
  9  5  1  0
 10  7  1  0
 11 10  1  0
 11 14  1  0
 12 13  1  0
 11 12  1  1
 14 21  1  0
 15 14  2  0
 17 16  1  0
 18 20  1  0
 18 17  1  0
 18 19  1  1
 20 22  1  0
 20 21  1  6
 22 23  2  0
 22 24  1  0
M  END
$$$$
