ECI.pdb
     RDKit          3D

 24 23  0  0  1  0  0  0  0  0999 V2000
   10.1000  -19.1979   20.0712 N   0  0  0  0  0  0  0  0  0  0  0  0
   10.0428  -18.6881   21.4235 C   0  0  1  0  0  0  0  0  0  0  0  0
   11.3955  -18.8759   22.0525 C   0  0  0  0  0  0  0  0  0  0  0  0
   12.4302  -19.3620   21.0858 C   0  0  0  0  0  0  0  0  0  0  0  0
   13.7163  -18.6972   21.3781 C   0  0  0  0  0  0  0  0  0  0  0  0
   14.1973  -17.9035   20.5378 O   0  0  0  0  0  0  0  0  0  0  0  0
    9.7653  -17.2213   21.4029 C   0  0  0  0  0  0  0  0  0  0  0  0
   10.6306  -16.3923   21.0010 O   0  0  0  0  0  0  0  0  0  0  0  0
   14.4253  -18.9108   22.5504 O   0  0  0  0  0  0  0  0  0  0  0  0
    8.5361  -16.6689   21.8245 N   0  0  0  0  0  0  0  0  0  0  0  0
    8.1772  -15.2931   21.7822 C   0  0  1  0  0  0  0  0  0  0  0  0
    6.8207  -15.0131   21.2132 C   0  0  0  0  0  0  0  0  0  0  0  0
    5.6883  -16.3964   21.5249 S   0  0  0  0  0  0  0  0  0  0  0  0
    8.3799  -14.6565   23.1092 C   0  0  0  0  0  0  0  0  0  0  0  0
    8.4241  -13.4041   23.1917 O   0  0  0  0  0  0  0  0  0  0  0  0
    6.5156  -11.6928   25.6743 C   0  0  0  0  0  0  0  0  0  0  0  0
    7.5853  -12.6291   25.2069 C   0  0  0  0  0  0  0  0  0  0  0  0
    7.6454  -13.8900   26.0421 C   0  0  2  0  0  0  0  0  0  0  0  0
    7.8768  -13.5674   27.5086 C   0  0  0  0  0  0  0  0  0  0  0  0
    8.7733  -14.7854   25.5972 C   0  0  2  0  0  0  0  0  0  0  0  0
    8.5286  -15.3948   24.3069 N   0  0  0  0  0  0  0  0  0  0  0  0
    9.1113  -15.8105   26.6163 C   0  0  0  0  0  0  0  0  0  0  0  0
    8.9057  -17.0265   26.4056 O   0  0  0  0  0  0  0  0  0  0  0  0
    9.6664  -15.4623   27.8383 O   0  0  0  0  0  0  0  0  0  0  0  0
  2  1  1  6
  3  2  1  0
  4  3  1  0
  4  5  1  0
  5  6  2  0
  7  2  1  0
  8  7  2  0
  9  5  1  0
 10  7  1  0
 11 10  1  0
 11 14  1  0
 12 13  1  0
 11 12  1  1
 14 21  1  0
 15 14  2  0
 17 16  1  0
 18 20  1  0
 18 17  1  0
 18 19  1  1
 20 22  1  0
 20 21  1  6
 22 23  2  0
 22 24  1  0
M  END
$$$$
