ECI.pdb
     RDKit          3D

 24 23  0  0  1  0  0  0  0  0999 V2000
    9.5407  -16.5739   18.5927 N   0  0  0  0  0  0  0  0  0  0  0  0
    9.9075  -17.1998   19.8440 C   0  0  1  0  0  0  0  0  0  0  0  0
   11.3193  -16.7997   20.1716 C   0  0  0  0  0  0  0  0  0  0  0  0
   11.6547  -15.4108   19.7249 C   0  0  0  0  0  0  0  0  0  0  0  0
   13.0605  -15.1173   20.0703 C   0  0  0  0  0  0  0  0  0  0  0  0
   13.3745  -14.9680   21.2730 O   0  0  0  0  0  0  0  0  0  0  0  0
    9.0369  -16.6876   20.9434 C   0  0  0  0  0  0  0  0  0  0  0  0
    8.6259  -15.4924   20.9563 O   0  0  0  0  0  0  0  0  0  0  0  0
   14.0610  -14.9977   19.1178 O   0  0  0  0  0  0  0  0  0  0  0  0
    8.6200  -17.4913   22.0270 N   0  0  0  0  0  0  0  0  0  0  0  0
    7.7298  -17.1013   23.0657 C   0  0  1  0  0  0  0  0  0  0  0  0
    6.8366  -18.1911   23.5723 C   0  0  0  0  0  0  0  0  0  0  0  0
    5.8964  -17.6378   25.0224 S   0  0  0  0  0  0  0  0  0  0  0  0
    8.4665  -16.4155   24.1586 C   0  0  0  0  0  0  0  0  0  0  0  0
    9.5349  -16.9154   24.5899 O   0  0  0  0  0  0  0  0  0  0  0  0
    6.3039  -11.7546   26.8785 C   0  0  0  0  0  0  0  0  0  0  0  0
    6.7596  -13.1378   26.5338 C   0  0  0  0  0  0  0  0  0  0  0  0
    8.2149  -13.1729   26.1196 C   0  0  2  0  0  0  0  0  0  0  0  0
    8.4382  -12.4017   24.8298 C   0  0  0  0  0  0  0  0  0  0  0  0
    8.6802  -14.5867   25.8823 C   0  0  2  0  0  0  0  0  0  0  0  0
    8.0245  -15.2095   24.7517 N   0  0  0  0  0  0  0  0  0  0  0  0
    8.5605  -15.4286   27.0991 C   0  0  0  0  0  0  0  0  0  0  0  0
    7.7449  -16.3757   27.1545 O   0  0  0  0  0  0  0  0  0  0  0  0
    9.3453  -15.1995   28.2191 O   0  0  0  0  0  0  0  0  0  0  0  0
  2  1  1  6
  3  2  1  0
  4  3  1  0
  4  5  1  0
  5  6  2  0
  7  2  1  0
  8  7  2  0
  9  5  1  0
 10  7  1  0
 11 10  1  0
 11 14  1  0
 12 13  1  0
 11 12  1  1
 14 21  1  0
 15 14  2  0
 17 16  1  0
 18 20  1  0
 18 17  1  0
 18 19  1  6
 20 22  1  0
 20 21  1  6
 22 23  2  0
 22 24  1  0
M  END
$$$$
