ECI.pdb
     RDKit          3D

 24 23  0  0  1  0  0  0  0  0999 V2000
    8.4112  -17.9400   18.9314 N   0  0  0  0  0  0  0  0  0  0  0  0
    9.0298  -18.1423   20.2230 C   0  0  1  0  0  0  0  0  0  0  0  0
   10.4042  -17.5338   20.1846 C   0  0  0  0  0  0  0  0  0  0  0  0
   11.4566  -18.4894   19.7149 C   0  0  0  0  0  0  0  0  0  0  0  0
   12.7870  -17.8776   19.9078 C   0  0  0  0  0  0  0  0  0  0  0  0
   12.8619  -16.7038   20.3367 O   0  0  0  0  0  0  0  0  0  0  0  0
    8.2564  -17.4200   21.2762 C   0  0  0  0  0  0  0  0  0  0  0  0
    7.6305  -16.3526   21.0189 O   0  0  0  0  0  0  0  0  0  0  0  0
   13.9704  -18.5464   19.6343 O   0  0  0  0  0  0  0  0  0  0  0  0
    8.1730  -17.8735   22.6108 N   0  0  0  0  0  0  0  0  0  0  0  0
    7.3515  -17.3227   23.6332 C   0  0  1  0  0  0  0  0  0  0  0  0
    6.5429  -18.3235   24.3992 C   0  0  0  0  0  0  0  0  0  0  0  0
    7.5650  -19.1753   25.6332 S   0  0  0  0  0  0  0  0  0  0  0  0
    8.1434  -16.4323   24.5205 C   0  0  0  0  0  0  0  0  0  0  0  0
    9.3817  -16.6124   24.6279 O   0  0  0  0  0  0  0  0  0  0  0  0
    5.5897  -11.9039   26.4640 C   0  0  0  0  0  0  0  0  0  0  0  0
    6.6871  -12.7051   25.8369 C   0  0  0  0  0  0  0  0  0  0  0  0
    7.4679  -13.5025   26.8592 C   0  0  2  0  0  0  0  0  0  0  0  0
    8.3993  -12.6079   27.6596 C   0  0  0  0  0  0  0  0  0  0  0  0
    8.3186  -14.5551   26.1957 C   0  0  2  0  0  0  0  0  0  0  0  0
    7.5711  -15.3740   25.2648 N   0  0  0  0  0  0  0  0  0  0  0  0
    9.0435  -15.3946   27.1824 C   0  0  0  0  0  0  0  0  0  0  0  0
    8.5294  -16.4347   27.6505 O   0  0  0  0  0  0  0  0  0  0  0  0
   10.3151  -15.0605   27.6229 O   0  0  0  0  0  0  0  0  0  0  0  0
  2  1  1  6
  3  2  1  0
  4  3  1  0
  4  5  1  0
  5  6  2  0
  7  2  1  0
  8  7  2  0
  9  5  1  0
 10  7  1  0
 11 10  1  0
 11 14  1  0
 12 13  1  0
 11 12  1  1
 14 21  1  0
 15 14  2  0
 17 16  1  0
 18 20  1  0
 18 17  1  0
 18 19  1  6
 20 22  1  0
 20 21  1  1
 22 23  2  0
 22 24  1  0
M  END
$$$$
