AKH.pdb
     RDKit          3D

 25 25  0  0  1  0  0  0  0  0999 V2000
   15.8232  -17.5437   15.3771 C   0  0  0  0  0  0  0  0  0  0  0  0
   14.3547  -17.3976   15.0411 C   0  0  2  0  0  0  0  0  0  0  0  0
   14.1977  -16.3266   14.0969 N   0  0  0  0  0  0  0  0  0  0  0  0
   13.6188  -17.1159   16.3035 C   0  0  0  0  0  0  0  0  0  0  0  0
   13.6719  -15.9678   16.7960 O   0  0  0  0  0  0  0  0  0  0  0  0
   12.8651  -18.1163   16.9527 N   0  0  0  0  0  0  0  0  0  0  0  0
   12.0340  -17.7135   18.1031 C   0  0  1  0  0  0  0  0  0  0  0  0
   11.0655  -18.8598   18.3743 C   0  0  0  0  0  0  0  0  0  0  0  0
   10.0817  -18.4656   19.4115 C   0  0  0  0  0  0  0  0  0  0  0  0
    9.0653  -19.6006   19.6010 C   0  0  0  0  0  0  0  0  0  0  0  0
    8.0163  -19.1296   20.5651 C   0  0  0  0  0  0  0  0  0  0  0  0
    6.9652  -20.1407   20.6425 N   0  0  0  0  0  0  0  0  0  0  0  0
   12.8781  -17.4745   19.2736 C   0  0  0  0  0  0  0  0  0  0  0  0
   13.8895  -18.1922   19.5593 O   0  0  0  0  0  0  0  0  0  0  0  0
   12.6156  -16.4178   20.1536 N   0  0  0  0  0  0  0  0  0  0  0  0
   13.4593  -16.1827   21.3089 C   0  0  1  0  0  0  0  0  0  0  0  0
   13.7704  -14.7021   21.2681 C   0  0  0  0  0  0  0  0  0  0  0  0
   14.6120  -14.3224   20.1398 C   0  0  0  0  0  0  0  0  0  0  0  0
   15.9903  -14.4376   20.1100 C   0  0  0  0  0  0  0  0  0  0  0  0
   16.3819  -13.9870   18.9096 N   0  0  0  0  0  0  0  0  0  0  0  0
   15.2853  -13.6100   18.2293 C   0  0  0  0  0  0  0  0  0  0  0  0
   14.1854  -13.8108   18.9750 N   0  0  0  0  0  0  0  0  0  0  0  0
   12.8487  -16.5198   22.5803 C   0  0  0  0  0  0  0  0  0  0  0  0
   13.5463  -16.3932   23.6198 O   0  0  0  0  0  0  0  0  0  0  0  0
   11.5516  -16.9765   22.7835 O   0  0  0  0  0  0  0  0  0  0  0  0
  2  1  1  1
  2  4  1  0
  3  2  1  0
  4  6  1  0
  4  5  2  0
  6  7  1  0
  7 13  1  0
  7  8  1  1
  8  9  1  0
 10  9  1  0
 10 11  1  0
 11 12  1  0
 13 14  2  0
 15 13  1  0
 15 16  1  0
 16 23  1  0
 16 17  1  1
 18 17  1  0
 19 18  2  0
 20 19  1  0
 21 20  1  0
 21 22  2  0
 22 18  1  0
 23 25  1  0
 24 23  2  0
M  END
$$$$
