AKH.pdb
     RDKit          3D

 25 25  0  0  1  0  0  0  0  0999 V2000
   12.1329  -17.8148   16.6104 C   0  0  0  0  0  0  0  0  0  0  0  0
   11.7788  -18.4713   17.9274 C   0  0  2  0  0  0  0  0  0  0  0  0
   10.4266  -18.9508   17.8595 N   0  0  0  0  0  0  0  0  0  0  0  0
   11.9382  -17.4577   19.0052 C   0  0  0  0  0  0  0  0  0  0  0  0
   13.0849  -17.0514   19.2942 O   0  0  0  0  0  0  0  0  0  0  0  0
   10.8239  -16.9482   19.7045 N   0  0  0  0  0  0  0  0  0  0  0  0
   11.0699  -15.9263   20.7398 C   0  0  1  0  0  0  0  0  0  0  0  0
    9.7871  -15.1127   20.8744 C   0  0  0  0  0  0  0  0  0  0  0  0
    9.4013  -14.5422   19.5612 C   0  0  0  0  0  0  0  0  0  0  0  0
    8.0918  -13.7561   19.7171 C   0  0  0  0  0  0  0  0  0  0  0  0
    7.6916  -13.2459   18.3638 C   0  0  0  0  0  0  0  0  0  0  0  0
    6.4566  -12.4782   18.5005 N   0  0  0  0  0  0  0  0  0  0  0  0
   11.3993  -16.5689   22.0118 C   0  0  0  0  0  0  0  0  0  0  0  0
   10.8675  -17.6588   22.3982 O   0  0  0  0  0  0  0  0  0  0  0  0
   12.3411  -16.0105   22.8841 N   0  0  0  0  0  0  0  0  0  0  0  0
   12.7755  -16.7246   24.0688 C   0  0  1  0  0  0  0  0  0  0  0  0
   13.3891  -18.0059   23.5469 C   0  0  0  0  0  0  0  0  0  0  0  0
   12.4861  -19.1481   23.6221 C   0  0  0  0  0  0  0  0  0  0  0  0
   11.4645  -19.4062   22.7255 C   0  0  0  0  0  0  0  0  0  0  0  0
   10.8744  -20.5366   23.1394 N   0  0  0  0  0  0  0  0  0  0  0  0
   11.5101  -20.9555   24.2476 C   0  0  0  0  0  0  0  0  0  0  0  0
   12.5069  -20.1093   24.5580 N   0  0  0  0  0  0  0  0  0  0  0  0
   13.7438  -16.0133   24.8807 C   0  0  0  0  0  0  0  0  0  0  0  0
   14.4224  -15.1084   24.3292 O   0  0  0  0  0  0  0  0  0  0  0  0
   14.0119  -16.2234   26.2283 O   0  0  0  0  0  0  0  0  0  0  0  0
  2  1  1  6
  2  4  1  0
  3  2  1  0
  4  6  1  0
  4  5  2  0
  6  7  1  0
  7 13  1  0
  7  8  1  1
  8  9  1  0
 10  9  1  0
 10 11  1  0
 11 12  1  0
 13 14  2  0
 15 13  1  0
 15 16  1  0
 16 23  1  0
 16 17  1  6
 18 17  1  0
 19 18  2  0
 20 19  1  0
 21 20  1  0
 21 22  2  0
 22 18  1  0
 23 25  1  0
 24 23  2  0
M  END
$$$$
