AKH.pdb
     RDKit          3D

 25 25  0  0  1  0  0  0  0  0999 V2000
    9.2199  -14.8011   17.3407 C   0  0  0  0  0  0  0  0  0  0  0  0
    8.0448  -14.2382   18.1109 C   0  0  2  0  0  0  0  0  0  0  0  0
    8.0079  -12.8141   17.9281 N   0  0  0  0  0  0  0  0  0  0  0  0
    8.2209  -14.5936   19.5451 C   0  0  0  0  0  0  0  0  0  0  0  0
    8.8829  -13.8325   20.2841 O   0  0  0  0  0  0  0  0  0  0  0  0
    7.6571  -15.7688   20.0849 N   0  0  0  0  0  0  0  0  0  0  0  0
    8.0025  -16.1218   21.4751 C   0  0  1  0  0  0  0  0  0  0  0  0
    7.0053  -17.1844   21.9244 C   0  0  0  0  0  0  0  0  0  0  0  0
    5.6903  -16.9604   21.2766 C   0  0  0  0  0  0  0  0  0  0  0  0
    4.7675  -18.1485   21.5827 C   0  0  0  0  0  0  0  0  0  0  0  0
    3.4998  -17.9665   20.8005 C   0  0  0  0  0  0  0  0  0  0  0  0
    2.6454  -19.1310   21.0182 N   0  0  0  0  0  0  0  0  0  0  0  0
    9.3662  -16.6473   21.5360 C   0  0  0  0  0  0  0  0  0  0  0  0
   10.0386  -16.9572   20.5008 O   0  0  0  0  0  0  0  0  0  0  0  0
   10.0178  -16.8333   22.7610 N   0  0  0  0  0  0  0  0  0  0  0  0
   11.4605  -16.7306   22.8612 C   0  0  1  0  0  0  0  0  0  0  0  0
   11.7678  -15.2777   22.5692 C   0  0  0  0  0  0  0  0  0  0  0  0
   12.3050  -15.0614   21.2312 C   0  0  0  0  0  0  0  0  0  0  0  0
   12.4310  -16.0423   20.2638 C   0  0  0  0  0  0  0  0  0  0  0  0
   12.9611  -15.4455   19.1866 N   0  0  0  0  0  0  0  0  0  0  0  0
   13.1528  -14.1482   19.4825 C   0  0  0  0  0  0  0  0  0  0  0  0
   12.7529  -13.8956   20.7404 N   0  0  0  0  0  0  0  0  0  0  0  0
   12.0027  -17.0951   24.1557 C   0  0  0  0  0  0  0  0  0  0  0  0
   11.2567  -16.9721   25.1617 O   0  0  0  0  0  0  0  0  0  0  0  0
   13.2810  -17.5754   24.4154 O   0  0  0  0  0  0  0  0  0  0  0  0
  2  1  1  6
  2  4  1  0
  3  2  1  0
  4  6  1  0
  4  5  2  0
  6  7  1  0
  7 13  1  0
  7  8  1  6
  8  9  1  0
 10  9  1  0
 10 11  1  0
 11 12  1  0
 13 14  2  0
 15 13  1  0
 15 16  1  0
 16 23  1  0
 16 17  1  1
 18 17  1  0
 19 18  2  0
 20 19  1  0
 21 20  1  0
 21 22  2  0
 22 18  1  0
 23 25  1  0
 24 23  2  0
M  END
$$$$
