AKH.pdb
     RDKit          3D

 25 25  0  0  1  0  0  0  0  0999 V2000
    9.9703  -18.2632   19.2959 C   0  0  0  0  0  0  0  0  0  0  0  0
    9.7090  -18.2559   20.7867 C   0  0  2  0  0  0  0  0  0  0  0  0
    8.3678  -18.7106   21.0262 N   0  0  0  0  0  0  0  0  0  0  0  0
    9.9041  -16.8663   21.2820 C   0  0  0  0  0  0  0  0  0  0  0  0
   11.0476  -16.3617   21.2454 O   0  0  0  0  0  0  0  0  0  0  0  0
    8.8270  -16.1101   21.7903 N   0  0  0  0  0  0  0  0  0  0  0  0
    9.0967  -14.7192   22.2017 C   0  0  1  0  0  0  0  0  0  0  0  0
    7.9641  -13.8637   21.6442 C   0  0  0  0  0  0  0  0  0  0  0  0
    7.6080  -14.3121   20.2764 C   0  0  0  0  0  0  0  0  0  0  0  0
    8.2397  -13.3590   19.2518 C   0  0  0  0  0  0  0  0  0  0  0  0
    7.7481  -13.7492   17.8887 C   0  0  0  0  0  0  0  0  0  0  0  0
    8.2834  -12.8051   16.9113 N   0  0  0  0  0  0  0  0  0  0  0  0
    9.1330  -14.6250   23.6610 C   0  0  0  0  0  0  0  0  0  0  0  0
    8.9070  -13.5438   24.2934 O   0  0  0  0  0  0  0  0  0  0  0  0
    9.4168  -15.7437   24.4533 N   0  0  0  0  0  0  0  0  0  0  0  0
    9.2355  -15.7042   25.8912 C   0  0  1  0  0  0  0  0  0  0  0  0
    7.7356  -15.7001   26.0937 C   0  0  0  0  0  0  0  0  0  0  0  0
    7.1996  -14.3778   26.3933 C   0  0  0  0  0  0  0  0  0  0  0  0
    7.9614  -13.2320   26.5371 C   0  0  0  0  0  0  0  0  0  0  0  0
    7.1028  -12.2379   26.8054 N   0  0  0  0  0  0  0  0  0  0  0  0
    5.8618  -12.7547   26.8252 C   0  0  0  0  0  0  0  0  0  0  0  0
    5.9050  -14.0739   26.5727 N   0  0  0  0  0  0  0  0  0  0  0  0
    9.8227  -16.8221   26.6041 C   0  0  0  0  0  0  0  0  0  0  0  0
    9.7561  -16.8187   27.8606 O   0  0  0  0  0  0  0  0  0  0  0  0
   10.4644  -17.9202   26.0430 O   0  0  0  0  0  0  0  0  0  0  0  0
  2  1  1  6
  2  4  1  0
  3  2  1  0
  4  6  1  0
  4  5  2  0
  6  7  1  0
  7 13  1  0
  7  8  1  1
  8  9  1  0
 10  9  1  0
 10 11  1  0
 11 12  1  0
 13 14  2  0
 15 13  1  0
 15 16  1  0
 16 23  1  0
 16 17  1  6
 18 17  1  0
 19 18  2  0
 20 19  1  0
 21 20  1  0
 21 22  2  0
 22 18  1  0
 23 25  1  0
 24 23  2  0
M  END
$$$$
