AKH.pdb
     RDKit          3D

 25 25  0  0  1  0  0  0  0  0999 V2000
    5.0331  -20.8647   23.8353 C   0  0  0  0  0  0  0  0  0  0  0  0
    5.3884  -21.2476   22.4147 C   0  0  2  0  0  0  0  0  0  0  0  0
    5.3694  -22.6792   22.3002 N   0  0  0  0  0  0  0  0  0  0  0  0
    6.7391  -20.7003   22.1140 C   0  0  0  0  0  0  0  0  0  0  0  0
    7.7500  -21.3331   22.4899 O   0  0  0  0  0  0  0  0  0  0  0  0
    6.9001  -19.4853   21.4153 N   0  0  0  0  0  0  0  0  0  0  0  0
    8.2744  -18.9994   21.1879 C   0  0  1  0  0  0  0  0  0  0  0  0
    8.2171  -18.0451   19.9998 C   0  0  0  0  0  0  0  0  0  0  0  0
    7.9979  -18.8023   18.7438 C   0  0  0  0  0  0  0  0  0  0  0  0
    7.9612  -17.8219   17.5629 C   0  0  0  0  0  0  0  0  0  0  0  0
    7.7510  -18.6149   16.3063 C   0  0  0  0  0  0  0  0  0  0  0  0
    7.6414  -17.6886   15.1823 N   0  0  0  0  0  0  0  0  0  0  0  0
    8.7636  -18.3013   22.3766 C   0  0  0  0  0  0  0  0  0  0  0  0
    7.9915  -17.7650   23.2346 O   0  0  0  0  0  0  0  0  0  0  0  0
   10.1340  -18.1915   22.6407 N   0  0  0  0  0  0  0  0  0  0  0  0
   10.6294  -18.1452   24.0024 C   0  0  1  0  0  0  0  0  0  0  0  0
   10.2276  -19.4730   24.6074 C   0  0  0  0  0  0  0  0  0  0  0  0
    9.2533  -19.3429   25.6842 C   0  0  0  0  0  0  0  0  0  0  0  0
    8.4865  -18.2162   25.9220 C   0  0  0  0  0  0  0  0  0  0  0  0
    7.7253  -18.4950   26.9899 N   0  0  0  0  0  0  0  0  0  0  0  0
    8.0146  -19.7451   27.3913 C   0  0  0  0  0  0  0  0  0  0  0  0
    8.9555  -20.2814   26.5957 N   0  0  0  0  0  0  0  0  0  0  0  0
   12.0642  -17.9693   24.1165 C   0  0  0  0  0  0  0  0  0  0  0  0
   12.5601  -17.9149   25.2718 O   0  0  0  0  0  0  0  0  0  0  0  0
   12.9724  -17.8519   23.0707 O   0  0  0  0  0  0  0  0  0  0  0  0
  2  1  1  1
  2  4  1  0
  3  2  1  0
  4  6  1  0
  4  5  2  0
  6  7  1  0
  7 13  1  0
  7  8  1  6
  8  9  1  0
 10  9  1  0
 10 11  1  0
 11 12  1  0
 13 14  2  0
 15 13  1  0
 15 16  1  0
 16 23  1  0
 16 17  1  6
 18 17  1  0
 19 18  2  0
 20 19  1  0
 21 20  1  0
 21 22  2  0
 22 18  1  0
 23 25  1  0
 24 23  2  0
M  END
$$$$
