AKH.pdb
     RDKit          3D

 25 25  0  0  1  0  0  0  0  0999 V2000
   11.2445  -16.0100   21.4968 C   0  0  0  0  0  0  0  0  0  0  0  0
   10.1061  -16.9505   21.1646 C   0  0  2  0  0  0  0  0  0  0  0  0
    9.2448  -16.3178   20.2050 N   0  0  0  0  0  0  0  0  0  0  0  0
    9.3770  -17.2551   22.4256 C   0  0  0  0  0  0  0  0  0  0  0  0
    8.8878  -16.3144   23.0884 O   0  0  0  0  0  0  0  0  0  0  0  0
    9.2278  -18.5803   22.8856 N   0  0  0  0  0  0  0  0  0  0  0  0
    8.4325  -18.7984   24.1089 C   0  0  1  0  0  0  0  0  0  0  0  0
    7.8073  -20.1843   23.9909 C   0  0  0  0  0  0  0  0  0  0  0  0
    6.9937  -20.4841   25.1939 C   0  0  0  0  0  0  0  0  0  0  0  0
    6.5305  -21.9468   25.1388 C   0  0  0  0  0  0  0  0  0  0  0  0
    5.6694  -22.2077   26.3398 C   0  0  0  0  0  0  0  0  0  0  0  0
    5.3640  -23.6349   26.3944 N   0  0  0  0  0  0  0  0  0  0  0  0
    9.2953  -18.7295   25.2881 C   0  0  0  0  0  0  0  0  0  0  0  0
   10.4965  -19.1501   25.2959 O   0  0  0  0  0  0  0  0  0  0  0  0
    8.8371  -18.1793   26.4910 N   0  0  0  0  0  0  0  0  0  0  0  0
    9.7312  -18.0025   27.6184 C   0  0  1  0  0  0  0  0  0  0  0  0
    9.0751  -16.9385   28.4716 C   0  0  0  0  0  0  0  0  0  0  0  0
    9.3283  -15.5836   27.9966 C   0  0  0  0  0  0  0  0  0  0  0  0
   10.1536  -15.2618   26.9339 C   0  0  0  0  0  0  0  0  0  0  0  0
   10.1189  -13.9265   26.8187 N   0  0  0  0  0  0  0  0  0  0  0  0
    9.3034  -13.4480   27.7745 C   0  0  0  0  0  0  0  0  0  0  0  0
    8.8079  -14.4582   28.5094 N   0  0  0  0  0  0  0  0  0  0  0  0
    9.9490  -19.1985   28.4089 C   0  0  0  0  0  0  0  0  0  0  0  0
   10.7674  -19.1325   29.3624 O   0  0  0  0  0  0  0  0  0  0  0  0
    9.3419  -20.4358   28.2276 O   0  0  0  0  0  0  0  0  0  0  0  0
  2  1  1  1
  2  4  1  0
  3  2  1  0
  4  6  1  0
  4  5  2  0
  6  7  1  0
  7 13  1  0
  7  8  1  6
  8  9  1  0
 10  9  1  0
 10 11  1  0
 11 12  1  0
 13 14  2  0
 15 13  1  0
 15 16  1  0
 16 23  1  0
 16 17  1  1
 18 17  1  0
 19 18  2  0
 20 19  1  0
 21 20  1  0
 21 22  2  0
 22 18  1  0
 23 25  1  0
 24 23  2  0
M  END
$$$$
