AKH.pdb
     RDKit          3D

 25 25  0  0  1  0  0  0  0  0999 V2000
    5.4989  -18.8649   23.9148 C   0  0  0  0  0  0  0  0  0  0  0  0
    5.4647  -18.5544   22.4338 C   0  0  2  0  0  0  0  0  0  0  0  0
    5.2522  -19.7750   21.7073 N   0  0  0  0  0  0  0  0  0  0  0  0
    6.7620  -17.9258   22.0646 C   0  0  0  0  0  0  0  0  0  0  0  0
    7.7838  -18.6417   21.9821 O   0  0  0  0  0  0  0  0  0  0  0  0
    6.8604  -16.5423   21.8068 N   0  0  0  0  0  0  0  0  0  0  0  0
    8.1985  -15.9885   21.5252 C   0  0  1  0  0  0  0  0  0  0  0  0
    7.9871  -14.6603   20.8063 C   0  0  0  0  0  0  0  0  0  0  0  0
    7.6322  -14.8965   19.3860 C   0  0  0  0  0  0  0  0  0  0  0  0
    7.9484  -13.6352   18.5698 C   0  0  0  0  0  0  0  0  0  0  0  0
    7.4868  -13.8652   17.1606 C   0  0  0  0  0  0  0  0  0  0  0  0
    7.7101  -12.6441   16.3909 N   0  0  0  0  0  0  0  0  0  0  0  0
    8.9286  -15.7786   22.7751 C   0  0  0  0  0  0  0  0  0  0  0  0
    8.5398  -14.9727   23.6803 O   0  0  0  0  0  0  0  0  0  0  0  0
   10.1130  -16.4730   23.0488 N   0  0  0  0  0  0  0  0  0  0  0  0
   10.8974  -16.1725   24.2304 C   0  0  1  0  0  0  0  0  0  0  0  0
   10.8772  -17.4480   25.0448 C   0  0  0  0  0  0  0  0  0  0  0  0
    9.5730  -17.7364   25.6293 C   0  0  0  0  0  0  0  0  0  0  0  0
    8.6014  -16.7884   25.8964 C   0  0  0  0  0  0  0  0  0  0  0  0
    7.5621  -17.4503   26.4248 N   0  0  0  0  0  0  0  0  0  0  0  0
    7.8844  -18.7544   26.4795 C   0  0  0  0  0  0  0  0  0  0  0  0
    9.1219  -18.9469   25.9923 N   0  0  0  0  0  0  0  0  0  0  0  0
   12.2686  -15.7849   23.9616 C   0  0  0  0  0  0  0  0  0  0  0  0
   12.6961  -15.9127   22.7851 O   0  0  0  0  0  0  0  0  0  0  0  0
   13.1828  -15.2772   24.8774 O   0  0  0  0  0  0  0  0  0  0  0  0
  2  1  1  1
  2  4  1  0
  3  2  1  0
  4  6  1  0
  4  5  2  0
  6  7  1  0
  7 13  1  0
  7  8  1  1
  8  9  1  0
 10  9  1  0
 10 11  1  0
 11 12  1  0
 13 14  2  0
 15 13  1  0
 15 16  1  0
 16 23  1  0
 16 17  1  1
 18 17  1  0
 19 18  2  0
 20 19  1  0
 21 20  1  0
 21 22  2  0
 22 18  1  0
 23 25  1  0
 24 23  2  0
M  END
$$$$
