AKH.pdb
     RDKit          3D

 25 25  0  0  1  0  0  0  0  0999 V2000
    9.0791  -12.3756   18.8512 C   0  0  0  0  0  0  0  0  0  0  0  0
    8.7705  -13.7620   18.3282 C   0  0  2  0  0  0  0  0  0  0  0  0
    7.6875  -13.6745   17.3889 N   0  0  0  0  0  0  0  0  0  0  0  0
    8.4107  -14.6224   19.4878 C   0  0  0  0  0  0  0  0  0  0  0  0
    7.2922  -14.4794   20.0282 O   0  0  0  0  0  0  0  0  0  0  0  0
    9.3046  -15.5930   19.9871 N   0  0  0  0  0  0  0  0  0  0  0  0
    8.8121  -16.5073   21.0349 C   0  0  1  0  0  0  0  0  0  0  0  0
    9.5698  -17.8205   20.8704 C   0  0  0  0  0  0  0  0  0  0  0  0
    9.1950  -18.7675   21.9481 C   0  0  0  0  0  0  0  0  0  0  0  0
    9.9377  -20.0943   21.7356 C   0  0  0  0  0  0  0  0  0  0  0  0
    9.5462  -21.0291   22.8423 C   0  0  0  0  0  0  0  0  0  0  0  0
   10.1280  -22.3414   22.5730 N   0  0  0  0  0  0  0  0  0  0  0  0
    9.0650  -15.9378   22.3582 C   0  0  0  0  0  0  0  0  0  0  0  0
   10.1845  -15.4356   22.6964 O   0  0  0  0  0  0  0  0  0  0  0  0
    8.0658  -15.9085   23.3383 N   0  0  0  0  0  0  0  0  0  0  0  0
    8.1882  -15.0532   24.5024 C   0  0  1  0  0  0  0  0  0  0  0  0
    6.7933  -14.5148   24.7374 C   0  0  0  0  0  0  0  0  0  0  0  0
    6.7192  -13.5761   25.8505 C   0  0  0  0  0  0  0  0  0  0  0  0
    7.7928  -13.2003   26.6379 C   0  0  0  0  0  0  0  0  0  0  0  0
    7.3144  -12.3321   27.5406 N   0  0  0  0  0  0  0  0  0  0  0  0
    5.9976  -12.1815   27.3150 C   0  0  0  0  0  0  0  0  0  0  0  0
    5.6154  -12.9426   26.2754 N   0  0  0  0  0  0  0  0  0  0  0  0
    8.6614  -15.7247   25.6973 C   0  0  0  0  0  0  0  0  0  0  0  0
    8.9430  -15.0158   26.6981 O   0  0  0  0  0  0  0  0  0  0  0  0
    8.8425  -17.0928   25.8646 O   0  0  0  0  0  0  0  0  0  0  0  0
  2  1  1  1
  2  4  1  0
  3  2  1  0
  4  6  1  0
  4  5  2  0
  6  7  1  0
  7 13  1  0
  7  8  1  1
  8  9  1  0
 10  9  1  0
 10 11  1  0
 11 12  1  0
 13 14  2  0
 15 13  1  0
 15 16  1  0
 16 23  1  0
 16 17  1  1
 18 17  1  0
 19 18  2  0
 20 19  1  0
 21 20  1  0
 21 22  2  0
 22 18  1  0
 23 25  1  0
 24 23  2  0
M  END
$$$$
