AKH.pdb
     RDKit          3D

 25 25  0  0  1  0  0  0  0  0999 V2000
    8.1772  -12.2379   19.4382 C   0  0  0  0  0  0  0  0  0  0  0  0
    8.1413  -13.5411   18.6692 C   0  0  2  0  0  0  0  0  0  0  0  0
    6.9920  -13.5414   17.8078 N   0  0  0  0  0  0  0  0  0  0  0  0
    8.0781  -14.6554   19.6534 C   0  0  0  0  0  0  0  0  0  0  0  0
    6.9834  -14.9318   20.1908 O   0  0  0  0  0  0  0  0  0  0  0  0
    9.2259  -15.4033   19.9904 N   0  0  0  0  0  0  0  0  0  0  0  0
    9.0723  -16.4948   20.9709 C   0  0  1  0  0  0  0  0  0  0  0  0
    9.8425  -17.6929   20.4259 C   0  0  0  0  0  0  0  0  0  0  0  0
    9.1185  -18.2887   19.2770 C   0  0  0  0  0  0  0  0  0  0  0  0
    9.9842  -19.3914   18.6514 C   0  0  0  0  0  0  0  0  0  0  0  0
    9.2080  -20.0099   17.5258 C   0  0  0  0  0  0  0  0  0  0  0  0
   10.0146  -21.0720   16.9305 N   0  0  0  0  0  0  0  0  0  0  0  0
    9.6171  -16.0875   22.2658 C   0  0  0  0  0  0  0  0  0  0  0  0
   10.6935  -15.4194   22.3878 O   0  0  0  0  0  0  0  0  0  0  0  0
    8.9653  -16.4119   23.4615 N   0  0  0  0  0  0  0  0  0  0  0  0
    9.6018  -16.1822   24.7437 C   0  0  1  0  0  0  0  0  0  0  0  0
    8.4645  -15.8659   25.6909 C   0  0  0  0  0  0  0  0  0  0  0  0
    7.9395  -14.5155   25.5282 C   0  0  0  0  0  0  0  0  0  0  0  0
    8.4535  -13.5687   24.6603 C   0  0  0  0  0  0  0  0  0  0  0  0
    7.6988  -12.4705   24.8082 N   0  0  0  0  0  0  0  0  0  0  0  0
    6.7580  -12.7342   25.7317 C   0  0  0  0  0  0  0  0  0  0  0  0
    6.8934  -13.9919   26.1854 N   0  0  0  0  0  0  0  0  0  0  0  0
   10.3620  -17.3084   25.2501 C   0  0  0  0  0  0  0  0  0  0  0  0
   10.2434  -18.4122   24.6577 O   0  0  0  0  0  0  0  0  0  0  0  0
   11.2252  -17.3051   26.3397 O   0  0  0  0  0  0  0  0  0  0  0  0
  2  1  1  1
  2  4  1  0
  3  2  1  0
  4  6  1  0
  4  5  2  0
  6  7  1  0
  7 13  1  0
  7  8  1  6
  8  9  1  0
 10  9  1  0
 10 11  1  0
 11 12  1  0
 13 14  2  0
 15 13  1  0
 15 16  1  0
 16 23  1  0
 16 17  1  1
 18 17  1  0
 19 18  2  0
 20 19  1  0
 21 20  1  0
 21 22  2  0
 22 18  1  0
 23 25  1  0
 24 23  2  0
M  END
$$$$
