AKH.pdb
     RDKit          3D

 25 25  0  0  1  0  0  0  0  0999 V2000
    8.1801  -12.2950   20.3842 C   0  0  0  0  0  0  0  0  0  0  0  0
    8.0995  -13.6743   19.7660 C   0  0  2  0  0  0  0  0  0  0  0  0
    6.8144  -13.8309   19.1440 N   0  0  0  0  0  0  0  0  0  0  0  0
    8.3011  -14.6765   20.8474 C   0  0  0  0  0  0  0  0  0  0  0  0
    7.3159  -15.0558   21.5174 O   0  0  0  0  0  0  0  0  0  0  0  0
    9.5784  -15.2048   21.1298 N   0  0  0  0  0  0  0  0  0  0  0  0
    9.6598  -16.3481   22.0587 C   0  0  1  0  0  0  0  0  0  0  0  0
   10.4342  -17.4487   21.3414 C   0  0  0  0  0  0  0  0  0  0  0  0
    9.5118  -18.5256   20.9074 C   0  0  0  0  0  0  0  0  0  0  0  0
   10.3265  -19.6675   20.2834 C   0  0  0  0  0  0  0  0  0  0  0  0
    9.3641  -20.6799   19.7349 C   0  0  0  0  0  0  0  0  0  0  0  0
   10.1261  -21.7592   19.1123 N   0  0  0  0  0  0  0  0  0  0  0  0
   10.3562  -15.9524   23.2826 C   0  0  0  0  0  0  0  0  0  0  0  0
   10.7992  -14.7759   23.4809 O   0  0  0  0  0  0  0  0  0  0  0  0
   10.5691  -16.8644   24.3232 N   0  0  0  0  0  0  0  0  0  0  0  0
   10.8665  -16.4069   25.6663 C   0  0  1  0  0  0  0  0  0  0  0  0
    9.6146  -15.6858   26.1173 C   0  0  0  0  0  0  0  0  0  0  0  0
    9.7143  -15.1523   27.4705 C   0  0  0  0  0  0  0  0  0  0  0  0
    9.9105  -13.8182   27.7798 C   0  0  0  0  0  0  0  0  0  0  0  0
    9.9447  -13.7410   29.1178 N   0  0  0  0  0  0  0  0  0  0  0  0
    9.7759  -14.9807   29.6099 C   0  0  0  0  0  0  0  0  0  0  0  0
    9.6324  -15.8624   28.6060 N   0  0  0  0  0  0  0  0  0  0  0  0
   11.1884  -17.4634   26.6060 C   0  0  0  0  0  0  0  0  0  0  0  0
   10.4937  -18.5120   26.5726 O   0  0  0  0  0  0  0  0  0  0  0  0
   12.1997  -17.4471   27.5596 O   0  0  0  0  0  0  0  0  0  0  0  0
  2  1  1  1
  2  4  1  0
  3  2  1  0
  4  6  1  0
  4  5  2  0
  6  7  1  0
  7 13  1  0
  7  8  1  6
  8  9  1  0
 10  9  1  0
 10 11  1  0
 11 12  1  0
 13 14  2  0
 15 13  1  0
 15 16  1  0
 16 23  1  0
 16 17  1  1
 18 17  1  0
 19 18  2  0
 20 19  1  0
 21 20  1  0
 21 22  2  0
 22 18  1  0
 23 25  1  0
 24 23  2  0
M  END
$$$$
