AKH.pdb
     RDKit          3D

 25 25  0  0  1  0  0  0  0  0999 V2000
    8.0904  -12.3518   20.1044 C   0  0  0  0  0  0  0  0  0  0  0  0
    8.0103  -13.7160   19.4536 C   0  0  2  0  0  0  0  0  0  0  0  0
    6.7064  -13.8790   18.8737 N   0  0  0  0  0  0  0  0  0  0  0  0
    8.2672  -14.7419   20.5004 C   0  0  0  0  0  0  0  0  0  0  0  0
    7.3724  -14.9966   21.3359 O   0  0  0  0  0  0  0  0  0  0  0  0
    9.4969  -15.4300   20.5678 N   0  0  0  0  0  0  0  0  0  0  0  0
    9.5869  -16.5907   21.4741 C   0  0  1  0  0  0  0  0  0  0  0  0
   10.8063  -17.3980   21.0421 C   0  0  0  0  0  0  0  0  0  0  0  0
   10.4488  -18.8300   20.8983 C   0  0  0  0  0  0  0  0  0  0  0  0
   11.6914  -19.6196   20.4630 C   0  0  0  0  0  0  0  0  0  0  0  0
   11.2901  -21.0537   20.2781 C   0  0  0  0  0  0  0  0  0  0  0  0
   12.4737  -21.8262   19.9099 N   0  0  0  0  0  0  0  0  0  0  0  0
    9.7416  -16.1380   22.8564 C   0  0  0  0  0  0  0  0  0  0  0  0
   10.4613  -15.1410   23.1849 O   0  0  0  0  0  0  0  0  0  0  0  0
    9.0865  -16.7869   23.9098 N   0  0  0  0  0  0  0  0  0  0  0  0
    9.3583  -16.4312   25.2887 C   0  0  1  0  0  0  0  0  0  0  0  0
    8.0023  -16.1180   25.8837 C   0  0  0  0  0  0  0  0  0  0  0  0
    7.5435  -14.7659   25.5888 C   0  0  0  0  0  0  0  0  0  0  0  0
    8.2531  -13.8358   24.8503 C   0  0  0  0  0  0  0  0  0  0  0  0
    7.4969  -12.7295   24.8082 N   0  0  0  0  0  0  0  0  0  0  0  0
    6.3668  -12.9723   25.4947 C   0  0  0  0  0  0  0  0  0  0  0  0
    6.3806  -14.2245   25.9825 N   0  0  0  0  0  0  0  0  0  0  0  0
   10.0045  -17.4723   26.0641 C   0  0  0  0  0  0  0  0  0  0  0  0
   10.2737  -17.2274   27.2687 O   0  0  0  0  0  0  0  0  0  0  0  0
   10.3673  -18.7373   25.6164 O   0  0  0  0  0  0  0  0  0  0  0  0
  2  1  1  1
  2  4  1  0
  3  2  1  0
  4  6  1  0
  4  5  2  0
  6  7  1  0
  7 13  1  0
  7  8  1  6
  8  9  1  0
 10  9  1  0
 10 11  1  0
 11 12  1  0
 13 14  2  0
 15 13  1  0
 15 16  1  0
 16 23  1  0
 16 17  1  1
 18 17  1  0
 19 18  2  0
 20 19  1  0
 21 20  1  0
 21 22  2  0
 22 18  1  0
 23 25  1  0
 24 23  2  0
M  END
$$$$
