AKH.pdb
     RDKit          3D

 25 25  0  0  1  0  0  0  0  0999 V2000
   -5.6198  -28.3348   29.1794 C   0  0  0  0  0  0  0  0  0  0  0  0
   -4.4722  -27.8847   28.3011 C   0  0  2  0  0  0  0  0  0  0  0  0
   -3.2951  -27.7401   29.1113 N   0  0  0  0  0  0  0  0  0  0  0  0
   -4.8545  -26.5926   27.6696 C   0  0  0  0  0  0  0  0  0  0  0  0
   -4.4064  -25.5264   28.1452 O   0  0  0  0  0  0  0  0  0  0  0  0
   -5.7097  -26.5480   26.5485 N   0  0  0  0  0  0  0  0  0  0  0  0
   -5.8371  -25.2652   25.8311 C   0  0  1  0  0  0  0  0  0  0  0  0
   -5.9316  -25.5948   24.3452 C   0  0  0  0  0  0  0  0  0  0  0  0
   -5.9259  -24.3484   23.5419 C   0  0  0  0  0  0  0  0  0  0  0  0
   -6.0554  -24.7056   22.0544 C   0  0  0  0  0  0  0  0  0  0  0  0
   -5.8957  -23.4441   21.2574 C   0  0  0  0  0  0  0  0  0  0  0  0
   -5.7880  -23.7952   19.8438 N   0  0  0  0  0  0  0  0  0  0  0  0
   -7.0404  -24.5601   26.2722 C   0  0  0  0  0  0  0  0  0  0  0  0
   -8.1884  -25.1075   26.3201 O   0  0  0  0  0  0  0  0  0  0  0  0
   -6.9886  -23.2219   26.6798 N   0  0  0  0  0  0  0  0  0  0  0  0
   -8.1917  -22.5156   27.0742 C   0  0  1  0  0  0  0  0  0  0  0  0
   -7.9095  -22.0205   28.4764 C   0  0  0  0  0  0  0  0  0  0  0  0
   -8.1494  -23.0292   29.5014 C   0  0  0  0  0  0  0  0  0  0  0  0
   -8.5732  -24.3222   29.2515 C   0  0  0  0  0  0  0  0  0  0  0  0
   -8.6734  -24.9248   30.4449 N   0  0  0  0  0  0  0  0  0  0  0  0
   -8.3243  -24.0350   31.3904 C   0  0  0  0  0  0  0  0  0  0  0  0
   -7.9984  -22.8607   30.8240 N   0  0  0  0  0  0  0  0  0  0  0  0
   -8.5412  -21.3964   26.2210 C   0  0  0  0  0  0  0  0  0  0  0  0
   -7.7023  -21.0308   25.3573 O   0  0  0  0  0  0  0  0  0  0  0  0
   -9.7241  -20.6670   26.2509 O   0  0  0  0  0  0  0  0  0  0  0  0
  2  1  1  1
  2  4  1  0
  3  2  1  0
  4  6  1  0
  4  5  2  0
  6  7  1  0
  7 13  1  0
  7  8  1  6
  8  9  1  0
 10  9  1  0
 10 11  1  0
 11 12  1  0
 13 14  2  0
 15 13  1  0
 15 16  1  0
 16 23  1  0
 16 17  1  1
 18 17  1  0
 19 18  2  0
 20 19  1  0
 21 20  1  0
 21 22  2  0
 22 18  1  0
 23 25  1  0
 24 23  2  0
M  END
$$$$
