MEL.pdb
     RDKit          3D

 26 25  0  0  1  0  0  0  0  0999 V2000
    8.0848  -11.3727   21.0943 C   0  0  0  0  0  0  0  0  0  0  0  0
    7.0455  -11.8739   19.6882 S   0  0  0  0  0  0  0  0  0  0  0  0
    7.4369  -13.5997   19.2904 C   0  0  0  0  0  0  0  0  0  0  0  0
    7.7638  -14.3068   20.5898 C   0  0  0  0  0  0  0  0  0  0  0  0
    8.0020  -15.7947   20.3477 C   0  0  2  0  0  0  0  0  0  0  0  0
    6.7161  -16.3280   19.9435 N   0  0  0  0  0  0  0  0  0  0  0  0
    8.4032  -16.3469   21.6874 C   0  0  0  0  0  0  0  0  0  0  0  0
    7.5440  -16.6860   22.5394 O   0  0  0  0  0  0  0  0  0  0  0  0
    9.7659  -16.5104   22.0530 N   0  0  0  0  0  0  0  0  0  0  0  0
   10.1010  -17.0796   23.3159 C   0  0  1  0  0  0  0  0  0  0  0  0
   11.4539  -17.7200   23.3061 C   0  0  0  0  0  0  0  0  0  0  0  0
   11.7036  -18.6643   22.2045 C   0  0  0  0  0  0  0  0  0  0  0  0
   13.1022  -19.0578   21.9671 C   0  0  0  0  0  0  0  0  0  0  0  0
   13.4467  -20.2171   21.6721 O   0  0  0  0  0  0  0  0  0  0  0  0
   10.0958  -16.0885   24.4236 C   0  0  0  0  0  0  0  0  0  0  0  0
   10.9542  -15.1872   24.5642 O   0  0  0  0  0  0  0  0  0  0  0  0
   14.1168  -18.0999   22.0712 O   0  0  0  0  0  0  0  0  0  0  0  0
    6.2093  -12.9255   25.4673 C   0  0  0  0  0  0  0  0  0  0  0  0
    7.6614  -13.4912   25.4172 C   0  0  1  0  0  0  0  0  0  0  0  0
    8.5337  -12.3127   25.8049 C   0  0  0  0  0  0  0  0  0  0  0  0
    7.7129  -14.5840   26.4074 C   0  0  0  0  0  0  0  0  0  0  0  0
    9.0004  -15.3197   26.5784 C   0  0  2  0  0  0  0  0  0  0  0  0
    9.0413  -16.1943   25.3636 N   0  0  0  0  0  0  0  0  0  0  0  0
    9.0786  -16.2382   27.6952 C   0  0  0  0  0  0  0  0  0  0  0  0
    9.2347  -15.8321   28.8700 O   0  0  0  0  0  0  0  0  0  0  0  0
    8.9768  -17.6042   27.5259 O   0  0  0  0  0  0  0  0  0  0  0  0
  2  1  1  0
  3  2  1  0
  4  3  1  0
  5  7  1  0
  5  4  1  0
  5  6  1  1
  7  9  1  0
  7  8  2  0
  9 10  1  0
 10 11  1  6
 11 12  1  0
 12 13  1  0
 13 17  1  0
 14 13  2  0
 15 10  1  0
 16 15  2  0
 19 18  1  1
 19 21  1  0
 20 19  1  0
 22 21  1  1
 22 24  1  0
 22 23  1  0
 23 15  1  0
 24 26  1  0
 25 24  2  0
M  END
$$$$
