MEL.pdb
     RDKit          3D

 26 25  0  0  1  0  0  0  0  0999 V2000
    7.6855  -11.3872   20.0390 C   0  0  0  0  0  0  0  0  0  0  0  0
    8.6301  -12.8211   19.4387 S   0  0  0  0  0  0  0  0  0  0  0  0
    7.5295  -14.2627   19.4553 C   0  0  0  0  0  0  0  0  0  0  0  0
    8.3273  -15.4540   18.9656 C   0  0  0  0  0  0  0  0  0  0  0  0
    9.6799  -15.5219   19.6692 C   0  0  2  0  0  0  0  0  0  0  0  0
   10.3754  -16.6364   19.0564 N   0  0  0  0  0  0  0  0  0  0  0  0
    9.3559  -15.8289   21.1049 C   0  0  0  0  0  0  0  0  0  0  0  0
    8.8110  -14.9760   21.8497 O   0  0  0  0  0  0  0  0  0  0  0  0
    9.6491  -17.0914   21.6859 N   0  0  0  0  0  0  0  0  0  0  0  0
    9.2564  -17.3661   23.0282 C   0  0  1  0  0  0  0  0  0  0  0  0
    9.8855  -18.6174   23.5562 C   0  0  0  0  0  0  0  0  0  0  0  0
   11.3313  -18.5395   23.8237 C   0  0  0  0  0  0  0  0  0  0  0  0
   11.9329  -19.6568   24.5700 C   0  0  0  0  0  0  0  0  0  0  0  0
   12.5320  -19.5138   25.6518 O   0  0  0  0  0  0  0  0  0  0  0  0
    9.6015  -16.2722   23.9736 C   0  0  0  0  0  0  0  0  0  0  0  0
   10.5128  -15.4355   23.7777 O   0  0  0  0  0  0  0  0  0  0  0  0
   11.8413  -20.9569   24.0608 O   0  0  0  0  0  0  0  0  0  0  0  0
    8.4077  -12.0967   26.5937 C   0  0  0  0  0  0  0  0  0  0  0  0
    7.4523  -13.2586   27.0043 C   0  0  1  0  0  0  0  0  0  0  0  0
    6.0631  -12.6686   26.8560 C   0  0  0  0  0  0  0  0  0  0  0  0
    7.7057  -14.3572   26.0522 C   0  0  0  0  0  0  0  0  0  0  0  0
    9.0171  -15.0661   26.1272 C   0  0  2  0  0  0  0  0  0  0  0  0
    8.8339  -16.1960   25.1617 N   0  0  0  0  0  0  0  0  0  0  0  0
    9.3366  -15.7065   27.3860 C   0  0  0  0  0  0  0  0  0  0  0  0
    9.9518  -15.1008   28.2937 O   0  0  0  0  0  0  0  0  0  0  0  0
    8.9737  -17.0108   27.6547 O   0  0  0  0  0  0  0  0  0  0  0  0
  2  1  1  0
  3  2  1  0
  4  3  1  0
  5  7  1  0
  5  4  1  0
  5  6  1  6
  7  9  1  0
  7  8  2  0
  9 10  1  0
 10 11  1  1
 11 12  1  0
 12 13  1  0
 13 17  1  0
 14 13  2  0
 15 10  1  0
 16 15  2  0
 19 18  1  6
 19 21  1  0
 20 19  1  0
 22 21  1  1
 22 24  1  0
 22 23  1  0
 23 15  1  0
 24 26  1  0
 25 24  2  0
M  END
$$$$
