MEL.pdb
     RDKit          3D

 26 25  0  0  1  0  0  0  0  0999 V2000
    8.8330  -11.7324   19.7022 C   0  0  0  0  0  0  0  0  0  0  0  0
    7.3940  -12.4019   18.8136 S   0  0  0  0  0  0  0  0  0  0  0  0
    7.5825  -14.2035   18.7205 C   0  0  0  0  0  0  0  0  0  0  0  0
    7.4952  -14.7469   20.1321 C   0  0  0  0  0  0  0  0  0  0  0  0
    8.8889  -14.9191   20.7297 C   0  0  2  0  0  0  0  0  0  0  0  0
    9.5729  -15.8436   19.8472 N   0  0  0  0  0  0  0  0  0  0  0  0
    8.6593  -15.5484   22.0757 C   0  0  0  0  0  0  0  0  0  0  0  0
    7.7735  -15.1187   22.8565 O   0  0  0  0  0  0  0  0  0  0  0  0
    9.4291  -16.6532   22.5276 N   0  0  0  0  0  0  0  0  0  0  0  0
    9.3489  -17.0678   23.8888 C   0  0  1  0  0  0  0  0  0  0  0  0
   10.1912  -18.2745   24.1626 C   0  0  0  0  0  0  0  0  0  0  0  0
   10.0992  -18.8191   25.5274 C   0  0  0  0  0  0  0  0  0  0  0  0
   10.9951  -19.9387   25.8609 C   0  0  0  0  0  0  0  0  0  0  0  0
   11.7799  -20.4545   25.0438 O   0  0  0  0  0  0  0  0  0  0  0  0
    9.7731  -16.0136   24.8470 C   0  0  0  0  0  0  0  0  0  0  0  0
   10.8643  -15.4022   24.7813 O   0  0  0  0  0  0  0  0  0  0  0  0
   10.9851  -20.4698   27.1554 O   0  0  0  0  0  0  0  0  0  0  0  0
    6.0666  -12.4069   26.3942 C   0  0  0  0  0  0  0  0  0  0  0  0
    7.4221  -13.0248   25.9338 C   0  0  1  0  0  0  0  0  0  0  0  0
    8.3407  -11.8290   25.7719 C   0  0  0  0  0  0  0  0  0  0  0  0
    7.8536  -13.9277   27.0183 C   0  0  0  0  0  0  0  0  0  0  0  0
    9.1688  -14.6194   26.8780 C   0  0  2  0  0  0  0  0  0  0  0  0
    8.8653  -15.7019   25.8888 N   0  0  0  0  0  0  0  0  0  0  0  0
    9.6619  -15.3175   28.0469 C   0  0  0  0  0  0  0  0  0  0  0  0
   10.1871  -14.7048   29.0051 O   0  0  0  0  0  0  0  0  0  0  0  0
    9.5716  -16.6892   28.1705 O   0  0  0  0  0  0  0  0  0  0  0  0
  2  1  1  0
  3  2  1  0
  4  3  1  0
  5  7  1  0
  5  4  1  0
  5  6  1  6
  7  9  1  0
  7  8  2  0
  9 10  1  0
 10 11  1  6
 11 12  1  0
 12 13  1  0
 13 17  1  0
 14 13  2  0
 15 10  1  0
 16 15  2  0
 19 18  1  1
 19 21  1  0
 20 19  1  0
 22 21  1  1
 22 24  1  0
 22 23  1  0
 23 15  1  0
 24 26  1  0
 25 24  2  0
M  END
$$$$
