MEL.pdb
     RDKit          3D

 26 25  0  0  1  0  0  0  0  0999 V2000
  -58.8631  -24.6072  -49.5127 C   0  0  0  0  0  0  0  0  0  0  0  0
  -60.4731  -24.5656  -50.3582 S   0  0  0  0  0  0  0  0  0  0  0  0
  -61.6920  -23.8745  -49.2066 C   0  0  0  0  0  0  0  0  0  0  0  0
  -62.3378  -22.6827  -49.8835 C   0  0  0  0  0  0  0  0  0  0  0  0
  -63.4101  -23.1393  -50.8688 C   0  0  2  0  0  0  0  0  0  0  0  0
  -62.8678  -22.8580  -52.1833 N   0  0  0  0  0  0  0  0  0  0  0  0
  -64.5955  -22.2578  -50.5887 C   0  0  0  0  0  0  0  0  0  0  0  0
  -65.2626  -21.7425  -51.5207 O   0  0  0  0  0  0  0  0  0  0  0  0
  -65.0159  -21.9658  -49.2638 N   0  0  0  0  0  0  0  0  0  0  0  0
  -65.8189  -22.9015  -48.5491 C   0  0  1  0  0  0  0  0  0  0  0  0
  -66.1824  -24.0888  -49.3848 C   0  0  0  0  0  0  0  0  0  0  0  0
  -66.6521  -23.7887  -50.7476 C   0  0  0  0  0  0  0  0  0  0  0  0
  -68.0675  -24.0667  -51.0419 C   0  0  0  0  0  0  0  0  0  0  0  0
  -68.6074  -25.1681  -50.8299 O   0  0  0  0  0  0  0  0  0  0  0  0
  -65.1607  -23.4182  -47.3206 C   0  0  0  0  0  0  0  0  0  0  0  0
  -65.6439  -23.3180  -46.1693 O   0  0  0  0  0  0  0  0  0  0  0  0
  -68.8706  -23.0594  -51.5880 O   0  0  0  0  0  0  0  0  0  0  0  0
  -59.2231  -24.0052  -47.0166 C   0  0  0  0  0  0  0  0  0  0  0  0
  -60.4556  -23.4939  -46.2099 C   0  0  1  0  0  0  0  0  0  0  0  0
  -60.1910  -22.0120  -46.0251 C   0  0  0  0  0  0  0  0  0  0  0  0
  -61.6383  -23.7574  -47.0520 C   0  0  0  0  0  0  0  0  0  0  0  0
  -62.9163  -24.1280  -46.3758 C   0  0  2  0  0  0  0  0  0  0  0  0
  -63.9098  -24.0600  -47.4941 N   0  0  0  0  0  0  0  0  0  0  0  0
  -63.4167  -23.2005  -45.3828 C   0  0  0  0  0  0  0  0  0  0  0  0
  -62.6681  -22.3601  -44.8326 O   0  0  0  0  0  0  0  0  0  0  0  0
  -64.7421  -23.1875  -44.9978 O   0  0  0  0  0  0  0  0  0  0  0  0
  2  1  1  0
  3  2  1  0
  4  3  1  0
  5  7  1  0
  5  4  1  0
  5  6  1  6
  7  9  1  0
  7  8  2  0
  9 10  1  0
 10 11  1  6
 11 12  1  0
 12 13  1  0
 13 17  1  0
 14 13  2  0
 15 10  1  0
 16 15  2  0
 19 18  1  6
 19 21  1  0
 20 19  1  0
 22 21  1  6
 22 24  1  0
 22 23  1  0
 23 15  1  0
 24 26  1  0
 25 24  2  0
M  END
$$$$
