MEL.pdb
     RDKit          3D

 26 25  0  0  1  0  0  0  0  0999 V2000
    7.5837  -11.0383   20.2923 C   0  0  0  0  0  0  0  0  0  0  0  0
    8.5994  -12.2564   19.4017 S   0  0  0  0  0  0  0  0  0  0  0  0
    7.8592  -13.8930   19.6534 C   0  0  0  0  0  0  0  0  0  0  0  0
    8.8068  -14.9196   19.0672 C   0  0  0  0  0  0  0  0  0  0  0  0
    8.2475  -16.3290   19.2406 C   0  0  2  0  0  0  0  0  0  0  0  0
    6.9320  -16.2969   18.6324 N   0  0  0  0  0  0  0  0  0  0  0  0
    8.1355  -16.5222   20.7274 C   0  0  0  0  0  0  0  0  0  0  0  0
    7.0852  -16.2229   21.3489 O   0  0  0  0  0  0  0  0  0  0  0  0
    9.2063  -17.0494   21.4974 N   0  0  0  0  0  0  0  0  0  0  0  0
    8.9988  -17.3914   22.8653 C   0  0  1  0  0  0  0  0  0  0  0  0
    9.7835  -18.5998   23.2710 C   0  0  0  0  0  0  0  0  0  0  0  0
    9.5171  -19.1062   24.6276 C   0  0  0  0  0  0  0  0  0  0  0  0
   10.3446  -20.2308   25.0944 C   0  0  0  0  0  0  0  0  0  0  0  0
   11.5883  -20.1955   25.1343 O   0  0  0  0  0  0  0  0  0  0  0  0
    9.3657  -16.2983   23.8033 C   0  0  0  0  0  0  0  0  0  0  0  0
   10.3798  -15.5742   23.6763 O   0  0  0  0  0  0  0  0  0  0  0  0
    9.7279  -21.4120   25.5213 O   0  0  0  0  0  0  0  0  0  0  0  0
    5.8759  -12.6666   26.2518 C   0  0  0  0  0  0  0  0  0  0  0  0
    7.2655  -13.1118   25.7020 C   0  0  1  0  0  0  0  0  0  0  0  0
    8.2293  -12.0716   26.2396 C   0  0  0  0  0  0  0  0  0  0  0  0
    7.5167  -14.4564   26.2556 C   0  0  0  0  0  0  0  0  0  0  0  0
    8.8342  -15.0992   25.9744 C   0  0  2  0  0  0  0  0  0  0  0  0
    8.4945  -16.0852   24.8998 N   0  0  0  0  0  0  0  0  0  0  0  0
    9.4058  -15.8979   27.0385 C   0  0  0  0  0  0  0  0  0  0  0  0
    9.0344  -17.0758   27.2479 O   0  0  0  0  0  0  0  0  0  0  0  0
   10.3930  -15.4081   27.8696 O   0  0  0  0  0  0  0  0  0  0  0  0
  2  1  1  0
  3  2  1  0
  4  3  1  0
  5  7  1  0
  5  4  1  0
  5  6  1  6
  7  9  1  0
  7  8  2  0
  9 10  1  0
 10 11  1  1
 11 12  1  0
 12 13  1  0
 13 17  1  0
 14 13  2  0
 15 10  1  0
 16 15  2  0
 19 18  1  1
 19 21  1  0
 20 19  1  0
 22 21  1  1
 22 24  1  0
 22 23  1  0
 23 15  1  0
 24 26  1  0
 25 24  2  0
M  END
$$$$
