MEL.pdb
     RDKit          3D

 26 25  0  0  1  0  0  0  0  0999 V2000
    8.6220  -11.9572   20.8321 C   0  0  0  0  0  0  0  0  0  0  0  0
    7.6578  -12.4102   19.3578 S   0  0  0  0  0  0  0  0  0  0  0  0
    6.7900  -13.9630   19.7123 C   0  0  0  0  0  0  0  0  0  0  0  0
    7.3524  -14.5175   21.0052 C   0  0  0  0  0  0  0  0  0  0  0  0
    7.6888  -15.9985   20.8544 C   0  0  2  0  0  0  0  0  0  0  0  0
    6.4124  -16.6676   20.6981 N   0  0  0  0  0  0  0  0  0  0  0  0
    8.3301  -16.3858   22.1579 C   0  0  0  0  0  0  0  0  0  0  0  0
    7.6455  -16.5648   23.1963 O   0  0  0  0  0  0  0  0  0  0  0  0
    9.7337  -16.5668   22.2780 N   0  0  0  0  0  0  0  0  0  0  0  0
   10.2940  -16.9862   23.5196 C   0  0  1  0  0  0  0  0  0  0  0  0
   11.7088  -17.4523   23.3724 C   0  0  0  0  0  0  0  0  0  0  0  0
   11.9326  -18.4991   22.3616 C   0  0  0  0  0  0  0  0  0  0  0  0
   13.3300  -18.8667   22.0799 C   0  0  0  0  0  0  0  0  0  0  0  0
   14.1092  -18.1476   21.4278 O   0  0  0  0  0  0  0  0  0  0  0  0
   10.2924  -15.9173   24.5525 C   0  0  0  0  0  0  0  0  0  0  0  0
   10.9351  -14.8465   24.4566 O   0  0  0  0  0  0  0  0  0  0  0  0
   13.8350  -20.0810   22.5579 O   0  0  0  0  0  0  0  0  0  0  0  0
    6.0678  -13.4098   26.1193 C   0  0  0  0  0  0  0  0  0  0  0  0
    7.5974  -13.6190   25.9007 C   0  0  1  0  0  0  0  0  0  0  0  0
    8.2176  -12.3009   26.3226 C   0  0  0  0  0  0  0  0  0  0  0  0
    7.9908  -14.7371   26.7796 C   0  0  0  0  0  0  0  0  0  0  0  0
    9.4278  -15.1399   26.8069 C   0  0  2  0  0  0  0  0  0  0  0  0
    9.5048  -16.1524   25.7063 N   0  0  0  0  0  0  0  0  0  0  0  0
    9.8809  -15.8454   27.9875 C   0  0  0  0  0  0  0  0  0  0  0  0
   10.3622  -15.2378   28.9716 O   0  0  0  0  0  0  0  0  0  0  0  0
    9.7984  -17.2191   28.0941 O   0  0  0  0  0  0  0  0  0  0  0  0
  2  1  1  0
  3  2  1  0
  4  3  1  0
  5  7  1  0
  5  4  1  0
  5  6  1  1
  7  9  1  0
  7  8  2  0
  9 10  1  0
 10 11  1  6
 11 12  1  0
 12 13  1  0
 13 17  1  0
 14 13  2  0
 15 10  1  0
 16 15  2  0
 19 18  1  1
 19 21  1  0
 20 19  1  0
 22 21  1  1
 22 24  1  0
 22 23  1  0
 23 15  1  0
 24 26  1  0
 25 24  2  0
M  END
$$$$
