MEL.pdb
     RDKit          3D

 26 25  0  0  1  0  0  0  0  0999 V2000
    9.4759  -12.4481   19.3369 C   0  0  0  0  0  0  0  0  0  0  0  0
    7.8402  -12.4798   18.5420 S   0  0  0  0  0  0  0  0  0  0  0  0
    6.7655  -13.5681   19.5168 C   0  0  0  0  0  0  0  0  0  0  0  0
    7.4748  -14.8986   19.6662 C   0  0  0  0  0  0  0  0  0  0  0  0
    6.6603  -15.8474   20.5412 C   0  0  2  0  0  0  0  0  0  0  0  0
    5.9017  -14.9915   21.4319 N   0  0  0  0  0  0  0  0  0  0  0  0
    7.6811  -16.6369   21.3127 C   0  0  0  0  0  0  0  0  0  0  0  0
    7.3861  -17.7281   21.8616 O   0  0  0  0  0  0  0  0  0  0  0  0
    9.0212  -16.1894   21.4579 N   0  0  0  0  0  0  0  0  0  0  0  0
    9.7945  -16.6091   22.5792 C   0  0  1  0  0  0  0  0  0  0  0  0
   11.2431  -16.7701   22.2382 C   0  0  0  0  0  0  0  0  0  0  0  0
   12.1132  -17.2040   23.3438 C   0  0  0  0  0  0  0  0  0  0  0  0
   13.5314  -17.4371   23.0248 C   0  0  0  0  0  0  0  0  0  0  0  0
   14.1588  -16.7800   22.1738 O   0  0  0  0  0  0  0  0  0  0  0  0
    9.7190  -15.6674   23.7267 C   0  0  0  0  0  0  0  0  0  0  0  0
    9.9381  -14.4371   23.6419 O   0  0  0  0  0  0  0  0  0  0  0  0
   14.2349  -18.4423   23.6975 O   0  0  0  0  0  0  0  0  0  0  0  0
    8.0217  -12.5170   26.8231 C   0  0  0  0  0  0  0  0  0  0  0  0
    7.1613  -13.8168   26.7864 C   0  0  1  0  0  0  0  0  0  0  0  0
    5.7907  -13.3437   26.3416 C   0  0  0  0  0  0  0  0  0  0  0  0
    7.8010  -14.7074   25.7989 C   0  0  0  0  0  0  0  0  0  0  0  0
    9.0974  -15.3499   26.1654 C   0  0  2  0  0  0  0  0  0  0  0  0
    9.3747  -16.2253   24.9825 N   0  0  0  0  0  0  0  0  0  0  0  0
    9.0754  -16.2553   27.2954 C   0  0  0  0  0  0  0  0  0  0  0  0
    8.5393  -17.3851   27.2216 O   0  0  0  0  0  0  0  0  0  0  0  0
    9.6497  -15.9259   28.5064 O   0  0  0  0  0  0  0  0  0  0  0  0
  2  1  1  0
  3  2  1  0
  4  3  1  0
  5  7  1  0
  5  4  1  0
  5  6  1  1
  7  9  1  0
  7  8  2  0
  9 10  1  0
 10 11  1  6
 11 12  1  0
 12 13  1  0
 13 17  1  0
 14 13  2  0
 15 10  1  0
 16 15  2  0
 19 18  1  6
 19 21  1  0
 20 19  1  0
 22 21  1  6
 22 24  1  0
 22 23  1  0
 23 15  1  0
 24 26  1  0
 25 24  2  0
M  END
$$$$
