MEL.pdb
     RDKit          3D

 26 25  0  0  1  0  0  0  0  0999 V2000
    9.9444  -12.2716   18.5661 C   0  0  0  0  0  0  0  0  0  0  0  0
    8.1514  -12.1684   18.8544 S   0  0  0  0  0  0  0  0  0  0  0  0
    7.5224  -13.8552   19.0756 C   0  0  0  0  0  0  0  0  0  0  0  0
    8.7080  -14.7971   19.0225 C   0  0  0  0  0  0  0  0  0  0  0  0
    8.2560  -16.2424   19.2127 C   0  0  2  0  0  0  0  0  0  0  0  0
    6.9228  -16.3047   18.6471 N   0  0  0  0  0  0  0  0  0  0  0  0
    8.2056  -16.4407   20.7023 C   0  0  0  0  0  0  0  0  0  0  0  0
    7.2130  -16.0713   21.3784 O   0  0  0  0  0  0  0  0  0  0  0  0
    9.2726  -17.0515   21.4135 N   0  0  0  0  0  0  0  0  0  0  0  0
    9.1728  -17.2409   22.8225 C   0  0  1  0  0  0  0  0  0  0  0  0
   10.2027  -18.1968   23.3386 C   0  0  0  0  0  0  0  0  0  0  0  0
   10.1760  -18.4389   24.7906 C   0  0  0  0  0  0  0  0  0  0  0  0
   11.1541  -19.4009   25.3247 C   0  0  0  0  0  0  0  0  0  0  0  0
   11.9725  -20.0119   24.6130 O   0  0  0  0  0  0  0  0  0  0  0  0
    9.3236  -15.9794   23.5940 C   0  0  0  0  0  0  0  0  0  0  0  0
   10.1256  -15.0647   23.2955 O   0  0  0  0  0  0  0  0  0  0  0  0
   11.1881  -19.6609   26.6992 O   0  0  0  0  0  0  0  0  0  0  0  0
    7.6125  -11.8666   26.3023 C   0  0  0  0  0  0  0  0  0  0  0  0
    7.0249  -13.1767   26.9102 C   0  0  1  0  0  0  0  0  0  0  0  0
    5.5511  -12.8722   27.0973 C   0  0  0  0  0  0  0  0  0  0  0  0
    7.2619  -14.2374   25.9120 C   0  0  0  0  0  0  0  0  0  0  0  0
    8.6684  -14.6730   25.6672 C   0  0  2  0  0  0  0  0  0  0  0  0
    8.4945  -15.8303   24.7329 N   0  0  0  0  0  0  0  0  0  0  0  0
    9.3839  -15.2204   26.8009 C   0  0  0  0  0  0  0  0  0  0  0  0
   10.0957  -14.5001   27.5385 O   0  0  0  0  0  0  0  0  0  0  0  0
    9.3128  -16.5582   27.1328 O   0  0  0  0  0  0  0  0  0  0  0  0
  2  1  1  0
  3  2  1  0
  4  3  1  0
  5  7  1  0
  5  4  1  0
  5  6  1  1
  7  9  1  0
  7  8  2  0
  9 10  1  0
 10 11  1  1
 11 12  1  0
 12 13  1  0
 13 17  1  0
 14 13  2  0
 15 10  1  0
 16 15  2  0
 19 18  1  6
 19 21  1  0
 20 19  1  0
 22 21  1  1
 22 24  1  0
 22 23  1  0
 23 15  1  0
 24 26  1  0
 25 24  2  0
M  END
$$$$
