MEL.pdb
     RDKit          3D

 26 25  0  0  1  0  0  0  0  0999 V2000
    9.1422  -11.8508   19.6787 C   0  0  0  0  0  0  0  0  0  0  0  0
    7.7643  -12.4112   18.6320 S   0  0  0  0  0  0  0  0  0  0  0  0
    7.8661  -14.2167   18.4925 C   0  0  0  0  0  0  0  0  0  0  0  0
    7.9875  -14.7785   19.8943 C   0  0  0  0  0  0  0  0  0  0  0  0
    8.2744  -16.2769   19.8506 C   0  0  2  0  0  0  0  0  0  0  0  0
    7.0639  -16.8841   19.3334 N   0  0  0  0  0  0  0  0  0  0  0  0
    8.4905  -16.6730   21.2848 C   0  0  0  0  0  0  0  0  0  0  0  0
    7.5363  -16.7233   22.1008 O   0  0  0  0  0  0  0  0  0  0  0  0
    9.7775  -17.0071   21.7842 N   0  0  0  0  0  0  0  0  0  0  0  0
    9.9629  -17.2363   23.1786 C   0  0  1  0  0  0  0  0  0  0  0  0
   11.2266  -17.9854   23.4652 C   0  0  0  0  0  0  0  0  0  0  0  0
   11.4627  -18.3186   24.8797 C   0  0  0  0  0  0  0  0  0  0  0  0
   12.6775  -19.0902   25.1898 C   0  0  0  0  0  0  0  0  0  0  0  0
   12.6678  -20.3074   25.4501 O   0  0  0  0  0  0  0  0  0  0  0  0
   10.0089  -15.9827   23.9759 C   0  0  0  0  0  0  0  0  0  0  0  0
   10.7728  -15.0209   23.7298 O   0  0  0  0  0  0  0  0  0  0  0  0
   13.9206  -18.4479   25.1990 O   0  0  0  0  0  0  0  0  0  0  0  0
    6.2261  -12.2261   25.7209 C   0  0  0  0  0  0  0  0  0  0  0  0
    7.6020  -12.7049   26.2768 C   0  0  1  0  0  0  0  0  0  0  0  0
    7.3754  -12.8346   27.7707 C   0  0  0  0  0  0  0  0  0  0  0  0
    7.8789  -14.0027   25.6312 C   0  0  0  0  0  0  0  0  0  0  0  0
    9.1393  -14.7152   25.9937 C   0  0  2  0  0  0  0  0  0  0  0  0
    9.1213  -15.8990   25.0768 N   0  0  0  0  0  0  0  0  0  0  0  0
    9.2035  -15.2823   27.3246 C   0  0  0  0  0  0  0  0  0  0  0  0
    9.7775  -14.6868   28.2654 O   0  0  0  0  0  0  0  0  0  0  0  0
    8.6299  -16.5005   27.6278 O   0  0  0  0  0  0  0  0  0  0  0  0
  2  1  1  0
  3  2  1  0
  4  3  1  0
  5  7  1  0
  5  4  1  0
  5  6  1  1
  7  9  1  0
  7  8  2  0
  9 10  1  0
 10 11  1  6
 11 12  1  0
 12 13  1  0
 13 17  1  0
 14 13  2  0
 15 10  1  0
 16 15  2  0
 19 18  1  6
 19 21  1  0
 20 19  1  0
 22 21  1  1
 22 24  1  0
 22 23  1  0
 23 15  1  0
 24 26  1  0
 25 24  2  0
M  END
$$$$
