MEL.pdb
     RDKit          3D

 26 25  0  0  1  0  0  0  0  0999 V2000
    7.6604  -11.5449   19.2666 C   0  0  0  0  0  0  0  0  0  0  0  0
    7.1708  -13.1526   18.5708 S   0  0  0  0  0  0  0  0  0  0  0  0
    8.3028  -14.4117   19.2213 C   0  0  0  0  0  0  0  0  0  0  0  0
    9.6713  -13.7746   19.3509 C   0  0  0  0  0  0  0  0  0  0  0  0
   10.6823  -14.7781   19.8987 C   0  0  2  0  0  0  0  0  0  0  0  0
   10.7683  -15.8217   18.8962 N   0  0  0  0  0  0  0  0  0  0  0  0
   10.0583  -15.3093   21.1593 C   0  0  0  0  0  0  0  0  0  0  0  0
    9.5923  -14.5374   22.0344 O   0  0  0  0  0  0  0  0  0  0  0  0
    9.9665  -16.7024   21.4206 N   0  0  0  0  0  0  0  0  0  0  0  0
    9.3510  -17.1627   22.6208 C   0  0  1  0  0  0  0  0  0  0  0  0
    9.7621  -18.5597   22.9670 C   0  0  0  0  0  0  0  0  0  0  0  0
    9.0784  -19.1559   24.1267 C   0  0  0  0  0  0  0  0  0  0  0  0
    9.5713  -20.4625   24.5926 C   0  0  0  0  0  0  0  0  0  0  0  0
    9.1441  -21.0309   25.6144 O   0  0  0  0  0  0  0  0  0  0  0  0
    9.6608  -16.3123   23.7999 C   0  0  0  0  0  0  0  0  0  0  0  0
   10.8171  -15.9599   24.1279 O   0  0  0  0  0  0  0  0  0  0  0  0
   10.5709  -21.1222   23.8690 O   0  0  0  0  0  0  0  0  0  0  0  0
    8.3789  -11.8587   26.1959 C   0  0  0  0  0  0  0  0  0  0  0  0
    7.3403  -12.9628   26.5614 C   0  0  1  0  0  0  0  0  0  0  0  0
    5.9974  -12.2725   26.4194 C   0  0  0  0  0  0  0  0  0  0  0  0
    7.5269  -14.0467   25.5777 C   0  0  0  0  0  0  0  0  0  0  0  0
    8.7383  -14.9098   25.7016 C   0  0  2  0  0  0  0  0  0  0  0  0
    8.5586  -15.8885   24.5826 N   0  0  0  0  0  0  0  0  0  0  0  0
    8.8324  -15.7274   26.8931 C   0  0  0  0  0  0  0  0  0  0  0  0
    8.1629  -16.7782   27.0234 O   0  0  0  0  0  0  0  0  0  0  0  0
    9.6684  -15.3979   27.9408 O   0  0  0  0  0  0  0  0  0  0  0  0
  2  1  1  0
  3  2  1  0
  4  3  1  0
  5  7  1  0
  5  4  1  0
  5  6  1  6
  7  9  1  0
  7  8  2  0
  9 10  1  0
 10 11  1  1
 11 12  1  0
 12 13  1  0
 13 17  1  0
 14 13  2  0
 15 10  1  0
 16 15  2  0
 19 18  1  6
 19 21  1  0
 20 19  1  0
 22 21  1  1
 22 24  1  0
 22 23  1  0
 23 15  1  0
 24 26  1  0
 25 24  2  0
M  END
$$$$
