MEL.pdb
     RDKit          3D

 26 25  0  0  1  0  0  0  0  0999 V2000
    7.3694  -11.3672   20.7374 C   0  0  0  0  0  0  0  0  0  0  0  0
    8.0895  -12.0513   19.2136 S   0  0  0  0  0  0  0  0  0  0  0  0
    7.7845  -13.8392   19.2044 C   0  0  0  0  0  0  0  0  0  0  0  0
    8.0733  -14.3606   20.5973 C   0  0  0  0  0  0  0  0  0  0  0  0
    7.9005  -15.8760   20.6512 C   0  0  2  0  0  0  0  0  0  0  0  0
    6.4913  -16.1101   20.4048 N   0  0  0  0  0  0  0  0  0  0  0  0
    8.2588  -16.2579   22.0606 C   0  0  0  0  0  0  0  0  0  0  0  0
    7.3981  -16.2634   22.9761 O   0  0  0  0  0  0  0  0  0  0  0  0
    9.5811  -16.6283   22.4235 N   0  0  0  0  0  0  0  0  0  0  0  0
    9.8684  -17.0209   23.7631 C   0  0  1  0  0  0  0  0  0  0  0  0
   11.1002  -17.8666   23.8524 C   0  0  0  0  0  0  0  0  0  0  0  0
   11.2621  -18.8704   22.7875 C   0  0  0  0  0  0  0  0  0  0  0  0
   12.5130  -19.6467   22.7869 C   0  0  0  0  0  0  0  0  0  0  0  0
   13.6025  -19.1894   22.3952 O   0  0  0  0  0  0  0  0  0  0  0  0
   10.0637  -15.8681   24.6809 C   0  0  0  0  0  0  0  0  0  0  0  0
   10.9769  -15.0195   24.5590 O   0  0  0  0  0  0  0  0  0  0  0  0
   12.5060  -20.9688   23.2451 O   0  0  0  0  0  0  0  0  0  0  0  0
    6.0157  -12.8177   26.2016 C   0  0  0  0  0  0  0  0  0  0  0  0
    7.4420  -13.2941   25.7893 C   0  0  1  0  0  0  0  0  0  0  0  0
    8.2274  -12.0087   25.6130 C   0  0  0  0  0  0  0  0  0  0  0  0
    7.9427  -14.1148   26.9088 C   0  0  0  0  0  0  0  0  0  0  0  0
    9.3146  -14.6926   26.8002 C   0  0  2  0  0  0  0  0  0  0  0  0
    9.1434  -15.7473   25.7511 N   0  0  0  0  0  0  0  0  0  0  0  0
    9.8116  -15.4046   27.9592 C   0  0  0  0  0  0  0  0  0  0  0  0
   10.2228  -14.7989   28.9758 O   0  0  0  0  0  0  0  0  0  0  0  0
    9.8501  -16.7834   28.0082 O   0  0  0  0  0  0  0  0  0  0  0  0
  2  1  1  0
  3  2  1  0
  4  3  1  0
  5  7  1  0
  5  4  1  0
  5  6  1  1
  7  9  1  0
  7  8  2  0
  9 10  1  0
 10 11  1  6
 11 12  1  0
 12 13  1  0
 13 17  1  0
 14 13  2  0
 15 10  1  0
 16 15  2  0
 19 18  1  1
 19 21  1  0
 20 19  1  0
 22 21  1  1
 22 24  1  0
 22 23  1  0
 23 15  1  0
 24 26  1  0
 25 24  2  0
M  END
$$$$
