MEL.pdb
     RDKit          3D

 26 25  0  0  1  0  0  0  0  0999 V2000
    9.0141  -11.6861   19.3851 C   0  0  0  0  0  0  0  0  0  0  0  0
    7.3997  -12.2816   18.7954 S   0  0  0  0  0  0  0  0  0  0  0  0
    7.4943  -14.0855   18.6326 C   0  0  0  0  0  0  0  0  0  0  0  0
    7.7822  -14.6552   20.0066 C   0  0  0  0  0  0  0  0  0  0  0  0
    7.9355  -16.1722   19.9389 C   0  0  2  0  0  0  0  0  0  0  0  0
    6.6243  -16.6744   19.5784 N   0  0  0  0  0  0  0  0  0  0  0  0
    8.2923  -16.5894   21.3386 C   0  0  0  0  0  0  0  0  0  0  0  0
    7.4065  -16.7995   22.2047 O   0  0  0  0  0  0  0  0  0  0  0  0
    9.6412  -16.7647   21.7476 N   0  0  0  0  0  0  0  0  0  0  0  0
    9.9336  -17.1712   23.0819 C   0  0  1  0  0  0  0  0  0  0  0  0
   11.2501  -17.8766   23.1820 C   0  0  0  0  0  0  0  0  0  0  0  0
   11.4279  -19.0247   22.2776 C   0  0  0  0  0  0  0  0  0  0  0  0
   12.7813  -19.5962   22.1831 C   0  0  0  0  0  0  0  0  0  0  0  0
   13.2277  -20.1325   21.1522 O   0  0  0  0  0  0  0  0  0  0  0  0
    9.9720  -16.0381   24.0431 C   0  0  0  0  0  0  0  0  0  0  0  0
   10.8059  -15.1047   23.9962 O   0  0  0  0  0  0  0  0  0  0  0  0
   13.6311  -19.5476   23.2936 O   0  0  0  0  0  0  0  0  0  0  0  0
    8.3262  -12.0985   26.7394 C   0  0  0  0  0  0  0  0  0  0  0  0
    7.3042  -13.2642   26.9073 C   0  0  1  0  0  0  0  0  0  0  0  0
    5.9647  -12.6359   26.5743 C   0  0  0  0  0  0  0  0  0  0  0  0
    7.6997  -14.3027   25.9364 C   0  0  0  0  0  0  0  0  0  0  0  0
    9.0004  -15.0043   26.1458 C   0  0  2  0  0  0  0  0  0  0  0  0
    8.9909  -16.0407   25.0650 N   0  0  0  0  0  0  0  0  0  0  0  0
    9.1405  -15.7567   27.3751 C   0  0  0  0  0  0  0  0  0  0  0  0
    9.3379  -15.1887   28.4741 O   0  0  0  0  0  0  0  0  0  0  0  0
    9.0552  -17.1340   27.4021 O   0  0  0  0  0  0  0  0  0  0  0  0
  2  1  1  0
  3  2  1  0
  4  3  1  0
  5  7  1  0
  5  4  1  0
  5  6  1  1
  7  9  1  0
  7  8  2  0
  9 10  1  0
 10 11  1  6
 11 12  1  0
 12 13  1  0
 13 17  1  0
 14 13  2  0
 15 10  1  0
 16 15  2  0
 19 18  1  6
 19 21  1  0
 20 19  1  0
 22 21  1  1
 22 24  1  0
 22 23  1  0
 23 15  1  0
 24 26  1  0
 25 24  2  0
M  END
$$$$
