MEL.pdb
     RDKit          3D

 26 25  0  0  1  0  0  0  0  0999 V2000
    8.5159  -12.6672   20.2128 C   0  0  0  0  0  0  0  0  0  0  0  0
    8.4688  -13.7152   18.7268 S   0  0  0  0  0  0  0  0  0  0  0  0
    6.9558  -14.7132   18.7938 C   0  0  0  0  0  0  0  0  0  0  0  0
    6.6305  -14.9549   20.2537 C   0  0  0  0  0  0  0  0  0  0  0  0
    7.1493  -16.3184   20.7021 C   0  0  2  0  0  0  0  0  0  0  0  0
    6.2962  -17.2884   20.0444 N   0  0  0  0  0  0  0  0  0  0  0  0
    6.9303  -16.3474   22.1892 C   0  0  0  0  0  0  0  0  0  0  0  0
    6.1045  -15.5799   22.7442 O   0  0  0  0  0  0  0  0  0  0  0  0
    7.6431  -17.2389   23.0345 N   0  0  0  0  0  0  0  0  0  0  0  0
    7.4573  -17.1833   24.4464 C   0  0  1  0  0  0  0  0  0  0  0  0
    7.6280  -18.5229   25.0921 C   0  0  0  0  0  0  0  0  0  0  0  0
    7.3070  -18.5835   26.5278 C   0  0  0  0  0  0  0  0  0  0  0  0
    7.4488  -19.8914   27.1886 C   0  0  0  0  0  0  0  0  0  0  0  0
    6.5870  -20.7873   27.1257 O   0  0  0  0  0  0  0  0  0  0  0  0
    8.3959  -16.2504   25.1232 C   0  0  0  0  0  0  0  0  0  0  0  0
    9.5967  -16.1033   24.7985 O   0  0  0  0  0  0  0  0  0  0  0  0
    8.6015  -20.1688   27.9317 O   0  0  0  0  0  0  0  0  0  0  0  0
    5.8125  -12.0135   27.3897 C   0  0  0  0  0  0  0  0  0  0  0  0
    6.8281  -12.8186   26.5226 C   0  0  1  0  0  0  0  0  0  0  0  0
    7.5777  -11.7552   25.7434 C   0  0  0  0  0  0  0  0  0  0  0  0
    7.6961  -13.5437   27.4704 C   0  0  0  0  0  0  0  0  0  0  0  0
    8.7138  -14.4842   26.9158 C   0  0  2  0  0  0  0  0  0  0  0  0
    7.8708  -15.4931   26.1991 N   0  0  0  0  0  0  0  0  0  0  0  0
    9.4741  -15.2565   27.8763 C   0  0  0  0  0  0  0  0  0  0  0  0
    9.1900  -16.4494   28.1323 O   0  0  0  0  0  0  0  0  0  0  0  0
   10.5535  -14.7236   28.5515 O   0  0  0  0  0  0  0  0  0  0  0  0
  2  1  1  0
  3  2  1  0
  4  3  1  0
  5  7  1  0
  5  4  1  0
  5  6  1  6
  7  9  1  0
  7  8  2  0
  9 10  1  0
 10 11  1  1
 11 12  1  0
 12 13  1  0
 13 17  1  0
 14 13  2  0
 15 10  1  0
 16 15  2  0
 19 18  1  1
 19 21  1  0
 20 19  1  0
 22 21  1  1
 22 24  1  0
 22 23  1  0
 23 15  1  0
 24 26  1  0
 25 24  2  0
M  END
$$$$
