MEL.pdb
     RDKit          3D

 26 25  0  0  1  0  0  0  0  0999 V2000
    7.7456  -11.1016   25.3873 C   0  0  0  0  0  0  0  0  0  0  0  0
    6.3870  -11.9971   26.2001 S   0  0  0  0  0  0  0  0  0  0  0  0
    5.9111  -13.3824   25.1303 C   0  0  0  0  0  0  0  0  0  0  0  0
    6.9773  -14.4507   25.2625 C   0  0  0  0  0  0  0  0  0  0  0  0
    6.6763  -15.6284   24.3396 C   0  0  2  0  0  0  0  0  0  0  0  0
    5.4655  -16.2277   24.8651 N   0  0  0  0  0  0  0  0  0  0  0  0
    7.8423  -16.5625   24.5090 C   0  0  0  0  0  0  0  0  0  0  0  0
    7.9611  -17.2819   25.5324 O   0  0  0  0  0  0  0  0  0  0  0  0
    8.8608  -16.6757   23.5256 N   0  0  0  0  0  0  0  0  0  0  0  0
   10.0279  -17.4483   23.7948 C   0  0  1  0  0  0  0  0  0  0  0  0
   10.8516  -17.6749   22.5658 C   0  0  0  0  0  0  0  0  0  0  0  0
   11.5390  -16.4873   22.0319 C   0  0  0  0  0  0  0  0  0  0  0  0
   12.3235  -16.6683   20.7994 C   0  0  0  0  0  0  0  0  0  0  0  0
   12.0933  -17.5644   19.9665 O   0  0  0  0  0  0  0  0  0  0  0  0
   10.9195  -16.8264   24.8086 C   0  0  0  0  0  0  0  0  0  0  0  0
   11.4694  -15.7095   24.6702 O   0  0  0  0  0  0  0  0  0  0  0  0
   13.3880  -15.8028   20.5244 O   0  0  0  0  0  0  0  0  0  0  0  0
   11.4503  -13.9063   28.1124 C   0  0  0  0  0  0  0  0  0  0  0  0
   10.9091  -15.1742   28.8411 C   0  0  1  0  0  0  0  0  0  0  0  0
    9.6572  -14.6915   29.5480 C   0  0  0  0  0  0  0  0  0  0  0  0
   10.6179  -16.1638   27.7860 C   0  0  0  0  0  0  0  0  0  0  0  0
   11.7599  -16.9255   27.1998 C   0  0  2  0  0  0  0  0  0  0  0  0
   11.1420  -17.5665   25.9958 N   0  0  0  0  0  0  0  0  0  0  0  0
   12.2716  -18.0309   27.9828 C   0  0  0  0  0  0  0  0  0  0  0  0
   11.6315  -19.1008   28.1055 O   0  0  0  0  0  0  0  0  0  0  0  0
   13.4913  -17.9677   28.6257 O   0  0  0  0  0  0  0  0  0  0  0  0
  2  1  1  0
  3  2  1  0
  4  3  1  0
  5  7  1  0
  5  4  1  0
  5  6  1  1
  7  9  1  0
  7  8  2  0
  9 10  1  0
 10 11  1  6
 11 12  1  0
 12 13  1  0
 13 17  1  0
 14 13  2  0
 15 10  1  0
 16 15  2  0
 19 18  1  6
 19 21  1  0
 20 19  1  0
 22 21  1  1
 22 24  1  0
 22 23  1  0
 23 15  1  0
 24 26  1  0
 25 24  2  0
M  END
$$$$
