MEL.pdb
     RDKit          3D

 26 25  0  0  1  0  0  0  0  0999 V2000
    9.0433  -11.5313   19.9743 C   0  0  0  0  0  0  0  0  0  0  0  0
    7.7340  -12.0515   18.8238 S   0  0  0  0  0  0  0  0  0  0  0  0
    7.8366  -13.8527   18.6370 C   0  0  0  0  0  0  0  0  0  0  0  0
    7.9698  -14.4503   20.0229 C   0  0  0  0  0  0  0  0  0  0  0  0
    8.1195  -15.9671   19.9427 C   0  0  2  0  0  0  0  0  0  0  0  0
    6.8371  -16.4547   19.4748 N   0  0  0  0  0  0  0  0  0  0  0  0
    8.3656  -16.4084   21.3588 C   0  0  0  0  0  0  0  0  0  0  0  0
    7.4478  -16.3962   22.2170 O   0  0  0  0  0  0  0  0  0  0  0  0
    9.6412  -16.8576   21.7928 N   0  0  0  0  0  0  0  0  0  0  0  0
    9.8318  -17.2599   23.1468 C   0  0  1  0  0  0  0  0  0  0  0  0
   11.0725  -18.0783   23.3239 C   0  0  0  0  0  0  0  0  0  0  0  0
   11.3180  -18.5758   24.6877 C   0  0  0  0  0  0  0  0  0  0  0  0
   12.5683  -19.3201   24.9115 C   0  0  0  0  0  0  0  0  0  0  0  0
   13.6929  -18.7865   24.9069 O   0  0  0  0  0  0  0  0  0  0  0  0
    9.9270  -16.1143   24.0890 C   0  0  0  0  0  0  0  0  0  0  0  0
   10.7351  -15.1656   23.9625 O   0  0  0  0  0  0  0  0  0  0  0  0
   12.5196  -20.6990   25.1440 O   0  0  0  0  0  0  0  0  0  0  0  0
    5.8812  -12.9292   26.5659 C   0  0  0  0  0  0  0  0  0  0  0  0
    7.3240  -13.1598   26.0215 C   0  0  1  0  0  0  0  0  0  0  0  0
    8.1916  -12.2485   26.8683 C   0  0  0  0  0  0  0  0  0  0  0  0
    7.6233  -14.5884   26.2379 C   0  0  0  0  0  0  0  0  0  0  0  0
    9.0511  -15.0221   26.2043 C   0  0  2  0  0  0  0  0  0  0  0  0
    9.0348  -16.1231   25.1893 N   0  0  0  0  0  0  0  0  0  0  0  0
    9.5696  -15.6392   27.4073 C   0  0  0  0  0  0  0  0  0  0  0  0
   10.1873  -14.9758   28.2721 O   0  0  0  0  0  0  0  0  0  0  0  0
    9.4035  -16.9843   27.6681 O   0  0  0  0  0  0  0  0  0  0  0  0
  2  1  1  0
  3  2  1  0
  4  3  1  0
  5  7  1  0
  5  4  1  0
  5  6  1  1
  7  9  1  0
  7  8  2  0
  9 10  1  0
 10 11  1  6
 11 12  1  0
 12 13  1  0
 13 17  1  0
 14 13  2  0
 15 10  1  0
 16 15  2  0
 19 18  1  1
 19 21  1  0
 20 19  1  0
 22 21  1  1
 22 24  1  0
 22 23  1  0
 23 15  1  0
 24 26  1  0
 25 24  2  0
M  END
$$$$
