AHK.pdb
     RDKit          3D

 25 25  0  0  1  0  0  0  0  0999 V2000
   10.6222  -20.5687   16.0353 C   0  0  0  0  0  0  0  0  0  0  0  0
   10.6871  -19.2040   15.4263 C   0  0  2  0  0  0  0  0  0  0  0  0
   11.8904  -19.1188   14.6218 N   0  0  0  0  0  0  0  0  0  0  0  0
   10.7956  -18.1889   16.5135 C   0  0  0  0  0  0  0  0  0  0  0  0
   11.9374  -17.8337   16.9459 O   0  0  0  0  0  0  0  0  0  0  0  0
    9.6000  -17.6588   17.0210 N   0  0  0  0  0  0  0  0  0  0  0  0
    9.6382  -16.5748   18.0242 C   0  0  1  0  0  0  0  0  0  0  0  0
    8.3662  -15.7972   17.9707 C   0  0  0  0  0  0  0  0  0  0  0  0
    8.1832  -14.7510   18.9651 C   0  0  0  0  0  0  0  0  0  0  0  0
    8.9413  -14.2269   19.9678 C   0  0  0  0  0  0  0  0  0  0  0  0
    8.2742  -13.2011   20.5593 N   0  0  0  0  0  0  0  0  0  0  0  0
    7.1151  -13.0792   19.9391 C   0  0  0  0  0  0  0  0  0  0  0  0
    7.0316  -13.9988   18.9739 N   0  0  0  0  0  0  0  0  0  0  0  0
    9.7768  -17.3062   19.3323 C   0  0  0  0  0  0  0  0  0  0  0  0
    9.1654  -18.3827   19.5256 O   0  0  0  0  0  0  0  0  0  0  0  0
   10.5998  -16.7785   20.3515 N   0  0  0  0  0  0  0  0  0  0  0  0
   10.6919  -17.4272   21.6781 C   0  0  1  0  0  0  0  0  0  0  0  0
   12.1267  -17.4849   22.1191 C   0  0  0  0  0  0  0  0  0  0  0  0
   12.2666  -18.2135   23.4214 C   0  0  0  0  0  0  0  0  0  0  0  0
   13.6947  -18.3809   23.8187 C   0  0  0  0  0  0  0  0  0  0  0  0
   13.8378  -19.1196   25.1401 C   0  0  0  0  0  0  0  0  0  0  0  0
   15.2572  -19.1982   25.4467 N   0  0  0  0  0  0  0  0  0  0  0  0
    9.7874  -16.7566   22.6337 C   0  0  0  0  0  0  0  0  0  0  0  0
    9.3322  -17.4808   23.7276 O   0  0  0  0  0  0  0  0  0  0  0  0
    9.3832  -15.5744   22.5513 O   0  0  0  0  0  0  0  0  0  0  0  0
  2  4  1  0
  2  1  1  1
  3  2  1  0
  4  5  2  0
  6  7  1  0
  6  4  1  0
  7  8  1  1
  9  8  1  0
 10  9  2  0
 11 12  1  0
 11 10  1  0
 12 13  2  0
 13  9  1  0
 14 15  2  0
 14  7  1  0
 16 14  1  0
 17 16  1  0
 17 23  1  0
 17 18  1  1
 19 20  1  0
 19 18  1  0
 21 20  1  0
 22 21  1  0
 23 25  2  0
 23 24  1  0
M  END
$$$$
