AHK.pdb
     RDKit          3D

 25 25  0  0  1  0  0  0  0  0999 V2000
    6.1366  -18.9933   21.6043 C   0  0  0  0  0  0  0  0  0  0  0  0
    6.1577  -18.1234   20.3876 C   0  0  2  0  0  0  0  0  0  0  0  0
    6.0985  -18.9747   19.2154 N   0  0  0  0  0  0  0  0  0  0  0  0
    7.4489  -17.3784   20.3424 C   0  0  0  0  0  0  0  0  0  0  0  0
    8.4168  -17.8170   19.6440 O   0  0  0  0  0  0  0  0  0  0  0  0
    7.5367  -16.1960   21.0924 N   0  0  0  0  0  0  0  0  0  0  0  0
    8.7645  -15.3760   21.0400 C   0  0  1  0  0  0  0  0  0  0  0  0
    8.4193  -13.9816   20.6377 C   0  0  0  0  0  0  0  0  0  0  0  0
    8.0726  -13.7578   19.2425 C   0  0  0  0  0  0  0  0  0  0  0  0
    7.0717  -13.1066   18.5875 C   0  0  0  0  0  0  0  0  0  0  0  0
    7.2812  -13.1738   17.2463 N   0  0  0  0  0  0  0  0  0  0  0  0
    8.3965  -13.8549   17.0584 C   0  0  0  0  0  0  0  0  0  0  0  0
    8.8962  -14.2197   18.2423 N   0  0  0  0  0  0  0  0  0  0  0  0
    9.2844  -15.4244   22.4516 C   0  0  0  0  0  0  0  0  0  0  0  0
    8.4899  -15.4559   23.4201 O   0  0  0  0  0  0  0  0  0  0  0  0
   10.6764  -15.4338   22.6906 N   0  0  0  0  0  0  0  0  0  0  0  0
   11.2676  -16.2728   23.7563 C   0  0  1  0  0  0  0  0  0  0  0  0
   10.8526  -17.7041   23.5679 C   0  0  0  0  0  0  0  0  0  0  0  0
   11.4548  -18.5878   24.6180 C   0  0  0  0  0  0  0  0  0  0  0  0
   11.0796  -20.0191   24.4278 C   0  0  0  0  0  0  0  0  0  0  0  0
   11.7227  -20.9219   25.4688 C   0  0  0  0  0  0  0  0  0  0  0  0
   11.2642  -22.2785   25.2154 N   0  0  0  0  0  0  0  0  0  0  0  0
   12.7286  -16.0645   23.8127 C   0  0  0  0  0  0  0  0  0  0  0  0
   13.3897  -15.7207   22.6410 O   0  0  0  0  0  0  0  0  0  0  0  0
   13.4431  -16.1702   24.8355 O   0  0  0  0  0  0  0  0  0  0  0  0
  2  4  1  0
  2  1  1  1
  3  2  1  0
  4  5  2  0
  6  7  1  0
  6  4  1  0
  7  8  1  1
  9  8  1  0
 10  9  2  0
 11 12  1  0
 11 10  1  0
 12 13  2  0
 13  9  1  0
 14 15  2  0
 14  7  1  0
 16 14  1  0
 17 16  1  0
 17 23  1  0
 17 18  1  6
 19 20  1  0
 19 18  1  0
 21 20  1  0
 22 21  1  0
 23 25  2  0
 23 24  1  0
M  END
$$$$
