AHK.pdb
     RDKit          3D

 25 25  0  0  1  0  0  0  0  0999 V2000
    7.3783  -14.7814   18.8644 C   0  0  0  0  0  0  0  0  0  0  0  0
    7.5840  -13.4272   19.4655 C   0  0  2  0  0  0  0  0  0  0  0  0
    8.5716  -12.7203   18.6734 N   0  0  0  0  0  0  0  0  0  0  0  0
    8.1344  -13.5829   20.8429 C   0  0  0  0  0  0  0  0  0  0  0  0
    9.3884  -13.6930   21.0224 O   0  0  0  0  0  0  0  0  0  0  0  0
    7.2175  -13.6003   21.9045 N   0  0  0  0  0  0  0  0  0  0  0  0
    7.7010  -13.6744   23.2987 C   0  0  1  0  0  0  0  0  0  0  0  0
    6.6138  -13.2530   24.2293 C   0  0  0  0  0  0  0  0  0  0  0  0
    6.9690  -13.0688   25.6281 C   0  0  0  0  0  0  0  0  0  0  0  0
    8.1123  -13.1863   26.3588 C   0  0  0  0  0  0  0  0  0  0  0  0
    7.8722  -12.8276   27.6476 N   0  0  0  0  0  0  0  0  0  0  0  0
    6.5989  -12.4883   27.7282 C   0  0  0  0  0  0  0  0  0  0  0  0
    6.0288  -12.6230   26.5277 N   0  0  0  0  0  0  0  0  0  0  0  0
    8.0416  -15.1292   23.4796 C   0  0  0  0  0  0  0  0  0  0  0  0
    7.2887  -16.0194   23.0204 O   0  0  0  0  0  0  0  0  0  0  0  0
    9.2164  -15.4976   24.1716 N   0  0  0  0  0  0  0  0  0  0  0  0
    9.5590  -16.9183   24.4024 C   0  0  1  0  0  0  0  0  0  0  0  0
   10.6812  -17.3269   23.4913 C   0  0  0  0  0  0  0  0  0  0  0  0
   11.1342  -18.7261   23.7799 C   0  0  0  0  0  0  0  0  0  0  0  0
   12.2601  -19.1439   22.8949 C   0  0  0  0  0  0  0  0  0  0  0  0
   12.7060  -20.5710   23.1721 C   0  0  0  0  0  0  0  0  0  0  0  0
   13.6862  -20.9283   22.1591 N   0  0  0  0  0  0  0  0  0  0  0  0
    9.8243  -17.1487   25.8368 C   0  0  0  0  0  0  0  0  0  0  0  0
    9.8558  -16.0494   26.6847 O   0  0  0  0  0  0  0  0  0  0  0  0
   10.0277  -18.2617   26.3731 O   0  0  0  0  0  0  0  0  0  0  0  0
  2  4  1  0
  2  1  1  6
  3  2  1  0
  4  5  2  0
  6  7  1  0
  6  4  1  0
  7  8  1  1
  9  8  1  0
 10  9  2  0
 11 12  1  0
 11 10  1  0
 12 13  2  0
 13  9  1  0
 14 15  2  0
 14  7  1  0
 16 14  1  0
 17 16  1  0
 17 23  1  0
 17 18  1  6
 19 20  1  0
 19 18  1  0
 21 20  1  0
 22 21  1  0
 23 25  2  0
 23 24  1  0
M  END
$$$$
