AHK.pdb
     RDKit          3D

 25 25  0  0  1  0  0  0  0  0999 V2000
    9.3519  -19.5745   18.8343 C   0  0  0  0  0  0  0  0  0  0  0  0
    8.8028  -19.4300   20.2182 C   0  0  2  0  0  0  0  0  0  0  0  0
    7.3689  -19.6384   20.1655 N   0  0  0  0  0  0  0  0  0  0  0  0
    9.0414  -18.0372   20.6951 C   0  0  0  0  0  0  0  0  0  0  0  0
   10.2268  -17.5858   20.7854 O   0  0  0  0  0  0  0  0  0  0  0  0
    7.9160  -17.2696   21.0301 N   0  0  0  0  0  0  0  0  0  0  0  0
    8.0777  -15.8601   21.4426 C   0  0  1  0  0  0  0  0  0  0  0  0
    7.1913  -14.9909   20.6154 C   0  0  0  0  0  0  0  0  0  0  0  0
    7.7004  -14.5593   19.3226 C   0  0  0  0  0  0  0  0  0  0  0  0
    8.8596  -14.7396   18.6309 C   0  0  0  0  0  0  0  0  0  0  0  0
    8.7660  -14.1408   17.4144 N   0  0  0  0  0  0  0  0  0  0  0  0
    7.5671  -13.5931   17.3394 C   0  0  0  0  0  0  0  0  0  0  0  0
    6.9020  -13.8286   18.4736 N   0  0  0  0  0  0  0  0  0  0  0  0
    7.6497  -15.8610   22.8855 C   0  0  0  0  0  0  0  0  0  0  0  0
    6.5491  -16.3572   23.2210 O   0  0  0  0  0  0  0  0  0  0  0  0
    8.4911  -15.2992   23.8709 N   0  0  0  0  0  0  0  0  0  0  0  0
    8.1067  -15.2972   25.2997 C   0  0  1  0  0  0  0  0  0  0  0  0
    9.2015  -15.9132   26.1233 C   0  0  0  0  0  0  0  0  0  0  0  0
    9.4358  -17.3418   25.7355 C   0  0  0  0  0  0  0  0  0  0  0  0
   10.5348  -17.9645   26.5292 C   0  0  0  0  0  0  0  0  0  0  0  0
   10.8498  -19.3763   26.0602 C   0  0  0  0  0  0  0  0  0  0  0  0
   11.9398  -19.8779   26.8817 N   0  0  0  0  0  0  0  0  0  0  0  0
    7.7225  -13.9342   25.7189 C   0  0  0  0  0  0  0  0  0  0  0  0
    6.8947  -13.7951   26.8251 O   0  0  0  0  0  0  0  0  0  0  0  0
    8.0781  -12.8706   25.1621 O   0  0  0  0  0  0  0  0  0  0  0  0
  2  4  1  0
  2  1  1  6
  3  2  1  0
  4  5  2  0
  6  7  1  0
  6  4  1  0
  7  8  1  6
  9  8  1  0
 10  9  2  0
 11 12  1  0
 11 10  1  0
 12 13  2  0
 13  9  1  0
 14 15  2  0
 14  7  1  0
 16 14  1  0
 17 16  1  0
 17 23  1  0
 17 18  1  1
 19 20  1  0
 19 18  1  0
 21 20  1  0
 22 21  1  0
 23 25  2  0
 23 24  1  0
M  END
$$$$
