AHK.pdb
     RDKit          3D

 25 25  0  0  1  0  0  0  0  0999 V2000
    9.5515  -18.1519   17.3923 C   0  0  0  0  0  0  0  0  0  0  0  0
    9.8167  -18.4253   18.8389 C   0  0  2  0  0  0  0  0  0  0  0  0
    8.6024  -18.9459   19.4361 N   0  0  0  0  0  0  0  0  0  0  0  0
   10.1463  -17.1431   19.5256 C   0  0  0  0  0  0  0  0  0  0  0  0
   11.1822  -16.4858   19.1912 O   0  0  0  0  0  0  0  0  0  0  0  0
    9.2736  -16.7106   20.5353 N   0  0  0  0  0  0  0  0  0  0  0  0
    9.5132  -15.4230   21.2189 C   0  0  1  0  0  0  0  0  0  0  0  0
    8.2772  -14.5893   21.1653 C   0  0  0  0  0  0  0  0  0  0  0  0
    7.9268  -14.0000   19.8820 C   0  0  0  0  0  0  0  0  0  0  0  0
    8.1688  -12.8094   19.2666 C   0  0  0  0  0  0  0  0  0  0  0  0
    7.6345  -12.8217   18.0170 N   0  0  0  0  0  0  0  0  0  0  0  0
    7.0661  -14.0010   17.8465 C   0  0  0  0  0  0  0  0  0  0  0  0
    7.2259  -14.7327   18.9526 N   0  0  0  0  0  0  0  0  0  0  0  0
    9.8392  -15.8262   22.6318 C   0  0  0  0  0  0  0  0  0  0  0  0
    8.9792  -16.3944   23.3444 O   0  0  0  0  0  0  0  0  0  0  0  0
   11.1216  -15.5636   23.1620 N   0  0  0  0  0  0  0  0  0  0  0  0
   11.7631  -16.4929   24.1181 C   0  0  1  0  0  0  0  0  0  0  0  0
   11.7000  -17.8961   23.5859 C   0  0  0  0  0  0  0  0  0  0  0  0
   12.2404  -18.8796   24.5794 C   0  0  0  0  0  0  0  0  0  0  0  0
   12.6639  -20.1548   23.9315 C   0  0  0  0  0  0  0  0  0  0  0  0
   13.1544  -21.1762   24.9457 C   0  0  0  0  0  0  0  0  0  0  0  0
   13.6363  -22.3317   24.2060 N   0  0  0  0  0  0  0  0  0  0  0  0
   13.1259  -16.0250   24.4423 C   0  0  0  0  0  0  0  0  0  0  0  0
   13.8791  -15.4427   23.4314 O   0  0  0  0  0  0  0  0  0  0  0  0
   13.6788  -16.1043   25.5629 O   0  0  0  0  0  0  0  0  0  0  0  0
  2  4  1  0
  2  1  1  6
  3  2  1  0
  4  5  2  0
  6  7  1  0
  6  4  1  0
  7  8  1  1
  9  8  1  0
 10  9  2  0
 11 12  1  0
 11 10  1  0
 12 13  2  0
 13  9  1  0
 14 15  2  0
 14  7  1  0
 16 14  1  0
 17 16  1  0
 17 23  1  0
 17 18  1  6
 19 20  1  0
 19 18  1  0
 21 20  1  0
 22 21  1  0
 23 25  2  0
 23 24  1  0
M  END
$$$$
