AHK.pdb
     RDKit          3D

 25 25  0  0  1  0  0  0  0  0999 V2000
    5.0607  -17.8826   23.5273 C   0  0  0  0  0  0  0  0  0  0  0  0
    5.2345  -17.7087   22.0518 C   0  0  2  0  0  0  0  0  0  0  0  0
    5.0939  -19.0055   21.4187 N   0  0  0  0  0  0  0  0  0  0  0  0
    6.6156  -17.2174   21.7774 C   0  0  0  0  0  0  0  0  0  0  0  0
    7.5149  -18.0241   21.3809 O   0  0  0  0  0  0  0  0  0  0  0  0
    6.8639  -15.8507   21.9743 N   0  0  0  0  0  0  0  0  0  0  0  0
    8.2051  -15.2953   21.6999 C   0  0  1  0  0  0  0  0  0  0  0  0
    8.0716  -13.9349   21.1022 C   0  0  0  0  0  0  0  0  0  0  0  0
    8.0465  -13.8453   19.6503 C   0  0  0  0  0  0  0  0  0  0  0  0
    7.8206  -12.8516   18.7468 C   0  0  0  0  0  0  0  0  0  0  0  0
    7.9850  -13.3316   17.4860 N   0  0  0  0  0  0  0  0  0  0  0  0
    8.3105  -14.6066   17.5924 C   0  0  0  0  0  0  0  0  0  0  0  0
    8.3557  -14.9448   18.8839 N   0  0  0  0  0  0  0  0  0  0  0  0
    8.8490  -15.2340   23.0589 C   0  0  0  0  0  0  0  0  0  0  0  0
    8.1577  -15.0087   24.0794 O   0  0  0  0  0  0  0  0  0  0  0  0
   10.2416  -15.4306   23.1890 N   0  0  0  0  0  0  0  0  0  0  0  0
   10.8195  -16.0592   24.3972 C   0  0  1  0  0  0  0  0  0  0  0  0
   10.2437  -17.4343   24.5819 C   0  0  0  0  0  0  0  0  0  0  0  0
   10.8947  -18.1472   25.7282 C   0  0  0  0  0  0  0  0  0  0  0  0
   10.4529  -19.5687   25.8271 C   0  0  0  0  0  0  0  0  0  0  0  0
   11.0185  -20.2589   27.0584 C   0  0  0  0  0  0  0  0  0  0  0  0
   10.4362  -21.5900   27.1208 N   0  0  0  0  0  0  0  0  0  0  0  0
   12.2944  -16.0203   24.3321 C   0  0  0  0  0  0  0  0  0  0  0  0
   12.9972  -15.7450   25.4978 O   0  0  0  0  0  0  0  0  0  0  0  0
   12.9864  -16.2153   23.3070 O   0  0  0  0  0  0  0  0  0  0  0  0
  2  4  1  0
  2  1  1  1
  3  2  1  0
  4  5  2  0
  6  7  1  0
  6  4  1  0
  7  8  1  1
  9  8  1  0
 10  9  2  0
 11 12  1  0
 11 10  1  0
 12 13  2  0
 13  9  1  0
 14 15  2  0
 14  7  1  0
 16 14  1  0
 17 16  1  0
 17 23  1  0
 17 18  1  6
 19 20  1  0
 19 18  1  0
 21 20  1  0
 22 21  1  0
 23 25  2  0
 23 24  1  0
M  END
$$$$
