AHK.pdb
     RDKit          3D

 25 25  0  0  1  0  0  0  0  0999 V2000
    8.4968  -12.2695   19.4259 C   0  0  0  0  0  0  0  0  0  0  0  0
    8.7415  -13.5337   18.6647 C   0  0  2  0  0  0  0  0  0  0  0  0
    7.7024  -13.6731   17.6631 N   0  0  0  0  0  0  0  0  0  0  0  0
    8.6321  -14.6933   19.5961 C   0  0  0  0  0  0  0  0  0  0  0  0
    7.5101  -15.2626   19.7805 O   0  0  0  0  0  0  0  0  0  0  0  0
    9.8045  -15.1134   20.2420 N   0  0  0  0  0  0  0  0  0  0  0  0
    9.7546  -16.2186   21.2211 C   0  0  1  0  0  0  0  0  0  0  0  0
   10.8838  -17.1610   20.9713 C   0  0  0  0  0  0  0  0  0  0  0  0
   10.6812  -18.1906   19.9636 C   0  0  0  0  0  0  0  0  0  0  0  0
    9.6607  -18.5437   19.1337 C   0  0  0  0  0  0  0  0  0  0  0  0
   10.0506  -19.5759   18.3402 N   0  0  0  0  0  0  0  0  0  0  0  0
   11.2969  -19.8683   18.6633 C   0  0  0  0  0  0  0  0  0  0  0  0
   11.7041  -19.0506   19.6379 N   0  0  0  0  0  0  0  0  0  0  0  0
    9.9056  -15.5247   22.5481 C   0  0  0  0  0  0  0  0  0  0  0  0
   10.9385  -14.8634   22.8049 O   0  0  0  0  0  0  0  0  0  0  0  0
    8.8787  -15.6176   23.5133 N   0  0  0  0  0  0  0  0  0  0  0  0
    8.9251  -14.8275   24.7634 C   0  0  1  0  0  0  0  0  0  0  0  0
    7.6384  -14.0721   24.9373 C   0  0  0  0  0  0  0  0  0  0  0  0
    7.6192  -13.3219   26.2347 C   0  0  0  0  0  0  0  0  0  0  0  0
    6.3263  -12.6095   26.4504 C   0  0  0  0  0  0  0  0  0  0  0  0
    6.3060  -11.8476   27.7663 C   0  0  0  0  0  0  0  0  0  0  0  0
    4.9689  -11.3017   27.9358 N   0  0  0  0  0  0  0  0  0  0  0  0
    9.2776  -15.7003   25.9014 C   0  0  0  0  0  0  0  0  0  0  0  0
    9.2793  -17.0744   25.7006 O   0  0  0  0  0  0  0  0  0  0  0  0
    9.5812  -15.3134   27.0529 O   0  0  0  0  0  0  0  0  0  0  0  0
  2  4  1  0
  2  1  1  1
  3  2  1  0
  4  5  2  0
  6  7  1  0
  6  4  1  0
  7  8  1  6
  9  8  1  0
 10  9  2  0
 11 12  1  0
 11 10  1  0
 12 13  2  0
 13  9  1  0
 14 15  2  0
 14  7  1  0
 16 14  1  0
 17 16  1  0
 17 23  1  0
 17 18  1  1
 19 20  1  0
 19 18  1  0
 21 20  1  0
 22 21  1  0
 23 25  2  0
 23 24  1  0
M  END
$$$$
