AHK.pdb
     RDKit          3D

 25 25  0  0  1  0  0  0  0  0999 V2000
    7.4791  -13.3898   18.4775 C   0  0  0  0  0  0  0  0  0  0  0  0
    8.1229  -14.4702   19.2874 C   0  0  2  0  0  0  0  0  0  0  0  0
    7.1778  -15.5607   19.4287 N   0  0  0  0  0  0  0  0  0  0  0  0
    8.4189  -13.9467   20.6522 C   0  0  0  0  0  0  0  0  0  0  0  0
    9.1838  -12.9418   20.8003 O   0  0  0  0  0  0  0  0  0  0  0  0
    7.8223  -14.6053   21.7378 N   0  0  0  0  0  0  0  0  0  0  0  0
    8.0643  -14.1297   23.1155 C   0  0  1  0  0  0  0  0  0  0  0  0
    6.7610  -13.9371   23.8154 C   0  0  0  0  0  0  0  0  0  0  0  0
    6.8070  -13.4527   25.1865 C   0  0  0  0  0  0  0  0  0  0  0  0
    6.2718  -13.8550   26.3725 C   0  0  0  0  0  0  0  0  0  0  0  0
    6.7031  -13.0398   27.3708 N   0  0  0  0  0  0  0  0  0  0  0  0
    7.4982  -12.1389   26.8238 C   0  0  0  0  0  0  0  0  0  0  0  0
    7.5805  -12.3621   25.5093 N   0  0  0  0  0  0  0  0  0  0  0  0
    8.8609  -15.2431   23.7408 C   0  0  0  0  0  0  0  0  0  0  0  0
    8.5863  -16.4394   23.4886 O   0  0  0  0  0  0  0  0  0  0  0  0
    9.9252  -14.9417   24.6189 N   0  0  0  0  0  0  0  0  0  0  0  0
   10.6454  -16.0085   25.3485 C   0  0  1  0  0  0  0  0  0  0  0  0
    9.6654  -16.8628   26.1009 C   0  0  0  0  0  0  0  0  0  0  0  0
   10.3452  -18.0347   26.7418 C   0  0  0  0  0  0  0  0  0  0  0  0
    9.3794  -18.9229   27.4517 C   0  0  0  0  0  0  0  0  0  0  0  0
   10.0679  -20.1136   28.1001 C   0  0  0  0  0  0  0  0  0  0  0  0
    9.0832  -20.7916   28.9280 N   0  0  0  0  0  0  0  0  0  0  0  0
   11.5184  -16.7559   24.4209 C   0  0  0  0  0  0  0  0  0  0  0  0
   11.3301  -16.5817   23.0562 O   0  0  0  0  0  0  0  0  0  0  0  0
   12.4302  -17.5473   24.7527 O   0  0  0  0  0  0  0  0  0  0  0  0
  2  4  1  0
  2  1  1  6
  3  2  1  0
  4  5  2  0
  6  7  1  0
  6  4  1  0
  7  8  1  1
  9  8  1  0
 10  9  2  0
 11 12  1  0
 11 10  1  0
 12 13  2  0
 13  9  1  0
 14 15  2  0
 14  7  1  0
 16 14  1  0
 17 16  1  0
 17 23  1  0
 17 18  1  6
 19 20  1  0
 19 18  1  0
 21 20  1  0
 22 21  1  0
 23 25  2  0
 23 24  1  0
M  END
$$$$
