AHK.pdb
     RDKit          3D

 25 25  0  0  1  0  0  0  0  0999 V2000
    9.3381  -20.1499   17.8819 C   0  0  0  0  0  0  0  0  0  0  0  0
    9.1713  -18.7529   17.3739 C   0  0  2  0  0  0  0  0  0  0  0  0
    9.9449  -18.6137   16.1555 N   0  0  0  0  0  0  0  0  0  0  0  0
    9.7281  -17.7992   18.3762 C   0  0  0  0  0  0  0  0  0  0  0  0
   10.9534  -17.4627   18.3277 O   0  0  0  0  0  0  0  0  0  0  0  0
    8.8494  -17.3041   19.3514 N   0  0  0  0  0  0  0  0  0  0  0  0
    9.3435  -16.3776   20.3908 C   0  0  1  0  0  0  0  0  0  0  0  0
    8.2676  -15.4093   20.7516 C   0  0  0  0  0  0  0  0  0  0  0  0
    7.9812  -14.3471   19.7995 C   0  0  0  0  0  0  0  0  0  0  0  0
    8.4004  -13.0626   19.6290 C   0  0  0  0  0  0  0  0  0  0  0  0
    7.8327  -12.5391   18.5107 N   0  0  0  0  0  0  0  0  0  0  0  0
    7.0689  -13.4782   17.9837 C   0  0  0  0  0  0  0  0  0  0  0  0
    7.1382  -14.5788   18.7376 N   0  0  0  0  0  0  0  0  0  0  0  0
    9.6732  -17.2837   21.5465 C   0  0  0  0  0  0  0  0  0  0  0  0
    8.8915  -18.2072   21.8722 O   0  0  0  0  0  0  0  0  0  0  0  0
   10.8703  -17.0944   22.2717 N   0  0  0  0  0  0  0  0  0  0  0  0
   11.2246  -17.9685   23.4117 C   0  0  1  0  0  0  0  0  0  0  0  0
   12.7149  -18.1457   23.4745 C   0  0  0  0  0  0  0  0  0  0  0  0
   13.1153  -18.9690   24.6612 C   0  0  0  0  0  0  0  0  0  0  0  0
   14.5922  -19.1668   24.7328 C   0  0  0  0  0  0  0  0  0  0  0  0
   14.9924  -20.0733   25.8863 C   0  0  0  0  0  0  0  0  0  0  0  0
   16.4240  -20.3068   25.7837 N   0  0  0  0  0  0  0  0  0  0  0  0
   10.6200  -17.4493   24.6550 C   0  0  0  0  0  0  0  0  0  0  0  0
   10.5134  -18.3064   25.7424 O   0  0  0  0  0  0  0  0  0  0  0  0
   10.1856  -16.2876   24.8270 O   0  0  0  0  0  0  0  0  0  0  0  0
  2  4  1  0
  2  1  1  1
  3  2  1  0
  4  5  2  0
  6  7  1  0
  6  4  1  0
  7  8  1  1
  9  8  1  0
 10  9  2  0
 11 12  1  0
 11 10  1  0
 12 13  2  0
 13  9  1  0
 14 15  2  0
 14  7  1  0
 16 14  1  0
 17 16  1  0
 17 23  1  0
 17 18  1  1
 19 20  1  0
 19 18  1  0
 21 20  1  0
 22 21  1  0
 23 25  2  0
 23 24  1  0
M  END
$$$$
