AHK.pdb
     RDKit          3D

 25 25  0  0  1  0  0  0  0  0999 V2000
    4.9556  -18.5541   22.8377 C   0  0  0  0  0  0  0  0  0  0  0  0
    5.0756  -18.1352   21.4067 C   0  0  2  0  0  0  0  0  0  0  0  0
    4.8226  -19.2911   20.5688 N   0  0  0  0  0  0  0  0  0  0  0  0
    6.4727  -17.6830   21.1459 C   0  0  0  0  0  0  0  0  0  0  0  0
    7.3380  -18.5020   20.7016 O   0  0  0  0  0  0  0  0  0  0  0  0
    6.7742  -16.3385   21.4096 N   0  0  0  0  0  0  0  0  0  0  0  0
    8.1190  -15.8082   21.1048 C   0  0  1  0  0  0  0  0  0  0  0  0
    8.0121  -14.3795   20.6889 C   0  0  0  0  0  0  0  0  0  0  0  0
    7.9472  -14.1047   19.2616 C   0  0  0  0  0  0  0  0  0  0  0  0
    7.9471  -14.8626   18.1301 C   0  0  0  0  0  0  0  0  0  0  0  0
    7.8066  -14.0616   17.0412 N   0  0  0  0  0  0  0  0  0  0  0  0
    7.7182  -12.8191   17.4785 C   0  0  0  0  0  0  0  0  0  0  0  0
    7.7994  -12.8132   18.8119 N   0  0  0  0  0  0  0  0  0  0  0  0
    8.8582  -15.9437   22.4088 C   0  0  0  0  0  0  0  0  0  0  0  0
    8.3596  -15.5019   23.4700 O   0  0  0  0  0  0  0  0  0  0  0  0
   10.1228  -16.5718   22.4406 N   0  0  0  0  0  0  0  0  0  0  0  0
   10.8612  -16.7492   23.7104 C   0  0  1  0  0  0  0  0  0  0  0  0
   10.8562  -18.1985   24.1051 C   0  0  0  0  0  0  0  0  0  0  0  0
   11.5286  -18.4042   25.4287 C   0  0  0  0  0  0  0  0  0  0  0  0
   11.5286  -19.8382   25.8398 C   0  0  0  0  0  0  0  0  0  0  0  0
   12.1802  -20.0435   27.1984 C   0  0  0  0  0  0  0  0  0  0  0  0
   12.0880  -21.4588   27.5192 N   0  0  0  0  0  0  0  0  0  0  0  0
   12.2076  -16.1523   23.6010 C   0  0  0  0  0  0  0  0  0  0  0  0
   12.8761  -15.8183   24.7714 O   0  0  0  0  0  0  0  0  0  0  0  0
   12.8169  -15.9136   22.5335 O   0  0  0  0  0  0  0  0  0  0  0  0
  2  4  1  0
  2  1  1  1
  3  2  1  0
  4  5  2  0
  6  7  1  0
  6  4  1  0
  7  8  1  1
  9  8  1  0
 10  9  2  0
 11 12  1  0
 11 10  1  0
 12 13  2  0
 13  9  1  0
 14 15  2  0
 14  7  1  0
 16 14  1  0
 17 16  1  0
 17 23  1  0
 17 18  1  6
 19 20  1  0
 19 18  1  0
 21 20  1  0
 22 21  1  0
 23 25  2  0
 23 24  1  0
M  END
$$$$
