AHK.pdb
     RDKit          3D

 25 25  0  0  1  0  0  0  0  0999 V2000
   10.1703  -17.6853   17.7723 C   0  0  0  0  0  0  0  0  0  0  0  0
   10.0153  -18.2240   19.1592 C   0  0  2  0  0  0  0  0  0  0  0  0
    8.6600  -18.7167   19.3097 N   0  0  0  0  0  0  0  0  0  0  0  0
   10.2061  -17.1150   20.1379 C   0  0  0  0  0  0  0  0  0  0  0  0
   11.3157  -16.4966   20.1963 O   0  0  0  0  0  0  0  0  0  0  0  0
    9.1224  -16.7971   20.9701 N   0  0  0  0  0  0  0  0  0  0  0  0
    9.2378  -15.6945   21.9467 C   0  0  1  0  0  0  0  0  0  0  0  0
    8.0177  -14.8385   21.8830 C   0  0  0  0  0  0  0  0  0  0  0  0
    7.8157  -14.0564   20.6730 C   0  0  0  0  0  0  0  0  0  0  0  0
    8.3175  -12.8900   20.1806 C   0  0  0  0  0  0  0  0  0  0  0  0
    7.8040  -12.6549   18.9444 N   0  0  0  0  0  0  0  0  0  0  0  0
    6.9927  -13.6572   18.6610 C   0  0  0  0  0  0  0  0  0  0  0  0
    6.9792  -14.5173   19.6830 N   0  0  0  0  0  0  0  0  0  0  0  0
    9.3400  -16.4024   23.2710 C   0  0  0  0  0  0  0  0  0  0  0  0
    8.3115  -16.8376   23.8392 O   0  0  0  0  0  0  0  0  0  0  0  0
   10.6016  -16.5785   23.8810 N   0  0  0  0  0  0  0  0  0  0  0  0
   10.7584  -17.4064   25.0972 C   0  0  1  0  0  0  0  0  0  0  0  0
   11.8982  -18.3680   24.9161 C   0  0  0  0  0  0  0  0  0  0  0  0
   11.4880  -19.5480   24.0880 C   0  0  0  0  0  0  0  0  0  0  0  0
   12.6055  -20.5190   23.9047 C   0  0  0  0  0  0  0  0  0  0  0  0
   12.2073  -21.6885   23.0180 C   0  0  0  0  0  0  0  0  0  0  0  0
   13.4096  -22.4586   22.7423 N   0  0  0  0  0  0  0  0  0  0  0  0
   10.8755  -16.5404   26.2877 C   0  0  0  0  0  0  0  0  0  0  0  0
   11.0861  -15.1816   26.0944 O   0  0  0  0  0  0  0  0  0  0  0  0
   10.8016  -16.9206   27.4784 O   0  0  0  0  0  0  0  0  0  0  0  0
  2  4  1  0
  2  1  1  6
  3  2  1  0
  4  5  2  0
  6  7  1  0
  6  4  1  0
  7  8  1  1
  9  8  1  0
 10  9  2  0
 11 12  1  0
 11 10  1  0
 12 13  2  0
 13  9  1  0
 14 15  2  0
 14  7  1  0
 16 14  1  0
 17 16  1  0
 17 23  1  0
 17 18  1  6
 19 20  1  0
 19 18  1  0
 21 20  1  0
 22 21  1  0
 23 25  2  0
 23 24  1  0
M  END
$$$$
