AHK.pdb
     RDKit          3D

 25 25  0  0  1  0  0  0  0  0999 V2000
   11.2789  -17.6700   16.9886 C   0  0  0  0  0  0  0  0  0  0  0  0
   11.1664  -18.3982   18.2903 C   0  0  2  0  0  0  0  0  0  0  0  0
    9.8803  -19.0665   18.3310 N   0  0  0  0  0  0  0  0  0  0  0  0
   11.1997  -17.4102   19.4070 C   0  0  0  0  0  0  0  0  0  0  0  0
   12.2426  -16.7128   19.6136 O   0  0  0  0  0  0  0  0  0  0  0  0
   10.0468  -17.2931   20.1978 N   0  0  0  0  0  0  0  0  0  0  0  0
    9.9774  -16.2659   21.2573 C   0  0  1  0  0  0  0  0  0  0  0  0
    8.6116  -15.6666   21.2859 C   0  0  0  0  0  0  0  0  0  0  0  0
    8.3039  -14.6626   20.2789 C   0  0  0  0  0  0  0  0  0  0  0  0
    8.9710  -14.1123   19.2268 C   0  0  0  0  0  0  0  0  0  0  0  0
    8.1596  -13.2378   18.5756 N   0  0  0  0  0  0  0  0  0  0  0  0
    6.9995  -13.2374   19.2057 C   0  0  0  0  0  0  0  0  0  0  0  0
    7.0558  -14.0860   20.2358 N   0  0  0  0  0  0  0  0  0  0  0  0
   10.2624  -17.0365   22.5183 C   0  0  0  0  0  0  0  0  0  0  0  0
    9.7850  -18.1833   22.6831 O   0  0  0  0  0  0  0  0  0  0  0  0
   11.0722  -16.4665   23.5253 N   0  0  0  0  0  0  0  0  0  0  0  0
   11.7131  -17.3048   24.5625 C   0  0  1  0  0  0  0  0  0  0  0  0
   13.1735  -17.4712   24.2531 C   0  0  0  0  0  0  0  0  0  0  0  0
   13.8293  -18.4152   25.2149 C   0  0  0  0  0  0  0  0  0  0  0  0
   15.2735  -18.6195   24.9022 C   0  0  0  0  0  0  0  0  0  0  0  0
   15.9283  -19.6138   25.8483 C   0  0  0  0  0  0  0  0  0  0  0  0
   17.3166  -19.7580   25.4402 N   0  0  0  0  0  0  0  0  0  0  0  0
   11.4336  -16.7531   25.9036 C   0  0  0  0  0  0  0  0  0  0  0  0
   10.7147  -15.5682   25.9906 O   0  0  0  0  0  0  0  0  0  0  0  0
   11.7892  -17.2607   26.9916 O   0  0  0  0  0  0  0  0  0  0  0  0
  2  4  1  0
  2  1  1  6
  3  2  1  0
  4  5  2  0
  6  7  1  0
  6  4  1  0
  7  8  1  1
  9  8  1  0
 10  9  2  0
 11 12  1  0
 11 10  1  0
 12 13  2  0
 13  9  1  0
 14 15  2  0
 14  7  1  0
 16 14  1  0
 17 16  1  0
 17 23  1  0
 17 18  1  6
 19 20  1  0
 19 18  1  0
 21 20  1  0
 22 21  1  0
 23 25  2  0
 23 24  1  0
M  END
$$$$
