AHK.pdb
     RDKit          3D

 25 25  0  0  1  0  0  0  0  0999 V2000
    9.1901  -20.6214   23.7077 C   0  0  0  0  0  0  0  0  0  0  0  0
    8.9855  -20.6218   22.2259 C   0  0  2  0  0  0  0  0  0  0  0  0
    9.2974  -21.9448   21.7214 N   0  0  0  0  0  0  0  0  0  0  0  0
    9.9402  -19.6614   21.6010 C   0  0  0  0  0  0  0  0  0  0  0  0
   11.0588  -20.0696   21.1550 O   0  0  0  0  0  0  0  0  0  0  0  0
    9.5478  -18.3162   21.5322 N   0  0  0  0  0  0  0  0  0  0  0  0
   10.4315  -17.3194   20.8933 C   0  0  1  0  0  0  0  0  0  0  0  0
    9.6294  -16.4445   19.9897 C   0  0  0  0  0  0  0  0  0  0  0  0
    9.3315  -16.9554   18.6604 C   0  0  0  0  0  0  0  0  0  0  0  0
    9.5975  -18.1081   17.9856 C   0  0  0  0  0  0  0  0  0  0  0  0
    9.0132  -18.0672   16.7592 N   0  0  0  0  0  0  0  0  0  0  0  0
    8.3878  -16.9086   16.6625 C   0  0  0  0  0  0  0  0  0  0  0  0
    8.5612  -16.2172   17.7922 N   0  0  0  0  0  0  0  0  0  0  0  0
   10.9874  -16.5410   22.0554 C   0  0  0  0  0  0  0  0  0  0  0  0
   10.2233  -16.0834   22.9367 O   0  0  0  0  0  0  0  0  0  0  0  0
   12.3791  -16.3222   22.1564 N   0  0  0  0  0  0  0  0  0  0  0  0
   13.0289  -16.0990   23.4668 C   0  0  1  0  0  0  0  0  0  0  0  0
   12.7975  -17.2848   24.3594 C   0  0  0  0  0  0  0  0  0  0  0  0
   13.5633  -17.1582   25.6415 C   0  0  0  0  0  0  0  0  0  0  0  0
   13.3540  -18.3328   26.5371 C   0  0  0  0  0  0  0  0  0  0  0  0
   14.1914  -18.2429   27.8032 C   0  0  0  0  0  0  0  0  0  0  0  0
   13.8872  -19.4114   28.6136 N   0  0  0  0  0  0  0  0  0  0  0  0
   14.4509  -15.7500   23.2740 C   0  0  0  0  0  0  0  0  0  0  0  0
   15.0424  -16.0508   22.0542 O   0  0  0  0  0  0  0  0  0  0  0  0
   15.1895  -15.1980   24.1211 O   0  0  0  0  0  0  0  0  0  0  0  0
  2  4  1  0
  2  1  1  1
  3  2  1  0
  4  5  2  0
  6  7  1  0
  6  4  1  0
  7  8  1  6
  9  8  1  0
 10  9  2  0
 11 12  1  0
 11 10  1  0
 12 13  2  0
 13  9  1  0
 14 15  2  0
 14  7  1  0
 16 14  1  0
 17 16  1  0
 17 23  1  0
 17 18  1  1
 19 20  1  0
 19 18  1  0
 21 20  1  0
 22 21  1  0
 23 25  2  0
 23 24  1  0
M  END
$$$$
