AHK.pdb
     RDKit          3D

 25 25  0  0  1  0  0  0  0  0999 V2000
   12.1194  -19.9239   16.8236 C   0  0  0  0  0  0  0  0  0  0  0  0
   12.0235  -18.6500   16.0455 C   0  0  2  0  0  0  0  0  0  0  0  0
   13.2686  -18.4574   15.3279 N   0  0  0  0  0  0  0  0  0  0  0  0
   11.8652  -17.5096   16.9935 C   0  0  0  0  0  0  0  0  0  0  0  0
   12.8898  -16.9212   17.4636 O   0  0  0  0  0  0  0  0  0  0  0  0
   10.5577  -17.1290   17.3304 N   0  0  0  0  0  0  0  0  0  0  0  0
   10.3310  -16.0061   18.2635 C   0  0  1  0  0  0  0  0  0  0  0  0
    8.9929  -15.4001   18.0029 C   0  0  0  0  0  0  0  0  0  0  0  0
    8.5588  -14.3361   18.8951 C   0  0  0  0  0  0  0  0  0  0  0  0
    9.0955  -13.6982   19.9721 C   0  0  0  0  0  0  0  0  0  0  0  0
    8.2521  -12.7191   20.3928 N   0  0  0  0  0  0  0  0  0  0  0  0
    7.2014  -12.7380   19.5937 C   0  0  0  0  0  0  0  0  0  0  0  0
    7.3574  -13.7012   18.6814 N   0  0  0  0  0  0  0  0  0  0  0  0
   10.3815  -16.6559   19.6201 C   0  0  0  0  0  0  0  0  0  0  0  0
    9.8389  -17.7690   19.8116 O   0  0  0  0  0  0  0  0  0  0  0  0
   11.0435  -16.0095   20.6873 N   0  0  0  0  0  0  0  0  0  0  0  0
   11.0345  -16.5770   22.0537 C   0  0  1  0  0  0  0  0  0  0  0  0
   12.3639  -16.3417   22.7124 C   0  0  0  0  0  0  0  0  0  0  0  0
   12.9574  -17.6236   23.2130 C   0  0  0  0  0  0  0  0  0  0  0  0
   14.2846  -17.4110   23.8603 C   0  0  0  0  0  0  0  0  0  0  0  0
   14.9125  -18.7175   24.3197 C   0  0  0  0  0  0  0  0  0  0  0  0
   16.2164  -18.4031   24.8816 N   0  0  0  0  0  0  0  0  0  0  0  0
    9.8788  -16.0557   22.8110 C   0  0  0  0  0  0  0  0  0  0  0  0
    9.5580  -16.6594   24.0197 O   0  0  0  0  0  0  0  0  0  0  0  0
    9.1454  -15.1028   22.4616 O   0  0  0  0  0  0  0  0  0  0  0  0
  2  4  1  0
  2  1  1  1
  3  2  1  0
  4  5  2  0
  6  7  1  0
  6  4  1  0
  7  8  1  6
  9  8  1  0
 10  9  2  0
 11 12  1  0
 11 10  1  0
 12 13  2  0
 13  9  1  0
 14 15  2  0
 14  7  1  0
 16 14  1  0
 17 16  1  0
 17 23  1  0
 17 18  1  1
 19 20  1  0
 19 18  1  0
 21 20  1  0
 22 21  1  0
 23 25  2  0
 23 24  1  0
M  END
$$$$
