AHK.pdb
     RDKit          3D

 25 25  0  0  1  0  0  0  0  0999 V2000
   15.9163  -16.1218   17.5596 C   0  0  0  0  0  0  0  0  0  0  0  0
   15.3008  -14.7859   17.2872 C   0  0  2  0  0  0  0  0  0  0  0  0
   16.3438  -13.7806   17.3486 N   0  0  0  0  0  0  0  0  0  0  0  0
   14.3098  -14.4774   18.3582 C   0  0  0  0  0  0  0  0  0  0  0  0
   14.6855  -13.9156   19.4352 O   0  0  0  0  0  0  0  0  0  0  0  0
   12.9732  -14.8306   18.1199 N   0  0  0  0  0  0  0  0  0  0  0  0
   11.9339  -14.5116   19.1202 C   0  0  1  0  0  0  0  0  0  0  0  0
   10.6234  -14.3129   18.4357 C   0  0  0  0  0  0  0  0  0  0  0  0
    9.4744  -14.0054   19.2736 C   0  0  0  0  0  0  0  0  0  0  0  0
    9.2636  -13.8650   20.6118 C   0  0  0  0  0  0  0  0  0  0  0  0
    7.9717  -13.5087   20.8380 N   0  0  0  0  0  0  0  0  0  0  0  0
    7.3777  -13.4245   19.6620 C   0  0  0  0  0  0  0  0  0  0  0  0
    8.2575  -13.7178   18.7005 N   0  0  0  0  0  0  0  0  0  0  0  0
   11.9084  -15.7280   20.0062 C   0  0  0  0  0  0  0  0  0  0  0  0
   12.1542  -16.8625   19.5343 O   0  0  0  0  0  0  0  0  0  0  0  0
   11.6053  -15.5942   21.3792 N   0  0  0  0  0  0  0  0  0  0  0  0
   11.4590  -16.7792   22.2530 C   0  0  1  0  0  0  0  0  0  0  0  0
   11.3511  -16.3451   23.6870 C   0  0  0  0  0  0  0  0  0  0  0  0
   11.1945  -17.5223   24.6014 C   0  0  0  0  0  0  0  0  0  0  0  0
   10.9954  -17.1067   26.0202 C   0  0  0  0  0  0  0  0  0  0  0  0
   10.7095  -18.2922   26.9285 C   0  0  0  0  0  0  0  0  0  0  0  0
   10.3731  -17.7667   28.2421 N   0  0  0  0  0  0  0  0  0  0  0  0
   10.3377  -17.6185   21.7847 C   0  0  0  0  0  0  0  0  0  0  0  0
   10.4932  -18.9981   21.8108 O   0  0  0  0  0  0  0  0  0  0  0  0
    9.2383  -17.1979   21.3577 O   0  0  0  0  0  0  0  0  0  0  0  0
  2  4  1  0
  2  1  1  1
  3  2  1  0
  4  5  2  0
  6  7  1  0
  6  4  1  0
  7  8  1  6
  9  8  1  0
 10  9  2  0
 11 12  1  0
 11 10  1  0
 12 13  2  0
 13  9  1  0
 14 15  2  0
 14  7  1  0
 16 14  1  0
 17 16  1  0
 17 23  1  0
 17 18  1  1
 19 20  1  0
 19 18  1  0
 21 20  1  0
 22 21  1  0
 23 25  2  0
 23 24  1  0
M  END
$$$$
