AHK.pdb
     RDKit          3D

 25 25  0  0  1  0  0  0  0  0999 V2000
    8.5595  -12.1215   19.7417 C   0  0  0  0  0  0  0  0  0  0  0  0
    8.7317  -13.3606   18.9216 C   0  0  2  0  0  0  0  0  0  0  0  0
    7.6072  -13.4674   18.0126 N   0  0  0  0  0  0  0  0  0  0  0  0
    8.7020  -14.5496   19.8214 C   0  0  0  0  0  0  0  0  0  0  0  0
    7.6120  -15.1724   20.0233 O   0  0  0  0  0  0  0  0  0  0  0  0
    9.9115  -14.9357   20.4184 N   0  0  0  0  0  0  0  0  0  0  0  0
    9.9633  -16.1389   21.2741 C   0  0  1  0  0  0  0  0  0  0  0  0
   11.0906  -17.0144   20.8403 C   0  0  0  0  0  0  0  0  0  0  0  0
   10.8590  -17.8785   19.6929 C   0  0  0  0  0  0  0  0  0  0  0  0
    9.8539  -18.7059   19.2930 C   0  0  0  0  0  0  0  0  0  0  0  0
   10.1511  -19.2344   18.0766 N   0  0  0  0  0  0  0  0  0  0  0  0
   11.3236  -18.7475   17.7147 C   0  0  0  0  0  0  0  0  0  0  0  0
   11.7749  -17.9275   18.6678 N   0  0  0  0  0  0  0  0  0  0  0  0
   10.2017  -15.5842   22.6528 C   0  0  0  0  0  0  0  0  0  0  0  0
   10.8289  -14.5102   22.8053 O   0  0  0  0  0  0  0  0  0  0  0  0
    9.7176  -16.2762   23.7848 N   0  0  0  0  0  0  0  0  0  0  0  0
    9.4456  -15.5726   25.0576 C   0  0  1  0  0  0  0  0  0  0  0  0
    8.3310  -14.5841   24.8659 C   0  0  0  0  0  0  0  0  0  0  0  0
    8.0329  -13.8471   26.1364 C   0  0  0  0  0  0  0  0  0  0  0  0
    6.8686  -12.9261   25.9896 C   0  0  0  0  0  0  0  0  0  0  0  0
    6.5489  -12.1974   27.2854 C   0  0  0  0  0  0  0  0  0  0  0  0
    5.3695  -11.3802   27.0491 N   0  0  0  0  0  0  0  0  0  0  0  0
    9.2120  -16.5521   26.1379 C   0  0  0  0  0  0  0  0  0  0  0  0
    9.8082  -16.3256   27.3714 O   0  0  0  0  0  0  0  0  0  0  0  0
    8.5143  -17.5879   26.0473 O   0  0  0  0  0  0  0  0  0  0  0  0
  2  4  1  0
  2  1  1  1
  3  2  1  0
  4  5  2  0
  6  7  1  0
  6  4  1  0
  7  8  1  6
  9  8  1  0
 10  9  2  0
 11 12  1  0
 11 10  1  0
 12 13  2  0
 13  9  1  0
 14 15  2  0
 14  7  1  0
 16 14  1  0
 17 16  1  0
 17 23  1  0
 17 18  1  6
 19 20  1  0
 19 18  1  0
 21 20  1  0
 22 21  1  0
 23 25  2  0
 23 24  1  0
M  END
$$$$
