VGV.pdb
     RDKit          3D

 19 18  0  0  1  0  0  0  0  0999 V2000
    8.6150  -19.4016   18.6096 C   0  0  0  0  0  0  0  0  0  0  0  0
    7.8860  -18.7992   19.7699 C   0  0  2  0  0  0  0  0  0  0  0  0
    6.6466  -18.0956   19.2482 C   0  0  0  0  0  0  0  0  0  0  0  0
    8.7004  -17.7700   20.5047 C   0  0  2  0  0  0  0  0  0  0  0  0
    9.9723  -18.3374   20.8229 N   0  0  0  0  0  0  0  0  0  0  0  0
    7.9982  -17.2027   21.6754 C   0  0  0  0  0  0  0  0  0  0  0  0
    7.8698  -17.9193   22.7012 O   0  0  0  0  0  0  0  0  0  0  0  0
    7.4544  -15.8928   21.7207 N   0  0  0  0  0  0  0  0  0  0  0  0
    6.7572  -15.3496   22.8434 C   0  0  0  0  0  0  0  0  0  0  0  0
    7.6754  -14.6889   23.8185 C   0  0  0  0  0  0  0  0  0  0  0  0
    8.9255  -14.6535   23.6374 O   0  0  0  0  0  0  0  0  0  0  0  0
    6.9850  -11.2111   25.5763 C   0  0  0  0  0  0  0  0  0  0  0  0
    7.2658  -12.2795   26.5823 C   0  0  1  0  0  0  0  0  0  0  0  0
    5.9841  -12.7577   27.2166 C   0  0  0  0  0  0  0  0  0  0  0  0
    8.0488  -13.4474   25.9906 C   0  0  2  0  0  0  0  0  0  0  0  0
    7.1885  -14.0662   25.0001 N   0  0  0  0  0  0  0  0  0  0  0  0
    8.4573  -14.4092   27.0200 C   0  0  0  0  0  0  0  0  0  0  0  0
    9.4654  -14.0758   27.8991 O   0  0  0  0  0  0  0  0  0  0  0  0
    7.9365  -15.5583   27.1656 O   0  0  0  0  0  0  0  0  0  0  0  0
  2  3  1  6
  2  4  1  0
  2  1  1  0
  4  5  1  1
  6  4  1  0
  6  7  2  0
  8  6  1  0
  9  8  1  0
  9 10  1  0
 10 16  1  0
 11 10  2  0
 13 12  1  6
 13 15  1  0
 13 14  1  0
 15 17  1  0
 15 16  1  6
 17 19  2  0
 17 18  1  0
M  END
$$$$
