VGV.pdb
     RDKit          3D

 19 18  0  0  1  0  0  0  0  0999 V2000
    6.4579  -13.0149   20.7917 C   0  0  0  0  0  0  0  0  0  0  0  0
    7.7812  -13.4446   21.3439 C   0  0  2  0  0  0  0  0  0  0  0  0
    8.8788  -12.7306   20.5765 C   0  0  0  0  0  0  0  0  0  0  0  0
    8.0282  -14.9208   21.1949 C   0  0  2  0  0  0  0  0  0  0  0  0
    6.9804  -15.6278   21.8605 N   0  0  0  0  0  0  0  0  0  0  0  0
    9.3819  -15.3288   21.6269 C   0  0  0  0  0  0  0  0  0  0  0  0
   10.3719  -14.8875   20.9886 O   0  0  0  0  0  0  0  0  0  0  0  0
    9.6423  -16.1922   22.7225 N   0  0  0  0  0  0  0  0  0  0  0  0
   10.9500  -16.5814   23.1469 C   0  0  0  0  0  0  0  0  0  0  0  0
   11.2390  -16.1682   24.5526 C   0  0  0  0  0  0  0  0  0  0  0  0
   12.3546  -16.4002   25.0989 O   0  0  0  0  0  0  0  0  0  0  0  0
    8.1736  -14.1618   26.7480 C   0  0  0  0  0  0  0  0  0  0  0  0
    9.6225  -13.9127   27.0149 C   0  0  1  0  0  0  0  0  0  0  0  0
    9.8227  -13.4224   28.4268 C   0  0  0  0  0  0  0  0  0  0  0  0
   10.4866  -15.1388   26.7372 C   0  0  2  0  0  0  0  0  0  0  0  0
   10.2727  -15.4927   25.3469 N   0  0  0  0  0  0  0  0  0  0  0  0
   10.1557  -16.2545   27.6302 C   0  0  0  0  0  0  0  0  0  0  0  0
    9.3707  -17.2874   27.1644 O   0  0  0  0  0  0  0  0  0  0  0  0
   10.5498  -16.3417   28.8344 O   0  0  0  0  0  0  0  0  0  0  0  0
  2  3  1  6
  2  4  1  0
  2  1  1  0
  4  5  1  1
  6  4  1  0
  6  7  2  0
  8  6  1  0
  9  8  1  0
  9 10  1  0
 10 16  1  0
 11 10  2  0
 13 12  1  1
 13 15  1  0
 13 14  1  0
 15 17  1  0
 15 16  1  6
 17 19  2  0
 17 18  1  0
M  END
$$$$
