VGV.pdb
     RDKit          3D

 19 18  0  0  1  0  0  0  0  0999 V2000
    6.7975  -16.0432   19.9730 C   0  0  0  0  0  0  0  0  0  0  0  0
    8.2609  -15.9746   19.6655 C   0  0  2  0  0  0  0  0  0  0  0  0
    8.5246  -16.7644   18.3965 C   0  0  0  0  0  0  0  0  0  0  0  0
    9.1167  -16.5774   20.7455 C   0  0  2  0  0  0  0  0  0  0  0  0
    8.8556  -17.9807   20.8039 N   0  0  0  0  0  0  0  0  0  0  0  0
    8.9709  -15.8957   22.0491 C   0  0  0  0  0  0  0  0  0  0  0  0
    9.4308  -14.7311   22.1700 O   0  0  0  0  0  0  0  0  0  0  0  0
    8.3418  -16.4711   23.1835 N   0  0  0  0  0  0  0  0  0  0  0  0
    8.1885  -15.8094   24.4405 C   0  0  0  0  0  0  0  0  0  0  0  0
    9.4152  -15.9039   25.2871 C   0  0  0  0  0  0  0  0  0  0  0  0
   10.4991  -16.3741   24.8388 O   0  0  0  0  0  0  0  0  0  0  0  0
   10.3416  -13.0173   27.6340 C   0  0  0  0  0  0  0  0  0  0  0  0
   10.5318  -14.2884   28.3959 C   0  0  1  0  0  0  0  0  0  0  0  0
    9.4468  -14.4515   29.4303 C   0  0  0  0  0  0  0  0  0  0  0  0
   10.6033  -15.5101   27.4851 C   0  0  2  0  0  0  0  0  0  0  0  0
    9.4248  -15.4693   26.6405 N   0  0  0  0  0  0  0  0  0  0  0  0
   10.6699  -16.7595   28.2507 C   0  0  0  0  0  0  0  0  0  0  0  0
   11.8514  -17.1184   28.8636 O   0  0  0  0  0  0  0  0  0  0  0  0
    9.6925  -17.5576   28.3947 O   0  0  0  0  0  0  0  0  0  0  0  0
  2  3  1  6
  2  4  1  0
  2  1  1  0
  4  5  1  1
  6  4  1  0
  6  7  2  0
  8  6  1  0
  9  8  1  0
  9 10  1  0
 10 16  1  0
 11 10  2  0
 13 12  1  6
 13 15  1  0
 13 14  1  0
 15 17  1  0
 15 16  1  6
 17 19  2  0
 17 18  1  0
M  END
$$$$
