VGV.pdb
     RDKit          3D

 19 18  0  0  1  0  0  0  0  0999 V2000
    8.1150  -16.8486   18.1755 C   0  0  0  0  0  0  0  0  0  0  0  0
    9.3085  -17.3792   18.9067 C   0  0  2  0  0  0  0  0  0  0  0  0
    9.7301  -18.6851   18.2582 C   0  0  0  0  0  0  0  0  0  0  0  0
    9.0259  -17.6771   20.3537 C   0  0  2  0  0  0  0  0  0  0  0  0
    8.0779  -18.7435   20.4229 N   0  0  0  0  0  0  0  0  0  0  0  0
    8.6252  -16.4808   21.1244 C   0  0  0  0  0  0  0  0  0  0  0  0
    9.4687  -15.5613   21.2834 O   0  0  0  0  0  0  0  0  0  0  0  0
    7.3420  -16.2980   21.7021 N   0  0  0  0  0  0  0  0  0  0  0  0
    6.9140  -15.0972   22.3476 C   0  0  0  0  0  0  0  0  0  0  0  0
    7.6306  -14.8566   23.6355 C   0  0  0  0  0  0  0  0  0  0  0  0
    8.6115  -15.5676   23.9948 O   0  0  0  0  0  0  0  0  0  0  0  0
    7.3724  -11.1342   25.5320 C   0  0  0  0  0  0  0  0  0  0  0  0
    7.2198  -12.3404   26.4005 C   0  0  1  0  0  0  0  0  0  0  0  0
    5.7635  -12.5994   26.6936 C   0  0  0  0  0  0  0  0  0  0  0  0
    7.8829  -13.5777   25.8032 C   0  0  2  0  0  0  0  0  0  0  0  0
    7.2446  -13.8149   24.5225 N   0  0  0  0  0  0  0  0  0  0  0  0
    7.7610  -14.7430   26.6857 C   0  0  0  0  0  0  0  0  0  0  0  0
    8.6847  -14.9331   27.6912 O   0  0  0  0  0  0  0  0  0  0  0  0
    6.8420  -15.6142   26.5895 O   0  0  0  0  0  0  0  0  0  0  0  0
  2  3  1  6
  2  4  1  0
  2  1  1  0
  4  5  1  6
  6  4  1  0
  6  7  2  0
  8  6  1  0
  9  8  1  0
  9 10  1  0
 10 16  1  0
 11 10  2  0
 13 12  1  6
 13 15  1  0
 13 14  1  0
 15 17  1  0
 15 16  1  6
 17 19  2  0
 17 18  1  0
M  END
$$$$
