VGV.pdb
     RDKit          3D

 19 18  0  0  1  0  0  0  0  0999 V2000
    3.6415  -18.0870   21.4045 C   0  0  0  0  0  0  0  0  0  0  0  0
    4.7786  -19.0594   21.4512 C   0  0  2  0  0  0  0  0  0  0  0  0
    4.2481  -20.3993   21.9276 C   0  0  0  0  0  0  0  0  0  0  0  0
    5.8631  -18.6491   22.4093 C   0  0  2  0  0  0  0  0  0  0  0  0
    5.3337  -18.6765   23.7358 N   0  0  0  0  0  0  0  0  0  0  0  0
    6.4947  -17.3608   22.0529 C   0  0  0  0  0  0  0  0  0  0  0  0
    7.3533  -17.3495   21.1337 O   0  0  0  0  0  0  0  0  0  0  0  0
    6.1953  -16.1252   22.6832 N   0  0  0  0  0  0  0  0  0  0  0  0
    6.8292  -14.8850   22.3641 C   0  0  0  0  0  0  0  0  0  0  0  0
    7.7340  -14.4112   23.4536 C   0  0  0  0  0  0  0  0  0  0  0  0
    8.9266  -14.0620   23.2241 O   0  0  0  0  0  0  0  0  0  0  0  0
    7.0898  -11.5791   25.8406 C   0  0  0  0  0  0  0  0  0  0  0  0
    7.3310  -12.8127   26.6485 C   0  0  1  0  0  0  0  0  0  0  0  0
    6.0252  -13.3901   27.1335 C   0  0  0  0  0  0  0  0  0  0  0  0
    8.1398  -13.8594   25.8886 C   0  0  2  0  0  0  0  0  0  0  0  0
    7.2986  -14.3292   24.8043 N   0  0  0  0  0  0  0  0  0  0  0  0
    8.5584  -14.9640   26.7582 C   0  0  0  0  0  0  0  0  0  0  0  0
    8.0872  -16.2363   26.5144 O   0  0  0  0  0  0  0  0  0  0  0  0
    9.3447  -14.8314   27.7467 O   0  0  0  0  0  0  0  0  0  0  0  0
  2  3  1  1
  2  4  1  0
  2  1  1  0
  4  5  1  1
  6  4  1  0
  6  7  2  0
  8  6  1  0
  9  8  1  0
  9 10  1  0
 10 16  1  0
 11 10  2  0
 13 12  1  6
 13 15  1  0
 13 14  1  0
 15 17  1  0
 15 16  1  6
 17 19  2  0
 17 18  1  0
M  END
$$$$
