VGV.pdb
     RDKit          3D

 19 18  0  0  1  0  0  0  0  0999 V2000
    7.8567  -13.5534   18.3822 C   0  0  0  0  0  0  0  0  0  0  0  0
    7.6405  -13.7620   19.8486 C   0  0  2  0  0  0  0  0  0  0  0  0
    8.0185  -12.4858   20.5781 C   0  0  0  0  0  0  0  0  0  0  0  0
    8.4929  -14.8633   20.4170 C   0  0  2  0  0  0  0  0  0  0  0  0
    8.1561  -16.0859   19.7594 N   0  0  0  0  0  0  0  0  0  0  0  0
    8.4236  -14.9480   21.8912 C   0  0  0  0  0  0  0  0  0  0  0  0
    8.9582  -14.0329   22.5689 O   0  0  0  0  0  0  0  0  0  0  0  0
    7.7893  -16.0011   22.6000 N   0  0  0  0  0  0  0  0  0  0  0  0
    7.5452  -15.9906   24.0078 C   0  0  0  0  0  0  0  0  0  0  0  0
    8.8021  -15.8543   24.8026 C   0  0  0  0  0  0  0  0  0  0  0  0
    9.9402  -16.0405   24.2861 O   0  0  0  0  0  0  0  0  0  0  0  0
    8.4882  -13.9912   28.4995 C   0  0  0  0  0  0  0  0  0  0  0  0
    9.7854  -14.0234   27.7588 C   0  0  1  0  0  0  0  0  0  0  0  0
   10.9381  -13.7871   28.7019 C   0  0  0  0  0  0  0  0  0  0  0  0
    9.9791  -15.3186   26.9766 C   0  0  2  0  0  0  0  0  0  0  0  0
    8.7810  -15.5079   26.1812 N   0  0  0  0  0  0  0  0  0  0  0  0
   10.2188  -16.4622   27.8634 C   0  0  0  0  0  0  0  0  0  0  0  0
   11.4748  -16.6563   28.3971 O   0  0  0  0  0  0  0  0  0  0  0  0
    9.3300  -17.3105   28.1849 O   0  0  0  0  0  0  0  0  0  0  0  0
  2  3  1  1
  2  4  1  0
  2  1  1  0
  4  5  1  6
  6  4  1  0
  6  7  2  0
  8  6  1  0
  9  8  1  0
  9 10  1  0
 10 16  1  0
 11 10  2  0
 13 12  1  1
 13 15  1  0
 13 14  1  0
 15 17  1  0
 15 16  1  1
 17 19  2  0
 17 18  1  0
M  END
$$$$
