VGV.pdb
     RDKit          3D

 19 18  0  0  1  0  0  0  0  0999 V2000
    7.7092  -13.3547   18.7002 C   0  0  0  0  0  0  0  0  0  0  0  0
    7.4645  -13.7463   20.1241 C   0  0  2  0  0  0  0  0  0  0  0  0
    7.7444  -12.5457   21.0094 C   0  0  0  0  0  0  0  0  0  0  0  0
    8.3650  -14.8571   20.5906 C   0  0  2  0  0  0  0  0  0  0  0  0
    8.0772  -16.0288   19.8258 N   0  0  0  0  0  0  0  0  0  0  0  0
    8.3056  -15.0770   22.0513 C   0  0  0  0  0  0  0  0  0  0  0  0
    8.7793  -14.1919   22.8093 O   0  0  0  0  0  0  0  0  0  0  0  0
    7.7454  -16.2291   22.6617 N   0  0  0  0  0  0  0  0  0  0  0  0
    7.6396  -16.4205   24.0737 C   0  0  0  0  0  0  0  0  0  0  0  0
    8.8776  -16.0061   24.7988 C   0  0  0  0  0  0  0  0  0  0  0  0
   10.0279  -16.1784   24.3048 O   0  0  0  0  0  0  0  0  0  0  0  0
    9.1861  -12.7385   26.8173 C   0  0  0  0  0  0  0  0  0  0  0  0
    9.6926  -13.8489   27.6792 C   0  0  1  0  0  0  0  0  0  0  0  0
    8.7189  -14.1389   28.7935 C   0  0  0  0  0  0  0  0  0  0  0  0
    9.9997  -15.1130   26.8824 C   0  0  2  0  0  0  0  0  0  0  0  0
    8.8238  -15.3967   26.0819 N   0  0  0  0  0  0  0  0  0  0  0  0
   10.3370  -16.2417   27.7564 C   0  0  0  0  0  0  0  0  0  0  0  0
   11.5747  -16.2860   28.3615 O   0  0  0  0  0  0  0  0  0  0  0  0
    9.5511  -17.2083   28.0039 O   0  0  0  0  0  0  0  0  0  0  0  0
  2  3  1  1
  2  4  1  0
  2  1  1  0
  4  5  1  6
  6  4  1  0
  6  7  2  0
  8  6  1  0
  9  8  1  0
  9 10  1  0
 10 16  1  0
 11 10  2  0
 13 12  1  6
 13 15  1  0
 13 14  1  0
 15 17  1  0
 15 16  1  1
 17 19  2  0
 17 18  1  0
M  END
$$$$
