VGV.pdb
     RDKit          3D

 19 18  0  0  1  0  0  0  0  0999 V2000
    7.9061  -13.0763   18.2256 C   0  0  0  0  0  0  0  0  0  0  0  0
    7.6086  -13.5019   19.6296 C   0  0  2  0  0  0  0  0  0  0  0  0
    8.3030  -12.5449   20.5810 C   0  0  0  0  0  0  0  0  0  0  0  0
    8.1162  -14.8822   19.9447 C   0  0  2  0  0  0  0  0  0  0  0  0
    7.3984  -15.8251   19.1469 N   0  0  0  0  0  0  0  0  0  0  0  0
    8.0919  -15.1931   21.3898 C   0  0  0  0  0  0  0  0  0  0  0  0
    8.9917  -14.7062   22.1217 O   0  0  0  0  0  0  0  0  0  0  0  0
    7.1136  -16.0107   22.0128 N   0  0  0  0  0  0  0  0  0  0  0  0
    7.0149  -16.2139   23.4236 C   0  0  0  0  0  0  0  0  0  0  0  0
    7.8242  -15.2270   24.1990 C   0  0  0  0  0  0  0  0  0  0  0  0
    8.9814  -14.8783   23.8299 O   0  0  0  0  0  0  0  0  0  0  0  0
    6.8146  -11.7736   25.4530 C   0  0  0  0  0  0  0  0  0  0  0  0
    7.2348  -12.5911   26.6309 C   0  0  1  0  0  0  0  0  0  0  0  0
    6.0287  -13.0690   27.3995 C   0  0  0  0  0  0  0  0  0  0  0  0
    8.1295  -13.7629   26.2390 C   0  0  2  0  0  0  0  0  0  0  0  0
    7.3329  -14.6300   25.3919 N   0  0  0  0  0  0  0  0  0  0  0  0
    8.6359  -14.4808   27.4137 C   0  0  0  0  0  0  0  0  0  0  0  0
    9.5683  -13.8763   28.2293 O   0  0  0  0  0  0  0  0  0  0  0  0
    8.2687  -15.6508   27.7443 O   0  0  0  0  0  0  0  0  0  0  0  0
  2  3  1  1
  2  4  1  0
  2  1  1  0
  4  5  1  6
  6  4  1  0
  6  7  2  0
  8  6  1  0
  9  8  1  0
  9 10  1  0
 10 16  1  0
 11 10  2  0
 13 12  1  6
 13 15  1  0
 13 14  1  0
 15 17  1  0
 15 16  1  6
 17 19  2  0
 17 18  1  0
M  END
$$$$
