VGV.pdb
     RDKit          3D

 19 18  0  0  1  0  0  0  0  0999 V2000
    9.6904  -19.1640   18.5442 C   0  0  0  0  0  0  0  0  0  0  0  0
    8.8005  -18.4202   19.4904 C   0  0  2  0  0  0  0  0  0  0  0  0
    7.7881  -17.6309   18.6807 C   0  0  0  0  0  0  0  0  0  0  0  0
    9.5469  -17.4330   20.3452 C   0  0  2  0  0  0  0  0  0  0  0  0
   10.6357  -18.1085   20.9767 N   0  0  0  0  0  0  0  0  0  0  0  0
    8.6729  -16.7090   21.2926 C   0  0  0  0  0  0  0  0  0  0  0  0
    8.2938  -17.3062   22.3328 O   0  0  0  0  0  0  0  0  0  0  0  0
    8.2287  -15.3742   21.1064 N   0  0  0  0  0  0  0  0  0  0  0  0
    7.2915  -14.7121   21.9577 C   0  0  0  0  0  0  0  0  0  0  0  0
    7.9063  -14.2666   23.2437 C   0  0  0  0  0  0  0  0  0  0  0  0
    9.1414  -14.4022   23.4735 O   0  0  0  0  0  0  0  0  0  0  0  0
    5.3840  -12.5722   26.2831 C   0  0  0  0  0  0  0  0  0  0  0  0
    6.7681  -12.0761   26.0172 C   0  0  1  0  0  0  0  0  0  0  0  0
    7.3355  -11.4102   27.2455 C   0  0  0  0  0  0  0  0  0  0  0  0
    7.6973  -13.1778   25.5173 C   0  0  2  0  0  0  0  0  0  0  0  0
    7.1321  -13.6671   24.2743 N   0  0  0  0  0  0  0  0  0  0  0  0
    7.8438  -14.2571   26.4999 C   0  0  0  0  0  0  0  0  0  0  0  0
    7.1777  -15.4481   26.3049 O   0  0  0  0  0  0  0  0  0  0  0  0
    8.5587  -14.1732   27.5462 O   0  0  0  0  0  0  0  0  0  0  0  0
  2  3  1  6
  2  4  1  0
  2  1  1  0
  4  5  1  1
  6  4  1  0
  6  7  2  0
  8  6  1  0
  9  8  1  0
  9 10  1  0
 10 16  1  0
 11 10  2  0
 13 12  1  1
 13 15  1  0
 13 14  1  0
 15 17  1  0
 15 16  1  6
 17 19  2  0
 17 18  1  0
M  END
$$$$
