VGV.pdb
     RDKit          3D

 19 18  0  0  1  0  0  0  0  0999 V2000
    6.4771  -19.3741   20.6822 C   0  0  0  0  0  0  0  0  0  0  0  0
    7.4561  -19.9773   21.6406 C   0  0  2  0  0  0  0  0  0  0  0  0
    8.0274  -21.2375   21.0171 C   0  0  0  0  0  0  0  0  0  0  0  0
    6.8279  -20.3779   22.9472 C   0  0  2  0  0  0  0  0  0  0  0  0
    5.9863  -21.5097   22.7203 N   0  0  0  0  0  0  0  0  0  0  0  0
    6.1413  -19.2594   23.6276 C   0  0  0  0  0  0  0  0  0  0  0  0
    4.9208  -19.3863   23.9044 O   0  0  0  0  0  0  0  0  0  0  0  0
    6.7713  -18.0414   23.9928 N   0  0  0  0  0  0  0  0  0  0  0  0
    6.1252  -16.9825   24.7019 C   0  0  0  0  0  0  0  0  0  0  0  0
    7.0536  -15.8541   25.0100 C   0  0  0  0  0  0  0  0  0  0  0  0
    8.2988  -15.9437   24.8141 O   0  0  0  0  0  0  0  0  0  0  0  0
    5.6856  -12.6076   27.3786 C   0  0  0  0  0  0  0  0  0  0  0  0
    6.5328  -12.3224   26.1814 C   0  0  1  0  0  0  0  0  0  0  0  0
    7.3311  -11.0599   26.3879 C   0  0  0  0  0  0  0  0  0  0  0  0
    7.4455  -13.4902   25.8204 C   0  0  2  0  0  0  0  0  0  0  0  0
    6.5826  -14.6218   25.5395 N   0  0  0  0  0  0  0  0  0  0  0  0
    8.3945  -13.7953   26.8965 C   0  0  0  0  0  0  0  0  0  0  0  0
    9.6366  -13.1974   26.8964 O   0  0  0  0  0  0  0  0  0  0  0  0
    8.1498  -14.5917   27.8551 O   0  0  0  0  0  0  0  0  0  0  0  0
  2  3  1  6
  2  4  1  0
  2  1  1  0
  4  5  1  6
  6  4  1  0
  6  7  2  0
  8  6  1  0
  9  8  1  0
  9 10  1  0
 10 16  1  0
 11 10  2  0
 13 12  1  1
 13 15  1  0
 13 14  1  0
 15 17  1  0
 15 16  1  1
 17 19  2  0
 17 18  1  0
M  END
$$$$
