VGV.pdb
     RDKit          3D

 19 18  0  0  1  0  0  0  0  0999 V2000
    7.1234  -12.9135   18.7870 C   0  0  0  0  0  0  0  0  0  0  0  0
    7.7246  -13.5938   19.9772 C   0  0  2  0  0  0  0  0  0  0  0  0
    8.8057  -12.6961   20.5507 C   0  0  0  0  0  0  0  0  0  0  0  0
    8.3762  -14.9059   19.6366 C   0  0  2  0  0  0  0  0  0  0  0  0
    7.4450  -15.6995   18.8992 N   0  0  0  0  0  0  0  0  0  0  0  0
    8.9370  -15.5983   20.8162 C   0  0  0  0  0  0  0  0  0  0  0  0
    8.1498  -16.2202   21.5751 O   0  0  0  0  0  0  0  0  0  0  0  0
   10.3154  -15.6090   21.1534 N   0  0  0  0  0  0  0  0  0  0  0  0
   10.8846  -16.4156   22.1863 C   0  0  0  0  0  0  0  0  0  0  0  0
   10.3316  -16.0882   23.5344 C   0  0  0  0  0  0  0  0  0  0  0  0
   10.3062  -14.9038   23.9740 O   0  0  0  0  0  0  0  0  0  0  0  0
    7.2015  -15.9035   24.7809 C   0  0  0  0  0  0  0  0  0  0  0  0
    7.8090  -16.9226   25.6892 C   0  0  1  0  0  0  0  0  0  0  0  0
    7.3666  -18.3099   25.2973 C   0  0  0  0  0  0  0  0  0  0  0  0
    9.3309  -16.8298   25.7360 C   0  0  2  0  0  0  0  0  0  0  0  0
    9.8058  -17.0935   24.3910 N   0  0  0  0  0  0  0  0  0  0  0  0
    9.9067  -17.7726   26.7011 C   0  0  0  0  0  0  0  0  0  0  0  0
    9.6406  -17.6165   28.0446 O   0  0  0  0  0  0  0  0  0  0  0  0
   10.6530  -18.7493   26.3817 O   0  0  0  0  0  0  0  0  0  0  0  0
  2  3  1  6
  2  4  1  0
  2  1  1  0
  4  5  1  1
  6  4  1  0
  6  7  2  0
  8  6  1  0
  9  8  1  0
  9 10  1  0
 10 16  1  0
 11 10  2  0
 13 12  1  6
 13 15  1  0
 13 14  1  0
 15 17  1  0
 15 16  1  6
 17 19  2  0
 17 18  1  0
M  END
$$$$
