VGV.pdb
     RDKit          3D

 19 18  0  0  1  0  0  0  0  0999 V2000
    8.2480  -12.7169   19.2920 C   0  0  0  0  0  0  0  0  0  0  0  0
    7.1879  -13.5670   19.9198 C   0  0  2  0  0  0  0  0  0  0  0  0
    6.8739  -13.0086   21.2957 C   0  0  0  0  0  0  0  0  0  0  0  0
    7.6179  -14.9955   20.1116 C   0  0  2  0  0  0  0  0  0  0  0  0
    6.5045  -15.7449   20.6010 N   0  0  0  0  0  0  0  0  0  0  0  0
    8.8310  -15.1288   20.9459 C   0  0  0  0  0  0  0  0  0  0  0  0
    9.9002  -14.6094   20.5344 O   0  0  0  0  0  0  0  0  0  0  0  0
    8.8714  -15.8091   22.1906 N   0  0  0  0  0  0  0  0  0  0  0  0
   10.0361  -15.9165   23.0113 C   0  0  0  0  0  0  0  0  0  0  0  0
    9.8185  -15.3682   24.3832 C   0  0  0  0  0  0  0  0  0  0  0  0
   10.6811  -15.4993   25.2973 O   0  0  0  0  0  0  0  0  0  0  0  0
    6.7119  -12.7053   27.2684 C   0  0  0  0  0  0  0  0  0  0  0  0
    7.0761  -13.3465   25.9689 C   0  0  1  0  0  0  0  0  0  0  0  0
    7.1929  -12.3078   24.8819 C   0  0  0  0  0  0  0  0  0  0  0  0
    8.3510  -14.1787   26.0654 C   0  0  2  0  0  0  0  0  0  0  0  0
    8.6292  -14.6708   24.7296 N   0  0  0  0  0  0  0  0  0  0  0  0
    8.2131  -15.2807   27.0236 C   0  0  0  0  0  0  0  0  0  0  0  0
    8.7117  -15.1367   28.3006 O   0  0  0  0  0  0  0  0  0  0  0  0
    7.6528  -16.3887   26.7564 O   0  0  0  0  0  0  0  0  0  0  0  0
  2  3  1  1
  2  4  1  0
  2  1  1  0
  4  5  1  1
  6  4  1  0
  6  7  2  0
  8  6  1  0
  9  8  1  0
  9 10  1  0
 10 16  1  0
 11 10  2  0
 13 12  1  1
 13 15  1  0
 13 14  1  0
 15 17  1  0
 15 16  1  6
 17 19  2  0
 17 18  1  0
M  END
$$$$
