VGV.pdb
     RDKit          3D

 19 18  0  0  1  0  0  0  0  0999 V2000
    8.0274  -13.4903   18.1923 C   0  0  0  0  0  0  0  0  0  0  0  0
    7.6465  -13.7363   19.6189 C   0  0  2  0  0  0  0  0  0  0  0  0
    7.6876  -12.4145   20.3638 C   0  0  0  0  0  0  0  0  0  0  0  0
    8.5902  -14.6700   20.3260 C   0  0  2  0  0  0  0  0  0  0  0  0
    8.5333  -15.9461   19.6865 N   0  0  0  0  0  0  0  0  0  0  0  0
    8.3609  -14.7308   21.7852 C   0  0  0  0  0  0  0  0  0  0  0  0
    8.5874  -13.7002   22.4699 O   0  0  0  0  0  0  0  0  0  0  0  0
    7.8985  -15.8834   22.4718 N   0  0  0  0  0  0  0  0  0  0  0  0
    7.6049  -15.9233   23.8696 C   0  0  0  0  0  0  0  0  0  0  0  0
    8.8023  -15.6273   24.7116 C   0  0  0  0  0  0  0  0  0  0  0  0
    9.9708  -15.6261   24.2306 O   0  0  0  0  0  0  0  0  0  0  0  0
    8.9671  -12.6037   26.8177 C   0  0  0  0  0  0  0  0  0  0  0  0
    9.3957  -13.7215   27.7118 C   0  0  1  0  0  0  0  0  0  0  0  0
    8.3094  -14.0498   28.7048 C   0  0  0  0  0  0  0  0  0  0  0  0
    9.8146  -14.9645   26.9329 C   0  0  2  0  0  0  0  0  0  0  0  0
    8.6873  -15.3318   26.0973 N   0  0  0  0  0  0  0  0  0  0  0  0
   10.2006  -16.0638   27.8241 C   0  0  0  0  0  0  0  0  0  0  0  0
   11.3903  -15.9909   28.5165 O   0  0  0  0  0  0  0  0  0  0  0  0
    9.5003  -17.1068   28.0103 O   0  0  0  0  0  0  0  0  0  0  0  0
  2  3  1  1
  2  4  1  0
  2  1  1  0
  4  5  1  6
  6  4  1  0
  6  7  2  0
  8  6  1  0
  9  8  1  0
  9 10  1  0
 10 16  1  0
 11 10  2  0
 13 12  1  6
 13 15  1  0
 13 14  1  0
 15 17  1  0
 15 16  1  1
 17 19  2  0
 17 18  1  0
M  END
$$$$
