VGV.pdb
     RDKit          3D

 19 18  0  0  1  0  0  0  0  0999 V2000
    8.3328  -13.2247   17.6888 C   0  0  0  0  0  0  0  0  0  0  0  0
    7.6585  -13.6498   18.9559 C   0  0  2  0  0  0  0  0  0  0  0  0
    7.9247  -12.6002   20.0194 C   0  0  0  0  0  0  0  0  0  0  0  0
    8.1784  -14.9573   19.4875 C   0  0  2  0  0  0  0  0  0  0  0  0
    7.9910  -15.9620   18.4894 N   0  0  0  0  0  0  0  0  0  0  0  0
    7.6056  -15.3176   20.8019 C   0  0  0  0  0  0  0  0  0  0  0  0
    6.5805  -16.0462   20.8284 O   0  0  0  0  0  0  0  0  0  0  0  0
    8.1386  -14.8935   22.0468 N   0  0  0  0  0  0  0  0  0  0  0  0
    7.6161  -15.2802   23.3192 C   0  0  0  0  0  0  0  0  0  0  0  0
    8.3968  -14.7038   24.4543 C   0  0  0  0  0  0  0  0  0  0  0  0
    9.6338  -14.4642   24.3581 O   0  0  0  0  0  0  0  0  0  0  0  0
    7.1776  -11.7356   26.1212 C   0  0  0  0  0  0  0  0  0  0  0  0
    7.6277  -12.5931   27.2590 C   0  0  1  0  0  0  0  0  0  0  0  0
    6.4430  -13.0770   28.0565 C   0  0  0  0  0  0  0  0  0  0  0  0
    8.4906  -13.7648   26.8013 C   0  0  2  0  0  0  0  0  0  0  0  0
    7.7868  -14.3955   25.7008 N   0  0  0  0  0  0  0  0  0  0  0  0
    8.7435  -14.7153   27.8895 C   0  0  0  0  0  0  0  0  0  0  0  0
    9.6573  -14.3965   28.8711 O   0  0  0  0  0  0  0  0  0  0  0  0
    8.1669  -15.8418   27.9973 O   0  0  0  0  0  0  0  0  0  0  0  0
  2  3  1  1
  2  4  1  0
  2  1  1  0
  4  5  1  6
  6  4  1  0
  6  7  2  0
  8  6  1  0
  9  8  1  0
  9 10  1  0
 10 16  1  0
 11 10  2  0
 13 12  1  6
 13 15  1  0
 13 14  1  0
 15 17  1  0
 15 16  1  6
 17 19  2  0
 17 18  1  0
M  END
$$$$
