VGV.pdb
     RDKit          3D

 19 18  0  0  1  0  0  0  0  0999 V2000
    6.4052  -13.6444   18.9443 C   0  0  0  0  0  0  0  0  0  0  0  0
    7.8419  -13.2910   19.1721 C   0  0  2  0  0  0  0  0  0  0  0  0
    8.5159  -13.1188   17.8232 C   0  0  0  0  0  0  0  0  0  0  0  0
    8.5997  -14.3604   19.9099 C   0  0  2  0  0  0  0  0  0  0  0  0
    8.4884  -15.5836   19.1806 N   0  0  0  0  0  0  0  0  0  0  0  0
    8.1999  -14.4808   21.3281 C   0  0  0  0  0  0  0  0  0  0  0  0
    8.3913  -13.4978   22.0892 O   0  0  0  0  0  0  0  0  0  0  0  0
    7.6097  -15.6406   21.8939 N   0  0  0  0  0  0  0  0  0  0  0  0
    7.0140  -15.6886   23.1918 C   0  0  0  0  0  0  0  0  0  0  0  0
    7.8740  -15.0569   24.2366 C   0  0  0  0  0  0  0  0  0  0  0  0
    9.1280  -15.2120   24.2502 O   0  0  0  0  0  0  0  0  0  0  0  0
    6.9430  -11.4411   25.8148 C   0  0  0  0  0  0  0  0  0  0  0  0
    7.2840  -12.4614   26.8517 C   0  0  1  0  0  0  0  0  0  0  0  0
    6.0319  -12.9868   27.5076 C   0  0  0  0  0  0  0  0  0  0  0  0
    8.1255  -13.6041   26.2920 C   0  0  2  0  0  0  0  0  0  0  0  0
    7.3243  -14.2489   25.2690 N   0  0  0  0  0  0  0  0  0  0  0  0
    8.5230  -14.5532   27.3374 C   0  0  0  0  0  0  0  0  0  0  0  0
    9.4613  -14.1773   28.2747 O   0  0  0  0  0  0  0  0  0  0  0  0
    8.0538  -15.7283   27.4459 O   0  0  0  0  0  0  0  0  0  0  0  0
  2  3  1  6
  2  4  1  0
  2  1  1  0
  4  5  1  6
  6  4  1  0
  6  7  2  0
  8  6  1  0
  9  8  1  0
  9 10  1  0
 10 16  1  0
 11 10  2  0
 13 12  1  6
 13 15  1  0
 13 14  1  0
 15 17  1  0
 15 16  1  6
 17 19  2  0
 17 18  1  0
M  END
$$$$
