GFW.pdb
     RDKit          3D

 30 32  0  0  1  0  0  0  0  0999 V2000
   28.4190  -18.3094  -15.1536 N   0  0  0  0  0  0  0  0  0  0  0  0
   28.0379  -18.2191  -13.7775 C   0  0  0  0  0  0  0  0  0  0  0  0
   27.5442  -19.5406  -13.3219 C   0  0  0  0  0  0  0  0  0  0  0  0
   27.3193  -20.4234  -14.1619 O   0  0  0  0  0  0  0  0  0  0  0  0
   27.3272  -19.7999  -11.9312 N   0  0  0  0  0  0  0  0  0  0  0  0
   26.8532  -21.0818  -11.4763 C   0  0  1  0  0  0  0  0  0  0  0  0
   27.3916  -21.4332  -10.1159 C   0  0  0  0  0  0  0  0  0  0  0  0
   28.8716  -21.5187  -10.1712 C   0  0  0  0  0  0  0  0  0  0  0  0
   29.5080  -22.4445  -10.9551 C   0  0  0  0  0  0  0  0  0  0  0  0
   30.8728  -22.5142  -10.9999 C   0  0  0  0  0  0  0  0  0  0  0  0
   31.6128  -21.6185  -10.2267 C   0  0  0  0  0  0  0  0  0  0  0  0
   30.9624  -20.6926   -9.4427 C   0  0  0  0  0  0  0  0  0  0  0  0
   29.5919  -20.6329   -9.4066 C   0  0  0  0  0  0  0  0  0  0  0  0
   25.3568  -21.0837  -11.4419 C   0  0  0  0  0  0  0  0  0  0  0  0
   24.7873  -20.3711  -10.5948 O   0  0  0  0  0  0  0  0  0  0  0  0
   24.5777  -21.8578  -12.3281 N   0  0  0  0  0  0  0  0  0  0  0  0
   23.2990  -21.3521  -12.7671 C   0  0  1  0  0  0  0  0  0  0  0  0
   23.3484  -19.9373  -13.1854 C   0  0  0  0  0  0  0  0  0  0  0  0
   22.0811  -19.3234  -13.6319 C   0  0  0  0  0  0  0  0  0  0  0  0
   20.9561  -19.1240  -12.8156 C   0  0  0  0  0  0  0  0  0  0  0  0
   19.9779  -18.5814  -13.5448 N   0  0  0  0  0  0  0  0  0  0  0  0
   20.4145  -18.4165  -14.8026 C   0  0  0  0  0  0  0  0  0  0  0  0
   19.8295  -17.8910  -15.9565 C   0  0  0  0  0  0  0  0  0  0  0  0
   20.5506  -17.8346  -17.1270 C   0  0  0  0  0  0  0  0  0  0  0  0
   21.8469  -18.2877  -17.1896 C   0  0  0  0  0  0  0  0  0  0  0  0
   22.4288  -18.8086  -16.0512 C   0  0  0  0  0  0  0  0  0  0  0  0
   21.7046  -18.8675  -14.8703 C   0  0  0  0  0  0  0  0  0  0  0  0
   22.5726  -22.3047  -13.6164 C   0  0  0  0  0  0  0  0  0  0  0  0
   23.2300  -23.0703  -14.3630 O   0  0  0  0  0  0  0  0  0  0  0  0
   21.1916  -22.4467  -13.6793 O   0  0  0  0  0  0  0  0  0  0  0  0
  2  1  1  0
  3  2  1  0
  4  3  2  0
  5  3  1  0
  6  7  1  1
  6  5  1  0
  8  7  1  0
  9  8  2  0
 10  9  1  0
 11 12  1  0
 11 10  2  0
 12 13  2  0
 13  8  1  0
 14 15  2  0
 14  6  1  0
 16 14  1  0
 17 16  1  0
 17 18  1  6
 19 18  1  0
 20 19  2  0
 21 20  1  0
 22 21  1  0
 22 27  2  0
 23 22  1  0
 24 23  2  0
 24 25  1  0
 25 26  2  0
 26 27  1  0
 27 19  1  0
 28 30  1  0
 28 17  1  0
 29 28  2  0
M  END
$$$$
