GFW.pdb
     RDKit          3D

 30 32  0  0  1  0  0  0  0  0999 V2000
   27.5694  -22.3187  -17.7528 N   0  0  0  0  0  0  0  0  0  0  0  0
   26.7080  -22.4942  -16.6241 C   0  0  0  0  0  0  0  0  0  0  0  0
   27.3056  -21.8200  -15.4468 C   0  0  0  0  0  0  0  0  0  0  0  0
   28.5175  -21.9536  -15.2253 O   0  0  0  0  0  0  0  0  0  0  0  0
   26.4989  -21.0242  -14.5726 N   0  0  0  0  0  0  0  0  0  0  0  0
   27.0668  -20.3719  -13.4207 C   0  0  1  0  0  0  0  0  0  0  0  0
   26.8304  -18.8861  -13.4388 C   0  0  0  0  0  0  0  0  0  0  0  0
   27.4109  -18.3029  -14.6733 C   0  0  0  0  0  0  0  0  0  0  0  0
   26.6255  -17.6993  -15.6197 C   0  0  0  0  0  0  0  0  0  0  0  0
   27.1707  -17.1638  -16.7535 C   0  0  0  0  0  0  0  0  0  0  0  0
   28.5525  -17.2432  -16.9318 C   0  0  0  0  0  0  0  0  0  0  0  0
   29.3316  -17.8521  -15.9740 C   0  0  0  0  0  0  0  0  0  0  0  0
   28.7723  -18.3858  -14.8403 C   0  0  0  0  0  0  0  0  0  0  0  0
   26.4879  -20.9590  -12.1714 C   0  0  0  0  0  0  0  0  0  0  0  0
   25.3390  -21.4355  -12.2233 O   0  0  0  0  0  0  0  0  0  0  0  0
   27.1932  -20.9904  -10.9494 N   0  0  0  0  0  0  0  0  0  0  0  0
   26.5139  -21.4344   -9.7557 C   0  0  1  0  0  0  0  0  0  0  0  0
   27.4179  -21.5905   -8.5991 C   0  0  0  0  0  0  0  0  0  0  0  0
   27.4898  -20.4650   -7.6450 C   0  0  0  0  0  0  0  0  0  0  0  0
   26.9051  -19.2045   -7.8473 C   0  0  0  0  0  0  0  0  0  0  0  0
   27.1939  -18.4173   -6.8081 N   0  0  0  0  0  0  0  0  0  0  0  0
   27.9414  -19.1084   -5.9344 C   0  0  0  0  0  0  0  0  0  0  0  0
   28.5004  -18.7922   -4.6946 C   0  0  0  0  0  0  0  0  0  0  0  0
   29.2215  -19.7397   -4.0050 C   0  0  0  0  0  0  0  0  0  0  0  0
   29.4075  -21.0039   -4.5119 C   0  0  0  0  0  0  0  0  0  0  0  0
   28.8571  -21.3204   -5.7377 C   0  0  0  0  0  0  0  0  0  0  0  0
   28.1306  -20.3676   -6.4354 C   0  0  0  0  0  0  0  0  0  0  0  0
   25.2281  -20.7560   -9.5483 C   0  0  0  0  0  0  0  0  0  0  0  0
   25.0395  -19.6409  -10.0929 O   0  0  0  0  0  0  0  0  0  0  0  0
   24.1699  -21.2377   -8.7870 O   0  0  0  0  0  0  0  0  0  0  0  0
  2  1  1  0
  3  2  1  0
  4  3  2  0
  5  3  1  0
  6  7  1  6
  6  5  1  0
  8  7  1  0
  9  8  2  0
 10  9  1  0
 11 12  1  0
 11 10  2  0
 12 13  2  0
 13  8  1  0
 14 15  2  0
 14  6  1  0
 16 14  1  0
 17 16  1  0
 17 18  1  1
 19 18  1  0
 20 19  2  0
 21 20  1  0
 22 21  1  0
 22 27  2  0
 23 22  1  0
 24 23  2  0
 24 25  1  0
 25 26  2  0
 26 27  1  0
 27 19  1  0
 28 30  1  0
 28 17  1  0
 29 28  2  0
M  END
$$$$
