GFW.pdb
     RDKit          3D

 30 32  0  0  1  0  0  0  0  0999 V2000
   28.2176  -23.8204  -17.8434 N   0  0  0  0  0  0  0  0  0  0  0  0
   27.7890  -22.4800  -17.5853 C   0  0  0  0  0  0  0  0  0  0  0  0
   27.1433  -22.4241  -16.2521 C   0  0  0  0  0  0  0  0  0  0  0  0
   26.5019  -23.4052  -15.8503 O   0  0  0  0  0  0  0  0  0  0  0  0
   27.2545  -21.2546  -15.4345 N   0  0  0  0  0  0  0  0  0  0  0  0
   26.6815  -21.2103  -14.1137 C   0  0  1  0  0  0  0  0  0  0  0  0
   27.3694  -20.2030  -13.2327 C   0  0  0  0  0  0  0  0  0  0  0  0
   26.8436  -20.3076  -11.8495 C   0  0  0  0  0  0  0  0  0  0  0  0
   25.8835  -19.4504  -11.3802 C   0  0  0  0  0  0  0  0  0  0  0  0
   25.4046  -19.5561  -10.1038 C   0  0  0  0  0  0  0  0  0  0  0  0
   25.9149  -20.5605   -9.2803 C   0  0  0  0  0  0  0  0  0  0  0  0
   26.8794  -21.4161   -9.7627 C   0  0  0  0  0  0  0  0  0  0  0  0
   27.3518  -21.2996  -11.0458 C   0  0  0  0  0  0  0  0  0  0  0  0
   25.2233  -20.8857  -14.2066 C   0  0  0  0  0  0  0  0  0  0  0  0
   24.8575  -20.0639  -15.0673 O   0  0  0  0  0  0  0  0  0  0  0  0
   24.2589  -21.4736  -13.3605 N   0  0  0  0  0  0  0  0  0  0  0  0
   22.8650  -21.1500  -13.5499 C   0  0  1  0  0  0  0  0  0  0  0  0
   21.9531  -22.1315  -12.9301 C   0  0  0  0  0  0  0  0  0  0  0  0
   20.5038  -21.8712  -13.0484 C   0  0  0  0  0  0  0  0  0  0  0  0
   19.6863  -22.3475  -14.0860 C   0  0  0  0  0  0  0  0  0  0  0  0
   18.4425  -21.8973  -13.9037 N   0  0  0  0  0  0  0  0  0  0  0  0
   18.4107  -21.1478  -12.7914 C   0  0  0  0  0  0  0  0  0  0  0  0
   17.3914  -20.4576  -12.1324 C   0  0  0  0  0  0  0  0  0  0  0  0
   17.6652  -19.7746  -10.9697 C   0  0  0  0  0  0  0  0  0  0  0  0
   18.9313  -19.7544  -10.4349 C   0  0  0  0  0  0  0  0  0  0  0  0
   19.9422  -20.4349  -11.0836 C   0  0  0  0  0  0  0  0  0  0  0  0
   19.6697  -21.1234  -12.2558 C   0  0  0  0  0  0  0  0  0  0  0  0
   22.5830  -19.7212  -13.3615 C   0  0  0  0  0  0  0  0  0  0  0  0
   22.0982  -19.0705  -14.3192 O   0  0  0  0  0  0  0  0  0  0  0  0
   22.8065  -18.9965  -12.1969 O   0  0  0  0  0  0  0  0  0  0  0  0
  2  1  1  0
  3  2  1  0
  4  3  2  0
  5  3  1  0
  6  7  1  1
  6  5  1  0
  8  7  1  0
  9  8  2  0
 10  9  1  0
 11 12  1  0
 11 10  2  0
 12 13  2  0
 13  8  1  0
 14 15  2  0
 14  6  1  0
 16 14  1  0
 17 16  1  0
 17 18  1  1
 19 18  1  0
 20 19  2  0
 21 20  1  0
 22 21  1  0
 22 27  2  0
 23 22  1  0
 24 23  2  0
 24 25  1  0
 25 26  2  0
 26 27  1  0
 27 19  1  0
 28 30  1  0
 28 17  1  0
 29 28  2  0
M  END
$$$$
