GFW.pdb
     RDKit          3D

 30 32  0  0  1  0  0  0  0  0999 V2000
   28.7805  -21.4999  -17.4257 N   0  0  0  0  0  0  0  0  0  0  0  0
   28.5003  -22.2821  -16.2610 C   0  0  0  0  0  0  0  0  0  0  0  0
   27.9263  -21.4051  -15.2127 C   0  0  0  0  0  0  0  0  0  0  0  0
   28.4201  -20.2840  -15.0265 O   0  0  0  0  0  0  0  0  0  0  0  0
   26.8163  -21.8417  -14.4217 N   0  0  0  0  0  0  0  0  0  0  0  0
   26.1349  -20.9392  -13.5296 C   0  0  1  0  0  0  0  0  0  0  0  0
   24.6804  -20.7858  -13.8829 C   0  0  0  0  0  0  0  0  0  0  0  0
   24.5517  -20.0245  -15.1497 C   0  0  0  0  0  0  0  0  0  0  0  0
   24.4386  -18.6593  -15.1579 C   0  0  0  0  0  0  0  0  0  0  0  0
   24.3216  -17.9669  -16.3311 C   0  0  0  0  0  0  0  0  0  0  0  0
   24.3194  -18.6807  -17.5303 C   0  0  0  0  0  0  0  0  0  0  0  0
   24.4336  -20.0524  -17.5097 C   0  0  0  0  0  0  0  0  0  0  0  0
   24.5504  -20.7357  -16.3255 C   0  0  0  0  0  0  0  0  0  0  0  0
   26.2622  -21.4295  -12.1211 C   0  0  0  0  0  0  0  0  0  0  0  0
   26.2302  -22.6578  -11.9210 O   0  0  0  0  0  0  0  0  0  0  0  0
   26.4159  -20.5557  -11.0236 N   0  0  0  0  0  0  0  0  0  0  0  0
   26.4264  -21.0995   -9.6866 C   0  0  1  0  0  0  0  0  0  0  0  0
   27.7032  -20.8756   -8.9802 C   0  0  0  0  0  0  0  0  0  0  0  0
   27.6666  -20.0113   -7.7827 C   0  0  0  0  0  0  0  0  0  0  0  0
   26.7700  -18.9482   -7.5890 C   0  0  0  0  0  0  0  0  0  0  0  0
   27.0366  -18.3594   -6.4205 N   0  0  0  0  0  0  0  0  0  0  0  0
   28.0683  -18.9918   -5.8412 C   0  0  0  0  0  0  0  0  0  0  0  0
   28.7411  -18.8134   -4.6307 C   0  0  0  0  0  0  0  0  0  0  0  0
   29.7772  -19.6527   -4.2911 C   0  0  0  0  0  0  0  0  0  0  0  0
   30.1710  -20.6737   -5.1231 C   0  0  0  0  0  0  0  0  0  0  0  0
   29.5089  -20.8531   -6.3212 C   0  0  0  0  0  0  0  0  0  0  0  0
   28.4649  -20.0085   -6.6666 C   0  0  0  0  0  0  0  0  0  0  0  0
   25.1751  -20.8468   -8.9608 C   0  0  0  0  0  0  0  0  0  0  0  0
   24.3198  -20.0881   -9.4790 O   0  0  0  0  0  0  0  0  0  0  0  0
   24.8339  -21.3771   -7.7224 O   0  0  0  0  0  0  0  0  0  0  0  0
  2  1  1  0
  3  2  1  0
  4  3  2  0
  5  3  1  0
  6  7  1  6
  6  5  1  0
  8  7  1  0
  9  8  2  0
 10  9  1  0
 11 12  1  0
 11 10  2  0
 12 13  2  0
 13  8  1  0
 14 15  2  0
 14  6  1  0
 16 14  1  0
 17 16  1  0
 17 18  1  1
 19 18  1  0
 20 19  2  0
 21 20  1  0
 22 21  1  0
 22 27  2  0
 23 22  1  0
 24 23  2  0
 24 25  1  0
 25 26  2  0
 26 27  1  0
 27 19  1  0
 28 30  1  0
 28 17  1  0
 29 28  2  0
M  END
$$$$
