GFW.pdb
     RDKit          3D

 30 32  0  0  1  0  0  0  0  0999 V2000
   28.3291  -23.5412  -16.9324 N   0  0  0  0  0  0  0  0  0  0  0  0
   27.0808  -23.0932  -16.3959 C   0  0  0  0  0  0  0  0  0  0  0  0
   27.3364  -22.0421  -15.3821 C   0  0  0  0  0  0  0  0  0  0  0  0
   28.5063  -21.7606  -15.0862 O   0  0  0  0  0  0  0  0  0  0  0  0
   26.2505  -21.3579  -14.7489 N   0  0  0  0  0  0  0  0  0  0  0  0
   26.4846  -20.2528  -13.8552 C   0  0  1  0  0  0  0  0  0  0  0  0
   25.6890  -19.0354  -14.2411 C   0  0  0  0  0  0  0  0  0  0  0  0
   26.5176  -18.1462  -15.0918 C   0  0  0  0  0  0  0  0  0  0  0  0
   27.0516  -18.5802  -16.2764 C   0  0  0  0  0  0  0  0  0  0  0  0
   27.8130  -17.7522  -17.0538 C   0  0  0  0  0  0  0  0  0  0  0  0
   28.0388  -16.4464  -16.6162 C   0  0  0  0  0  0  0  0  0  0  0  0
   27.4971  -16.0215  -15.4240 C   0  0  0  0  0  0  0  0  0  0  0  0
   26.7347  -16.8623  -14.6529 C   0  0  0  0  0  0  0  0  0  0  0  0
   26.1425  -20.6550  -12.4545 C   0  0  0  0  0  0  0  0  0  0  0  0
   25.2076  -21.4595  -12.2855 O   0  0  0  0  0  0  0  0  0  0  0  0
   26.8368  -20.1584  -11.3307 N   0  0  0  0  0  0  0  0  0  0  0  0
   26.4319  -20.5788  -10.0106 C   0  0  1  0  0  0  0  0  0  0  0  0
   27.4430  -20.2890   -8.9748 C   0  0  0  0  0  0  0  0  0  0  0  0
   27.0620  -20.5492   -7.5715 C   0  0  0  0  0  0  0  0  0  0  0  0
   25.8926  -21.2143   -7.1689 C   0  0  0  0  0  0  0  0  0  0  0  0
   25.8446  -21.2444   -5.8348 N   0  0  0  0  0  0  0  0  0  0  0  0
   26.9322  -20.6287   -5.3472 C   0  0  0  0  0  0  0  0  0  0  0  0
   27.3939  -20.3868   -4.0518 C   0  0  0  0  0  0  0  0  0  0  0  0
   28.5869  -19.7287   -3.8599 C   0  0  0  0  0  0  0  0  0  0  0  0
   29.3440  -19.2984   -4.9235 C   0  0  0  0  0  0  0  0  0  0  0  0
   28.8909  -19.5348   -6.2059 C   0  0  0  0  0  0  0  0  0  0  0  0
   27.6887  -20.1971   -6.4026 C   0  0  0  0  0  0  0  0  0  0  0  0
   25.0272  -20.2641   -9.7202 C   0  0  0  0  0  0  0  0  0  0  0  0
   24.6128  -19.0991   -9.9364 O   0  0  0  0  0  0  0  0  0  0  0  0
   24.0845  -21.1512   -9.2145 O   0  0  0  0  0  0  0  0  0  0  0  0
  2  1  1  0
  3  2  1  0
  4  3  2  0
  5  3  1  0
  6  7  1  6
  6  5  1  0
  8  7  1  0
  9  8  2  0
 10  9  1  0
 11 12  1  0
 11 10  2  0
 12 13  2  0
 13  8  1  0
 14 15  2  0
 14  6  1  0
 16 14  1  0
 17 16  1  0
 17 18  1  1
 19 18  1  0
 20 19  2  0
 21 20  1  0
 22 21  1  0
 22 27  2  0
 23 22  1  0
 24 23  2  0
 24 25  1  0
 25 26  2  0
 26 27  1  0
 27 19  1  0
 28 30  1  0
 28 17  1  0
 29 28  2  0
M  END
$$$$
