GFW.pdb
     RDKit          3D

 30 32  0  0  1  0  0  0  0  0999 V2000
   29.0757  -19.9936  -15.7319 N   0  0  0  0  0  0  0  0  0  0  0  0
   28.5206  -19.3321  -14.5911 C   0  0  0  0  0  0  0  0  0  0  0  0
   27.6393  -20.2759  -13.8629 C   0  0  0  0  0  0  0  0  0  0  0  0
   27.2149  -21.2811  -14.4502 O   0  0  0  0  0  0  0  0  0  0  0  0
   27.2786  -20.0347  -12.4990 N   0  0  0  0  0  0  0  0  0  0  0  0
   26.4280  -20.9477  -11.7795 C   0  0  1  0  0  0  0  0  0  0  0  0
   26.8445  -21.0940  -10.3411 C   0  0  0  0  0  0  0  0  0  0  0  0
   28.2862  -21.4364  -10.2709 C   0  0  0  0  0  0  0  0  0  0  0  0
   28.8043  -22.5040  -10.9555 C   0  0  0  0  0  0  0  0  0  0  0  0
   30.1350  -22.8103  -10.8850 C   0  0  0  0  0  0  0  0  0  0  0  0
   30.9635  -22.0102  -10.0971 C   0  0  0  0  0  0  0  0  0  0  0  0
   30.4318  -20.9400   -9.4137 C   0  0  0  0  0  0  0  0  0  0  0  0
   29.0944  -20.6430   -9.4927 C   0  0  0  0  0  0  0  0  0  0  0  0
   25.0091  -20.4760  -11.8477 C   0  0  0  0  0  0  0  0  0  0  0  0
   24.6973  -19.4553  -11.2066 O   0  0  0  0  0  0  0  0  0  0  0  0
   24.0229  -21.1419  -12.6063 N   0  0  0  0  0  0  0  0  0  0  0  0
   22.6764  -20.6221  -12.6221 C   0  0  1  0  0  0  0  0  0  0  0  0
   22.3889  -19.7947  -13.8103 C   0  0  0  0  0  0  0  0  0  0  0  0
   23.2153  -20.0325  -15.0115 C   0  0  0  0  0  0  0  0  0  0  0  0
   23.2419  -21.2319  -15.7412 C   0  0  0  0  0  0  0  0  0  0  0  0
   24.1202  -21.1160  -16.7402 N   0  0  0  0  0  0  0  0  0  0  0  0
   24.6689  -19.8925  -16.6961 C   0  0  0  0  0  0  0  0  0  0  0  0
   25.6142  -19.2395  -17.4896 C   0  0  0  0  0  0  0  0  0  0  0  0
   25.9748  -17.9433  -17.2013 C   0  0  0  0  0  0  0  0  0  0  0  0
   25.4215  -17.2677  -16.1396 C   0  0  0  0  0  0  0  0  0  0  0  0
   24.4871  -17.9099  -15.3521 C   0  0  0  0  0  0  0  0  0  0  0  0
   24.1222  -19.2163  -15.6396 C   0  0  0  0  0  0  0  0  0  0  0  0
   21.6786  -21.6168  -12.2079 C   0  0  0  0  0  0  0  0  0  0  0  0
   20.6052  -21.2169  -11.6945 O   0  0  0  0  0  0  0  0  0  0  0  0
   21.8079  -22.9952  -12.3292 O   0  0  0  0  0  0  0  0  0  0  0  0
  2  1  1  0
  3  2  1  0
  4  3  2  0
  5  3  1  0
  6  7  1  1
  6  5  1  0
  8  7  1  0
  9  8  2  0
 10  9  1  0
 11 12  1  0
 11 10  2  0
 12 13  2  0
 13  8  1  0
 14 15  2  0
 14  6  1  0
 16 14  1  0
 17 16  1  0
 17 18  1  6
 19 18  1  0
 20 19  2  0
 21 20  1  0
 22 21  1  0
 22 27  2  0
 23 22  1  0
 24 23  2  0
 24 25  1  0
 25 26  2  0
 26 27  1  0
 27 19  1  0
 28 30  1  0
 28 17  1  0
 29 28  2  0
M  END
$$$$
