GFW.pdb
     RDKit          3D

 30 32  0  0  1  0  0  0  0  0999 V2000
   26.0635  -27.1044  -16.4560 N   0  0  0  0  0  0  0  0  0  0  0  0
   25.2657  -25.9281  -16.6200 C   0  0  0  0  0  0  0  0  0  0  0  0
   25.9953  -24.7641  -16.0630 C   0  0  0  0  0  0  0  0  0  0  0  0
   27.0821  -24.9474  -15.4966 O   0  0  0  0  0  0  0  0  0  0  0  0
   25.4567  -23.4427  -16.1737 N   0  0  0  0  0  0  0  0  0  0  0  0
   26.1686  -22.3012  -15.6592 C   0  0  1  0  0  0  0  0  0  0  0  0
   25.9945  -21.0867  -16.5302 C   0  0  0  0  0  0  0  0  0  0  0  0
   26.7949  -19.9625  -15.9857 C   0  0  0  0  0  0  0  0  0  0  0  0
   28.1533  -19.9022  -16.1523 C   0  0  0  0  0  0  0  0  0  0  0  0
   28.8817  -18.8610  -15.6474 C   0  0  0  0  0  0  0  0  0  0  0  0
   28.2120  -17.8521  -14.9536 C   0  0  0  0  0  0  0  0  0  0  0  0
   26.8467  -17.9234  -14.7925 C   0  0  0  0  0  0  0  0  0  0  0  0
   26.1271  -18.9738  -15.3040 C   0  0  0  0  0  0  0  0  0  0  0  0
   25.6990  -21.9969  -14.2709 C   0  0  0  0  0  0  0  0  0  0  0  0
   24.4739  -21.8955  -14.0736 O   0  0  0  0  0  0  0  0  0  0  0  0
   26.5884  -21.8231  -13.1892 N   0  0  0  0  0  0  0  0  0  0  0  0
   26.0620  -21.4527  -11.8972 C   0  0  1  0  0  0  0  0  0  0  0  0
   27.0738  -21.5028  -10.8234 C   0  0  0  0  0  0  0  0  0  0  0  0
   26.7236  -20.8629   -9.5389 C   0  0  0  0  0  0  0  0  0  0  0  0
   25.4380  -20.4195   -9.1889 C   0  0  0  0  0  0  0  0  0  0  0  0
   25.4838  -19.8599   -7.9774 N   0  0  0  0  0  0  0  0  0  0  0  0
   26.7434  -19.9187   -7.5193 C   0  0  0  0  0  0  0  0  0  0  0  0
   27.3483  -19.5079   -6.3298 C   0  0  0  0  0  0  0  0  0  0  0  0
   28.6925  -19.7254   -6.1325 C   0  0  0  0  0  0  0  0  0  0  0  0
   29.4635  -20.3438   -7.0879 C   0  0  0  0  0  0  0  0  0  0  0  0
   28.8696  -20.7509   -8.2658 C   0  0  0  0  0  0  0  0  0  0  0  0
   27.5154  -20.5324   -8.4679 C   0  0  0  0  0  0  0  0  0  0  0  0
   25.1700  -20.2879  -11.9600 C   0  0  0  0  0  0  0  0  0  0  0  0
   25.5691  -19.2534  -12.5484 O   0  0  0  0  0  0  0  0  0  0  0  0
   23.8930  -20.2134  -11.4168 O   0  0  0  0  0  0  0  0  0  0  0  0
  2  1  1  0
  3  2  1  0
  4  3  2  0
  5  3  1  0
  6  7  1  6
  6  5  1  0
  8  7  1  0
  9  8  2  0
 10  9  1  0
 11 12  1  0
 11 10  2  0
 12 13  2  0
 13  8  1  0
 14 15  2  0
 14  6  1  0
 16 14  1  0
 17 16  1  0
 17 18  1  1
 19 18  1  0
 20 19  2  0
 21 20  1  0
 22 21  1  0
 22 27  2  0
 23 22  1  0
 24 23  2  0
 24 25  1  0
 25 26  2  0
 26 27  1  0
 27 19  1  0
 28 30  1  0
 28 17  1  0
 29 28  2  0
M  END
$$$$
