GFW.pdb
     RDKit          3D

 30 32  0  0  1  0  0  0  0  0999 V2000
   25.7615  -22.2603  -17.8571 N   0  0  0  0  0  0  0  0  0  0  0  0
   25.1255  -21.8251  -16.6517 C   0  0  0  0  0  0  0  0  0  0  0  0
   26.0422  -22.0520  -15.5089 C   0  0  0  0  0  0  0  0  0  0  0  0
   26.0970  -23.1774  -14.9932 O   0  0  0  0  0  0  0  0  0  0  0  0
   26.8557  -20.9891  -15.0023 N   0  0  0  0  0  0  0  0  0  0  0  0
   27.7141  -21.1847  -13.8622 C   0  0  1  0  0  0  0  0  0  0  0  0
   28.9357  -20.3081  -13.9174 C   0  0  0  0  0  0  0  0  0  0  0  0
   29.8353  -20.6330  -12.7833 C   0  0  0  0  0  0  0  0  0  0  0  0
   30.4533  -21.8516  -12.6842 C   0  0  0  0  0  0  0  0  0  0  0  0
   31.2817  -22.1406  -11.6354 C   0  0  0  0  0  0  0  0  0  0  0  0
   31.4885  -21.1649  -10.6594 C   0  0  0  0  0  0  0  0  0  0  0  0
   30.8620  -19.9440  -10.7695 C   0  0  0  0  0  0  0  0  0  0  0  0
   30.0330  -19.6662  -11.8271 C   0  0  0  0  0  0  0  0  0  0  0  0
   26.9524  -20.9089  -12.6036 C   0  0  0  0  0  0  0  0  0  0  0  0
   26.1668  -19.9432  -12.5914 O   0  0  0  0  0  0  0  0  0  0  0  0
   27.0931  -21.6983  -11.4422 N   0  0  0  0  0  0  0  0  0  0  0  0
   26.4897  -21.2512  -10.2095 C   0  0  1  0  0  0  0  0  0  0  0  0
   27.2778  -21.6120   -9.0146 C   0  0  0  0  0  0  0  0  0  0  0  0
   26.9407  -20.9216   -7.7529 C   0  0  0  0  0  0  0  0  0  0  0  0
   25.6443  -20.5435   -7.3682 C   0  0  0  0  0  0  0  0  0  0  0  0
   25.7042  -19.9115   -6.1934 N   0  0  0  0  0  0  0  0  0  0  0  0
   26.9835  -19.8604   -5.7927 C   0  0  0  0  0  0  0  0  0  0  0  0
   27.6099  -19.3414   -4.6578 C   0  0  0  0  0  0  0  0  0  0  0  0
   28.9731  -19.4583   -4.5122 C   0  0  0  0  0  0  0  0  0  0  0  0
   29.7424  -20.0802   -5.4667 C   0  0  0  0  0  0  0  0  0  0  0  0
   29.1271  -20.5942   -6.5906 C   0  0  0  0  0  0  0  0  0  0  0  0
   27.7537  -20.4773   -6.7406 C   0  0  0  0  0  0  0  0  0  0  0  0
   25.9502  -19.8886  -10.3028 C   0  0  0  0  0  0  0  0  0  0  0  0
   26.7479  -18.9340  -10.4702 O   0  0  0  0  0  0  0  0  0  0  0  0
   24.6074  -19.5400  -10.2206 O   0  0  0  0  0  0  0  0  0  0  0  0
  2  1  1  0
  3  2  1  0
  4  3  2  0
  5  3  1  0
  6  7  1  6
  6  5  1  0
  8  7  1  0
  9  8  2  0
 10  9  1  0
 11 12  1  0
 11 10  2  0
 12 13  2  0
 13  8  1  0
 14 15  2  0
 14  6  1  0
 16 14  1  0
 17 16  1  0
 17 18  1  1
 19 18  1  0
 20 19  2  0
 21 20  1  0
 22 21  1  0
 22 27  2  0
 23 22  1  0
 24 23  2  0
 24 25  1  0
 25 26  2  0
 26 27  1  0
 27 19  1  0
 28 30  1  0
 28 17  1  0
 29 28  2  0
M  END
$$$$
