GFW.pdb
     RDKit          3D

 30 32  0  0  1  0  0  0  0  0999 V2000
   24.2944  -19.7439  -18.9426 N   0  0  0  0  0  0  0  0  0  0  0  0
   24.2645  -19.8486  -17.5161 C   0  0  0  0  0  0  0  0  0  0  0  0
   25.6248  -20.1722  -17.0236 C   0  0  0  0  0  0  0  0  0  0  0  0
   26.3385  -20.9412  -17.6829 O   0  0  0  0  0  0  0  0  0  0  0  0
   26.1135  -19.6077  -15.8025 N   0  0  0  0  0  0  0  0  0  0  0  0
   27.4238  -19.9345  -15.3013 C   0  0  1  0  0  0  0  0  0  0  0  0
   28.0183  -18.8097  -14.4979 C   0  0  0  0  0  0  0  0  0  0  0  0
   27.8904  -17.5371  -15.2495 C   0  0  0  0  0  0  0  0  0  0  0  0
   28.5809  -17.3180  -16.4123 C   0  0  0  0  0  0  0  0  0  0  0  0
   28.4550  -16.1418  -17.0981 C   0  0  0  0  0  0  0  0  0  0  0  0
   27.6039  -15.1599  -16.5891 C   0  0  0  0  0  0  0  0  0  0  0  0
   26.9152  -15.3913  -15.4198 C   0  0  0  0  0  0  0  0  0  0  0  0
   27.0502  -16.5761  -14.7408 C   0  0  0  0  0  0  0  0  0  0  0  0
   27.3488  -21.1700  -14.4597 C   0  0  0  0  0  0  0  0  0  0  0  0
   28.4049  -21.7853  -14.2232 O   0  0  0  0  0  0  0  0  0  0  0  0
   26.1341  -21.6559  -13.9304 N   0  0  0  0  0  0  0  0  0  0  0  0
   25.9437  -21.6665  -12.4996 C   0  0  1  0  0  0  0  0  0  0  0  0
   26.8028  -20.6956  -11.7937 C   0  0  0  0  0  0  0  0  0  0  0  0
   26.6519  -20.6059  -10.3269 C   0  0  0  0  0  0  0  0  0  0  0  0
   25.4622  -20.2657   -9.6632 C   0  0  0  0  0  0  0  0  0  0  0  0
   25.6872  -20.2434   -8.3472 N   0  0  0  0  0  0  0  0  0  0  0  0
   26.9724  -20.5551   -8.1212 C   0  0  0  0  0  0  0  0  0  0  0  0
   27.7325  -20.6929   -6.9580 C   0  0  0  0  0  0  0  0  0  0  0  0
   29.0586  -21.0499   -7.0429 C   0  0  0  0  0  0  0  0  0  0  0  0
   29.6606  -21.2768   -8.2577 C   0  0  0  0  0  0  0  0  0  0  0  0
   28.9129  -21.1409   -9.4102 C   0  0  0  0  0  0  0  0  0  0  0  0
   27.5765  -20.7805   -9.3281 C   0  0  0  0  0  0  0  0  0  0  0  0
   24.5289  -21.7530  -12.1156 C   0  0  0  0  0  0  0  0  0  0  0  0
   24.1558  -22.7140  -11.3993 O   0  0  0  0  0  0  0  0  0  0  0  0
   23.5333  -20.8532  -12.4770 O   0  0  0  0  0  0  0  0  0  0  0  0
  2  1  1  0
  3  2  1  0
  4  3  2  0
  5  3  1  0
  6  7  1  1
  6  5  1  0
  8  7  1  0
  9  8  2  0
 10  9  1  0
 11 12  1  0
 11 10  2  0
 12 13  2  0
 13  8  1  0
 14 15  2  0
 14  6  1  0
 16 14  1  0
 17 16  1  0
 17 18  1  6
 19 18  1  0
 20 19  2  0
 21 20  1  0
 22 21  1  0
 22 27  2  0
 23 22  1  0
 24 23  2  0
 24 25  1  0
 25 26  2  0
 26 27  1  0
 27 19  1  0
 28 30  1  0
 28 17  1  0
 29 28  2  0
M  END
$$$$
