GFW.pdb
     RDKit          3D

 30 32  0  0  1  0  0  0  0  0999 V2000
   29.0512  -23.0444  -16.9493 N   0  0  0  0  0  0  0  0  0  0  0  0
   28.3164  -21.8313  -16.7608 C   0  0  0  0  0  0  0  0  0  0  0  0
   27.5237  -21.9319  -15.5122 C   0  0  0  0  0  0  0  0  0  0  0  0
   27.2490  -23.0525  -15.0601 O   0  0  0  0  0  0  0  0  0  0  0  0
   27.0776  -20.7539  -14.8327 N   0  0  0  0  0  0  0  0  0  0  0  0
   26.3240  -20.8391  -13.6082 C   0  0  1  0  0  0  0  0  0  0  0  0
   26.8127  -19.8610  -12.5745 C   0  0  0  0  0  0  0  0  0  0  0  0
   27.9422  -20.4558  -11.8186 C   0  0  0  0  0  0  0  0  0  0  0  0
   29.2339  -20.3591  -12.2645 C   0  0  0  0  0  0  0  0  0  0  0  0
   30.2680  -20.9099  -11.5596 C   0  0  0  0  0  0  0  0  0  0  0  0
   29.9828  -21.5780  -10.3681 C   0  0  0  0  0  0  0  0  0  0  0  0
   28.6809  -21.6689   -9.9299 C   0  0  0  0  0  0  0  0  0  0  0  0
   27.6519  -21.1118  -10.6466 C   0  0  0  0  0  0  0  0  0  0  0  0
   24.8745  -20.5928  -13.8891 C   0  0  0  0  0  0  0  0  0  0  0  0
   24.5789  -19.7683  -14.7738 O   0  0  0  0  0  0  0  0  0  0  0  0
   23.8423  -21.2569  -13.1926 N   0  0  0  0  0  0  0  0  0  0  0  0
   22.4681  -20.9645  -13.5236 C   0  0  1  0  0  0  0  0  0  0  0  0
   21.5152  -21.9362  -12.9516 C   0  0  0  0  0  0  0  0  0  0  0  0
   20.0767  -21.6602  -13.1436 C   0  0  0  0  0  0  0  0  0  0  0  0
   19.3372  -22.0181  -14.2823 C   0  0  0  0  0  0  0  0  0  0  0  0
   18.0815  -21.5868  -14.1409 N   0  0  0  0  0  0  0  0  0  0  0  0
   17.9672  -20.9629  -12.9588 C   0  0  0  0  0  0  0  0  0  0  0  0
   16.9003  -20.3457  -12.3026 C   0  0  0  0  0  0  0  0  0  0  0  0
   17.0876  -19.7943  -11.0559 C   0  0  0  0  0  0  0  0  0  0  0  0
   18.3125  -19.8363  -10.4334 C   0  0  0  0  0  0  0  0  0  0  0  0
   19.3702  -20.4450  -11.0790 C   0  0  0  0  0  0  0  0  0  0  0  0
   19.1848  -21.0008  -12.3356 C   0  0  0  0  0  0  0  0  0  0  0  0
   22.1510  -19.5344  -13.4204 C   0  0  0  0  0  0  0  0  0  0  0  0
   22.5462  -18.9000  -12.4119 O   0  0  0  0  0  0  0  0  0  0  0  0
   21.4358  -18.7923  -14.3528 O   0  0  0  0  0  0  0  0  0  0  0  0
  2  1  1  0
  3  2  1  0
  4  3  2  0
  5  3  1  0
  6  7  1  1
  6  5  1  0
  8  7  1  0
  9  8  2  0
 10  9  1  0
 11 12  1  0
 11 10  2  0
 12 13  2  0
 13  8  1  0
 14 15  2  0
 14  6  1  0
 16 14  1  0
 17 16  1  0
 17 18  1  1
 19 18  1  0
 20 19  2  0
 21 20  1  0
 22 21  1  0
 22 27  2  0
 23 22  1  0
 24 23  2  0
 24 25  1  0
 25 26  2  0
 26 27  1  0
 27 19  1  0
 28 30  1  0
 28 17  1  0
 29 28  2  0
M  END
$$$$
