HWY.pdb
     RDKit          3D

 37 40  0  0  1  0  0  0  0  0999 V2000
   11.0093  -18.2006   19.9240 N   0  0  0  0  0  0  0  0  0  0  0  0
   10.3637  -18.6308   21.1825 C   0  0  1  0  0  0  0  0  0  0  0  0
   11.2396  -19.6944   21.7608 C   0  0  0  0  0  0  0  0  0  0  0  0
   11.0325  -21.0187   21.1750 C   0  0  0  0  0  0  0  0  0  0  0  0
   10.1856  -21.4083   20.1537 C   0  0  0  0  0  0  0  0  0  0  0  0
   10.3322  -22.7312   19.9870 N   0  0  0  0  0  0  0  0  0  0  0  0
   11.2374  -23.1920   20.8619 C   0  0  0  0  0  0  0  0  0  0  0  0
   11.6514  -22.1526   21.5710 N   0  0  0  0  0  0  0  0  0  0  0  0
   10.2630  -17.4341   22.0334 C   0  0  0  0  0  0  0  0  0  0  0  0
   11.2840  -16.6712   22.1747 O   0  0  0  0  0  0  0  0  0  0  0  0
    9.0940  -17.0500   22.7195 N   0  0  0  0  0  0  0  0  0  0  0  0
    9.0785  -15.8749   23.6033 C   0  0  1  0  0  0  0  0  0  0  0  0
    7.6540  -15.3214   23.5248 C   0  0  0  0  0  0  0  0  0  0  0  0
    7.5156  -14.0084   24.1807 C   0  0  0  0  0  0  0  0  0  0  0  0
    8.0402  -12.8109   23.6470 C   0  0  0  0  0  0  0  0  0  0  0  0
    7.7296  -11.7927   24.4406 N   0  0  0  0  0  0  0  0  0  0  0  0
    7.0229  -12.2133   25.4905 C   0  0  0  0  0  0  0  0  0  0  0  0
    6.4851  -11.5666   26.5717 C   0  0  0  0  0  0  0  0  0  0  0  0
    5.7874  -12.2654   27.5486 C   0  0  0  0  0  0  0  0  0  0  0  0
    5.6698  -13.6212   27.3715 C   0  0  0  0  0  0  0  0  0  0  0  0
    6.2070  -14.2985   26.2824 C   0  0  0  0  0  0  0  0  0  0  0  0
    6.8914  -13.5886   25.3281 C   0  0  0  0  0  0  0  0  0  0  0  0
    9.4863  -16.2185   24.9520 C   0  0  0  0  0  0  0  0  0  0  0  0
    9.1372  -17.3268   25.4495 O   0  0  0  0  0  0  0  0  0  0  0  0
   15.4854  -18.7893   24.0434 O   0  0  0  0  0  0  0  0  0  0  0  0
   14.6703  -17.9855   24.8588 C   0  0  0  0  0  0  0  0  0  0  0  0
   14.1899  -16.7805   24.3935 C   0  0  0  0  0  0  0  0  0  0  0  0
   13.3817  -15.9588   25.1694 C   0  0  0  0  0  0  0  0  0  0  0  0
   13.0353  -16.3385   26.4484 C   0  0  0  0  0  0  0  0  0  0  0  0
   12.1745  -15.4815   27.3018 C   0  0  0  0  0  0  0  0  0  0  0  0
   10.6862  -15.7893   27.0750 C   0  0  2  0  0  0  0  0  0  0  0  0
   10.2950  -15.3351   25.7619 N   0  0  0  0  0  0  0  0  0  0  0  0
    9.8703  -15.2287   28.1571 C   0  0  0  0  0  0  0  0  0  0  0  0
    9.0217  -14.3454   27.8976 O   0  0  0  0  0  0  0  0  0  0  0  0
   13.5169  -17.5441   26.9118 C   0  0  0  0  0  0  0  0  0  0  0  0
   14.3225  -18.3637   26.1387 C   0  0  0  0  0  0  0  0  0  0  0  0
   10.0040  -15.6439   29.4715 O   0  0  0  0  0  0  0  0  0  0  0  0
  2  1  1  6
  3  4  1  0
  3  2  1  0
  4  5  2  0
  6  5  1  0
  7  6  1  0
  8  7  2  0
  8  4  1  0
  9  2  1  0
  9 11  1  0
 10  9  2  0
 12 11  1  0
 12 13  1  1
 14 13  1  0
 14 15  2  0
 16 15  1  0
 17 22  2  0
 17 16  1  0
 18 17  1  0
 19 20  1  0
 19 18  2  0
 20 21  2  0
 21 22  1  0
 22 14  1  0
 23 12  1  0
 24 23  2  0
 25 26  1  0
 26 27  2  0
 26 36  1  0
 27 28  1  0
 28 29  2  0
 29 30  1  0
 31 30  1  1
 31 32  1  0
 32 23  1  0
 33 37  1  0
 33 31  1  0
 34 33  2  0
 35 29  1  0
 36 35  2  0
M  END
$$$$
