HWY.pdb
     RDKit          3D

 37 40  0  0  1  0  0  0  0  0999 V2000
   10.9931  -17.6675   18.3371 N   0  0  0  0  0  0  0  0  0  0  0  0
   10.6679  -18.3909   19.5848 C   0  0  1  0  0  0  0  0  0  0  0  0
   11.8174  -19.3082   19.8494 C   0  0  0  0  0  0  0  0  0  0  0  0
   11.9261  -20.4145   18.8986 C   0  0  0  0  0  0  0  0  0  0  0  0
   12.9087  -20.6788   17.9621 C   0  0  0  0  0  0  0  0  0  0  0  0
   12.5565  -21.7960   17.3084 N   0  0  0  0  0  0  0  0  0  0  0  0
   11.3915  -22.2472   17.7946 C   0  0  0  0  0  0  0  0  0  0  0  0
   11.0223  -21.4079   18.7505 N   0  0  0  0  0  0  0  0  0  0  0  0
   10.4878  -17.3686   20.6282 C   0  0  0  0  0  0  0  0  0  0  0  0
   11.5107  -16.7441   21.0847 O   0  0  0  0  0  0  0  0  0  0  0  0
    9.2396  -17.0105   21.1748 N   0  0  0  0  0  0  0  0  0  0  0  0
    9.1408  -16.0724   22.3029 C   0  0  1  0  0  0  0  0  0  0  0  0
    7.6919  -15.5798   22.3009 C   0  0  0  0  0  0  0  0  0  0  0  0
    7.5213  -14.3077   23.0261 C   0  0  0  0  0  0  0  0  0  0  0  0
    7.8542  -13.0484   22.4807 C   0  0  0  0  0  0  0  0  0  0  0  0
    7.5600  -12.0907   23.3521 N   0  0  0  0  0  0  0  0  0  0  0  0
    7.0446  -12.6112   24.4667 C   0  0  0  0  0  0  0  0  0  0  0  0
    6.6001  -12.0543   25.6366 C   0  0  0  0  0  0  0  0  0  0  0  0
    6.1098  -12.8483   26.6655 C   0  0  0  0  0  0  0  0  0  0  0  0
    6.0968  -14.2029   26.4463 C   0  0  0  0  0  0  0  0  0  0  0  0
    6.5425  -14.7901   25.2673 C   0  0  0  0  0  0  0  0  0  0  0  0
    7.0218  -13.9871   24.2630 C   0  0  0  0  0  0  0  0  0  0  0  0
    9.5313  -16.6989   23.5512 C   0  0  0  0  0  0  0  0  0  0  0  0
   10.6539  -17.2731   23.6404 O   0  0  0  0  0  0  0  0  0  0  0  0
   12.7363  -16.5297   31.4061 O   0  0  0  0  0  0  0  0  0  0  0  0
   12.1562  -16.3728   30.1356 C   0  0  0  0  0  0  0  0  0  0  0  0
   11.2999  -15.3226   29.8843 C   0  0  0  0  0  0  0  0  0  0  0  0
   10.7074  -15.1342   28.6418 C   0  0  0  0  0  0  0  0  0  0  0  0
   10.9683  -16.0117   27.6113 C   0  0  0  0  0  0  0  0  0  0  0  0
   10.3495  -15.8374   26.2733 C   0  0  0  0  0  0  0  0  0  0  0  0
    9.2919  -16.9196   26.0058 C   0  0  2  0  0  0  0  0  0  0  0  0
    8.6796  -16.6873   24.7194 N   0  0  0  0  0  0  0  0  0  0  0  0
    8.3294  -16.9877   27.1102 C   0  0  0  0  0  0  0  0  0  0  0  0
    8.3108  -17.9956   27.8528 O   0  0  0  0  0  0  0  0  0  0  0  0
   11.8251  -17.0615   27.8648 C   0  0  0  0  0  0  0  0  0  0  0  0
   12.4161  -17.2498   29.1033 C   0  0  0  0  0  0  0  0  0  0  0  0
    7.4290  -15.9672   27.3667 O   0  0  0  0  0  0  0  0  0  0  0  0
  2  1  1  6
  3  4  1  0
  3  2  1  0
  4  5  2  0
  6  5  1  0
  7  6  1  0
  8  7  2  0
  8  4  1  0
  9  2  1  0
  9 11  1  0
 10  9  2  0
 12 11  1  0
 12 13  1  1
 14 13  1  0
 14 15  2  0
 16 15  1  0
 17 22  2  0
 17 16  1  0
 18 17  1  0
 19 20  1  0
 19 18  2  0
 20 21  2  0
 21 22  1  0
 22 14  1  0
 23 12  1  0
 24 23  2  0
 25 26  1  0
 26 27  2  0
 26 36  1  0
 27 28  1  0
 28 29  2  0
 29 30  1  0
 31 30  1  1
 31 32  1  0
 32 23  1  0
 33 37  1  0
 33 31  1  0
 34 33  2  0
 35 29  1  0
 36 35  2  0
M  END
$$$$
