HWY.pdb
     RDKit          3D

 37 40  0  0  1  0  0  0  0  0999 V2000
    9.4696  -18.4221   19.9936 N   0  0  0  0  0  0  0  0  0  0  0  0
   10.6217  -17.5042   19.8685 C   0  0  1  0  0  0  0  0  0  0  0  0
   10.7780  -17.2237   18.4092 C   0  0  0  0  0  0  0  0  0  0  0  0
   11.1025  -18.4041   17.6084 C   0  0  0  0  0  0  0  0  0  0  0  0
   11.6511  -19.6115   18.0000 C   0  0  0  0  0  0  0  0  0  0  0  0
   11.7831  -20.3723   16.9032 N   0  0  0  0  0  0  0  0  0  0  0  0
   11.3401  -19.6937   15.8353 C   0  0  0  0  0  0  0  0  0  0  0  0
   10.9334  -18.5112   16.2721 N   0  0  0  0  0  0  0  0  0  0  0  0
   10.2926  -16.3069   20.6587 C   0  0  0  0  0  0  0  0  0  0  0  0
   11.1560  -15.3651   20.7688 O   0  0  0  0  0  0  0  0  0  0  0  0
    9.0629  -16.1098   21.3173 N   0  0  0  0  0  0  0  0  0  0  0  0
    8.8333  -14.9342   22.1704 C   0  0  1  0  0  0  0  0  0  0  0  0
    7.3152  -14.8394   22.3381 C   0  0  0  0  0  0  0  0  0  0  0  0
    6.9098  -14.6003   23.7352 C   0  0  0  0  0  0  0  0  0  0  0  0
    6.4585  -15.6199   24.6017 C   0  0  0  0  0  0  0  0  0  0  0  0
    6.1993  -15.1081   25.7992 N   0  0  0  0  0  0  0  0  0  0  0  0
    6.4434  -13.7970   25.8132 C   0  0  0  0  0  0  0  0  0  0  0  0
    6.3279  -12.8377   26.7841 C   0  0  0  0  0  0  0  0  0  0  0  0
    6.6470  -11.5116   26.5206 C   0  0  0  0  0  0  0  0  0  0  0  0
    7.0779  -11.2218   25.2503 C   0  0  0  0  0  0  0  0  0  0  0  0
    7.2029  -12.1788   24.2494 C   0  0  0  0  0  0  0  0  0  0  0  0
    6.8836  -13.4832   24.5314 C   0  0  0  0  0  0  0  0  0  0  0  0
    9.5432  -15.0446   23.4302 C   0  0  0  0  0  0  0  0  0  0  0  0
    9.5597  -14.0648   24.2287 O   0  0  0  0  0  0  0  0  0  0  0  0
   11.7267  -16.1848   31.5019 O   0  0  0  0  0  0  0  0  0  0  0  0
   11.2199  -16.1565   30.1913 C   0  0  0  0  0  0  0  0  0  0  0  0
   10.8977  -17.3287   29.5422 C   0  0  0  0  0  0  0  0  0  0  0  0
   10.3943  -17.3412   28.2473 C   0  0  0  0  0  0  0  0  0  0  0  0
   10.2019  -16.1568   27.5689 C   0  0  0  0  0  0  0  0  0  0  0  0
    9.6669  -16.1381   26.1843 C   0  0  0  0  0  0  0  0  0  0  0  0
   10.7920  -16.3118   25.1523 C   0  0  2  0  0  0  0  0  0  0  0  0
   10.2380  -16.2508   23.8208 N   0  0  0  0  0  0  0  0  0  0  0  0
   11.5522  -17.5379   25.4160 C   0  0  0  0  0  0  0  0  0  0  0  0
   11.1829  -18.6174   24.9002 O   0  0  0  0  0  0  0  0  0  0  0  0
   10.5249  -14.9855   28.2200 C   0  0  0  0  0  0  0  0  0  0  0  0
   11.0267  -14.9724   29.5110 C   0  0  0  0  0  0  0  0  0  0  0  0
   12.6771  -17.5480   26.2238 O   0  0  0  0  0  0  0  0  0  0  0  0
  2  1  1  6
  3  4  1  0
  3  2  1  0
  4  5  2  0
  6  5  1  0
  7  6  1  0
  8  7  2  0
  8  4  1  0
  9  2  1  0
  9 11  1  0
 10  9  2  0
 12 11  1  0
 12 13  1  1
 14 13  1  0
 14 15  2  0
 16 15  1  0
 17 22  2  0
 17 16  1  0
 18 17  1  0
 19 20  1  0
 19 18  2  0
 20 21  2  0
 21 22  1  0
 22 14  1  0
 23 12  1  0
 24 23  2  0
 25 26  1  0
 26 27  2  0
 26 36  1  0
 27 28  1  0
 28 29  2  0
 29 30  1  0
 31 30  1  1
 31 32  1  0
 32 23  1  0
 33 37  1  0
 33 31  1  0
 34 33  2  0
 35 29  1  0
 36 35  2  0
M  END
$$$$
