HWY.pdb
     RDKit          3D

 37 40  0  0  1  0  0  0  0  0999 V2000
   11.7368  -17.8608   18.2223 N   0  0  0  0  0  0  0  0  0  0  0  0
   10.6848  -18.4644   19.0676 C   0  0  1  0  0  0  0  0  0  0  0  0
   11.1821  -19.8200   19.4519 C   0  0  0  0  0  0  0  0  0  0  0  0
   11.0581  -20.8210   18.3924 C   0  0  0  0  0  0  0  0  0  0  0  0
   10.1706  -21.8750   18.2748 C   0  0  0  0  0  0  0  0  0  0  0  0
   10.4640  -22.5282   17.1406 N   0  0  0  0  0  0  0  0  0  0  0  0
   11.5007  -21.9290   16.5377 C   0  0  0  0  0  0  0  0  0  0  0  0
   11.8493  -20.9036   17.3002 N   0  0  0  0  0  0  0  0  0  0  0  0
   10.5025  -17.5644   20.2179 C   0  0  0  0  0  0  0  0  0  0  0  0
   11.5246  -17.1904   20.8961 O   0  0  0  0  0  0  0  0  0  0  0  0
    9.2543  -17.0644   20.6383 N   0  0  0  0  0  0  0  0  0  0  0  0
    9.1275  -16.2571   21.8608 C   0  0  1  0  0  0  0  0  0  0  0  0
    7.7993  -15.5097   21.7229 C   0  0  0  0  0  0  0  0  0  0  0  0
    7.6965  -14.3565   22.6356 C   0  0  0  0  0  0  0  0  0  0  0  0
    8.2810  -13.0985   22.3715 C   0  0  0  0  0  0  0  0  0  0  0  0
    7.9912  -12.2545   23.3548 N   0  0  0  0  0  0  0  0  0  0  0  0
    7.2426  -12.8525   24.2825 C   0  0  0  0  0  0  0  0  0  0  0  0
    6.7041  -12.4213   25.4659 C   0  0  0  0  0  0  0  0  0  0  0  0
    5.9554  -13.2764   26.2645 C   0  0  0  0  0  0  0  0  0  0  0  0
    5.7888  -14.5594   25.8070 C   0  0  0  0  0  0  0  0  0  0  0  0
    6.3257  -15.0189   24.6094 C   0  0  0  0  0  0  0  0  0  0  0  0
    7.0611  -14.1571   23.8351 C   0  0  0  0  0  0  0  0  0  0  0  0
    9.2004  -17.0810   23.0521 C   0  0  0  0  0  0  0  0  0  0  0  0
   10.0121  -18.0490   23.0964 O   0  0  0  0  0  0  0  0  0  0  0  0
   12.0131  -15.2742   30.9583 O   0  0  0  0  0  0  0  0  0  0  0  0
   11.3999  -15.3269   29.6947 C   0  0  0  0  0  0  0  0  0  0  0  0
   11.0023  -14.1683   29.0631 C   0  0  0  0  0  0  0  0  0  0  0  0
   10.3935  -14.1798   27.8144 C   0  0  0  0  0  0  0  0  0  0  0  0
   10.1687  -15.3753   27.1659 C   0  0  0  0  0  0  0  0  0  0  0  0
    9.5192  -15.4199   25.8318 C   0  0  0  0  0  0  0  0  0  0  0  0
    9.0119  -16.8339   25.5086 C   0  0  2  0  0  0  0  0  0  0  0  0
    8.3753  -16.8329   24.2131 N   0  0  0  0  0  0  0  0  0  0  0  0
    8.1509  -17.3341   26.5852 C   0  0  0  0  0  0  0  0  0  0  0  0
    8.6470  -17.5868   27.7067 O   0  0  0  0  0  0  0  0  0  0  0  0
   10.5671  -16.5329   27.7994 C   0  0  0  0  0  0  0  0  0  0  0  0
   11.1743  -16.5220   29.0443 C   0  0  0  0  0  0  0  0  0  0  0  0
    6.7930  -17.5403   26.4071 O   0  0  0  0  0  0  0  0  0  0  0  0
  2  1  1  6
  3  4  1  0
  3  2  1  0
  4  5  2  0
  6  5  1  0
  7  6  1  0
  8  7  2  0
  8  4  1  0
  9  2  1  0
  9 11  1  0
 10  9  2  0
 12 11  1  0
 12 13  1  6
 14 13  1  0
 14 15  2  0
 16 15  1  0
 17 22  2  0
 17 16  1  0
 18 17  1  0
 19 20  1  0
 19 18  2  0
 20 21  2  0
 21 22  1  0
 22 14  1  0
 23 12  1  0
 24 23  2  0
 25 26  1  0
 26 27  2  0
 26 36  1  0
 27 28  1  0
 28 29  2  0
 29 30  1  0
 31 30  1  1
 31 32  1  0
 32 23  1  0
 33 37  1  0
 33 31  1  0
 34 33  2  0
 35 29  1  0
 36 35  2  0
M  END
$$$$
