HWY.pdb
     RDKit          3D

 37 40  0  0  1  0  0  0  0  0999 V2000
    9.4414  -18.1375   18.6064 N   0  0  0  0  0  0  0  0  0  0  0  0
   10.0467  -16.7938   18.4893 C   0  0  1  0  0  0  0  0  0  0  0  0
    9.3807  -16.1338   17.3259 C   0  0  0  0  0  0  0  0  0  0  0  0
    9.6126  -16.8068   16.0479 C   0  0  0  0  0  0  0  0  0  0  0  0
   10.6255  -16.6214   15.1250 C   0  0  0  0  0  0  0  0  0  0  0  0
   10.3976  -17.4551   14.0991 N   0  0  0  0  0  0  0  0  0  0  0  0
    9.2818  -18.1589   14.3374 C   0  0  0  0  0  0  0  0  0  0  0  0
    8.8186  -17.7600   15.5125 N   0  0  0  0  0  0  0  0  0  0  0  0
    9.7976  -16.1081   19.7676 C   0  0  0  0  0  0  0  0  0  0  0  0
   10.2976  -14.9444   19.9687 O   0  0  0  0  0  0  0  0  0  0  0  0
    9.0242  -16.6473   20.8146 N   0  0  0  0  0  0  0  0  0  0  0  0
    8.8914  -15.9508   22.1028 C   0  0  1  0  0  0  0  0  0  0  0  0
    7.3987  -15.9887   22.4375 C   0  0  0  0  0  0  0  0  0  0  0  0
    7.1009  -15.4503   23.7772 C   0  0  0  0  0  0  0  0  0  0  0  0
    6.6867  -16.2501   24.8648 C   0  0  0  0  0  0  0  0  0  0  0  0
    6.5275  -15.4922   25.9434 N   0  0  0  0  0  0  0  0  0  0  0  0
    6.8058  -14.2174   25.6676 C   0  0  0  0  0  0  0  0  0  0  0  0
    6.7853  -13.0745   26.4224 C   0  0  0  0  0  0  0  0  0  0  0  0
    7.1189  -11.8453   25.8680 C   0  0  0  0  0  0  0  0  0  0  0  0
    7.4648  -11.8414   24.5400 C   0  0  0  0  0  0  0  0  0  0  0  0
    7.4928  -12.9886   23.7548 C   0  0  0  0  0  0  0  0  0  0  0  0
    7.1609  -14.1928   24.3228 C   0  0  0  0  0  0  0  0  0  0  0  0
    9.7233  -16.5581   23.1239 C   0  0  0  0  0  0  0  0  0  0  0  0
    9.4747  -17.7330   23.5183 O   0  0  0  0  0  0  0  0  0  0  0  0
   10.4604  -15.5887   31.5251 O   0  0  0  0  0  0  0  0  0  0  0  0
   10.3074  -15.5124   30.1300 C   0  0  0  0  0  0  0  0  0  0  0  0
   10.0433  -16.6471   29.3938 C   0  0  0  0  0  0  0  0  0  0  0  0
    9.8855  -16.6117   28.0140 C   0  0  0  0  0  0  0  0  0  0  0  0
    9.9918  -15.4160   27.3365 C   0  0  0  0  0  0  0  0  0  0  0  0
    9.8294  -15.3465   25.8625 C   0  0  0  0  0  0  0  0  0  0  0  0
   11.0336  -15.9721   25.1415 C   0  0  2  0  0  0  0  0  0  0  0  0
   10.8480  -15.8672   23.7139 N   0  0  0  0  0  0  0  0  0  0  0  0
   11.2588  -17.3452   25.6047 C   0  0  0  0  0  0  0  0  0  0  0  0
   12.3508  -17.6464   26.1383 O   0  0  0  0  0  0  0  0  0  0  0  0
   10.2559  -14.2822   28.0747 C   0  0  0  0  0  0  0  0  0  0  0  0
   10.4133  -14.3169   29.4504 C   0  0  0  0  0  0  0  0  0  0  0  0
   10.2982  -18.3341   25.4732 O   0  0  0  0  0  0  0  0  0  0  0  0
  2  1  1  1
  3  4  1  0
  3  2  1  0
  4  5  2  0
  6  5  1  0
  7  6  1  0
  8  7  2  0
  8  4  1  0
  9  2  1  0
  9 11  1  0
 10  9  2  0
 12 11  1  0
 12 13  1  1
 14 13  1  0
 14 15  2  0
 16 15  1  0
 17 22  2  0
 17 16  1  0
 18 17  1  0
 19 20  1  0
 19 18  2  0
 20 21  2  0
 21 22  1  0
 22 14  1  0
 23 12  1  0
 24 23  2  0
 25 26  1  0
 26 27  2  0
 26 36  1  0
 27 28  1  0
 28 29  2  0
 29 30  1  0
 31 30  1  1
 31 32  1  0
 32 23  1  0
 33 37  1  0
 33 31  1  0
 34 33  2  0
 35 29  1  0
 36 35  2  0
M  END
$$$$
