HWY.pdb
     RDKit          3D

 37 40  0  0  1  0  0  0  0  0999 V2000
    9.2367  -18.1642   17.8749 N   0  0  0  0  0  0  0  0  0  0  0  0
    8.5754  -18.5770   19.1310 C   0  0  1  0  0  0  0  0  0  0  0  0
    9.1559  -19.9053   19.4937 C   0  0  0  0  0  0  0  0  0  0  0  0
    8.5327  -21.0348   18.8040 C   0  0  0  0  0  0  0  0  0  0  0  0
    7.8942  -22.1440   19.3278 C   0  0  0  0  0  0  0  0  0  0  0  0
    7.5095  -22.9144   18.2993 N   0  0  0  0  0  0  0  0  0  0  0  0
    7.8795  -22.3362   17.1478 C   0  0  0  0  0  0  0  0  0  0  0  0
    8.4941  -21.2063   17.4643 N   0  0  0  0  0  0  0  0  0  0  0  0
    8.8624  -17.5270   20.1216 C   0  0  0  0  0  0  0  0  0  0  0  0
   10.0658  -17.1094   20.2694 O   0  0  0  0  0  0  0  0  0  0  0  0
    7.8854  -16.9252   20.9390 N   0  0  0  0  0  0  0  0  0  0  0  0
    8.2472  -15.9129   21.9423 C   0  0  1  0  0  0  0  0  0  0  0  0
    6.9627  -15.1264   22.2129 C   0  0  0  0  0  0  0  0  0  0  0  0
    7.1955  -13.9144   23.0193 C   0  0  0  0  0  0  0  0  0  0  0  0
    7.8129  -12.7488   22.5150 C   0  0  0  0  0  0  0  0  0  0  0  0
    7.8535  -11.8181   23.4611 N   0  0  0  0  0  0  0  0  0  0  0  0
    7.3024  -12.2693   24.5887 C   0  0  0  0  0  0  0  0  0  0  0  0
    7.1133  -11.7075   25.8236 C   0  0  0  0  0  0  0  0  0  0  0  0
    6.5063  -12.4217   26.8488 C   0  0  0  0  0  0  0  0  0  0  0  0
    6.1129  -13.7039   26.5580 C   0  0  0  0  0  0  0  0  0  0  0  0
    6.2944  -14.2944   25.3122 C   0  0  0  0  0  0  0  0  0  0  0  0
    6.8951  -13.5706   24.3131 C   0  0  0  0  0  0  0  0  0  0  0  0
    8.8083  -16.5212   23.1332 C   0  0  0  0  0  0  0  0  0  0  0  0
    8.2851  -17.5694   23.6079 O   0  0  0  0  0  0  0  0  0  0  0  0
   11.5700  -16.2204   31.4583 O   0  0  0  0  0  0  0  0  0  0  0  0
   11.3684  -15.9498   30.0940 C   0  0  0  0  0  0  0  0  0  0  0  0
   10.5949  -14.8788   29.7017 C   0  0  0  0  0  0  0  0  0  0  0  0
   10.3729  -14.5794   28.3634 C   0  0  0  0  0  0  0  0  0  0  0  0
   10.9330  -15.3632   27.3775 C   0  0  0  0  0  0  0  0  0  0  0  0
   10.7130  -15.0693   25.9391 C   0  0  0  0  0  0  0  0  0  0  0  0
   10.1493  -16.2942   25.2023 C   0  0  2  0  0  0  0  0  0  0  0  0
    9.9647  -15.9743   23.8069 N   0  0  0  0  0  0  0  0  0  0  0  0
    8.9310  -16.7789   25.8594 C   0  0  0  0  0  0  0  0  0  0  0  0
    7.8500  -16.1724   25.6823 O   0  0  0  0  0  0  0  0  0  0  0  0
   11.7064  -16.4340   27.7720 C   0  0  0  0  0  0  0  0  0  0  0  0
   11.9281  -16.7329   29.1061 C   0  0  0  0  0  0  0  0  0  0  0  0
    8.9302  -17.8955   26.6786 O   0  0  0  0  0  0  0  0  0  0  0  0
  2  1  1  6
  3  4  1  0
  3  2  1  0
  4  5  2  0
  6  5  1  0
  7  6  1  0
  8  7  2  0
  8  4  1  0
  9  2  1  0
  9 11  1  0
 10  9  2  0
 12 11  1  0
 12 13  1  1
 14 13  1  0
 14 15  2  0
 16 15  1  0
 17 22  2  0
 17 16  1  0
 18 17  1  0
 19 20  1  0
 19 18  2  0
 20 21  2  0
 21 22  1  0
 22 14  1  0
 23 12  1  0
 24 23  2  0
 25 26  1  0
 26 27  2  0
 26 36  1  0
 27 28  1  0
 28 29  2  0
 29 30  1  0
 31 30  1  1
 31 32  1  0
 32 23  1  0
 33 37  1  0
 33 31  1  0
 34 33  2  0
 35 29  1  0
 36 35  2  0
M  END
$$$$
