HWY.pdb
     RDKit          3D

 37 40  0  0  1  0  0  0  0  0999 V2000
   10.9137  -16.6159   19.8029 N   0  0  0  0  0  0  0  0  0  0  0  0
   10.0911  -17.6861   20.4058 C   0  0  1  0  0  0  0  0  0  0  0  0
   10.7939  -18.9715   20.1112 C   0  0  0  0  0  0  0  0  0  0  0  0
   10.6520  -19.4228   18.7270 C   0  0  0  0  0  0  0  0  0  0  0  0
    9.5066  -19.6945   18.0013 C   0  0  0  0  0  0  0  0  0  0  0  0
    9.8862  -20.1017   16.7809 N   0  0  0  0  0  0  0  0  0  0  0  0
   11.2248  -20.0980   16.7072 C   0  0  0  0  0  0  0  0  0  0  0  0
   11.6740  -19.6879   17.8839 N   0  0  0  0  0  0  0  0  0  0  0  0
   10.0032  -17.3882   21.8445 C   0  0  0  0  0  0  0  0  0  0  0  0
   11.0463  -16.9836   22.4712 O   0  0  0  0  0  0  0  0  0  0  0  0
    8.8239  -17.5124   22.6053 N   0  0  0  0  0  0  0  0  0  0  0  0
    8.8143  -17.2366   24.0496 C   0  0  1  0  0  0  0  0  0  0  0  0
    7.3841  -16.7996   24.3742 C   0  0  0  0  0  0  0  0  0  0  0  0
    7.1720  -15.3536   24.1806 C   0  0  0  0  0  0  0  0  0  0  0  0
    7.1036  -14.7384   22.9114 C   0  0  0  0  0  0  0  0  0  0  0  0
    6.8730  -13.4387   23.0552 N   0  0  0  0  0  0  0  0  0  0  0  0
    6.7784  -13.1179   24.3462 C   0  0  0  0  0  0  0  0  0  0  0  0
    6.5607  -11.9334   24.9988 C   0  0  0  0  0  0  0  0  0  0  0  0
    6.5194  -11.8784   26.3862 C   0  0  0  0  0  0  0  0  0  0  0  0
    6.7069  -13.0614   27.0560 C   0  0  0  0  0  0  0  0  0  0  0  0
    6.9292  -14.2751   26.4148 C   0  0  0  0  0  0  0  0  0  0  0  0
    6.9649  -14.3072   25.0435 C   0  0  0  0  0  0  0  0  0  0  0  0
    9.2486  -18.3900   24.8141 C   0  0  0  0  0  0  0  0  0  0  0  0
    9.8437  -19.3407   24.2313 O   0  0  0  0  0  0  0  0  0  0  0  0
   11.0120  -13.1328   29.2085 O   0  0  0  0  0  0  0  0  0  0  0  0
   11.1015  -14.4165   28.6433 C   0  0  0  0  0  0  0  0  0  0  0  0
   11.2621  -14.5705   27.2832 C   0  0  0  0  0  0  0  0  0  0  0  0
   11.3547  -15.8224   26.6879 C   0  0  0  0  0  0  0  0  0  0  0  0
   11.2864  -16.9620   27.4604 C   0  0  0  0  0  0  0  0  0  0  0  0
   11.3809  -18.3133   26.8532 C   0  0  0  0  0  0  0  0  0  0  0  0
   10.0728  -19.0979   27.0391 C   0  0  2  0  0  0  0  0  0  0  0  0
    9.0324  -18.4962   26.2397 N   0  0  0  0  0  0  0  0  0  0  0  0
    9.7315  -19.2067   28.4612 C   0  0  0  0  0  0  0  0  0  0  0  0
    8.6587  -18.7144   28.8789 O   0  0  0  0  0  0  0  0  0  0  0  0
   11.1256  -16.8057   28.8205 C   0  0  0  0  0  0  0  0  0  0  0  0
   11.0333  -15.5578   29.4146 C   0  0  0  0  0  0  0  0  0  0  0  0
   10.5605  -19.8410   29.3714 O   0  0  0  0  0  0  0  0  0  0  0  0
  2  1  1  6
  3  4  1  0
  3  2  1  0
  4  5  2  0
  6  5  1  0
  7  6  1  0
  8  7  2  0
  8  4  1  0
  9  2  1  0
  9 11  1  0
 10  9  2  0
 12 11  1  0
 12 13  1  1
 14 13  1  0
 14 15  2  0
 16 15  1  0
 17 22  2  0
 17 16  1  0
 18 17  1  0
 19 20  1  0
 19 18  2  0
 20 21  2  0
 21 22  1  0
 22 14  1  0
 23 12  1  0
 24 23  2  0
 25 26  1  0
 26 27  2  0
 26 36  1  0
 27 28  1  0
 28 29  2  0
 29 30  1  0
 31 30  1  1
 31 32  1  0
 32 23  1  0
 33 37  1  0
 33 31  1  0
 34 33  2  0
 35 29  1  0
 36 35  2  0
M  END
$$$$
