HWY.pdb
     RDKit          3D

 37 40  0  0  1  0  0  0  0  0999 V2000
   12.2191  -16.2924   19.3991 N   0  0  0  0  0  0  0  0  0  0  0  0
   11.1418  -17.0766   20.0395 C   0  0  1  0  0  0  0  0  0  0  0  0
   11.7285  -18.4137   20.3572 C   0  0  0  0  0  0  0  0  0  0  0  0
   11.3046  -19.4796   19.4494 C   0  0  0  0  0  0  0  0  0  0  0  0
   11.3753  -19.5428   18.0698 C   0  0  0  0  0  0  0  0  0  0  0  0
   10.8389  -20.7117   17.6889 N   0  0  0  0  0  0  0  0  0  0  0  0
   10.4326  -21.3887   18.7722 C   0  0  0  0  0  0  0  0  0  0  0  0
   10.7179  -20.6374   19.8252 N   0  0  0  0  0  0  0  0  0  0  0  0
   10.7285  -16.3242   21.2352 C   0  0  0  0  0  0  0  0  0  0  0  0
   11.5988  -15.6429   21.8855 O   0  0  0  0  0  0  0  0  0  0  0  0
    9.4097  -16.2911   21.7296 N   0  0  0  0  0  0  0  0  0  0  0  0
    9.0701  -15.5432   22.9493 C   0  0  1  0  0  0  0  0  0  0  0  0
    7.5525  -15.3513   22.9034 C   0  0  0  0  0  0  0  0  0  0  0  0
    7.0192  -14.7291   24.1290 C   0  0  0  0  0  0  0  0  0  0  0  0
    6.4433  -15.4630   25.1890 C   0  0  0  0  0  0  0  0  0  0  0  0
    6.0863  -14.6360   26.1645 N   0  0  0  0  0  0  0  0  0  0  0  0
    6.3797  -13.3753   25.8432 C   0  0  0  0  0  0  0  0  0  0  0  0
    6.2060  -12.1828   26.4945 C   0  0  0  0  0  0  0  0  0  0  0  0
    6.6023  -10.9856   25.9121 C   0  0  0  0  0  0  0  0  0  0  0  0
    7.1693  -11.0646   24.6649 C   0  0  0  0  0  0  0  0  0  0  0  0
    7.3556  -12.2634   23.9853 C   0  0  0  0  0  0  0  0  0  0  0  0
    6.9580  -13.4346   24.5794 C   0  0  0  0  0  0  0  0  0  0  0  0
    9.5245  -16.2342   24.1406 C   0  0  0  0  0  0  0  0  0  0  0  0
    9.7197  -17.4826   24.1054 O   0  0  0  0  0  0  0  0  0  0  0  0
   13.1665  -18.0826   31.9568 O   0  0  0  0  0  0  0  0  0  0  0  0
   12.6832  -17.4161   30.8177 C   0  0  0  0  0  0  0  0  0  0  0  0
   11.7177  -16.4400   30.9374 C   0  0  0  0  0  0  0  0  0  0  0  0
   11.2155  -15.7593   29.8353 C   0  0  0  0  0  0  0  0  0  0  0  0
   11.6814  -16.0512   28.5713 C   0  0  0  0  0  0  0  0  0  0  0  0
   11.1634  -15.3419   27.3745 C   0  0  0  0  0  0  0  0  0  0  0  0
   10.3633  -16.2918   26.4696 C   0  0  2  0  0  0  0  0  0  0  0  0
    9.7749  -15.5424   25.3852 N   0  0  0  0  0  0  0  0  0  0  0  0
    9.3864  -17.0543   27.2539 C   0  0  0  0  0  0  0  0  0  0  0  0
    9.7867  -17.8702   28.1152 O   0  0  0  0  0  0  0  0  0  0  0  0
   12.6471  -17.0278   28.4538 C   0  0  0  0  0  0  0  0  0  0  0  0
   13.1482  -17.7068   29.5522 C   0  0  0  0  0  0  0  0  0  0  0  0
    8.0211  -16.9048   27.0764 O   0  0  0  0  0  0  0  0  0  0  0  0
  2  1  1  1
  3  4  1  0
  3  2  1  0
  4  5  2  0
  6  5  1  0
  7  6  1  0
  8  7  2  0
  8  4  1  0
  9  2  1  0
  9 11  1  0
 10  9  2  0
 12 11  1  0
 12 13  1  1
 14 13  1  0
 14 15  2  0
 16 15  1  0
 17 22  2  0
 17 16  1  0
 18 17  1  0
 19 20  1  0
 19 18  2  0
 20 21  2  0
 21 22  1  0
 22 14  1  0
 23 12  1  0
 24 23  2  0
 25 26  1  0
 26 27  2  0
 26 36  1  0
 27 28  1  0
 28 29  2  0
 29 30  1  0
 31 30  1  1
 31 32  1  0
 32 23  1  0
 33 37  1  0
 33 31  1  0
 34 33  2  0
 35 29  1  0
 36 35  2  0
M  END
$$$$
