HWY.pdb
     RDKit          3D

 37 40  0  0  1  0  0  0  0  0999 V2000
    9.6572  -17.5779   18.7833 N   0  0  0  0  0  0  0  0  0  0  0  0
   10.9674  -17.1382   19.3082 C   0  0  1  0  0  0  0  0  0  0  0  0
   11.6381  -16.3991   18.1960 C   0  0  0  0  0  0  0  0  0  0  0  0
   11.3273  -16.9189   16.8645 C   0  0  0  0  0  0  0  0  0  0  0  0
   10.3810  -16.4929   15.9505 C   0  0  0  0  0  0  0  0  0  0  0  0
   10.4581  -17.2986   14.8808 N   0  0  0  0  0  0  0  0  0  0  0  0
   11.4147  -18.2158   15.0829 C   0  0  0  0  0  0  0  0  0  0  0  0
   11.9302  -17.9772   16.2795 N   0  0  0  0  0  0  0  0  0  0  0  0
   10.6882  -16.2946   20.4815 C   0  0  0  0  0  0  0  0  0  0  0  0
   11.6635  -15.7886   21.1428 O   0  0  0  0  0  0  0  0  0  0  0  0
    9.3927  -15.9881   20.9425 N   0  0  0  0  0  0  0  0  0  0  0  0
    9.1314  -15.7222   22.3650 C   0  0  1  0  0  0  0  0  0  0  0  0
    7.6158  -15.8494   22.5342 C   0  0  0  0  0  0  0  0  0  0  0  0
    7.1334  -15.2735   23.8027 C   0  0  0  0  0  0  0  0  0  0  0  0
    6.4810  -16.0269   24.8031 C   0  0  0  0  0  0  0  0  0  0  0  0
    6.1957  -15.2455   25.8380 N   0  0  0  0  0  0  0  0  0  0  0  0
    6.6106  -13.9980   25.6139 C   0  0  0  0  0  0  0  0  0  0  0  0
    6.5455  -12.8470   26.3536 C   0  0  0  0  0  0  0  0  0  0  0  0
    7.0591  -11.6526   25.8645 C   0  0  0  0  0  0  0  0  0  0  0  0
    7.6269  -11.6911   24.6157 C   0  0  0  0  0  0  0  0  0  0  0  0
    7.7042  -12.8474   23.8473 C   0  0  0  0  0  0  0  0  0  0  0  0
    7.1917  -14.0168   24.3501 C   0  0  0  0  0  0  0  0  0  0  0  0
    9.8810  -16.6218   23.2206 C   0  0  0  0  0  0  0  0  0  0  0  0
   11.1210  -16.7786   23.0322 O   0  0  0  0  0  0  0  0  0  0  0  0
   11.8034  -14.9889   31.3104 O   0  0  0  0  0  0  0  0  0  0  0  0
   11.2836  -15.1882   30.0199 C   0  0  0  0  0  0  0  0  0  0  0  0
   11.0211  -14.1125   29.1994 C   0  0  0  0  0  0  0  0  0  0  0  0
   10.5076  -14.2694   27.9180 C   0  0  0  0  0  0  0  0  0  0  0  0
   10.2435  -15.5307   27.4288 C   0  0  0  0  0  0  0  0  0  0  0  0
    9.6934  -15.7302   26.0644 C   0  0  0  0  0  0  0  0  0  0  0  0
    9.8120  -17.1986   25.6275 C   0  0  2  0  0  0  0  0  0  0  0  0
    9.2606  -17.3531   24.3025 N   0  0  0  0  0  0  0  0  0  0  0  0
    9.2033  -18.0863   26.6237 C   0  0  0  0  0  0  0  0  0  0  0  0
    9.9252  -18.8845   27.2636 O   0  0  0  0  0  0  0  0  0  0  0  0
   10.5066  -16.6053   28.2511 C   0  0  0  0  0  0  0  0  0  0  0  0
   11.0188  -16.4495   29.5286 C   0  0  0  0  0  0  0  0  0  0  0  0
    7.8437  -18.0757   26.8872 O   0  0  0  0  0  0  0  0  0  0  0  0
  2  1  1  6
  3  4  1  0
  3  2  1  0
  4  5  2  0
  6  5  1  0
  7  6  1  0
  8  7  2  0
  8  4  1  0
  9  2  1  0
  9 11  1  0
 10  9  2  0
 12 11  1  0
 12 13  1  6
 14 13  1  0
 14 15  2  0
 16 15  1  0
 17 22  2  0
 17 16  1  0
 18 17  1  0
 19 20  1  0
 19 18  2  0
 20 21  2  0
 21 22  1  0
 22 14  1  0
 23 12  1  0
 24 23  2  0
 25 26  1  0
 26 27  2  0
 26 36  1  0
 27 28  1  0
 28 29  2  0
 29 30  1  0
 31 30  1  1
 31 32  1  0
 32 23  1  0
 33 37  1  0
 33 31  1  0
 34 33  2  0
 35 29  1  0
 36 35  2  0
M  END
$$$$
