HWY.pdb
     RDKit          3D

 37 40  0  0  1  0  0  0  0  0999 V2000
   10.4425  -16.7650   20.5016 N   0  0  0  0  0  0  0  0  0  0  0  0
   10.3652  -17.8053   21.5493 C   0  0  1  0  0  0  0  0  0  0  0  0
   11.6213  -18.6070   21.4377 C   0  0  0  0  0  0  0  0  0  0  0  0
   11.6996  -19.4236   20.2266 C   0  0  0  0  0  0  0  0  0  0  0  0
   12.3548  -19.1728   19.0349 C   0  0  0  0  0  0  0  0  0  0  0  0
   12.1148  -20.2062   18.2142 N   0  0  0  0  0  0  0  0  0  0  0  0
   11.3345  -21.0990   18.8397 C   0  0  0  0  0  0  0  0  0  0  0  0
   11.0914  -20.6171   20.0494 N   0  0  0  0  0  0  0  0  0  0  0  0
   10.2387  -17.0987   22.8342 C   0  0  0  0  0  0  0  0  0  0  0  0
   11.0390  -16.1346   23.1070 O   0  0  0  0  0  0  0  0  0  0  0  0
    9.2731  -17.4075   23.8126 N   0  0  0  0  0  0  0  0  0  0  0  0
    9.2119  -16.6713   25.0841 C   0  0  1  0  0  0  0  0  0  0  0  0
    7.7439  -16.2760   25.2588 C   0  0  0  0  0  0  0  0  0  0  0  0
    7.4848  -14.8707   24.8962 C   0  0  0  0  0  0  0  0  0  0  0  0
    7.2591  -14.4359   23.5719 C   0  0  0  0  0  0  0  0  0  0  0  0
    7.0234  -13.1292   23.5633 N   0  0  0  0  0  0  0  0  0  0  0  0
    7.0730  -12.6342   24.8008 C   0  0  0  0  0  0  0  0  0  0  0  0
    6.9109  -11.3717   25.3069 C   0  0  0  0  0  0  0  0  0  0  0  0
    7.0293  -11.1268   26.6691 C   0  0  0  0  0  0  0  0  0  0  0  0
    7.3143  -12.2063   27.4672 C   0  0  0  0  0  0  0  0  0  0  0  0
    7.4827  -13.4960   26.9757 C   0  0  0  0  0  0  0  0  0  0  0  0
    7.3601  -13.7161   25.6268 C   0  0  0  0  0  0  0  0  0  0  0  0
    9.7263  -17.4651   26.1834 C   0  0  0  0  0  0  0  0  0  0  0  0
    9.2933  -18.6386   26.3660 O   0  0  0  0  0  0  0  0  0  0  0  0
   14.8915  -20.1104   23.5573 O   0  0  0  0  0  0  0  0  0  0  0  0
   14.3391  -19.5418   24.7179 C   0  0  0  0  0  0  0  0  0  0  0  0
   14.0514  -20.3291   25.8119 C   0  0  0  0  0  0  0  0  0  0  0  0
   13.5054  -19.8037   26.9764 C   0  0  0  0  0  0  0  0  0  0  0  0
   13.2335  -18.4553   27.0653 C   0  0  0  0  0  0  0  0  0  0  0  0
   12.6491  -17.8650   28.2956 C   0  0  0  0  0  0  0  0  0  0  0  0
   11.1166  -17.7982   28.2051 C   0  0  2  0  0  0  0  0  0  0  0  0
   10.7357  -16.9650   27.0896 N   0  0  0  0  0  0  0  0  0  0  0  0
   10.5403  -17.3674   29.4831 C   0  0  0  0  0  0  0  0  0  0  0  0
   10.7327  -18.0555   30.5113 O   0  0  0  0  0  0  0  0  0  0  0  0
   13.5220  -17.6696   25.9700 C   0  0  0  0  0  0  0  0  0  0  0  0
   14.0665  -18.1928   24.8088 C   0  0  0  0  0  0  0  0  0  0  0  0
    9.7820  -16.2142   29.5979 O   0  0  0  0  0  0  0  0  0  0  0  0
  2  1  1  6
  3  4  1  0
  3  2  1  0
  4  5  2  0
  6  5  1  0
  7  6  1  0
  8  7  2  0
  8  4  1  0
  9  2  1  0
  9 11  1  0
 10  9  2  0
 12 11  1  0
 12 13  1  1
 14 13  1  0
 14 15  2  0
 16 15  1  0
 17 22  2  0
 17 16  1  0
 18 17  1  0
 19 20  1  0
 19 18  2  0
 20 21  2  0
 21 22  1  0
 22 14  1  0
 23 12  1  0
 24 23  2  0
 25 26  1  0
 26 27  2  0
 26 36  1  0
 27 28  1  0
 28 29  2  0
 29 30  1  0
 31 30  1  1
 31 32  1  0
 32 23  1  0
 33 37  1  0
 33 31  1  0
 34 33  2  0
 35 29  1  0
 36 35  2  0
M  END
$$$$
