HWY.pdb
     RDKit          3D

 37 40  0  0  1  0  0  0  0  0999 V2000
   10.0956  -16.9527   19.7877 N   0  0  0  0  0  0  0  0  0  0  0  0
   10.3773  -17.8551   20.9243 C   0  0  1  0  0  0  0  0  0  0  0  0
   11.7656  -18.3680   20.7184 C   0  0  0  0  0  0  0  0  0  0  0  0
   11.8981  -19.2880   19.5889 C   0  0  0  0  0  0  0  0  0  0  0  0
   11.4464  -20.5879   19.4530 C   0  0  0  0  0  0  0  0  0  0  0  0
   11.8306  -21.0270   18.2452 N   0  0  0  0  0  0  0  0  0  0  0  0
   12.5065  -20.0568   17.6135 C   0  0  0  0  0  0  0  0  0  0  0  0
   12.5406  -19.0158   18.4318 N   0  0  0  0  0  0  0  0  0  0  0  0
   10.2307  -17.0490   22.1470 C   0  0  0  0  0  0  0  0  0  0  0  0
   10.9023  -15.9638   22.2731 O   0  0  0  0  0  0  0  0  0  0  0  0
    9.3793  -17.3870   23.2174 N   0  0  0  0  0  0  0  0  0  0  0  0
    9.2632  -16.5242   24.4025 C   0  0  1  0  0  0  0  0  0  0  0  0
    7.7649  -16.2651   24.5759 C   0  0  0  0  0  0  0  0  0  0  0  0
    7.4200  -14.8344   24.4897 C   0  0  0  0  0  0  0  0  0  0  0  0
    7.2421  -14.1473   23.2689 C   0  0  0  0  0  0  0  0  0  0  0  0
    6.9065  -12.8854   23.5097 N   0  0  0  0  0  0  0  0  0  0  0  0
    6.8420  -12.6582   24.8222 C   0  0  0  0  0  0  0  0  0  0  0  0
    6.5518  -11.5424   25.5619 C   0  0  0  0  0  0  0  0  0  0  0  0
    6.5677  -11.5808   26.9504 C   0  0  0  0  0  0  0  0  0  0  0  0
    6.8866  -12.7830   27.5303 C   0  0  0  0  0  0  0  0  0  0  0  0
    7.1844  -13.9281   26.7998 C   0  0  0  0  0  0  0  0  0  0  0  0
    7.1616  -13.8685   25.4291 C   0  0  0  0  0  0  0  0  0  0  0  0
    9.8778  -17.1335   25.5662 C   0  0  0  0  0  0  0  0  0  0  0  0
    9.9660  -18.3921   25.6422 O   0  0  0  0  0  0  0  0  0  0  0  0
   16.1375  -16.6683   23.7491 O   0  0  0  0  0  0  0  0  0  0  0  0
   15.2208  -16.5935   24.8118 C   0  0  0  0  0  0  0  0  0  0  0  0
   14.5767  -15.4086   25.0958 C   0  0  0  0  0  0  0  0  0  0  0  0
   13.6643  -15.2956   26.1374 C   0  0  0  0  0  0  0  0  0  0  0  0
   13.3769  -16.3888   26.9264 C   0  0  0  0  0  0  0  0  0  0  0  0
   12.4076  -16.2987   28.0471 C   0  0  0  0  0  0  0  0  0  0  0  0
   11.1047  -17.0427   27.7151 C   0  0  2  0  0  0  0  0  0  0  0  0
   10.4096  -16.3483   26.6576 N   0  0  0  0  0  0  0  0  0  0  0  0
   10.2950  -17.2339   28.9228 C   0  0  0  0  0  0  0  0  0  0  0  0
   10.7908  -17.8175   29.9135 O   0  0  0  0  0  0  0  0  0  0  0  0
   14.0222  -17.5729   26.6406 C   0  0  0  0  0  0  0  0  0  0  0  0
   14.9319  -17.6862   25.6023 C   0  0  0  0  0  0  0  0  0  0  0  0
    8.9867  -16.7883   29.0109 O   0  0  0  0  0  0  0  0  0  0  0  0
  2  1  1  6
  3  4  1  0
  3  2  1  0
  4  5  2  0
  6  5  1  0
  7  6  1  0
  8  7  2  0
  8  4  1  0
  9  2  1  0
  9 11  1  0
 10  9  2  0
 12 11  1  0
 12 13  1  1
 14 13  1  0
 14 15  2  0
 16 15  1  0
 17 22  2  0
 17 16  1  0
 18 17  1  0
 19 20  1  0
 19 18  2  0
 20 21  2  0
 21 22  1  0
 22 14  1  0
 23 12  1  0
 24 23  2  0
 25 26  1  0
 26 27  2  0
 26 36  1  0
 27 28  1  0
 28 29  2  0
 29 30  1  0
 31 30  1  1
 31 32  1  0
 32 23  1  0
 33 37  1  0
 33 31  1  0
 34 33  2  0
 35 29  1  0
 36 35  2  0
M  END
$$$$
