TWI.pdb
     RDKit          3D

 30 31  0  0  1  0  0  0  0  0999 V2000
   29.2569  -18.9948  -16.2887 C   0  0  0  0  0  0  0  0  0  0  0  0
   28.2358  -19.4479  -15.2698 C   0  0  1  0  0  0  0  0  0  0  0  0
   26.9761  -19.3462  -15.8429 O   0  0  0  0  0  0  0  0  0  0  0  0
   28.5358  -20.8548  -14.7629 C   0  0  2  0  0  0  0  0  0  0  0  0
   28.3858  -21.8529  -15.7825 N   0  0  0  0  0  0  0  0  0  0  0  0
   27.6231  -21.1309  -13.6029 C   0  0  0  0  0  0  0  0  0  0  0  0
   26.5265  -21.6448  -13.8438 O   0  0  0  0  0  0  0  0  0  0  0  0
   27.9815  -20.8253  -12.2715 N   0  0  0  0  0  0  0  0  0  0  0  0
   27.1333  -21.0456  -11.1031 C   0  0  1  0  0  0  0  0  0  0  0  0
   27.9090  -20.9768   -9.8431 C   0  0  0  0  0  0  0  0  0  0  0  0
   27.1782  -20.7631   -8.6061 C   0  0  0  0  0  0  0  0  0  0  0  0
   25.8291  -20.9893   -8.4334 C   0  0  0  0  0  0  0  0  0  0  0  0
   25.5134  -20.7196   -7.1644 N   0  0  0  0  0  0  0  0  0  0  0  0
   26.6164  -20.3158   -6.4751 C   0  0  0  0  0  0  0  0  0  0  0  0
   26.7789  -19.9278   -5.1603 C   0  0  0  0  0  0  0  0  0  0  0  0
   28.0400  -19.5508   -4.7407 C   0  0  0  0  0  0  0  0  0  0  0  0
   29.1054  -19.5657   -5.6251 C   0  0  0  0  0  0  0  0  0  0  0  0
   28.9073  -19.9590   -6.9295 C   0  0  0  0  0  0  0  0  0  0  0  0
   27.6433  -20.3490   -7.3910 C   0  0  0  0  0  0  0  0  0  0  0  0
   25.8284  -20.4254  -11.2211 C   0  0  0  0  0  0  0  0  0  0  0  0
   25.6925  -19.1369  -11.2360 O   0  0  0  0  0  0  0  0  0  0  0  0
   23.6082  -19.5989  -15.1918 C   0  0  0  0  0  0  0  0  0  0  0  0
   23.9658  -19.5826  -13.7256 C   0  0  0  0  0  0  0  0  0  0  0  0
   22.9159  -20.3540  -12.9601 C   0  0  2  0  0  0  0  0  0  0  0  0
   21.6415  -19.5692  -13.0507 C   0  0  0  0  0  0  0  0  0  0  0  0
   23.3159  -20.4135  -11.4632 C   0  0  2  0  0  0  0  0  0  0  0  0
   24.5781  -21.0986  -11.3433 N   0  0  0  0  0  0  0  0  0  0  0  0
   22.2146  -20.8553  -10.6545 C   0  0  0  0  0  0  0  0  0  0  0  0
   21.5107  -19.8813   -9.9163 O   0  0  0  0  0  0  0  0  0  0  0  0
   21.8055  -22.0165  -10.5308 O   0  0  0  0  0  0  0  0  0  0  0  0
  2  3  1  0
  2  1  1  6
  4  2  1  0
  4  5  1  6
  6  4  1  0
  6  8  1  0
  7  6  2  0
  9  8  1  0
 10 11  1  0
  9 10  1  1
 11 19  1  0
 12 11  2  0
 12 13  1  0
 13 14  1  0
 14 15  1  0
 15 16  2  0
 17 16  1  0
 18 17  2  0
 19 14  2  0
 19 18  1  0
 20  9  1  0
 21 20  2  0
 22 23  1  0
 23 24  1  0
 24 26  1  0
 24 25  1  1
 26 27  1  6
 26 28  1  0
 27 20  1  0
 28 29  1  0
 30 28  2  0
M  END
$$$$
