TWI.pdb
     RDKit          3D

 30 31  0  0  1  0  0  0  0  0999 V2000
   27.4093  -18.1478  -20.2603 C   0  0  0  0  0  0  0  0  0  0  0  0
   26.9358  -18.7475  -18.9556 C   0  0  1  0  0  0  0  0  0  0  0  0
   25.6931  -19.3267  -19.1698 O   0  0  0  0  0  0  0  0  0  0  0  0
   27.9518  -19.7351  -18.3912 C   0  0  2  0  0  0  0  0  0  0  0  0
   28.2203  -20.8235  -19.2864 N   0  0  0  0  0  0  0  0  0  0  0  0
   27.4252  -20.2377  -17.0777 C   0  0  0  0  0  0  0  0  0  0  0  0
   26.8552  -21.3329  -17.0681 O   0  0  0  0  0  0  0  0  0  0  0  0
   27.5646  -19.5045  -15.8787 N   0  0  0  0  0  0  0  0  0  0  0  0
   27.1009  -19.9472  -14.5664 C   0  0  1  0  0  0  0  0  0  0  0  0
   27.8896  -19.3349  -13.4722 C   0  0  0  0  0  0  0  0  0  0  0  0
   27.7066  -19.8561  -12.1289 C   0  0  0  0  0  0  0  0  0  0  0  0
   26.5574  -19.7263  -11.3782 C   0  0  0  0  0  0  0  0  0  0  0  0
   26.7379  -20.3564  -10.2149 N   0  0  0  0  0  0  0  0  0  0  0  0
   27.9816  -20.9086  -10.1608 C   0  0  0  0  0  0  0  0  0  0  0  0
   28.6145  -21.6359   -9.1727 C   0  0  0  0  0  0  0  0  0  0  0  0
   29.9088  -22.0614   -9.4012 C   0  0  0  0  0  0  0  0  0  0  0  0
   30.5445  -21.7599  -10.5938 C   0  0  0  0  0  0  0  0  0  0  0  0
   29.8829  -21.0329  -11.5578 C   0  0  0  0  0  0  0  0  0  0  0  0
   28.5698  -20.5853  -11.3625 C   0  0  0  0  0  0  0  0  0  0  0  0
   25.6587  -20.0666  -14.4820 C   0  0  0  0  0  0  0  0  0  0  0  0
   24.8773  -19.1302  -14.9195 O   0  0  0  0  0  0  0  0  0  0  0  0
   20.9367  -23.4117  -15.6534 C   0  0  0  0  0  0  0  0  0  0  0  0
   21.4479  -22.3718  -14.6864 C   0  0  0  0  0  0  0  0  0  0  0  0
   22.9584  -22.3695  -14.7280 C   0  0  2  0  0  0  0  0  0  0  0  0
   23.4171  -23.6460  -14.0889 C   0  0  0  0  0  0  0  0  0  0  0  0
   23.4915  -21.2009  -13.8594 C   0  0  2  0  0  0  0  0  0  0  0  0
   24.9294  -21.1693  -13.9495 N   0  0  0  0  0  0  0  0  0  0  0  0
   22.8844  -21.2099  -12.5580 C   0  0  0  0  0  0  0  0  0  0  0  0
   23.7052  -21.5194  -11.4536 O   0  0  0  0  0  0  0  0  0  0  0  0
   21.6999  -20.9714  -12.2915 O   0  0  0  0  0  0  0  0  0  0  0  0
  2  3  1  0
  2  1  1  6
  4  2  1  0
  4  5  1  6
  6  4  1  0
  6  8  1  0
  7  6  2  0
  9  8  1  0
 10 11  1  0
  9 10  1  1
 11 19  1  0
 12 11  2  0
 12 13  1  0
 13 14  1  0
 14 15  1  0
 15 16  2  0
 17 16  1  0
 18 17  2  0
 19 14  2  0
 19 18  1  0
 20  9  1  0
 21 20  2  0
 22 23  1  0
 23 24  1  0
 24 26  1  0
 24 25  1  1
 26 27  1  1
 26 28  1  0
 27 20  1  0
 28 29  1  0
 30 28  2  0
M  END
$$$$
