TWI.pdb
     RDKit          3D

 30 31  0  0  1  0  0  0  0  0999 V2000
   28.8890  -20.3949  -17.8366 C   0  0  0  0  0  0  0  0  0  0  0  0
   27.9366  -20.6141  -16.6829 C   0  0  1  0  0  0  0  0  0  0  0  0
   26.6400  -20.5604  -17.1742 O   0  0  0  0  0  0  0  0  0  0  0  0
   28.2318  -21.9204  -15.9529 C   0  0  2  0  0  0  0  0  0  0  0  0
   28.0241  -23.0743  -16.7796 N   0  0  0  0  0  0  0  0  0  0  0  0
   27.3610  -21.9719  -14.7305 C   0  0  0  0  0  0  0  0  0  0  0  0
   26.3004  -22.5995  -14.8063 O   0  0  0  0  0  0  0  0  0  0  0  0
   27.7188  -21.3350  -13.5219 N   0  0  0  0  0  0  0  0  0  0  0  0
   26.8948  -21.3001  -12.3165 C   0  0  1  0  0  0  0  0  0  0  0  0
   27.7056  -21.0270  -11.1072 C   0  0  0  0  0  0  0  0  0  0  0  0
   27.0054  -20.6632   -9.8877 C   0  0  0  0  0  0  0  0  0  0  0  0
   25.6365  -20.5572   -9.7613 C   0  0  0  0  0  0  0  0  0  0  0  0
   25.3512  -20.2407   -8.4959 N   0  0  0  0  0  0  0  0  0  0  0  0
   26.4942  -20.1296   -7.7639 C   0  0  0  0  0  0  0  0  0  0  0  0
   26.6997  -19.8155   -6.4354 C   0  0  0  0  0  0  0  0  0  0  0  0
   27.9990  -19.7642   -5.9688 C   0  0  0  0  0  0  0  0  0  0  0  0
   29.0594  -20.0227   -6.8209 C   0  0  0  0  0  0  0  0  0  0  0  0
   28.8178  -20.3334   -8.1402 C   0  0  0  0  0  0  0  0  0  0  0  0
   27.5140  -20.3959   -8.6491 C   0  0  0  0  0  0  0  0  0  0  0  0
   25.6093  -20.6630  -12.5232 C   0  0  0  0  0  0  0  0  0  0  0  0
   25.5210  -19.4142  -12.8576 O   0  0  0  0  0  0  0  0  0  0  0  0
   21.5754  -22.4766  -15.5508 C   0  0  0  0  0  0  0  0  0  0  0  0
   22.1469  -22.2650  -14.1702 C   0  0  0  0  0  0  0  0  0  0  0  0
   22.5774  -20.8227  -14.0375 C   0  0  2  0  0  0  0  0  0  0  0  0
   23.7406  -20.6249  -14.9629 C   0  0  0  0  0  0  0  0  0  0  0  0
   23.0878  -20.5726  -12.5948 C   0  0  2  0  0  0  0  0  0  0  0  0
   24.3295  -21.2799  -12.4089 N   0  0  0  0  0  0  0  0  0  0  0  0
   22.0357  -20.7675  -11.6369 C   0  0  0  0  0  0  0  0  0  0  0  0
   20.9342  -19.8881  -11.6845 O   0  0  0  0  0  0  0  0  0  0  0  0
   21.9858  -21.6374  -10.7584 O   0  0  0  0  0  0  0  0  0  0  0  0
  2  3  1  0
  2  1  1  6
  4  2  1  0
  4  5  1  6
  6  4  1  0
  6  8  1  0
  7  6  2  0
  9  8  1  0
 10 11  1  0
  9 10  1  1
 11 19  1  0
 12 11  2  0
 12 13  1  0
 13 14  1  0
 14 15  1  0
 15 16  2  0
 17 16  1  0
 18 17  2  0
 19 14  2  0
 19 18  1  0
 20  9  1  0
 21 20  2  0
 22 23  1  0
 23 24  1  0
 24 26  1  0
 24 25  1  6
 26 27  1  1
 26 28  1  0
 27 20  1  0
 28 29  1  0
 30 28  2  0
M  END
$$$$
