TWI.pdb
     RDKit          3D

 30 31  0  0  1  0  0  0  0  0999 V2000
   29.0503  -24.3625  -18.1962 C   0  0  0  0  0  0  0  0  0  0  0  0
   28.0083  -23.6097  -17.4002 C   0  0  1  0  0  0  0  0  0  0  0  0
   27.9964  -24.1192  -16.1096 O   0  0  0  0  0  0  0  0  0  0  0  0
   28.2570  -22.1052  -17.4327 C   0  0  2  0  0  0  0  0  0  0  0  0
   29.5861  -21.7561  -17.0209 N   0  0  0  0  0  0  0  0  0  0  0  0
   27.2323  -21.4498  -16.5521 C   0  0  0  0  0  0  0  0  0  0  0  0
   27.5702  -21.1480  -15.4035 O   0  0  0  0  0  0  0  0  0  0  0  0
   25.9205  -21.1747  -16.9967 N   0  0  0  0  0  0  0  0  0  0  0  0
   24.9261  -20.4074  -16.2514 C   0  0  1  0  0  0  0  0  0  0  0  0
   23.8835  -19.8501  -17.1439 C   0  0  0  0  0  0  0  0  0  0  0  0
   22.7596  -19.1642  -16.5305 C   0  0  0  0  0  0  0  0  0  0  0  0
   22.8569  -18.0613  -15.7088 C   0  0  0  0  0  0  0  0  0  0  0  0
   21.6248  -17.6814  -15.3620 N   0  0  0  0  0  0  0  0  0  0  0  0
   20.6968  -18.5012  -15.9289 C   0  0  0  0  0  0  0  0  0  0  0  0
   19.3184  -18.5086  -15.8531 C   0  0  0  0  0  0  0  0  0  0  0  0
   18.6308  -19.4909  -16.5394 C   0  0  0  0  0  0  0  0  0  0  0  0
   19.3173  -20.4381  -17.2804 C   0  0  0  0  0  0  0  0  0  0  0  0
   20.6925  -20.4004  -17.3343 C   0  0  0  0  0  0  0  0  0  0  0  0
   21.4238  -19.4190  -16.6526 C   0  0  0  0  0  0  0  0  0  0  0  0
   24.5869  -21.0028  -14.9741 C   0  0  0  0  0  0  0  0  0  0  0  0
   24.4106  -22.2807  -14.8508 O   0  0  0  0  0  0  0  0  0  0  0  0
   27.0651  -20.7096  -10.3680 C   0  0  0  0  0  0  0  0  0  0  0  0
   26.1828  -21.1642  -11.5048 C   0  0  0  0  0  0  0  0  0  0  0  0
   24.8188  -20.5340  -11.3441 C   0  0  2  0  0  0  0  0  0  0  0  0
   24.2083  -21.1188  -10.1058 C   0  0  0  0  0  0  0  0  0  0  0  0
   23.9217  -20.9460  -12.5398 C   0  0  2  0  0  0  0  0  0  0  0  0
   24.4192  -20.3159  -13.7366 N   0  0  0  0  0  0  0  0  0  0  0  0
   22.5311  -20.7993  -12.2130 C   0  0  0  0  0  0  0  0  0  0  0  0
   21.8459  -19.6876  -12.7458 O   0  0  0  0  0  0  0  0  0  0  0  0
   21.8534  -21.5533  -11.5038 O   0  0  0  0  0  0  0  0  0  0  0  0
  2  3  1  0
  2  1  1  6
  4  2  1  0
  4  5  1  1
  6  4  1  0
  6  8  1  0
  7  6  2  0
  9  8  1  0
 10 11  1  0
  9 10  1  6
 11 19  1  0
 12 11  2  0
 12 13  1  0
 13 14  1  0
 14 15  1  0
 15 16  2  0
 17 16  1  0
 18 17  2  0
 19 14  2  0
 19 18  1  0
 20  9  1  0
 21 20  2  0
 22 23  1  0
 23 24  1  0
 24 26  1  0
 24 25  1  1
 26 27  1  6
 26 28  1  0
 27 20  1  0
 28 29  1  0
 30 28  2  0
M  END
$$$$
