TWI.pdb
     RDKit          3D

 30 31  0  0  1  0  0  0  0  0999 V2000
   26.2274  -37.5690  -13.2977 C   0  0  0  0  0  0  0  0  0  0  0  0
   26.1535  -37.6256  -11.7886 C   0  0  1  0  0  0  0  0  0  0  0  0
   26.0642  -38.9570  -11.4080 O   0  0  0  0  0  0  0  0  0  0  0  0
   27.3356  -36.9106  -11.1422 C   0  0  2  0  0  0  0  0  0  0  0  0
   28.4583  -37.7786  -10.9319 N   0  0  0  0  0  0  0  0  0  0  0  0
   26.8633  -36.3197   -9.8449 C   0  0  0  0  0  0  0  0  0  0  0  0
   27.1537  -36.9149   -8.8028 O   0  0  0  0  0  0  0  0  0  0  0  0
   26.1127  -35.1248   -9.7891 N   0  0  0  0  0  0  0  0  0  0  0  0
   25.4826  -34.5858   -8.5868 C   0  0  1  0  0  0  0  0  0  0  0  0
   25.2710  -33.1232   -8.6887 C   0  0  0  0  0  0  0  0  0  0  0  0
   24.3669  -32.4996   -7.7382 C   0  0  0  0  0  0  0  0  0  0  0  0
   23.3047  -31.6860   -8.0712 C   0  0  0  0  0  0  0  0  0  0  0  0
   22.6787  -31.3258   -6.9482 N   0  0  0  0  0  0  0  0  0  0  0  0
   23.2923  -31.8758   -5.8639 C   0  0  0  0  0  0  0  0  0  0  0  0
   23.0162  -31.7823   -4.5145 C   0  0  0  0  0  0  0  0  0  0  0  0
   23.8386  -32.4538   -3.6306 C   0  0  0  0  0  0  0  0  0  0  0  0
   24.9091  -33.1977   -4.0977 C   0  0  0  0  0  0  0  0  0  0  0  0
   25.1548  -33.2694   -5.4505 C   0  0  0  0  0  0  0  0  0  0  0  0
   24.3423  -32.6031   -6.3769 C   0  0  0  0  0  0  0  0  0  0  0  0
   24.4650  -35.4592   -8.0363 C   0  0  0  0  0  0  0  0  0  0  0  0
   23.6934  -36.1634   -8.8029 O   0  0  0  0  0  0  0  0  0  0  0  0
   23.5213  -40.3571   -5.4458 C   0  0  0  0  0  0  0  0  0  0  0  0
   22.8871  -38.9878   -5.4631 C   0  0  0  0  0  0  0  0  0  0  0  0
   23.9069  -37.9853   -5.9513 C   0  0  2  0  0  0  0  0  0  0  0  0
   24.9050  -37.8016   -4.8474 C   0  0  0  0  0  0  0  0  0  0  0  0
   23.2115  -36.6179   -6.1769 C   0  0  2  0  0  0  0  0  0  0  0  0
   24.1867  -35.6704   -6.6545 N   0  0  0  0  0  0  0  0  0  0  0  0
   22.4025  -36.2602   -5.0456 C   0  0  0  0  0  0  0  0  0  0  0  0
   22.8386  -35.1878   -4.2402 O   0  0  0  0  0  0  0  0  0  0  0  0
   21.3453  -36.7970   -4.6918 O   0  0  0  0  0  0  0  0  0  0  0  0
  2  3  1  0
  2  1  1  6
  4  2  1  0
  4  5  1  1
  6  4  1  0
  6  8  1  0
  7  6  2  0
  9  8  1  0
 10 11  1  0
  9 10  1  6
 11 19  1  0
 12 11  2  0
 12 13  1  0
 13 14  1  0
 14 15  1  0
 15 16  2  0
 17 16  1  0
 18 17  2  0
 19 14  2  0
 19 18  1  0
 20  9  1  0
 21 20  2  0
 22 23  1  0
 23 24  1  0
 24 26  1  0
 24 25  1  1
 26 27  1  1
 26 28  1  0
 27 20  1  0
 28 29  1  0
 30 28  2  0
M  END
$$$$
