TWI.pdb
     RDKit          3D

 30 31  0  0  1  0  0  0  0  0999 V2000
   26.1309  -21.3702  -17.6492 C   0  0  0  0  0  0  0  0  0  0  0  0
   26.6802  -22.7689  -17.8159 C   0  0  1  0  0  0  0  0  0  0  0  0
   27.1422  -22.9016  -19.1176 O   0  0  0  0  0  0  0  0  0  0  0  0
   27.7561  -23.0759  -16.7793 C   0  0  2  0  0  0  0  0  0  0  0  0
   28.2511  -24.4187  -16.8779 N   0  0  0  0  0  0  0  0  0  0  0  0
   27.1733  -22.8169  -15.4198 C   0  0  0  0  0  0  0  0  0  0  0  0
   26.3782  -23.6464  -14.9677 O   0  0  0  0  0  0  0  0  0  0  0  0
   27.5066  -21.6732  -14.6614 N   0  0  0  0  0  0  0  0  0  0  0  0
   26.9199  -21.3228  -13.3706 C   0  0  1  0  0  0  0  0  0  0  0  0
   27.8348  -20.4823  -12.5638 C   0  0  0  0  0  0  0  0  0  0  0  0
   27.4183  -20.1216  -11.2199 C   0  0  0  0  0  0  0  0  0  0  0  0
   26.3151  -19.3544  -10.9111 C   0  0  0  0  0  0  0  0  0  0  0  0
   26.2236  -19.2594   -9.5824 N   0  0  0  0  0  0  0  0  0  0  0  0
   27.2387  -19.9433   -8.9854 C   0  0  0  0  0  0  0  0  0  0  0  0
   27.5601  -20.1209   -7.6547 C   0  0  0  0  0  0  0  0  0  0  0  0
   28.6796  -20.8695   -7.3465 C   0  0  0  0  0  0  0  0  0  0  0  0
   29.4515  -21.4220   -8.3546 C   0  0  0  0  0  0  0  0  0  0  0  0
   29.1011  -21.2251   -9.6714 C   0  0  0  0  0  0  0  0  0  0  0  0
   27.9726  -20.4729  -10.0225 C   0  0  0  0  0  0  0  0  0  0  0  0
   25.5015  -21.0343  -13.4487 C   0  0  0  0  0  0  0  0  0  0  0  0
   24.9666  -20.5670  -14.5324 O   0  0  0  0  0  0  0  0  0  0  0  0
   22.1342  -22.1942   -9.0991 C   0  0  0  0  0  0  0  0  0  0  0  0
   22.7779  -22.2136  -10.4640 C   0  0  0  0  0  0  0  0  0  0  0  0
   22.4726  -20.9100  -11.1646 C   0  0  2  0  0  0  0  0  0  0  0  0
   20.9892  -20.8636  -11.3783 C   0  0  0  0  0  0  0  0  0  0  0  0
   23.1406  -20.9136  -12.5639 C   0  0  2  0  0  0  0  0  0  0  0  0
   24.5402  -21.2217  -12.4132 N   0  0  0  0  0  0  0  0  0  0  0  0
   22.7708  -19.7452  -13.3125 C   0  0  0  0  0  0  0  0  0  0  0  0
   21.8006  -19.8949  -14.3251 O   0  0  0  0  0  0  0  0  0  0  0  0
   23.2156  -18.6000  -13.1655 O   0  0  0  0  0  0  0  0  0  0  0  0
  2  3  1  0
  2  1  1  6
  4  2  1  0
  4  5  1  1
  6  4  1  0
  6  8  1  0
  7  6  2  0
  9  8  1  0
 10 11  1  0
  9 10  1  6
 11 19  1  0
 12 11  2  0
 12 13  1  0
 13 14  1  0
 14 15  1  0
 15 16  2  0
 17 16  1  0
 18 17  2  0
 19 14  2  0
 19 18  1  0
 20  9  1  0
 21 20  2  0
 22 23  1  0
 23 24  1  0
 24 26  1  0
 24 25  1  6
 26 27  1  1
 26 28  1  0
 27 20  1  0
 28 29  1  0
 30 28  2  0
M  END
$$$$
