TWI.pdb
     RDKit          3D

 30 31  0  0  1  0  0  0  0  0999 V2000
   29.0620  -18.0618  -17.0115 C   0  0  0  0  0  0  0  0  0  0  0  0
   28.1133  -18.6957  -16.0194 C   0  0  1  0  0  0  0  0  0  0  0  0
   26.8147  -18.4350  -16.4332 O   0  0  0  0  0  0  0  0  0  0  0  0
   28.3869  -20.1873  -15.8564 C   0  0  2  0  0  0  0  0  0  0  0  0
   28.1921  -20.9208  -17.0738 N   0  0  0  0  0  0  0  0  0  0  0  0
   27.4897  -20.7041  -14.7687 C   0  0  0  0  0  0  0  0  0  0  0  0
   26.4600  -21.2962  -15.1058 O   0  0  0  0  0  0  0  0  0  0  0  0
   27.7895  -20.5343  -13.3992 N   0  0  0  0  0  0  0  0  0  0  0  0
   26.8913  -20.8670  -12.2967 C   0  0  1  0  0  0  0  0  0  0  0  0
   27.6181  -20.9668  -11.0098 C   0  0  0  0  0  0  0  0  0  0  0  0
   26.8604  -20.7776   -9.7851 C   0  0  0  0  0  0  0  0  0  0  0  0
   25.5655  -21.2046   -9.5803 C   0  0  0  0  0  0  0  0  0  0  0  0
   25.2083  -20.8908   -8.3326 N   0  0  0  0  0  0  0  0  0  0  0  0
   26.2302  -20.2613   -7.6891 C   0  0  0  0  0  0  0  0  0  0  0  0
   26.3257  -19.7502   -6.4103 C   0  0  0  0  0  0  0  0  0  0  0  0
   27.5085  -19.1427   -6.0353 C   0  0  0  0  0  0  0  0  0  0  0  0
   28.5636  -19.0545   -6.9277 C   0  0  0  0  0  0  0  0  0  0  0  0
   28.4338  -19.5758   -8.1954 C   0  0  0  0  0  0  0  0  0  0  0  0
   27.2504  -20.1998   -8.6111 C   0  0  0  0  0  0  0  0  0  0  0  0
   25.6061  -20.2026  -12.3883 C   0  0  0  0  0  0  0  0  0  0  0  0
   25.5192  -18.9291  -12.6113 O   0  0  0  0  0  0  0  0  0  0  0  0
   21.7692  -18.5667  -15.7761 C   0  0  0  0  0  0  0  0  0  0  0  0
   21.7810  -18.9669  -14.3210 C   0  0  0  0  0  0  0  0  0  0  0  0
   23.0392  -19.7564  -14.0436 C   0  0  2  0  0  0  0  0  0  0  0  0
   22.9333  -21.0368  -14.8167 C   0  0  0  0  0  0  0  0  0  0  0  0
   23.0876  -20.1283  -12.5391 C   0  0  2  0  0  0  0  0  0  0  0  0
   24.3249  -20.8151  -12.2667 N   0  0  0  0  0  0  0  0  0  0  0  0
   21.8566  -20.7382  -12.1210 C   0  0  0  0  0  0  0  0  0  0  0  0
   21.9165  -22.0491  -11.6041 O   0  0  0  0  0  0  0  0  0  0  0  0
   20.7279  -20.2330  -12.1633 O   0  0  0  0  0  0  0  0  0  0  0  0
  2  3  1  0
  2  1  1  6
  4  2  1  0
  4  5  1  6
  6  4  1  0
  6  8  1  0
  7  6  2  0
  9  8  1  0
 10 11  1  0
  9 10  1  1
 11 19  1  0
 12 11  2  0
 12 13  1  0
 13 14  1  0
 14 15  1  0
 15 16  2  0
 17 16  1  0
 18 17  2  0
 19 14  2  0
 19 18  1  0
 20  9  1  0
 21 20  2  0
 22 23  1  0
 23 24  1  0
 24 26  1  0
 24 25  1  6
 26 27  1  6
 26 28  1  0
 27 20  1  0
 28 29  1  0
 30 28  2  0
M  END
$$$$
