TWI.pdb
     RDKit          3D

 30 31  0  0  1  0  0  0  0  0999 V2000
   26.7579  -19.2303  -15.7643 C   0  0  0  0  0  0  0  0  0  0  0  0
   26.1231  -19.6785  -14.4673 C   0  0  1  0  0  0  0  0  0  0  0  0
   24.8478  -20.1481  -14.7478 O   0  0  0  0  0  0  0  0  0  0  0  0
   26.9832  -20.7143  -13.7507 C   0  0  2  0  0  0  0  0  0  0  0  0
   27.1129  -21.9343  -14.4942 N   0  0  0  0  0  0  0  0  0  0  0  0
   26.3708  -20.9690  -12.4034 C   0  0  0  0  0  0  0  0  0  0  0  0
   25.6982  -21.9948  -12.2624 O   0  0  0  0  0  0  0  0  0  0  0  0
   26.5434  -20.0838  -11.3167 N   0  0  0  0  0  0  0  0  0  0  0  0
   25.8966  -20.2189  -10.0142 C   0  0  1  0  0  0  0  0  0  0  0  0
   26.6162  -19.4608   -8.9646 C   0  0  0  0  0  0  0  0  0  0  0  0
   27.2838  -20.2155   -7.9184 C   0  0  0  0  0  0  0  0  0  0  0  0
   27.5833  -21.5600   -7.9790 C   0  0  0  0  0  0  0  0  0  0  0  0
   28.2254  -21.9019   -6.8594 N   0  0  0  0  0  0  0  0  0  0  0  0
   28.3667  -20.8211   -6.0429 C   0  0  0  0  0  0  0  0  0  0  0  0
   28.9449  -20.6890   -4.7963 C   0  0  0  0  0  0  0  0  0  0  0  0
   28.9259  -19.4454   -4.1950 C   0  0  0  0  0  0  0  0  0  0  0  0
   28.3389  -18.3671   -4.8354 C   0  0  0  0  0  0  0  0  0  0  0  0
   27.7719  -18.5348   -6.0788 C   0  0  0  0  0  0  0  0  0  0  0  0
   27.7730  -19.7803   -6.7203 C   0  0  0  0  0  0  0  0  0  0  0  0
   24.4491  -20.2108  -10.0931 C   0  0  0  0  0  0  0  0  0  0  0  0
   23.8026  -19.1733  -10.5230 O   0  0  0  0  0  0  0  0  0  0  0  0
   21.9366  -21.8826  -13.6164 C   0  0  0  0  0  0  0  0  0  0  0  0
   22.2725  -21.1373  -12.3478 C   0  0  0  0  0  0  0  0  0  0  0  0
   21.7017  -21.8959  -11.1722 C   0  0  2  0  0  0  0  0  0  0  0  0
   20.2091  -21.7825  -11.2597 C   0  0  0  0  0  0  0  0  0  0  0  0
   22.1407  -21.2038   -9.8559 C   0  0  2  0  0  0  0  0  0  0  0  0
   23.5753  -21.2809   -9.7430 N   0  0  0  0  0  0  0  0  0  0  0  0
   21.3394  -21.6479   -8.7501 C   0  0  0  0  0  0  0  0  0  0  0  0
   21.9879  -22.3404   -7.7066 O   0  0  0  0  0  0  0  0  0  0  0  0
   20.1209  -21.4875   -8.6069 O   0  0  0  0  0  0  0  0  0  0  0  0
  2  3  1  0
  2  1  1  6
  4  2  1  0
  4  5  1  6
  6  4  1  0
  6  8  1  0
  7  6  2  0
  9  8  1  0
 10 11  1  0
  9 10  1  1
 11 19  1  0
 12 11  2  0
 12 13  1  0
 13 14  1  0
 14 15  1  0
 15 16  2  0
 17 16  1  0
 18 17  2  0
 19 14  2  0
 19 18  1  0
 20  9  1  0
 21 20  2  0
 22 23  1  0
 23 24  1  0
 24 26  1  0
 24 25  1  6
 26 27  1  1
 26 28  1  0
 27 20  1  0
 28 29  1  0
 30 28  2  0
M  END
$$$$
