TWI.pdb
     RDKit          3D

 30 31  0  0  1  0  0  0  0  0999 V2000
   27.8358  -21.1828  -16.3510 C   0  0  0  0  0  0  0  0  0  0  0  0
   27.3744  -21.5782  -14.9665 C   0  0  1  0  0  0  0  0  0  0  0  0
   28.3335  -22.4135  -14.4114 O   0  0  0  0  0  0  0  0  0  0  0  0
   27.0913  -20.3556  -14.0995 C   0  0  2  0  0  0  0  0  0  0  0  0
   28.2504  -19.5315  -13.9114 N   0  0  0  0  0  0  0  0  0  0  0  0
   26.5566  -20.8389  -12.7821 C   0  0  0  0  0  0  0  0  0  0  0  0
   25.5718  -21.5835  -12.7997 O   0  0  0  0  0  0  0  0  0  0  0  0
   27.1413  -20.4718  -11.5501 N   0  0  0  0  0  0  0  0  0  0  0  0
   26.5537  -20.7195  -10.2362 C   0  0  1  0  0  0  0  0  0  0  0  0
   27.5345  -20.5003   -9.1480 C   0  0  0  0  0  0  0  0  0  0  0  0
   27.0395  -20.4724   -7.7827 C   0  0  0  0  0  0  0  0  0  0  0  0
   25.8259  -20.9794   -7.3691 C   0  0  0  0  0  0  0  0  0  0  0  0
   25.7242  -20.8109   -6.0485 N   0  0  0  0  0  0  0  0  0  0  0  0
   26.8396  -20.2016   -5.5593 C   0  0  0  0  0  0  0  0  0  0  0  0
   27.1821  -19.8185   -4.2780 C   0  0  0  0  0  0  0  0  0  0  0  0
   28.4003  -19.1962   -4.0850 C   0  0  0  0  0  0  0  0  0  0  0  0
   29.2472  -18.9677   -5.1564 C   0  0  0  0  0  0  0  0  0  0  0  0
   28.8737  -19.3637   -6.4211 C   0  0  0  0  0  0  0  0  0  0  0  0
   27.6469  -19.9984   -6.6554 C   0  0  0  0  0  0  0  0  0  0  0  0
   25.1864  -20.2510  -10.1258 C   0  0  0  0  0  0  0  0  0  0  0  0
   24.9048  -18.9861  -10.1211 O   0  0  0  0  0  0  0  0  0  0  0  0
   20.4205  -19.5041  -12.9338 C   0  0  0  0  0  0  0  0  0  0  0  0
   20.8276  -19.7431  -11.5003 C   0  0  0  0  0  0  0  0  0  0  0  0
   22.1750  -20.4270  -11.4847 C   0  0  2  0  0  0  0  0  0  0  0  0
   21.9628  -21.8259  -11.9811 C   0  0  0  0  0  0  0  0  0  0  0  0
   22.6796  -20.5278  -10.0220 C   0  0  2  0  0  0  0  0  0  0  0  0
   24.0183  -21.0614  -10.0249 N   0  0  0  0  0  0  0  0  0  0  0  0
   21.6947  -21.1474   -9.1805 C   0  0  0  0  0  0  0  0  0  0  0  0
   22.1179  -22.1966   -8.3384 O   0  0  0  0  0  0  0  0  0  0  0  0
   20.4938  -20.8581   -9.1092 O   0  0  0  0  0  0  0  0  0  0  0  0
  2  3  1  0
  2  1  1  6
  4  2  1  0
  4  5  1  1
  6  4  1  0
  6  8  1  0
  7  6  2  0
  9  8  1  0
 10 11  1  0
  9 10  1  1
 11 19  1  0
 12 11  2  0
 12 13  1  0
 13 14  1  0
 14 15  1  0
 15 16  2  0
 17 16  1  0
 18 17  2  0
 19 14  2  0
 19 18  1  0
 20  9  1  0
 21 20  2  0
 22 23  1  0
 23 24  1  0
 24 26  1  0
 24 25  1  1
 26 27  1  6
 26 28  1  0
 27 20  1  0
 28 29  1  0
 30 28  2  0
M  END
$$$$
