TWI.pdb
     RDKit          3D

 30 31  0  0  1  0  0  0  0  0999 V2000
   28.9410  -19.4711  -16.5023 C   0  0  0  0  0  0  0  0  0  0  0  0
   28.0042  -19.8447  -15.3758 C   0  0  1  0  0  0  0  0  0  0  0  0
   26.7009  -19.7215  -15.8361 O   0  0  0  0  0  0  0  0  0  0  0  0
   28.3045  -21.2394  -14.8363 C   0  0  2  0  0  0  0  0  0  0  0  0
   28.0521  -22.2709  -15.8008 N   0  0  0  0  0  0  0  0  0  0  0  0
   27.4748  -21.4442  -13.6015 C   0  0  0  0  0  0  0  0  0  0  0  0
   26.3985  -22.0367  -13.7239 O   0  0  0  0  0  0  0  0  0  0  0  0
   27.8877  -20.9869  -12.3307 N   0  0  0  0  0  0  0  0  0  0  0  0
   27.0804  -21.0463  -11.1151 C   0  0  1  0  0  0  0  0  0  0  0  0
   27.8969  -20.8025   -9.9035 C   0  0  0  0  0  0  0  0  0  0  0  0
   27.2013  -20.6084   -8.6432 C   0  0  0  0  0  0  0  0  0  0  0  0
   25.8382  -20.7159   -8.4655 C   0  0  0  0  0  0  0  0  0  0  0  0
   25.5615  -20.5085   -7.1758 N   0  0  0  0  0  0  0  0  0  0  0  0
   26.7045  -20.2627   -6.4774 C   0  0  0  0  0  0  0  0  0  0  0  0
   26.9156  -19.9868   -5.1413 C   0  0  0  0  0  0  0  0  0  0  0  0
   28.2111  -19.7636   -4.7163 C   0  0  0  0  0  0  0  0  0  0  0  0
   29.2621  -19.8174   -5.6163 C   0  0  0  0  0  0  0  0  0  0  0  0
   29.0151  -20.0958   -6.9418 C   0  0  0  0  0  0  0  0  0  0  0  0
   27.7152  -20.3287   -7.4095 C   0  0  0  0  0  0  0  0  0  0  0  0
   25.7677  -20.4519  -11.2731 C   0  0  0  0  0  0  0  0  0  0  0  0
   25.6192  -19.1730  -11.4191 O   0  0  0  0  0  0  0  0  0  0  0  0
   22.0497  -18.8121  -14.8117 C   0  0  0  0  0  0  0  0  0  0  0  0
   21.9927  -19.3148  -13.3899 C   0  0  0  0  0  0  0  0  0  0  0  0
   23.2581  -20.0866  -13.0956 C   0  0  2  0  0  0  0  0  0  0  0  0
   23.2050  -21.3439  -13.9109 C   0  0  0  0  0  0  0  0  0  0  0  0
   23.2657  -20.5047  -11.6024 C   0  0  2  0  0  0  0  0  0  0  0  0
   24.5220  -21.1438  -11.3022 N   0  0  0  0  0  0  0  0  0  0  0  0
   22.0490  -21.1825  -11.2527 C   0  0  0  0  0  0  0  0  0  0  0  0
   20.9169  -20.3918  -10.9658 O   0  0  0  0  0  0  0  0  0  0  0  0
   21.8787  -22.4055  -11.1741 O   0  0  0  0  0  0  0  0  0  0  0  0
  2  3  1  0
  2  1  1  6
  4  2  1  0
  4  5  1  6
  6  4  1  0
  6  8  1  0
  7  6  2  0
  9  8  1  0
 10 11  1  0
  9 10  1  1
 11 19  1  0
 12 11  2  0
 12 13  1  0
 13 14  1  0
 14 15  1  0
 15 16  2  0
 17 16  1  0
 18 17  2  0
 19 14  2  0
 19 18  1  0
 20  9  1  0
 21 20  2  0
 22 23  1  0
 23 24  1  0
 24 26  1  0
 24 25  1  6
 26 27  1  6
 26 28  1  0
 27 20  1  0
 28 29  1  0
 30 28  2  0
M  END
$$$$
