TWI.pdb
     RDKit          3D

 30 31  0  0  1  0  0  0  0  0999 V2000
   29.0310  -18.7490  -16.0126 C   0  0  0  0  0  0  0  0  0  0  0  0
   28.0493  -19.2513  -14.9781 C   0  0  1  0  0  0  0  0  0  0  0  0
   26.7683  -19.1179  -15.4947 O   0  0  0  0  0  0  0  0  0  0  0  0
   28.3635  -20.6828  -14.5557 C   0  0  2  0  0  0  0  0  0  0  0  0
   28.1774  -21.6262  -15.6203 N   0  0  0  0  0  0  0  0  0  0  0  0
   27.4897  -21.0189  -13.3816 C   0  0  0  0  0  0  0  0  0  0  0  0
   26.4661  -21.6753  -13.5960 O   0  0  0  0  0  0  0  0  0  0  0  0
   27.8044  -20.6126  -12.0662 N   0  0  0  0  0  0  0  0  0  0  0  0
   26.9830  -20.8770  -10.8878 C   0  0  1  0  0  0  0  0  0  0  0  0
   27.7734  -20.7856   -9.6383 C   0  0  0  0  0  0  0  0  0  0  0  0
   27.0500  -20.6860   -8.3826 C   0  0  0  0  0  0  0  0  0  0  0  0
   25.7392  -21.0679   -8.1906 C   0  0  0  0  0  0  0  0  0  0  0  0
   25.4226  -20.8664   -6.9092 N   0  0  0  0  0  0  0  0  0  0  0  0
   26.4876  -20.3568   -6.2304 C   0  0  0  0  0  0  0  0  0  0  0  0
   26.6337  -19.9846   -4.9090 C   0  0  0  0  0  0  0  0  0  0  0  0
   27.8530  -19.4774   -4.5034 C   0  0  0  0  0  0  0  0  0  0  0  0
   28.8939  -19.3499   -5.4077 C   0  0  0  0  0  0  0  0  0  0  0  0
   28.7132  -19.7317   -6.7181 C   0  0  0  0  0  0  0  0  0  0  0  0
   27.4916  -20.2512   -7.1659 C   0  0  0  0  0  0  0  0  0  0  0  0
   25.6519  -20.3108  -10.9822 C   0  0  0  0  0  0  0  0  0  0  0  0
   25.4693  -19.0354  -11.1208 O   0  0  0  0  0  0  0  0  0  0  0  0
   23.6508  -19.8706  -14.9713 C   0  0  0  0  0  0  0  0  0  0  0  0
   23.8830  -19.7002  -13.4898 C   0  0  0  0  0  0  0  0  0  0  0  0
   22.8515  -20.5102  -12.7393 C   0  0  2  0  0  0  0  0  0  0  0  0
   21.5226  -19.8580  -12.9783 C   0  0  0  0  0  0  0  0  0  0  0  0
   23.1414  -20.4232  -11.2185 C   0  0  2  0  0  0  0  0  0  0  0  0
   24.4213  -21.0291  -10.9511 N   0  0  0  0  0  0  0  0  0  0  0  0
   22.0045  -20.8525  -10.4536 C   0  0  0  0  0  0  0  0  0  0  0  0
   21.2313  -19.8609   -9.8149 O   0  0  0  0  0  0  0  0  0  0  0  0
   21.6192  -22.0168  -10.2893 O   0  0  0  0  0  0  0  0  0  0  0  0
  2  3  1  0
  2  1  1  6
  4  2  1  0
  4  5  1  6
  6  4  1  0
  6  8  1  0
  7  6  2  0
  9  8  1  0
 10 11  1  0
  9 10  1  1
 11 19  1  0
 12 11  2  0
 12 13  1  0
 13 14  1  0
 14 15  1  0
 15 16  2  0
 17 16  1  0
 18 17  2  0
 19 14  2  0
 19 18  1  0
 20  9  1  0
 21 20  2  0
 22 23  1  0
 23 24  1  0
 24 26  1  0
 24 25  1  1
 26 27  1  6
 26 28  1  0
 27 20  1  0
 28 29  1  0
 30 28  2  0
M  END
$$$$
