VHQ.pdb
     RDKit          3D

 27 27  0  0  1  0  0  0  0  0999 V2000
    8.0751  -16.0601   17.5167 C   0  0  0  0  0  0  0  0  0  0  0  0
    8.3249  -14.6249   17.1243 C   0  0  1  0  0  0  0  0  0  0  0  0
    7.6710  -14.2890   15.8091 C   0  0  0  0  0  0  0  0  0  0  0  0
    7.8566  -13.6510   18.1970 C   0  0  2  0  0  0  0  0  0  0  0  0
    8.2027  -12.3279   17.7608 N   0  0  0  0  0  0  0  0  0  0  0  0
    8.5092  -13.9609   19.5058 C   0  0  0  0  0  0  0  0  0  0  0  0
    9.7332  -13.8850   19.6296 O   0  0  0  0  0  0  0  0  0  0  0  0
    7.7213  -14.3425   20.6064 N   0  0  0  0  0  0  0  0  0  0  0  0
    8.1096  -14.8647   21.8597 C   0  0  1  0  0  0  0  0  0  0  0  0
    7.0227  -15.2494   22.8370 C   0  0  0  0  0  0  0  0  0  0  0  0
    7.5410  -15.7443   24.1295 C   0  0  0  0  0  0  0  0  0  0  0  0
    8.9341  -15.8097   24.3807 C   0  0  0  0  0  0  0  0  0  0  0  0
    9.1496  -16.2876   25.6174 N   0  0  0  0  0  0  0  0  0  0  0  0
    7.9572  -16.5288   26.1631 C   0  0  0  0  0  0  0  0  0  0  0  0
    7.0188  -16.1975   25.2584 N   0  0  0  0  0  0  0  0  0  0  0  0
    9.2754  -15.7684   21.8542 C   0  0  0  0  0  0  0  0  0  0  0  0
    9.3181  -16.7888   21.0754 O   0  0  0  0  0  0  0  0  0  0  0  0
   13.7397  -14.2805   19.0829 N   0  0  0  0  0  0  0  0  0  0  0  0
   14.3772  -15.3564   19.7538 C   0  0  0  0  0  0  0  0  0  0  0  0
   15.5241  -15.6946   19.4044 O   0  0  0  0  0  0  0  0  0  0  0  0
   13.6614  -16.0319   20.8332 C   0  0  0  0  0  0  0  0  0  0  0  0
   12.3360  -15.4439   21.2077 C   0  0  0  0  0  0  0  0  0  0  0  0
   11.6972  -16.1849   22.3220 C   0  0  2  0  0  0  0  0  0  0  0  0
   10.4061  -15.5894   22.6804 N   0  0  0  0  0  0  0  0  0  0  0  0
   12.5387  -16.1796   23.5299 C   0  0  0  0  0  0  0  0  0  0  0  0
   12.2185  -15.5413   24.5671 O   0  0  0  0  0  0  0  0  0  0  0  0
   13.7175  -16.8851   23.5659 O   0  0  0  0  0  0  0  0  0  0  0  0
  2  1  1  1
  3  2  1  0
  4  2  1  0
  4  5  1  6
  6  4  1  0
  7  6  2  0
  8  6  1  0
  9  8  1  0
 10 11  1  0
  9 10  1  6
 11 15  1  0
 12 13  1  0
 12 11  2  0
 13 14  1  0
 14 15  2  0
 16 24  1  0
 16  9  1  0
 17 16  2  0
 19 18  1  0
 20 19  2  0
 21 19  1  0
 22 21  1  0
 23 24  1  0
 23 22  1  6
 25 23  1  0
 26 25  2  0
 27 25  1  0
M  END
$$$$
