VHQ.pdb
     RDKit          3D

 27 27  0  0  1  0  0  0  0  0999 V2000
   10.5644  -16.0509   18.8326 C   0  0  0  0  0  0  0  0  0  0  0  0
   10.1847  -14.7322   18.2057 C   0  0  1  0  0  0  0  0  0  0  0  0
   10.1039  -14.8359   16.7047 C   0  0  0  0  0  0  0  0  0  0  0  0
    8.8705  -14.1964   18.7574 C   0  0  2  0  0  0  0  0  0  0  0  0
    8.6111  -12.9401   18.1131 N   0  0  0  0  0  0  0  0  0  0  0  0
    8.9586  -14.0194   20.2392 C   0  0  0  0  0  0  0  0  0  0  0  0
    9.8210  -13.2904   20.7334 O   0  0  0  0  0  0  0  0  0  0  0  0
    8.0506  -14.6897   21.0782 N   0  0  0  0  0  0  0  0  0  0  0  0
    7.9516  -14.6910   22.4869 C   0  0  1  0  0  0  0  0  0  0  0  0
    6.5740  -14.6036   23.1027 C   0  0  0  0  0  0  0  0  0  0  0  0
    6.5901  -14.5725   24.5802 C   0  0  0  0  0  0  0  0  0  0  0  0
    6.7128  -13.3483   25.2833 C   0  0  0  0  0  0  0  0  0  0  0  0
    6.7001  -13.5823   26.6059 N   0  0  0  0  0  0  0  0  0  0  0  0
    6.5750  -14.8989   26.7750 C   0  0  0  0  0  0  0  0  0  0  0  0
    6.5119  -15.4636   25.5560 N   0  0  0  0  0  0  0  0  0  0  0  0
    8.8867  -15.5788   23.2033 C   0  0  0  0  0  0  0  0  0  0  0  0
    9.1403  -16.7609   22.7700 O   0  0  0  0  0  0  0  0  0  0  0  0
   12.2091  -14.4007   28.5450 N   0  0  0  0  0  0  0  0  0  0  0  0
   10.7934  -14.4468   28.4567 C   0  0  0  0  0  0  0  0  0  0  0  0
   10.1121  -13.9732   29.3857 O   0  0  0  0  0  0  0  0  0  0  0  0
   10.1843  -15.0522   27.2751 C   0  0  0  0  0  0  0  0  0  0  0  0
   11.1343  -15.5199   26.2160 C   0  0  0  0  0  0  0  0  0  0  0  0
   10.4268  -16.1667   25.0848 C   0  0  2  0  0  0  0  0  0  0  0  0
    9.5597  -15.2109   24.3886 N   0  0  0  0  0  0  0  0  0  0  0  0
    9.5812  -17.2823   25.5403 C   0  0  0  0  0  0  0  0  0  0  0  0
    8.3235  -17.2221   25.5197 O   0  0  0  0  0  0  0  0  0  0  0  0
   10.1464  -18.4449   26.0068 O   0  0  0  0  0  0  0  0  0  0  0  0
  2  1  1  1
  3  2  1  0
  4  2  1  0
  4  5  1  6
  6  4  1  0
  7  6  2  0
  8  6  1  0
  9  8  1  0
 10 11  1  0
  9 10  1  6
 11 15  1  0
 12 13  1  0
 12 11  2  0
 13 14  1  0
 14 15  2  0
 16 24  1  0
 16  9  1  0
 17 16  2  0
 19 18  1  0
 20 19  2  0
 21 19  1  0
 22 21  1  0
 23 24  1  0
 23 22  1  1
 25 23  1  0
 26 25  2  0
 27 25  1  0
M  END
$$$$
