VHQ.pdb
     RDKit          3D

 27 27  0  0  1  0  0  0  0  0999 V2000
   10.7649  -20.3804   16.1452 C   0  0  0  0  0  0  0  0  0  0  0  0
   10.9239  -19.4314   17.3071 C   0  0  1  0  0  0  0  0  0  0  0  0
   12.3090  -19.5042   17.8957 C   0  0  0  0  0  0  0  0  0  0  0  0
   10.6037  -17.9947   16.9175 C   0  0  2  0  0  0  0  0  0  0  0  0
   11.5113  -17.6177   15.8713 N   0  0  0  0  0  0  0  0  0  0  0  0
   10.7532  -17.0873   18.0961 C   0  0  0  0  0  0  0  0  0  0  0  0
   11.8224  -16.5140   18.3142 O   0  0  0  0  0  0  0  0  0  0  0  0
    9.6658  -16.8848   18.9646 N   0  0  0  0  0  0  0  0  0  0  0  0
    9.5860  -16.1269   20.1534 C   0  0  1  0  0  0  0  0  0  0  0  0
    8.2837  -15.4248   20.4626 C   0  0  0  0  0  0  0  0  0  0  0  0
    7.7745  -14.6074   19.3415 C   0  0  0  0  0  0  0  0  0  0  0  0
    8.0711  -13.2246   19.2525 C   0  0  0  0  0  0  0  0  0  0  0  0
    7.5003  -12.7088   18.1515 N   0  0  0  0  0  0  0  0  0  0  0  0
    6.8549  -13.7006   17.5371 C   0  0  0  0  0  0  0  0  0  0  0  0
    7.0337  -14.8175   18.2647 N   0  0  0  0  0  0  0  0  0  0  0  0
   10.2715  -16.6912   21.3313 C   0  0  0  0  0  0  0  0  0  0  0  0
   10.0985  -17.9170   21.6734 O   0  0  0  0  0  0  0  0  0  0  0  0
   16.1462  -15.2664   22.7252 N   0  0  0  0  0  0  0  0  0  0  0  0
   15.8349  -16.2709   23.6782 C   0  0  0  0  0  0  0  0  0  0  0  0
   16.7345  -16.6954   24.4279 O   0  0  0  0  0  0  0  0  0  0  0  0
   14.4649  -16.7736   23.7441 C   0  0  0  0  0  0  0  0  0  0  0  0
   13.4722  -16.0863   22.8582 C   0  0  0  0  0  0  0  0  0  0  0  0
   12.1045  -16.6318   23.0325 C   0  0  2  0  0  0  0  0  0  0  0  0
   11.1485  -15.9510   22.1535 N   0  0  0  0  0  0  0  0  0  0  0  0
   11.6280  -16.4699   24.4159 C   0  0  0  0  0  0  0  0  0  0  0  0
   10.7547  -15.6182   24.7288 O   0  0  0  0  0  0  0  0  0  0  0  0
   12.1265  -17.2578   25.4255 O   0  0  0  0  0  0  0  0  0  0  0  0
  2  1  1  6
  3  2  1  0
  4  2  1  0
  4  5  1  6
  6  4  1  0
  7  6  2  0
  8  6  1  0
  9  8  1  0
 10 11  1  0
  9 10  1  1
 11 15  1  0
 12 13  1  0
 12 11  2  0
 13 14  1  0
 14 15  2  0
 16 24  1  0
 16  9  1  0
 17 16  2  0
 19 18  1  0
 20 19  2  0
 21 19  1  0
 22 21  1  0
 23 24  1  0
 23 22  1  1
 25 23  1  0
 26 25  2  0
 27 25  1  0
M  END
$$$$
