VHQ.pdb
     RDKit          3D

 27 27  0  0  1  0  0  0  0  0999 V2000
   12.3154  -18.6210   14.9856 C   0  0  0  0  0  0  0  0  0  0  0  0
   12.2334  -17.6725   13.8152 C   0  0  1  0  0  0  0  0  0  0  0  0
   12.3231  -18.4054   12.5017 C   0  0  0  0  0  0  0  0  0  0  0  0
   10.9648  -16.8313   13.8511 C   0  0  2  0  0  0  0  0  0  0  0  0
   10.9241  -16.0581   12.6424 N   0  0  0  0  0  0  0  0  0  0  0  0
   10.9644  -15.9362   15.0485 C   0  0  0  0  0  0  0  0  0  0  0  0
   11.8843  -15.1370   15.2340 O   0  0  0  0  0  0  0  0  0  0  0  0
    9.9062  -16.0051   15.9721 N   0  0  0  0  0  0  0  0  0  0  0  0
    9.6976  -15.2792   17.1653 C   0  0  1  0  0  0  0  0  0  0  0  0
    8.2886  -14.8425   17.4945 C   0  0  0  0  0  0  0  0  0  0  0  0
    8.2003  -14.0034   18.7079 C   0  0  0  0  0  0  0  0  0  0  0  0
    7.3805  -14.3827   19.7998 C   0  0  0  0  0  0  0  0  0  0  0  0
    7.4717  -13.4639   20.7754 N   0  0  0  0  0  0  0  0  0  0  0  0
    8.3119  -12.5187   20.3532 C   0  0  0  0  0  0  0  0  0  0  0  0
    8.7303  -12.8633   19.1224 N   0  0  0  0  0  0  0  0  0  0  0  0
   10.4952  -15.7028   18.3316 C   0  0  0  0  0  0  0  0  0  0  0  0
   10.5823  -16.9416   18.6591 O   0  0  0  0  0  0  0  0  0  0  0  0
   15.0942  -13.0216   18.9588 N   0  0  0  0  0  0  0  0  0  0  0  0
   15.3103  -14.4242   18.9704 C   0  0  0  0  0  0  0  0  0  0  0  0
   16.2677  -14.8956   18.3281 O   0  0  0  0  0  0  0  0  0  0  0  0
   14.3969  -15.2676   19.7374 C   0  0  0  0  0  0  0  0  0  0  0  0
   13.2699  -14.5579   20.4221 C   0  0  0  0  0  0  0  0  0  0  0  0
   11.9915  -15.2983   20.2950 C   0  0  2  0  0  0  0  0  0  0  0  0
   11.2073  -14.8064   19.1579 N   0  0  0  0  0  0  0  0  0  0  0  0
   11.1601  -15.1564   21.5016 C   0  0  0  0  0  0  0  0  0  0  0  0
   10.0055  -14.6550   21.4650 O   0  0  0  0  0  0  0  0  0  0  0  0
   11.6234  -15.5764   22.7253 O   0  0  0  0  0  0  0  0  0  0  0  0
  2  1  1  1
  3  2  1  0
  4  2  1  0
  4  5  1  6
  6  4  1  0
  7  6  2  0
  8  6  1  0
  9  8  1  0
 10 11  1  0
  9 10  1  1
 11 15  1  0
 12 13  1  0
 12 11  2  0
 13 14  1  0
 14 15  2  0
 16 24  1  0
 16  9  1  0
 17 16  2  0
 19 18  1  0
 20 19  2  0
 21 19  1  0
 22 21  1  0
 23 24  1  0
 23 22  1  1
 25 23  1  0
 26 25  2  0
 27 25  1  0
M  END
$$$$
