VHQ.pdb
     RDKit          3D

 27 27  0  0  1  0  0  0  0  0999 V2000
   11.6367  -19.8204   15.2636 C   0  0  0  0  0  0  0  0  0  0  0  0
   11.7903  -18.7883   16.3533 C   0  0  1  0  0  0  0  0  0  0  0  0
   13.2376  -18.4394   16.5850 C   0  0  0  0  0  0  0  0  0  0  0  0
   10.9958  -17.5237   16.0565 C   0  0  2  0  0  0  0  0  0  0  0  0
   11.5297  -16.9497   14.8540 N   0  0  0  0  0  0  0  0  0  0  0  0
   11.1043  -16.5589   17.1933 C   0  0  0  0  0  0  0  0  0  0  0  0
   11.8705  -15.5955   17.1269 O   0  0  0  0  0  0  0  0  0  0  0  0
   10.3265  -16.7504   18.3491 N   0  0  0  0  0  0  0  0  0  0  0  0
   10.2401  -15.9683   19.5216 C   0  0  1  0  0  0  0  0  0  0  0  0
    8.8845  -15.4305   19.9191 C   0  0  0  0  0  0  0  0  0  0  0  0
    8.1737  -14.7512   18.8157 C   0  0  0  0  0  0  0  0  0  0  0  0
    8.3861  -13.3760   18.5476 C   0  0  0  0  0  0  0  0  0  0  0  0
    7.6321  -12.9964   17.5028 N   0  0  0  0  0  0  0  0  0  0  0  0
    6.9507  -14.0674   17.0950 C   0  0  0  0  0  0  0  0  0  0  0  0
    7.2908  -15.0963   17.8917 N   0  0  0  0  0  0  0  0  0  0  0  0
   11.0836  -16.3978   20.6530 C   0  0  0  0  0  0  0  0  0  0  0  0
   10.8492  -17.4979   21.2729 O   0  0  0  0  0  0  0  0  0  0  0  0
   15.9804  -13.8243   19.6977 N   0  0  0  0  0  0  0  0  0  0  0  0
   16.2280  -14.8248   20.6733 C   0  0  0  0  0  0  0  0  0  0  0  0
   17.3368  -14.8581   21.2400 O   0  0  0  0  0  0  0  0  0  0  0  0
   15.1692  -15.7841   20.9775 C   0  0  0  0  0  0  0  0  0  0  0  0
   14.3614  -15.4994   22.2060 C   0  0  0  0  0  0  0  0  0  0  0  0
   13.0533  -16.1973   22.1818 C   0  0  2  0  0  0  0  0  0  0  0  0
   12.1853  -15.6559   21.1314 N   0  0  0  0  0  0  0  0  0  0  0  0
   12.3401  -16.0577   23.4621 C   0  0  0  0  0  0  0  0  0  0  0  0
   11.2391  -15.4534   23.5537 O   0  0  0  0  0  0  0  0  0  0  0  0
   12.8597  -16.5939   24.6158 O   0  0  0  0  0  0  0  0  0  0  0  0
  2  1  1  6
  3  2  1  0
  4  2  1  0
  4  5  1  6
  6  4  1  0
  7  6  2  0
  8  6  1  0
  9  8  1  0
 10 11  1  0
  9 10  1  1
 11 15  1  0
 12 13  1  0
 12 11  2  0
 13 14  1  0
 14 15  2  0
 16 24  1  0
 16  9  1  0
 17 16  2  0
 19 18  1  0
 20 19  2  0
 21 19  1  0
 22 21  1  0
 23 24  1  0
 23 22  1  1
 25 23  1  0
 26 25  2  0
 27 25  1  0
M  END
$$$$
