VHQ.pdb
     RDKit          3D

 27 27  0  0  1  0  0  0  0  0999 V2000
   11.3687  -17.2071   18.6058 C   0  0  0  0  0  0  0  0  0  0  0  0
   12.5095  -16.2248   18.5069 C   0  0  1  0  0  0  0  0  0  0  0  0
   13.0413  -16.1341   17.1001 C   0  0  0  0  0  0  0  0  0  0  0  0
   12.1129  -14.8395   18.9990 C   0  0  2  0  0  0  0  0  0  0  0  0
   13.2880  -14.0158   18.9653 N   0  0  0  0  0  0  0  0  0  0  0  0
   11.5629  -14.9149   20.3870 C   0  0  0  0  0  0  0  0  0  0  0  0
   12.2947  -15.2015   21.3366 O   0  0  0  0  0  0  0  0  0  0  0  0
   10.1991  -14.6571   20.6132 N   0  0  0  0  0  0  0  0  0  0  0  0
    9.4611  -14.6810   21.8169 C   0  0  1  0  0  0  0  0  0  0  0  0
    8.0571  -14.1214   21.8010 C   0  0  0  0  0  0  0  0  0  0  0  0
    7.4118  -14.1115   23.1306 C   0  0  0  0  0  0  0  0  0  0  0  0
    8.1045  -14.5626   24.2816 C   0  0  0  0  0  0  0  0  0  0  0  0
    7.3110  -14.4529   25.3599 N   0  0  0  0  0  0  0  0  0  0  0  0
    6.1462  -13.9530   24.9464 C   0  0  0  0  0  0  0  0  0  0  0  0
    6.2326  -13.7593   23.6183 N   0  0  0  0  0  0  0  0  0  0  0  0
    9.6329  -15.8784   22.6610 C   0  0  0  0  0  0  0  0  0  0  0  0
    9.1708  -17.0190   22.2936 O   0  0  0  0  0  0  0  0  0  0  0  0
   14.8728  -18.0018   24.4403 N   0  0  0  0  0  0  0  0  0  0  0  0
   13.9991  -18.9263   25.0694 C   0  0  0  0  0  0  0  0  0  0  0  0
   14.4741  -19.9577   25.5816 O   0  0  0  0  0  0  0  0  0  0  0  0
   12.5680  -18.6341   25.0921 C   0  0  0  0  0  0  0  0  0  0  0  0
   12.1558  -17.3336   24.4745 C   0  0  0  0  0  0  0  0  0  0  0  0
   10.6904  -17.1223   24.5563 C   0  0  2  0  0  0  0  0  0  0  0  0
   10.3007  -15.8678   23.9049 N   0  0  0  0  0  0  0  0  0  0  0  0
   10.2285  -17.0591   25.9526 C   0  0  0  0  0  0  0  0  0  0  0  0
   10.3604  -18.0274   26.7468 O   0  0  0  0  0  0  0  0  0  0  0  0
    9.6321  -15.9221   26.4427 O   0  0  0  0  0  0  0  0  0  0  0  0
  2  1  1  6
  3  2  1  0
  4  2  1  0
  4  5  1  1
  6  4  1  0
  7  6  2  0
  8  6  1  0
  9  8  1  0
 10 11  1  0
  9 10  1  6
 11 15  1  0
 12 13  1  0
 12 11  2  0
 13 14  1  0
 14 15  2  0
 16 24  1  0
 16  9  1  0
 17 16  2  0
 19 18  1  0
 20 19  2  0
 21 19  1  0
 22 21  1  0
 23 24  1  0
 23 22  1  1
 25 23  1  0
 26 25  2  0
 27 25  1  0
M  END
$$$$
