VHQ.pdb
     RDKit          3D

 27 27  0  0  1  0  0  0  0  0999 V2000
    8.3089  -12.6272   18.2036 C   0  0  0  0  0  0  0  0  0  0  0  0
    7.9286  -13.2209   19.5374 C   0  0  1  0  0  0  0  0  0  0  0  0
    6.6677  -14.0399   19.4393 C   0  0  0  0  0  0  0  0  0  0  0  0
    9.0495  -14.0677   20.1247 C   0  0  2  0  0  0  0  0  0  0  0  0
    9.3590  -15.0963   19.1725 N   0  0  0  0  0  0  0  0  0  0  0  0
    8.6253  -14.6667   21.4270 C   0  0  0  0  0  0  0  0  0  0  0  0
    8.2925  -13.9458   22.3698 O   0  0  0  0  0  0  0  0  0  0  0  0
    8.6050  -16.0645   21.5797 N   0  0  0  0  0  0  0  0  0  0  0  0
    8.2390  -16.8478   22.6962 C   0  0  1  0  0  0  0  0  0  0  0  0
    8.2191  -18.3504   22.5345 C   0  0  0  0  0  0  0  0  0  0  0  0
    7.7337  -19.0655   23.7334 C   0  0  0  0  0  0  0  0  0  0  0  0
    7.2757  -18.3559   24.8712 C   0  0  0  0  0  0  0  0  0  0  0  0
    6.8884  -19.2235   25.8206 N   0  0  0  0  0  0  0  0  0  0  0  0
    7.0794  -20.4516   25.3379 C   0  0  0  0  0  0  0  0  0  0  0  0
    7.5823  -20.3295   24.0965 N   0  0  0  0  0  0  0  0  0  0  0  0
    8.7283  -16.3799   24.0068 C   0  0  0  0  0  0  0  0  0  0  0  0
    9.9854  -16.2517   24.2365 O   0  0  0  0  0  0  0  0  0  0  0  0
    5.8466  -12.0052   27.1596 N   0  0  0  0  0  0  0  0  0  0  0  0
    7.0636  -11.7581   26.4727 C   0  0  0  0  0  0  0  0  0  0  0  0
    7.3592  -10.5881   26.1641 O   0  0  0  0  0  0  0  0  0  0  0  0
    7.9283  -12.8904   26.1499 C   0  0  0  0  0  0  0  0  0  0  0  0
    7.4694  -14.2267   26.6462 C   0  0  0  0  0  0  0  0  0  0  0  0
    8.3948  -15.3135   26.2448 C   0  0  2  0  0  0  0  0  0  0  0  0
    7.8786  -16.0443   25.0831 N   0  0  0  0  0  0  0  0  0  0  0  0
    8.5906  -16.2880   27.3306 C   0  0  0  0  0  0  0  0  0  0  0  0
    8.0782  -17.4380   27.2998 O   0  0  0  0  0  0  0  0  0  0  0  0
    9.3537  -15.9702   28.4284 O   0  0  0  0  0  0  0  0  0  0  0  0
  2  1  1  6
  3  2  1  0
  4  2  1  0
  4  5  1  6
  6  4  1  0
  7  6  2  0
  8  6  1  0
  9  8  1  0
 10 11  1  0
  9 10  1  6
 11 15  1  0
 12 13  1  0
 12 11  2  0
 13 14  1  0
 14 15  2  0
 16 24  1  0
 16  9  1  0
 17 16  2  0
 19 18  1  0
 20 19  2  0
 21 19  1  0
 22 21  1  0
 23 24  1  0
 23 22  1  1
 25 23  1  0
 26 25  2  0
 27 25  1  0
M  END
$$$$
