VHQ.pdb
     RDKit          3D

 27 27  0  0  1  0  0  0  0  0999 V2000
    9.8443  -13.0230   19.8360 C   0  0  0  0  0  0  0  0  0  0  0  0
    8.6050  -13.4273   19.0765 C   0  0  1  0  0  0  0  0  0  0  0  0
    7.9951  -12.2570   18.3494 C   0  0  0  0  0  0  0  0  0  0  0  0
    8.8818  -14.5575   18.0944 C   0  0  2  0  0  0  0  0  0  0  0  0
    7.6929  -14.7536   17.3144 N   0  0  0  0  0  0  0  0  0  0  0  0
    9.2434  -15.8098   18.8263 C   0  0  0  0  0  0  0  0  0  0  0  0
    8.4647  -16.3056   19.6431 O   0  0  0  0  0  0  0  0  0  0  0  0
   10.4822  -16.4290   18.5822 N   0  0  0  0  0  0  0  0  0  0  0  0
   11.0583  -17.5692   19.1841 C   0  0  1  0  0  0  0  0  0  0  0  0
   11.0802  -18.8565   18.3922 C   0  0  0  0  0  0  0  0  0  0  0  0
    9.8244  -19.1177   17.6580 C   0  0  0  0  0  0  0  0  0  0  0  0
    8.7284  -19.7558   18.2900 C   0  0  0  0  0  0  0  0  0  0  0  0
    7.7116  -19.8764   17.4206 N   0  0  0  0  0  0  0  0  0  0  0  0
    8.1116  -19.3440   16.2655 C   0  0  0  0  0  0  0  0  0  0  0  0
    9.3702  -18.9008   16.4336 N   0  0  0  0  0  0  0  0  0  0  0  0
   12.2630  -17.3336   20.0021 C   0  0  0  0  0  0  0  0  0  0  0  0
   13.4292  -17.2905   19.4657 O   0  0  0  0  0  0  0  0  0  0  0  0
   15.6023  -13.4965   20.9130 N   0  0  0  0  0  0  0  0  0  0  0  0
   14.6704  -14.0807   20.0162 C   0  0  0  0  0  0  0  0  0  0  0  0
   14.6376  -13.6878   18.8346 O   0  0  0  0  0  0  0  0  0  0  0  0
   13.7787  -15.1251   20.5143 C   0  0  0  0  0  0  0  0  0  0  0  0
   14.0374  -15.5944   21.9127 C   0  0  0  0  0  0  0  0  0  0  0  0
   13.4726  -16.9435   22.1567 C   0  0  2  0  0  0  0  0  0  0  0  0
   12.2320  -17.1413   21.4005 N   0  0  0  0  0  0  0  0  0  0  0  0
   13.1621  -17.1523   23.5805 C   0  0  0  0  0  0  0  0  0  0  0  0
   14.0576  -17.1750   24.4656 O   0  0  0  0  0  0  0  0  0  0  0  0
   11.8641  -17.3285   23.9962 O   0  0  0  0  0  0  0  0  0  0  0  0
  2  1  1  6
  3  2  1  0
  4  2  1  0
  4  5  1  1
  6  4  1  0
  7  6  2  0
  8  6  1  0
  9  8  1  0
 10 11  1  0
  9 10  1  6
 11 15  1  0
 12 13  1  0
 12 11  2  0
 13 14  1  0
 14 15  2  0
 16 24  1  0
 16  9  1  0
 17 16  2  0
 19 18  1  0
 20 19  2  0
 21 19  1  0
 22 21  1  0
 23 24  1  0
 23 22  1  1
 25 23  1  0
 26 25  2  0
 27 25  1  0
M  END
$$$$
