VHQ.pdb
     RDKit          3D

 27 27  0  0  1  0  0  0  0  0999 V2000
    8.5482  -12.8430   20.9759 C   0  0  0  0  0  0  0  0  0  0  0  0
    7.7998  -13.1037   19.6922 C   0  0  1  0  0  0  0  0  0  0  0  0
    7.6402  -11.8452   18.8793 C   0  0  0  0  0  0  0  0  0  0  0  0
    8.4705  -14.1804   18.8501 C   0  0  2  0  0  0  0  0  0  0  0  0
    7.7531  -14.2690   17.6099 N   0  0  0  0  0  0  0  0  0  0  0  0
    8.4491  -15.4930   19.5653 C   0  0  0  0  0  0  0  0  0  0  0  0
    7.3809  -16.0613   19.8006 O   0  0  0  0  0  0  0  0  0  0  0  0
    9.6570  -16.0860   19.9739 N   0  0  0  0  0  0  0  0  0  0  0  0
    9.8807  -17.2775   20.6980 C   0  0  1  0  0  0  0  0  0  0  0  0
   10.3250  -18.5022   19.9317 C   0  0  0  0  0  0  0  0  0  0  0  0
   10.4035  -19.7212   20.7636 C   0  0  0  0  0  0  0  0  0  0  0  0
    9.2947  -20.5953   20.8845 C   0  0  0  0  0  0  0  0  0  0  0  0
    9.6141  -21.6239   21.6871 N   0  0  0  0  0  0  0  0  0  0  0  0
   10.8749  -21.4432   22.0814 C   0  0  0  0  0  0  0  0  0  0  0  0
   11.3204  -20.3058   21.5187 N   0  0  0  0  0  0  0  0  0  0  0  0
   10.5090  -17.1240   22.0238 C   0  0  0  0  0  0  0  0  0  0  0  0
   11.6032  -16.4667   22.1654 O   0  0  0  0  0  0  0  0  0  0  0  0
    8.5996  -19.0465   27.8955 N   0  0  0  0  0  0  0  0  0  0  0  0
    9.8922  -18.4897   28.0781 C   0  0  0  0  0  0  0  0  0  0  0  0
   10.3995  -18.4948   29.2158 O   0  0  0  0  0  0  0  0  0  0  0  0
   10.5828  -17.9272   26.9204 C   0  0  0  0  0  0  0  0  0  0  0  0
    9.8646  -18.0405   25.6112 C   0  0  0  0  0  0  0  0  0  0  0  0
   10.6889  -17.5434   24.4833 C   0  0  2  0  0  0  0  0  0  0  0  0
    9.9732  -17.6710   23.2099 N   0  0  0  0  0  0  0  0  0  0  0  0
   11.9495  -18.2937   24.3606 C   0  0  0  0  0  0  0  0  0  0  0  0
   12.0409  -19.3423   23.6693 O   0  0  0  0  0  0  0  0  0  0  0  0
   13.0856  -17.8651   25.0040 O   0  0  0  0  0  0  0  0  0  0  0  0
  2  1  1  1
  3  2  1  0
  4  2  1  0
  4  5  1  6
  6  4  1  0
  7  6  2  0
  8  6  1  0
  9  8  1  0
 10 11  1  0
  9 10  1  6
 11 15  1  0
 12 13  1  0
 12 11  2  0
 13 14  1  0
 14 15  2  0
 16 24  1  0
 16  9  1  0
 17 16  2  0
 19 18  1  0
 20 19  2  0
 21 19  1  0
 22 21  1  0
 23 24  1  0
 23 22  1  1
 25 23  1  0
 26 25  2  0
 27 25  1  0
M  END
$$$$
