VHQ.pdb
     RDKit          3D

 27 27  0  0  1  0  0  0  0  0999 V2000
    7.8975  -12.1108   19.2411 C   0  0  0  0  0  0  0  0  0  0  0  0
    8.2859  -13.3426   20.0210 C   0  0  1  0  0  0  0  0  0  0  0  0
    7.2698  -13.6670   21.0852 C   0  0  0  0  0  0  0  0  0  0  0  0
    8.4882  -14.5500   19.1156 C   0  0  2  0  0  0  0  0  0  0  0  0
    7.2432  -14.8030   18.4473 N   0  0  0  0  0  0  0  0  0  0  0  0
    8.9065  -15.7406   19.9171 C   0  0  0  0  0  0  0  0  0  0  0  0
    8.0658  -16.4416   20.4838 O   0  0  0  0  0  0  0  0  0  0  0  0
   10.2705  -16.0651   20.0266 N   0  0  0  0  0  0  0  0  0  0  0  0
   10.9013  -17.0831   20.7747 C   0  0  1  0  0  0  0  0  0  0  0  0
   11.5554  -18.2180   20.0206 C   0  0  0  0  0  0  0  0  0  0  0  0
   11.1808  -18.2689   18.5918 C   0  0  0  0  0  0  0  0  0  0  0  0
    9.8220  -18.3358   18.1952 C   0  0  0  0  0  0  0  0  0  0  0  0
    9.7425  -18.3700   16.8548 N   0  0  0  0  0  0  0  0  0  0  0  0
   10.9884  -18.3278   16.3820 C   0  0  0  0  0  0  0  0  0  0  0  0
   11.8235  -18.2682   17.4345 N   0  0  0  0  0  0  0  0  0  0  0  0
   11.6334  -16.6463   21.9785 C   0  0  0  0  0  0  0  0  0  0  0  0
   12.1993  -15.4944   22.0272 O   0  0  0  0  0  0  0  0  0  0  0  0
   10.1601  -17.5205   27.9198 N   0  0  0  0  0  0  0  0  0  0  0  0
   10.7196  -16.2385   27.6801 C   0  0  0  0  0  0  0  0  0  0  0  0
   10.5613  -15.3396   28.5277 O   0  0  0  0  0  0  0  0  0  0  0  0
   11.4626  -16.0186   26.4417 C   0  0  0  0  0  0  0  0  0  0  0  0
   11.6332  -17.2166   25.5594 C   0  0  0  0  0  0  0  0  0  0  0  0
   12.4162  -16.8991   24.3409 C   0  0  2  0  0  0  0  0  0  0  0  0
   11.7666  -17.4362   23.1411 N   0  0  0  0  0  0  0  0  0  0  0  0
   13.7722  -17.4686   24.4036 C   0  0  0  0  0  0  0  0  0  0  0  0
   14.0604  -18.5737   23.8729 O   0  0  0  0  0  0  0  0  0  0  0  0
   14.7838  -16.8002   25.0506 O   0  0  0  0  0  0  0  0  0  0  0  0
  2  1  1  6
  3  2  1  0
  4  2  1  0
  4  5  1  1
  6  4  1  0
  7  6  2  0
  8  6  1  0
  9  8  1  0
 10 11  1  0
  9 10  1  6
 11 15  1  0
 12 13  1  0
 12 11  2  0
 13 14  1  0
 14 15  2  0
 16 24  1  0
 16  9  1  0
 17 16  2  0
 19 18  1  0
 20 19  2  0
 21 19  1  0
 22 21  1  0
 23 24  1  0
 23 22  1  1
 25 23  1  0
 26 25  2  0
 27 25  1  0
M  END
$$$$
