VHQ.pdb
     RDKit          3D

 27 27  0  0  1  0  0  0  0  0999 V2000
    8.4373  -12.4030   18.7744 C   0  0  0  0  0  0  0  0  0  0  0  0
    8.2730  -13.8605   18.4210 C   0  0  1  0  0  0  0  0  0  0  0  0
    8.2901  -14.0736   16.9295 C   0  0  0  0  0  0  0  0  0  0  0  0
    9.3363  -14.7297   19.0786 C   0  0  2  0  0  0  0  0  0  0  0  0
    9.0498  -16.0947   18.7391 N   0  0  0  0  0  0  0  0  0  0  0  0
    9.3214  -14.5422   20.5617 C   0  0  0  0  0  0  0  0  0  0  0  0
    9.9722  -13.6359   21.0856 O   0  0  0  0  0  0  0  0  0  0  0  0
    8.5590  -15.4064   21.3677 N   0  0  0  0  0  0  0  0  0  0  0  0
    8.1765  -15.2793   22.7211 C   0  0  1  0  0  0  0  0  0  0  0  0
    6.7144  -15.4478   23.0652 C   0  0  0  0  0  0  0  0  0  0  0  0
    6.3794  -15.0185   24.4392 C   0  0  0  0  0  0  0  0  0  0  0  0
    6.0558  -15.9663   25.4417 C   0  0  0  0  0  0  0  0  0  0  0  0
    5.7937  -15.3325   26.5966 N   0  0  0  0  0  0  0  0  0  0  0  0
    5.9360  -14.0257   26.3735 C   0  0  0  0  0  0  0  0  0  0  0  0
    6.2842  -13.8665   25.0842 N   0  0  0  0  0  0  0  0  0  0  0  0
    9.1081  -15.8440   23.7156 C   0  0  0  0  0  0  0  0  0  0  0  0
    9.7157  -16.9544   23.4975 O   0  0  0  0  0  0  0  0  0  0  0  0
   11.0323  -13.6410   29.4947 N   0  0  0  0  0  0  0  0  0  0  0  0
   11.5261  -14.9682   29.4011 C   0  0  0  0  0  0  0  0  0  0  0  0
   12.1142  -15.4669   30.3794 O   0  0  0  0  0  0  0  0  0  0  0  0
   11.3270  -15.7037   28.1548 C   0  0  0  0  0  0  0  0  0  0  0  0
   10.4108  -15.0649   27.1572 C   0  0  0  0  0  0  0  0  0  0  0  0
   10.2812  -15.8790   25.9246 C   0  0  2  0  0  0  0  0  0  0  0  0
    9.3993  -15.2269   24.9515 N   0  0  0  0  0  0  0  0  0  0  0  0
    9.7199  -17.2097   26.2099 C   0  0  0  0  0  0  0  0  0  0  0  0
    8.4788  -17.4187   26.2522 O   0  0  0  0  0  0  0  0  0  0  0  0
   10.5455  -18.2840   26.4394 O   0  0  0  0  0  0  0  0  0  0  0  0
  2  1  1  6
  3  2  1  0
  4  2  1  0
  4  5  1  1
  6  4  1  0
  7  6  2  0
  8  6  1  0
  9  8  1  0
 10 11  1  0
  9 10  1  6
 11 15  1  0
 12 13  1  0
 12 11  2  0
 13 14  1  0
 14 15  2  0
 16 24  1  0
 16  9  1  0
 17 16  2  0
 19 18  1  0
 20 19  2  0
 21 19  1  0
 22 21  1  0
 23 24  1  0
 23 22  1  1
 25 23  1  0
 26 25  2  0
 27 25  1  0
M  END
$$$$
