VHQ.pdb
     RDKit          3D

 27 27  0  0  1  0  0  0  0  0999 V2000
    8.2262  -13.8138   17.8009 C   0  0  0  0  0  0  0  0  0  0  0  0
    8.4202  -13.5486   19.2733 C   0  0  1  0  0  0  0  0  0  0  0  0
    7.1149  -13.2288   19.9547 C   0  0  0  0  0  0  0  0  0  0  0  0
    9.0978  -14.7158   19.9782 C   0  0  2  0  0  0  0  0  0  0  0  0
    8.3367  -15.8976   19.6873 N   0  0  0  0  0  0  0  0  0  0  0  0
    9.1533  -14.4756   21.4527 C   0  0  0  0  0  0  0  0  0  0  0  0
    9.8059  -13.5354   21.9105 O   0  0  0  0  0  0  0  0  0  0  0  0
    8.4557  -15.3285   22.3265 N   0  0  0  0  0  0  0  0  0  0  0  0
    8.3411  -15.2857   23.7333 C   0  0  1  0  0  0  0  0  0  0  0  0
    6.9642  -15.4335   24.3391 C   0  0  0  0  0  0  0  0  0  0  0  0
    6.4506  -14.1874   24.9453 C   0  0  0  0  0  0  0  0  0  0  0  0
    7.2099  -12.9914   24.9103 C   0  0  0  0  0  0  0  0  0  0  0  0
    6.5316  -12.0061   25.5211 N   0  0  0  0  0  0  0  0  0  0  0  0
    5.3764  -12.5213   25.9425 C   0  0  0  0  0  0  0  0  0  0  0  0
    5.3535  -13.8184   25.5877 N   0  0  0  0  0  0  0  0  0  0  0  0
    9.4182  -15.9473   24.4936 C   0  0  0  0  0  0  0  0  0  0  0  0
    9.9987  -16.9993   24.0397 O   0  0  0  0  0  0  0  0  0  0  0  0
   11.2033  -15.0239   30.6251 N   0  0  0  0  0  0  0  0  0  0  0  0
   11.6795  -16.3126   30.2696 C   0  0  0  0  0  0  0  0  0  0  0  0
   12.2240  -17.0192   31.1391 O   0  0  0  0  0  0  0  0  0  0  0  0
   11.5144  -16.7648   28.8904 C   0  0  0  0  0  0  0  0  0  0  0  0
   10.8108  -15.8156   27.9703 C   0  0  0  0  0  0  0  0  0  0  0  0
   10.7273  -16.3450   26.5878 C   0  0  2  0  0  0  0  0  0  0  0  0
    9.8850  -15.4902   25.7451 N   0  0  0  0  0  0  0  0  0  0  0  0
   10.1525  -17.7000   26.5595 C   0  0  0  0  0  0  0  0  0  0  0  0
   10.8665  -18.7283   26.4224 O   0  0  0  0  0  0  0  0  0  0  0  0
    8.7974  -17.8892   26.6871 O   0  0  0  0  0  0  0  0  0  0  0  0
  2  1  1  6
  3  2  1  0
  4  2  1  0
  4  5  1  1
  6  4  1  0
  7  6  2  0
  8  6  1  0
  9  8  1  0
 10 11  1  0
  9 10  1  6
 11 15  1  0
 12 13  1  0
 12 11  2  0
 13 14  1  0
 14 15  2  0
 16 24  1  0
 16  9  1  0
 17 16  2  0
 19 18  1  0
 20 19  2  0
 21 19  1  0
 22 21  1  0
 23 24  1  0
 23 22  1  1
 25 23  1  0
 26 25  2  0
 27 25  1  0
M  END
$$$$
