AGC.pdb
     RDKit          3D

 16 15  0  0  1  0  0  0  0  0999 V2000
   25.5502  -20.5864  -11.1281 C   0  0  0  0  0  0  0  0  0  0  0  0
   24.9419  -21.6362  -12.0571 C   0  0  2  0  0  0  0  0  0  0  0  0
   25.9038  -22.6875  -12.1842 N   0  0  0  0  0  0  0  0  0  0  0  0
   24.6750  -21.0095  -13.3820 C   0  0  0  0  0  0  0  0  0  0  0  0
   25.6412  -20.9413  -14.2128 O   0  0  0  0  0  0  0  0  0  0  0  0
   23.3993  -20.4941  -13.7432 N   0  0  0  0  0  0  0  0  0  0  0  0
   23.2485  -19.9578  -15.0686 C   0  0  0  0  0  0  0  0  0  0  0  0
   23.9276  -18.6562  -15.2390 C   0  0  0  0  0  0  0  0  0  0  0  0
   23.5716  -17.6126  -14.6220 O   0  0  0  0  0  0  0  0  0  0  0  0
   25.0296  -18.5517  -16.1296 N   0  0  0  0  0  0  0  0  0  0  0  0
   25.7139  -17.3147  -16.4227 C   0  0  1  0  0  0  0  0  0  0  0  0
   26.5180  -16.9614  -15.1705 C   0  0  0  0  0  0  0  0  0  0  0  0
   27.4885  -18.4600  -14.7681 S   0  0  0  0  0  0  0  0  0  0  0  0
   26.5776  -17.4177  -17.6172 C   0  0  0  0  0  0  0  0  0  0  0  0
   26.6559  -18.4983  -18.2243 O   0  0  0  0  0  0  0  0  0  0  0  0
   27.2982  -16.3313  -18.0680 O   0  0  0  0  0  0  0  0  0  0  0  0
  2  1  1  1
  2  3  1  0
  4  2  1  0
  4  5  2  0
  6  4  1  0
  7  6  1  0
  8  7  1  0
  9  8  2  0
 10  8  1  0
 11 12  1  1
 11 10  1  0
 12 13  1  0
 14 11  1  0
 15 14  2  0
 16 14  1  0
M  END
$$$$
