AGC.pdb
     RDKit          3D

 16 15  0  0  1  0  0  0  0  0999 V2000
   26.5752  -18.8067  -17.1646 C   0  0  0  0  0  0  0  0  0  0  0  0
   25.7986  -19.3512  -15.9665 C   0  0  2  0  0  0  0  0  0  0  0  0
   25.0771  -18.2517  -15.4032 N   0  0  0  0  0  0  0  0  0  0  0  0
   26.7656  -19.9032  -14.9768 C   0  0  0  0  0  0  0  0  0  0  0  0
   27.3409  -21.0066  -15.2598 O   0  0  0  0  0  0  0  0  0  0  0  0
   27.0621  -19.2503  -13.7484 N   0  0  0  0  0  0  0  0  0  0  0  0
   27.9272  -19.9315  -12.8239 C   0  0  0  0  0  0  0  0  0  0  0  0
   27.1920  -20.8296  -11.9089 C   0  0  0  0  0  0  0  0  0  0  0  0
   27.1609  -22.0838  -12.0596 O   0  0  0  0  0  0  0  0  0  0  0  0
   26.4836  -20.2805  -10.8067 N   0  0  0  0  0  0  0  0  0  0  0  0
   25.4823  -20.9985  -10.0542 C   0  0  1  0  0  0  0  0  0  0  0  0
   25.3672  -20.2877   -8.7048 C   0  0  0  0  0  0  0  0  0  0  0  0
   27.0364  -19.6251   -8.3521 S   0  0  0  0  0  0  0  0  0  0  0  0
   24.1832  -21.0555  -10.7558 C   0  0  0  0  0  0  0  0  0  0  0  0
   24.0188  -20.3936  -11.7938 O   0  0  0  0  0  0  0  0  0  0  0  0
   23.1501  -21.8329  -10.2750 O   0  0  0  0  0  0  0  0  0  0  0  0
  2  1  1  6
  2  3  1  0
  4  2  1  0
  4  5  2  0
  6  4  1  0
  7  6  1  0
  8  7  1  0
  9  8  2  0
 10  8  1  0
 11 12  1  1
 11 10  1  0
 12 13  1  0
 14 11  1  0
 15 14  2  0
 16 14  1  0
M  END
$$$$
