AGC.pdb
     RDKit          3D

 16 15  0  0  1  0  0  0  0  0999 V2000
   19.6010   -9.6509  -16.1682 C   0  0  0  0  0  0  0  0  0  0  0  0
   18.8531  -10.1794  -14.9450 C   0  0  2  0  0  0  0  0  0  0  0  0
   17.5354  -10.5268  -15.3803 N   0  0  0  0  0  0  0  0  0  0  0  0
   18.7964   -9.1051  -13.9144 C   0  0  0  0  0  0  0  0  0  0  0  0
   19.8843   -8.7849  -13.3292 O   0  0  0  0  0  0  0  0  0  0  0  0
   17.5890   -8.4373  -13.5688 N   0  0  0  0  0  0  0  0  0  0  0  0
   17.6752   -7.3438  -12.6393 C   0  0  0  0  0  0  0  0  0  0  0  0
   16.6535   -7.4174  -11.5739 C   0  0  0  0  0  0  0  0  0  0  0  0
   15.7905   -8.3385  -11.5158 O   0  0  0  0  0  0  0  0  0  0  0  0
   16.6224   -6.4204  -10.5623 N   0  0  0  0  0  0  0  0  0  0  0  0
   15.6001   -6.3351   -9.5465 C   0  0  1  0  0  0  0  0  0  0  0  0
   15.8402   -7.5090   -8.5956 C   0  0  0  0  0  0  0  0  0  0  0  0
   14.5227   -7.3966   -7.3303 S   0  0  0  0  0  0  0  0  0  0  0  0
   15.6197   -5.0406   -8.8343 C   0  0  0  0  0  0  0  0  0  0  0  0
   14.5774   -4.6147   -8.3102 O   0  0  0  0  0  0  0  0  0  0  0  0
   16.7787   -4.2981   -8.7430 O   0  0  0  0  0  0  0  0  0  0  0  0
  2  1  1  6
  2  3  1  0
  4  2  1  0
  4  5  2  0
  6  4  1  0
  7  6  1  0
  8  7  1  0
  9  8  2  0
 10  8  1  0
 11 12  1  1
 11 10  1  0
 12 13  1  0
 14 11  1  0
 15 14  2  0
 16 14  1  0
M  END
$$$$
