AGC.pdb
     RDKit          3D

 16 15  0  0  1  0  0  0  0  0999 V2000
   26.8478   -8.7053  -19.8333 C   0  0  0  0  0  0  0  0  0  0  0  0
   27.6537   -9.9920  -19.6601 C   0  0  2  0  0  0  0  0  0  0  0  0
   27.1472  -10.6471  -18.4935 N   0  0  0  0  0  0  0  0  0  0  0  0
   29.0899   -9.6396  -19.4792 C   0  0  0  0  0  0  0  0  0  0  0  0
   29.7020   -9.1142  -20.4680 O   0  0  0  0  0  0  0  0  0  0  0  0
   29.7872   -9.8666  -18.2604 N   0  0  0  0  0  0  0  0  0  0  0  0
   31.1752   -9.4955  -18.2082 C   0  0  0  0  0  0  0  0  0  0  0  0
   31.4007   -8.2267  -17.4845 C   0  0  0  0  0  0  0  0  0  0  0  0
   30.4607   -7.4461  -17.1625 O   0  0  0  0  0  0  0  0  0  0  0  0
   32.7226   -7.8494  -17.1260 N   0  0  0  0  0  0  0  0  0  0  0  0
   33.0415   -6.6840  -16.3358 C   0  0  1  0  0  0  0  0  0  0  0  0
   34.4720   -6.8842  -15.8327 C   0  0  0  0  0  0  0  0  0  0  0  0
   34.4107   -8.3529  -14.7424 S   0  0  0  0  0  0  0  0  0  0  0  0
   32.9009   -5.4281  -17.1015 C   0  0  0  0  0  0  0  0  0  0  0  0
   33.1475   -5.4228  -18.3187 O   0  0  0  0  0  0  0  0  0  0  0  0
   32.4999   -4.2614  -16.4844 O   0  0  0  0  0  0  0  0  0  0  0  0
  2  1  1  1
  2  3  1  0
  4  2  1  0
  4  5  2  0
  6  4  1  0
  7  6  1  0
  8  7  1  0
  9  8  2  0
 10  8  1  0
 11 12  1  6
 11 10  1  0
 12 13  1  0
 14 11  1  0
 15 14  2  0
 16 14  1  0
M  END
$$$$
