AGC.pdb
     RDKit          3D

 16 15  0  0  1  0  0  0  0  0999 V2000
   18.2734  -12.0397  -14.7716 C   0  0  0  0  0  0  0  0  0  0  0  0
   17.1728  -10.9983  -14.5732 C   0  0  2  0  0  0  0  0  0  0  0  0
   17.3740   -9.9856  -15.5635 N   0  0  0  0  0  0  0  0  0  0  0  0
   17.2963  -10.4225  -13.2048 C   0  0  0  0  0  0  0  0  0  0  0  0
   16.7555  -11.0601  -12.2407 O   0  0  0  0  0  0  0  0  0  0  0  0
   17.9859   -9.2060  -12.9443 N   0  0  0  0  0  0  0  0  0  0  0  0
   17.9650   -8.7038  -11.5973 C   0  0  0  0  0  0  0  0  0  0  0  0
   16.7918   -7.8471  -11.3249 C   0  0  0  0  0  0  0  0  0  0  0  0
   15.9090   -7.5990  -12.1942 O   0  0  0  0  0  0  0  0  0  0  0  0
   16.6303   -7.2680  -10.0377 N   0  0  0  0  0  0  0  0  0  0  0  0
   15.6031   -6.3081   -9.7093 C   0  0  1  0  0  0  0  0  0  0  0  0
   15.4661   -6.3297   -8.1860 C   0  0  0  0  0  0  0  0  0  0  0  0
   14.9787   -8.0412   -7.7586 S   0  0  0  0  0  0  0  0  0  0  0  0
   15.9155   -4.9542  -10.2119 C   0  0  0  0  0  0  0  0  0  0  0  0
   17.0886   -4.6630  -10.4974 O   0  0  0  0  0  0  0  0  0  0  0  0
   14.9234   -4.0087  -10.3689 O   0  0  0  0  0  0  0  0  0  0  0  0
  2  1  1  6
  2  3  1  0
  4  2  1  0
  4  5  2  0
  6  4  1  0
  7  6  1  0
  8  7  1  0
  9  8  2  0
 10  8  1  0
 11 12  1  1
 11 10  1  0
 12 13  1  0
 14 11  1  0
 15 14  2  0
 16 14  1  0
M  END
$$$$
