AGC.pdb
     RDKit          3D

 16 15  0  0  1  0  0  0  0  0999 V2000
   17.7009  -10.2895  -18.9754 C   0  0  0  0  0  0  0  0  0  0  0  0
   18.1947   -8.9033  -18.5633 C   0  0  2  0  0  0  0  0  0  0  0  0
   19.6045   -8.8745  -18.8046 N   0  0  0  0  0  0  0  0  0  0  0  0
   17.9084   -8.7013  -17.1153 C   0  0  0  0  0  0  0  0  0  0  0  0
   16.6883   -8.5791  -16.7621 O   0  0  0  0  0  0  0  0  0  0  0  0
   18.9346   -8.6416  -16.1321 N   0  0  0  0  0  0  0  0  0  0  0  0
   18.5432   -8.3634  -14.7769 C   0  0  0  0  0  0  0  0  0  0  0  0
   19.4565   -7.4184  -14.1008 C   0  0  0  0  0  0  0  0  0  0  0  0
   19.2994   -7.0547  -12.9010 O   0  0  0  0  0  0  0  0  0  0  0  0
   20.5646   -6.8844  -14.8116 N   0  0  0  0  0  0  0  0  0  0  0  0
   21.5320   -5.9811  -14.2349 C   0  0  1  0  0  0  0  0  0  0  0  0
   22.8698   -6.2996  -14.9044 C   0  0  0  0  0  0  0  0  0  0  0  0
   23.2983   -7.9962  -14.3684 S   0  0  0  0  0  0  0  0  0  0  0  0
   21.1548   -4.5634  -14.4118 C   0  0  0  0  0  0  0  0  0  0  0  0
   20.2394   -4.2672  -15.1971 O   0  0  0  0  0  0  0  0  0  0  0  0
   21.8045   -3.5640  -13.7176 O   0  0  0  0  0  0  0  0  0  0  0  0
  2  1  1  1
  2  3  1  0
  4  2  1  0
  4  5  2  0
  6  4  1  0
  7  6  1  0
  8  7  1  0
  9  8  2  0
 10  8  1  0
 11 12  1  6
 11 10  1  0
 12 13  1  0
 14 11  1  0
 15 14  2  0
 16 14  1  0
M  END
$$$$
