AGC.pdb
     RDKit          3D

 16 15  0  0  1  0  0  0  0  0999 V2000
   15.9746  -14.1775  -12.9932 C   0  0  0  0  0  0  0  0  0  0  0  0
   15.0307  -13.0420  -12.5997 C   0  0  2  0  0  0  0  0  0  0  0  0
   14.5780  -12.4366  -13.8142 N   0  0  0  0  0  0  0  0  0  0  0  0
   15.7821  -12.0563  -11.7731 C   0  0  0  0  0  0  0  0  0  0  0  0
   16.0717  -12.3840  -10.5743 O   0  0  0  0  0  0  0  0  0  0  0  0
   16.1796  -10.7841  -12.2699 N   0  0  0  0  0  0  0  0  0  0  0  0
   16.8927   -9.9130  -11.3757 C   0  0  0  0  0  0  0  0  0  0  0  0
   16.1780   -8.6443  -11.1228 C   0  0  0  0  0  0  0  0  0  0  0  0
   15.3468   -8.1528  -11.9377 O   0  0  0  0  0  0  0  0  0  0  0  0
   16.4209   -7.9308   -9.9185 N   0  0  0  0  0  0  0  0  0  0  0  0
   15.7475   -6.7057   -9.5582 C   0  0  1  0  0  0  0  0  0  0  0  0
   15.8359   -6.5988   -8.0349 C   0  0  0  0  0  0  0  0  0  0  0  0
   14.8818   -8.0187   -7.3844 S   0  0  0  0  0  0  0  0  0  0  0  0
   16.3324   -5.5239  -10.2250 C   0  0  0  0  0  0  0  0  0  0  0  0
   17.4851   -5.5877  -10.6829 O   0  0  0  0  0  0  0  0  0  0  0  0
   15.6171   -4.3507  -10.3463 O   0  0  0  0  0  0  0  0  0  0  0  0
  2  1  1  6
  2  3  1  0
  4  2  1  0
  4  5  2  0
  6  4  1  0
  7  6  1  0
  8  7  1  0
  9  8  2  0
 10  8  1  0
 11 12  1  1
 11 10  1  0
 12 13  1  0
 14 11  1  0
 15 14  2  0
 16 14  1  0
M  END
$$$$
