AGC.pdb
     RDKit          3D

 16 15  0  0  1  0  0  0  0  0999 V2000
   16.1538  -11.6018  -17.1335 C   0  0  0  0  0  0  0  0  0  0  0  0
   17.5766  -11.3625  -16.6300 C   0  0  2  0  0  0  0  0  0  0  0  0
   17.7915  -12.2670  -15.5427 N   0  0  0  0  0  0  0  0  0  0  0  0
   17.6919   -9.9514  -16.1662 C   0  0  0  0  0  0  0  0  0  0  0  0
   16.9352   -9.5765  -15.2095 O   0  0  0  0  0  0  0  0  0  0  0  0
   18.6029   -9.0258  -16.7464 N   0  0  0  0  0  0  0  0  0  0  0  0
   18.6963   -7.7207  -16.1505 C   0  0  0  0  0  0  0  0  0  0  0  0
   19.7377   -7.6432  -15.1046 C   0  0  0  0  0  0  0  0  0  0  0  0
   20.0972   -8.6434  -14.4214 O   0  0  0  0  0  0  0  0  0  0  0  0
   20.3742   -6.4010  -14.8398 N   0  0  0  0  0  0  0  0  0  0  0  0
   21.5281   -6.2532  -13.9849 C   0  0  1  0  0  0  0  0  0  0  0  0
   22.6541   -7.0543  -14.6406 C   0  0  0  0  0  0  0  0  0  0  0  0
   22.5663   -8.7259  -13.9006 S   0  0  0  0  0  0  0  0  0  0  0  0
   21.9058   -4.8384  -13.7873 C   0  0  0  0  0  0  0  0  0  0  0  0
   21.5673   -3.9913  -14.6300 O   0  0  0  0  0  0  0  0  0  0  0  0
   22.6287   -4.4445  -12.6804 O   0  0  0  0  0  0  0  0  0  0  0  0
  2  1  1  1
  2  3  1  0
  4  2  1  0
  4  5  2  0
  6  4  1  0
  7  6  1  0
  8  7  1  0
  9  8  2  0
 10  8  1  0
 11 12  1  6
 11 10  1  0
 12 13  1  0
 14 11  1  0
 15 14  2  0
 16 14  1  0
M  END
$$$$
