AGC.pdb
     RDKit          3D

 16 15  0  0  1  0  0  0  0  0999 V2000
   23.3001  -18.7042  -17.6293 C   0  0  0  0  0  0  0  0  0  0  0  0
   23.4601  -19.1330  -16.1714 C   0  0  2  0  0  0  0  0  0  0  0  0
   22.8339  -18.1269  -15.3701 N   0  0  0  0  0  0  0  0  0  0  0  0
   24.9126  -19.2250  -15.8535 C   0  0  0  0  0  0  0  0  0  0  0  0
   25.5508  -20.2449  -16.2789 O   0  0  0  0  0  0  0  0  0  0  0  0
   25.5978  -18.2290  -15.1039 N   0  0  0  0  0  0  0  0  0  0  0  0
   26.9921  -18.4449  -14.8276 C   0  0  0  0  0  0  0  0  0  0  0  0
   27.2173  -19.1831  -13.5671 C   0  0  0  0  0  0  0  0  0  0  0  0
   28.3564  -19.5987  -13.2116 O   0  0  0  0  0  0  0  0  0  0  0  0
   26.1204  -19.4474  -12.7039 N   0  0  0  0  0  0  0  0  0  0  0  0
   26.2011  -20.2880  -11.5329 C   0  0  1  0  0  0  0  0  0  0  0  0
   25.1677  -19.7469  -10.5435 C   0  0  0  0  0  0  0  0  0  0  0  0
   25.2978  -20.8131   -9.0617 S   0  0  0  0  0  0  0  0  0  0  0  0
   25.9669  -21.7131  -11.8449 C   0  0  0  0  0  0  0  0  0  0  0  0
   25.2276  -22.0180  -12.7951 O   0  0  0  0  0  0  0  0  0  0  0  0
   26.5573  -22.7101  -11.0963 O   0  0  0  0  0  0  0  0  0  0  0  0
  2  1  1  6
  2  3  1  0
  4  2  1  0
  4  5  2  0
  6  4  1  0
  7  6  1  0
  8  7  1  0
  9  8  2  0
 10  8  1  0
 11 12  1  1
 11 10  1  0
 12 13  1  0
 14 11  1  0
 15 14  2  0
 16 14  1  0
M  END
$$$$
