AGC.pdb
     RDKit          3D

 16 15  0  0  1  0  0  0  0  0999 V2000
   18.8146  -11.4899  -18.6372 C   0  0  0  0  0  0  0  0  0  0  0  0
   18.0444  -10.3096  -18.0467 C   0  0  2  0  0  0  0  0  0  0  0  0
   18.5996   -9.1217  -18.6188 N   0  0  0  0  0  0  0  0  0  0  0  0
   18.2231  -10.3098  -16.5677 C   0  0  0  0  0  0  0  0  0  0  0  0
   17.7590  -11.3021  -15.9131 O   0  0  0  0  0  0  0  0  0  0  0  0
   18.8832   -9.2572  -15.8752 N   0  0  0  0  0  0  0  0  0  0  0  0
   18.8817   -9.3016  -14.4381 C   0  0  0  0  0  0  0  0  0  0  0  0
   19.5982   -8.1608  -13.8303 C   0  0  0  0  0  0  0  0  0  0  0  0
   19.7213   -8.0171  -12.5810 O   0  0  0  0  0  0  0  0  0  0  0  0
   20.1807   -7.1721  -14.6680 N   0  0  0  0  0  0  0  0  0  0  0  0
   20.9863   -6.0772  -14.1817 C   0  0  1  0  0  0  0  0  0  0  0  0
   22.4438   -6.4835  -14.4058 C   0  0  0  0  0  0  0  0  0  0  0  0
   22.6387   -6.6420  -16.2187 S   0  0  0  0  0  0  0  0  0  0  0  0
   20.6646   -4.8000  -14.8513 C   0  0  0  0  0  0  0  0  0  0  0  0
   19.8776   -4.7940  -15.8121 O   0  0  0  0  0  0  0  0  0  0  0  0
   21.2255   -3.6139  -14.4251 O   0  0  0  0  0  0  0  0  0  0  0  0
  2  1  1  6
  2  3  1  0
  4  2  1  0
  4  5  2  0
  6  4  1  0
  7  6  1  0
  8  7  1  0
  9  8  2  0
 10  8  1  0
 11 12  1  6
 11 10  1  0
 12 13  1  0
 14 11  1  0
 15 14  2  0
 16 14  1  0
M  END
$$$$
