AGC.pdb
     RDKit          3D

 16 15  0  0  1  0  0  0  0  0999 V2000
   13.4636  -10.1281   -8.3579 C   0  0  0  0  0  0  0  0  0  0  0  0
   13.9759   -9.2487   -9.4977 C   0  0  2  0  0  0  0  0  0  0  0  0
   13.5187   -9.8395  -10.7177 N   0  0  0  0  0  0  0  0  0  0  0  0
   15.4649   -9.2246   -9.4550 C   0  0  0  0  0  0  0  0  0  0  0  0
   16.0223   -8.8436   -8.3721 O   0  0  0  0  0  0  0  0  0  0  0  0
   16.2699   -9.6064  -10.5638 N   0  0  0  0  0  0  0  0  0  0  0  0
   17.6779   -9.3246  -10.4930 C   0  0  0  0  0  0  0  0  0  0  0  0
   18.0247   -8.0011  -11.0521 C   0  0  0  0  0  0  0  0  0  0  0  0
   17.6543   -7.6247  -12.2000 O   0  0  0  0  0  0  0  0  0  0  0  0
   18.8069   -7.0983  -10.2830 N   0  0  0  0  0  0  0  0  0  0  0  0
   19.0875   -5.7380  -10.6771 C   0  0  1  0  0  0  0  0  0  0  0  0
   19.3242   -4.9562   -9.3840 C   0  0  0  0  0  0  0  0  0  0  0  0
   19.6259   -3.2267   -9.9012 S   0  0  0  0  0  0  0  0  0  0  0  0
   20.2428   -5.6436  -11.5934 C   0  0  0  0  0  0  0  0  0  0  0  0
   21.2744   -6.2893  -11.3460 O   0  0  0  0  0  0  0  0  0  0  0  0
   20.1925   -4.8489  -12.7198 O   0  0  0  0  0  0  0  0  0  0  0  0
  2  1  1  1
  2  3  1  0
  4  2  1  0
  4  5  2  0
  6  4  1  0
  7  6  1  0
  8  7  1  0
  9  8  2  0
 10  8  1  0
 11 12  1  1
 11 10  1  0
 12 13  1  0
 14 11  1  0
 15 14  2  0
 16 14  1  0
M  END
$$$$
