IND.pdb
     RDKit          3D

 25 24  0  0  1  0  0  0  0  0999 V2000
   23.9096  -14.2058  -15.7785 C   0  0  0  0  0  0  0  0  0  0  0  0
   24.3733  -12.7843  -15.3693 C   0  0  0  0  0  0  0  0  0  0  0  0
   23.3680  -11.8432  -15.9477 C   0  0  2  0  0  0  0  0  0  0  0  0
   23.2470  -12.1625  -17.4319 C   0  0  0  0  0  0  0  0  0  0  0  0
   23.5188  -10.4048  -15.6737 C   0  0  2  0  0  0  0  0  0  0  0  0
   23.6383  -10.2751  -14.1854 N   0  0  0  0  0  0  0  0  0  0  0  0
   22.4945   -9.4681  -16.0993 C   0  0  0  0  0  0  0  0  0  0  0  0
   22.5027   -9.0655  -17.3323 O   0  0  0  0  0  0  0  0  0  0  0  0
   16.7211   -8.7755  -16.0752 N   0  0  0  0  0  0  0  0  0  0  0  0
   17.9646   -8.2129  -16.5140 C   0  0  0  0  0  0  0  0  0  0  0  0
   17.8670   -7.2370  -17.2779 O   0  0  0  0  0  0  0  0  0  0  0  0
   19.1741   -8.8542  -16.0108 C   0  0  0  0  0  0  0  0  0  0  0  0
   20.4191   -8.0331  -15.9707 C   0  0  2  0  0  0  0  0  0  0  0  0
   21.4409   -8.9043  -15.3535 N   0  0  0  0  0  0  0  0  0  0  0  0
   20.3169   -6.7536  -15.2664 C   0  0  0  0  0  0  0  0  0  0  0  0
   20.3504   -6.7144  -14.0165 O   0  0  0  0  0  0  0  0  0  0  0  0
   20.1736   -5.4890  -15.9124 N   0  0  0  0  0  0  0  0  0  0  0  0
   20.0204   -4.2253  -15.2634 C   0  0  1  0  0  0  0  0  0  0  0  0
   21.1598   -3.2910  -15.5136 C   0  0  0  0  0  0  0  0  0  0  0  0
   21.0634   -1.9788  -14.8939 C   0  0  0  0  0  0  0  0  0  0  0  0
   21.6388   -1.7170  -13.7983 O   0  0  0  0  0  0  0  0  0  0  0  0
   18.7324   -3.5452  -15.6252 C   0  0  0  0  0  0  0  0  0  0  0  0
   18.2491   -3.6711  -16.7889 O   0  0  0  0  0  0  0  0  0  0  0  0
   20.3391   -0.9016  -15.4392 O   0  0  0  0  0  0  0  0  0  0  0  0
   18.0038   -2.7581  -14.7536 O   0  0  0  0  0  0  0  0  0  0  0  0
  1  2  1  0
  2  3  1  0
  3  5  1  0
  3  4  1  6
  5  6  1  1
  7  5  1  0
  7  8  2  0
 10 12  1  0
 10  9  1  0
 11 10  2  0
 13 12  1  1
 13 14  1  0
 13 15  1  0
 14  7  1  0
 15 17  1  0
 16 15  2  0
 17 18  1  0
 18 22  1  0
 18 19  1  6
 20 19  1  0
 20 24  1  0
 21 20  2  0
 22 23  2  0
 22 25  1  0
M  END
$$$$
