IND.pdb
     RDKit          3D

 25 24  0  0  1  0  0  0  0  0999 V2000
   18.5151  -12.4674  -16.8363 C   0  0  0  0  0  0  0  0  0  0  0  0
   17.7521  -12.6678  -15.5019 C   0  0  0  0  0  0  0  0  0  0  0  0
   17.6268  -11.3094  -14.8936 C   0  0  2  0  0  0  0  0  0  0  0  0
   19.0290  -10.7229  -14.7975 C   0  0  0  0  0  0  0  0  0  0  0  0
   16.8525  -11.1695  -13.6496 C   0  0  2  0  0  0  0  0  0  0  0  0
   15.4793  -11.6871  -13.9539 N   0  0  0  0  0  0  0  0  0  0  0  0
   16.6864   -9.8650  -13.0344 C   0  0  0  0  0  0  0  0  0  0  0  0
   15.9345   -8.9938  -13.6326 O   0  0  0  0  0  0  0  0  0  0  0  0
   17.1936   -5.5858   -9.9736 N   0  0  0  0  0  0  0  0  0  0  0  0
   16.5951   -6.7064   -9.3093 C   0  0  0  0  0  0  0  0  0  0  0  0
   16.0938   -6.4610   -8.1984 O   0  0  0  0  0  0  0  0  0  0  0  0
   16.6516   -7.9798  -10.0181 C   0  0  0  0  0  0  0  0  0  0  0  0
   17.1123   -7.9546  -11.4369 C   0  0  2  0  0  0  0  0  0  0  0  0
   17.2329   -9.3733  -11.8329 N   0  0  0  0  0  0  0  0  0  0  0  0
   18.3560   -7.2250  -11.6908 C   0  0  0  0  0  0  0  0  0  0  0  0
   19.4588   -7.7252  -11.3769 O   0  0  0  0  0  0  0  0  0  0  0  0
   18.4218   -5.9319  -12.2912 N   0  0  0  0  0  0  0  0  0  0  0  0
   19.6042   -5.2813  -12.7604 C   0  0  1  0  0  0  0  0  0  0  0  0
   20.4979   -6.1798  -13.5526 C   0  0  0  0  0  0  0  0  0  0  0  0
   21.7321   -5.5882  -14.0443 C   0  0  0  0  0  0  0  0  0  0  0  0
   22.0326   -4.3828  -13.8065 O   0  0  0  0  0  0  0  0  0  0  0  0
   19.3030   -4.0487  -13.5620 C   0  0  0  0  0  0  0  0  0  0  0  0
   18.4666   -4.0935  -14.5117 O   0  0  0  0  0  0  0  0  0  0  0  0
   22.6866   -6.2819  -14.8125 O   0  0  0  0  0  0  0  0  0  0  0  0
   19.8927   -2.8190  -13.3378 O   0  0  0  0  0  0  0  0  0  0  0  0
  1  2  1  0
  2  3  1  0
  3  5  1  0
  3  4  1  1
  5  6  1  6
  7  5  1  0
  7  8  2  0
 10 12  1  0
 10  9  1  0
 11 10  2  0
 13 12  1  1
 13 14  1  0
 13 15  1  0
 14  7  1  0
 15 17  1  0
 16 15  2  0
 17 18  1  0
 18 22  1  0
 18 19  1  6
 20 19  1  0
 20 24  1  0
 21 20  2  0
 22 23  2  0
 22 25  1  0
M  END
$$$$
