IND.pdb
     RDKit          3D

 25 24  0  0  1  0  0  0  0  0999 V2000
   14.2071  -11.4893  -14.6960 C   0  0  0  0  0  0  0  0  0  0  0  0
   15.0964  -12.2768  -15.6919 C   0  0  0  0  0  0  0  0  0  0  0  0
   16.4319  -11.6085  -15.6654 C   0  0  2  0  0  0  0  0  0  0  0  0
   16.2073  -10.1311  -15.9592 C   0  0  0  0  0  0  0  0  0  0  0  0
   17.5242  -12.1981  -16.4565 C   0  0  2  0  0  0  0  0  0  0  0  0
   17.7174  -13.5874  -15.9284 N   0  0  0  0  0  0  0  0  0  0  0  0
   18.8323  -11.5687  -16.4803 C   0  0  0  0  0  0  0  0  0  0  0  0
   19.5896  -11.6835  -15.4336 O   0  0  0  0  0  0  0  0  0  0  0  0
   23.3023   -9.7403  -20.1314 N   0  0  0  0  0  0  0  0  0  0  0  0
   22.8290   -9.9357  -18.7924 C   0  0  0  0  0  0  0  0  0  0  0  0
   23.6407   -9.6527  -17.8944 O   0  0  0  0  0  0  0  0  0  0  0  0
   21.4661  -10.4377  -18.6586 C   0  0  0  0  0  0  0  0  0  0  0  0
   20.7789  -10.2153  -17.3531 C   0  0  2  0  0  0  0  0  0  0  0  0
   19.4406  -10.8226  -17.5086 N   0  0  0  0  0  0  0  0  0  0  0  0
   20.6819   -8.8224  -16.9125 C   0  0  0  0  0  0  0  0  0  0  0  0
   19.7730   -8.0821  -17.3494 O   0  0  0  0  0  0  0  0  0  0  0  0
   21.5772   -8.2073  -15.9868 N   0  0  0  0  0  0  0  0  0  0  0  0
   21.4768   -6.8763  -15.4771 C   0  0  1  0  0  0  0  0  0  0  0  0
   22.0305   -6.7291  -14.0967 C   0  0  0  0  0  0  0  0  0  0  0  0
   21.8913   -5.4173  -13.4844 C   0  0  0  0  0  0  0  0  0  0  0  0
   22.5613   -4.4221  -13.8851 O   0  0  0  0  0  0  0  0  0  0  0  0
   22.1199   -5.8646  -16.3800 C   0  0  0  0  0  0  0  0  0  0  0  0
   23.1398   -6.1755  -17.0630 O   0  0  0  0  0  0  0  0  0  0  0  0
   21.0202   -5.1359  -12.4147 O   0  0  0  0  0  0  0  0  0  0  0  0
   21.6696   -4.5663  -16.5290 O   0  0  0  0  0  0  0  0  0  0  0  0
  1  2  1  0
  2  3  1  0
  3  5  1  0
  3  4  1  6
  5  6  1  1
  7  5  1  0
  7  8  2  0
 10 12  1  0
 10  9  1  0
 11 10  2  0
 13 12  1  6
 13 14  1  0
 13 15  1  0
 14  7  1  0
 15 17  1  0
 16 15  2  0
 17 18  1  0
 18 22  1  0
 18 19  1  1
 20 19  1  0
 20 24  1  0
 21 20  2  0
 22 23  2  0
 22 25  1  0
M  END
$$$$
