IND.pdb
     RDKit          3D

 25 24  0  0  1  0  0  0  0  0999 V2000
   15.3983  -14.1430  -16.2602 C   0  0  0  0  0  0  0  0  0  0  0  0
   16.7993  -13.6323  -16.6841 C   0  0  0  0  0  0  0  0  0  0  0  0
   16.9849  -12.3226  -15.9905 C   0  0  2  0  0  0  0  0  0  0  0  0
   15.8009  -11.4395  -16.3615 C   0  0  0  0  0  0  0  0  0  0  0  0
   18.2822  -11.6397  -16.1226 C   0  0  2  0  0  0  0  0  0  0  0  0
   19.3165  -12.6167  -15.6514 N   0  0  0  0  0  0  0  0  0  0  0  0
   18.5270  -10.3927  -15.4205 C   0  0  0  0  0  0  0  0  0  0  0  0
   18.4312  -10.3857  -14.1271 O   0  0  0  0  0  0  0  0  0  0  0  0
   22.3145   -8.8048  -15.7849 N   0  0  0  0  0  0  0  0  0  0  0  0
   21.5291   -8.0303  -14.8691 C   0  0  0  0  0  0  0  0  0  0  0  0
   21.9422   -8.0125  -13.6967 O   0  0  0  0  0  0  0  0  0  0  0  0
   20.3558   -7.3684  -15.4280 C   0  0  0  0  0  0  0  0  0  0  0  0
   19.0198   -7.9375  -15.0856 C   0  0  2  0  0  0  0  0  0  0  0  0
   18.8731   -9.1316  -15.9439 N   0  0  0  0  0  0  0  0  0  0  0  0
   17.8813   -7.0299  -15.2398 C   0  0  0  0  0  0  0  0  0  0  0  0
   16.8160   -7.4328  -15.7571 O   0  0  0  0  0  0  0  0  0  0  0  0
   17.8828   -5.6615  -14.8342 N   0  0  0  0  0  0  0  0  0  0  0  0
   16.8113   -4.7320  -15.0057 C   0  0  1  0  0  0  0  0  0  0  0  0
   15.5287   -5.1890  -14.3894 C   0  0  0  0  0  0  0  0  0  0  0  0
   14.4163   -4.2542  -14.4520 C   0  0  0  0  0  0  0  0  0  0  0  0
   14.2411   -3.4950  -15.4483 O   0  0  0  0  0  0  0  0  0  0  0  0
   17.1492   -3.3633  -14.4910 C   0  0  0  0  0  0  0  0  0  0  0  0
   16.3413   -2.4022  -14.6552 O   0  0  0  0  0  0  0  0  0  0  0  0
   13.4523   -4.1080  -13.4362 O   0  0  0  0  0  0  0  0  0  0  0  0
   18.3219   -3.0562  -13.8271 O   0  0  0  0  0  0  0  0  0  0  0  0
  1  2  1  0
  2  3  1  0
  3  5  1  0
  3  4  1  6
  5  6  1  1
  7  5  1  0
  7  8  2  0
 10 12  1  0
 10  9  1  0
 11 10  2  0
 13 12  1  6
 13 14  1  0
 13 15  1  0
 14  7  1  0
 15 17  1  0
 16 15  2  0
 17 18  1  0
 18 22  1  0
 18 19  1  1
 20 19  1  0
 20 24  1  0
 21 20  2  0
 22 23  2  0
 22 25  1  0
M  END
$$$$
