IND.pdb
     RDKit          3D

 25 24  0  0  1  0  0  0  0  0999 V2000
   28.0256  -16.8287  -18.6636 C   0  0  0  0  0  0  0  0  0  0  0  0
   28.7408  -17.7536  -17.6457 C   0  0  0  0  0  0  0  0  0  0  0  0
   27.6563  -18.4033  -16.8502 C   0  0  2  0  0  0  0  0  0  0  0  0
   26.7581  -17.2955  -16.3159 C   0  0  0  0  0  0  0  0  0  0  0  0
   28.0364  -19.3879  -15.8242 C   0  0  2  0  0  0  0  0  0  0  0  0
   28.9461  -20.3664  -16.5035 N   0  0  0  0  0  0  0  0  0  0  0  0
   27.0164  -20.1625  -15.1406 C   0  0  0  0  0  0  0  0  0  0  0  0
   27.1499  -21.4518  -15.0954 O   0  0  0  0  0  0  0  0  0  0  0  0
   25.8414  -20.9029   -9.9817 N   0  0  0  0  0  0  0  0  0  0  0  0
   25.9709  -21.5636  -11.2474 C   0  0  0  0  0  0  0  0  0  0  0  0
   25.7958  -22.7941  -11.2258 O   0  0  0  0  0  0  0  0  0  0  0  0
   26.2891  -20.7121  -12.3880 C   0  0  0  0  0  0  0  0  0  0  0  0
   25.2151  -20.4926  -13.4001 C   0  0  2  0  0  0  0  0  0  0  0  0
   25.8533  -19.7160  -14.4835 N   0  0  0  0  0  0  0  0  0  0  0  0
   24.0051  -19.8281  -12.9123 C   0  0  0  0  0  0  0  0  0  0  0  0
   24.0069  -18.5984  -12.6829 O   0  0  0  0  0  0  0  0  0  0  0  0
   22.7673  -20.4932  -12.6623 N   0  0  0  0  0  0  0  0  0  0  0  0
   21.5277  -20.2415  -13.3267 C   0  0  1  0  0  0  0  0  0  0  0  0
   21.6562  -20.1838  -14.8146 C   0  0  0  0  0  0  0  0  0  0  0  0
   21.1805  -18.9676  -15.4545 C   0  0  0  0  0  0  0  0  0  0  0  0
   20.6848  -18.0149  -14.7863 O   0  0  0  0  0  0  0  0  0  0  0  0
   20.4655  -21.2357  -12.9586 C   0  0  0  0  0  0  0  0  0  0  0  0
   20.6331  -22.4675  -13.1993 O   0  0  0  0  0  0  0  0  0  0  0  0
   21.2244  -18.7392  -16.8432 O   0  0  0  0  0  0  0  0  0  0  0  0
   19.2686  -20.8986  -12.3551 O   0  0  0  0  0  0  0  0  0  0  0  0
  1  2  1  0
  2  3  1  0
  3  5  1  0
  3  4  1  1
  5  6  1  6
  7  5  1  0
  7  8  2  0
 10 12  1  0
 10  9  1  0
 11 10  2  0
 13 12  1  1
 13 14  1  0
 13 15  1  0
 14  7  1  0
 15 17  1  0
 16 15  2  0
 17 18  1  0
 18 22  1  0
 18 19  1  6
 20 19  1  0
 20 24  1  0
 21 20  2  0
 22 23  2  0
 22 25  1  0
M  END
$$$$
