IND.pdb
     RDKit          3D

 25 24  0  0  1  0  0  0  0  0999 V2000
   23.1194  -10.3749  -20.3041 C   0  0  0  0  0  0  0  0  0  0  0  0
   22.3822  -10.9454  -19.0655 C   0  0  0  0  0  0  0  0  0  0  0  0
   21.8458   -9.7629  -18.3274 C   0  0  2  0  0  0  0  0  0  0  0  0
   23.0156   -8.8254  -18.0587 C   0  0  0  0  0  0  0  0  0  0  0  0
   21.0084  -10.0010  -17.1405 C   0  0  2  0  0  0  0  0  0  0  0  0
   19.8578  -10.8416  -17.6051 N   0  0  0  0  0  0  0  0  0  0  0  0
   20.4457   -8.8821  -16.4061 C   0  0  0  0  0  0  0  0  0  0  0  0
   19.5519   -8.1479  -16.9929 O   0  0  0  0  0  0  0  0  0  0  0  0
   17.8734   -8.6503  -13.8618 N   0  0  0  0  0  0  0  0  0  0  0  0
   18.7074   -8.2670  -12.7605 C   0  0  0  0  0  0  0  0  0  0  0  0
   18.3117   -8.6335  -11.6404 O   0  0  0  0  0  0  0  0  0  0  0  0
   19.9033   -7.5020  -13.0949 C   0  0  0  0  0  0  0  0  0  0  0  0
   20.1481   -7.2085  -14.5371 C   0  0  2  0  0  0  0  0  0  0  0  0
   20.7249   -8.4495  -15.0950 N   0  0  0  0  0  0  0  0  0  0  0  0
   21.0031   -6.0533  -14.8166 C   0  0  0  0  0  0  0  0  0  0  0  0
   22.2179   -6.2113  -15.0698 O   0  0  0  0  0  0  0  0  0  0  0  0
   20.5498   -4.7000  -14.8234 N   0  0  0  0  0  0  0  0  0  0  0  0
   21.3216   -3.5561  -15.1941 C   0  0  1  0  0  0  0  0  0  0  0  0
   21.9658   -3.6879  -16.5362 C   0  0  0  0  0  0  0  0  0  0  0  0
   22.7633   -2.5559  -16.9807 C   0  0  0  0  0  0  0  0  0  0  0  0
   23.0097   -1.5764  -16.2194 O   0  0  0  0  0  0  0  0  0  0  0  0
   20.5244   -2.2852  -15.1491 C   0  0  0  0  0  0  0  0  0  0  0  0
   19.2667   -2.3153  -15.2923 O   0  0  0  0  0  0  0  0  0  0  0  0
   23.3233   -2.4440  -18.2677 O   0  0  0  0  0  0  0  0  0  0  0  0
   21.0780   -1.0333  -14.9584 O   0  0  0  0  0  0  0  0  0  0  0  0
  1  2  1  0
  2  3  1  0
  3  5  1  0
  3  4  1  1
  5  6  1  6
  7  5  1  0
  7  8  2  0
 10 12  1  0
 10  9  1  0
 11 10  2  0
 13 12  1  1
 13 14  1  0
 13 15  1  0
 14  7  1  0
 15 17  1  0
 16 15  2  0
 17 18  1  0
 18 22  1  0
 18 19  1  6
 20 19  1  0
 20 24  1  0
 21 20  2  0
 22 23  2  0
 22 25  1  0
M  END
$$$$
