IND.pdb
     RDKit          3D

 25 24  0  0  1  0  0  0  0  0999 V2000
   10.5851  -10.7472  -10.4325 C   0  0  0  0  0  0  0  0  0  0  0  0
   11.5629  -11.4544   -9.4594 C   0  0  0  0  0  0  0  0  0  0  0  0
   12.9302  -10.9943   -9.8463 C   0  0  2  0  0  0  0  0  0  0  0  0
   13.0038   -9.4994   -9.5642 C   0  0  0  0  0  0  0  0  0  0  0  0
   13.4396  -11.3595  -11.1781 C   0  0  2  0  0  0  0  0  0  0  0  0
   13.4285  -12.8573  -11.2313 N   0  0  0  0  0  0  0  0  0  0  0  0
   14.7616  -10.9308  -11.5981 C   0  0  0  0  0  0  0  0  0  0  0  0
   15.7937  -11.4663  -11.0234 O   0  0  0  0  0  0  0  0  0  0  0  0
   18.9280  -10.1244  -14.7902 N   0  0  0  0  0  0  0  0  0  0  0  0
   17.8774   -9.1624  -14.9520 C   0  0  0  0  0  0  0  0  0  0  0  0
   18.1888   -8.1344  -15.5776 O   0  0  0  0  0  0  0  0  0  0  0  0
   16.5887   -9.5125  -14.3654 C   0  0  0  0  0  0  0  0  0  0  0  0
   16.5286   -9.6613  -12.8821 C   0  0  2  0  0  0  0  0  0  0  0  0
   15.1189   -9.9859  -12.5797 N   0  0  0  0  0  0  0  0  0  0  0  0
   16.9858   -8.5068  -12.1062 C   0  0  0  0  0  0  0  0  0  0  0  0
   18.1893   -8.1665  -12.1272 O   0  0  0  0  0  0  0  0  0  0  0  0
   16.1383   -7.7004  -11.2887 N   0  0  0  0  0  0  0  0  0  0  0  0
   16.4727   -6.4303  -10.7260 C   0  0  1  0  0  0  0  0  0  0  0  0
   15.4020   -5.4035  -10.9078 C   0  0  0  0  0  0  0  0  0  0  0  0
   15.6566   -4.0981  -10.3195 C   0  0  0  0  0  0  0  0  0  0  0  0
   16.7973   -3.5546  -10.3754 O   0  0  0  0  0  0  0  0  0  0  0  0
   16.8306   -6.5219   -9.2714 C   0  0  0  0  0  0  0  0  0  0  0  0
   17.0749   -5.4721   -8.6069 O   0  0  0  0  0  0  0  0  0  0  0  0
   14.6833   -3.3333   -9.6485 O   0  0  0  0  0  0  0  0  0  0  0  0
   16.9208   -7.7106   -8.5721 O   0  0  0  0  0  0  0  0  0  0  0  0
  1  2  1  0
  2  3  1  0
  3  5  1  0
  3  4  1  6
  5  6  1  1
  7  5  1  0
  7  8  2  0
 10 12  1  0
 10  9  1  0
 11 10  2  0
 13 12  1  6
 13 14  1  0
 13 15  1  0
 14  7  1  0
 15 17  1  0
 16 15  2  0
 17 18  1  0
 18 22  1  0
 18 19  1  1
 20 19  1  0
 20 24  1  0
 21 20  2  0
 22 23  2  0
 22 25  1  0
M  END
$$$$
