IND.pdb
     RDKit          3D

 25 24  0  0  1  0  0  0  0  0999 V2000
   18.4494  -14.9136  -18.6296 C   0  0  0  0  0  0  0  0  0  0  0  0
   18.7999  -14.2660  -17.2655 C   0  0  0  0  0  0  0  0  0  0  0  0
   19.4316  -12.9511  -17.5864 C   0  0  2  0  0  0  0  0  0  0  0  0
   20.6701  -13.2343  -18.4262 C   0  0  0  0  0  0  0  0  0  0  0  0
   19.6809  -12.0081  -16.4840 C   0  0  2  0  0  0  0  0  0  0  0  0
   19.0996  -12.6407  -15.2559 N   0  0  0  0  0  0  0  0  0  0  0  0
   19.1618  -10.6538  -16.5487 C   0  0  0  0  0  0  0  0  0  0  0  0
   19.7734   -9.7958  -17.3050 O   0  0  0  0  0  0  0  0  0  0  0  0
   16.3622   -6.2353  -16.2740 N   0  0  0  0  0  0  0  0  0  0  0  0
   15.5138   -7.3607  -16.0116 C   0  0  0  0  0  0  0  0  0  0  0  0
   14.2994   -7.1057  -15.9371 O   0  0  0  0  0  0  0  0  0  0  0  0
   16.1810   -8.6496  -15.8671 C   0  0  0  0  0  0  0  0  0  0  0  0
   17.6598   -8.6815  -16.0622 C   0  0  2  0  0  0  0  0  0  0  0  0
   18.0446  -10.0985  -15.8947 N   0  0  0  0  0  0  0  0  0  0  0  0
   18.4386   -7.8118  -15.1786 C   0  0  0  0  0  0  0  0  0  0  0  0
   18.9068   -8.2547  -14.1064 O   0  0  0  0  0  0  0  0  0  0  0  0
   18.7210   -6.4386  -15.4461 N   0  0  0  0  0  0  0  0  0  0  0  0
   19.5718   -5.5888  -14.6744 C   0  0  1  0  0  0  0  0  0  0  0  0
   20.9475   -6.1423  -14.4881 C   0  0  0  0  0  0  0  0  0  0  0  0
   21.9104   -5.2668  -13.8390 C   0  0  0  0  0  0  0  0  0  0  0  0
   21.6286   -4.6392  -12.7776 O   0  0  0  0  0  0  0  0  0  0  0  0
   19.6672   -4.2025  -15.2413 C   0  0  0  0  0  0  0  0  0  0  0  0
   19.3494   -3.9827  -16.4471 O   0  0  0  0  0  0  0  0  0  0  0  0
   23.2151   -5.0391  -14.3170 O   0  0  0  0  0  0  0  0  0  0  0  0
   20.0948   -3.1023  -14.5222 O   0  0  0  0  0  0  0  0  0  0  0  0
  1  2  1  0
  2  3  1  0
  3  5  1  0
  3  4  1  1
  5  6  1  1
  7  5  1  0
  7  8  2  0
 10 12  1  0
 10  9  1  0
 11 10  2  0
 13 12  1  1
 13 14  1  0
 13 15  1  0
 14  7  1  0
 15 17  1  0
 16 15  2  0
 17 18  1  0
 18 22  1  0
 18 19  1  6
 20 19  1  0
 20 24  1  0
 21 20  2  0
 22 23  2  0
 22 25  1  0
M  END
$$$$
