IND.pdb
     RDKit          3D

 25 24  0  0  1  0  0  0  0  0999 V2000
   18.7952  -11.2598  -18.3829 C   0  0  0  0  0  0  0  0  0  0  0  0
   18.7843  -11.5286  -16.8563 C   0  0  0  0  0  0  0  0  0  0  0  0
   18.9486  -10.1949  -16.2043 C   0  0  2  0  0  0  0  0  0  0  0  0
   20.2287   -9.5762  -16.7502 C   0  0  0  0  0  0  0  0  0  0  0  0
   18.8454  -10.1165  -14.7380 C   0  0  2  0  0  0  0  0  0  0  0  0
   17.4567  -10.5634  -14.3943 N   0  0  0  0  0  0  0  0  0  0  0  0
   19.0646   -8.8537  -14.0560 C   0  0  0  0  0  0  0  0  0  0  0  0
   18.1164   -7.9691  -14.0790 O   0  0  0  0  0  0  0  0  0  0  0  0
   20.4938   -5.7430   -9.5387 N   0  0  0  0  0  0  0  0  0  0  0  0
   21.2571   -5.9688  -10.7311 C   0  0  0  0  0  0  0  0  0  0  0  0
   22.0944   -5.0905  -11.0014 O   0  0  0  0  0  0  0  0  0  0  0  0
   20.9541   -7.1910  -11.4671 C   0  0  0  0  0  0  0  0  0  0  0  0
   20.3029   -7.0439  -12.8014 C   0  0  2  0  0  0  0  0  0  0  0  0
   20.1936   -8.4176  -13.3353 N   0  0  0  0  0  0  0  0  0  0  0  0
   20.9828   -6.1587  -13.7488 C   0  0  0  0  0  0  0  0  0  0  0  0
   21.8992   -6.5969  -14.4790 O   0  0  0  0  0  0  0  0  0  0  0  0
   20.6779   -4.7747  -13.9176 N   0  0  0  0  0  0  0  0  0  0  0  0
   21.1329   -3.9365  -14.9816 C   0  0  1  0  0  0  0  0  0  0  0  0
   20.9673   -4.5544  -16.3323 C   0  0  0  0  0  0  0  0  0  0  0  0
   21.3377   -3.7255  -17.4684 C   0  0  0  0  0  0  0  0  0  0  0  0
   22.3029   -2.9103  -17.4100 O   0  0  0  0  0  0  0  0  0  0  0  0
   20.4784   -2.5860  -14.9701 C   0  0  0  0  0  0  0  0  0  0  0  0
   20.8536   -1.6880  -15.7801 O   0  0  0  0  0  0  0  0  0  0  0  0
   20.6749   -3.7499  -18.7104 O   0  0  0  0  0  0  0  0  0  0  0  0
   19.4586   -2.2299  -14.1079 O   0  0  0  0  0  0  0  0  0  0  0  0
  1  2  1  0
  2  3  1  0
  3  5  1  0
  3  4  1  1
  5  6  1  6
  7  5  1  0
  7  8  2  0
 10 12  1  0
 10  9  1  0
 11 10  2  0
 13 12  1  1
 13 14  1  0
 13 15  1  0
 14  7  1  0
 15 17  1  0
 16 15  2  0
 17 18  1  0
 18 22  1  0
 18 19  1  6
 20 19  1  0
 20 24  1  0
 21 20  2  0
 22 23  2  0
 22 25  1  0
M  END
$$$$
