IND.pdb
     RDKit          3D

 25 24  0  0  1  0  0  0  0  0999 V2000
   17.9274  -14.2478  -14.8681 C   0  0  0  0  0  0  0  0  0  0  0  0
   18.2842  -13.1791  -15.9327 C   0  0  0  0  0  0  0  0  0  0  0  0
   18.1631  -11.8590  -15.2447 C   0  0  2  0  0  0  0  0  0  0  0  0
   16.7364  -11.7467  -14.7238 C   0  0  0  0  0  0  0  0  0  0  0  0
   18.6168  -10.6545  -15.9589 C   0  0  2  0  0  0  0  0  0  0  0  0
   19.9042  -11.0284  -16.6290 N   0  0  0  0  0  0  0  0  0  0  0  0
   18.8604   -9.4216  -15.2320 C   0  0  0  0  0  0  0  0  0  0  0  0
   17.8575   -8.8438  -14.6468 O   0  0  0  0  0  0  0  0  0  0  0  0
   20.8194   -4.8772  -13.4409 N   0  0  0  0  0  0  0  0  0  0  0  0
   21.9140   -5.7352  -13.7888 C   0  0  0  0  0  0  0  0  0  0  0  0
   23.0443   -5.2876  -13.5295 O   0  0  0  0  0  0  0  0  0  0  0  0
   21.5615   -7.0128  -14.3978 C   0  0  0  0  0  0  0  0  0  0  0  0
   20.1165   -7.3831  -14.4261 C   0  0  2  0  0  0  0  0  0  0  0  0
   20.0696   -8.7230  -15.0479 N   0  0  0  0  0  0  0  0  0  0  0  0
   19.2312   -6.4451  -15.1188 C   0  0  0  0  0  0  0  0  0  0  0  0
   18.7440   -6.7394  -16.2327 O   0  0  0  0  0  0  0  0  0  0  0  0
   18.8607   -5.1639  -14.6106 N   0  0  0  0  0  0  0  0  0  0  0  0
   17.9965   -4.2228  -15.2501 C   0  0  1  0  0  0  0  0  0  0  0  0
   16.6627   -4.7942  -15.6081 C   0  0  0  0  0  0  0  0  0  0  0  0
   15.6858   -3.8598  -16.1443 C   0  0  0  0  0  0  0  0  0  0  0  0
   16.0054   -2.9774  -16.9922 O   0  0  0  0  0  0  0  0  0  0  0  0
   17.8004   -2.9768  -14.4369 C   0  0  0  0  0  0  0  0  0  0  0  0
   17.1650   -1.9933  -14.9189 O   0  0  0  0  0  0  0  0  0  0  0  0
   14.3255   -3.8475  -15.7809 O   0  0  0  0  0  0  0  0  0  0  0  0
   18.2808   -2.8105  -13.1516 O   0  0  0  0  0  0  0  0  0  0  0  0
  1  2  1  0
  2  3  1  0
  3  5  1  0
  3  4  1  6
  5  6  1  1
  7  5  1  0
  7  8  2  0
 10 12  1  0
 10  9  1  0
 11 10  2  0
 13 12  1  6
 13 14  1  0
 13 15  1  0
 14  7  1  0
 15 17  1  0
 16 15  2  0
 17 18  1  0
 18 22  1  0
 18 19  1  1
 20 19  1  0
 20 24  1  0
 21 20  2  0
 22 23  2  0
 22 25  1  0
M  END
$$$$
