IND.pdb
     RDKit          3D

 25 24  0  0  1  0  0  0  0  0999 V2000
   20.7993  -16.8498  -17.1914 C   0  0  0  0  0  0  0  0  0  0  0  0
   21.7927  -15.8720  -17.8696 C   0  0  0  0  0  0  0  0  0  0  0  0
   22.1485  -14.8617  -16.8286 C   0  0  2  0  0  0  0  0  0  0  0  0
   20.8513  -14.2167  -16.3587 C   0  0  0  0  0  0  0  0  0  0  0  0
   23.2050  -13.8840  -17.1358 C   0  0  2  0  0  0  0  0  0  0  0  0
   24.3750  -14.6781  -17.6324 N   0  0  0  0  0  0  0  0  0  0  0  0
   23.7041  -12.9971  -16.1004 C   0  0  0  0  0  0  0  0  0  0  0  0
   24.8648  -13.2506  -15.5800 O   0  0  0  0  0  0  0  0  0  0  0  0
   26.1018   -8.4256  -17.0591 N   0  0  0  0  0  0  0  0  0  0  0  0
   25.7443   -9.2476  -15.9403 C   0  0  0  0  0  0  0  0  0  0  0  0
   26.3318   -8.9840  -14.8769 O   0  0  0  0  0  0  0  0  0  0  0  0
   24.7448  -10.2792  -16.1932 C   0  0  0  0  0  0  0  0  0  0  0  0
   23.8994  -10.7113  -15.0423 C   0  0  2  0  0  0  0  0  0  0  0  0
   23.1033  -11.8488  -15.5487 N   0  0  0  0  0  0  0  0  0  0  0  0
   23.0397   -9.6793  -14.4596 C   0  0  0  0  0  0  0  0  0  0  0  0
   23.5341   -8.6179  -14.0191 O   0  0  0  0  0  0  0  0  0  0  0  0
   21.6212   -9.7853  -14.3434 N   0  0  0  0  0  0  0  0  0  0  0  0
   20.6778   -8.7360  -14.5682 C   0  0  1  0  0  0  0  0  0  0  0  0
   21.2992   -7.4888  -15.1084 C   0  0  0  0  0  0  0  0  0  0  0  0
   20.4090   -6.3532  -15.2897 C   0  0  0  0  0  0  0  0  0  0  0  0
   19.2257   -6.4969  -15.7126 O   0  0  0  0  0  0  0  0  0  0  0  0
   19.5512   -9.1580  -15.4655 C   0  0  0  0  0  0  0  0  0  0  0  0
   18.3643   -8.7960  -15.2131 O   0  0  0  0  0  0  0  0  0  0  0  0
   20.7690   -5.0192  -15.0191 O   0  0  0  0  0  0  0  0  0  0  0  0
   19.7134   -9.9449  -16.5900 O   0  0  0  0  0  0  0  0  0  0  0  0
  1  2  1  0
  2  3  1  0
  3  5  1  0
  3  4  1  6
  5  6  1  1
  7  5  1  0
  7  8  2  0
 10 12  1  0
 10  9  1  0
 11 10  2  0
 13 12  1  6
 13 14  1  0
 13 15  1  0
 14  7  1  0
 15 17  1  0
 16 15  2  0
 17 18  1  0
 18 22  1  0
 18 19  1  6
 20 19  1  0
 20 24  1  0
 21 20  2  0
 22 23  2  0
 22 25  1  0
M  END
$$$$
