RKP.pdb
     RDKit          3D

 28 28  0  0  1  0  0  0  0  0999 V2000
   27.3224  -26.1603  -15.9524 N   0  0  0  0  0  0  0  0  0  0  0  0
   26.3811  -25.5268  -16.8190 C   0  0  0  0  0  0  0  0  0  0  0  0
   25.1418  -25.8471  -16.8455 N   0  0  0  0  0  0  0  0  0  0  0  0
   26.8567  -24.5074  -17.6746 N   0  0  0  0  0  0  0  0  0  0  0  0
   28.2238  -24.0055  -17.5324 C   0  0  0  0  0  0  0  0  0  0  0  0
   28.1475  -22.5187  -17.7228 C   0  0  0  0  0  0  0  0  0  0  0  0
   27.3043  -21.8944  -16.6538 C   0  0  0  0  0  0  0  0  0  0  0  0
   27.1952  -20.3973  -16.7589 C   0  0  2  0  0  0  0  0  0  0  0  0
   28.3199  -19.7124  -16.2052 N   0  0  0  0  0  0  0  0  0  0  0  0
   25.9178  -20.0111  -16.0723 C   0  0  0  0  0  0  0  0  0  0  0  0
   25.7589  -20.0833  -14.8321 O   0  0  0  0  0  0  0  0  0  0  0  0
   24.4810  -25.4754  -17.5498 N   0  0  0  0  0  0  0  0  0  0  0  0
   24.7752  -19.5244  -16.8250 C   0  0  2  0  0  0  0  0  0  0  0  0
   23.5749  -19.1329  -16.1914 C   0  0  0  0  0  0  0  0  0  0  0  0
   22.7207  -18.2152  -17.0701 C   0  0  0  0  0  0  0  0  0  0  0  0
   21.4378  -17.8445  -16.3765 C   0  0  0  0  0  0  0  0  0  0  0  0
   21.2003  -16.3577  -16.3606 C   0  0  0  0  0  0  0  0  0  0  0  0
   19.9224  -16.0024  -15.6043 N   0  0  0  0  0  0  0  0  0  0  0  0
   19.7483  -14.5431  -15.6847 C   0  0  0  0  0  0  0  0  0  0  0  0
   22.7598  -20.2393  -15.7042 O   0  0  0  0  0  0  0  0  0  0  0  0
   22.5873  -21.2685  -16.4998 N   0  0  0  0  0  0  0  0  0  0  0  0
   22.1082  -20.3807  -14.4761 C   0  0  0  0  0  0  0  0  0  0  0  0
   22.0615  -19.3375  -13.4077 C   0  0  0  0  0  0  0  0  0  0  0  0
   21.2922  -19.9046  -12.2732 C   0  0  0  0  0  0  0  0  0  0  0  0
   21.4806  -21.3818  -12.4417 C   0  0  1  0  0  0  0  0  0  0  0  0
   21.3667  -21.5005  -13.9723 C   0  0  0  0  0  0  0  0  0  0  0  0
   19.9189  -21.2687  -14.2934 O   0  0  0  0  0  0  0  0  0  0  0  0
   19.5569  -20.1615  -14.7543 O   0  0  0  0  0  0  0  0  0  0  0  0
  2  1  1  0
  3  2  2  0
  4  2  1  0
  5  4  1  0
  6  5  1  0
  7  6  1  0
  8  7  1  0
  8  9  1  1
 10 11  2  0
 10  8  1  0
 12 10  1  0
 13 12  1  0
 13 14  1  6
 14 15  1  0
 16 15  1  0
 17 16  1  0
 18 17  1  0
 19 20  2  0
 19 13  1  0
 21 19  1  0
 22 21  1  0
 23 22  1  0
 24 23  1  0
 24 25  1  0
 25 26  1  6
 25 21  1  0
 26 28  1  0
 27 26  2  0
M  END
$$$$
