RKP.pdb
     RDKit          3D

 28 28  0  0  1  0  0  0  0  0999 V2000
   27.1412  -21.0079   -9.6796 N   0  0  0  0  0  0  0  0  0  0  0  0
   25.7679  -20.9093   -9.3021 C   0  0  0  0  0  0  0  0  0  0  0  0
   25.3916  -20.3944   -8.1919 N   0  0  0  0  0  0  0  0  0  0  0  0
   24.8001  -21.4059  -10.2043 N   0  0  0  0  0  0  0  0  0  0  0  0
   25.1176  -21.5351  -11.6269 C   0  0  0  0  0  0  0  0  0  0  0  0
   25.2658  -20.1372  -12.1529 C   0  0  0  0  0  0  0  0  0  0  0  0
   25.4750  -20.1530  -13.6359 C   0  0  0  0  0  0  0  0  0  0  0  0
   24.6284  -21.1637  -14.3612 C   0  0  2  0  0  0  0  0  0  0  0  0
   25.3747  -22.2881  -14.8296 N   0  0  0  0  0  0  0  0  0  0  0  0
   23.9600  -20.4332  -15.4890 C   0  0  0  0  0  0  0  0  0  0  0  0
   24.4970  -20.2634  -16.6075 O   0  0  0  0  0  0  0  0  0  0  0  0
   24.4000  -20.3557   -7.8987 N   0  0  0  0  0  0  0  0  0  0  0  0
   22.6287  -19.8726  -15.3392 C   0  0  2  0  0  0  0  0  0  0  0  0
   21.9715  -19.2141  -16.4023 C   0  0  0  0  0  0  0  0  0  0  0  0
   20.4861  -18.9782  -16.1164 C   0  0  0  0  0  0  0  0  0  0  0  0
   19.6864  -20.2322  -16.3455 C   0  0  0  0  0  0  0  0  0  0  0  0
   19.5650  -21.0732  -15.1023 C   0  0  0  0  0  0  0  0  0  0  0  0
   18.6696  -22.2882  -15.3331 N   0  0  0  0  0  0  0  0  0  0  0  0
   18.6216  -23.0513  -14.0753 C   0  0  0  0  0  0  0  0  0  0  0  0
   22.5940  -17.9618  -16.8146 O   0  0  0  0  0  0  0  0  0  0  0  0
   23.1197  -17.2037  -15.8813 N   0  0  0  0  0  0  0  0  0  0  0  0
   22.7231  -17.4214  -18.0969 C   0  0  0  0  0  0  0  0  0  0  0  0
   22.1303  -18.0087  -19.3361 C   0  0  0  0  0  0  0  0  0  0  0  0
   22.5270  -17.1369  -20.4688 C   0  0  0  0  0  0  0  0  0  0  0  0
   23.7933  -16.5021  -19.9795 C   0  0  1  0  0  0  0  0  0  0  0  0
   23.4178  -16.2366  -18.5104 C   0  0  0  0  0  0  0  0  0  0  0  0
   22.4229  -15.1131  -18.5397 O   0  0  0  0  0  0  0  0  0  0  0  0
   21.2006  -15.3661  -18.4343 O   0  0  0  0  0  0  0  0  0  0  0  0
  2  1  1  0
  3  2  2  0
  4  2  1  0
  5  4  1  0
  6  5  1  0
  7  6  1  0
  8  7  1  0
  8  9  1  6
 10 11  2  0
 10  8  1  0
 12 10  1  0
 13 12  1  0
 13 14  1  6
 14 15  1  0
 16 15  1  0
 17 16  1  0
 18 17  1  0
 19 20  2  0
 19 13  1  0
 21 19  1  0
 22 21  1  0
 23 22  1  0
 24 23  1  0
 24 25  1  0
 25 26  1  1
 25 21  1  0
 26 28  1  0
 27 26  2  0
M  END
$$$$
