RKP.pdb
     RDKit          3D

 28 28  0  0  1  0  0  0  0  0999 V2000
   16.2047  -25.1918   -5.4667 N   0  0  0  0  0  0  0  0  0  0  0  0
   16.0693  -26.2936   -4.5689 C   0  0  0  0  0  0  0  0  0  0  0  0
   16.9590  -27.2075   -4.4574 N   0  0  0  0  0  0  0  0  0  0  0  0
   14.8985  -26.3600   -3.7802 N   0  0  0  0  0  0  0  0  0  0  0  0
   14.2098  -25.1323   -3.3805 C   0  0  0  0  0  0  0  0  0  0  0  0
   14.9828  -24.5755   -2.2208 C   0  0  0  0  0  0  0  0  0  0  0  0
   14.0547  -23.9753   -1.2100 C   0  0  0  0  0  0  0  0  0  0  0  0
   14.1901  -22.4835   -1.0668 C   0  0  2  0  0  0  0  0  0  0  0  0
   14.6437  -21.8441   -2.2609 N   0  0  0  0  0  0  0  0  0  0  0  0
   15.1286  -22.2461    0.0800 C   0  0  0  0  0  0  0  0  0  0  0  0
   16.3200  -22.6322    0.0801 O   0  0  0  0  0  0  0  0  0  0  0  0
   16.8684  -28.0020   -3.8006 N   0  0  0  0  0  0  0  0  0  0  0  0
   14.6957  -21.5428    1.2745 C   0  0  1  0  0  0  0  0  0  0  0  0
   15.5705  -21.2999    2.3568 C   0  0  0  0  0  0  0  0  0  0  0  0
   14.9558  -20.3752    3.4109 C   0  0  0  0  0  0  0  0  0  0  0  0
   15.2604  -18.9331    3.1075 C   0  0  0  0  0  0  0  0  0  0  0  0
   14.5410  -17.9858    4.0308 C   0  0  0  0  0  0  0  0  0  0  0  0
   14.8008  -16.5295    3.6528 N   0  0  0  0  0  0  0  0  0  0  0  0
   13.8712  -15.6947    4.4310 C   0  0  0  0  0  0  0  0  0  0  0  0
   16.0825  -22.5030    3.0019 O   0  0  0  0  0  0  0  0  0  0  0  0
   15.3499  -23.5899    2.9387 N   0  0  0  0  0  0  0  0  0  0  0  0
   17.2765  -22.6870    3.7044 C   0  0  0  0  0  0  0  0  0  0  0  0
   18.3219  -21.6385    3.9035 C   0  0  0  0  0  0  0  0  0  0  0  0
   19.4238  -22.2583    4.6793 C   0  0  0  0  0  0  0  0  0  0  0  0
   19.2923  -23.7142    4.3493 C   0  0  1  0  0  0  0  0  0  0  0  0
   17.7602  -23.8630    4.3681 C   0  0  0  0  0  0  0  0  0  0  0  0
   17.3583  -23.7684    5.8112 O   0  0  0  0  0  0  0  0  0  0  0  0
   16.9528  -22.6756    6.2701 O   0  0  0  0  0  0  0  0  0  0  0  0
  2  1  1  0
  3  2  2  0
  4  2  1  0
  5  4  1  0
  6  5  1  0
  7  6  1  0
  8  7  1  0
  8  9  1  6
 10 11  2  0
 10  8  1  0
 12 10  1  0
 13 12  1  0
 13 14  1  1
 14 15  1  0
 16 15  1  0
 17 16  1  0
 18 17  1  0
 19 20  2  0
 19 13  1  0
 21 19  1  0
 22 21  1  0
 23 22  1  0
 24 23  1  0
 24 25  1  0
 25 26  1  1
 25 21  1  0
 26 28  1  0
 27 26  2  0
M  END
$$$$
