RKP.pdb
     RDKit          3D

 28 28  0  0  1  0  0  0  0  0999 V2000
   32.2388  -24.9786  -19.1722 N   0  0  0  0  0  0  0  0  0  0  0  0
   31.9787  -25.9347  -18.1444 C   0  0  0  0  0  0  0  0  0  0  0  0
   32.7743  -26.9036  -17.8845 N   0  0  0  0  0  0  0  0  0  0  0  0
   30.7895  -25.7884  -17.3950 N   0  0  0  0  0  0  0  0  0  0  0  0
   29.8396  -24.7245  -17.7222 C   0  0  0  0  0  0  0  0  0  0  0  0
   30.5142  -23.4332  -17.3614 C   0  0  0  0  0  0  0  0  0  0  0  0
   29.7047  -22.6819  -16.3497 C   0  0  0  0  0  0  0  0  0  0  0  0
   28.2605  -23.1003  -16.2907 C   0  0  2  0  0  0  0  0  0  0  0  0
   27.6608  -23.2299  -17.5807 N   0  0  0  0  0  0  0  0  0  0  0  0
   27.5519  -22.0787  -15.4501 C   0  0  0  0  0  0  0  0  0  0  0  0
   27.9420  -21.7427  -14.3085 O   0  0  0  0  0  0  0  0  0  0  0  0
   32.5890  -27.5976  -17.1397 N   0  0  0  0  0  0  0  0  0  0  0  0
   26.3518  -21.4133  -15.9254 C   0  0  1  0  0  0  0  0  0  0  0  0
   25.6309  -20.5059  -15.1176 C   0  0  0  0  0  0  0  0  0  0  0  0
   24.8486  -19.4807  -15.9427 C   0  0  0  0  0  0  0  0  0  0  0  0
   24.1231  -18.5101  -15.0504 C   0  0  0  0  0  0  0  0  0  0  0  0
   23.2851  -17.5293  -15.8271 C   0  0  0  0  0  0  0  0  0  0  0  0
   22.6048  -16.5202  -14.9051 N   0  0  0  0  0  0  0  0  0  0  0  0
   21.9970  -15.4816  -15.7527 C   0  0  0  0  0  0  0  0  0  0  0  0
   24.7407  -21.1345  -14.1490 O   0  0  0  0  0  0  0  0  0  0  0  0
   23.8440  -21.9795  -14.6008 N   0  0  0  0  0  0  0  0  0  0  0  0
   24.6904  -20.9716  -12.7620 C   0  0  0  0  0  0  0  0  0  0  0  0
   25.5272  -20.0101  -11.9829 C   0  0  0  0  0  0  0  0  0  0  0  0
   25.1733  -20.1784  -10.5523 C   0  0  0  0  0  0  0  0  0  0  0  0
   24.6711  -21.5892  -10.4920 C   0  0  1  0  0  0  0  0  0  0  0  0
   23.8675  -21.6510  -11.8035 C   0  0  0  0  0  0  0  0  0  0  0  0
   22.6463  -20.8088  -11.5744 O   0  0  0  0  0  0  0  0  0  0  0  0
   22.6063  -19.6412  -12.0265 O   0  0  0  0  0  0  0  0  0  0  0  0
  2  1  1  0
  3  2  2  0
  4  2  1  0
  5  4  1  0
  6  5  1  0
  7  6  1  0
  8  7  1  0
  8  9  1  6
 10 11  2  0
 10  8  1  0
 12 10  1  0
 13 12  1  0
 13 14  1  1
 14 15  1  0
 16 15  1  0
 17 16  1  0
 18 17  1  0
 19 20  2  0
 19 13  1  0
 21 19  1  0
 22 21  1  0
 23 22  1  0
 24 23  1  0
 24 25  1  0
 25 26  1  1
 25 21  1  0
 26 28  1  0
 27 26  2  0
M  END
$$$$
