RKP.pdb
     RDKit          3D

 28 28  0  0  1  0  0  0  0  0999 V2000
   23.6503  -20.7860   -9.2791 N   0  0  0  0  0  0  0  0  0  0  0  0
   25.0122  -20.5875   -9.6588 C   0  0  0  0  0  0  0  0  0  0  0  0
   25.9602  -20.4863   -8.8043 N   0  0  0  0  0  0  0  0  0  0  0  0
   25.3049  -20.5018  -11.0388 N   0  0  0  0  0  0  0  0  0  0  0  0
   25.4514  -21.7194  -11.8370 C   0  0  0  0  0  0  0  0  0  0  0  0
   26.7084  -21.5474  -12.6389 C   0  0  0  0  0  0  0  0  0  0  0  0
   26.4965  -21.9977  -14.0517 C   0  0  0  0  0  0  0  0  0  0  0  0
   25.1179  -22.5380  -14.3199 C   0  0  2  0  0  0  0  0  0  0  0  0
   25.0725  -23.9652  -14.3592 N   0  0  0  0  0  0  0  0  0  0  0  0
   24.6649  -21.9330  -15.6165 C   0  0  0  0  0  0  0  0  0  0  0  0
   25.0614  -22.3351  -16.7343 O   0  0  0  0  0  0  0  0  0  0  0  0
   26.9380  -20.2799   -9.0726 N   0  0  0  0  0  0  0  0  0  0  0  0
   23.7247  -20.8266  -15.6437 C   0  0  2  0  0  0  0  0  0  0  0  0
   23.2502  -20.2791  -16.8564 C   0  0  0  0  0  0  0  0  0  0  0  0
   22.1171  -19.2723  -16.6410 C   0  0  0  0  0  0  0  0  0  0  0  0
   20.7920  -19.8546  -17.0526 C   0  0  0  0  0  0  0  0  0  0  0  0
   19.8253  -19.9564  -15.9025 C   0  0  0  0  0  0  0  0  0  0  0  0
   18.5065  -20.5937  -16.3338 N   0  0  0  0  0  0  0  0  0  0  0  0
   17.6296  -20.6453  -15.1527 C   0  0  0  0  0  0  0  0  0  0  0  0
   24.2824  -19.6803  -17.6941 O   0  0  0  0  0  0  0  0  0  0  0  0
   25.2295  -18.9927  -17.1002 N   0  0  0  0  0  0  0  0  0  0  0  0
   24.4267  -19.7250  -19.0834 C   0  0  0  0  0  0  0  0  0  0  0  0
   23.4895  -20.4170  -20.0186 C   0  0  0  0  0  0  0  0  0  0  0  0
   24.0248  -20.2370  -21.3902 C   0  0  0  0  0  0  0  0  0  0  0  0
   25.4920  -20.0390  -21.1572 C   0  0  1  0  0  0  0  0  0  0  0  0
   25.4532  -19.1481  -19.9024 C   0  0  0  0  0  0  0  0  0  0  0  0
   24.9639  -17.8077  -20.3680 O   0  0  0  0  0  0  0  0  0  0  0  0
   25.7500  -17.0342  -20.9620 O   0  0  0  0  0  0  0  0  0  0  0  0
  2  1  1  0
  3  2  2  0
  4  2  1  0
  5  4  1  0
  6  5  1  0
  7  6  1  0
  8  7  1  0
  8  9  1  6
 10 11  2  0
 10  8  1  0
 12 10  1  0
 13 12  1  0
 13 14  1  1
 14 15  1  0
 16 15  1  0
 17 16  1  0
 18 17  1  0
 19 20  2  0
 19 13  1  0
 21 19  1  0
 22 21  1  0
 23 22  1  0
 24 23  1  0
 24 25  1  0
 25 26  1  6
 25 21  1  0
 26 28  1  0
 27 26  2  0
M  END
$$$$
