RKP.pdb
     RDKit          3D

 28 28  0  0  1  0  0  0  0  0999 V2000
   13.4633  -25.4094    2.0526 N   0  0  0  0  0  0  0  0  0  0  0  0
   13.2954  -24.7311    0.8077 C   0  0  0  0  0  0  0  0  0  0  0  0
   12.6101  -25.2182   -0.1578 N   0  0  0  0  0  0  0  0  0  0  0  0
   13.9191  -23.4721    0.6549 N   0  0  0  0  0  0  0  0  0  0  0  0
   14.7761  -22.9417    1.7158 C   0  0  0  0  0  0  0  0  0  0  0  0
   15.3443  -21.6547    1.1929 C   0  0  0  0  0  0  0  0  0  0  0  0
   16.2868  -21.0529    2.1894 C   0  0  0  0  0  0  0  0  0  0  0  0
   16.7909  -19.6879    1.8059 C   0  0  2  0  0  0  0  0  0  0  0  0
   17.3954  -19.6562    0.5120 N   0  0  0  0  0  0  0  0  0  0  0  0
   17.7539  -19.2694    2.8781 C   0  0  0  0  0  0  0  0  0  0  0  0
   18.9556  -19.6214    2.8936 O   0  0  0  0  0  0  0  0  0  0  0  0
   12.4261  -24.6986   -1.0336 N   0  0  0  0  0  0  0  0  0  0  0  0
   17.3342  -18.4177    3.9770 C   0  0  2  0  0  0  0  0  0  0  0  0
   18.2473  -17.9413    4.9438 C   0  0  0  0  0  0  0  0  0  0  0  0
   17.7709  -16.6495    5.6133 C   0  0  0  0  0  0  0  0  0  0  0  0
   18.0632  -15.4535    4.7481 C   0  0  0  0  0  0  0  0  0  0  0  0
   17.6532  -14.1585    5.3977 C   0  0  0  0  0  0  0  0  0  0  0  0
   17.8944  -12.9671    4.4737 N   0  0  0  0  0  0  0  0  0  0  0  0
   17.4570  -11.7555    5.1859 C   0  0  0  0  0  0  0  0  0  0  0  0
   18.6087  -18.9162    5.9660 O   0  0  0  0  0  0  0  0  0  0  0  0
   17.6984  -19.7900    6.3269 N   0  0  0  0  0  0  0  0  0  0  0  0
   19.8184  -19.0716    6.6481 C   0  0  0  0  0  0  0  0  0  0  0  0
   21.0358  -18.2331    6.4321 C   0  0  0  0  0  0  0  0  0  0  0  0
   22.0908  -18.7483    7.3387 C   0  0  0  0  0  0  0  0  0  0  0  0
   21.6911  -20.1779    7.5446 C   0  0  1  0  0  0  0  0  0  0  0  0
   20.1644  -20.0218    7.6654 C   0  0  0  0  0  0  0  0  0  0  0  0
   19.9244  -19.3706    8.9964 O   0  0  0  0  0  0  0  0  0  0  0  0
   19.7036  -18.1388    9.0516 O   0  0  0  0  0  0  0  0  0  0  0  0
  2  1  1  0
  3  2  2  0
  4  2  1  0
  5  4  1  0
  6  5  1  0
  7  6  1  0
  8  7  1  0
  8  9  1  6
 10 11  2  0
 10  8  1  0
 12 10  1  0
 13 12  1  0
 13 14  1  6
 14 15  1  0
 16 15  1  0
 17 16  1  0
 18 17  1  0
 19 20  2  0
 19 13  1  0
 21 19  1  0
 22 21  1  0
 23 22  1  0
 24 23  1  0
 24 25  1  0
 25 26  1  1
 25 21  1  0
 26 28  1  0
 27 26  2  0
M  END
$$$$
