RKP.pdb
     RDKit          3D

 28 28  0  0  1  0  0  0  0  0999 V2000
   25.2124  -24.1921  -15.5028 N   0  0  0  0  0  0  0  0  0  0  0  0
   26.0966  -25.1735  -16.0444 C   0  0  0  0  0  0  0  0  0  0  0  0
   25.7182  -26.3632  -16.3281 N   0  0  0  0  0  0  0  0  0  0  0  0
   27.4401  -24.7966  -16.2688 N   0  0  0  0  0  0  0  0  0  0  0  0
   27.8605  -23.4107  -16.0593 C   0  0  0  0  0  0  0  0  0  0  0  0
   28.4188  -22.9383  -17.3700 C   0  0  0  0  0  0  0  0  0  0  0  0
   27.4081  -22.1126  -18.1049 C   0  0  0  0  0  0  0  0  0  0  0  0
   27.5980  -20.6287  -17.9431 C   0  0  2  0  0  0  0  0  0  0  0  0
   28.9661  -20.2260  -18.0244 N   0  0  0  0  0  0  0  0  0  0  0  0
   26.9891  -20.2599  -16.6219 C   0  0  0  0  0  0  0  0  0  0  0  0
   27.6698  -20.0125  -15.6003 O   0  0  0  0  0  0  0  0  0  0  0  0
   26.3509  -27.0697  -16.7420 N   0  0  0  0  0  0  0  0  0  0  0  0
   25.5493  -20.1696  -16.4550 C   0  0  2  0  0  0  0  0  0  0  0  0
   24.9638  -19.7101  -15.2543 C   0  0  0  0  0  0  0  0  0  0  0  0
   23.6867  -18.9014  -15.4972 C   0  0  0  0  0  0  0  0  0  0  0  0
   24.0054  -17.5516  -16.0811 C   0  0  0  0  0  0  0  0  0  0  0  0
   22.7687  -16.7861  -16.4711 C   0  0  0  0  0  0  0  0  0  0  0  0
   23.1188  -15.4724  -17.1661 N   0  0  0  0  0  0  0  0  0  0  0  0
   21.8643  -14.7318  -17.3766 C   0  0  0  0  0  0  0  0  0  0  0  0
   24.7006  -20.7546  -14.2718 O   0  0  0  0  0  0  0  0  0  0  0  0
   24.2697  -21.9135  -14.7116 N   0  0  0  0  0  0  0  0  0  0  0  0
   24.8399  -20.7134  -12.8819 C   0  0  0  0  0  0  0  0  0  0  0  0
   25.3049  -19.5258  -12.1039 C   0  0  0  0  0  0  0  0  0  0  0  0
   25.3279  -19.9188  -10.6737 C   0  0  0  0  0  0  0  0  0  0  0  0
   25.5067  -21.4056  -10.7346 C   0  0  1  0  0  0  0  0  0  0  0  0
   24.5838  -21.7451  -11.9189 C   0  0  0  0  0  0  0  0  0  0  0  0
   23.1833  -21.5569  -11.4125 O   0  0  0  0  0  0  0  0  0  0  0  0
   22.5663  -20.4995  -11.6780 O   0  0  0  0  0  0  0  0  0  0  0  0
  2  1  1  0
  3  2  2  0
  4  2  1  0
  5  4  1  0
  6  5  1  0
  7  6  1  0
  8  7  1  0
  8  9  1  1
 10 11  2  0
 10  8  1  0
 12 10  1  0
 13 12  1  0
 13 14  1  6
 14 15  1  0
 16 15  1  0
 17 16  1  0
 18 17  1  0
 19 20  2  0
 19 13  1  0
 21 19  1  0
 22 21  1  0
 23 22  1  0
 24 23  1  0
 24 25  1  0
 25 26  1  1
 25 21  1  0
 26 28  1  0
 27 26  2  0
M  END
$$$$
