RKP.pdb
     RDKit          3D

 28 28  0  0  1  0  0  0  0  0999 V2000
   16.8910  -19.0978  -14.0725 N   0  0  0  0  0  0  0  0  0  0  0  0
   16.3505  -19.4771  -15.3383 C   0  0  0  0  0  0  0  0  0  0  0  0
   15.5125  -20.4356  -15.4727 N   0  0  0  0  0  0  0  0  0  0  0  0
   16.7703  -18.7527  -16.4769 N   0  0  0  0  0  0  0  0  0  0  0  0
   17.8567  -17.7783  -16.3699 C   0  0  0  0  0  0  0  0  0  0  0  0
   17.2338  -16.4294  -16.5824 C   0  0  0  0  0  0  0  0  0  0  0  0
   18.2429  -15.3441  -16.3648 C   0  0  0  0  0  0  0  0  0  0  0  0
   19.2980  -15.2682  -17.4350 C   0  0  2  0  0  0  0  0  0  0  0  0
   19.9245  -16.5252  -17.6956 N   0  0  0  0  0  0  0  0  0  0  0  0
   20.2910  -14.2363  -16.9859 C   0  0  0  0  0  0  0  0  0  0  0  0
   21.0673  -14.4096  -16.0187 O   0  0  0  0  0  0  0  0  0  0  0  0
   15.1372  -20.7283  -16.3916 N   0  0  0  0  0  0  0  0  0  0  0  0
   20.4055  -12.9564  -17.6624 C   0  0  2  0  0  0  0  0  0  0  0  0
   21.3784  -12.0008  -17.2936 C   0  0  0  0  0  0  0  0  0  0  0  0
   21.7353  -11.0544  -18.4429 C   0  0  0  0  0  0  0  0  0  0  0  0
   20.6018  -10.1088  -18.7352 C   0  0  0  0  0  0  0  0  0  0  0  0
   20.9301   -9.1403  -19.8405 C   0  0  0  0  0  0  0  0  0  0  0  0
   19.8024   -8.1339  -20.0570 N   0  0  0  0  0  0  0  0  0  0  0  0
   20.1564   -7.3132  -21.2265 C   0  0  0  0  0  0  0  0  0  0  0  0
   21.0421  -11.2229  -16.1072 O   0  0  0  0  0  0  0  0  0  0  0  0
   19.7713  -11.0413  -15.8347 N   0  0  0  0  0  0  0  0  0  0  0  0
   21.8935  -10.6166  -15.1796 C   0  0  0  0  0  0  0  0  0  0  0  0
   23.3786  -10.5250  -15.3142 C   0  0  0  0  0  0  0  0  0  0  0  0
   23.8872   -9.8291  -14.1070 C   0  0  0  0  0  0  0  0  0  0  0  0
   22.8330  -10.1173  -13.0814 C   0  0  1  0  0  0  0  0  0  0  0  0
   21.5651   -9.9705  -13.9419 C   0  0  0  0  0  0  0  0  0  0  0  0
   21.4268   -8.5016  -14.2184 O   0  0  0  0  0  0  0  0  0  0  0  0
   21.7168   -8.0556  -15.3525 O   0  0  0  0  0  0  0  0  0  0  0  0
  2  1  1  0
  3  2  2  0
  4  2  1  0
  5  4  1  0
  6  5  1  0
  7  6  1  0
  8  7  1  0
  8  9  1  1
 10 11  2  0
 10  8  1  0
 12 10  1  0
 13 12  1  0
 13 14  1  6
 14 15  1  0
 16 15  1  0
 17 16  1  0
 18 17  1  0
 19 20  2  0
 19 13  1  0
 21 19  1  0
 22 21  1  0
 23 22  1  0
 24 23  1  0
 24 25  1  0
 25 26  1  6
 25 21  1  0
 26 28  1  0
 27 26  2  0
M  END
$$$$
