RKP.pdb
     RDKit          3D

 28 28  0  0  1  0  0  0  0  0999 V2000
   22.1143  -22.1676  -14.5424 N   0  0  0  0  0  0  0  0  0  0  0  0
   21.0272  -21.7403  -13.7216 C   0  0  0  0  0  0  0  0  0  0  0  0
   19.8025  -21.9301  -14.0429 N   0  0  0  0  0  0  0  0  0  0  0  0
   21.3365  -21.0830  -12.5093 N   0  0  0  0  0  0  0  0  0  0  0  0
   22.5095  -21.4853  -11.7324 C   0  0  0  0  0  0  0  0  0  0  0  0
   23.4078  -20.2844  -11.6754 C   0  0  0  0  0  0  0  0  0  0  0  0
   24.7549  -20.6604  -11.1393 C   0  0  0  0  0  0  0  0  0  0  0  0
   25.3301  -21.9076  -11.7540 C   0  0  2  0  0  0  0  0  0  0  0  0
   26.2566  -22.5789  -10.8986 N   0  0  0  0  0  0  0  0  0  0  0  0
   25.9694  -21.4930  -13.0470 C   0  0  0  0  0  0  0  0  0  0  0  0
   26.9475  -20.7133  -13.1072 O   0  0  0  0  0  0  0  0  0  0  0  0
   19.0127  -21.6401  -13.4404 N   0  0  0  0  0  0  0  0  0  0  0  0
   25.4769  -21.9833  -14.3221 C   0  0  2  0  0  0  0  0  0  0  0  0
   26.0476  -21.5781  -15.5492 C   0  0  0  0  0  0  0  0  0  0  0  0
   25.5136  -22.3821  -16.7376 C   0  0  0  0  0  0  0  0  0  0  0  0
   26.5736  -23.2956  -17.2912 C   0  0  0  0  0  0  0  0  0  0  0  0
   26.7009  -24.5735  -16.5050 C   0  0  0  0  0  0  0  0  0  0  0  0
   27.7783  -25.4850  -17.0878 N   0  0  0  0  0  0  0  0  0  0  0  0
   27.8583  -26.6818  -16.2347 C   0  0  0  0  0  0  0  0  0  0  0  0
   25.9266  -20.1526  -15.8306 O   0  0  0  0  0  0  0  0  0  0  0  0
   24.7930  -19.5638  -15.5298 N   0  0  0  0  0  0  0  0  0  0  0  0
   26.8642  -19.2818  -16.3924 C   0  0  0  0  0  0  0  0  0  0  0  0
   28.2581  -19.6580  -16.7762 C   0  0  0  0  0  0  0  0  0  0  0  0
   28.9118  -18.4375  -17.3086 C   0  0  0  0  0  0  0  0  0  0  0  0
   28.1531  -17.3298  -16.6428 C   0  0  1  0  0  0  0  0  0  0  0  0
   26.7222  -17.8923  -16.7188 C   0  0  0  0  0  0  0  0  0  0  0  0
   26.3244  -17.8030  -18.1634 O   0  0  0  0  0  0  0  0  0  0  0  0
   26.3629  -18.8295  -18.8804 O   0  0  0  0  0  0  0  0  0  0  0  0
  2  1  1  0
  3  2  2  0
  4  2  1  0
  5  4  1  0
  6  5  1  0
  7  6  1  0
  8  7  1  0
  8  9  1  1
 10 11  2  0
 10  8  1  0
 12 10  1  0
 13 12  1  0
 13 14  1  1
 14 15  1  0
 16 15  1  0
 17 16  1  0
 18 17  1  0
 19 20  2  0
 19 13  1  0
 21 19  1  0
 22 21  1  0
 23 22  1  0
 24 23  1  0
 24 25  1  0
 25 26  1  6
 25 21  1  0
 26 28  1  0
 27 26  2  0
M  END
$$$$
