RKP.pdb
     RDKit          3D

 28 28  0  0  1  0  0  0  0  0999 V2000
   17.5580  -20.0015  -15.6617 N   0  0  0  0  0  0  0  0  0  0  0  0
   17.1364  -20.8878  -16.6985 C   0  0  0  0  0  0  0  0  0  0  0  0
   15.9062  -21.0423  -17.0177 N   0  0  0  0  0  0  0  0  0  0  0  0
   18.1327  -21.6150  -17.3883 N   0  0  0  0  0  0  0  0  0  0  0  0
   19.5318  -21.5262  -16.9690 C   0  0  0  0  0  0  0  0  0  0  0  0
   20.1566  -20.4550  -17.8143 C   0  0  0  0  0  0  0  0  0  0  0  0
   21.3958  -19.9253  -17.1607 C   0  0  0  0  0  0  0  0  0  0  0  0
   21.4013  -20.0611  -15.6621 C   0  0  2  0  0  0  0  0  0  0  0  0
   20.4130  -19.2524  -15.0218 N   0  0  0  0  0  0  0  0  0  0  0  0
   22.7867  -19.7096  -15.2045 C   0  0  0  0  0  0  0  0  0  0  0  0
   23.4172  -18.7161  -15.6332 O   0  0  0  0  0  0  0  0  0  0  0  0
   15.6008  -21.6496  -17.7979 N   0  0  0  0  0  0  0  0  0  0  0  0
   23.4837  -20.5201  -14.2215 C   0  0  1  0  0  0  0  0  0  0  0  0
   24.8199  -20.2556  -13.8472 C   0  0  0  0  0  0  0  0  0  0  0  0
   25.2023  -20.9279  -12.5259 C   0  0  0  0  0  0  0  0  0  0  0  0
   24.3428  -20.4269  -11.3968 C   0  0  0  0  0  0  0  0  0  0  0  0
   24.6566  -21.1048  -10.0894 C   0  0  0  0  0  0  0  0  0  0  0  0
   23.8013  -20.5516   -8.9520 N   0  0  0  0  0  0  0  0  0  0  0  0
   24.1382  -21.3061   -7.7339 C   0  0  0  0  0  0  0  0  0  0  0  0
   25.8095  -20.5844  -14.8663 O   0  0  0  0  0  0  0  0  0  0  0  0
   25.6123  -21.6651  -15.5843 N   0  0  0  0  0  0  0  0  0  0  0  0
   26.9800  -19.9033  -15.2113 C   0  0  0  0  0  0  0  0  0  0  0  0
   27.5783  -18.7804  -14.4283 C   0  0  0  0  0  0  0  0  0  0  0  0
   28.7930  -18.3365  -15.1549 C   0  0  0  0  0  0  0  0  0  0  0  0
   28.5059  -18.7372  -16.5701 C   0  0  1  0  0  0  0  0  0  0  0  0
   27.8430  -20.1072  -16.3387 C   0  0  0  0  0  0  0  0  0  0  0  0
   28.9470  -21.0273  -15.9057 O   0  0  0  0  0  0  0  0  0  0  0  0
   29.8157  -21.3845  -16.7346 O   0  0  0  0  0  0  0  0  0  0  0  0
  2  1  1  0
  3  2  2  0
  4  2  1  0
  5  4  1  0
  6  5  1  0
  7  6  1  0
  8  7  1  0
  8  9  1  1
 10 11  2  0
 10  8  1  0
 12 10  1  0
 13 12  1  0
 13 14  1  1
 14 15  1  0
 16 15  1  0
 17 16  1  0
 18 17  1  0
 19 20  2  0
 19 13  1  0
 21 19  1  0
 22 21  1  0
 23 22  1  0
 24 23  1  0
 24 25  1  0
 25 26  1  1
 25 21  1  0
 26 28  1  0
 27 26  2  0
M  END
$$$$
