RKP.pdb
     RDKit          3D

 28 28  0  0  1  0  0  0  0  0999 V2000
   26.5247  -20.7598  -10.2794 N   0  0  0  0  0  0  0  0  0  0  0  0
   26.3789  -21.7045  -11.3398 C   0  0  0  0  0  0  0  0  0  0  0  0
   25.4405  -22.5752  -11.3654 N   0  0  0  0  0  0  0  0  0  0  0  0
   27.3186  -21.6605  -12.3944 N   0  0  0  0  0  0  0  0  0  0  0  0
   28.3834  -20.6568  -12.3900 C   0  0  0  0  0  0  0  0  0  0  0  0
   28.5073  -20.1694  -13.8042 C   0  0  0  0  0  0  0  0  0  0  0  0
   27.2015  -19.6160  -14.2858 C   0  0  0  0  0  0  0  0  0  0  0  0
   27.2312  -19.1340  -15.7110 C   0  0  2  0  0  0  0  0  0  0  0  0
   28.3117  -18.2386  -15.9781 N   0  0  0  0  0  0  0  0  0  0  0  0
   25.9007  -18.4916  -15.9744 C   0  0  0  0  0  0  0  0  0  0  0  0
   25.4063  -17.6129  -15.2315 O   0  0  0  0  0  0  0  0  0  0  0  0
   25.3570  -23.2886  -12.1103 N   0  0  0  0  0  0  0  0  0  0  0  0
   25.0997  -18.8633  -17.1273 C   0  0  2  0  0  0  0  0  0  0  0  0
   23.7995  -18.3498  -17.3307 C   0  0  0  0  0  0  0  0  0  0  0  0
   23.4541  -18.2001  -18.8146 C   0  0  0  0  0  0  0  0  0  0  0  0
   23.2354  -16.7555  -19.1749 C   0  0  0  0  0  0  0  0  0  0  0  0
   22.9084  -16.5686  -20.6329 C   0  0  0  0  0  0  0  0  0  0  0  0
   22.7503  -15.0918  -20.9867 N   0  0  0  0  0  0  0  0  0  0  0  0
   22.4970  -15.0052  -22.4341 C   0  0  0  0  0  0  0  0  0  0  0  0
   22.7431  -19.0949  -16.6564 O   0  0  0  0  0  0  0  0  0  0  0  0
   22.8728  -20.3980  -16.5705 N   0  0  0  0  0  0  0  0  0  0  0  0
   21.5690  -18.6209  -16.0651 C   0  0  0  0  0  0  0  0  0  0  0  0
   21.1061  -17.2010  -16.1013 C   0  0  0  0  0  0  0  0  0  0  0  0
   19.8363  -17.1330  -15.3376 C   0  0  0  0  0  0  0  0  0  0  0  0
   19.9478  -18.2908  -14.3925 C   0  0  1  0  0  0  0  0  0  0  0  0
   20.5783  -19.3441  -15.3214 C   0  0  0  0  0  0  0  0  0  0  0  0
   19.4943  -19.7455  -16.2789 O   0  0  0  0  0  0  0  0  0  0  0  0
   19.4892  -19.2757  -17.4401 O   0  0  0  0  0  0  0  0  0  0  0  0
  2  1  1  0
  3  2  2  0
  4  2  1  0
  5  4  1  0
  6  5  1  0
  7  6  1  0
  8  7  1  0
  8  9  1  1
 10 11  2  0
 10  8  1  0
 12 10  1  0
 13 12  1  0
 13 14  1  6
 14 15  1  0
 16 15  1  0
 17 16  1  0
 18 17  1  0
 19 20  2  0
 19 13  1  0
 21 19  1  0
 22 21  1  0
 23 22  1  0
 24 23  1  0
 24 25  1  0
 25 26  1  6
 25 21  1  0
 26 28  1  0
 27 26  2  0
M  END
$$$$
