RKP.pdb
     RDKit          3D

 28 28  0  0  1  0  0  0  0  0999 V2000
   28.8341  -28.9192  -16.3956 N   0  0  0  0  0  0  0  0  0  0  0  0
   27.4426  -29.2267  -16.4814 C   0  0  0  0  0  0  0  0  0  0  0  0
   26.9588  -30.3510  -16.1057 N   0  0  0  0  0  0  0  0  0  0  0  0
   26.5808  -28.2367  -17.0054 N   0  0  0  0  0  0  0  0  0  0  0  0
   27.1299  -27.0988  -17.7436 C   0  0  0  0  0  0  0  0  0  0  0  0
   27.3628  -26.0147  -16.7322 C   0  0  0  0  0  0  0  0  0  0  0  0
   26.2825  -24.9803  -16.8121 C   0  0  0  0  0  0  0  0  0  0  0  0
   26.7507  -23.6474  -17.3303 C   0  0  2  0  0  0  0  0  0  0  0  0
   28.1667  -23.5795  -17.5057 N   0  0  0  0  0  0  0  0  0  0  0  0
   26.2622  -22.6136  -16.3581 C   0  0  0  0  0  0  0  0  0  0  0  0
   26.9571  -22.1856  -15.4082 O   0  0  0  0  0  0  0  0  0  0  0  0
   25.9462  -30.5624  -16.1296 N   0  0  0  0  0  0  0  0  0  0  0  0
   24.9308  -22.0445  -16.4693 C   0  0  2  0  0  0  0  0  0  0  0  0
   24.4485  -21.0868  -15.5496 C   0  0  0  0  0  0  0  0  0  0  0  0
   23.2596  -20.2938  -16.0989 C   0  0  0  0  0  0  0  0  0  0  0  0
   22.7784  -19.2793  -15.0970 C   0  0  0  0  0  0  0  0  0  0  0  0
   21.3163  -19.4376  -14.7738 C   0  0  0  0  0  0  0  0  0  0  0  0
   20.8336  -18.3516  -13.8152 N   0  0  0  0  0  0  0  0  0  0  0  0
   19.3782  -18.5083  -13.6611 C   0  0  0  0  0  0  0  0  0  0  0  0
   24.1115  -21.6253  -14.2373 O   0  0  0  0  0  0  0  0  0  0  0  0
   23.2413  -22.6061  -14.1836 N   0  0  0  0  0  0  0  0  0  0  0  0
   24.5878  -21.2458  -12.9794 C   0  0  0  0  0  0  0  0  0  0  0  0
   25.6001  -20.1746  -12.7359 C   0  0  0  0  0  0  0  0  0  0  0  0
   25.8333  -20.1150  -11.2721 C   0  0  0  0  0  0  0  0  0  0  0  0
   25.4785  -21.4979  -10.8167 C   0  0  1  0  0  0  0  0  0  0  0  0
   24.2383  -21.7647  -11.6887 C   0  0  0  0  0  0  0  0  0  0  0  0
   23.1504  -20.8954  -11.1285 O   0  0  0  0  0  0  0  0  0  0  0  0
   22.8407  -19.8346  -11.7184 O   0  0  0  0  0  0  0  0  0  0  0  0
  2  1  1  0
  3  2  2  0
  4  2  1  0
  5  4  1  0
  6  5  1  0
  7  6  1  0
  8  7  1  0
  8  9  1  1
 10 11  2  0
 10  8  1  0
 12 10  1  0
 13 12  1  0
 13 14  1  6
 14 15  1  0
 16 15  1  0
 17 16  1  0
 18 17  1  0
 19 20  2  0
 19 13  1  0
 21 19  1  0
 22 21  1  0
 23 22  1  0
 24 23  1  0
 24 25  1  0
 25 26  1  1
 25 21  1  0
 26 28  1  0
 27 26  2  0
M  END
$$$$
