TVG.pdb
     RDKit          3D

 19 18  0  0  1  0  0  0  0  0999 V2000
    7.1160  -20.0505   27.4691 C   0  0  0  0  0  0  0  0  0  0  0  0
    7.6336  -18.8538   26.6739 C   0  0  1  0  0  0  0  0  0  0  0  0
    8.4918  -19.3532   25.6823 O   0  0  0  0  0  0  0  0  0  0  0  0
    6.4065  -18.2643   25.9720 C   0  0  2  0  0  0  0  0  0  0  0  0
    5.8799  -19.2856   25.1177 N   0  0  0  0  0  0  0  0  0  0  0  0
    6.7412  -17.0292   25.2635 C   0  0  0  0  0  0  0  0  0  0  0  0
    6.7592  -17.0185   24.0117 O   0  0  0  0  0  0  0  0  0  0  0  0
    5.7399  -13.3316   26.0718 C   0  0  0  0  0  0  0  0  0  0  0  0
    7.2437  -13.4413   26.0836 C   0  0  2  0  0  0  0  0  0  0  0  0
    7.8284  -12.1841   25.5214 C   0  0  0  0  0  0  0  0  0  0  0  0
    7.6537  -14.6771   25.3049 C   0  0  2  0  0  0  0  0  0  0  0  0
    7.0505  -15.8259   25.9472 N   0  0  0  0  0  0  0  0  0  0  0  0
    9.1125  -14.8036   25.1764 C   0  0  0  0  0  0  0  0  0  0  0  0
    9.8295  -14.8645   26.2049 O   0  0  0  0  0  0  0  0  0  0  0  0
    9.7395  -14.8592   23.9092 N   0  0  0  0  0  0  0  0  0  0  0  0
   11.1978  -14.9701   23.8256 C   0  0  0  0  0  0  0  0  0  0  0  0
   11.5679  -16.0574   22.8902 C   0  0  0  0  0  0  0  0  0  0  0  0
   11.3022  -17.2408   23.2234 O   0  0  0  0  0  0  0  0  0  0  0  0
   12.1840  -15.8070   21.6879 O   0  0  0  0  0  0  0  0  0  0  0  0
  2  1  1  1
  2  3  1  0
  4  5  1  6
  4  2  1  0
  6  4  1  0
  7  6  2  0
  9  8  1  6
  9 11  1  0
 10  9  1  0
 11 12  1  1
 11 13  1  0
 12  6  1  0
 13 15  1  0
 14 13  2  0
 15 16  1  0
 16 17  1  0
 17 19  1  0
 18 17  2  0
M  END
$$$$
