TVG.pdb
     RDKit          3D

 19 18  0  0  1  0  0  0  0  0999 V2000
    9.2346  -19.2330   20.1674 C   0  0  0  0  0  0  0  0  0  0  0  0
    9.9698  -18.9302   18.8634 C   0  0  1  0  0  0  0  0  0  0  0  0
    9.7309  -20.0042   17.9924 O   0  0  0  0  0  0  0  0  0  0  0  0
    9.2781  -17.6953   18.2782 C   0  0  2  0  0  0  0  0  0  0  0  0
    9.7036  -17.5811   16.9158 N   0  0  0  0  0  0  0  0  0  0  0  0
    9.5565  -16.5015   19.0762 C   0  0  0  0  0  0  0  0  0  0  0  0
   10.6683  -15.9344   18.9754 O   0  0  0  0  0  0  0  0  0  0  0  0
    7.1682  -13.4823   19.3036 C   0  0  0  0  0  0  0  0  0  0  0  0
    7.4783  -13.9656   20.6978 C   0  0  2  0  0  0  0  0  0  0  0  0
    7.4830  -12.7950   21.6295 C   0  0  0  0  0  0  0  0  0  0  0  0
    8.8030  -14.7049   20.6796 C   0  0  2  0  0  0  0  0  0  0  0  0
    8.6045  -15.9525   19.9723 N   0  0  0  0  0  0  0  0  0  0  0  0
    9.3565  -14.9019   22.0270 C   0  0  0  0  0  0  0  0  0  0  0  0
    9.8151  -13.9233   22.6656 O   0  0  0  0  0  0  0  0  0  0  0  0
    9.3873  -16.1804   22.6324 N   0  0  0  0  0  0  0  0  0  0  0  0
    9.8340  -16.3150   24.0210 C   0  0  0  0  0  0  0  0  0  0  0  0
   11.2770  -16.6477   24.0563 C   0  0  0  0  0  0  0  0  0  0  0  0
   12.1035  -15.7179   23.8715 O   0  0  0  0  0  0  0  0  0  0  0  0
   11.7251  -17.9268   24.2824 O   0  0  0  0  0  0  0  0  0  0  0  0
  2  1  1  1
  2  3  1  0
  4  5  1  6
  4  2  1  0
  6  4  1  0
  7  6  2  0
  9  8  1  6
  9 11  1  0
 10  9  1  0
 11 12  1  1
 11 13  1  0
 12  6  1  0
 13 15  1  0
 14 13  2  0
 15 16  1  0
 16 17  1  0
 17 19  1  0
 18 17  2  0
M  END
$$$$
