TVG.pdb
     RDKit          3D

 19 18  0  0  1  0  0  0  0  0999 V2000
    6.1725  -16.8956   22.2424 C   0  0  0  0  0  0  0  0  0  0  0  0
    7.2205  -16.2620   21.3300 C   0  0  1  0  0  0  0  0  0  0  0  0
    6.7927  -16.4563   20.0077 O   0  0  0  0  0  0  0  0  0  0  0  0
    7.1639  -14.7591   21.6200 C   0  0  2  0  0  0  0  0  0  0  0  0
    7.7859  -14.0940   20.5150 N   0  0  0  0  0  0  0  0  0  0  0  0
    7.7778  -14.4427   22.9093 C   0  0  0  0  0  0  0  0  0  0  0  0
    9.0254  -14.4295   23.0148 O   0  0  0  0  0  0  0  0  0  0  0  0
    6.5067  -11.8010   25.2873 C   0  0  0  0  0  0  0  0  0  0  0  0
    6.7335  -13.0130   26.1552 C   0  0  2  0  0  0  0  0  0  0  0  0
    7.3770  -12.5820   27.4353 C   0  0  0  0  0  0  0  0  0  0  0  0
    7.5715  -14.0185   25.3880 C   0  0  2  0  0  0  0  0  0  0  0  0
    7.0060  -14.1460   24.0613 N   0  0  0  0  0  0  0  0  0  0  0  0
    7.6780  -15.3094   26.0827 C   0  0  0  0  0  0  0  0  0  0  0  0
    6.6495  -16.0014   26.2810 O   0  0  0  0  0  0  0  0  0  0  0  0
    8.9236  -15.8006   26.5403 N   0  0  0  0  0  0  0  0  0  0  0  0
    8.9958  -17.1218   27.1689 C   0  0  0  0  0  0  0  0  0  0  0  0
    9.9209  -17.0800   28.3250 C   0  0  0  0  0  0  0  0  0  0  0  0
   10.5427  -16.0095   28.5471 O   0  0  0  0  0  0  0  0  0  0  0  0
   10.1120  -18.1653   29.1458 O   0  0  0  0  0  0  0  0  0  0  0  0
  2  1  1  1
  2  3  1  0
  4  5  1  6
  4  2  1  0
  6  4  1  0
  7  6  2  0
  9  8  1  6
  9 11  1  0
 10  9  1  0
 11 12  1  6
 11 13  1  0
 12  6  1  0
 13 15  1  0
 14 13  2  0
 15 16  1  0
 16 17  1  0
 17 19  1  0
 18 17  2  0
M  END
$$$$
