TVG.pdb
     RDKit          3D

 19 18  0  0  1  0  0  0  0  0999 V2000
    7.4904  -19.2637   20.0644 C   0  0  0  0  0  0  0  0  0  0  0  0
    7.9794  -19.1060   18.6262 C   0  0  1  0  0  0  0  0  0  0  0  0
    7.2916  -20.0491   17.8474 O   0  0  0  0  0  0  0  0  0  0  0  0
    7.5175  -17.7139   18.1848 C   0  0  2  0  0  0  0  0  0  0  0  0
    7.6650  -17.6536   16.7619 N   0  0  0  0  0  0  0  0  0  0  0  0
    8.2493  -16.6621   18.8903 C   0  0  0  0  0  0  0  0  0  0  0  0
    9.4395  -16.4232   18.5837 O   0  0  0  0  0  0  0  0  0  0  0  0
    7.1982  -13.0826   19.6929 C   0  0  0  0  0  0  0  0  0  0  0  0
    7.5047  -13.7588   21.0052 C   0  0  2  0  0  0  0  0  0  0  0  0
    8.1297  -12.7640   21.9316 C   0  0  0  0  0  0  0  0  0  0  0  0
    8.3972  -14.9578   20.7449 C   0  0  2  0  0  0  0  0  0  0  0  0
    7.6566  -15.8910   19.9223 N   0  0  0  0  0  0  0  0  0  0  0  0
    8.8939  -15.5700   21.9855 C   0  0  0  0  0  0  0  0  0  0  0  0
    8.0841  -16.0526   22.8145 O   0  0  0  0  0  0  0  0  0  0  0  0
   10.2775  -15.6313   22.2756 N   0  0  0  0  0  0  0  0  0  0  0  0
   10.7319  -16.2742   23.5109 C   0  0  0  0  0  0  0  0  0  0  0  0
   12.2025  -16.1465   23.6341 C   0  0  0  0  0  0  0  0  0  0  0  0
   12.8531  -15.7923   22.6176 O   0  0  0  0  0  0  0  0  0  0  0  0
   12.8606  -16.4016   24.8131 O   0  0  0  0  0  0  0  0  0  0  0  0
  2  1  1  1
  2  3  1  0
  4  5  1  6
  4  2  1  0
  6  4  1  0
  7  6  2  0
  9  8  1  6
  9 11  1  0
 10  9  1  0
 11 12  1  1
 11 13  1  0
 12  6  1  0
 13 15  1  0
 14 13  2  0
 15 16  1  0
 16 17  1  0
 17 19  1  0
 18 17  2  0
M  END
$$$$
