TVG.pdb
     RDKit          3D

 19 18  0  0  1  0  0  0  0  0999 V2000
    6.4320  -17.0233   22.3308 C   0  0  0  0  0  0  0  0  0  0  0  0
    7.1824  -16.2067   21.2807 C   0  0  1  0  0  0  0  0  0  0  0  0
    6.5443  -16.4252   20.0501 O   0  0  0  0  0  0  0  0  0  0  0  0
    6.9613  -14.7405   21.6643 C   0  0  2  0  0  0  0  0  0  0  0  0
    7.2761  -13.9522   20.5111 N   0  0  0  0  0  0  0  0  0  0  0  0
    7.7407  -14.3769   22.8474 C   0  0  0  0  0  0  0  0  0  0  0  0
    8.9619  -14.1262   22.7318 O   0  0  0  0  0  0  0  0  0  0  0  0
    6.5279  -12.0511   25.5822 C   0  0  0  0  0  0  0  0  0  0  0  0
    7.0603  -13.2654   26.3001 C   0  0  2  0  0  0  0  0  0  0  0  0
    7.8025  -12.8230   27.5215 C   0  0  0  0  0  0  0  0  0  0  0  0
    7.9283  -14.0617   25.3438 C   0  0  2  0  0  0  0  0  0  0  0  0
    7.1606  -14.2957   24.1389 N   0  0  0  0  0  0  0  0  0  0  0  0
    8.4314  -15.3060   25.9432 C   0  0  0  0  0  0  0  0  0  0  0  0
    7.6315  -16.2265   26.2410 O   0  0  0  0  0  0  0  0  0  0  0  0
    9.8101  -15.4979   26.1972 N   0  0  0  0  0  0  0  0  0  0  0  0
   10.3022  -16.8286   26.5617 C   0  0  0  0  0  0  0  0  0  0  0  0
   10.3364  -16.9670   28.0361 C   0  0  0  0  0  0  0  0  0  0  0  0
    9.9227  -16.0035   28.7307 O   0  0  0  0  0  0  0  0  0  0  0  0
   10.8015  -18.1042   28.6513 O   0  0  0  0  0  0  0  0  0  0  0  0
  2  1  1  1
  2  3  1  0
  4  5  1  6
  4  2  1  0
  6  4  1  0
  7  6  2  0
  9  8  1  6
  9 11  1  0
 10  9  1  0
 11 12  1  6
 11 13  1  0
 12  6  1  0
 13 15  1  0
 14 13  2  0
 15 16  1  0
 16 17  1  0
 17 19  1  0
 18 17  2  0
M  END
$$$$
