TVG.pdb
     RDKit          3D

 19 18  0  0  1  0  0  0  0  0999 V2000
    6.0262  -17.5525   23.4067 C   0  0  0  0  0  0  0  0  0  0  0  0
    6.4851  -16.8895   22.1097 C   0  0  1  0  0  0  0  0  0  0  0  0
    5.6471  -17.3558   21.0853 O   0  0  0  0  0  0  0  0  0  0  0  0
    6.2081  -15.3941   22.2914 C   0  0  2  0  0  0  0  0  0  0  0  0
    6.2042  -14.8056   20.9862 N   0  0  0  0  0  0  0  0  0  0  0  0
    7.1740  -14.7811   23.2028 C   0  0  0  0  0  0  0  0  0  0  0  0
    8.3141  -14.4771   22.7840 O   0  0  0  0  0  0  0  0  0  0  0  0
    6.1910  -12.1479   25.8373 C   0  0  0  0  0  0  0  0  0  0  0  0
    7.0471  -13.1720   26.5386 C   0  0  2  0  0  0  0  0  0  0  0  0
    7.9390  -12.4743   27.5163 C   0  0  0  0  0  0  0  0  0  0  0  0
    7.8212  -13.9615   25.4997 C   0  0  2  0  0  0  0  0  0  0  0  0
    6.8670  -14.5134   24.5611 N   0  0  0  0  0  0  0  0  0  0  0  0
    8.6816  -14.9907   26.1006 C   0  0  0  0  0  0  0  0  0  0  0  0
    8.2238  -15.7501   26.9892 O   0  0  0  0  0  0  0  0  0  0  0  0
   10.0293  -15.1515   25.7004 N   0  0  0  0  0  0  0  0  0  0  0  0
   10.8768  -16.1319   26.3834 C   0  0  0  0  0  0  0  0  0  0  0  0
   12.2185  -16.1618   25.7566 C   0  0  0  0  0  0  0  0  0  0  0  0
   12.4260  -15.4147   24.7663 O   0  0  0  0  0  0  0  0  0  0  0  0
   13.2241  -16.9731   26.2243 O   0  0  0  0  0  0  0  0  0  0  0  0
  2  1  1  1
  2  3  1  0
  4  5  1  6
  4  2  1  0
  6  4  1  0
  7  6  2  0
  9  8  1  6
  9 11  1  0
 10  9  1  0
 11 12  1  6
 11 13  1  0
 12  6  1  0
 13 15  1  0
 14 13  2  0
 15 16  1  0
 16 17  1  0
 17 19  1  0
 18 17  2  0
M  END
$$$$
