TVG.pdb
     RDKit          3D

 19 18  0  0  1  0  0  0  0  0999 V2000
    6.4857  -16.8731   22.6385 C   0  0  0  0  0  0  0  0  0  0  0  0
    7.1962  -16.1035   21.5270 C   0  0  1  0  0  0  0  0  0  0  0  0
    6.4826  -16.3331   20.3407 O   0  0  0  0  0  0  0  0  0  0  0  0
    7.0373  -14.6229   21.8851 C   0  0  2  0  0  0  0  0  0  0  0  0
    7.3302  -13.8706   20.7025 N   0  0  0  0  0  0  0  0  0  0  0  0
    7.8748  -14.2591   23.0278 C   0  0  0  0  0  0  0  0  0  0  0  0
    9.0925  -14.0256   22.8539 O   0  0  0  0  0  0  0  0  0  0  0  0
    6.1772  -13.3444   26.8464 C   0  0  0  0  0  0  0  0  0  0  0  0
    7.4695  -12.7872   26.3052 C   0  0  2  0  0  0  0  0  0  0  0  0
    7.1719  -11.5652   25.4949 C   0  0  0  0  0  0  0  0  0  0  0  0
    8.1728  -13.8654   25.5022 C   0  0  2  0  0  0  0  0  0  0  0  0
    7.3557  -14.1589   24.3436 N   0  0  0  0  0  0  0  0  0  0  0  0
    8.4674  -15.0622   26.3030 C   0  0  0  0  0  0  0  0  0  0  0  0
    7.5426  -15.8526   26.6126 O   0  0  0  0  0  0  0  0  0  0  0  0
    9.7814  -15.3523   26.7406 N   0  0  0  0  0  0  0  0  0  0  0  0
   10.0927  -16.6822   27.2700 C   0  0  0  0  0  0  0  0  0  0  0  0
   10.3281  -16.6010   28.7302 C   0  0  0  0  0  0  0  0  0  0  0  0
   10.0301  -15.5304   29.3191 O   0  0  0  0  0  0  0  0  0  0  0  0
   10.8553  -17.6505   29.4434 O   0  0  0  0  0  0  0  0  0  0  0  0
  2  1  1  1
  2  3  1  0
  4  5  1  6
  4  2  1  0
  6  4  1  0
  7  6  2  0
  9  8  1  6
  9 11  1  0
 10  9  1  0
 11 12  1  6
 11 13  1  0
 12  6  1  0
 13 15  1  0
 14 13  2  0
 15 16  1  0
 16 17  1  0
 17 19  1  0
 18 17  2  0
M  END
$$$$
