TVG.pdb
     RDKit          3D

 19 18  0  0  1  0  0  0  0  0999 V2000
    6.1964  -16.6766   22.1840 C   0  0  0  0  0  0  0  0  0  0  0  0
    7.2381  -16.0091   21.2886 C   0  0  1  0  0  0  0  0  0  0  0  0
    6.8120  -16.1728   19.9617 O   0  0  0  0  0  0  0  0  0  0  0  0
    7.1672  -14.5149   21.6179 C   0  0  2  0  0  0  0  0  0  0  0  0
    7.7315  -13.8120   20.5054 N   0  0  0  0  0  0  0  0  0  0  0  0
    7.8278  -14.2184   22.8888 C   0  0  0  0  0  0  0  0  0  0  0  0
    9.0720  -14.0825   22.9232 O   0  0  0  0  0  0  0  0  0  0  0  0
    6.6849  -11.6290   25.4300 C   0  0  0  0  0  0  0  0  0  0  0  0
    6.8473  -12.9236   26.1857 C   0  0  2  0  0  0  0  0  0  0  0  0
    7.3962  -12.6284   27.5458 C   0  0  0  0  0  0  0  0  0  0  0  0
    7.7384  -13.8536   25.3838 C   0  0  2  0  0  0  0  0  0  0  0  0
    7.1056  -14.0766   24.1009 N   0  0  0  0  0  0  0  0  0  0  0  0
    8.0294  -15.1067   26.0950 C   0  0  0  0  0  0  0  0  0  0  0  0
    7.0879  -15.8142   26.5294 O   0  0  0  0  0  0  0  0  0  0  0  0
    9.3585  -15.5436   26.3064 N   0  0  0  0  0  0  0  0  0  0  0  0
    9.6075  -16.7576   27.0875 C   0  0  0  0  0  0  0  0  0  0  0  0
   11.0658  -16.9733   27.2326 C   0  0  0  0  0  0  0  0  0  0  0  0
   11.8417  -16.2389   26.5691 O   0  0  0  0  0  0  0  0  0  0  0  0
   11.5810  -17.9408   28.0613 O   0  0  0  0  0  0  0  0  0  0  0  0
  2  1  1  1
  2  3  1  0
  4  5  1  6
  4  2  1  0
  6  4  1  0
  7  6  2  0
  9  8  1  6
  9 11  1  0
 10  9  1  0
 11 12  1  6
 11 13  1  0
 12  6  1  0
 13 15  1  0
 14 13  2  0
 15 16  1  0
 16 17  1  0
 17 19  1  0
 18 17  2  0
M  END
$$$$
