TVG.pdb
     RDKit          3D

 19 18  0  0  1  0  0  0  0  0999 V2000
    7.1979  -18.8620   19.4706 C   0  0  0  0  0  0  0  0  0  0  0  0
    8.0132  -18.7242   18.1866 C   0  0  1  0  0  0  0  0  0  0  0  0
    7.4380  -19.5802   17.2350 O   0  0  0  0  0  0  0  0  0  0  0  0
    7.7915  -17.2853   17.7108 C   0  0  2  0  0  0  0  0  0  0  0  0
    8.2868  -17.2050   16.3697 N   0  0  0  0  0  0  0  0  0  0  0  0
    8.4141  -16.3228   18.6192 C   0  0  0  0  0  0  0  0  0  0  0  0
    9.6578  -16.1791   18.6119 O   0  0  0  0  0  0  0  0  0  0  0  0
    7.3157  -12.7095   19.4375 C   0  0  0  0  0  0  0  0  0  0  0  0
    7.3580  -13.4863   20.7290 C   0  0  2  0  0  0  0  0  0  0  0  0
    7.8309  -12.5842   21.8250 C   0  0  0  0  0  0  0  0  0  0  0  0
    8.2488  -14.7005   20.5447 C   0  0  2  0  0  0  0  0  0  0  0  0
    7.6549  -15.5343   19.5208 N   0  0  0  0  0  0  0  0  0  0  0  0
    8.4777  -15.4271   21.8017 C   0  0  0  0  0  0  0  0  0  0  0  0
    7.5029  -15.8759   22.4530 O   0  0  0  0  0  0  0  0  0  0  0  0
    9.7833  -15.6377   22.3050 N   0  0  0  0  0  0  0  0  0  0  0  0
    9.9639  -16.3020   23.5981 C   0  0  0  0  0  0  0  0  0  0  0  0
   11.4072  -16.4044   23.9149 C   0  0  0  0  0  0  0  0  0  0  0  0
   12.2334  -16.0847   23.0221 O   0  0  0  0  0  0  0  0  0  0  0  0
   11.8562  -16.8332   25.1407 O   0  0  0  0  0  0  0  0  0  0  0  0
  2  1  1  1
  2  3  1  0
  4  5  1  6
  4  2  1  0
  6  4  1  0
  7  6  2  0
  9  8  1  6
  9 11  1  0
 10  9  1  0
 11 12  1  6
 11 13  1  0
 12  6  1  0
 13 15  1  0
 14 13  2  0
 15 16  1  0
 16 17  1  0
 17 19  1  0
 18 17  2  0
M  END
$$$$
