TVG.pdb
     RDKit          3D

 19 18  0  0  1  0  0  0  0  0999 V2000
    3.0539  -18.5959   21.8543 C   0  0  0  0  0  0  0  0  0  0  0  0
    4.4980  -18.0999   21.8846 C   0  0  1  0  0  0  0  0  0  0  0  0
    5.3271  -19.2275   21.7839 O   0  0  0  0  0  0  0  0  0  0  0  0
    4.6772  -17.2764   20.6057 C   0  0  2  0  0  0  0  0  0  0  0  0
    4.4208  -18.1521   19.5023 N   0  0  0  0  0  0  0  0  0  0  0  0
    5.9985  -16.6508   20.5566 C   0  0  0  0  0  0  0  0  0  0  0  0
    6.8903  -17.1433   19.8287 O   0  0  0  0  0  0  0  0  0  0  0  0
    6.8276  -13.1706   19.7539 C   0  0  0  0  0  0  0  0  0  0  0  0
    7.4562  -13.3955   21.1059 C   0  0  2  0  0  0  0  0  0  0  0  0
    8.7503  -12.6476   21.1721 C   0  0  0  0  0  0  0  0  0  0  0  0
    7.6295  -14.8864   21.3267 C   0  0  2  0  0  0  0  0  0  0  0  0
    6.3148  -15.4925   21.3109 N   0  0  0  0  0  0  0  0  0  0  0  0
    8.3765  -15.1907   22.5555 C   0  0  0  0  0  0  0  0  0  0  0  0
    7.8937  -14.8877   23.6740 O   0  0  0  0  0  0  0  0  0  0  0  0
    9.6412  -15.8238   22.5126 N   0  0  0  0  0  0  0  0  0  0  0  0
   10.4077  -15.9978   23.7488 C   0  0  0  0  0  0  0  0  0  0  0  0
   11.8448  -16.1651   23.4316 C   0  0  0  0  0  0  0  0  0  0  0  0
   12.1787  -16.2427   22.2214 O   0  0  0  0  0  0  0  0  0  0  0  0
   12.8047  -16.2362   24.4122 O   0  0  0  0  0  0  0  0  0  0  0  0
  2  1  1  6
  2  3  1  0
  4  5  1  6
  4  2  1  0
  6  4  1  0
  7  6  2  0
  9  8  1  6
  9 11  1  0
 10  9  1  0
 11 12  1  1
 11 13  1  0
 12  6  1  0
 13 15  1  0
 14 13  2  0
 15 16  1  0
 16 17  1  0
 17 19  1  0
 18 17  2  0
M  END
$$$$
