TVG.pdb
     RDKit          3D

 19 18  0  0  1  0  0  0  0  0999 V2000
    7.9628  -18.9976   20.1029 C   0  0  0  0  0  0  0  0  0  0  0  0
    8.1044  -18.8252   18.5920 C   0  0  1  0  0  0  0  0  0  0  0  0
    7.2461  -19.7547   17.9852 O   0  0  0  0  0  0  0  0  0  0  0  0
    7.5641  -17.4252   18.2851 C   0  0  2  0  0  0  0  0  0  0  0  0
    7.4376  -17.3260   16.8623 N   0  0  0  0  0  0  0  0  0  0  0  0
    8.4149  -16.3874   18.8669 C   0  0  0  0  0  0  0  0  0  0  0  0
    9.5547  -16.1820   18.3913 O   0  0  0  0  0  0  0  0  0  0  0  0
    6.8373  -13.8257   21.8298 C   0  0  0  0  0  0  0  0  0  0  0  0
    7.9131  -13.3773   20.8731 C   0  0  2  0  0  0  0  0  0  0  0  0
    7.2695  -12.7984   19.6528 C   0  0  0  0  0  0  0  0  0  0  0  0
    8.8137  -14.5565   20.5567 C   0  0  2  0  0  0  0  0  0  0  0  0
    7.9948  -15.5929   19.9638 N   0  0  0  0  0  0  0  0  0  0  0  0
    9.5574  -15.0288   21.7334 C   0  0  0  0  0  0  0  0  0  0  0  0
   10.3901  -14.2743   22.2931 O   0  0  0  0  0  0  0  0  0  0  0  0
    9.3585  -16.3270   22.2598 N   0  0  0  0  0  0  0  0  0  0  0  0
   10.0642  -16.7318   23.4780 C   0  0  0  0  0  0  0  0  0  0  0  0
   11.4196  -17.2218   23.1361 C   0  0  0  0  0  0  0  0  0  0  0  0
   12.4005  -16.4784   23.3950 O   0  0  0  0  0  0  0  0  0  0  0  0
   11.6260  -18.4486   22.5527 O   0  0  0  0  0  0  0  0  0  0  0  0
  2  1  1  1
  2  3  1  0
  4  5  1  6
  4  2  1  0
  6  4  1  0
  7  6  2  0
  9  8  1  1
  9 11  1  0
 10  9  1  0
 11 12  1  1
 11 13  1  0
 12  6  1  0
 13 15  1  0
 14 13  2  0
 15 16  1  0
 16 17  1  0
 17 19  1  0
 18 17  2  0
M  END
$$$$
