TVG.pdb
     RDKit          3D

 19 18  0  0  1  0  0  0  0  0999 V2000
    6.4754  -16.9702   22.6996 C   0  0  0  0  0  0  0  0  0  0  0  0
    7.5020  -16.3891   21.7296 C   0  0  1  0  0  0  0  0  0  0  0  0
    7.1163  -16.7738   20.4364 O   0  0  0  0  0  0  0  0  0  0  0  0
    7.3461  -14.8686   21.8275 C   0  0  2  0  0  0  0  0  0  0  0  0
    7.9006  -14.3112   20.6308 N   0  0  0  0  0  0  0  0  0  0  0  0
    7.9592  -14.3486   23.0494 C   0  0  0  0  0  0  0  0  0  0  0  0
    9.1842  -14.0900   23.0662 O   0  0  0  0  0  0  0  0  0  0  0  0
    6.6393  -11.5889   25.3860 C   0  0  0  0  0  0  0  0  0  0  0  0
    6.8462  -12.8297   26.2174 C   0  0  2  0  0  0  0  0  0  0  0  0
    7.3322  -12.4311   27.5750 C   0  0  0  0  0  0  0  0  0  0  0  0
    7.8128  -13.7502   25.4962 C   0  0  2  0  0  0  0  0  0  0  0  0
    7.2115  -14.1222   24.2329 N   0  0  0  0  0  0  0  0  0  0  0  0
    8.1905  -14.9168   26.3069 C   0  0  0  0  0  0  0  0  0  0  0  0
    7.3176  -15.7514   26.6493 O   0  0  0  0  0  0  0  0  0  0  0  0
    9.5279  -15.1282   26.7175 N   0  0  0  0  0  0  0  0  0  0  0  0
    9.8627  -16.3074   27.5197 C   0  0  0  0  0  0  0  0  0  0  0  0
   10.4414  -17.3594   26.6522 C   0  0  0  0  0  0  0  0  0  0  0  0
    9.6529  -18.0725   25.9803 O   0  0  0  0  0  0  0  0  0  0  0  0
   11.7965  -17.5701   26.5665 O   0  0  0  0  0  0  0  0  0  0  0  0
  2  1  1  1
  2  3  1  0
  4  5  1  6
  4  2  1  0
  6  4  1  0
  7  6  2  0
  9  8  1  6
  9 11  1  0
 10  9  1  0
 11 12  1  6
 11 13  1  0
 12  6  1  0
 13 15  1  0
 14 13  2  0
 15 16  1  0
 16 17  1  0
 17 19  1  0
 18 17  2  0
M  END
$$$$
