PNF.pdb
     RDKit          3D

 27 28  0  0  1  0  0  0  0  0999 V2000
    8.9526  -14.8995   19.2881 N   0  0  0  0  0  0  0  0  0  0  0  0
    9.1558  -13.9373   18.1924 C   0  0  0  0  0  0  0  0  0  0  0  0
    7.8156  -13.2117   18.2349 C   0  0  0  0  0  0  0  0  0  0  0  0
    7.6088  -13.0434   19.7080 C   0  0  0  0  0  0  0  0  0  0  0  0
    8.6272  -13.9891   20.3661 C   0  0  1  0  0  0  0  0  0  0  0  0
    8.0173  -14.6551   21.5195 C   0  0  0  0  0  0  0  0  0  0  0  0
    7.5392  -13.9260   22.4345 O   0  0  0  0  0  0  0  0  0  0  0  0
    5.0804  -19.1671   23.5495 N   0  0  0  0  0  0  0  0  0  0  0  0
    6.5108  -19.1061   23.2916 C   0  0  0  0  0  0  0  0  0  0  0  0
    7.1966  -19.9329   23.9209 O   0  0  0  0  0  0  0  0  0  0  0  0
    7.0451  -18.1308   22.3568 C   0  0  0  0  0  0  0  0  0  0  0  0
    7.2577  -16.7251   22.7793 C   0  0  2  0  0  0  0  0  0  0  0  0
    7.9555  -16.0624   21.6221 N   0  0  0  0  0  0  0  0  0  0  0  0
    8.1184  -16.4817   23.9425 C   0  0  0  0  0  0  0  0  0  0  0  0
    9.3743  -16.4360   23.7179 O   0  0  0  0  0  0  0  0  0  0  0  0
    7.7942  -16.2818   25.2843 N   0  0  0  0  0  0  0  0  0  0  0  0
    8.7223  -16.0372   26.3540 C   0  0  1  0  0  0  0  0  0  0  0  0
    8.3419  -15.1065   27.3951 C   0  0  0  0  0  0  0  0  0  0  0  0
    7.6038  -13.9025   26.9531 C   0  0  0  0  0  0  0  0  0  0  0  0
    8.2573  -12.7167   26.6219 C   0  0  0  0  0  0  0  0  0  0  0  0
    7.5857  -11.6002   26.1870 C   0  0  0  0  0  0  0  0  0  0  0  0
    6.2152  -11.6020   26.0563 C   0  0  0  0  0  0  0  0  0  0  0  0
    5.5464  -12.7674   26.3790 C   0  0  0  0  0  0  0  0  0  0  0  0
    6.2269  -13.8825   26.8141 C   0  0  0  0  0  0  0  0  0  0  0  0
    9.0655  -17.3471   26.9589 C   0  0  0  0  0  0  0  0  0  0  0  0
    9.9448  -17.5194   27.8463 O   0  0  0  0  0  0  0  0  0  0  0  0
    8.3927  -18.5252   26.5524 O   0  0  0  0  0  0  0  0  0  0  0  0
  2  1  1  0
  3  4  1  0
  3  2  1  0
  4  5  1  0
  5  6  1  1
  5  1  1  0
  6 13  1  0
  7  6  2  0
  9  8  1  0
 10  9  2  0
 11  9  1  0
 12 11  1  6
 12 14  1  0
 13 12  1  0
 14 16  1  0
 14 15  2  0
 16 17  1  0
 17 18  1  1
 18 19  1  0
 19 24  1  0
 20 19  2  0
 20 21  1  0
 21 22  2  0
 22 23  1  0
 24 23  2  0
 25 27  1  0
 25 17  1  0
 26 25  2  0
M  END
$$$$
