PNF.pdb
     RDKit          3D

 27 28  0  0  1  0  0  0  0  0999 V2000
   10.6108  -18.5460   18.9587 N   0  0  0  0  0  0  0  0  0  0  0  0
   11.3454  -18.9591   17.7514 C   0  0  0  0  0  0  0  0  0  0  0  0
   11.8091  -17.5951   17.2526 C   0  0  0  0  0  0  0  0  0  0  0  0
   12.2390  -16.9368   18.5266 C   0  0  0  0  0  0  0  0  0  0  0  0
   11.6508  -17.8102   19.6472 C   0  0  1  0  0  0  0  0  0  0  0  0
   11.1393  -16.9610   20.7256 C   0  0  0  0  0  0  0  0  0  0  0  0
   11.9778  -16.2971   21.3992 O   0  0  0  0  0  0  0  0  0  0  0  0
    5.8122  -14.5063   22.1821 N   0  0  0  0  0  0  0  0  0  0  0  0
    7.2564  -14.3318   22.1972 C   0  0  0  0  0  0  0  0  0  0  0  0
    7.6680  -13.3980   22.9103 O   0  0  0  0  0  0  0  0  0  0  0  0
    8.1083  -15.2129   21.4173 C   0  0  0  0  0  0  0  0  0  0  0  0
    9.2467  -15.9156   22.0576 C   0  0  2  0  0  0  0  0  0  0  0  0
    9.7600  -16.8737   21.0165 N   0  0  0  0  0  0  0  0  0  0  0  0
    8.9666  -16.7396   23.2390 C   0  0  0  0  0  0  0  0  0  0  0  0
    8.5980  -17.9415   23.0166 O   0  0  0  0  0  0  0  0  0  0  0  0
    9.0396  -16.4314   24.5973 N   0  0  0  0  0  0  0  0  0  0  0  0
    8.9468  -17.3658   25.6854 C   0  0  1  0  0  0  0  0  0  0  0  0
    9.6792  -17.0807   26.9008 C   0  0  0  0  0  0  0  0  0  0  0  0
    9.6742  -15.6699   27.3474 C   0  0  0  0  0  0  0  0  0  0  0  0
   10.8532  -14.9480   27.5244 C   0  0  0  0  0  0  0  0  0  0  0  0
   10.8610  -13.6310   27.9147 C   0  0  0  0  0  0  0  0  0  0  0  0
    9.6861  -12.9540   28.1524 C   0  0  0  0  0  0  0  0  0  0  0  0
    8.5046  -13.6502   27.9828 C   0  0  0  0  0  0  0  0  0  0  0  0
    8.5052  -14.9702   27.5910 C   0  0  0  0  0  0  0  0  0  0  0  0
    7.5089  -17.5452   26.0016 C   0  0  0  0  0  0  0  0  0  0  0  0
    7.0554  -18.3791   26.8319 O   0  0  0  0  0  0  0  0  0  0  0  0
    6.5269  -16.7532   25.3581 O   0  0  0  0  0  0  0  0  0  0  0  0
  2  1  1  0
  3  4  1  0
  3  2  1  0
  4  5  1  0
  5  6  1  1
  5  1  1  0
  6 13  1  0
  7  6  2  0
  9  8  1  0
 10  9  2  0
 11  9  1  0
 12 11  1  6
 12 14  1  0
 13 12  1  0
 14 16  1  0
 14 15  2  0
 16 17  1  0
 17 18  1  1
 18 19  1  0
 19 24  1  0
 20 19  2  0
 20 21  1  0
 21 22  2  0
 22 23  1  0
 24 23  2  0
 25 27  1  0
 25 17  1  0
 26 25  2  0
M  END
$$$$
