PNF.pdb
     RDKit          3D

 27 28  0  0  1  0  0  0  0  0999 V2000
    8.3182  -15.0577   19.3975 N   0  0  0  0  0  0  0  0  0  0  0  0
    8.1622  -13.7844   18.6749 C   0  0  0  0  0  0  0  0  0  0  0  0
    7.1040  -13.1202   19.5486 C   0  0  0  0  0  0  0  0  0  0  0  0
    7.5937  -13.4534   20.9235 C   0  0  0  0  0  0  0  0  0  0  0  0
    8.6416  -14.5600   20.7183 C   0  0  1  0  0  0  0  0  0  0  0  0
    8.5076  -15.5749   21.7661 C   0  0  0  0  0  0  0  0  0  0  0  0
    7.7510  -16.5609   21.5364 O   0  0  0  0  0  0  0  0  0  0  0  0
   11.9365  -19.0557   22.6386 N   0  0  0  0  0  0  0  0  0  0  0  0
   12.2548  -17.6367   22.6764 C   0  0  0  0  0  0  0  0  0  0  0  0
   13.4587  -17.3699   22.8478 O   0  0  0  0  0  0  0  0  0  0  0  0
   11.2036  -16.6464   22.5196 C   0  0  0  0  0  0  0  0  0  0  0  0
   10.0794  -16.5865   23.4851 C   0  0  2  0  0  0  0  0  0  0  0  0
    9.1933  -15.4723   22.9966 N   0  0  0  0  0  0  0  0  0  0  0  0
   10.3905  -16.2520   24.8796 C   0  0  0  0  0  0  0  0  0  0  0  0
   11.2004  -17.0335   25.4822 O   0  0  0  0  0  0  0  0  0  0  0  0
    9.9474  -15.1992   25.6799 N   0  0  0  0  0  0  0  0  0  0  0  0
   10.4155  -14.8829   27.0014 C   0  0  1  0  0  0  0  0  0  0  0  0
    9.9447  -13.6641   27.6243 C   0  0  0  0  0  0  0  0  0  0  0  0
    8.7215  -13.0674   27.0432 C   0  0  0  0  0  0  0  0  0  0  0  0
    7.5007  -13.0856   27.7154 C   0  0  0  0  0  0  0  0  0  0  0  0
    6.3642  -12.5137   27.1977 C   0  0  0  0  0  0  0  0  0  0  0  0
    6.3798  -11.8868   25.9721 C   0  0  0  0  0  0  0  0  0  0  0  0
    7.5799  -11.8565   25.2878 C   0  0  0  0  0  0  0  0  0  0  0  0
    8.7149  -12.4319   25.8137 C   0  0  0  0  0  0  0  0  0  0  0  0
   10.1063  -16.0400   27.8760 C   0  0  0  0  0  0  0  0  0  0  0  0
    9.3820  -17.0174   27.5437 O   0  0  0  0  0  0  0  0  0  0  0  0
   10.6327  -16.1098   29.1890 O   0  0  0  0  0  0  0  0  0  0  0  0
  2  1  1  0
  3  4  1  0
  3  2  1  0
  4  5  1  0
  5  6  1  1
  5  1  1  0
  6 13  1  0
  7  6  2  0
  9  8  1  0
 10  9  2  0
 11  9  1  0
 12 11  1  6
 12 14  1  0
 13 12  1  0
 14 16  1  0
 14 15  2  0
 16 17  1  0
 17 18  1  1
 18 19  1  0
 19 24  1  0
 20 19  2  0
 20 21  1  0
 21 22  2  0
 22 23  1  0
 24 23  2  0
 25 27  1  0
 25 17  1  0
 26 25  2  0
M  END
$$$$
