PNF.pdb
     RDKit          3D

 27 28  0  0  1  0  0  0  0  0999 V2000
    9.1614  -14.3652   19.5146 N   0  0  0  0  0  0  0  0  0  0  0  0
    8.8523  -13.3147   18.5304 C   0  0  0  0  0  0  0  0  0  0  0  0
    7.3335  -13.2799   18.6589 C   0  0  0  0  0  0  0  0  0  0  0  0
    7.1531  -13.3653   20.1426 C   0  0  0  0  0  0  0  0  0  0  0  0
    8.5212  -13.8078   20.6878 C   0  0  1  0  0  0  0  0  0  0  0  0
    8.3376  -14.7845   21.7638 C   0  0  0  0  0  0  0  0  0  0  0  0
    7.3562  -14.6227   22.5438 O   0  0  0  0  0  0  0  0  0  0  0  0
   10.1623  -19.0194   20.2341 N   0  0  0  0  0  0  0  0  0  0  0  0
    9.2496  -18.8365   21.3520 C   0  0  0  0  0  0  0  0  0  0  0  0
    8.1156  -19.3252   21.1933 O   0  0  0  0  0  0  0  0  0  0  0  0
    9.6838  -18.1267   22.5428 C   0  0  0  0  0  0  0  0  0  0  0  0
    8.9614  -16.9142   22.9986 C   0  0  2  0  0  0  0  0  0  0  0  0
    9.2161  -15.8765   21.9386 N   0  0  0  0  0  0  0  0  0  0  0  0
    9.3884  -16.2949   24.2585 C   0  0  0  0  0  0  0  0  0  0  0  0
   10.4628  -15.6069   24.2156 O   0  0  0  0  0  0  0  0  0  0  0  0
    8.8068  -16.3244   25.5259 N   0  0  0  0  0  0  0  0  0  0  0  0
    9.3767  -15.7923   26.7332 C   0  0  1  0  0  0  0  0  0  0  0  0
    8.5664  -14.9094   27.5450 C   0  0  0  0  0  0  0  0  0  0  0  0
    7.7737  -13.8972   26.8123 C   0  0  0  0  0  0  0  0  0  0  0  0
    8.2343  -12.5954   26.6224 C   0  0  0  0  0  0  0  0  0  0  0  0
    7.5191  -11.6538   25.9233 C   0  0  0  0  0  0  0  0  0  0  0  0
    6.2958  -11.9582   25.3698 C   0  0  0  0  0  0  0  0  0  0  0  0
    5.8196  -13.2434   25.5454 C   0  0  0  0  0  0  0  0  0  0  0  0
    6.5427  -14.1817   26.2474 C   0  0  0  0  0  0  0  0  0  0  0  0
    9.8395  -16.9376   27.5540 C   0  0  0  0  0  0  0  0  0  0  0  0
    9.5565  -18.1451   27.3252 O   0  0  0  0  0  0  0  0  0  0  0  0
   10.6602  -16.7242   28.6882 O   0  0  0  0  0  0  0  0  0  0  0  0
  2  1  1  0
  3  4  1  0
  3  2  1  0
  4  5  1  0
  5  6  1  1
  5  1  1  0
  6 13  1  0
  7  6  2  0
  9  8  1  0
 10  9  2  0
 11  9  1  0
 12 11  1  6
 12 14  1  0
 13 12  1  0
 14 16  1  0
 14 15  2  0
 16 17  1  0
 17 18  1  1
 18 19  1  0
 19 24  1  0
 20 19  2  0
 20 21  1  0
 21 22  2  0
 22 23  1  0
 24 23  2  0
 25 27  1  0
 25 17  1  0
 26 25  2  0
M  END
$$$$
