PNF.pdb
     RDKit          3D

 27 28  0  0  1  0  0  0  0  0999 V2000
    8.3576  -15.1236   18.5822 N   0  0  0  0  0  0  0  0  0  0  0  0
    8.5332  -14.1976   17.4510 C   0  0  0  0  0  0  0  0  0  0  0  0
    7.5806  -13.0863   17.8775 C   0  0  0  0  0  0  0  0  0  0  0  0
    7.8836  -12.9719   19.3391 C   0  0  0  0  0  0  0  0  0  0  0  0
    8.6813  -14.2407   19.6834 C   0  0  1  0  0  0  0  0  0  0  0  0
    8.2547  -14.7608   20.9846 C   0  0  0  0  0  0  0  0  0  0  0  0
    8.3898  -14.0089   21.9915 O   0  0  0  0  0  0  0  0  0  0  0  0
    6.5218  -19.0829   24.2570 N   0  0  0  0  0  0  0  0  0  0  0  0
    5.7415  -18.5371   23.1572 C   0  0  0  0  0  0  0  0  0  0  0  0
    4.5205  -18.7754   23.2067 O   0  0  0  0  0  0  0  0  0  0  0  0
    6.3925  -17.7766   22.1045 C   0  0  0  0  0  0  0  0  0  0  0  0
    7.0354  -16.4748   22.4075 C   0  0  2  0  0  0  0  0  0  0  0  0
    7.7079  -16.0552   21.1282 N   0  0  0  0  0  0  0  0  0  0  0  0
    8.0911  -16.4524   23.4264 C   0  0  0  0  0  0  0  0  0  0  0  0
    9.2148  -16.9553   23.0887 O   0  0  0  0  0  0  0  0  0  0  0  0
    8.0812  -15.9602   24.7314 N   0  0  0  0  0  0  0  0  0  0  0  0
    9.2342  -15.7074   25.5515 C   0  0  1  0  0  0  0  0  0  0  0  0
    9.5361  -14.3380   25.9099 C   0  0  0  0  0  0  0  0  0  0  0  0
    8.3718  -13.4572   26.1513 C   0  0  0  0  0  0  0  0  0  0  0  0
    7.4520  -13.1584   25.1476 C   0  0  0  0  0  0  0  0  0  0  0  0
    6.3541  -12.3622   25.3653 C   0  0  0  0  0  0  0  0  0  0  0  0
    6.1086  -11.8148   26.6045 C   0  0  0  0  0  0  0  0  0  0  0  0
    7.0076  -12.0979   27.6150 C   0  0  0  0  0  0  0  0  0  0  0  0
    8.1057  -12.8972   27.3887 C   0  0  0  0  0  0  0  0  0  0  0  0
    9.0983  -16.5251   26.7813 C   0  0  0  0  0  0  0  0  0  0  0  0
    9.9640  -16.5953   27.6957 O   0  0  0  0  0  0  0  0  0  0  0  0
    7.9365  -17.3043   27.0020 O   0  0  0  0  0  0  0  0  0  0  0  0
  2  1  1  0
  3  4  1  0
  3  2  1  0
  4  5  1  0
  5  6  1  1
  5  1  1  0
  6 13  1  0
  7  6  2  0
  9  8  1  0
 10  9  2  0
 11  9  1  0
 12 11  1  6
 12 14  1  0
 13 12  1  0
 14 16  1  0
 14 15  2  0
 16 17  1  0
 17 18  1  1
 18 19  1  0
 19 24  1  0
 20 19  2  0
 20 21  1  0
 21 22  2  0
 22 23  1  0
 24 23  2  0
 25 27  1  0
 25 17  1  0
 26 25  2  0
M  END
$$$$
