PNF.pdb
     RDKit          3D

 27 28  0  0  1  0  0  0  0  0999 V2000
    8.5024  -15.1679   18.6905 N   0  0  0  0  0  0  0  0  0  0  0  0
    8.6770  -14.2530   17.5503 C   0  0  0  0  0  0  0  0  0  0  0  0
    7.5763  -13.2442   17.8584 C   0  0  0  0  0  0  0  0  0  0  0  0
    7.7341  -13.0654   19.3363 C   0  0  0  0  0  0  0  0  0  0  0  0
    8.6301  -14.2310   19.7873 C   0  0  1  0  0  0  0  0  0  0  0  0
    8.1480  -14.7666   21.0627 C   0  0  0  0  0  0  0  0  0  0  0  0
    8.1007  -13.9797   22.0506 O   0  0  0  0  0  0  0  0  0  0  0  0
    5.8919  -18.2406   24.5841 N   0  0  0  0  0  0  0  0  0  0  0  0
    6.0966  -18.7971   23.2557 C   0  0  0  0  0  0  0  0  0  0  0  0
    5.6376  -19.9419   23.0862 O   0  0  0  0  0  0  0  0  0  0  0  0
    6.7930  -18.0276   22.2392 C   0  0  0  0  0  0  0  0  0  0  0  0
    7.2089  -16.6300   22.5101 C   0  0  2  0  0  0  0  0  0  0  0  0
    7.7448  -16.1130   21.2021 N   0  0  0  0  0  0  0  0  0  0  0  0
    8.2847  -16.4114   23.4838 C   0  0  0  0  0  0  0  0  0  0  0  0
    9.4734  -16.6301   23.0728 O   0  0  0  0  0  0  0  0  0  0  0  0
    8.2331  -15.9911   24.8127 N   0  0  0  0  0  0  0  0  0  0  0  0
    9.3568  -15.6285   25.6320 C   0  0  1  0  0  0  0  0  0  0  0  0
    9.5776  -14.2262   25.9148 C   0  0  0  0  0  0  0  0  0  0  0  0
    8.3752  -13.4351   26.2588 C   0  0  0  0  0  0  0  0  0  0  0  0
    7.3462  -13.2211   25.3434 C   0  0  0  0  0  0  0  0  0  0  0  0
    6.2142  -12.5095   25.6581 C   0  0  0  0  0  0  0  0  0  0  0  0
    6.0421  -11.9672   26.9118 C   0  0  0  0  0  0  0  0  0  0  0  0
    7.0499  -12.1672   27.8358 C   0  0  0  0  0  0  0  0  0  0  0  0
    8.1816  -12.8819   27.5126 C   0  0  0  0  0  0  0  0  0  0  0  0
    9.2457  -16.3811   26.9051 C   0  0  0  0  0  0  0  0  0  0  0  0
   10.1053  -16.3616   27.8277 O   0  0  0  0  0  0  0  0  0  0  0  0
    8.1171  -17.1974   27.1616 O   0  0  0  0  0  0  0  0  0  0  0  0
  2  1  1  0
  3  4  1  0
  3  2  1  0
  4  5  1  0
  5  6  1  1
  5  1  1  0
  6 13  1  0
  7  6  2  0
  9  8  1  0
 10  9  2  0
 11  9  1  0
 12 11  1  6
 12 14  1  0
 13 12  1  0
 14 16  1  0
 14 15  2  0
 16 17  1  0
 17 18  1  1
 18 19  1  0
 19 24  1  0
 20 19  2  0
 20 21  1  0
 21 22  2  0
 22 23  1  0
 24 23  2  0
 25 27  1  0
 25 17  1  0
 26 25  2  0
M  END
$$$$
