PNF.pdb
     RDKit          3D

 27 28  0  0  1  0  0  0  0  0999 V2000
    9.2192  -13.9699   20.8767 N   0  0  0  0  0  0  0  0  0  0  0  0
    9.4218  -13.2491   19.6089 C   0  0  0  0  0  0  0  0  0  0  0  0
    8.4581  -14.0225   18.7159 C   0  0  0  0  0  0  0  0  0  0  0  0
    7.2718  -14.1801   19.6154 C   0  0  0  0  0  0  0  0  0  0  0  0
    7.7854  -13.8276   21.0213 C   0  0  1  0  0  0  0  0  0  0  0  0
    7.2110  -14.7459   22.0074 C   0  0  0  0  0  0  0  0  0  0  0  0
    5.9575  -14.7278   22.1677 O   0  0  0  0  0  0  0  0  0  0  0  0
    7.2136  -19.5774   24.9995 N   0  0  0  0  0  0  0  0  0  0  0  0
    8.2609  -18.5714   25.0849 C   0  0  0  0  0  0  0  0  0  0  0  0
    8.9584  -18.6213   26.1150 O   0  0  0  0  0  0  0  0  0  0  0  0
    8.4350  -17.6035   24.0157 C   0  0  0  0  0  0  0  0  0  0  0  0
    7.4021  -16.5690   23.7650 C   0  0  2  0  0  0  0  0  0  0  0  0
    8.0147  -15.6292   22.7617 N   0  0  0  0  0  0  0  0  0  0  0  0
    6.9930  -15.7218   24.8910 C   0  0  0  0  0  0  0  0  0  0  0  0
    6.2378  -16.2665   25.7644 O   0  0  0  0  0  0  0  0  0  0  0  0
    7.2974  -14.3922   25.1827 N   0  0  0  0  0  0  0  0  0  0  0  0
    6.8636  -13.6565   26.3386 C   0  0  1  0  0  0  0  0  0  0  0  0
    7.8396  -12.8632   27.0549 C   0  0  0  0  0  0  0  0  0  0  0  0
    9.0203  -13.5927   27.5682 C   0  0  0  0  0  0  0  0  0  0  0  0
   10.0072  -14.0895   26.7186 C   0  0  0  0  0  0  0  0  0  0  0  0
   11.1199  -14.7468   27.1842 C   0  0  0  0  0  0  0  0  0  0  0  0
   11.3137  -14.9475   28.5324 C   0  0  0  0  0  0  0  0  0  0  0  0
   10.3476  -14.4630   29.3935 C   0  0  0  0  0  0  0  0  0  0  0  0
    9.2352  -13.8050   28.9188 C   0  0  0  0  0  0  0  0  0  0  0  0
    5.7304  -12.7947   25.9230 C   0  0  0  0  0  0  0  0  0  0  0  0
    5.3826  -12.5937   24.7276 O   0  0  0  0  0  0  0  0  0  0  0  0
    4.9452  -12.1228   26.8913 O   0  0  0  0  0  0  0  0  0  0  0  0
  2  1  1  0
  3  4  1  0
  3  2  1  0
  4  5  1  0
  5  6  1  1
  5  1  1  0
  6 13  1  0
  7  6  2  0
  9  8  1  0
 10  9  2  0
 11  9  1  0
 12 11  1  1
 12 14  1  0
 13 12  1  0
 14 16  1  0
 14 15  2  0
 16 17  1  0
 17 18  1  6
 18 19  1  0
 19 24  1  0
 20 19  2  0
 20 21  1  0
 21 22  2  0
 22 23  1  0
 24 23  2  0
 25 27  1  0
 25 17  1  0
 26 25  2  0
M  END
$$$$
