PNF.pdb
     RDKit          3D

 27 28  0  0  1  0  0  0  0  0999 V2000
    9.1700  -13.9405   19.7883 N   0  0  0  0  0  0  0  0  0  0  0  0
    8.7682  -12.9235   18.8023 C   0  0  0  0  0  0  0  0  0  0  0  0
    7.2749  -13.2200   18.7204 C   0  0  0  0  0  0  0  0  0  0  0  0
    6.9281  -13.4290   20.1616 C   0  0  0  0  0  0  0  0  0  0  0  0
    8.2780  -13.6020   20.8776 C   0  0  1  0  0  0  0  0  0  0  0  0
    8.1753  -14.6571   21.8884 C   0  0  0  0  0  0  0  0  0  0  0  0
    7.2479  -14.5653   22.7422 O   0  0  0  0  0  0  0  0  0  0  0  0
    8.7854  -20.3223   22.9080 N   0  0  0  0  0  0  0  0  0  0  0  0
    9.7622  -19.2585   23.0825 C   0  0  0  0  0  0  0  0  0  0  0  0
   10.6720  -19.5051   23.8958 O   0  0  0  0  0  0  0  0  0  0  0  0
    9.6359  -18.0190   22.3354 C   0  0  0  0  0  0  0  0  0  0  0  0
    8.8871  -16.8726   22.9053 C   0  0  2  0  0  0  0  0  0  0  0  0
    9.0722  -15.7477   21.9227 N   0  0  0  0  0  0  0  0  0  0  0  0
    9.3323  -16.3371   24.1968 C   0  0  0  0  0  0  0  0  0  0  0  0
   10.3542  -15.5723   24.1707 O   0  0  0  0  0  0  0  0  0  0  0  0
    8.8171  -16.5193   25.4800 N   0  0  0  0  0  0  0  0  0  0  0  0
    9.3719  -15.9977   26.6990 C   0  0  1  0  0  0  0  0  0  0  0  0
    8.5432  -15.1414   27.5206 C   0  0  0  0  0  0  0  0  0  0  0  0
    7.9569  -13.9622   26.8456 C   0  0  0  0  0  0  0  0  0  0  0  0
    8.6537  -12.7616   26.7204 C   0  0  0  0  0  0  0  0  0  0  0  0
    8.1302  -11.6679   26.0749 C   0  0  0  0  0  0  0  0  0  0  0  0
    6.8738  -11.7089   25.5136 C   0  0  0  0  0  0  0  0  0  0  0  0
    6.1647  -12.8897   25.6256 C   0  0  0  0  0  0  0  0  0  0  0  0
    6.6966  -13.9817   26.2740 C   0  0  0  0  0  0  0  0  0  0  0  0
    9.8490  -17.1487   27.5035 C   0  0  0  0  0  0  0  0  0  0  0  0
   10.4841  -17.0515   28.5888 O   0  0  0  0  0  0  0  0  0  0  0  0
    9.6047  -18.4762   27.0749 O   0  0  0  0  0  0  0  0  0  0  0  0
  2  1  1  0
  3  4  1  0
  3  2  1  0
  4  5  1  0
  5  6  1  1
  5  1  1  0
  6 13  1  0
  7  6  2  0
  9  8  1  0
 10  9  2  0
 11  9  1  0
 12 11  1  6
 12 14  1  0
 13 12  1  0
 14 16  1  0
 14 15  2  0
 16 17  1  0
 17 18  1  1
 18 19  1  0
 19 24  1  0
 20 19  2  0
 20 21  1  0
 21 22  2  0
 22 23  1  0
 24 23  2  0
 25 27  1  0
 25 17  1  0
 26 25  2  0
M  END
$$$$
