PNF.pdb
     RDKit          3D

 27 28  0  0  1  0  0  0  0  0999 V2000
    8.2084  -14.7919   18.9179 N   0  0  0  0  0  0  0  0  0  0  0  0
    8.4674  -13.6482   18.0275 C   0  0  0  0  0  0  0  0  0  0  0  0
    7.4487  -12.6568   18.5786 C   0  0  0  0  0  0  0  0  0  0  0  0
    7.6061  -12.8496   20.0547 C   0  0  0  0  0  0  0  0  0  0  0  0
    8.4006  -14.1576   20.2054 C   0  0  1  0  0  0  0  0  0  0  0  0
    7.8645  -14.9416   21.3206 C   0  0  0  0  0  0  0  0  0  0  0  0
    6.7563  -14.5838   21.8119 O   0  0  0  0  0  0  0  0  0  0  0  0
    6.4636  -20.0121   23.3163 N   0  0  0  0  0  0  0  0  0  0  0  0
    7.7845  -19.4062   23.3824 C   0  0  0  0  0  0  0  0  0  0  0  0
    8.5494  -19.8984   24.2324 O   0  0  0  0  0  0  0  0  0  0  0  0
    8.1315  -18.3087   22.4961 C   0  0  0  0  0  0  0  0  0  0  0  0
    7.9393  -16.9038   22.9310 C   0  0  2  0  0  0  0  0  0  0  0  0
    8.5479  -16.0626   21.8414 N   0  0  0  0  0  0  0  0  0  0  0  0
    8.5996  -16.4730   24.1686 C   0  0  0  0  0  0  0  0  0  0  0  0
    9.8389  -16.1807   24.0769 O   0  0  0  0  0  0  0  0  0  0  0  0
    8.0944  -16.3190   25.4594 N   0  0  0  0  0  0  0  0  0  0  0  0
    8.8342  -15.8897   26.6144 C   0  0  1  0  0  0  0  0  0  0  0  0
    8.2036  -14.9623   27.5294 C   0  0  0  0  0  0  0  0  0  0  0  0
    7.7041  -13.7019   26.9363 C   0  0  0  0  0  0  0  0  0  0  0  0
    8.5567  -12.6439   26.6260 C   0  0  0  0  0  0  0  0  0  0  0  0
    8.1090  -11.4786   26.0528 C   0  0  0  0  0  0  0  0  0  0  0  0
    6.7769  -11.3004   25.7541 C   0  0  0  0  0  0  0  0  0  0  0  0
    5.9132  -12.3368   26.0530 C   0  0  0  0  0  0  0  0  0  0  0  0
    6.3699  -13.5019   26.6274 C   0  0  0  0  0  0  0  0  0  0  0  0
    9.2598  -17.1041   27.3517 C   0  0  0  0  0  0  0  0  0  0  0  0
    8.8831  -18.2768   27.0810 O   0  0  0  0  0  0  0  0  0  0  0  0
   10.1517  -17.0044   28.4474 O   0  0  0  0  0  0  0  0  0  0  0  0
  2  1  1  0
  3  4  1  0
  3  2  1  0
  4  5  1  0
  5  6  1  1
  5  1  1  0
  6 13  1  0
  7  6  2  0
  9  8  1  0
 10  9  2  0
 11  9  1  0
 12 11  1  6
 12 14  1  0
 13 12  1  0
 14 16  1  0
 14 15  2  0
 16 17  1  0
 17 18  1  1
 18 19  1  0
 19 24  1  0
 20 19  2  0
 20 21  1  0
 21 22  2  0
 22 23  1  0
 24 23  2  0
 25 27  1  0
 25 17  1  0
 26 25  2  0
M  END
$$$$
