EAQ.pdb
     RDKit          3D

 24 23  0  0  1  0  0  0  0  0999 V2000
   24.1016  -20.4587  -13.8448 N   0  0  0  0  0  0  0  0  0  0  0  0
   23.7894  -20.2042  -15.2291 C   0  0  1  0  0  0  0  0  0  0  0  0
   22.3656  -20.5736  -15.4788 C   0  0  0  0  0  0  0  0  0  0  0  0
   21.6187  -20.5755  -14.1668 C   0  0  0  0  0  0  0  0  0  0  0  0
   20.1734  -20.8484  -14.3063 C   0  0  0  0  0  0  0  0  0  0  0  0
   19.4214  -20.8283  -13.2993 O   0  0  0  0  0  0  0  0  0  0  0  0
   24.1056  -18.8130  -15.6333 C   0  0  0  0  0  0  0  0  0  0  0  0
   23.7903  -17.8890  -14.8405 O   0  0  0  0  0  0  0  0  0  0  0  0
   19.5914  -21.1341  -15.5336 O   0  0  0  0  0  0  0  0  0  0  0  0
   25.9667  -17.0026  -18.3974 C   0  0  0  0  0  0  0  0  0  0  0  0
   24.9629  -17.1065  -17.2742 C   0  0  2  0  0  0  0  0  0  0  0  0
   24.7343  -18.4526  -16.8432 N   0  0  0  0  0  0  0  0  0  0  0  0
   23.6837  -16.4099  -17.6329 C   0  0  0  0  0  0  0  0  0  0  0  0
   22.6844  -17.0958  -17.9422 O   0  0  0  0  0  0  0  0  0  0  0  0
   19.6020  -15.9041  -14.9324 N   0  0  0  0  0  0  0  0  0  0  0  0
   19.1428  -14.8663  -15.7715 C   0  0  0  0  0  0  0  0  0  0  0  0
   17.9590  -14.4723  -15.6522 O   0  0  0  0  0  0  0  0  0  0  0  0
   20.0126  -14.2323  -16.7728 C   0  0  0  0  0  0  0  0  0  0  0  0
   21.3748  -14.7909  -16.8462 C   0  0  0  0  0  0  0  0  0  0  0  0
   22.3156  -14.2923  -17.8876 C   0  0  2  0  0  0  0  0  0  0  0  0
   23.5771  -15.0019  -17.6309 N   0  0  0  0  0  0  0  0  0  0  0  0
   22.4904  -12.8569  -17.9682 C   0  0  0  0  0  0  0  0  0  0  0  0
   21.5415  -11.9983  -18.5253 O   0  0  0  0  0  0  0  0  0  0  0  0
   23.5417  -12.2740  -17.5272 O   0  0  0  0  0  0  0  0  0  0  0  0
  2  1  1  1
  3  2  1  0
  4  3  1  0
  4  5  1  0
  5  6  2  0
  5  9  1  0
  7  2  1  0
  8  7  2  0
 11 10  1  6
 11 13  1  0
 11 12  1  0
 12  7  1  0
 13 21  1  0
 14 13  2  0
 16 15  1  0
 17 16  2  0
 18 16  1  0
 19 18  1  0
 20 19  1  1
 21 20  1  0
 22 23  1  0
 22 20  1  0
 24 22  2  0
M  END
$$$$
