EAQ.pdb
     RDKit          3D

 24 23  0  0  1  0  0  0  0  0999 V2000
   22.6168  -19.2493  -14.8528 N   0  0  0  0  0  0  0  0  0  0  0  0
   22.8391  -18.2729  -15.8900 C   0  0  1  0  0  0  0  0  0  0  0  0
   21.6355  -18.2207  -16.7701 C   0  0  0  0  0  0  0  0  0  0  0  0
   20.4152  -17.9537  -15.9222 C   0  0  0  0  0  0  0  0  0  0  0  0
   19.1588  -17.8793  -16.6960 C   0  0  0  0  0  0  0  0  0  0  0  0
   18.7627  -18.8678  -17.3637 O   0  0  0  0  0  0  0  0  0  0  0  0
   23.2159  -16.9460  -15.3457 C   0  0  0  0  0  0  0  0  0  0  0  0
   22.5051  -16.4702  -14.4238 O   0  0  0  0  0  0  0  0  0  0  0  0
   18.3735  -16.7350  -16.7201 O   0  0  0  0  0  0  0  0  0  0  0  0
   26.1138  -14.5408  -15.4545 C   0  0  0  0  0  0  0  0  0  0  0  0
   24.6499  -14.8768  -15.2994 C   0  0  2  0  0  0  0  0  0  0  0  0
   24.3142  -16.1800  -15.7885 N   0  0  0  0  0  0  0  0  0  0  0  0
   23.7881  -13.8118  -15.9102 C   0  0  0  0  0  0  0  0  0  0  0  0
   23.3414  -13.9805  -17.0664 O   0  0  0  0  0  0  0  0  0  0  0  0
   21.9843   -8.8321  -12.5156 N   0  0  0  0  0  0  0  0  0  0  0  0
   21.5294   -8.4578  -13.7981 C   0  0  0  0  0  0  0  0  0  0  0  0
   20.9471   -7.3563  -13.9347 O   0  0  0  0  0  0  0  0  0  0  0  0
   21.7246   -9.3170  -14.9748 C   0  0  0  0  0  0  0  0  0  0  0  0
   22.4375  -10.5784  -14.7038 C   0  0  0  0  0  0  0  0  0  0  0  0
   22.7247  -11.5132  -15.8272 C   0  0  2  0  0  0  0  0  0  0  0  0
   23.4676  -12.6247  -15.2159 N   0  0  0  0  0  0  0  0  0  0  0  0
   23.4052  -10.9540  -16.9768 C   0  0  0  0  0  0  0  0  0  0  0  0
   22.7479  -10.5747  -18.1481 O   0  0  0  0  0  0  0  0  0  0  0  0
   24.6720  -10.7685  -16.9934 O   0  0  0  0  0  0  0  0  0  0  0  0
  2  1  1  1
  3  2  1  0
  4  3  1  0
  4  5  1  0
  5  6  2  0
  5  9  1  0
  7  2  1  0
  8  7  2  0
 11 10  1  6
 11 13  1  0
 11 12  1  0
 12  7  1  0
 13 21  1  0
 14 13  2  0
 16 15  1  0
 17 16  2  0
 18 16  1  0
 19 18  1  0
 20 19  1  1
 21 20  1  0
 22 23  1  0
 22 20  1  0
 24 22  2  0
M  END
$$$$
