EAQ.pdb
     RDKit          3D

 24 23  0  0  1  0  0  0  0  0999 V2000
   27.3517  -22.3972  -16.3137 N   0  0  0  0  0  0  0  0  0  0  0  0
   26.9263  -21.2885  -15.4961 C   0  0  1  0  0  0  0  0  0  0  0  0
   26.5843  -20.1381  -16.3825 C   0  0  0  0  0  0  0  0  0  0  0  0
   27.5595  -20.0953  -17.5342 C   0  0  0  0  0  0  0  0  0  0  0  0
   28.6039  -19.0602  -17.3901 C   0  0  0  0  0  0  0  0  0  0  0  0
   28.4428  -18.0993  -16.5959 O   0  0  0  0  0  0  0  0  0  0  0  0
   25.8246  -21.6561  -14.5742 C   0  0  0  0  0  0  0  0  0  0  0  0
   24.8528  -22.2957  -15.0519 O   0  0  0  0  0  0  0  0  0  0  0  0
   29.7886  -19.1015  -18.1121 O   0  0  0  0  0  0  0  0  0  0  0  0
   24.9029  -21.1197  -10.9193 C   0  0  0  0  0  0  0  0  0  0  0  0
   24.6308  -21.4534  -12.3666 C   0  0  2  0  0  0  0  0  0  0  0  0
   25.7893  -21.3395  -13.2003 N   0  0  0  0  0  0  0  0  0  0  0  0
   23.4809  -20.6480  -12.8950 C   0  0  0  0  0  0  0  0  0  0  0  0
   23.6809  -19.4669  -13.2550 O   0  0  0  0  0  0  0  0  0  0  0  0
   19.7430  -22.4654  -17.0309 N   0  0  0  0  0  0  0  0  0  0  0  0
   18.9862  -21.3608  -16.5848 C   0  0  0  0  0  0  0  0  0  0  0  0
   17.9492  -21.0454  -17.2141 O   0  0  0  0  0  0  0  0  0  0  0  0
   19.3748  -20.5770  -15.4034 C   0  0  0  0  0  0  0  0  0  0  0  0
   20.5855  -21.0606  -14.7155 C   0  0  0  0  0  0  0  0  0  0  0  0
   21.0207  -20.4047  -13.4511 C   0  0  2  0  0  0  0  0  0  0  0  0
   22.1796  -21.1867  -12.9969 N   0  0  0  0  0  0  0  0  0  0  0  0
   20.0138  -20.2518  -12.4214 C   0  0  0  0  0  0  0  0  0  0  0  0
   19.9777  -21.0279  -11.2620 O   0  0  0  0  0  0  0  0  0  0  0  0
   19.0780  -19.3823  -12.5092 O   0  0  0  0  0  0  0  0  0  0  0  0
  2  1  1  6
  3  2  1  0
  4  3  1  0
  4  5  1  0
  5  6  2  0
  5  9  1  0
  7  2  1  0
  8  7  2  0
 11 10  1  1
 11 13  1  0
 11 12  1  0
 12  7  1  0
 13 21  1  0
 14 13  2  0
 16 15  1  0
 17 16  2  0
 18 16  1  0
 19 18  1  0
 20 19  1  6
 21 20  1  0
 22 23  1  0
 22 20  1  0
 24 22  2  0
M  END
$$$$
