EAQ.pdb
     RDKit          3D

 24 23  0  0  1  0  0  0  0  0999 V2000
   22.9749  -19.9654  -13.8990 N   0  0  0  0  0  0  0  0  0  0  0  0
   22.2029  -21.0459  -14.4602 C   0  0  1  0  0  0  0  0  0  0  0  0
   23.0106  -22.2989  -14.3993 C   0  0  0  0  0  0  0  0  0  0  0  0
   24.0955  -22.2383  -15.4474 C   0  0  0  0  0  0  0  0  0  0  0  0
   24.8902  -23.4794  -15.5523 C   0  0  0  0  0  0  0  0  0  0  0  0
   24.6041  -24.4802  -14.8478 O   0  0  0  0  0  0  0  0  0  0  0  0
   20.8730  -21.1831  -13.8188 C   0  0  0  0  0  0  0  0  0  0  0  0
   20.8241  -21.1442  -12.5628 O   0  0  0  0  0  0  0  0  0  0  0  0
   25.9692  -23.5939  -16.4179 O   0  0  0  0  0  0  0  0  0  0  0  0
   17.2442  -21.0049  -14.8017 C   0  0  0  0  0  0  0  0  0  0  0  0
   18.3708  -21.4516  -13.9010 C   0  0  2  0  0  0  0  0  0  0  0  0
   19.6596  -21.3541  -14.5170 N   0  0  0  0  0  0  0  0  0  0  0  0
   18.1120  -22.8271  -13.3615 C   0  0  0  0  0  0  0  0  0  0  0  0
   18.6300  -23.8116  -13.9337 O   0  0  0  0  0  0  0  0  0  0  0  0
   18.8542  -24.9740   -7.8479 N   0  0  0  0  0  0  0  0  0  0  0  0
   17.7114  -24.1485   -7.9170 C   0  0  0  0  0  0  0  0  0  0  0  0
   17.2588  -23.6538   -6.8581 O   0  0  0  0  0  0  0  0  0  0  0  0
   17.0439  -23.8485   -9.1919 C   0  0  0  0  0  0  0  0  0  0  0  0
   17.6922  -24.4350  -10.3786 C   0  0  0  0  0  0  0  0  0  0  0  0
   16.9985  -24.3780  -11.6954 C   0  0  2  0  0  0  0  0  0  0  0  0
   17.3002  -23.0408  -12.2261 N   0  0  0  0  0  0  0  0  0  0  0  0
   15.5799  -24.6692  -11.6928 C   0  0  0  0  0  0  0  0  0  0  0  0
   14.5952  -23.6904  -11.8353 O   0  0  0  0  0  0  0  0  0  0  0  0
   15.1305  -25.8606  -11.5576 O   0  0  0  0  0  0  0  0  0  0  0  0
  2  1  1  1
  3  2  1  0
  4  3  1  0
  4  5  1  0
  5  6  2  0
  5  9  1  0
  7  2  1  0
  8  7  2  0
 11 10  1  6
 11 13  1  0
 11 12  1  0
 12  7  1  0
 13 21  1  0
 14 13  2  0
 16 15  1  0
 17 16  2  0
 18 16  1  0
 19 18  1  0
 20 19  1  1
 21 20  1  0
 22 23  1  0
 22 20  1  0
 24 22  2  0
M  END
$$$$
