EAQ.pdb
     RDKit          3D

 24 23  0  0  1  0  0  0  0  0999 V2000
   25.2640  -19.3965  -20.4456 N   0  0  0  0  0  0  0  0  0  0  0  0
   24.6069  -18.4724  -19.5551 C   0  0  1  0  0  0  0  0  0  0  0  0
   23.7443  -17.5580  -20.3587 C   0  0  0  0  0  0  0  0  0  0  0  0
   24.6219  -16.5951  -21.1216 C   0  0  0  0  0  0  0  0  0  0  0  0
   25.6989  -15.9983  -20.3050 C   0  0  0  0  0  0  0  0  0  0  0  0
   25.4400  -15.0914  -19.4742 O   0  0  0  0  0  0  0  0  0  0  0  0
   23.8667  -19.1618  -18.4708 C   0  0  0  0  0  0  0  0  0  0  0  0
   22.9422  -19.9469  -18.8031 O   0  0  0  0  0  0  0  0  0  0  0  0
   27.0213  -16.4051  -20.4165 O   0  0  0  0  0  0  0  0  0  0  0  0
   24.1185  -19.5436  -14.6980 C   0  0  0  0  0  0  0  0  0  0  0  0
   23.4705  -19.7272  -16.0494 C   0  0  2  0  0  0  0  0  0  0  0  0
   24.1257  -18.9995  -17.0940 N   0  0  0  0  0  0  0  0  0  0  0  0
   22.0043  -19.4167  -15.9871 C   0  0  0  0  0  0  0  0  0  0  0  0
   21.6254  -18.2367  -16.1565 O   0  0  0  0  0  0  0  0  0  0  0  0
   17.8084  -23.8749  -17.0040 N   0  0  0  0  0  0  0  0  0  0  0  0
   17.0005  -22.7178  -16.9836 C   0  0  0  0  0  0  0  0  0  0  0  0
   15.7996  -22.8136  -17.3291 O   0  0  0  0  0  0  0  0  0  0  0  0
   17.5244  -21.4101  -16.5635 C   0  0  0  0  0  0  0  0  0  0  0  0
   18.9763  -21.3813  -16.3113 C   0  0  0  0  0  0  0  0  0  0  0  0
   19.5946  -20.1571  -15.7302 C   0  0  2  0  0  0  0  0  0  0  0  0
   21.0408  -20.4196  -15.7424 N   0  0  0  0  0  0  0  0  0  0  0  0
   19.1141  -19.7452  -14.4276 C   0  0  0  0  0  0  0  0  0  0  0  0
   17.9683  -18.9702  -14.2421 O   0  0  0  0  0  0  0  0  0  0  0  0
   19.7179  -20.0699  -13.3462 O   0  0  0  0  0  0  0  0  0  0  0  0
  2  1  1  6
  3  2  1  0
  4  3  1  0
  4  5  1  0
  5  6  2  0
  5  9  1  0
  7  2  1  0
  8  7  2  0
 11 10  1  1
 11 13  1  0
 11 12  1  0
 12  7  1  0
 13 21  1  0
 14 13  2  0
 16 15  1  0
 17 16  2  0
 18 16  1  0
 19 18  1  0
 20 19  1  1
 21 20  1  0
 22 23  1  0
 22 20  1  0
 24 22  2  0
M  END
$$$$
