EAQ.pdb
     RDKit          3D

 24 23  0  0  1  0  0  0  0  0999 V2000
   19.2832  -12.8912  -17.4372 N   0  0  0  0  0  0  0  0  0  0  0  0
   20.1315  -11.7904  -17.8207 C   0  0  1  0  0  0  0  0  0  0  0  0
   19.3836  -10.9108  -18.7657 C   0  0  0  0  0  0  0  0  0  0  0  0
   19.1992  -11.6380  -20.0758 C   0  0  0  0  0  0  0  0  0  0  0  0
   18.5215  -10.8321  -21.1123 C   0  0  0  0  0  0  0  0  0  0  0  0
   17.3549  -11.1201  -21.4812 O   0  0  0  0  0  0  0  0  0  0  0  0
   20.6691  -11.0565  -16.6496 C   0  0  0  0  0  0  0  0  0  0  0  0
   19.8442  -10.4983  -15.8818 O   0  0  0  0  0  0  0  0  0  0  0  0
   19.1316   -9.7404  -21.7144 O   0  0  0  0  0  0  0  0  0  0  0  0
   24.0186  -10.4078  -14.9812 C   0  0  0  0  0  0  0  0  0  0  0  0
   22.5698  -10.1170  -15.2915 C   0  0  2  0  0  0  0  0  0  0  0  0
   22.0392  -10.9401  -16.3360 N   0  0  0  0  0  0  0  0  0  0  0  0
   22.3643   -8.6576  -15.5712 C   0  0  0  0  0  0  0  0  0  0  0  0
   22.1565   -8.2879  -16.7480 O   0  0  0  0  0  0  0  0  0  0  0  0
   18.1764   -6.1963  -16.5007 N   0  0  0  0  0  0  0  0  0  0  0  0
   18.7594   -4.9722  -16.1088 C   0  0  0  0  0  0  0  0  0  0  0  0
   18.1026   -3.9152  -16.2582 O   0  0  0  0  0  0  0  0  0  0  0  0
   20.1074   -4.9031  -15.5264 C   0  0  0  0  0  0  0  0  0  0  0  0
   20.7733   -6.2077  -15.3605 C   0  0  0  0  0  0  0  0  0  0  0  0
   22.1420   -6.2621  -14.7757 C   0  0  2  0  0  0  0  0  0  0  0  0
   22.3990   -7.6905  -14.5429 N   0  0  0  0  0  0  0  0  0  0  0  0
   22.3744   -5.4548  -13.5960 C   0  0  0  0  0  0  0  0  0  0  0  0
   22.7316   -4.1066  -13.6468 O   0  0  0  0  0  0  0  0  0  0  0  0
   22.2658   -5.9324  -12.4129 O   0  0  0  0  0  0  0  0  0  0  0  0
  2  1  1  1
  3  2  1  0
  4  3  1  0
  4  5  1  0
  5  6  2  0
  5  9  1  0
  7  2  1  0
  8  7  2  0
 11 10  1  6
 11 13  1  0
 11 12  1  0
 12  7  1  0
 13 21  1  0
 14 13  2  0
 16 15  1  0
 17 16  2  0
 18 16  1  0
 19 18  1  0
 20 19  1  1
 21 20  1  0
 22 23  1  0
 22 20  1  0
 24 22  2  0
M  END
$$$$
