EAQ.pdb
     RDKit          3D

 24 23  0  0  1  0  0  0  0  0999 V2000
   24.4521  -14.8946  -18.4409 N   0  0  0  0  0  0  0  0  0  0  0  0
   24.9666  -13.5585  -18.6096 C   0  0  1  0  0  0  0  0  0  0  0  0
   24.4898  -13.0188  -19.9163 C   0  0  0  0  0  0  0  0  0  0  0  0
   24.5344  -14.1181  -20.9502 C   0  0  0  0  0  0  0  0  0  0  0  0
   25.9008  -14.4580  -21.3974 C   0  0  0  0  0  0  0  0  0  0  0  0
   26.9017  -13.9768  -20.8086 O   0  0  0  0  0  0  0  0  0  0  0  0
   24.6359  -12.6766  -17.4642 C   0  0  0  0  0  0  0  0  0  0  0  0
   23.4346  -12.6240  -17.0961 O   0  0  0  0  0  0  0  0  0  0  0  0
   26.1367  -15.3087  -22.4685 O   0  0  0  0  0  0  0  0  0  0  0  0
   26.4721  -10.4443  -14.9898 C   0  0  0  0  0  0  0  0  0  0  0  0
   25.2535  -11.0336  -15.6590 C   0  0  2  0  0  0  0  0  0  0  0  0
   25.5726  -11.8932  -16.7587 N   0  0  0  0  0  0  0  0  0  0  0  0
   24.2860   -9.9572  -16.0537 C   0  0  0  0  0  0  0  0  0  0  0  0
   24.4446   -9.3684  -17.1459 O   0  0  0  0  0  0  0  0  0  0  0  0
   18.7204  -10.7741  -16.7783 N   0  0  0  0  0  0  0  0  0  0  0  0
   18.6457   -9.3650  -16.7512 C   0  0  0  0  0  0  0  0  0  0  0  0
   17.5728   -8.8105  -17.0863 O   0  0  0  0  0  0  0  0  0  0  0  0
   19.7844   -8.5329  -16.3361 C   0  0  0  0  0  0  0  0  0  0  0  0
   21.0006   -9.2870  -15.9827 C   0  0  0  0  0  0  0  0  0  0  0  0
   22.2322   -8.5476  -15.5893 C   0  0  2  0  0  0  0  0  0  0  0  0
   23.2020   -9.5909  -15.2263 N   0  0  0  0  0  0  0  0  0  0  0  0
   22.0821   -7.5431  -14.5569 C   0  0  0  0  0  0  0  0  0  0  0  0
   21.5557   -6.2723  -14.7932 O   0  0  0  0  0  0  0  0  0  0  0  0
   22.4276   -7.7588  -13.3429 O   0  0  0  0  0  0  0  0  0  0  0  0
  2  1  1  1
  3  2  1  0
  4  3  1  0
  4  5  1  0
  5  6  2  0
  5  9  1  0
  7  2  1  0
  8  7  2  0
 11 10  1  6
 11 13  1  0
 11 12  1  0
 12  7  1  0
 13 21  1  0
 14 13  2  0
 16 15  1  0
 17 16  2  0
 18 16  1  0
 19 18  1  0
 20 19  1  1
 21 20  1  0
 22 23  1  0
 22 20  1  0
 24 22  2  0
M  END
$$$$
