EAQ.pdb
     RDKit          3D

 24 23  0  0  1  0  0  0  0  0999 V2000
   18.8675  -12.8995  -17.1657 N   0  0  0  0  0  0  0  0  0  0  0  0
   19.8815  -11.9663  -17.5893 C   0  0  1  0  0  0  0  0  0  0  0  0
   19.3043  -11.0646  -18.6284 C   0  0  0  0  0  0  0  0  0  0  0  0
   18.8438  -11.8952  -19.8021 C   0  0  0  0  0  0  0  0  0  0  0  0
   18.2465  -11.0999  -20.8947 C   0  0  0  0  0  0  0  0  0  0  0  0
   17.3318  -11.5840  -21.6080 O   0  0  0  0  0  0  0  0  0  0  0  0
   20.4814  -11.2284  -16.4515 C   0  0  0  0  0  0  0  0  0  0  0  0
   19.6996  -10.7351  -15.5988 O   0  0  0  0  0  0  0  0  0  0  0  0
   18.6612   -9.8058  -21.1775 O   0  0  0  0  0  0  0  0  0  0  0  0
   23.9053  -10.4615  -15.0163 C   0  0  0  0  0  0  0  0  0  0  0  0
   22.4416  -10.1854  -15.2644 C   0  0  2  0  0  0  0  0  0  0  0  0
   21.8656  -11.0407  -16.2578 N   0  0  0  0  0  0  0  0  0  0  0  0
   22.2153   -8.7357  -15.5761 C   0  0  0  0  0  0  0  0  0  0  0  0
   21.9312   -8.4033  -16.7481 O   0  0  0  0  0  0  0  0  0  0  0  0
   17.7566   -6.3581  -15.5506 N   0  0  0  0  0  0  0  0  0  0  0  0
   18.4115   -5.1101  -15.4772 C   0  0  0  0  0  0  0  0  0  0  0  0
   17.7278   -4.0633  -15.5644 O   0  0  0  0  0  0  0  0  0  0  0  0
   19.8663   -5.0039  -15.2951 C   0  0  0  0  0  0  0  0  0  0  0  0
   20.5720   -6.2955  -15.2141 C   0  0  0  0  0  0  0  0  0  0  0  0
   22.0125   -6.3205  -14.8366 C   0  0  2  0  0  0  0  0  0  0  0  0
   22.3142   -7.7366  -14.5830 N   0  0  0  0  0  0  0  0  0  0  0  0
   22.4094   -5.4615  -13.7403 C   0  0  0  0  0  0  0  0  0  0  0  0
   22.7625   -4.1212  -13.9045 O   0  0  0  0  0  0  0  0  0  0  0  0
   22.4630   -5.8818  -12.5320 O   0  0  0  0  0  0  0  0  0  0  0  0
  2  1  1  1
  3  2  1  0
  4  3  1  0
  4  5  1  0
  5  6  2  0
  5  9  1  0
  7  2  1  0
  8  7  2  0
 11 10  1  6
 11 13  1  0
 11 12  1  0
 12  7  1  0
 13 21  1  0
 14 13  2  0
 16 15  1  0
 17 16  2  0
 18 16  1  0
 19 18  1  0
 20 19  1  1
 21 20  1  0
 22 23  1  0
 22 20  1  0
 24 22  2  0
M  END
$$$$
