EAQ.pdb
     RDKit          3D

 24 23  0  0  1  0  0  0  0  0999 V2000
   20.1411  -11.8591  -16.8466 N   0  0  0  0  0  0  0  0  0  0  0  0
   18.9976  -11.0577  -17.2052 C   0  0  1  0  0  0  0  0  0  0  0  0
   18.0056  -11.1062  -16.0918 C   0  0  0  0  0  0  0  0  0  0  0  0
   17.5537  -12.5332  -15.8951 C   0  0  0  0  0  0  0  0  0  0  0  0
   16.6036  -12.7067  -14.7771 C   0  0  0  0  0  0  0  0  0  0  0  0
   15.8268  -13.6945  -14.7490 O   0  0  0  0  0  0  0  0  0  0  0  0
   19.3735   -9.6746  -17.5853 C   0  0  0  0  0  0  0  0  0  0  0  0
   20.4297   -9.2009  -17.0935 O   0  0  0  0  0  0  0  0  0  0  0  0
   16.5273  -11.8030  -13.7263 O   0  0  0  0  0  0  0  0  0  0  0  0
   18.0745   -6.9170  -19.8655 C   0  0  0  0  0  0  0  0  0  0  0  0
   18.9988   -7.5216  -18.8358 C   0  0  2  0  0  0  0  0  0  0  0  0
   18.6311   -8.8530  -18.4586 N   0  0  0  0  0  0  0  0  0  0  0  0
   19.1355   -6.6209  -17.6441 C   0  0  0  0  0  0  0  0  0  0  0  0
   18.6437   -6.9801  -16.5514 O   0  0  0  0  0  0  0  0  0  0  0  0
   22.2903   -7.0742  -13.8599 N   0  0  0  0  0  0  0  0  0  0  0  0
   22.2354   -5.6909  -13.5855 C   0  0  0  0  0  0  0  0  0  0  0  0
   22.8486   -5.2487  -12.5859 O   0  0  0  0  0  0  0  0  0  0  0  0
   21.4878   -4.7569  -14.4398 C   0  0  0  0  0  0  0  0  0  0  0  0
   20.8884   -5.3668  -15.6404 C   0  0  0  0  0  0  0  0  0  0  0  0
   20.0576   -4.5296  -16.5500 C   0  0  2  0  0  0  0  0  0  0  0  0
   19.8037   -5.3794  -17.7222 N   0  0  0  0  0  0  0  0  0  0  0  0
   20.5950   -3.2332  -16.9077 C   0  0  0  0  0  0  0  0  0  0  0  0
   20.4860   -2.1057  -16.0924 O   0  0  0  0  0  0  0  0  0  0  0  0
   21.2139   -3.0345  -18.0109 O   0  0  0  0  0  0  0  0  0  0  0  0
  2  1  1  1
  3  2  1  0
  4  3  1  0
  4  5  1  0
  5  6  2  0
  5  9  1  0
  7  2  1  0
  8  7  2  0
 11 10  1  6
 11 13  1  0
 11 12  1  0
 12  7  1  0
 13 21  1  0
 14 13  2  0
 16 15  1  0
 17 16  2  0
 18 16  1  0
 19 18  1  0
 20 19  1  1
 21 20  1  0
 22 23  1  0
 22 20  1  0
 24 22  2  0
M  END
$$$$
