EAQ.pdb
     RDKit          3D

 24 23  0  0  1  0  0  0  0  0999 V2000
   14.3964  -11.9056  -14.1010 N   0  0  0  0  0  0  0  0  0  0  0  0
   15.3007  -11.8091  -12.9823 C   0  0  1  0  0  0  0  0  0  0  0  0
   16.6816  -12.1278  -13.4487 C   0  0  0  0  0  0  0  0  0  0  0  0
   17.0422  -11.2068  -14.5893 C   0  0  0  0  0  0  0  0  0  0  0  0
   18.4376  -11.3529  -15.0524 C   0  0  0  0  0  0  0  0  0  0  0  0
   19.2024  -12.1928  -14.5144 O   0  0  0  0  0  0  0  0  0  0  0  0
   15.2105  -10.4987  -12.2941 C   0  0  0  0  0  0  0  0  0  0  0  0
   15.1943   -9.4641  -13.0089 O   0  0  0  0  0  0  0  0  0  0  0  0
   18.9573  -10.5831  -16.0839 O   0  0  0  0  0  0  0  0  0  0  0  0
   14.1633   -9.2076   -8.9412 C   0  0  0  0  0  0  0  0  0  0  0  0
   14.9326   -9.0778  -10.2341 C   0  0  2  0  0  0  0  0  0  0  0  0
   15.1416  -10.3303  -10.8955 N   0  0  0  0  0  0  0  0  0  0  0  0
   16.2195   -8.3376  -10.0197 C   0  0  0  0  0  0  0  0  0  0  0  0
   17.2603   -8.9868   -9.7748 O   0  0  0  0  0  0  0  0  0  0  0  0
   19.9511   -7.6385  -13.2418 N   0  0  0  0  0  0  0  0  0  0  0  0
   20.5000   -6.6543  -12.3921 C   0  0  0  0  0  0  0  0  0  0  0  0
   21.6618   -6.2416  -12.6175 O   0  0  0  0  0  0  0  0  0  0  0  0
   19.7477   -6.0970  -11.2587 C   0  0  0  0  0  0  0  0  0  0  0  0
   18.4074   -6.6788  -11.0645 C   0  0  0  0  0  0  0  0  0  0  0  0
   17.5457   -6.1794   -9.9570 C   0  0  2  0  0  0  0  0  0  0  0  0
   16.2879   -6.9288  -10.0868 N   0  0  0  0  0  0  0  0  0  0  0  0
   17.3372   -4.7476   -9.8943 C   0  0  0  0  0  0  0  0  0  0  0  0
   18.1155   -3.8921   -9.1132 O   0  0  0  0  0  0  0  0  0  0  0  0
   16.4120   -4.1654  -10.5611 O   0  0  0  0  0  0  0  0  0  0  0  0
  2  1  1  6
  3  2  1  0
  4  3  1  0
  4  5  1  0
  5  6  2  0
  5  9  1  0
  7  2  1  0
  8  7  2  0
 11 10  1  1
 11 13  1  0
 11 12  1  0
 12  7  1  0
 13 21  1  0
 14 13  2  0
 16 15  1  0
 17 16  2  0
 18 16  1  0
 19 18  1  0
 20 19  1  6
 21 20  1  0
 22 23  1  0
 22 20  1  0
 24 22  2  0
M  END
$$$$
