EAQ.pdb
     RDKit          3D

 24 23  0  0  1  0  0  0  0  0999 V2000
   13.4897  -10.1124  -10.5313 N   0  0  0  0  0  0  0  0  0  0  0  0
   14.8644   -9.8611  -10.1770 C   0  0  1  0  0  0  0  0  0  0  0  0
   15.7393  -10.7949  -10.9443 C   0  0  0  0  0  0  0  0  0  0  0  0
   15.4626  -12.2101  -10.4972 C   0  0  0  0  0  0  0  0  0  0  0  0
   15.5137  -13.2000  -11.5928 C   0  0  0  0  0  0  0  0  0  0  0  0
   16.6004  -13.7495  -11.9043 O   0  0  0  0  0  0  0  0  0  0  0  0
   15.2423   -8.4380  -10.3530 C   0  0  0  0  0  0  0  0  0  0  0  0
   15.0671   -7.9237  -11.4872 O   0  0  0  0  0  0  0  0  0  0  0  0
   14.3844  -13.5611  -12.3144 O   0  0  0  0  0  0  0  0  0  0  0  0
   16.0462   -5.3895   -8.3443 C   0  0  0  0  0  0  0  0  0  0  0  0
   16.2678   -6.2878   -9.5376 C   0  0  2  0  0  0  0  0  0  0  0  0
   15.7840   -7.6208   -9.3393 N   0  0  0  0  0  0  0  0  0  0  0  0
   17.7073   -6.2729   -9.9594 C   0  0  0  0  0  0  0  0  0  0  0  0
   18.5758   -6.7085   -9.1715 O   0  0  0  0  0  0  0  0  0  0  0  0
   19.7792   -9.5392  -13.8686 N   0  0  0  0  0  0  0  0  0  0  0  0
   20.9179   -8.7079  -13.8049 C   0  0  0  0  0  0  0  0  0  0  0  0
   21.9852   -9.1043  -14.3289 O   0  0  0  0  0  0  0  0  0  0  0  0
   20.8855   -7.3923  -13.1498 C   0  0  0  0  0  0  0  0  0  0  0  0
   19.6196   -7.0780  -12.4632 C   0  0  0  0  0  0  0  0  0  0  0  0
   19.5016   -5.8117  -11.6881 C   0  0  2  0  0  0  0  0  0  0  0  0
   18.1083   -5.7808  -11.2207 N   0  0  0  0  0  0  0  0  0  0  0  0
   19.8863   -4.5951  -12.3733 C   0  0  0  0  0  0  0  0  0  0  0  0
   21.2067   -4.1533  -12.4697 O   0  0  0  0  0  0  0  0  0  0  0  0
   19.0278   -3.8351  -12.9432 O   0  0  0  0  0  0  0  0  0  0  0  0
  2  1  1  6
  3  2  1  0
  4  3  1  0
  4  5  1  0
  5  6  2  0
  5  9  1  0
  7  2  1  0
  8  7  2  0
 11 10  1  1
 11 13  1  0
 11 12  1  0
 12  7  1  0
 13 21  1  0
 14 13  2  0
 16 15  1  0
 17 16  2  0
 18 16  1  0
 19 18  1  0
 20 19  1  6
 21 20  1  0
 22 23  1  0
 22 20  1  0
 24 22  2  0
M  END
$$$$
