EAQ.pdb
     RDKit          3D

 24 23  0  0  1  0  0  0  0  0999 V2000
   20.4636  -16.3472  -15.5106 N   0  0  0  0  0  0  0  0  0  0  0  0
   21.0470  -15.3799  -16.4063 C   0  0  1  0  0  0  0  0  0  0  0  0
   20.1462  -15.2066  -17.5830 C   0  0  0  0  0  0  0  0  0  0  0  0
   20.4427  -16.2870  -18.5950 C   0  0  0  0  0  0  0  0  0  0  0  0
   21.4588  -15.9010  -19.5957 C   0  0  0  0  0  0  0  0  0  0  0  0
   21.9910  -14.7630  -19.5564 O   0  0  0  0  0  0  0  0  0  0  0  0
   21.3646  -14.1004  -15.7275 C   0  0  0  0  0  0  0  0  0  0  0  0
   20.4177  -13.4795  -15.1802 O   0  0  0  0  0  0  0  0  0  0  0  0
   21.8641  -16.7621  -20.6061 O   0  0  0  0  0  0  0  0  0  0  0  0
   24.4295  -12.0645  -14.7978 C   0  0  0  0  0  0  0  0  0  0  0  0
   22.9533  -12.2730  -15.0372 C   0  0  2  0  0  0  0  0  0  0  0  0
   22.6524  -13.5306  -15.6520 N   0  0  0  0  0  0  0  0  0  0  0  0
   22.3668  -11.1231  -15.8013 C   0  0  0  0  0  0  0  0  0  0  0  0
   22.3482  -11.1705  -17.0511 O   0  0  0  0  0  0  0  0  0  0  0  0
   17.9101   -7.7978  -13.2531 N   0  0  0  0  0  0  0  0  0  0  0  0
   18.0642   -7.0908  -14.4649 C   0  0  0  0  0  0  0  0  0  0  0  0
   17.2766   -6.1497  -14.7194 O   0  0  0  0  0  0  0  0  0  0  0  0
   19.1225   -7.4218  -15.4300 C   0  0  0  0  0  0  0  0  0  0  0  0
   19.9840   -8.5507  -15.0351 C   0  0  0  0  0  0  0  0  0  0  0  0
   21.1753   -8.8876  -15.8633 C   0  0  2  0  0  0  0  0  0  0  0  0
   21.8356   -9.9893  -15.1484 N   0  0  0  0  0  0  0  0  0  0  0  0
   22.0808   -7.7991  -16.1677 C   0  0  0  0  0  0  0  0  0  0  0  0
   21.8572   -6.8788  -17.1928 O   0  0  0  0  0  0  0  0  0  0  0  0
   23.1606   -7.6078  -15.5067 O   0  0  0  0  0  0  0  0  0  0  0  0
  2  1  1  1
  3  2  1  0
  4  3  1  0
  4  5  1  0
  5  6  2  0
  5  9  1  0
  7  2  1  0
  8  7  2  0
 11 10  1  6
 11 13  1  0
 11 12  1  0
 12  7  1  0
 13 21  1  0
 14 13  2  0
 16 15  1  0
 17 16  2  0
 18 16  1  0
 19 18  1  0
 20 19  1  1
 21 20  1  0
 22 23  1  0
 22 20  1  0
 24 22  2  0
M  END
$$$$
