EAQ.pdb
     RDKit          3D

 24 23  0  0  1  0  0  0  0  0999 V2000
   26.2513  -19.8564  -19.1717 N   0  0  0  0  0  0  0  0  0  0  0  0
   26.3189  -19.2575  -17.8620 C   0  0  1  0  0  0  0  0  0  0  0  0
   25.4813  -18.0228  -17.8518 C   0  0  0  0  0  0  0  0  0  0  0  0
   26.0903  -17.0054  -18.7863 C   0  0  0  0  0  0  0  0  0  0  0  0
   25.3617  -15.7206  -18.8222 C   0  0  0  0  0  0  0  0  0  0  0  0
   25.4826  -14.8935  -17.8835 O   0  0  0  0  0  0  0  0  0  0  0  0
   25.9575  -20.2107  -16.7852 C   0  0  0  0  0  0  0  0  0  0  0  0
   24.9412  -20.9306  -16.9600 O   0  0  0  0  0  0  0  0  0  0  0  0
   24.5258  -15.3754  -19.8752 O   0  0  0  0  0  0  0  0  0  0  0  0
   27.1653  -21.0761  -13.2792 C   0  0  0  0  0  0  0  0  0  0  0  0
   26.1698  -21.0294  -14.4136 C   0  0  2  0  0  0  0  0  0  0  0  0
   26.6721  -20.3672  -15.5795 N   0  0  0  0  0  0  0  0  0  0  0  0
   24.8654  -20.4455  -13.9580 C   0  0  0  0  0  0  0  0  0  0  0  0
   24.7907  -19.2145  -13.7489 O   0  0  0  0  0  0  0  0  0  0  0  0
   21.4771  -17.9975  -16.6261 N   0  0  0  0  0  0  0  0  0  0  0  0
   20.5562  -18.1123  -15.5628 C   0  0  0  0  0  0  0  0  0  0  0  0
   19.5080  -17.4260  -15.5948 O   0  0  0  0  0  0  0  0  0  0  0  0
   20.7879  -19.0158  -14.4265 C   0  0  0  0  0  0  0  0  0  0  0  0
   22.0986  -19.6902  -14.4343 C   0  0  0  0  0  0  0  0  0  0  0  0
   22.4107  -20.6964  -13.3814 C   0  0  2  0  0  0  0  0  0  0  0  0
   23.7202  -21.2473  -13.7587 N   0  0  0  0  0  0  0  0  0  0  0  0
   21.4175  -21.7259  -13.1552 C   0  0  0  0  0  0  0  0  0  0  0  0
   21.5780  -23.0504  -13.5649 O   0  0  0  0  0  0  0  0  0  0  0  0
   20.3120  -21.4843  -12.5562 O   0  0  0  0  0  0  0  0  0  0  0  0
  2  1  1  6
  3  2  1  0
  4  3  1  0
  4  5  1  0
  5  6  2  0
  5  9  1  0
  7  2  1  0
  8  7  2  0
 11 10  1  1
 11 13  1  0
 11 12  1  0
 12  7  1  0
 13 21  1  0
 14 13  2  0
 16 15  1  0
 17 16  2  0
 18 16  1  0
 19 18  1  0
 20 19  1  6
 21 20  1  0
 22 23  1  0
 22 20  1  0
 24 22  2  0
M  END
$$$$
