IIR.pdb
     RDKit          3D

 28 27  0  0  1  0  0  0  0  0999 V2000
   20.9816  -22.1494   -7.4552 C   0  0  0  0  0  0  0  0  0  0  0  0
   21.3502  -22.1518   -8.9023 C   0  0  0  0  0  0  0  0  0  0  0  0
   22.4017  -21.0839   -9.2369 C   0  0  2  0  0  0  0  0  0  0  0  0
   21.9928  -19.7610   -8.6893 C   0  0  0  0  0  0  0  0  0  0  0  0
   22.6076  -21.1412  -10.7171 C   0  0  2  0  0  0  0  0  0  0  0  0
   22.7629  -22.5743  -11.0456 N   0  0  0  0  0  0  0  0  0  0  0  0
   23.8048  -20.4620  -11.2181 C   0  0  0  0  0  0  0  0  0  0  0  0
   23.8483  -19.1998  -11.3069 O   0  0  0  0  0  0  0  0  0  0  0  0
   28.4758  -21.3761   -9.2535 C   0  0  0  0  0  0  0  0  0  0  0  0
   27.3152  -20.7575   -9.9590 C   0  0  0  0  0  0  0  0  0  0  0  0
   27.3247  -21.0246  -11.4563 C   0  0  2  0  0  0  0  0  0  0  0  0
   28.6614  -20.6614  -12.0115 C   0  0  0  0  0  0  0  0  0  0  0  0
   26.1476  -20.3925  -12.1410 C   0  0  2  0  0  0  0  0  0  0  0  0
   24.9747  -21.1371  -11.6301 N   0  0  0  0  0  0  0  0  0  0  0  0
   26.2221  -20.6600  -13.5882 C   0  0  0  0  0  0  0  0  0  0  0  0
   26.6413  -21.7966  -14.0161 O   0  0  0  0  0  0  0  0  0  0  0  0
   21.6707  -17.6554  -20.6408 N   0  0  0  0  0  0  0  0  0  0  0  0
   21.9214  -19.0541  -20.6170 C   0  0  0  0  0  0  0  0  0  0  0  0
   21.1958  -19.8568  -21.3269 N   0  0  0  0  0  0  0  0  0  0  0  0
   22.9597  -19.6328  -19.8311 N   0  0  0  0  0  0  0  0  0  0  0  0
   23.7588  -18.7994  -18.9263 C   0  0  0  0  0  0  0  0  0  0  0  0
   24.8218  -19.6634  -18.2700 C   0  0  0  0  0  0  0  0  0  0  0  0
   24.8919  -19.2503  -16.8170 C   0  0  0  0  0  0  0  0  0  0  0  0
   25.8122  -20.1660  -16.0213 C   0  0  2  0  0  0  0  0  0  0  0  0
   25.8584  -19.7532  -14.6225 N   0  0  0  0  0  0  0  0  0  0  0  0
   27.1559  -20.2201  -16.6164 C   0  0  0  0  0  0  0  0  0  0  0  0
   27.9527  -19.1029  -16.7432 O   0  0  0  0  0  0  0  0  0  0  0  0
   27.6075  -21.3167  -17.0293 O   0  0  0  0  0  0  0  0  0  0  0  0
  2  1  1  0
  3  2  1  0
  3  4  1  6
  5  6  1  1
  5  3  1  0
  7  5  1  0
  8  7  2  0
  9 10  1  0
 11 10  1  0
 11 13  1  0
 11 12  1  6
 13 15  1  0
 13 14  1  1
 14  7  1  0
 15 16  2  0
 17 18  1  0
 18 19  2  0
 18 20  1  0
 20 21  1  0
 21 22  1  0
 23 22  1  0
 24 23  1  6
 25 24  1  0
 25 15  1  0
 26 24  1  0
 27 26  1  0
 28 26  2  0
M  END
$$$$
