IIR.pdb
     RDKit          3D

 28 27  0  0  1  0  0  0  0  0999 V2000
   28.7104  -17.3723  -16.1521 C   0  0  0  0  0  0  0  0  0  0  0  0
   29.0377  -18.2890  -15.0195 C   0  0  0  0  0  0  0  0  0  0  0  0
   27.7834  -18.9323  -14.4103 C   0  0  2  0  0  0  0  0  0  0  0  0
   26.8399  -17.8838  -13.9333 C   0  0  0  0  0  0  0  0  0  0  0  0
   28.2634  -19.8976  -13.3738 C   0  0  2  0  0  0  0  0  0  0  0  0
   29.0499  -20.9138  -14.1050 N   0  0  0  0  0  0  0  0  0  0  0  0
   27.2171  -20.6188  -12.6452 C   0  0  0  0  0  0  0  0  0  0  0  0
   26.5772  -21.5650  -13.1914 O   0  0  0  0  0  0  0  0  0  0  0  0
   26.9917  -20.0196   -7.1678 C   0  0  0  0  0  0  0  0  0  0  0  0
   26.9732  -20.7276   -8.4815 C   0  0  0  0  0  0  0  0  0  0  0  0
   25.6909  -20.4866   -9.2632 C   0  0  2  0  0  0  0  0  0  0  0  0
   24.5245  -20.9181   -8.4383 C   0  0  0  0  0  0  0  0  0  0  0  0
   25.7610  -21.0776  -10.6415 C   0  0  2  0  0  0  0  0  0  0  0  0
   26.8469  -20.3290  -11.3135 N   0  0  0  0  0  0  0  0  0  0  0  0
   24.5184  -20.7676  -11.3702 C   0  0  0  0  0  0  0  0  0  0  0  0
   24.1063  -19.5541  -11.4611 O   0  0  0  0  0  0  0  0  0  0  0  0
   24.1977  -26.5039  -15.8252 N   0  0  0  0  0  0  0  0  0  0  0  0
   22.8746  -25.9866  -15.7827 C   0  0  0  0  0  0  0  0  0  0  0  0
   21.8642  -26.7673  -15.9936 N   0  0  0  0  0  0  0  0  0  0  0  0
   22.5967  -24.6156  -15.5115 N   0  0  0  0  0  0  0  0  0  0  0  0
   23.6880  -23.6807  -15.2167 C   0  0  0  0  0  0  0  0  0  0  0  0
   23.1088  -22.2882  -15.0354 C   0  0  0  0  0  0  0  0  0  0  0  0
   22.1733  -22.3497  -13.8489 C   0  0  0  0  0  0  0  0  0  0  0  0
   22.5221  -21.2934  -12.8092 C   0  0  2  0  0  0  0  0  0  0  0  0
   23.6787  -21.7120  -12.0243 N   0  0  0  0  0  0  0  0  0  0  0  0
   21.3670  -20.9857  -11.9528 C   0  0  0  0  0  0  0  0  0  0  0  0
   20.3112  -20.2134  -12.3864 O   0  0  0  0  0  0  0  0  0  0  0  0
   21.3268  -21.4351  -10.7808 O   0  0  0  0  0  0  0  0  0  0  0  0
  2  1  1  0
  3  2  1  0
  3  4  1  1
  5  6  1  6
  5  3  1  0
  7  5  1  0
  8  7  2  0
  9 10  1  0
 11 10  1  0
 11 13  1  0
 11 12  1  1
 13 15  1  0
 13 14  1  6
 14  7  1  0
 15 16  2  0
 17 18  1  0
 18 19  2  0
 18 20  1  0
 20 21  1  0
 21 22  1  0
 23 22  1  0
 24 23  1  6
 25 24  1  0
 25 15  1  0
 26 24  1  0
 27 26  1  0
 28 26  2  0
M  END
$$$$
