IIR.pdb
     RDKit          3D

 28 27  0  0  1  0  0  0  0  0999 V2000
   27.6815  -20.1299  -19.6004 C   0  0  0  0  0  0  0  0  0  0  0  0
   27.9909  -19.9935  -18.1458 C   0  0  0  0  0  0  0  0  0  0  0  0
   26.9529  -20.6994  -17.2612 C   0  0  2  0  0  0  0  0  0  0  0  0
   25.7299  -19.8612  -17.1236 C   0  0  0  0  0  0  0  0  0  0  0  0
   27.6508  -21.0486  -15.9855 C   0  0  2  0  0  0  0  0  0  0  0  0
   28.6636  -22.0632  -16.3466 N   0  0  0  0  0  0  0  0  0  0  0  0
   26.8100  -21.6445  -14.9446 C   0  0  0  0  0  0  0  0  0  0  0  0
   26.4829  -22.8667  -14.9921 O   0  0  0  0  0  0  0  0  0  0  0  0
   25.4832  -20.8472   -9.0389 C   0  0  0  0  0  0  0  0  0  0  0  0
   25.1400  -21.5213  -10.3254 C   0  0  0  0  0  0  0  0  0  0  0  0
   25.9101  -20.9584  -11.5100 C   0  0  2  0  0  0  0  0  0  0  0  0
   25.8415  -19.4680  -11.4769 C   0  0  0  0  0  0  0  0  0  0  0  0
   25.4867  -21.5958  -12.8016 C   0  0  2  0  0  0  0  0  0  0  0  0
   26.3105  -20.9283  -13.8347 N   0  0  0  0  0  0  0  0  0  0  0  0
   24.0843  -21.2429  -13.0844 C   0  0  0  0  0  0  0  0  0  0  0  0
   23.7687  -20.0349  -13.3874 O   0  0  0  0  0  0  0  0  0  0  0  0
   16.6748  -25.9549  -12.8016 N   0  0  0  0  0  0  0  0  0  0  0  0
   17.5510  -25.6656  -13.8826 C   0  0  0  0  0  0  0  0  0  0  0  0
   17.5969  -26.4508  -14.9103 N   0  0  0  0  0  0  0  0  0  0  0  0
   18.4035  -24.5238  -13.8930 N   0  0  0  0  0  0  0  0  0  0  0  0
   18.2935  -23.5051  -12.8432 C   0  0  0  0  0  0  0  0  0  0  0  0
   19.1938  -22.3338  -13.1965 C   0  0  0  0  0  0  0  0  0  0  0  0
   20.6182  -22.7860  -12.9658 C   0  0  0  0  0  0  0  0  0  0  0  0
   21.6123  -21.6742  -13.2729 C   0  0  2  0  0  0  0  0  0  0  0  0
   22.9793  -22.1391  -13.0627 N   0  0  0  0  0  0  0  0  0  0  0  0
   21.3222  -20.4665  -12.4857 C   0  0  0  0  0  0  0  0  0  0  0  0
   20.5152  -19.4538  -12.9573 O   0  0  0  0  0  0  0  0  0  0  0  0
   21.8210  -20.3383  -11.3404 O   0  0  0  0  0  0  0  0  0  0  0  0
  2  1  1  0
  3  2  1  0
  3  4  1  1
  5  6  1  6
  5  3  1  0
  7  5  1  0
  8  7  2  0
  9 10  1  0
 11 10  1  0
 11 13  1  0
 11 12  1  6
 13 15  1  0
 13 14  1  6
 14  7  1  0
 15 16  2  0
 17 18  1  0
 18 19  2  0
 18 20  1  0
 20 21  1  0
 21 22  1  0
 23 22  1  0
 24 23  1  1
 25 24  1  0
 25 15  1  0
 26 24  1  0
 27 26  1  0
 28 26  2  0
M  END
$$$$
