IIR.pdb
     RDKit          3D

 28 27  0  0  1  0  0  0  0  0999 V2000
   24.6464  -20.7195  -15.4610 C   0  0  0  0  0  0  0  0  0  0  0  0
   25.2351  -20.0064  -14.2884 C   0  0  0  0  0  0  0  0  0  0  0  0
   24.8495  -20.6624  -12.9546 C   0  0  2  0  0  0  0  0  0  0  0  0
   23.5731  -20.0911  -12.4431 C   0  0  0  0  0  0  0  0  0  0  0  0
   26.0348  -20.5195  -12.0539 C   0  0  2  0  0  0  0  0  0  0  0  0
   27.1256  -21.2782  -12.7023 N   0  0  0  0  0  0  0  0  0  0  0  0
   25.8790  -21.0737  -10.7070 C   0  0  0  0  0  0  0  0  0  0  0  0
   25.8614  -22.3251  -10.5157 O   0  0  0  0  0  0  0  0  0  0  0  0
   28.5209  -18.9408   -6.7159 C   0  0  0  0  0  0  0  0  0  0  0  0
   27.8005  -19.9525   -7.5435 C   0  0  0  0  0  0  0  0  0  0  0  0
   26.3037  -19.9766   -7.2746 C   0  0  2  0  0  0  0  0  0  0  0  0
   26.0697  -20.2228   -5.8215 C   0  0  0  0  0  0  0  0  0  0  0  0
   25.5859  -20.9051   -8.2108 C   0  0  2  0  0  0  0  0  0  0  0  0
   25.7410  -20.2831   -9.5450 N   0  0  0  0  0  0  0  0  0  0  0  0
   24.1450  -20.8930   -7.9022 C   0  0  0  0  0  0  0  0  0  0  0  0
   23.4143  -19.8987   -8.2604 O   0  0  0  0  0  0  0  0  0  0  0  0
   17.4175  -26.5021   -8.3529 N   0  0  0  0  0  0  0  0  0  0  0  0
   16.9118  -25.3600   -7.6749 C   0  0  0  0  0  0  0  0  0  0  0  0
   15.6474  -25.2646   -7.4160 N   0  0  0  0  0  0  0  0  0  0  0  0
   17.7488  -24.2864   -7.2537 N   0  0  0  0  0  0  0  0  0  0  0  0
   19.1825  -24.2967   -7.5635 C   0  0  0  0  0  0  0  0  0  0  0  0
   19.7902  -22.9739   -7.1299 C   0  0  0  0  0  0  0  0  0  0  0  0
   21.2659  -23.0381   -7.4541 C   0  0  0  0  0  0  0  0  0  0  0  0
   22.0012  -21.8037   -6.9500 C   0  0  2  0  0  0  0  0  0  0  0  0
   23.4311  -21.9161   -7.2182 N   0  0  0  0  0  0  0  0  0  0  0  0
   21.7329  -21.5681   -5.5235 C   0  0  0  0  0  0  0  0  0  0  0  0
   20.5243  -21.0865   -5.0691 O   0  0  0  0  0  0  0  0  0  0  0  0
   22.6280  -21.8091   -4.6762 O   0  0  0  0  0  0  0  0  0  0  0  0
  2  1  1  0
  3  2  1  0
  3  4  1  1
  5  6  1  6
  5  3  1  0
  7  5  1  0
  8  7  2  0
  9 10  1  0
 11 10  1  0
 11 13  1  0
 11 12  1  1
 13 15  1  0
 13 14  1  6
 14  7  1  0
 15 16  2  0
 17 18  1  0
 18 19  2  0
 18 20  1  0
 20 21  1  0
 21 22  1  0
 23 22  1  0
 24 23  1  1
 25 24  1  0
 25 15  1  0
 26 24  1  0
 27 26  1  0
 28 26  2  0
M  END
$$$$
