IIR.pdb
     RDKit          3D

 28 27  0  0  1  0  0  0  0  0999 V2000
   18.0346  -19.6179  -15.4086 C   0  0  0  0  0  0  0  0  0  0  0  0
   19.2638  -20.4580  -15.2920 C   0  0  0  0  0  0  0  0  0  0  0  0
   20.5295  -19.6124  -15.0890 C   0  0  2  0  0  0  0  0  0  0  0  0
   20.5952  -18.5221  -16.1009 C   0  0  0  0  0  0  0  0  0  0  0  0
   21.6805  -20.5673  -15.0839 C   0  0  2  0  0  0  0  0  0  0  0  0
   21.2702  -21.6861  -14.2089 N   0  0  0  0  0  0  0  0  0  0  0  0
   22.9361  -20.0451  -14.5393 C   0  0  0  0  0  0  0  0  0  0  0  0
   23.4143  -18.9452  -14.9449 O   0  0  0  0  0  0  0  0  0  0  0  0
   26.4264  -20.6280   -9.5319 C   0  0  0  0  0  0  0  0  0  0  0  0
   26.3077  -20.1249  -10.9320 C   0  0  0  0  0  0  0  0  0  0  0  0
   25.1457  -20.7516  -11.6873 C   0  0  2  0  0  0  0  0  0  0  0  0
   25.3026  -22.2356  -11.6863 C   0  0  0  0  0  0  0  0  0  0  0  0
   24.9570  -20.1230  -13.0375 C   0  0  2  0  0  0  0  0  0  0  0  0
   23.6938  -20.7036  -13.5460 N   0  0  0  0  0  0  0  0  0  0  0  0
   26.0272  -20.5778  -13.9425 C   0  0  0  0  0  0  0  0  0  0  0  0
   25.9675  -21.7420  -14.4829 O   0  0  0  0  0  0  0  0  0  0  0  0
   32.8621  -24.7867  -15.1863 N   0  0  0  0  0  0  0  0  0  0  0  0
   32.4606  -24.4345  -16.5033 C   0  0  0  0  0  0  0  0  0  0  0  0
   33.1149  -24.8853  -17.5249 N   0  0  0  0  0  0  0  0  0  0  0  0
   31.3439  -23.5884  -16.7631 N   0  0  0  0  0  0  0  0  0  0  0  0
   30.5440  -23.0533  -15.6560 C   0  0  0  0  0  0  0  0  0  0  0  0
   29.4085  -22.2205  -16.2256 C   0  0  0  0  0  0  0  0  0  0  0  0
   28.6481  -21.6477  -15.0507 C   0  0  0  0  0  0  0  0  0  0  0  0
   28.0742  -20.2750  -15.3745 C   0  0  2  0  0  0  0  0  0  0  0  0
   27.1813  -19.8307  -14.3093 N   0  0  0  0  0  0  0  0  0  0  0  0
   27.4026  -20.2723  -16.6827 C   0  0  0  0  0  0  0  0  0  0  0  0
   26.2551  -20.9960  -16.9250 O   0  0  0  0  0  0  0  0  0  0  0  0
   27.8803  -19.5914  -17.6235 O   0  0  0  0  0  0  0  0  0  0  0  0
  2  1  1  0
  3  2  1  0
  3  4  1  6
  5  6  1  1
  5  3  1  0
  7  5  1  0
  8  7  2  0
  9 10  1  0
 11 10  1  0
 11 13  1  0
 11 12  1  6
 13 15  1  0
 13 14  1  6
 14  7  1  0
 15 16  2  0
 17 18  1  0
 18 19  2  0
 18 20  1  0
 20 21  1  0
 21 22  1  0
 23 22  1  0
 24 23  1  1
 25 24  1  0
 25 15  1  0
 26 24  1  0
 27 26  1  0
 28 26  2  0
M  END
$$$$
