IIR.pdb
     RDKit          3D

 28 27  0  0  1  0  0  0  0  0999 V2000
   30.9943  -21.2749  -11.8481 C   0  0  0  0  0  0  0  0  0  0  0  0
   29.6164  -20.7523  -12.0896 C   0  0  0  0  0  0  0  0  0  0  0  0
   29.2831  -20.6592  -13.5857 C   0  0  2  0  0  0  0  0  0  0  0  0
   30.3252  -19.8745  -14.3035 C   0  0  0  0  0  0  0  0  0  0  0  0
   27.8884  -20.1270  -13.6767 C   0  0  2  0  0  0  0  0  0  0  0  0
   27.9371  -18.7709  -13.0900 N   0  0  0  0  0  0  0  0  0  0  0  0
   26.8741  -20.8735  -12.9285 C   0  0  0  0  0  0  0  0  0  0  0  0
   26.5507  -22.0501  -13.2660 O   0  0  0  0  0  0  0  0  0  0  0  0
   26.3208  -20.1223   -7.6429 C   0  0  0  0  0  0  0  0  0  0  0  0
   26.3039  -20.8270   -8.9584 C   0  0  0  0  0  0  0  0  0  0  0  0
   25.0374  -20.5567   -9.7559 C   0  0  2  0  0  0  0  0  0  0  0  0
   23.8522  -20.9797   -8.9538 C   0  0  0  0  0  0  0  0  0  0  0  0
   25.1190  -21.1319  -11.1402 C   0  0  2  0  0  0  0  0  0  0  0  0
   26.1944  -20.3597  -11.8023 N   0  0  0  0  0  0  0  0  0  0  0  0
   23.8729  -20.8335  -11.8680 C   0  0  0  0  0  0  0  0  0  0  0  0
   23.6062  -19.6297  -12.2292 O   0  0  0  0  0  0  0  0  0  0  0  0
   17.5210  -23.7447  -13.9471 N   0  0  0  0  0  0  0  0  0  0  0  0
   17.3391  -23.4575  -15.3271 C   0  0  0  0  0  0  0  0  0  0  0  0
   16.1471  -23.4012  -15.8278 N   0  0  0  0  0  0  0  0  0  0  0  0
   18.4318  -23.2212  -16.2107 N   0  0  0  0  0  0  0  0  0  0  0  0
   19.8128  -23.3056  -15.7234 C   0  0  0  0  0  0  0  0  0  0  0  0
   20.0607  -22.1703  -14.7452 C   0  0  0  0  0  0  0  0  0  0  0  0
   21.3523  -22.4829  -14.0235 C   0  0  0  0  0  0  0  0  0  0  0  0
   21.7069  -21.3944  -13.0195 C   0  0  2  0  0  0  0  0  0  0  0  0
   22.8786  -21.7807  -12.2403 N   0  0  0  0  0  0  0  0  0  0  0  0
   20.5618  -21.0721  -12.1551 C   0  0  0  0  0  0  0  0  0  0  0  0
   20.5399  -21.3820  -10.8125 O   0  0  0  0  0  0  0  0  0  0  0  0
   19.5596  -20.4940  -12.6434 O   0  0  0  0  0  0  0  0  0  0  0  0
  2  1  1  0
  3  2  1  0
  3  4  1  6
  5  6  1  1
  5  3  1  0
  7  5  1  0
  8  7  2  0
  9 10  1  0
 11 10  1  0
 11 13  1  0
 11 12  1  1
 13 15  1  0
 13 14  1  6
 14  7  1  0
 15 16  2  0
 17 18  1  0
 18 19  2  0
 18 20  1  0
 20 21  1  0
 21 22  1  0
 23 22  1  0
 24 23  1  6
 25 24  1  0
 25 15  1  0
 26 24  1  0
 27 26  1  0
 28 26  2  0
M  END
$$$$
