IIR.pdb
     RDKit          3D

 28 27  0  0  1  0  0  0  0  0999 V2000
   18.4970  -16.0934  -16.9754 C   0  0  0  0  0  0  0  0  0  0  0  0
   19.8014  -15.4017  -17.1993 C   0  0  0  0  0  0  0  0  0  0  0  0
   20.9770  -16.3867  -17.2760 C   0  0  2  0  0  0  0  0  0  0  0  0
   20.9441  -17.3275  -16.1223 C   0  0  0  0  0  0  0  0  0  0  0  0
   22.2155  -15.5588  -17.4069 C   0  0  2  0  0  0  0  0  0  0  0  0
   22.0799  -14.8332  -18.6878 N   0  0  0  0  0  0  0  0  0  0  0  0
   23.4737  -16.3056  -17.4768 C   0  0  0  0  0  0  0  0  0  0  0  0
   23.6425  -17.2177  -18.3384 O   0  0  0  0  0  0  0  0  0  0  0  0
   28.1807  -14.1453  -17.7610 C   0  0  0  0  0  0  0  0  0  0  0  0
   27.0339  -15.0986  -17.8206 C   0  0  0  0  0  0  0  0  0  0  0  0
   26.9265  -15.9702  -16.5788 C   0  0  2  0  0  0  0  0  0  0  0  0
   28.2561  -16.5848  -16.2936 C   0  0  0  0  0  0  0  0  0  0  0  0
   25.7773  -16.9316  -16.6725 C   0  0  2  0  0  0  0  0  0  0  0  0
   24.5701  -16.0767  -16.6167 N   0  0  0  0  0  0  0  0  0  0  0  0
   25.7512  -17.7812  -15.4688 C   0  0  0  0  0  0  0  0  0  0  0  0
   25.8256  -17.2518  -14.3005 O   0  0  0  0  0  0  0  0  0  0  0  0
   20.3372  -23.2497  -12.6683 N   0  0  0  0  0  0  0  0  0  0  0  0
   20.6455  -21.9040  -13.0056 C   0  0  0  0  0  0  0  0  0  0  0  0
   19.7052  -21.0937  -13.3716 N   0  0  0  0  0  0  0  0  0  0  0  0
   21.9729  -21.3876  -12.9590 N   0  0  0  0  0  0  0  0  0  0  0  0
   23.0997  -22.2647  -12.6230 C   0  0  0  0  0  0  0  0  0  0  0  0
   24.3856  -21.4580  -12.6774 C   0  0  0  0  0  0  0  0  0  0  0  0
   24.3854  -20.7144  -13.9942 C   0  0  0  0  0  0  0  0  0  0  0  0
   25.6894  -19.9572  -14.2065 C   0  0  2  0  0  0  0  0  0  0  0  0
   25.6428  -19.1999  -15.4529 N   0  0  0  0  0  0  0  0  0  0  0  0
   26.8460  -20.8643  -14.1649 C   0  0  0  0  0  0  0  0  0  0  0  0
   27.3936  -21.3088  -12.9810 O   0  0  0  0  0  0  0  0  0  0  0  0
   27.3653  -21.2565  -15.2390 O   0  0  0  0  0  0  0  0  0  0  0  0
  2  1  1  0
  3  2  1  0
  3  4  1  1
  5  6  1  6
  5  3  1  0
  7  5  1  0
  8  7  2  0
  9 10  1  0
 11 10  1  0
 11 13  1  0
 11 12  1  6
 13 15  1  0
 13 14  1  1
 14  7  1  0
 15 16  2  0
 17 18  1  0
 18 19  2  0
 18 20  1  0
 20 21  1  0
 21 22  1  0
 23 22  1  0
 24 23  1  6
 25 24  1  0
 25 15  1  0
 26 24  1  0
 27 26  1  0
 28 26  2  0
M  END
$$$$
