IIR.pdb
     RDKit          3D

 28 27  0  0  1  0  0  0  0  0999 V2000
   23.9517  -19.0689  -20.8058 C   0  0  0  0  0  0  0  0  0  0  0  0
   23.7173  -20.0223  -19.6804 C   0  0  0  0  0  0  0  0  0  0  0  0
   23.7585  -19.3280  -18.3113 C   0  0  2  0  0  0  0  0  0  0  0  0
   24.8462  -18.3118  -18.2752 C   0  0  0  0  0  0  0  0  0  0  0  0
   23.8475  -20.4148  -17.2878 C   0  0  2  0  0  0  0  0  0  0  0  0
   22.8127  -21.4028  -17.6601 N   0  0  0  0  0  0  0  0  0  0  0  0
   23.5677  -20.0113  -15.9077 C   0  0  0  0  0  0  0  0  0  0  0  0
   24.1904  -19.0481  -15.3718 O   0  0  0  0  0  0  0  0  0  0  0  0
   18.5147  -20.4035  -14.0082 C   0  0  0  0  0  0  0  0  0  0  0  0
   19.9054  -19.9362  -14.2821 C   0  0  0  0  0  0  0  0  0  0  0  0
   20.9429  -20.6325  -13.4149 C   0  0  2  0  0  0  0  0  0  0  0  0
   20.5285  -20.5411  -11.9843 C   0  0  0  0  0  0  0  0  0  0  0  0
   22.3326  -20.1513  -13.7167 C   0  0  2  0  0  0  0  0  0  0  0  0
   22.6086  -20.6426  -15.0855 N   0  0  0  0  0  0  0  0  0  0  0  0
   23.2891  -20.8273  -12.8226 C   0  0  0  0  0  0  0  0  0  0  0  0
   23.4042  -22.1068  -12.8456 O   0  0  0  0  0  0  0  0  0  0  0  0
   31.7397  -20.9049  -11.5124 N   0  0  0  0  0  0  0  0  0  0  0  0
   31.2169  -21.7857  -10.5273 C   0  0  0  0  0  0  0  0  0  0  0  0
   32.0157  -22.4047   -9.7188 N   0  0  0  0  0  0  0  0  0  0  0  0
   29.8203  -22.0276  -10.3799 N   0  0  0  0  0  0  0  0  0  0  0  0
   28.8471  -21.2660  -11.1702 C   0  0  0  0  0  0  0  0  0  0  0  0
   27.4457  -21.7082  -10.7857 C   0  0  0  0  0  0  0  0  0  0  0  0
   26.4812  -20.8925  -11.6171 C   0  0  0  0  0  0  0  0  0  0  0  0
   25.0698  -20.9494  -11.0487 C   0  0  2  0  0  0  0  0  0  0  0  0
   24.1504  -20.1879  -11.8878 N   0  0  0  0  0  0  0  0  0  0  0  0
   25.0379  -20.4899   -9.6522 C   0  0  0  0  0  0  0  0  0  0  0  0
   25.3805  -21.3082   -8.5976 O   0  0  0  0  0  0  0  0  0  0  0  0
   24.6872  -19.3118   -9.3949 O   0  0  0  0  0  0  0  0  0  0  0  0
  2  1  1  0
  3  2  1  0
  3  4  1  6
  5  6  1  6
  5  3  1  0
  7  5  1  0
  8  7  2  0
  9 10  1  0
 11 10  1  0
 11 13  1  0
 11 12  1  1
 13 15  1  0
 13 14  1  6
 14  7  1  0
 15 16  2  0
 17 18  1  0
 18 19  2  0
 18 20  1  0
 20 21  1  0
 21 22  1  0
 23 22  1  0
 24 23  1  6
 25 24  1  0
 25 15  1  0
 26 24  1  0
 27 26  1  0
 28 26  2  0
M  END
$$$$
