IIR.pdb
     RDKit          3D

 28 27  0  0  1  0  0  0  0  0999 V2000
   28.0828  -17.7842  -18.1151 C   0  0  0  0  0  0  0  0  0  0  0  0
   28.1627  -17.8195  -16.6243 C   0  0  0  0  0  0  0  0  0  0  0  0
   26.9075  -18.4346  -15.9885 C   0  0  2  0  0  0  0  0  0  0  0  0
   25.8813  -17.3844  -15.7408 C   0  0  0  0  0  0  0  0  0  0  0  0
   27.3700  -19.1910  -14.7841 C   0  0  2  0  0  0  0  0  0  0  0  0
   28.3672  -20.1636  -15.2793 N   0  0  0  0  0  0  0  0  0  0  0  0
   26.3398  -19.9628  -14.0852 C   0  0  0  0  0  0  0  0  0  0  0  0
   25.5142  -20.6773  -14.7262 O   0  0  0  0  0  0  0  0  0  0  0  0
   27.2298  -20.9711   -8.8937 C   0  0  0  0  0  0  0  0  0  0  0  0
   26.7869  -21.2090  -10.2989 C   0  0  0  0  0  0  0  0  0  0  0  0
   25.3892  -20.6765  -10.5748 C   0  0  2  0  0  0  0  0  0  0  0  0
   24.4129  -21.3787   -9.6912 C   0  0  0  0  0  0  0  0  0  0  0  0
   25.0654  -20.6986  -12.0406 C   0  0  2  0  0  0  0  0  0  0  0  0
   26.1867  -19.9752  -12.6813 N   0  0  0  0  0  0  0  0  0  0  0  0
   23.8511  -19.9006  -12.2853 C   0  0  0  0  0  0  0  0  0  0  0  0
   23.9452  -18.6904  -12.7063 O   0  0  0  0  0  0  0  0  0  0  0  0
   24.2344  -16.0006  -16.9699 N   0  0  0  0  0  0  0  0  0  0  0  0
   23.2871  -16.8249  -17.6354 C   0  0  0  0  0  0  0  0  0  0  0  0
   23.4013  -17.0527  -18.9042 N   0  0  0  0  0  0  0  0  0  0  0  0
   22.1891  -17.4304  -16.9582 N   0  0  0  0  0  0  0  0  0  0  0  0
   22.2645  -17.7061  -15.5195 C   0  0  0  0  0  0  0  0  0  0  0  0
   21.3643  -18.8859  -15.1957 C   0  0  0  0  0  0  0  0  0  0  0  0
   22.2215  -19.9171  -14.4967 C   0  0  0  0  0  0  0  0  0  0  0  0
   21.5671  -20.4073  -13.2122 C   0  0  2  0  0  0  0  0  0  0  0  0
   22.5117  -20.3445  -12.1018 N   0  0  0  0  0  0  0  0  0  0  0  0
   21.0127  -21.7592  -13.3779 C   0  0  0  0  0  0  0  0  0  0  0  0
   21.7850  -22.8940  -13.2558 O   0  0  0  0  0  0  0  0  0  0  0  0
   19.7931  -21.9012  -13.6413 O   0  0  0  0  0  0  0  0  0  0  0  0
  2  1  1  0
  3  2  1  0
  3  4  1  1
  5  6  1  6
  5  3  1  0
  7  5  1  0
  8  7  2  0
  9 10  1  0
 11 10  1  0
 11 13  1  0
 11 12  1  1
 13 15  1  0
 13 14  1  6
 14  7  1  0
 15 16  2  0
 17 18  1  0
 18 19  2  0
 18 20  1  0
 20 21  1  0
 21 22  1  0
 23 22  1  0
 24 23  1  6
 25 24  1  0
 25 15  1  0
 26 24  1  0
 27 26  1  0
 28 26  2  0
M  END
$$$$
