IIR.pdb
     RDKit          3D

 28 27  0  0  1  0  0  0  0  0999 V2000
   18.3451  -21.6882  -15.3766 C   0  0  0  0  0  0  0  0  0  0  0  0
   19.0484  -21.4640  -14.0784 C   0  0  0  0  0  0  0  0  0  0  0  0
   20.5081  -21.0293  -14.2747 C   0  0  2  0  0  0  0  0  0  0  0  0
   21.2156  -21.9751  -15.1814 C   0  0  0  0  0  0  0  0  0  0  0  0
   21.0925  -20.8775  -12.9065 C   0  0  2  0  0  0  0  0  0  0  0  0
   20.3330  -19.7836  -12.2645 N   0  0  0  0  0  0  0  0  0  0  0  0
   22.5054  -20.4938  -12.8589 C   0  0  0  0  0  0  0  0  0  0  0  0
   22.8797  -19.3405  -13.2233 O   0  0  0  0  0  0  0  0  0  0  0  0
   25.3480  -20.6531   -8.7116 C   0  0  0  0  0  0  0  0  0  0  0  0
   24.8250  -20.3882  -10.0842 C   0  0  0  0  0  0  0  0  0  0  0  0
   25.5237  -21.2165  -11.1514 C   0  0  2  0  0  0  0  0  0  0  0  0
   26.9999  -21.0389  -11.0227 C   0  0  0  0  0  0  0  0  0  0  0  0
   24.9584  -20.9538  -12.5172 C   0  0  2  0  0  0  0  0  0  0  0  0
   23.5361  -21.3511  -12.4150 N   0  0  0  0  0  0  0  0  0  0  0  0
   25.5848  -21.8668  -13.4896 C   0  0  0  0  0  0  0  0  0  0  0  0
   25.9272  -23.0537  -13.1363 O   0  0  0  0  0  0  0  0  0  0  0  0
   26.5104  -27.4796  -17.3583 N   0  0  0  0  0  0  0  0  0  0  0  0
   25.2021  -26.9991  -17.0805 C   0  0  0  0  0  0  0  0  0  0  0  0
   24.4019  -27.6878  -16.3319 N   0  0  0  0  0  0  0  0  0  0  0  0
   24.7139  -25.7641  -17.5972 N   0  0  0  0  0  0  0  0  0  0  0  0
   25.5812  -24.9042  -18.4096 C   0  0  0  0  0  0  0  0  0  0  0  0
   26.5662  -24.1943  -17.4969 C   0  0  0  0  0  0  0  0  0  0  0  0
   25.7631  -23.2556  -16.6248 C   0  0  0  0  0  0  0  0  0  0  0  0
   26.6614  -22.4634  -15.6844 C   0  0  2  0  0  0  0  0  0  0  0  0
   25.8653  -21.5675  -14.8520 N   0  0  0  0  0  0  0  0  0  0  0  0
   27.7007  -21.7347  -16.4269 C   0  0  0  0  0  0  0  0  0  0  0  0
   28.8775  -22.3303  -16.8264 O   0  0  0  0  0  0  0  0  0  0  0  0
   27.5246  -20.5250  -16.7142 O   0  0  0  0  0  0  0  0  0  0  0  0
  2  1  1  0
  3  2  1  0
  3  4  1  6
  5  6  1  1
  5  3  1  0
  7  5  1  0
  8  7  2  0
  9 10  1  0
 11 10  1  0
 11 13  1  0
 11 12  1  6
 13 15  1  0
 13 14  1  1
 14  7  1  0
 15 16  2  0
 17 18  1  0
 18 19  2  0
 18 20  1  0
 20 21  1  0
 21 22  1  0
 23 22  1  0
 24 23  1  6
 25 24  1  0
 25 15  1  0
 26 24  1  0
 27 26  1  0
 28 26  2  0
M  END
$$$$
