PIC.pdb
     RDKit          3D

 22 22  0  0  1  0  0  0  0  0999 V2000
   26.7197  -22.4401  -15.9768 N   0  0  0  0  0  0  0  0  0  0  0  0
   27.7587  -23.2420  -16.6278 C   0  0  0  0  0  0  0  0  0  0  0  0
   27.5567  -24.5775  -15.9004 C   0  0  0  0  0  0  0  0  0  0  0  0
   26.0552  -24.6497  -15.6723 C   0  0  0  0  0  0  0  0  0  0  0  0
   25.5754  -23.2945  -16.0998 C   0  0  1  0  0  0  0  0  0  0  0  0
   24.4317  -22.8198  -15.2574 C   0  0  0  0  0  0  0  0  0  0  0  0
   23.3726  -23.4775  -15.3118 O   0  0  0  0  0  0  0  0  0  0  0  0
   25.5501  -21.4686  -10.3128 C   0  0  0  0  0  0  0  0  0  0  0  0
   24.9179  -21.8564  -11.6470 C   0  0  0  0  0  0  0  0  0  0  0  0
   24.1939  -20.6817  -12.2587 C   0  0  2  0  0  0  0  0  0  0  0  0
   23.0973  -20.1933  -11.3135 C   0  0  0  0  0  0  0  0  0  0  0  0
   23.6270  -21.0600  -13.5974 C   0  0  2  0  0  0  0  0  0  0  0  0
   24.5786  -21.6827  -14.4545 N   0  0  0  0  0  0  0  0  0  0  0  0
   22.7571  -20.0766  -14.2225 C   0  0  0  0  0  0  0  0  0  0  0  0
   23.0113  -18.8879  -14.4383 O   0  0  0  0  0  0  0  0  0  0  0  0
   21.4511  -20.5294  -14.6400 N   0  0  0  0  0  0  0  0  0  0  0  0
   20.4975  -19.6477  -15.2558 C   0  0  1  0  0  0  0  0  0  0  0  0
   20.0918  -20.1444  -16.6319 C   0  0  0  0  0  0  0  0  0  0  0  0
   21.5865  -20.5322  -17.5784 S   0  0  0  0  0  0  0  0  0  0  0  0
   19.3049  -19.4816  -14.3887 C   0  0  0  0  0  0  0  0  0  0  0  0
   18.2703  -18.6215  -14.7131 O   0  0  0  0  0  0  0  0  0  0  0  0
   19.2307  -20.1439  -13.3235 O   0  0  0  0  0  0  0  0  0  0  0  0
  1  2  1  0
  1  5  1  0
  3  2  1  0
  3  4  1  0
  4  5  1  0
  6 13  1  0
  5  6  1  1
  7  6  2  0
  8  9  1  0
  9 10  1  0
 10 12  1  0
 10 11  1  1
 12 13  1  6
 12 14  1  0
 14 16  1  0
 15 14  2  0
 16 17  1  0
 17 18  1  6
 17 20  1  0
 19 18  1  0
 20 22  2  0
 20 21  1  0
M  END
$$$$
