PIC.pdb
     RDKit          3D

 22 22  0  0  1  0  0  0  0  0999 V2000
   28.5274  -20.4429  -15.8574 N   0  0  0  0  0  0  0  0  0  0  0  0
   29.2088  -19.4063  -16.6367 C   0  0  0  0  0  0  0  0  0  0  0  0
   28.0026  -18.5584  -17.0608 C   0  0  0  0  0  0  0  0  0  0  0  0
   27.0603  -18.6362  -15.8701 C   0  0  0  0  0  0  0  0  0  0  0  0
   27.7093  -19.6560  -14.9822 C   0  0  1  0  0  0  0  0  0  0  0  0
   26.6951  -20.4923  -14.2646 C   0  0  0  0  0  0  0  0  0  0  0  0
   26.4326  -21.6113  -14.7504 O   0  0  0  0  0  0  0  0  0  0  0  0
   26.7498  -20.7209   -8.9557 C   0  0  0  0  0  0  0  0  0  0  0  0
   26.4654  -21.0473  -10.4196 C   0  0  0  0  0  0  0  0  0  0  0  0
   25.1734  -20.4096  -10.8696 C   0  0  2  0  0  0  0  0  0  0  0  0
   23.9957  -21.0262  -10.1165 C   0  0  0  0  0  0  0  0  0  0  0  0
   25.0076  -20.5631  -12.3548 C   0  0  2  0  0  0  0  0  0  0  0  0
   26.0865  -20.0085  -13.1006 N   0  0  0  0  0  0  0  0  0  0  0  0
   23.6754  -20.3054  -12.8776 C   0  0  0  0  0  0  0  0  0  0  0  0
   23.0669  -19.2311  -12.8686 O   0  0  0  0  0  0  0  0  0  0  0  0
   22.9793  -21.4208  -13.4745 N   0  0  0  0  0  0  0  0  0  0  0  0
   21.6511  -21.2950  -14.0092 C   0  0  1  0  0  0  0  0  0  0  0  0
   21.2620  -22.5183  -14.8200 C   0  0  0  0  0  0  0  0  0  0  0  0
   19.5923  -22.2768  -15.4790 S   0  0  0  0  0  0  0  0  0  0  0  0
   20.6710  -21.0573  -12.9208 C   0  0  0  0  0  0  0  0  0  0  0  0
   19.6598  -20.1187  -13.0300 O   0  0  0  0  0  0  0  0  0  0  0  0
   20.7613  -21.7305  -11.8636 O   0  0  0  0  0  0  0  0  0  0  0  0
  1  2  1  0
  1  5  1  0
  3  2  1  0
  3  4  1  0
  4  5  1  0
  6 13  1  0
  5  6  1  6
  7  6  2  0
  8  9  1  0
  9 10  1  0
 10 12  1  0
 10 11  1  1
 12 13  1  6
 12 14  1  0
 14 16  1  0
 15 14  2  0
 16 17  1  0
 17 18  1  1
 17 20  1  0
 19 18  1  0
 20 22  2  0
 20 21  1  0
M  END
$$$$
