PIC.pdb
     RDKit          3D

 22 22  0  0  1  0  0  0  0  0999 V2000
   23.2455  -10.7872  -19.0119 N   0  0  0  0  0  0  0  0  0  0  0  0
   23.4312  -11.7457  -20.1043 C   0  0  0  0  0  0  0  0  0  0  0  0
   22.0686  -12.4498  -20.0729 C   0  0  0  0  0  0  0  0  0  0  0  0
   21.0923  -11.3470  -19.6952 C   0  0  0  0  0  0  0  0  0  0  0  0
   21.9887  -10.1923  -19.3596 C   0  0  1  0  0  0  0  0  0  0  0  0
   21.4337   -9.3664  -18.2402 C   0  0  0  0  0  0  0  0  0  0  0  0
   20.2788   -8.9160  -18.3828 O   0  0  0  0  0  0  0  0  0  0  0  0
   22.8324  -11.0766  -13.4163 C   0  0  0  0  0  0  0  0  0  0  0  0
   22.1195  -10.4276  -14.6000 C   0  0  0  0  0  0  0  0  0  0  0  0
   22.4305   -8.9522  -14.6696 C   0  0  2  0  0  0  0  0  0  0  0  0
   21.8636   -8.2397  -13.4427 C   0  0  0  0  0  0  0  0  0  0  0  0
   21.8828   -8.3648  -15.9391 C   0  0  2  0  0  0  0  0  0  0  0  0
   22.2050   -9.1294  -17.0965 N   0  0  0  0  0  0  0  0  0  0  0  0
   22.0021   -6.9222  -16.0775 C   0  0  0  0  0  0  0  0  0  0  0  0
   23.0307   -6.2785  -16.3056 O   0  0  0  0  0  0  0  0  0  0  0  0
   20.7913   -6.1485  -15.9343 N   0  0  0  0  0  0  0  0  0  0  0  0
   20.7785   -4.7175  -16.0686 C   0  0  1  0  0  0  0  0  0  0  0  0
   20.0398   -4.2853  -17.3226 C   0  0  0  0  0  0  0  0  0  0  0  0
   19.9599   -2.4762  -17.3606 S   0  0  0  0  0  0  0  0  0  0  0  0
   20.1797   -4.0861  -14.8667 C   0  0  0  0  0  0  0  0  0  0  0  0
   20.6515   -2.8934  -14.3470 O   0  0  0  0  0  0  0  0  0  0  0  0
   19.2114   -4.6527  -14.3009 O   0  0  0  0  0  0  0  0  0  0  0  0
  1  2  1  0
  1  5  1  0
  3  2  1  0
  3  4  1  0
  4  5  1  0
  6 13  1  0
  5  6  1  1
  7  6  2  0
  8  9  1  0
  9 10  1  0
 10 12  1  0
 10 11  1  1
 12 13  1  6
 12 14  1  0
 14 16  1  0
 15 14  2  0
 16 17  1  0
 17 18  1  6
 17 20  1  0
 19 18  1  0
 20 22  2  0
 20 21  1  0
M  END
$$$$
