PIC.pdb
     RDKit          3D

 22 22  0  0  1  0  0  0  0  0999 V2000
   27.2316  -19.0116  -14.7338 N   0  0  0  0  0  0  0  0  0  0  0  0
   28.4446  -18.5931  -15.4409 C   0  0  0  0  0  0  0  0  0  0  0  0
   29.4623  -19.5529  -14.8111 C   0  0  0  0  0  0  0  0  0  0  0  0
   28.6729  -20.8331  -14.5883 C   0  0  0  0  0  0  0  0  0  0  0  0
   27.2655  -20.4327  -14.9173 C   0  0  1  0  0  0  0  0  0  0  0  0
   26.2710  -21.1321  -14.0427 C   0  0  0  0  0  0  0  0  0  0  0  0
   26.1686  -22.3689  -14.1724 O   0  0  0  0  0  0  0  0  0  0  0  0
   26.5403  -20.7813   -9.0141 C   0  0  0  0  0  0  0  0  0  0  0  0
   26.1151  -21.2145  -10.4148 C   0  0  0  0  0  0  0  0  0  0  0  0
   24.8001  -20.5792  -10.7962 C   0  0  2  0  0  0  0  0  0  0  0  0
   23.6868  -21.0938   -9.8853 C   0  0  0  0  0  0  0  0  0  0  0  0
   24.4896  -20.8535  -12.2402 C   0  0  2  0  0  0  0  0  0  0  0  0
   25.5049  -20.3987  -13.1291 N   0  0  0  0  0  0  0  0  0  0  0  0
   23.1199  -20.5995  -12.6572 C   0  0  0  0  0  0  0  0  0  0  0  0
   22.5076  -19.5295  -12.5909 O   0  0  0  0  0  0  0  0  0  0  0  0
   22.3869  -21.7137  -13.2108 N   0  0  0  0  0  0  0  0  0  0  0  0
   21.0392  -21.5784  -13.6917 C   0  0  1  0  0  0  0  0  0  0  0  0
   20.6613  -22.7257  -14.6115 C   0  0  0  0  0  0  0  0  0  0  0  0
   21.6032  -22.5759  -16.1513 S   0  0  0  0  0  0  0  0  0  0  0  0
   20.0875  -21.4843  -12.5572 C   0  0  0  0  0  0  0  0  0  0  0  0
   19.0032  -20.6243  -12.5726 O   0  0  0  0  0  0  0  0  0  0  0  0
   20.2713  -22.2095  -11.5477 O   0  0  0  0  0  0  0  0  0  0  0  0
  1  2  1  0
  1  5  1  0
  3  2  1  0
  3  4  1  0
  4  5  1  0
  6 13  1  0
  5  6  1  1
  7  6  2  0
  8  9  1  0
  9 10  1  0
 10 12  1  0
 10 11  1  1
 12 13  1  6
 12 14  1  0
 14 16  1  0
 15 14  2  0
 16 17  1  0
 17 18  1  6
 17 20  1  0
 19 18  1  0
 20 22  2  0
 20 21  1  0
M  END
$$$$
