PIC.pdb
     RDKit          3D

 22 22  0  0  1  0  0  0  0  0999 V2000
   27.3193  -19.1213  -14.8958 N   0  0  0  0  0  0  0  0  0  0  0  0
   28.5760  -18.7876  -15.5709 C   0  0  0  0  0  0  0  0  0  0  0  0
   29.5205  -19.7764  -14.8755 C   0  0  0  0  0  0  0  0  0  0  0  0
   28.6591  -21.0074  -14.6425 C   0  0  0  0  0  0  0  0  0  0  0  0
   27.2864  -20.5475  -15.0345 C   0  0  1  0  0  0  0  0  0  0  0  0
   26.2274  -21.1673  -14.1757 C   0  0  0  0  0  0  0  0  0  0  0  0
   26.0388  -22.3944  -14.3002 O   0  0  0  0  0  0  0  0  0  0  0  0
   26.4356  -20.4713   -9.1761 C   0  0  0  0  0  0  0  0  0  0  0  0
   26.0055  -21.0311  -10.5297 C   0  0  0  0  0  0  0  0  0  0  0  0
   24.6993  -20.4181  -10.9727 C   0  0  2  0  0  0  0  0  0  0  0  0
   23.5621  -20.9055  -10.0764 C   0  0  0  0  0  0  0  0  0  0  0  0
   24.4329  -20.7473  -12.4140 C   0  0  2  0  0  0  0  0  0  0  0  0
   25.4987  -20.3742  -13.2816 N   0  0  0  0  0  0  0  0  0  0  0  0
   23.0914  -20.4602  -12.8962 C   0  0  0  0  0  0  0  0  0  0  0  0
   22.5332  -19.3595  -12.9336 O   0  0  0  0  0  0  0  0  0  0  0  0
   22.3192  -21.5772  -13.3871 N   0  0  0  0  0  0  0  0  0  0  0  0
   21.0019  -21.4122  -13.9380 C   0  0  1  0  0  0  0  0  0  0  0  0
   20.6838  -22.4998  -14.9485 C   0  0  0  0  0  0  0  0  0  0  0  0
   22.0353  -22.5953  -16.1505 S   0  0  0  0  0  0  0  0  0  0  0  0
   19.9842  -21.3894  -12.8585 C   0  0  0  0  0  0  0  0  0  0  0  0
   18.7931  -20.6953  -12.9815 O   0  0  0  0  0  0  0  0  0  0  0  0
   20.2103  -22.0212  -11.7962 O   0  0  0  0  0  0  0  0  0  0  0  0
  1  2  1  0
  1  5  1  0
  3  2  1  0
  3  4  1  0
  4  5  1  0
  6 13  1  0
  5  6  1  1
  7  6  2  0
  8  9  1  0
  9 10  1  0
 10 12  1  0
 10 11  1  1
 12 13  1  6
 12 14  1  0
 14 16  1  0
 15 14  2  0
 16 17  1  0
 17 18  1  6
 17 20  1  0
 19 18  1  0
 20 22  2  0
 20 21  1  0
M  END
$$$$
