PIC.pdb
     RDKit          3D

 22 22  0  0  1  0  0  0  0  0999 V2000
   27.8993  -22.0389  -18.1865 N   0  0  0  0  0  0  0  0  0  0  0  0
   28.5966  -22.6949  -19.2954 C   0  0  0  0  0  0  0  0  0  0  0  0
   30.0492  -22.3719  -18.9224 C   0  0  0  0  0  0  0  0  0  0  0  0
   30.0581  -22.4151  -17.4026 C   0  0  0  0  0  0  0  0  0  0  0  0
   28.6065  -22.5573  -17.0528 C   0  0  1  0  0  0  0  0  0  0  0  0
   28.2640  -21.8185  -15.7959 C   0  0  0  0  0  0  0  0  0  0  0  0
   28.8501  -22.1686  -14.7514 O   0  0  0  0  0  0  0  0  0  0  0  0
   27.7562  -16.6812  -16.3089 C   0  0  0  0  0  0  0  0  0  0  0  0
   27.9676  -17.9899  -15.5518 C   0  0  0  0  0  0  0  0  0  0  0  0
   26.6498  -18.5559  -15.0815 C   0  0  2  0  0  0  0  0  0  0  0  0
   26.1410  -17.7653  -13.8771 C   0  0  0  0  0  0  0  0  0  0  0  0
   26.7987  -20.0134  -14.7497 C   0  0  2  0  0  0  0  0  0  0  0  0
   27.3216  -20.7840  -15.8270 N   0  0  0  0  0  0  0  0  0  0  0  0
   25.6985  -20.6154  -14.0136 C   0  0  0  0  0  0  0  0  0  0  0  0
   24.6351  -21.0378  -14.4774 O   0  0  0  0  0  0  0  0  0  0  0  0
   25.8567  -20.7372  -12.5835 N   0  0  0  0  0  0  0  0  0  0  0  0
   24.8768  -21.3899  -11.7592 C   0  0  1  0  0  0  0  0  0  0  0  0
   25.3394  -21.4818  -10.3160 C   0  0  0  0  0  0  0  0  0  0  0  0
   25.5233  -19.8065   -9.6526 S   0  0  0  0  0  0  0  0  0  0  0  0
   23.5722  -20.6884  -11.8450 C   0  0  0  0  0  0  0  0  0  0  0  0
   22.3822  -21.2960  -11.4844 O   0  0  0  0  0  0  0  0  0  0  0  0
   23.5457  -19.5023  -12.2591 O   0  0  0  0  0  0  0  0  0  0  0  0
  1  2  1  0
  1  5  1  0
  3  2  1  0
  3  4  1  0
  4  5  1  0
  6 13  1  0
  5  6  1  1
  7  6  2  0
  8  9  1  0
  9 10  1  0
 10 12  1  0
 10 11  1  1
 12 13  1  6
 12 14  1  0
 14 16  1  0
 15 14  2  0
 16 17  1  0
 17 18  1  1
 17 20  1  0
 19 18  1  0
 20 22  2  0
 20 21  1  0
M  END
$$$$
