PIC.pdb
     RDKit          3D

 22 22  0  0  1  0  0  0  0  0999 V2000
   27.7917  -19.6535  -15.8893 N   0  0  0  0  0  0  0  0  0  0  0  0
   28.9590  -19.4718  -16.7557 C   0  0  0  0  0  0  0  0  0  0  0  0
   29.8005  -20.6791  -16.3225 C   0  0  0  0  0  0  0  0  0  0  0  0
   28.7718  -21.7597  -16.0300 C   0  0  0  0  0  0  0  0  0  0  0  0
   27.4658  -21.0288  -16.1278 C   0  0  1  0  0  0  0  0  0  0  0  0
   26.4660  -21.5448  -15.1392 C   0  0  0  0  0  0  0  0  0  0  0  0
   26.0563  -22.7124  -15.2998 O   0  0  0  0  0  0  0  0  0  0  0  0
   25.4965  -21.1905   -9.2012 C   0  0  0  0  0  0  0  0  0  0  0  0
   24.8515  -21.3326  -10.5775 C   0  0  0  0  0  0  0  0  0  0  0  0
   25.8088  -20.9078  -11.6645 C   0  0  2  0  0  0  0  0  0  0  0  0
   26.2812  -19.4763  -11.4153 C   0  0  0  0  0  0  0  0  0  0  0  0
   25.1565  -21.0369  -13.0115 C   0  0  2  0  0  0  0  0  0  0  0  0
   26.0311  -20.7251  -14.0912 N   0  0  0  0  0  0  0  0  0  0  0  0
   23.8043  -20.5128  -13.1178 C   0  0  0  0  0  0  0  0  0  0  0  0
   23.4399  -19.3484  -12.9288 O   0  0  0  0  0  0  0  0  0  0  0  0
   22.7667  -21.4479  -13.4840 N   0  0  0  0  0  0  0  0  0  0  0  0
   21.4073  -21.0345  -13.7011 C   0  0  1  0  0  0  0  0  0  0  0  0
   20.8216  -21.6856  -14.9413 C   0  0  0  0  0  0  0  0  0  0  0  0
   19.0556  -21.2929  -15.0299 S   0  0  0  0  0  0  0  0  0  0  0  0
   20.5741  -21.3360  -12.5108 C   0  0  0  0  0  0  0  0  0  0  0  0
   19.5173  -20.5293  -12.1261 O   0  0  0  0  0  0  0  0  0  0  0  0
   20.8359  -22.3580  -11.8284 O   0  0  0  0  0  0  0  0  0  0  0  0
  1  2  1  0
  1  5  1  0
  3  2  1  0
  3  4  1  0
  4  5  1  0
  6 13  1  0
  5  6  1  1
  7  6  2  0
  8  9  1  0
  9 10  1  0
 10 12  1  0
 10 11  1  1
 12 13  1  6
 12 14  1  0
 14 16  1  0
 15 14  2  0
 16 17  1  0
 17 18  1  6
 17 20  1  0
 19 18  1  0
 20 22  2  0
 20 21  1  0
M  END
$$$$
