PIC.pdb
     RDKit          3D

 22 22  0  0  1  0  0  0  0  0999 V2000
   27.4580  -19.3589  -15.1535 N   0  0  0  0  0  0  0  0  0  0  0  0
   28.7419  -19.0568  -15.7913 C   0  0  0  0  0  0  0  0  0  0  0  0
   29.6225  -20.1263  -15.1325 C   0  0  0  0  0  0  0  0  0  0  0  0
   28.6960  -21.3216  -14.9755 C   0  0  0  0  0  0  0  0  0  0  0  0
   27.3556  -20.7728  -15.3649 C   0  0  1  0  0  0  0  0  0  0  0  0
   26.2514  -21.3795  -14.5551 C   0  0  0  0  0  0  0  0  0  0  0  0
   26.0027  -22.5874  -14.7453 O   0  0  0  0  0  0  0  0  0  0  0  0
   26.2877  -20.8325   -9.4447 C   0  0  0  0  0  0  0  0  0  0  0  0
   25.9561  -21.2836  -10.8649 C   0  0  0  0  0  0  0  0  0  0  0  0
   24.6807  -20.6371  -11.3485 C   0  0  2  0  0  0  0  0  0  0  0  0
   23.5033  -21.0965  -10.4901 C   0  0  0  0  0  0  0  0  0  0  0  0
   24.4526  -20.9579  -12.7982 C   0  0  2  0  0  0  0  0  0  0  0  0
   25.5483  -20.5958  -13.6327 N   0  0  0  0  0  0  0  0  0  0  0  0
   23.1297  -20.6515  -13.3185 C   0  0  0  0  0  0  0  0  0  0  0  0
   22.6305  -19.5327  -13.4716 O   0  0  0  0  0  0  0  0  0  0  0  0
   22.3013  -21.7707  -13.7008 N   0  0  0  0  0  0  0  0  0  0  0  0
   20.9958  -21.5939  -14.2755 C   0  0  1  0  0  0  0  0  0  0  0  0
   20.6915  -22.6711  -15.3013 C   0  0  0  0  0  0  0  0  0  0  0  0
   18.9659  -22.5081  -15.8269 S   0  0  0  0  0  0  0  0  0  0  0  0
   19.9575  -21.5747  -13.2157 C   0  0  0  0  0  0  0  0  0  0  0  0
   18.8395  -20.7624  -13.2922 O   0  0  0  0  0  0  0  0  0  0  0  0
   20.0970  -22.3209  -12.2144 O   0  0  0  0  0  0  0  0  0  0  0  0
  1  2  1  0
  1  5  1  0
  3  2  1  0
  3  4  1  0
  4  5  1  0
  6 13  1  0
  5  6  1  1
  7  6  2  0
  8  9  1  0
  9 10  1  0
 10 12  1  0
 10 11  1  1
 12 13  1  6
 12 14  1  0
 14 16  1  0
 15 14  2  0
 16 17  1  0
 17 18  1  6
 17 20  1  0
 19 18  1  0
 20 22  2  0
 20 21  1  0
M  END
$$$$
