PIC.pdb
     RDKit          3D

 22 22  0  0  1  0  0  0  0  0999 V2000
   28.7332  -21.4409  -17.3560 N   0  0  0  0  0  0  0  0  0  0  0  0
   29.3841  -22.5941  -17.9827 C   0  0  0  0  0  0  0  0  0  0  0  0
   29.3220  -23.5957  -16.8224 C   0  0  0  0  0  0  0  0  0  0  0  0
   28.0024  -23.2826  -16.1351 C   0  0  0  0  0  0  0  0  0  0  0  0
   27.5407  -22.0342  -16.8264 C   0  0  1  0  0  0  0  0  0  0  0  0
   26.8280  -21.1111  -15.8868 C   0  0  0  0  0  0  0  0  0  0  0  0
   27.5259  -20.2957  -15.2504 O   0  0  0  0  0  0  0  0  0  0  0  0
   23.4889  -18.8442  -17.9791 C   0  0  0  0  0  0  0  0  0  0  0  0
   24.1677  -18.7352  -16.6160 C   0  0  0  0  0  0  0  0  0  0  0  0
   23.5250  -19.6705  -15.6208 C   0  0  2  0  0  0  0  0  0  0  0  0
   22.6481  -18.8800  -14.6510 C   0  0  0  0  0  0  0  0  0  0  0  0
   24.5773  -20.4518  -14.8869 C   0  0  2  0  0  0  0  0  0  0  0  0
   25.4368  -21.1868  -15.7523 N   0  0  0  0  0  0  0  0  0  0  0  0
   24.1353  -21.1482  -13.6894 C   0  0  0  0  0  0  0  0  0  0  0  0
   23.4819  -22.1944  -13.6348 O   0  0  0  0  0  0  0  0  0  0  0  0
   24.4942  -20.5606  -12.4202 N   0  0  0  0  0  0  0  0  0  0  0  0
   24.0599  -21.1195  -11.1693 C   0  0  1  0  0  0  0  0  0  0  0  0
   25.0139  -20.7644  -10.0428 C   0  0  0  0  0  0  0  0  0  0  0  0
   26.6932  -21.2409  -10.5259 S   0  0  0  0  0  0  0  0  0  0  0  0
   22.6827  -20.6705  -10.8475 C   0  0  0  0  0  0  0  0  0  0  0  0
   22.0415  -19.6796  -11.5704 O   0  0  0  0  0  0  0  0  0  0  0  0
   22.0772  -21.2074   -9.8863 O   0  0  0  0  0  0  0  0  0  0  0  0
  1  2  1  0
  1  5  1  0
  3  2  1  0
  3  4  1  0
  4  5  1  0
  6 13  1  0
  5  6  1  1
  7  6  2  0
  8  9  1  0
  9 10  1  0
 10 12  1  0
 10 11  1  1
 12 13  1  6
 12 14  1  0
 14 16  1  0
 15 14  2  0
 16 17  1  0
 17 18  1  1
 17 20  1  0
 19 18  1  0
 20 22  2  0
 20 21  1  0
M  END
$$$$
