PIC.pdb
     RDKit          3D

 22 22  0  0  1  0  0  0  0  0999 V2000
   27.4572  -19.1690  -14.7861 N   0  0  0  0  0  0  0  0  0  0  0  0
   28.6622  -18.8335  -15.5489 C   0  0  0  0  0  0  0  0  0  0  0  0
   29.6255  -19.8947  -15.0018 C   0  0  0  0  0  0  0  0  0  0  0  0
   28.7417  -21.1096  -14.7681 C   0  0  0  0  0  0  0  0  0  0  0  0
   27.3585  -20.5816  -15.0076 C   0  0  1  0  0  0  0  0  0  0  0  0
   26.3556  -21.2204  -14.0971 C   0  0  0  0  0  0  0  0  0  0  0  0
   26.1103  -22.4303  -14.2789 O   0  0  0  0  0  0  0  0  0  0  0  0
   26.6727  -20.5954   -8.9550 C   0  0  0  0  0  0  0  0  0  0  0  0
   26.2904  -21.0768  -10.3524 C   0  0  0  0  0  0  0  0  0  0  0  0
   24.9652  -20.4921  -10.7768 C   0  0  2  0  0  0  0  0  0  0  0  0
   23.8524  -20.9994   -9.8610 C   0  0  0  0  0  0  0  0  0  0  0  0
   24.6829  -20.8318  -12.2126 C   0  0  2  0  0  0  0  0  0  0  0  0
   25.7382  -20.4630  -13.0948 N   0  0  0  0  0  0  0  0  0  0  0  0
   23.3356  -20.5503  -12.6814 C   0  0  0  0  0  0  0  0  0  0  0  0
   22.7981  -19.4433  -12.7818 O   0  0  0  0  0  0  0  0  0  0  0  0
   22.5296  -21.6819  -13.0752 N   0  0  0  0  0  0  0  0  0  0  0  0
   21.2229  -21.5253  -13.6528 C   0  0  1  0  0  0  0  0  0  0  0  0
   20.8275  -22.7439  -14.4675 C   0  0  0  0  0  0  0  0  0  0  0  0
   22.2069  -23.1964  -15.5506 S   0  0  0  0  0  0  0  0  0  0  0  0
   20.2154  -21.2540  -12.5978 C   0  0  0  0  0  0  0  0  0  0  0  0
   18.9301  -20.8351  -12.8946 O   0  0  0  0  0  0  0  0  0  0  0  0
   20.5390  -21.4096  -11.3937 O   0  0  0  0  0  0  0  0  0  0  0  0
  1  2  1  0
  1  5  1  0
  3  2  1  0
  3  4  1  0
  4  5  1  0
  6 13  1  0
  5  6  1  1
  7  6  2  0
  8  9  1  0
  9 10  1  0
 10 12  1  0
 10 11  1  1
 12 13  1  6
 12 14  1  0
 14 16  1  0
 15 14  2  0
 16 17  1  0
 17 18  1  1
 17 20  1  0
 19 18  1  0
 20 22  2  0
 20 21  1  0
M  END
$$$$
