PIC.pdb
     RDKit          3D

 22 22  0  0  1  0  0  0  0  0999 V2000
   28.4722  -20.9419  -15.8052 N   0  0  0  0  0  0  0  0  0  0  0  0
   29.3063  -19.9597  -16.5022 C   0  0  0  0  0  0  0  0  0  0  0  0
   28.2606  -18.8711  -16.7756 C   0  0  0  0  0  0  0  0  0  0  0  0
   27.3538  -18.9161  -15.5559 C   0  0  0  0  0  0  0  0  0  0  0  0
   27.8341  -20.1275  -14.8132 C   0  0  1  0  0  0  0  0  0  0  0  0
   26.7070  -20.8484  -14.1403 C   0  0  0  0  0  0  0  0  0  0  0  0
   26.2917  -21.8914  -14.6850 O   0  0  0  0  0  0  0  0  0  0  0  0
   26.4474  -20.7862   -8.7433 C   0  0  0  0  0  0  0  0  0  0  0  0
   26.2443  -21.1949  -10.2001 C   0  0  0  0  0  0  0  0  0  0  0  0
   25.0393  -20.5018  -10.7882 C   0  0  2  0  0  0  0  0  0  0  0  0
   23.7665  -20.9905  -10.0988 C   0  0  0  0  0  0  0  0  0  0  0  0
   24.9771  -20.7359  -12.2708 C   0  0  2  0  0  0  0  0  0  0  0  0
   26.1656  -20.3457  -12.9513 N   0  0  0  0  0  0  0  0  0  0  0  0
   23.7265  -20.3782  -12.9208 C   0  0  0  0  0  0  0  0  0  0  0  0
   23.2673  -19.2430  -13.0786 O   0  0  0  0  0  0  0  0  0  0  0  0
   22.9265  -21.4614  -13.4422 N   0  0  0  0  0  0  0  0  0  0  0  0
   21.6751  -21.2336  -14.1115 C   0  0  1  0  0  0  0  0  0  0  0  0
   21.4301  -22.2681  -15.1954 C   0  0  0  0  0  0  0  0  0  0  0  0
   19.7943  -21.9821  -15.9186 S   0  0  0  0  0  0  0  0  0  0  0  0
   20.5563  -21.2244  -13.1368 C   0  0  0  0  0  0  0  0  0  0  0  0
   19.4749  -20.3699  -13.2624 O   0  0  0  0  0  0  0  0  0  0  0  0
   20.5910  -22.0190  -12.1641 O   0  0  0  0  0  0  0  0  0  0  0  0
  1  2  1  0
  1  5  1  0
  3  2  1  0
  3  4  1  0
  4  5  1  0
  6 13  1  0
  5  6  1  6
  7  6  2  0
  8  9  1  0
  9 10  1  0
 10 12  1  0
 10 11  1  1
 12 13  1  6
 12 14  1  0
 14 16  1  0
 15 14  2  0
 16 17  1  0
 17 18  1  6
 17 20  1  0
 19 18  1  0
 20 22  2  0
 20 21  1  0
M  END
$$$$
