PIC.pdb
     RDKit          3D

 22 22  0  0  1  0  0  0  0  0999 V2000
   16.4518  -12.0081  -16.5067 N   0  0  0  0  0  0  0  0  0  0  0  0
   15.6390  -13.2258  -16.5579 C   0  0  0  0  0  0  0  0  0  0  0  0
   16.6519  -14.1938  -17.1828 C   0  0  0  0  0  0  0  0  0  0  0  0
   17.9875  -13.7541  -16.6044 C   0  0  0  0  0  0  0  0  0  0  0  0
   17.6490  -12.4855  -15.8795 C   0  0  1  0  0  0  0  0  0  0  0  0
   18.7602  -11.4850  -15.9639 C   0  0  0  0  0  0  0  0  0  0  0  0
   19.8659  -11.8204  -15.4927 O   0  0  0  0  0  0  0  0  0  0  0  0
   19.7718   -9.8878  -20.2681 C   0  0  0  0  0  0  0  0  0  0  0  0
   20.3537   -9.7525  -18.8632 C   0  0  0  0  0  0  0  0  0  0  0  0
   19.6313   -8.6799  -18.0848 C   0  0  2  0  0  0  0  0  0  0  0  0
   20.4198   -7.3724  -18.1403 C   0  0  0  0  0  0  0  0  0  0  0  0
   19.4156   -9.1232  -16.6658 C   0  0  2  0  0  0  0  0  0  0  0  0
   18.5336  -10.2356  -16.5529 N   0  0  0  0  0  0  0  0  0  0  0  0
   19.2294   -8.0632  -15.6879 C   0  0  0  0  0  0  0  0  0  0  0  0
   18.2192   -7.3734  -15.5207 O   0  0  0  0  0  0  0  0  0  0  0  0
   20.3413   -7.7781  -14.8118 N   0  0  0  0  0  0  0  0  0  0  0  0
   20.2773   -6.7554  -13.8040 C   0  0  1  0  0  0  0  0  0  0  0  0
   20.7178   -7.2831  -12.4503 C   0  0  0  0  0  0  0  0  0  0  0  0
   19.4552   -8.4226  -11.8272 S   0  0  0  0  0  0  0  0  0  0  0  0
   21.0963   -5.5826  -14.1983 C   0  0  0  0  0  0  0  0  0  0  0  0
   20.9450   -4.3426  -13.6023 O   0  0  0  0  0  0  0  0  0  0  0  0
   21.9567   -5.7186  -15.1038 O   0  0  0  0  0  0  0  0  0  0  0  0
  1  2  1  0
  1  5  1  0
  3  2  1  0
  3  4  1  0
  4  5  1  0
  6 13  1  0
  5  6  1  6
  7  6  2  0
  8  9  1  0
  9 10  1  0
 10 12  1  0
 10 11  1  1
 12 13  1  6
 12 14  1  0
 14 16  1  0
 15 14  2  0
 16 17  1  0
 17 18  1  1
 17 20  1  0
 19 18  1  0
 20 22  2  0
 20 21  1  0
M  END
$$$$
