PIC.pdb
     RDKit          3D

 22 22  0  0  1  0  0  0  0  0999 V2000
   27.6778  -22.8177  -17.8726 N   0  0  0  0  0  0  0  0  0  0  0  0
   28.2410  -23.5703  -18.9963 C   0  0  0  0  0  0  0  0  0  0  0  0
   29.6359  -22.9356  -19.0672 C   0  0  0  0  0  0  0  0  0  0  0  0
   29.9847  -22.6490  -17.6153 C   0  0  0  0  0  0  0  0  0  0  0  0
   28.7095  -22.9541  -16.8871 C   0  0  1  0  0  0  0  0  0  0  0  0
   28.4986  -22.0305  -15.7271 C   0  0  0  0  0  0  0  0  0  0  0  0
   29.3637  -22.0383  -14.8279 O   0  0  0  0  0  0  0  0  0  0  0  0
   27.6196  -17.0247  -16.5703 C   0  0  0  0  0  0  0  0  0  0  0  0
   27.9179  -18.3716  -15.9166 C   0  0  0  0  0  0  0  0  0  0  0  0
   26.6966  -18.9059  -15.2086 C   0  0  2  0  0  0  0  0  0  0  0  0
   26.2835  -17.9536  -14.0875 C   0  0  0  0  0  0  0  0  0  0  0  0
   26.9655  -20.2849  -14.6770 C   0  0  2  0  0  0  0  0  0  0  0  0
   27.3676  -21.2068  -15.6851 N   0  0  0  0  0  0  0  0  0  0  0  0
   26.0140  -20.7881  -13.6992 C   0  0  0  0  0  0  0  0  0  0  0  0
   24.9640  -21.3965  -13.9266 O   0  0  0  0  0  0  0  0  0  0  0  0
   26.3212  -20.5563  -12.3075 N   0  0  0  0  0  0  0  0  0  0  0  0
   25.4501  -20.9909  -11.2501 C   0  0  1  0  0  0  0  0  0  0  0  0
   26.0343  -20.6732   -9.8852 C   0  0  0  0  0  0  0  0  0  0  0  0
   24.8710  -21.2199   -8.6090 S   0  0  0  0  0  0  0  0  0  0  0  0
   24.1060  -20.3799  -11.3972 C   0  0  0  0  0  0  0  0  0  0  0  0
   22.9422  -21.0901  -11.1594 O   0  0  0  0  0  0  0  0  0  0  0  0
   24.0203  -19.1768  -11.7496 O   0  0  0  0  0  0  0  0  0  0  0  0
  1  2  1  0
  1  5  1  0
  3  2  1  0
  3  4  1  0
  4  5  1  0
  6 13  1  0
  5  6  1  1
  7  6  2  0
  8  9  1  0
  9 10  1  0
 10 12  1  0
 10 11  1  1
 12 13  1  6
 12 14  1  0
 14 16  1  0
 15 14  2  0
 16 17  1  0
 17 18  1  1
 17 20  1  0
 19 18  1  0
 20 22  2  0
 20 21  1  0
M  END
$$$$
