NAA.pdb
     RDKit          3D

 19 18  0  0  1  0  0  0  0  0999 V2000
   14.2047  -21.9148   19.3942 N   0  0  0  0  0  0  0  0  0  0  0  0
   14.9289  -20.7207   19.2103 C   0  0  0  0  0  0  0  0  0  0  0  0
   15.7379  -20.6765   18.2424 O   0  0  0  0  0  0  0  0  0  0  0  0
   14.7244  -19.5756   20.1389 C   0  0  0  0  0  0  0  0  0  0  0  0
   13.9147  -18.5385   19.3946 C   0  0  2  0  0  0  0  0  0  0  0  0
   14.7519  -17.8998   18.4052 N   0  0  0  0  0  0  0  0  0  0  0  0
   13.3808  -17.4949   20.3000 C   0  0  0  0  0  0  0  0  0  0  0  0
   14.1579  -16.7103   20.9447 O   0  0  0  0  0  0  0  0  0  0  0  0
   10.0706  -15.9140   20.9187 C   0  0  0  0  0  0  0  0  0  0  0  0
   11.4609  -16.2848   21.4046 C   0  0  2  0  0  0  0  0  0  0  0  0
   11.9879  -17.2962   20.5119 N   0  0  0  0  0  0  0  0  0  0  0  0
   11.4359  -16.7528   22.8130 C   0  0  0  0  0  0  0  0  0  0  0  0
   11.0746  -15.9551   23.7128 O   0  0  0  0  0  0  0  0  0  0  0  0
   11.2298  -19.8431   24.7984 C   0  0  0  0  0  0  0  0  0  0  0  0
   11.8758  -18.5209   24.5557 C   0  0  2  0  0  0  0  0  0  0  0  0
   11.8011  -18.0638   23.2019 N   0  0  0  0  0  0  0  0  0  0  0  0
   13.2817  -18.5634   25.0525 C   0  0  0  0  0  0  0  0  0  0  0  0
   14.1977  -18.5419   24.1921 O   0  0  0  0  0  0  0  0  0  0  0  0
   13.6147  -18.6236   26.3758 O   0  0  0  0  0  0  0  0  0  0  0  0
  2  1  1  0
  3  2  2  0
  4  2  1  0
  5  4  1  0
  5  6  1  6
  7  5  1  0
  7  8  2  0
 10  9  1  6
 10 11  1  0
 10 12  1  0
 11  7  1  0
 12 13  2  0
 15 14  1  6
 15 17  1  0
 16 12  1  0
 16 15  1  0
 17 18  2  0
 17 19  1  0
M  END
$$$$
