NAA.pdb
     RDKit          3D

 19 18  0  0  1  0  0  0  0  0999 V2000
    9.2426  -19.9322   13.0548 N   0  0  0  0  0  0  0  0  0  0  0  0
    9.0422  -19.0241   14.1128 C   0  0  0  0  0  0  0  0  0  0  0  0
    8.7113  -17.8444   13.8095 O   0  0  0  0  0  0  0  0  0  0  0  0
    9.2217  -19.4708   15.5212 C   0  0  0  0  0  0  0  0  0  0  0  0
    9.9633  -18.3706   16.2457 C   0  0  2  0  0  0  0  0  0  0  0  0
   11.3164  -18.2972   15.7446 N   0  0  0  0  0  0  0  0  0  0  0  0
   10.0175  -18.6055   17.7072 C   0  0  0  0  0  0  0  0  0  0  0  0
    8.9655  -18.5458   18.4316 O   0  0  0  0  0  0  0  0  0  0  0  0
   12.2731  -20.2861   20.0563 C   0  0  0  0  0  0  0  0  0  0  0  0
   11.2804  -19.1611   19.8207 C   0  0  2  0  0  0  0  0  0  0  0  0
   11.2252  -18.9091   18.3956 N   0  0  0  0  0  0  0  0  0  0  0  0
   11.6525  -17.9418   20.5813 C   0  0  0  0  0  0  0  0  0  0  0  0
   12.5841  -17.2178   20.1520 O   0  0  0  0  0  0  0  0  0  0  0  0
   10.3570  -15.9383   23.5189 C   0  0  0  0  0  0  0  0  0  0  0  0
   11.4133  -16.4451   22.5959 C   0  0  2  0  0  0  0  0  0  0  0  0
   11.0074  -17.5461   21.7774 N   0  0  0  0  0  0  0  0  0  0  0  0
   12.6421  -16.7583   23.3817 C   0  0  0  0  0  0  0  0  0  0  0  0
   12.9150  -17.9714   23.5649 O   0  0  0  0  0  0  0  0  0  0  0  0
   13.4702  -15.8051   23.9024 O   0  0  0  0  0  0  0  0  0  0  0  0
  2  1  1  0
  3  2  2  0
  4  2  1  0
  5  4  1  0
  5  6  1  6
  7  5  1  0
  7  8  2  0
 10  9  1  6
 10 11  1  0
 10 12  1  0
 11  7  1  0
 12 13  2  0
 15 14  1  1
 15 17  1  0
 16 12  1  0
 16 15  1  0
 17 18  2  0
 17 19  1  0
M  END
$$$$
