NAA.pdb
     RDKit          3D

 19 18  0  0  1  0  0  0  0  0999 V2000
   13.6672  -16.1778   15.8697 N   0  0  0  0  0  0  0  0  0  0  0  0
   13.3780  -17.1506   16.8464 C   0  0  0  0  0  0  0  0  0  0  0  0
   12.9892  -18.2811   16.4415 O   0  0  0  0  0  0  0  0  0  0  0  0
   13.5354  -16.8254   18.2903 C   0  0  0  0  0  0  0  0  0  0  0  0
   12.4570  -17.5779   19.0359 C   0  0  2  0  0  0  0  0  0  0  0  0
   11.1730  -17.2850   18.4416 N   0  0  0  0  0  0  0  0  0  0  0  0
   12.4062  -17.2034   20.4681 C   0  0  0  0  0  0  0  0  0  0  0  0
   13.4394  -17.2885   21.2166 O   0  0  0  0  0  0  0  0  0  0  0  0
    9.8749  -15.5815   22.7179 C   0  0  0  0  0  0  0  0  0  0  0  0
   11.1749  -16.3336   22.4924 C   0  0  2  0  0  0  0  0  0  0  0  0
   11.2226  -16.7302   21.1004 N   0  0  0  0  0  0  0  0  0  0  0  0
   11.2902  -17.5013   23.4017 C   0  0  0  0  0  0  0  0  0  0  0  0
   10.6797  -18.5597   23.1129 O   0  0  0  0  0  0  0  0  0  0  0  0
   13.5673  -19.0504   25.7397 C   0  0  0  0  0  0  0  0  0  0  0  0
   12.1708  -18.5840   25.5013 C   0  0  2  0  0  0  0  0  0  0  0  0
   12.0593  -17.4868   24.5899 N   0  0  0  0  0  0  0  0  0  0  0  0
   11.5224  -18.2877   26.8117 C   0  0  0  0  0  0  0  0  0  0  0  0
   11.0922  -17.1204   26.9907 O   0  0  0  0  0  0  0  0  0  0  0  0
   11.3767  -19.2095   27.8090 O   0  0  0  0  0  0  0  0  0  0  0  0
  2  1  1  0
  3  2  2  0
  4  2  1  0
  5  4  1  0
  5  6  1  6
  7  5  1  0
  7  8  2  0
 10  9  1  6
 10 11  1  0
 10 12  1  0
 11  7  1  0
 12 13  2  0
 15 14  1  1
 15 17  1  0
 16 12  1  0
 16 15  1  0
 17 18  2  0
 17 19  1  0
M  END
$$$$
