NAA.pdb
     RDKit          3D

 19 18  0  0  1  0  0  0  0  0999 V2000
   12.3208  -18.9765   16.4884 N   0  0  0  0  0  0  0  0  0  0  0  0
   11.4743  -17.9116   16.1229 C   0  0  0  0  0  0  0  0  0  0  0  0
   10.9661  -17.9450   14.9680 O   0  0  0  0  0  0  0  0  0  0  0  0
   11.2107  -16.8066   17.0846 C   0  0  0  0  0  0  0  0  0  0  0  0
   10.3694  -17.3804   18.2018 C   0  0  2  0  0  0  0  0  0  0  0  0
    9.0486  -17.6801   17.6987 N   0  0  0  0  0  0  0  0  0  0  0  0
   10.2352  -16.4385   19.3371 C   0  0  0  0  0  0  0  0  0  0  0  0
   11.2452  -16.0965   20.0428 O   0  0  0  0  0  0  0  0  0  0  0  0
    7.4370  -14.4394   20.8645 C   0  0  0  0  0  0  0  0  0  0  0  0
    8.8280  -15.0477   20.9043 C   0  0  2  0  0  0  0  0  0  0  0  0
    8.9924  -15.8579   19.7151 N   0  0  0  0  0  0  0  0  0  0  0  0
    9.0385  -15.8386   22.1426 C   0  0  0  0  0  0  0  0  0  0  0  0
    8.6832  -17.0427   22.1631 O   0  0  0  0  0  0  0  0  0  0  0  0
   10.7150  -15.3623   25.5167 C   0  0  0  0  0  0  0  0  0  0  0  0
    9.8091  -16.0268   24.5358 C   0  0  2  0  0  0  0  0  0  0  0  0
    9.6243  -15.3039   23.3150 N   0  0  0  0  0  0  0  0  0  0  0  0
    8.5105  -16.3385   25.2005 C   0  0  0  0  0  0  0  0  0  0  0  0
    7.4968  -15.7067   24.8093 O   0  0  0  0  0  0  0  0  0  0  0  0
    8.3738  -17.2623   26.1972 O   0  0  0  0  0  0  0  0  0  0  0  0
  2  1  1  0
  3  2  2  0
  4  2  1  0
  5  4  1  0
  5  6  1  6
  7  5  1  0
  7  8  2  0
 10  9  1  1
 10 11  1  0
 10 12  1  0
 11  7  1  0
 12 13  2  0
 15 14  1  1
 15 17  1  0
 16 12  1  0
 16 15  1  0
 17 18  2  0
 17 19  1  0
M  END
$$$$
