NAA.pdb
     RDKit          3D

 19 18  0  0  1  0  0  0  0  0999 V2000
    7.7000  -17.7995   15.1907 N   0  0  0  0  0  0  0  0  0  0  0  0
    8.9059  -18.1735   15.8153 C   0  0  0  0  0  0  0  0  0  0  0  0
    9.1492  -19.4081   15.9139 O   0  0  0  0  0  0  0  0  0  0  0  0
    9.8341  -17.1288   16.3275 C   0  0  0  0  0  0  0  0  0  0  0  0
    9.1711  -15.7907   16.0923 C   0  0  2  0  0  0  0  0  0  0  0  0
    9.7853  -15.1475   14.9536 N   0  0  0  0  0  0  0  0  0  0  0  0
    9.3003  -14.8926   17.2631 C   0  0  0  0  0  0  0  0  0  0  0  0
   10.4447  -14.5139   17.6899 O   0  0  0  0  0  0  0  0  0  0  0  0
    6.9547  -12.8805   19.3821 C   0  0  0  0  0  0  0  0  0  0  0  0
    8.2992  -13.5473   19.1495 C   0  0  2  0  0  0  0  0  0  0  0  0
    8.1775  -14.3968   17.9829 N   0  0  0  0  0  0  0  0  0  0  0  0
    8.7389  -14.3116   20.3436 C   0  0  0  0  0  0  0  0  0  0  0  0
    8.9062  -13.7021   21.4284 O   0  0  0  0  0  0  0  0  0  0  0  0
    9.4948  -17.9355   21.2245 C   0  0  0  0  0  0  0  0  0  0  0  0
    9.4834  -16.4590   21.4348 C   0  0  2  0  0  0  0  0  0  0  0  0
    8.9827  -15.7058   20.3262 N   0  0  0  0  0  0  0  0  0  0  0  0
   10.8468  -16.0111   21.8422 C   0  0  0  0  0  0  0  0  0  0  0  0
   11.2218  -16.2941   23.0080 O   0  0  0  0  0  0  0  0  0  0  0  0
   11.6922  -15.3199   21.0219 O   0  0  0  0  0  0  0  0  0  0  0  0
  2  1  1  0
  3  2  2  0
  4  2  1  0
  5  4  1  0
  5  6  1  6
  7  5  1  0
  7  8  2  0
 10  9  1  1
 10 11  1  0
 10 12  1  0
 11  7  1  0
 12 13  2  0
 15 14  1  6
 15 17  1  0
 16 12  1  0
 16 15  1  0
 17 18  2  0
 17 19  1  0
M  END
$$$$
