NAA.pdb
     RDKit          3D

 19 18  0  0  1  0  0  0  0  0999 V2000
   13.0716  -17.8157   19.0076 N   0  0  0  0  0  0  0  0  0  0  0  0
   11.8746  -17.9560   19.7366 C   0  0  0  0  0  0  0  0  0  0  0  0
   11.3100  -19.0847   19.7128 O   0  0  0  0  0  0  0  0  0  0  0  0
   11.3246  -16.7989   20.4943 C   0  0  0  0  0  0  0  0  0  0  0  0
    9.8758  -16.6501   20.0893 C   0  0  2  0  0  0  0  0  0  0  0  0
    9.8079  -16.1264   18.7444 N   0  0  0  0  0  0  0  0  0  0  0  0
    9.1389  -15.7310   20.9872 C   0  0  0  0  0  0  0  0  0  0  0  0
    9.5267  -14.5267   21.1726 O   0  0  0  0  0  0  0  0  0  0  0  0
    5.8923  -15.8482   22.8676 C   0  0  0  0  0  0  0  0  0  0  0  0
    7.2483  -15.2270   22.5816 C   0  0  2  0  0  0  0  0  0  0  0  0
    7.9667  -16.1184   21.6945 N   0  0  0  0  0  0  0  0  0  0  0  0
    8.0025  -14.9716   23.8343 C   0  0  0  0  0  0  0  0  0  0  0  0
    8.8682  -15.8026   24.2034 O   0  0  0  0  0  0  0  0  0  0  0  0
    8.0961  -12.2923   26.5391 C   0  0  0  0  0  0  0  0  0  0  0  0
    8.4436  -13.5939   25.8992 C   0  0  2  0  0  0  0  0  0  0  0  0
    7.7969  -13.8296   24.6449 N   0  0  0  0  0  0  0  0  0  0  0  0
    8.1960  -14.6991   26.8699 C   0  0  0  0  0  0  0  0  0  0  0  0
    7.1371  -15.3618   26.7307 O   0  0  0  0  0  0  0  0  0  0  0  0
    9.0513  -15.0194   27.8855 O   0  0  0  0  0  0  0  0  0  0  0  0
  2  1  1  0
  3  2  2  0
  4  2  1  0
  5  4  1  0
  5  6  1  6
  7  5  1  0
  7  8  2  0
 10  9  1  1
 10 11  1  0
 10 12  1  0
 11  7  1  0
 12 13  2  0
 15 14  1  1
 15 17  1  0
 16 12  1  0
 16 15  1  0
 17 18  2  0
 17 19  1  0
M  END
$$$$
