NAA.pdb
     RDKit          3D

 19 18  0  0  1  0  0  0  0  0999 V2000
   12.1719  -16.0890   14.0697 N   0  0  0  0  0  0  0  0  0  0  0  0
   12.6638  -15.4927   15.2472 C   0  0  0  0  0  0  0  0  0  0  0  0
   13.8580  -15.7445   15.5695 O   0  0  0  0  0  0  0  0  0  0  0  0
   11.7837  -14.6059   16.0562 C   0  0  0  0  0  0  0  0  0  0  0  0
   11.4627  -15.3448   17.3353 C   0  0  2  0  0  0  0  0  0  0  0  0
   10.4695  -16.3585   17.0642 N   0  0  0  0  0  0  0  0  0  0  0  0
   10.9344  -14.4402   18.3825 C   0  0  0  0  0  0  0  0  0  0  0  0
   11.7133  -13.7205   19.0969 O   0  0  0  0  0  0  0  0  0  0  0  0
    7.5804  -13.1497   19.3984 C   0  0  0  0  0  0  0  0  0  0  0  0
    9.0271  -13.4761   19.7255 C   0  0  2  0  0  0  0  0  0  0  0  0
    9.5451  -14.3114   18.6618 N   0  0  0  0  0  0  0  0  0  0  0  0
    9.1480  -14.1342   21.0505 C   0  0  0  0  0  0  0  0  0  0  0  0
    8.8303  -13.4905   22.0806 O   0  0  0  0  0  0  0  0  0  0  0  0
    9.5830  -17.5889   22.4509 C   0  0  0  0  0  0  0  0  0  0  0  0
    9.7802  -16.1109   22.4821 C   0  0  2  0  0  0  0  0  0  0  0  0
    9.6070  -15.4626   21.2185 N   0  0  0  0  0  0  0  0  0  0  0  0
   11.1094  -15.8061   23.0869 C   0  0  0  0  0  0  0  0  0  0  0  0
   11.3073  -16.1912   24.2668 O   0  0  0  0  0  0  0  0  0  0  0  0
   12.1043  -15.1398   22.4299 O   0  0  0  0  0  0  0  0  0  0  0  0
  2  1  1  0
  3  2  2  0
  4  2  1  0
  5  4  1  0
  5  6  1  6
  7  5  1  0
  7  8  2  0
 10  9  1  6
 10 11  1  0
 10 12  1  0
 11  7  1  0
 12 13  2  0
 15 14  1  6
 15 17  1  0
 16 12  1  0
 16 15  1  0
 17 18  2  0
 17 19  1  0
M  END
$$$$
