NAA.pdb
     RDKit          3D

 19 18  0  0  1  0  0  0  0  0999 V2000
    7.5169  -12.9141   16.1596 N   0  0  0  0  0  0  0  0  0  0  0  0
    8.2608  -13.8421   16.9142 C   0  0  0  0  0  0  0  0  0  0  0  0
    8.6076  -14.9113   16.3399 O   0  0  0  0  0  0  0  0  0  0  0  0
    8.6073  -13.5424   18.3304 C   0  0  0  0  0  0  0  0  0  0  0  0
    8.5096  -14.8418   19.0968 C   0  0  2  0  0  0  0  0  0  0  0  0
    7.1362  -15.2907   19.1014 N   0  0  0  0  0  0  0  0  0  0  0  0
    8.9586  -14.6946   20.5006 C   0  0  0  0  0  0  0  0  0  0  0  0
   10.1955  -14.5564   20.7941 O   0  0  0  0  0  0  0  0  0  0  0  0
    7.3181  -14.1560   23.8190 C   0  0  0  0  0  0  0  0  0  0  0  0
    8.4971  -14.6189   22.9809 C   0  0  2  0  0  0  0  0  0  0  0  0
    8.0587  -14.6967   21.6028 N   0  0  0  0  0  0  0  0  0  0  0  0
    9.0283  -15.9181   23.4637 C   0  0  0  0  0  0  0  0  0  0  0  0
    8.3896  -16.9687   23.2095 O   0  0  0  0  0  0  0  0  0  0  0  0
   12.2603  -17.3959   24.4749 C   0  0  0  0  0  0  0  0  0  0  0  0
   10.7849  -17.2768   24.6574 C   0  0  2  0  0  0  0  0  0  0  0  0
   10.2290  -16.0391   24.2034 N   0  0  0  0  0  0  0  0  0  0  0  0
   10.4434  -17.5510   26.0834 C   0  0  0  0  0  0  0  0  0  0  0  0
    9.8155  -16.6586   26.7073 O   0  0  0  0  0  0  0  0  0  0  0  0
   10.7753  -18.7064   26.7318 O   0  0  0  0  0  0  0  0  0  0  0  0
  2  1  1  0
  3  2  2  0
  4  2  1  0
  5  4  1  0
  5  6  1  1
  7  5  1  0
  7  8  2  0
 10  9  1  1
 10 11  1  0
 10 12  1  0
 11  7  1  0
 12 13  2  0
 15 14  1  1
 15 17  1  0
 16 12  1  0
 16 15  1  0
 17 18  2  0
 17 19  1  0
M  END
$$$$
