NAA.pdb
     RDKit          3D

 19 18  0  0  1  0  0  0  0  0999 V2000
    8.3335  -14.9370   13.8785 N   0  0  0  0  0  0  0  0  0  0  0  0
    7.9303  -14.2482   15.0390 C   0  0  0  0  0  0  0  0  0  0  0  0
    7.9767  -12.9871   15.0104 O   0  0  0  0  0  0  0  0  0  0  0  0
    7.4731  -15.0079   16.2345 C   0  0  0  0  0  0  0  0  0  0  0  0
    8.5488  -14.8697   17.2876 C   0  0  2  0  0  0  0  0  0  0  0  0
    9.7525  -15.5239   16.8286 N   0  0  0  0  0  0  0  0  0  0  0  0
    8.1470  -15.4795   18.5763 C   0  0  0  0  0  0  0  0  0  0  0  0
    7.0855  -15.1105   19.1863 O   0  0  0  0  0  0  0  0  0  0  0  0
    9.0766  -18.4663   20.5801 C   0  0  0  0  0  0  0  0  0  0  0  0
    8.5650  -17.0377   20.5174 C   0  0  2  0  0  0  0  0  0  0  0  0
    8.9027  -16.5021   19.2149 N   0  0  0  0  0  0  0  0  0  0  0  0
    9.1276  -16.2118   21.6149 C   0  0  0  0  0  0  0  0  0  0  0  0
   10.2911  -15.7549   21.4973 O   0  0  0  0  0  0  0  0  0  0  0  0
    7.8018  -14.1303   24.3828 C   0  0  0  0  0  0  0  0  0  0  0  0
    8.8685  -15.0024   23.8119 C   0  0  2  0  0  0  0  0  0  0  0  0
    8.4164  -15.9076   22.8003 N   0  0  0  0  0  0  0  0  0  0  0  0
    9.5682  -15.7120   24.9220 C   0  0  0  0  0  0  0  0  0  0  0  0
    9.4638  -16.9639   24.9617 O   0  0  0  0  0  0  0  0  0  0  0  0
   10.3042  -15.0761   25.8809 O   0  0  0  0  0  0  0  0  0  0  0  0
  2  1  1  0
  3  2  2  0
  4  2  1  0
  5  4  1  0
  5  6  1  6
  7  5  1  0
  7  8  2  0
 10  9  1  6
 10 11  1  0
 10 12  1  0
 11  7  1  0
 12 13  2  0
 15 14  1  1
 15 17  1  0
 16 12  1  0
 16 15  1  0
 17 18  2  0
 17 19  1  0
M  END
$$$$
