NAA.pdb
     RDKit          3D

 19 18  0  0  1  0  0  0  0  0999 V2000
    8.5618  -11.7464   19.4296 N   0  0  0  0  0  0  0  0  0  0  0  0
    8.0911  -13.0685   19.3096 C   0  0  0  0  0  0  0  0  0  0  0  0
    8.4092  -13.7049   18.2670 O   0  0  0  0  0  0  0  0  0  0  0  0
    7.2538  -13.6612   20.3881 C   0  0  0  0  0  0  0  0  0  0  0  0
    8.1548  -14.5534   21.2112 C   0  0  2  0  0  0  0  0  0  0  0  0
    8.7827  -15.5256   20.3462 N   0  0  0  0  0  0  0  0  0  0  0  0
    7.4075  -15.2781   22.2650 C   0  0  0  0  0  0  0  0  0  0  0  0
    6.9316  -14.6690   23.2836 O   0  0  0  0  0  0  0  0  0  0  0  0
    5.7613  -18.5651   22.6782 C   0  0  0  0  0  0  0  0  0  0  0  0
    6.5334  -17.4109   23.2932 C   0  0  2  0  0  0  0  0  0  0  0  0
    7.1712  -16.6804   22.2176 N   0  0  0  0  0  0  0  0  0  0  0  0
    7.5198  -17.8906   24.2934 C   0  0  0  0  0  0  0  0  0  0  0  0
    7.1153  -18.5678   25.2703 O   0  0  0  0  0  0  0  0  0  0  0  0
   11.2828  -17.9697   24.7311 C   0  0  0  0  0  0  0  0  0  0  0  0
    9.8688  -17.9728   25.2053 C   0  0  2  0  0  0  0  0  0  0  0  0
    8.9070  -17.6236   24.2053 N   0  0  0  0  0  0  0  0  0  0  0  0
    9.7551  -17.1062   26.4142 C   0  0  0  0  0  0  0  0  0  0  0  0
    9.0085  -16.0984   26.3325 O   0  0  0  0  0  0  0  0  0  0  0  0
   10.4130  -17.3523   27.5857 O   0  0  0  0  0  0  0  0  0  0  0  0
  2  1  1  0
  3  2  2  0
  4  2  1  0
  5  4  1  0
  5  6  1  6
  7  5  1  0
  7  8  2  0
 10  9  1  6
 10 11  1  0
 10 12  1  0
 11  7  1  0
 12 13  2  0
 15 14  1  6
 15 17  1  0
 16 12  1  0
 16 15  1  0
 17 18  2  0
 17 19  1  0
M  END
$$$$
