NAA.pdb
     RDKit          3D

 19 18  0  0  1  0  0  0  0  0999 V2000
    8.3689  -12.4697   17.9586 N   0  0  0  0  0  0  0  0  0  0  0  0
    7.8807  -13.7616   18.2355 C   0  0  0  0  0  0  0  0  0  0  0  0
    7.9558  -14.6199   17.3130 O   0  0  0  0  0  0  0  0  0  0  0  0
    7.3056  -14.0691   19.5734 C   0  0  0  0  0  0  0  0  0  0  0  0
    8.4564  -14.4548   20.4745 C   0  0  2  0  0  0  0  0  0  0  0  0
    9.0508  -15.6799   19.9912 N   0  0  0  0  0  0  0  0  0  0  0  0
    8.0202  -14.6665   21.8741 C   0  0  0  0  0  0  0  0  0  0  0  0
    7.3750  -13.7674   22.5147 O   0  0  0  0  0  0  0  0  0  0  0  0
    7.9475  -17.5541   24.2620 C   0  0  0  0  0  0  0  0  0  0  0  0
    7.8934  -16.0644   23.9718 C   0  0  2  0  0  0  0  0  0  0  0  0
    8.2847  -15.8665   22.5915 N   0  0  0  0  0  0  0  0  0  0  0  0
    8.7581  -15.2988   24.9043 C   0  0  0  0  0  0  0  0  0  0  0  0
    9.9974  -15.2756   24.7043 O   0  0  0  0  0  0  0  0  0  0  0  0
    8.4004  -12.6224   27.4912 C   0  0  0  0  0  0  0  0  0  0  0  0
    9.0609  -13.8399   26.9381 C   0  0  2  0  0  0  0  0  0  0  0  0
    8.2566  -14.5855   26.0193 N   0  0  0  0  0  0  0  0  0  0  0  0
    9.5503  -14.6868   28.0644 C   0  0  0  0  0  0  0  0  0  0  0  0
    9.0214  -15.8181   28.2066 O   0  0  0  0  0  0  0  0  0  0  0  0
   10.5294  -14.2973   28.9334 O   0  0  0  0  0  0  0  0  0  0  0  0
  2  1  1  0
  3  2  2  0
  4  2  1  0
  5  4  1  0
  5  6  1  6
  7  5  1  0
  7  8  2  0
 10  9  1  1
 10 11  1  0
 10 12  1  0
 11  7  1  0
 12 13  2  0
 15 14  1  1
 15 17  1  0
 16 12  1  0
 16 15  1  0
 17 18  2  0
 17 19  1  0
M  END
$$$$
