NAA.pdb
     RDKit          3D

 19 18  0  0  1  0  0  0  0  0999 V2000
   10.3653  -14.8534   18.8126 N   0  0  0  0  0  0  0  0  0  0  0  0
   10.3248  -15.5994   20.0066 C   0  0  0  0  0  0  0  0  0  0  0  0
   11.3591  -16.2528   20.3175 O   0  0  0  0  0  0  0  0  0  0  0  0
    9.0952  -15.5957   20.8453 C   0  0  0  0  0  0  0  0  0  0  0  0
    9.5345  -15.7826   22.2797 C   0  0  2  0  0  0  0  0  0  0  0  0
   10.1572  -17.0785   22.4228 N   0  0  0  0  0  0  0  0  0  0  0  0
    8.3967  -15.7031   23.2247 C   0  0  0  0  0  0  0  0  0  0  0  0
    7.7180  -14.6282   23.3622 O   0  0  0  0  0  0  0  0  0  0  0  0
    6.4944  -18.1167   25.3715 C   0  0  0  0  0  0  0  0  0  0  0  0
    6.9275  -16.7052   25.0157 C   0  0  2  0  0  0  0  0  0  0  0  0
    7.9864  -16.8004   24.0323 N   0  0  0  0  0  0  0  0  0  0  0  0
    7.3600  -15.9513   26.2191 C   0  0  0  0  0  0  0  0  0  0  0  0
    6.5047  -15.6480   27.0867 O   0  0  0  0  0  0  0  0  0  0  0  0
    9.1291  -15.5927   28.8642 C   0  0  0  0  0  0  0  0  0  0  0  0
    9.1484  -14.8195   27.5890 C   0  0  2  0  0  0  0  0  0  0  0  0
    8.6988  -15.5512   26.4447 N   0  0  0  0  0  0  0  0  0  0  0  0
   10.5102  -14.2461   27.3838 C   0  0  0  0  0  0  0  0  0  0  0  0
   11.1216  -14.5745   26.3359 O   0  0  0  0  0  0  0  0  0  0  0  0
   11.1135  -13.3956   28.2660 O   0  0  0  0  0  0  0  0  0  0  0  0
  2  1  1  0
  3  2  2  0
  4  2  1  0
  5  4  1  0
  5  6  1  6
  7  5  1  0
  7  8  2  0
 10  9  1  1
 10 11  1  0
 10 12  1  0
 11  7  1  0
 12 13  2  0
 15 14  1  1
 15 17  1  0
 16 12  1  0
 16 15  1  0
 17 18  2  0
 17 19  1  0
M  END
$$$$
