NAA.pdb
     RDKit          3D

 19 18  0  0  1  0  0  0  0  0999 V2000
   -2.7843  -23.5254   38.3115 N   0  0  0  0  0  0  0  0  0  0  0  0
   -4.1441  -23.4535   37.9514 C   0  0  0  0  0  0  0  0  0  0  0  0
   -4.9871  -23.3578   38.8860 O   0  0  0  0  0  0  0  0  0  0  0  0
   -4.5372  -23.4915   36.5163 C   0  0  0  0  0  0  0  0  0  0  0  0
   -3.2667  -23.6419   35.7110 C   0  0  2  0  0  0  0  0  0  0  0  0
   -2.4845  -22.4322   35.8236 N   0  0  0  0  0  0  0  0  0  0  0  0
   -3.5433  -23.8885   34.2769 C   0  0  0  0  0  0  0  0  0  0  0  0
   -3.7173  -22.9238   33.4558 O   0  0  0  0  0  0  0  0  0  0  0  0
   -3.0569  -26.7290   31.9701 C   0  0  0  0  0  0  0  0  0  0  0  0
   -3.7926  -25.4430   32.3041 C   0  0  2  0  0  0  0  0  0  0  0  0
   -3.6330  -25.1957   33.7221 N   0  0  0  0  0  0  0  0  0  0  0  0
   -5.2234  -25.5209   31.9165 C   0  0  0  0  0  0  0  0  0  0  0  0
   -5.5207  -25.5939   30.6989 O   0  0  0  0  0  0  0  0  0  0  0  0
   -8.5145  -26.1205   33.6902 C   0  0  0  0  0  0  0  0  0  0  0  0
   -7.6593  -25.7358   32.5304 C   0  0  2  0  0  0  0  0  0  0  0  0
   -6.2831  -25.5173   32.8550 N   0  0  0  0  0  0  0  0  0  0  0  0
   -8.2639  -24.5570   31.8449 C   0  0  0  0  0  0  0  0  0  0  0  0
   -7.6335  -23.4712   31.9023 O   0  0  0  0  0  0  0  0  0  0  0  0
   -9.4502  -24.6013   31.1693 O   0  0  0  0  0  0  0  0  0  0  0  0
  2  1  1  0
  3  2  2  0
  4  2  1  0
  5  4  1  0
  5  6  1  6
  7  5  1  0
  7  8  2  0
 10  9  1  1
 10 11  1  0
 10 12  1  0
 11  7  1  0
 12 13  2  0
 15 14  1  1
 15 17  1  0
 16 12  1  0
 16 15  1  0
 17 18  2  0
 17 19  1  0
M  END
$$$$
