YFP.pdb
     RDKit          3D

 31 33  0  0  1  0  0  0  0  0999 V2000
    7.7537  -25.8865   24.4402 O   0  0  0  0  0  0  0  0  0  0  0  0
    7.6249  -24.5527   24.0434 C   0  0  0  0  0  0  0  0  0  0  0  0
    7.3887  -24.2036   22.7309 C   0  0  0  0  0  0  0  0  0  0  0  0
    7.2636  -22.8829   22.3527 C   0  0  0  0  0  0  0  0  0  0  0  0
    7.3693  -21.8474   23.2719 C   0  0  0  0  0  0  0  0  0  0  0  0
    7.2349  -20.4213   22.8676 C   0  0  0  0  0  0  0  0  0  0  0  0
    5.9396  -19.9120   23.4484 C   0  0  2  0  0  0  0  0  0  0  0  0
    4.8628  -20.4419   22.6181 N   0  0  0  0  0  0  0  0  0  0  0  0
    5.8864  -18.4367   23.5072 C   0  0  0  0  0  0  0  0  0  0  0  0
    5.5716  -17.8149   22.4805 O   0  0  0  0  0  0  0  0  0  0  0  0
    7.6057  -22.2134   24.5807 C   0  0  0  0  0  0  0  0  0  0  0  0
    7.7317  -23.5320   24.9652 C   0  0  0  0  0  0  0  0  0  0  0  0
    6.1924  -17.7905   24.7178 N   0  0  0  0  0  0  0  0  0  0  0  0
    6.5093  -16.3805   24.7741 C   0  0  1  0  0  0  0  0  0  0  0  0
    6.5139  -15.9272   26.2282 C   0  0  0  0  0  0  0  0  0  0  0  0
    6.8286  -14.4906   26.3620 C   0  0  0  0  0  0  0  0  0  0  0  0
    8.1277  -14.0623   26.4404 C   0  0  0  0  0  0  0  0  0  0  0  0
    8.3855  -12.6898   26.5771 C   0  0  0  0  0  0  0  0  0  0  0  0
    7.3255  -11.7978   26.6297 C   0  0  0  0  0  0  0  0  0  0  0  0
    6.0244  -12.2256   26.5510 C   0  0  0  0  0  0  0  0  0  0  0  0
    5.7855  -13.5729   26.4174 C   0  0  0  0  0  0  0  0  0  0  0  0
    7.8163  -16.1557   24.1433 C   0  0  0  0  0  0  0  0  0  0  0  0
    8.7658  -17.0135   24.3557 O   0  0  0  0  0  0  0  0  0  0  0  0
    8.1885  -15.0980   23.3080 N   0  0  0  0  0  0  0  0  0  0  0  0
    7.5866  -13.7845   23.2713 C   0  0  0  0  0  0  0  0  0  0  0  0
    7.3972  -13.5879   21.7716 C   0  0  0  0  0  0  0  0  0  0  0  0
    8.6789  -14.1661   21.2115 C   0  0  0  0  0  0  0  0  0  0  0  0
    9.2501  -15.0397   22.3456 C   0  0  1  0  0  0  0  0  0  0  0  0
   10.4060  -14.2467   22.9113 C   0  0  0  0  0  0  0  0  0  0  0  0
   10.2186  -13.6901   24.0128 O   0  0  0  0  0  0  0  0  0  0  0  0
   11.6064  -14.1250   22.2764 O   0  0  0  0  0  0  0  0  0  0  0  0
  2  1  1  0
  3  2  2  0
  4  3  1  0
  5  4  2  0
  5 11  1  0
  6  5  1  0
  7  6  1  0
  7  8  1  6
  9 10  2  0
  9  7  1  0
 11 12  2  0
 12  2  1  0
 13  9  1  0
 14 15  1  1
 14 13  1  0
 16 15  1  0
 16 17  2  0
 18 17  1  0
 19 18  2  0
 20 21  2  0
 20 19  1  0
 21 16  1  0
 22 14  1  0
 23 22  2  0
 24 25  1  0
 24 22  1  0
 26 25  1  0
 27 28  1  0
 27 26  1  0
 28 24  1  0
 28 29  1  1
 29 31  1  0
 30 29  2  0
M  END
$$$$
