YFP.pdb
     RDKit          3D

 31 33  0  0  1  0  0  0  0  0999 V2000
    6.5097  -21.5654   24.9232 O   0  0  0  0  0  0  0  0  0  0  0  0
    7.1523  -20.9568   23.8416 C   0  0  0  0  0  0  0  0  0  0  0  0
    6.5589  -20.8648   22.6007 C   0  0  0  0  0  0  0  0  0  0  0  0
    7.2045  -20.2614   21.5414 C   0  0  0  0  0  0  0  0  0  0  0  0
    8.4766  -19.7206   21.6743 C   0  0  0  0  0  0  0  0  0  0  0  0
    9.1761  -19.0688   20.5337 C   0  0  0  0  0  0  0  0  0  0  0  0
    8.5893  -17.6881   20.3794 C   0  0  2  0  0  0  0  0  0  0  0  0
    9.0650  -17.1629   19.1036 N   0  0  0  0  0  0  0  0  0  0  0  0
    8.9567  -16.7887   21.4925 C   0  0  0  0  0  0  0  0  0  0  0  0
   10.1368  -16.4173   21.5880 O   0  0  0  0  0  0  0  0  0  0  0  0
    9.0562  -19.8208   22.9220 C   0  0  0  0  0  0  0  0  0  0  0  0
    8.4161  -20.4229   23.9851 C   0  0  0  0  0  0  0  0  0  0  0  0
    7.9621  -16.3863   22.4013 N   0  0  0  0  0  0  0  0  0  0  0  0
    8.2386  -15.4621   23.4789 C   0  0  1  0  0  0  0  0  0  0  0  0
    7.0213  -14.5734   23.6995 C   0  0  0  0  0  0  0  0  0  0  0  0
    7.2046  -13.6519   24.8386 C   0  0  0  0  0  0  0  0  0  0  0  0
    7.8589  -12.4590   24.6767 C   0  0  0  0  0  0  0  0  0  0  0  0
    8.0216  -11.6151   25.7858 C   0  0  0  0  0  0  0  0  0  0  0  0
    7.5192  -12.0028   27.0184 C   0  0  0  0  0  0  0  0  0  0  0  0
    6.8636  -13.1968   27.1816 C   0  0  0  0  0  0  0  0  0  0  0  0
    6.7110  -14.0145   26.0869 C   0  0  0  0  0  0  0  0  0  0  0  0
    8.5684  -16.2220   24.6915 C   0  0  0  0  0  0  0  0  0  0  0  0
    7.7491  -17.1454   25.0896 O   0  0  0  0  0  0  0  0  0  0  0  0
    9.6954  -16.0787   25.5065 N   0  0  0  0  0  0  0  0  0  0  0  0
   10.5966  -14.9489   25.5291 C   0  0  0  0  0  0  0  0  0  0  0  0
   11.9498  -15.6492   25.4867 C   0  0  0  0  0  0  0  0  0  0  0  0
   11.7268  -16.8267   26.4111 C   0  0  0  0  0  0  0  0  0  0  0  0
   10.1954  -16.9641   26.5178 C   0  0  1  0  0  0  0  0  0  0  0  0
    9.8444  -16.4238   27.8852 C   0  0  0  0  0  0  0  0  0  0  0  0
    9.4301  -15.2472   27.9340 O   0  0  0  0  0  0  0  0  0  0  0  0
    9.9627  -17.1575   29.0282 O   0  0  0  0  0  0  0  0  0  0  0  0
  2  1  1  0
  3  2  2  0
  4  3  1  0
  5  4  2  0
  5 11  1  0
  6  5  1  0
  7  6  1  0
  7  8  1  6
  9 10  2  0
  9  7  1  0
 11 12  2  0
 12  2  1  0
 13  9  1  0
 14 15  1  1
 14 13  1  0
 16 15  1  0
 16 17  2  0
 18 17  1  0
 19 18  2  0
 20 21  2  0
 20 19  1  0
 21 16  1  0
 22 14  1  0
 23 22  2  0
 24 25  1  0
 24 22  1  0
 26 25  1  0
 27 28  1  0
 27 26  1  0
 28 24  1  0
 28 29  1  1
 29 31  1  0
 30 29  2  0
M  END
$$$$
