YFP.pdb
     RDKit          3D

 31 33  0  0  1  0  0  0  0  0999 V2000
   10.7666  -22.3828   17.7985 O   0  0  0  0  0  0  0  0  0  0  0  0
   10.8367  -21.4441   18.8316 C   0  0  0  0  0  0  0  0  0  0  0  0
    9.7192  -21.0570   19.5400 C   0  0  0  0  0  0  0  0  0  0  0  0
    9.8025  -20.1294   20.5575 C   0  0  0  0  0  0  0  0  0  0  0  0
   11.0102  -19.5443   20.9148 C   0  0  0  0  0  0  0  0  0  0  0  0
   11.1038  -18.5431   22.0121 C   0  0  0  0  0  0  0  0  0  0  0  0
   10.7249  -17.2046   21.4296 C   0  0  2  0  0  0  0  0  0  0  0  0
   11.7827  -16.8313   20.4961 N   0  0  0  0  0  0  0  0  0  0  0  0
   10.5421  -16.1672   22.4655 C   0  0  0  0  0  0  0  0  0  0  0  0
   11.5375  -15.5346   22.8512 O   0  0  0  0  0  0  0  0  0  0  0  0
   12.1184  -19.9424   20.1965 C   0  0  0  0  0  0  0  0  0  0  0  0
   12.0419  -20.8693   19.1780 C   0  0  0  0  0  0  0  0  0  0  0  0
    9.2534  -15.9329   22.9766 N   0  0  0  0  0  0  0  0  0  0  0  0
    9.0239  -15.0509   24.0996 C   0  0  1  0  0  0  0  0  0  0  0  0
    7.6559  -14.3980   23.9506 C   0  0  0  0  0  0  0  0  0  0  0  0
    7.3163  -13.5477   25.1092 C   0  0  0  0  0  0  0  0  0  0  0  0
    7.6204  -12.2117   25.1110 C   0  0  0  0  0  0  0  0  0  0  0  0
    7.2904  -11.4394   26.2350 C   0  0  0  0  0  0  0  0  0  0  0  0
    6.6656  -12.0402   27.3169 C   0  0  0  0  0  0  0  0  0  0  0  0
    6.3603  -13.3777   27.3160 C   0  0  0  0  0  0  0  0  0  0  0  0
    6.6891  -14.1232   26.2086 C   0  0  0  0  0  0  0  0  0  0  0  0
    9.1106  -15.8248   25.3447 C   0  0  0  0  0  0  0  0  0  0  0  0
    8.7237  -17.0628   25.3362 O   0  0  0  0  0  0  0  0  0  0  0  0
    9.5759  -15.3880   26.5887 N   0  0  0  0  0  0  0  0  0  0  0  0
    9.3581  -14.0844   27.1737 C   0  0  0  0  0  0  0  0  0  0  0  0
   10.7654  -13.7312   27.6408 C   0  0  0  0  0  0  0  0  0  0  0  0
   11.2592  -15.0530   28.1882 C   0  0  0  0  0  0  0  0  0  0  0  0
   10.3200  -16.1120   27.5780 C   0  0  1  0  0  0  0  0  0  0  0  0
    9.4011  -16.5222   28.7059 C   0  0  0  0  0  0  0  0  0  0  0  0
    8.2202  -16.1226   28.6409 O   0  0  0  0  0  0  0  0  0  0  0  0
    9.8089  -17.2894   29.7565 O   0  0  0  0  0  0  0  0  0  0  0  0
  2  1  1  0
  3  2  2  0
  4  3  1  0
  5  4  2  0
  5 11  1  0
  6  5  1  0
  7  6  1  0
  7  8  1  6
  9 10  2  0
  9  7  1  0
 11 12  2  0
 12  2  1  0
 13  9  1  0
 14 15  1  6
 14 13  1  0
 16 15  1  0
 16 17  2  0
 18 17  1  0
 19 18  2  0
 20 21  2  0
 20 19  1  0
 21 16  1  0
 22 14  1  0
 23 22  2  0
 24 25  1  0
 24 22  1  0
 26 25  1  0
 27 28  1  0
 27 26  1  0
 28 24  1  0
 28 29  1  1
 29 31  1  0
 30 29  2  0
M  END
$$$$
