YFP.pdb
     RDKit          3D

 31 33  0  0  1  0  0  0  0  0999 V2000
    4.8259  -25.3566   27.3938 O   0  0  0  0  0  0  0  0  0  0  0  0
    5.3824  -24.2566   26.7354 C   0  0  0  0  0  0  0  0  0  0  0  0
    5.4086  -23.0028   27.3079 C   0  0  0  0  0  0  0  0  0  0  0  0
    5.9610  -21.9254   26.6470 C   0  0  0  0  0  0  0  0  0  0  0  0
    6.5144  -22.0521   25.3797 C   0  0  0  0  0  0  0  0  0  0  0  0
    7.1113  -20.8919   24.6635 C   0  0  0  0  0  0  0  0  0  0  0  0
    5.9718  -20.0749   24.1081 C   0  0  2  0  0  0  0  0  0  0  0  0
    5.5626  -20.7082   22.8587 N   0  0  0  0  0  0  0  0  0  0  0  0
    6.3421  -18.6615   23.8892 C   0  0  0  0  0  0  0  0  0  0  0  0
    6.8564  -18.3460   22.8049 O   0  0  0  0  0  0  0  0  0  0  0  0
    6.4803  -23.3128   24.8210 C   0  0  0  0  0  0  0  0  0  0  0  0
    5.9294  -24.3941   25.4766 C   0  0  0  0  0  0  0  0  0  0  0  0
    6.1006  -17.7266   24.9112 N   0  0  0  0  0  0  0  0  0  0  0  0
    6.6963  -16.4087   24.8995 C   0  0  1  0  0  0  0  0  0  0  0  0
    6.1867  -15.6195   26.0985 C   0  0  0  0  0  0  0  0  0  0  0  0
    6.7959  -14.2769   26.1803 C   0  0  0  0  0  0  0  0  0  0  0  0
    6.2792  -13.2283   25.4655 C   0  0  0  0  0  0  0  0  0  0  0  0
    6.8925  -11.9700   25.5621 C   0  0  0  0  0  0  0  0  0  0  0  0
    8.0042  -11.8127   26.3754 C   0  0  0  0  0  0  0  0  0  0  0  0
    8.5221  -12.8619   27.0917 C   0  0  0  0  0  0  0  0  0  0  0  0
    7.9119  -14.0895   26.9882 C   0  0  0  0  0  0  0  0  0  0  0  0
    8.1584  -16.5414   24.9333 C   0  0  0  0  0  0  0  0  0  0  0  0
    8.6900  -17.3537   25.7936 O   0  0  0  0  0  0  0  0  0  0  0  0
    9.0925  -15.8838   24.1270 N   0  0  0  0  0  0  0  0  0  0  0  0
    8.8469  -14.7155   23.3122 C   0  0  0  0  0  0  0  0  0  0  0  0
    9.4923  -15.1324   21.9957 C   0  0  0  0  0  0  0  0  0  0  0  0
   10.7487  -15.8331   22.4661 C   0  0  0  0  0  0  0  0  0  0  0  0
   10.4869  -16.1667   23.9479 C   0  0  1  0  0  0  0  0  0  0  0  0
   11.3122  -15.1701   24.7292 C   0  0  0  0  0  0  0  0  0  0  0  0
   12.1154  -14.4724   24.0761 O   0  0  0  0  0  0  0  0  0  0  0  0
   11.2096  -15.0153   26.0799 O   0  0  0  0  0  0  0  0  0  0  0  0
  2  1  1  0
  3  2  2  0
  4  3  1  0
  5  4  2  0
  5 11  1  0
  6  5  1  0
  7  6  1  0
  7  8  1  6
  9 10  2  0
  9  7  1  0
 11 12  2  0
 12  2  1  0
 13  9  1  0
 14 15  1  1
 14 13  1  0
 16 15  1  0
 16 17  2  0
 18 17  1  0
 19 18  2  0
 20 21  2  0
 20 19  1  0
 21 16  1  0
 22 14  1  0
 23 22  2  0
 24 25  1  0
 24 22  1  0
 26 25  1  0
 27 28  1  0
 27 26  1  0
 28 24  1  0
 28 29  1  1
 29 31  1  0
 30 29  2  0
M  END
$$$$
