YFP.pdb
     RDKit          3D

 31 33  0  0  1  0  0  0  0  0999 V2000
   11.0396  -22.3889   17.9738 O   0  0  0  0  0  0  0  0  0  0  0  0
   11.1454  -21.4637   19.0158 C   0  0  0  0  0  0  0  0  0  0  0  0
   12.3556  -20.9126   19.3794 C   0  0  0  0  0  0  0  0  0  0  0  0
   12.4460  -20.0002   20.4101 C   0  0  0  0  0  0  0  0  0  0  0  0
   11.3276  -19.5957   21.1269 C   0  0  0  0  0  0  0  0  0  0  0  0
   11.4213  -18.6116   22.2396 C   0  0  0  0  0  0  0  0  0  0  0  0
   11.0446  -17.2638   21.6773 C   0  0  2  0  0  0  0  0  0  0  0  0
   12.1386  -16.8439   20.8075 N   0  0  0  0  0  0  0  0  0  0  0  0
   10.7914  -16.2607   22.7320 C   0  0  0  0  0  0  0  0  0  0  0  0
   11.7629  -15.6838   23.2451 O   0  0  0  0  0  0  0  0  0  0  0  0
   10.1247  -20.1563   20.7508 C   0  0  0  0  0  0  0  0  0  0  0  0
   10.0276  -21.0689   19.7212 C   0  0  0  0  0  0  0  0  0  0  0  0
    9.4654  -15.9948   23.1167 N   0  0  0  0  0  0  0  0  0  0  0  0
    9.1496  -15.0955   24.2045 C   0  0  1  0  0  0  0  0  0  0  0  0
    7.7754  -14.4840   23.9642 C   0  0  0  0  0  0  0  0  0  0  0  0
    7.3303  -13.6523   25.1003 C   0  0  0  0  0  0  0  0  0  0  0  0
    6.6973  -14.2169   26.1763 C   0  0  0  0  0  0  0  0  0  0  0  0
    6.2805  -13.3916   27.2317 C   0  0  0  0  0  0  0  0  0  0  0  0
    6.5164  -12.0271   27.1657 C   0  0  0  0  0  0  0  0  0  0  0  0
    7.1504  -11.4607   26.0890 C   0  0  0  0  0  0  0  0  0  0  0  0
    7.5536  -12.2805   25.0615 C   0  0  0  0  0  0  0  0  0  0  0  0
    9.1860  -15.8398   25.4700 C   0  0  0  0  0  0  0  0  0  0  0  0
    8.8570  -17.0944   25.4638 O   0  0  0  0  0  0  0  0  0  0  0  0
    9.5452  -15.3572   26.7322 N   0  0  0  0  0  0  0  0  0  0  0  0
    9.1116  -14.1135   27.3275 C   0  0  0  0  0  0  0  0  0  0  0  0
   10.4341  -13.5537   27.8386 C   0  0  0  0  0  0  0  0  0  0  0  0
   11.1136  -14.7918   28.3827 C   0  0  0  0  0  0  0  0  0  0  0  0
   10.3673  -15.9734   27.7327 C   0  0  1  0  0  0  0  0  0  0  0  0
    9.4947  -16.5408   28.8288 C   0  0  0  0  0  0  0  0  0  0  0  0
   10.0790  -17.1197   29.7678 O   0  0  0  0  0  0  0  0  0  0  0  0
    8.1349  -16.4430   28.8232 O   0  0  0  0  0  0  0  0  0  0  0  0
  2  1  1  0
  3  2  2  0
  4  3  1  0
  5  4  2  0
  5 11  1  0
  6  5  1  0
  7  6  1  0
  7  8  1  6
  9 10  2  0
  9  7  1  0
 11 12  2  0
 12  2  1  0
 13  9  1  0
 14 15  1  6
 14 13  1  0
 16 15  1  0
 16 17  2  0
 18 17  1  0
 19 18  2  0
 20 21  2  0
 20 19  1  0
 21 16  1  0
 22 14  1  0
 23 22  2  0
 24 25  1  0
 24 22  1  0
 26 25  1  0
 27 28  1  0
 27 26  1  0
 28 24  1  0
 28 29  1  1
 29 31  1  0
 30 29  2  0
M  END
$$$$
