YFP.pdb
     RDKit          3D

 31 33  0  0  1  0  0  0  0  0999 V2000
    7.6543  -23.0064   17.8547 O   0  0  0  0  0  0  0  0  0  0  0  0
    8.1125  -22.0904   18.8055 C   0  0  0  0  0  0  0  0  0  0  0  0
    7.2452  -21.3685   19.5975 C   0  0  0  0  0  0  0  0  0  0  0  0
    7.7109  -20.4674   20.5323 C   0  0  0  0  0  0  0  0  0  0  0  0
    9.0690  -20.2457   20.7190 C   0  0  0  0  0  0  0  0  0  0  0  0
    9.5752  -19.2741   21.7266 C   0  0  0  0  0  0  0  0  0  0  0  0
    9.3147  -17.8912   21.1844 C   0  0  2  0  0  0  0  0  0  0  0  0
   10.2198  -17.6984   20.0559 N   0  0  0  0  0  0  0  0  0  0  0  0
    9.5060  -16.8380   22.2028 C   0  0  0  0  0  0  0  0  0  0  0  0
   10.6515  -16.4007   22.3934 O   0  0  0  0  0  0  0  0  0  0  0  0
    9.9233  -20.9756   19.9189 C   0  0  0  0  0  0  0  0  0  0  0  0
    9.4640  -21.8781   18.9824 C   0  0  0  0  0  0  0  0  0  0  0  0
    8.3897  -16.3694   22.9178 N   0  0  0  0  0  0  0  0  0  0  0  0
    8.5130  -15.3858   23.9710 C   0  0  1  0  0  0  0  0  0  0  0  0
    7.2173  -14.5907   24.0660 C   0  0  0  0  0  0  0  0  0  0  0  0
    7.2506  -13.6021   25.1624 C   0  0  0  0  0  0  0  0  0  0  0  0
    6.7407  -13.9076   26.3970 C   0  0  0  0  0  0  0  0  0  0  0  0
    6.7817  -12.9376   27.4101 C   0  0  0  0  0  0  0  0  0  0  0  0
    7.3353  -11.6948   27.1436 C   0  0  0  0  0  0  0  0  0  0  0  0
    7.8464  -11.3881   25.9080 C   0  0  0  0  0  0  0  0  0  0  0  0
    7.7998  -12.3472   24.9241 C   0  0  0  0  0  0  0  0  0  0  0  0
    8.8104  -16.0702   25.2358 C   0  0  0  0  0  0  0  0  0  0  0  0
    8.1699  -17.1622   25.5183 O   0  0  0  0  0  0  0  0  0  0  0  0
    9.7316  -15.6874   26.2155 N   0  0  0  0  0  0  0  0  0  0  0  0
   10.2224  -14.3485   26.4515 C   0  0  0  0  0  0  0  0  0  0  0  0
   11.7224  -14.5980   26.5575 C   0  0  0  0  0  0  0  0  0  0  0  0
   11.7746  -15.8853   27.3518 C   0  0  0  0  0  0  0  0  0  0  0  0
   10.3627  -16.4899   27.2226 C   0  0  1  0  0  0  0  0  0  0  0  0
    9.7021  -16.2405   28.5591 C   0  0  0  0  0  0  0  0  0  0  0  0
    8.8667  -15.3142   28.6077 O   0  0  0  0  0  0  0  0  0  0  0  0
    9.9816  -16.9716   29.6754 O   0  0  0  0  0  0  0  0  0  0  0  0
  2  1  1  0
  3  2  2  0
  4  3  1  0
  5  4  2  0
  5 11  1  0
  6  5  1  0
  7  6  1  0
  7  8  1  6
  9 10  2  0
  9  7  1  0
 11 12  2  0
 12  2  1  0
 13  9  1  0
 14 15  1  1
 14 13  1  0
 16 15  1  0
 16 17  2  0
 18 17  1  0
 19 18  2  0
 20 21  2  0
 20 19  1  0
 21 16  1  0
 22 14  1  0
 23 22  2  0
 24 25  1  0
 24 22  1  0
 26 25  1  0
 27 28  1  0
 27 26  1  0
 28 24  1  0
 28 29  1  1
 29 31  1  0
 30 29  2  0
M  END
$$$$
