YFP.pdb
     RDKit          3D

 31 33  0  0  1  0  0  0  0  0999 V2000
    9.8988  -22.1603   17.5016 O   0  0  0  0  0  0  0  0  0  0  0  0
   10.1366  -21.2774   18.5586 C   0  0  0  0  0  0  0  0  0  0  0  0
   11.4036  -21.0661   19.0590 C   0  0  0  0  0  0  0  0  0  0  0  0
   11.6244  -20.1917   20.1029 C   0  0  0  0  0  0  0  0  0  0  0  0
   10.5857  -19.4863   20.6962 C   0  0  0  0  0  0  0  0  0  0  0  0
   10.8202  -18.5421   21.8226 C   0  0  0  0  0  0  0  0  0  0  0  0
   10.5540  -17.1515   21.3031 C   0  0  2  0  0  0  0  0  0  0  0  0
   11.6811  -16.7930   20.4481 N   0  0  0  0  0  0  0  0  0  0  0  0
   10.3778  -16.1652   22.3888 C   0  0  0  0  0  0  0  0  0  0  0  0
   11.3841  -15.5964   22.8402 O   0  0  0  0  0  0  0  0  0  0  0  0
    9.3245  -19.7091   20.1839 C   0  0  0  0  0  0  0  0  0  0  0  0
    9.0971  -20.5819   19.1405 C   0  0  0  0  0  0  0  0  0  0  0  0
    9.0830  -15.9055   22.8714 N   0  0  0  0  0  0  0  0  0  0  0  0
    8.8449  -15.0064   23.9790 C   0  0  1  0  0  0  0  0  0  0  0  0
    7.4869  -14.3405   23.7988 C   0  0  0  0  0  0  0  0  0  0  0  0
    7.0944  -13.5486   24.9817 C   0  0  0  0  0  0  0  0  0  0  0  0
    7.3959  -12.2145   25.0632 C   0  0  0  0  0  0  0  0  0  0  0  0
    7.0147  -11.4986   26.2083 C   0  0  0  0  0  0  0  0  0  0  0  0
    6.3432  -12.1520   27.2301 C   0  0  0  0  0  0  0  0  0  0  0  0
    6.0405  -13.4877   27.1493 C   0  0  0  0  0  0  0  0  0  0  0  0
    6.4198  -14.1775   26.0221 C   0  0  0  0  0  0  0  0  0  0  0  0
    8.9022  -15.7650   25.2352 C   0  0  0  0  0  0  0  0  0  0  0  0
    8.4103  -16.9650   25.2606 O   0  0  0  0  0  0  0  0  0  0  0  0
    9.4405  -15.3503   26.4571 N   0  0  0  0  0  0  0  0  0  0  0  0
    9.3478  -14.0251   27.0268 C   0  0  0  0  0  0  0  0  0  0  0  0
   10.7932  -13.7815   27.4451 C   0  0  0  0  0  0  0  0  0  0  0  0
   11.1951  -15.1314   27.9991 C   0  0  0  0  0  0  0  0  0  0  0  0
   10.1543  -16.1186   27.4352 C   0  0  1  0  0  0  0  0  0  0  0  0
    9.2412  -16.4366   28.5971 C   0  0  0  0  0  0  0  0  0  0  0  0
    9.7489  -17.0516   29.5575 O   0  0  0  0  0  0  0  0  0  0  0  0
    7.9245  -16.0842   28.6270 O   0  0  0  0  0  0  0  0  0  0  0  0
  2  1  1  0
  3  2  2  0
  4  3  1  0
  5  4  2  0
  5 11  1  0
  6  5  1  0
  7  6  1  0
  7  8  1  6
  9 10  2  0
  9  7  1  0
 11 12  2  0
 12  2  1  0
 13  9  1  0
 14 15  1  6
 14 13  1  0
 16 15  1  0
 16 17  2  0
 18 17  1  0
 19 18  2  0
 20 21  2  0
 20 19  1  0
 21 16  1  0
 22 14  1  0
 23 22  2  0
 24 25  1  0
 24 22  1  0
 26 25  1  0
 27 28  1  0
 27 26  1  0
 28 24  1  0
 28 29  1  1
 29 31  1  0
 30 29  2  0
M  END
$$$$
