YFP.pdb
     RDKit          3D

 31 33  0  0  1  0  0  0  0  0999 V2000
    6.1881  -24.8015   28.8172 O   0  0  0  0  0  0  0  0  0  0  0  0
    6.4749  -23.8033   27.8820 C   0  0  0  0  0  0  0  0  0  0  0  0
    6.7932  -24.1014   26.5742 C   0  0  0  0  0  0  0  0  0  0  0  0
    7.0742  -23.1063   25.6612 C   0  0  0  0  0  0  0  0  0  0  0  0
    7.0500  -21.7635   26.0145 C   0  0  0  0  0  0  0  0  0  0  0  0
    7.3527  -20.6872   25.0321 C   0  0  0  0  0  0  0  0  0  0  0  0
    6.0402  -20.0531   24.6451 C   0  0  2  0  0  0  0  0  0  0  0  0
    5.5055  -20.8270   23.5293 N   0  0  0  0  0  0  0  0  0  0  0  0
    6.1848  -18.6286   24.2807 C   0  0  0  0  0  0  0  0  0  0  0  0
    6.5001  -18.3456   23.1144 O   0  0  0  0  0  0  0  0  0  0  0  0
    6.7298  -21.4823   27.3264 C   0  0  0  0  0  0  0  0  0  0  0  0
    6.4478  -22.4725   28.2441 C   0  0  0  0  0  0  0  0  0  0  0  0
    5.9616  -17.6471   25.2624 N   0  0  0  0  0  0  0  0  0  0  0  0
    6.4660  -16.2985   25.1250 C   0  0  1  0  0  0  0  0  0  0  0  0
    6.2308  -15.5424   26.4262 C   0  0  0  0  0  0  0  0  0  0  0  0
    6.6459  -14.1285   26.3307 C   0  0  0  0  0  0  0  0  0  0  0  0
    7.8823  -13.7302   26.7667 C   0  0  0  0  0  0  0  0  0  0  0  0
    8.2358  -12.3759   26.6683 C   0  0  0  0  0  0  0  0  0  0  0  0
    7.3315  -11.4712   26.1337 C   0  0  0  0  0  0  0  0  0  0  0  0
    6.0934  -11.8690   25.6965 C   0  0  0  0  0  0  0  0  0  0  0  0
    5.7595  -13.1987   25.7988 C   0  0  0  0  0  0  0  0  0  0  0  0
    7.8953  -16.3512   24.7919 C   0  0  0  0  0  0  0  0  0  0  0  0
    8.6349  -17.2506   25.3634 O   0  0  0  0  0  0  0  0  0  0  0  0
    8.5936  -15.5289   23.9025 N   0  0  0  0  0  0  0  0  0  0  0  0
    8.2244  -14.1885   23.5073 C   0  0  0  0  0  0  0  0  0  0  0  0
    8.3855  -14.2717   21.9938 C   0  0  0  0  0  0  0  0  0  0  0  0
    9.6501  -15.0915   21.8539 C   0  0  0  0  0  0  0  0  0  0  0  0
    9.8288  -15.7832   23.2197 C   0  0  1  0  0  0  0  0  0  0  0  0
   10.9499  -15.0312   23.8998 C   0  0  0  0  0  0  0  0  0  0  0  0
   12.0884  -15.1511   23.4023 O   0  0  0  0  0  0  0  0  0  0  0  0
   10.7616  -14.2525   25.0030 O   0  0  0  0  0  0  0  0  0  0  0  0
  2  1  1  0
  3  2  2  0
  4  3  1  0
  5  4  2  0
  5 11  1  0
  6  5  1  0
  7  6  1  0
  7  8  1  6
  9 10  2  0
  9  7  1  0
 11 12  2  0
 12  2  1  0
 13  9  1  0
 14 15  1  1
 14 13  1  0
 16 15  1  0
 16 17  2  0
 18 17  1  0
 19 18  2  0
 20 21  2  0
 20 19  1  0
 21 16  1  0
 22 14  1  0
 23 22  2  0
 24 25  1  0
 24 22  1  0
 26 25  1  0
 27 28  1  0
 27 26  1  0
 28 24  1  0
 28 29  1  1
 29 31  1  0
 30 29  2  0
M  END
$$$$
