YFP.pdb
     RDKit          3D

 31 33  0  0  1  0  0  0  0  0999 V2000
   -0.4354  -21.2261   22.5196 O   0  0  0  0  0  0  0  0  0  0  0  0
    0.8633  -20.7694   22.7601 C   0  0  0  0  0  0  0  0  0  0  0  0
    1.1510  -19.4270   22.8854 C   0  0  0  0  0  0  0  0  0  0  0  0
    2.4376  -18.9898   23.1228 C   0  0  0  0  0  0  0  0  0  0  0  0
    3.4989  -19.8769   23.2462 C   0  0  0  0  0  0  0  0  0  0  0  0
    4.8883  -19.4087   23.5023 C   0  0  0  0  0  0  0  0  0  0  0  0
    5.2430  -18.4388   22.4032 C   0  0  2  0  0  0  0  0  0  0  0  0
    5.5583  -19.2324   21.2198 N   0  0  0  0  0  0  0  0  0  0  0  0
    6.3724  -17.5585   22.7671 C   0  0  0  0  0  0  0  0  0  0  0  0
    7.4953  -17.8158   22.3058 O   0  0  0  0  0  0  0  0  0  0  0  0
    3.1943  -21.2161   23.1183 C   0  0  0  0  0  0  0  0  0  0  0  0
    1.9100  -21.6597   22.8809 C   0  0  0  0  0  0  0  0  0  0  0  0
    6.1381  -16.4649   23.6192 N   0  0  0  0  0  0  0  0  0  0  0  0
    7.2001  -15.5727   24.0292 C   0  0  1  0  0  0  0  0  0  0  0  0
    6.5910  -14.3331   24.6714 C   0  0  0  0  0  0  0  0  0  0  0  0
    7.4492  -13.7809   25.7387 C   0  0  0  0  0  0  0  0  0  0  0  0
    8.3049  -12.7419   25.4825 C   0  0  0  0  0  0  0  0  0  0  0  0
    9.1114  -12.2517   26.5208 C   0  0  0  0  0  0  0  0  0  0  0  0
    9.0270  -12.8253   27.7801 C   0  0  0  0  0  0  0  0  0  0  0  0
    8.1703  -13.8654   28.0377 C   0  0  0  0  0  0  0  0  0  0  0  0
    7.3857  -14.3364   27.0117 C   0  0  0  0  0  0  0  0  0  0  0  0
    8.0845  -16.2767   24.9667 C   0  0  0  0  0  0  0  0  0  0  0  0
    7.5514  -17.0159   25.8897 O   0  0  0  0  0  0  0  0  0  0  0  0
    9.4823  -16.2575   24.9971 N   0  0  0  0  0  0  0  0  0  0  0  0
   10.3306  -15.1460   24.6312 C   0  0  0  0  0  0  0  0  0  0  0  0
   11.3540  -15.8368   23.7375 C   0  0  0  0  0  0  0  0  0  0  0  0
   11.5943  -17.1360   24.4757 C   0  0  0  0  0  0  0  0  0  0  0  0
   10.3890  -17.2828   25.4251 C   0  0  1  0  0  0  0  0  0  0  0  0
   10.9244  -16.9469   26.7983 C   0  0  0  0  0  0  0  0  0  0  0  0
   11.6140  -17.8222   27.3610 O   0  0  0  0  0  0  0  0  0  0  0  0
   10.6849  -15.7574   27.4199 O   0  0  0  0  0  0  0  0  0  0  0  0
  2  1  1  0
  3  2  2  0
  4  3  1  0
  5  4  2  0
  5 11  1  0
  6  5  1  0
  7  6  1  0
  7  8  1  6
  9 10  2  0
  9  7  1  0
 11 12  2  0
 12  2  1  0
 13  9  1  0
 14 15  1  1
 14 13  1  0
 16 15  1  0
 16 17  2  0
 18 17  1  0
 19 18  2  0
 20 21  2  0
 20 19  1  0
 21 16  1  0
 22 14  1  0
 23 22  2  0
 24 25  1  0
 24 22  1  0
 26 25  1  0
 27 28  1  0
 27 26  1  0
 28 24  1  0
 28 29  1  1
 29 31  1  0
 30 29  2  0
M  END
$$$$
