YFP.pdb
     RDKit          3D

 31 33  0  0  1  0  0  0  0  0999 V2000
    8.1115  -22.5128   17.2163 O   0  0  0  0  0  0  0  0  0  0  0  0
    8.4796  -21.6799   18.2765 C   0  0  0  0  0  0  0  0  0  0  0  0
    9.7833  -21.2720   18.4624 C   0  0  0  0  0  0  0  0  0  0  0  0
   10.1331  -20.4497   19.5133 C   0  0  0  0  0  0  0  0  0  0  0  0
    9.1931  -19.9959   20.4292 C   0  0  0  0  0  0  0  0  0  0  0  0
    9.5668  -19.1086   21.5642 C   0  0  0  0  0  0  0  0  0  0  0  0
    9.5105  -17.6887   21.0590 C   0  0  2  0  0  0  0  0  0  0  0  0
   10.5480  -17.5569   20.0413 N   0  0  0  0  0  0  0  0  0  0  0  0
    9.6967  -16.6959   22.1372 C   0  0  0  0  0  0  0  0  0  0  0  0
   10.8522  -16.3524   22.4316 O   0  0  0  0  0  0  0  0  0  0  0  0
    7.8936  -20.4130   20.2291 C   0  0  0  0  0  0  0  0  0  0  0  0
    7.5373  -21.2351   19.1805 C   0  0  0  0  0  0  0  0  0  0  0  0
    8.5647  -16.1766   22.7897 N   0  0  0  0  0  0  0  0  0  0  0  0
    8.6758  -15.2462   23.8914 C   0  0  1  0  0  0  0  0  0  0  0  0
    7.4098  -14.4023   23.9621 C   0  0  0  0  0  0  0  0  0  0  0  0
    7.4392  -13.4486   25.0891 C   0  0  0  0  0  0  0  0  0  0  0  0
    8.0146  -12.2133   24.9469 C   0  0  0  0  0  0  0  0  0  0  0  0
    8.0316  -11.3392   26.0443 C   0  0  0  0  0  0  0  0  0  0  0  0
    7.4683  -11.7405   27.2458 C   0  0  0  0  0  0  0  0  0  0  0  0
    6.8916  -12.9770   27.3892 C   0  0  0  0  0  0  0  0  0  0  0  0
    6.8817  -13.8240   26.3063 C   0  0  0  0  0  0  0  0  0  0  0  0
    8.8839  -15.9972   25.1361 C   0  0  0  0  0  0  0  0  0  0  0  0
    8.2060  -17.0865   25.3266 O   0  0  0  0  0  0  0  0  0  0  0  0
    9.7529  -15.6832   26.1855 N   0  0  0  0  0  0  0  0  0  0  0  0
   10.1944  -14.3598   26.5634 C   0  0  0  0  0  0  0  0  0  0  0  0
   11.6955  -14.5799   26.7110 C   0  0  0  0  0  0  0  0  0  0  0  0
   11.7528  -15.9333   27.3863 C   0  0  0  0  0  0  0  0  0  0  0  0
   10.3656  -16.5589   27.1417 C   0  0  1  0  0  0  0  0  0  0  0  0
    9.6441  -16.4505   28.4656 C   0  0  0  0  0  0  0  0  0  0  0  0
    8.7487  -15.5845   28.5472 O   0  0  0  0  0  0  0  0  0  0  0  0
    9.9319  -17.2430   29.5370 O   0  0  0  0  0  0  0  0  0  0  0  0
  2  1  1  0
  3  2  2  0
  4  3  1  0
  5  4  2  0
  5 11  1  0
  6  5  1  0
  7  6  1  0
  7  8  1  6
  9 10  2  0
  9  7  1  0
 11 12  2  0
 12  2  1  0
 13  9  1  0
 14 15  1  1
 14 13  1  0
 16 15  1  0
 16 17  2  0
 18 17  1  0
 19 18  2  0
 20 21  2  0
 20 19  1  0
 21 16  1  0
 22 14  1  0
 23 22  2  0
 24 25  1  0
 24 22  1  0
 26 25  1  0
 27 28  1  0
 27 26  1  0
 28 24  1  0
 28 29  1  1
 29 31  1  0
 30 29  2  0
M  END
$$$$
