YFP.pdb
     RDKit          3D

 31 33  0  0  1  0  0  0  0  0999 V2000
    9.7836  -22.0609   17.4215 O   0  0  0  0  0  0  0  0  0  0  0  0
   10.0304  -21.2355   18.5220 C   0  0  0  0  0  0  0  0  0  0  0  0
   11.3029  -21.0424   19.0157 C   0  0  0  0  0  0  0  0  0  0  0  0
   11.5326  -20.2249   20.1028 C   0  0  0  0  0  0  0  0  0  0  0  0
   10.4978  -19.5610   20.7483 C   0  0  0  0  0  0  0  0  0  0  0  0
   10.7418  -18.6782   21.9215 C   0  0  0  0  0  0  0  0  0  0  0  0
   10.6592  -17.2534   21.4338 C   0  0  2  0  0  0  0  0  0  0  0  0
   11.8736  -16.9942   20.6672 N   0  0  0  0  0  0  0  0  0  0  0  0
   10.5132  -16.2839   22.5390 C   0  0  0  0  0  0  0  0  0  0  0  0
   11.5402  -15.8138   23.0529 O   0  0  0  0  0  0  0  0  0  0  0  0
    9.2309  -19.7648   20.2421 C   0  0  0  0  0  0  0  0  0  0  0  0
    8.9946  -20.5808   19.1555 C   0  0  0  0  0  0  0  0  0  0  0  0
    9.2226  -15.9284   22.9689 N   0  0  0  0  0  0  0  0  0  0  0  0
    9.0068  -15.0047   24.0607 C   0  0  1  0  0  0  0  0  0  0  0  0
    7.6416  -14.3491   23.8979 C   0  0  0  0  0  0  0  0  0  0  0  0
    7.3051  -13.4742   25.0389 C   0  0  0  0  0  0  0  0  0  0  0  0
    7.5703  -12.1307   24.9938 C   0  0  0  0  0  0  0  0  0  0  0  0
    7.2449  -11.3344   26.1023 C   0  0  0  0  0  0  0  0  0  0  0  0
    6.6637  -11.9198   27.2166 C   0  0  0  0  0  0  0  0  0  0  0  0
    6.3974  -13.2648   27.2627 C   0  0  0  0  0  0  0  0  0  0  0  0
    6.7213  -14.0338   26.1700 C   0  0  0  0  0  0  0  0  0  0  0  0
    9.0980  -15.7334   25.3324 C   0  0  0  0  0  0  0  0  0  0  0  0
    8.6154  -16.9357   25.3969 O   0  0  0  0  0  0  0  0  0  0  0  0
    9.6611  -15.2868   26.5318 N   0  0  0  0  0  0  0  0  0  0  0  0
    9.5879  -13.9447   27.0635 C   0  0  0  0  0  0  0  0  0  0  0  0
   11.0423  -13.6997   27.4485 C   0  0  0  0  0  0  0  0  0  0  0  0
   11.4446  -15.0357   28.0351 C   0  0  0  0  0  0  0  0  0  0  0  0
   10.3870  -16.0312   27.5194 C   0  0  1  0  0  0  0  0  0  0  0  0
    9.4927  -16.3079   28.7063 C   0  0  0  0  0  0  0  0  0  0  0  0
    8.3448  -15.8186   28.6698 O   0  0  0  0  0  0  0  0  0  0  0  0
    9.8883  -17.0504   29.7791 O   0  0  0  0  0  0  0  0  0  0  0  0
  2  1  1  0
  3  2  2  0
  4  3  1  0
  5  4  2  0
  5 11  1  0
  6  5  1  0
  7  6  1  0
  7  8  1  1
  9 10  2  0
  9  7  1  0
 11 12  2  0
 12  2  1  0
 13  9  1  0
 14 15  1  6
 14 13  1  0
 16 15  1  0
 16 17  2  0
 18 17  1  0
 19 18  2  0
 20 21  2  0
 20 19  1  0
 21 16  1  0
 22 14  1  0
 23 22  2  0
 24 25  1  0
 24 22  1  0
 26 25  1  0
 27 28  1  0
 27 26  1  0
 28 24  1  0
 28 29  1  1
 29 31  1  0
 30 29  2  0
M  END
$$$$
