YFP.pdb
     RDKit          3D

 31 33  0  0  1  0  0  0  0  0999 V2000
    5.2180  -25.0976   27.9957 O   0  0  0  0  0  0  0  0  0  0  0  0
    5.7552  -24.0718   27.2132 C   0  0  0  0  0  0  0  0  0  0  0  0
    6.2934  -24.3128   25.9671 C   0  0  0  0  0  0  0  0  0  0  0  0
    6.8204  -23.2909   25.2050 C   0  0  0  0  0  0  0  0  0  0  0  0
    6.8337  -21.9772   25.6548 C   0  0  0  0  0  0  0  0  0  0  0  0
    7.4015  -20.8720   24.8353 C   0  0  0  0  0  0  0  0  0  0  0  0
    6.2409  -20.1167   24.2379 C   0  0  2  0  0  0  0  0  0  0  0  0
    5.9187  -20.7636   22.9700 N   0  0  0  0  0  0  0  0  0  0  0  0
    6.5393  -18.6832   24.0405 C   0  0  0  0  0  0  0  0  0  0  0  0
    6.9311  -18.3089   22.9241 O   0  0  0  0  0  0  0  0  0  0  0  0
    6.2916  -21.7529   26.9032 C   0  0  0  0  0  0  0  0  0  0  0  0
    5.7631  -22.7702   27.6701 C   0  0  0  0  0  0  0  0  0  0  0  0
    6.3701  -17.7963   25.1182 N   0  0  0  0  0  0  0  0  0  0  0  0
    6.8281  -16.4255   25.0607 C   0  0  1  0  0  0  0  0  0  0  0  0
    6.3627  -15.6906   26.3110 C   0  0  0  0  0  0  0  0  0  0  0  0
    6.7954  -14.2787   26.3197 C   0  0  0  0  0  0  0  0  0  0  0  0
    5.9800  -13.2929   25.8290 C   0  0  0  0  0  0  0  0  0  0  0  0
    6.4313  -11.9644   25.8455 C   0  0  0  0  0  0  0  0  0  0  0  0
    7.6877  -11.6763   26.3560 C   0  0  0  0  0  0  0  0  0  0  0  0
    8.5047  -12.6625   26.8478 C   0  0  0  0  0  0  0  0  0  0  0  0
    8.0506  -13.9600   26.8256 C   0  0  0  0  0  0  0  0  0  0  0  0
    8.2924  -16.4119   24.9504 C   0  0  0  0  0  0  0  0  0  0  0  0
    8.9811  -17.2091   25.7071 O   0  0  0  0  0  0  0  0  0  0  0  0
    9.0756  -15.6234   24.1019 N   0  0  0  0  0  0  0  0  0  0  0  0
    8.7182  -14.3301   23.5645 C   0  0  0  0  0  0  0  0  0  0  0  0
    9.0824  -14.5098   22.0952 C   0  0  0  0  0  0  0  0  0  0  0  0
   10.3807  -15.2828   22.1823 C   0  0  0  0  0  0  0  0  0  0  0  0
   10.3985  -15.8712   23.6068 C   0  0  1  0  0  0  0  0  0  0  0  0
   11.3933  -15.0274   24.3706 C   0  0  0  0  0  0  0  0  0  0  0  0
   10.9229  -14.1772   25.1542 O   0  0  0  0  0  0  0  0  0  0  0  0
   12.7431  -15.1622   24.2341 O   0  0  0  0  0  0  0  0  0  0  0  0
  2  1  1  0
  3  2  2  0
  4  3  1  0
  5  4  2  0
  5 11  1  0
  6  5  1  0
  7  6  1  0
  7  8  1  6
  9 10  2  0
  9  7  1  0
 11 12  2  0
 12  2  1  0
 13  9  1  0
 14 15  1  1
 14 13  1  0
 16 15  1  0
 16 17  2  0
 18 17  1  0
 19 18  2  0
 20 21  2  0
 20 19  1  0
 21 16  1  0
 22 14  1  0
 23 22  2  0
 24 25  1  0
 24 22  1  0
 26 25  1  0
 27 28  1  0
 27 26  1  0
 28 24  1  0
 28 29  1  1
 29 31  1  0
 30 29  2  0
M  END
$$$$
