YFP.pdb
     RDKit          3D

 31 33  0  0  1  0  0  0  0  0999 V2000
    6.4979  -20.0478   16.1331 O   0  0  0  0  0  0  0  0  0  0  0  0
    7.1604  -19.5337   17.2512 C   0  0  0  0  0  0  0  0  0  0  0  0
    8.4762  -19.1264   17.1938 C   0  0  0  0  0  0  0  0  0  0  0  0
    9.1181  -18.6207   18.3051 C   0  0  0  0  0  0  0  0  0  0  0  0
    8.4725  -18.4985   19.5284 C   0  0  0  0  0  0  0  0  0  0  0  0
    9.1619  -17.9533   20.7295 C   0  0  0  0  0  0  0  0  0  0  0  0
    8.7154  -16.5218   20.8901 C   0  0  2  0  0  0  0  0  0  0  0  0
    9.3684  -15.7510   19.8369 N   0  0  0  0  0  0  0  0  0  0  0  0
    9.0368  -15.9743   22.2242 C   0  0  0  0  0  0  0  0  0  0  0  0
   10.1859  -15.5531   22.4294 O   0  0  0  0  0  0  0  0  0  0  0  0
    7.1566  -18.9103   19.5690 C   0  0  0  0  0  0  0  0  0  0  0  0
    6.5091  -19.4168   18.4616 C   0  0  0  0  0  0  0  0  0  0  0  0
    8.0355  -15.9491   23.2108 N   0  0  0  0  0  0  0  0  0  0  0  0
    8.2887  -15.4542   24.5460 C   0  0  1  0  0  0  0  0  0  0  0  0
    6.9618  -15.1176   25.2139 C   0  0  0  0  0  0  0  0  0  0  0  0
    6.9849  -13.7895   25.8590 C   0  0  0  0  0  0  0  0  0  0  0  0
    5.9940  -12.8750   25.6158 C   0  0  0  0  0  0  0  0  0  0  0  0
    6.0570  -11.6199   26.2401 C   0  0  0  0  0  0  0  0  0  0  0  0
    7.1156  -11.3310   27.0874 C   0  0  0  0  0  0  0  0  0  0  0  0
    8.1080  -12.2460   27.3318 C   0  0  0  0  0  0  0  0  0  0  0  0
    8.0346  -13.4719   26.7138 C   0  0  0  0  0  0  0  0  0  0  0  0
    9.0224  -16.4743   25.3060 C   0  0  0  0  0  0  0  0  0  0  0  0
    8.8115  -17.7248   25.0340 O   0  0  0  0  0  0  0  0  0  0  0  0
    9.9585  -16.2689   26.3242 N   0  0  0  0  0  0  0  0  0  0  0  0
   10.2697  -15.0079   26.9583 C   0  0  0  0  0  0  0  0  0  0  0  0
   11.7935  -15.0294   26.9270 C   0  0  0  0  0  0  0  0  0  0  0  0
   12.0975  -16.4728   27.2662 C   0  0  0  0  0  0  0  0  0  0  0  0
   10.7815  -17.2296   26.9996 C   0  0  1  0  0  0  0  0  0  0  0  0
   10.2074  -17.5182   28.3679 C   0  0  0  0  0  0  0  0  0  0  0  0
    9.2129  -16.8467   28.7119 O   0  0  0  0  0  0  0  0  0  0  0  0
   10.7253  -18.4577   29.2092 O   0  0  0  0  0  0  0  0  0  0  0  0
  2  1  1  0
  3  2  2  0
  4  3  1  0
  5  4  2  0
  5 11  1  0
  6  5  1  0
  7  6  1  0
  7  8  1  6
  9 10  2  0
  9  7  1  0
 11 12  2  0
 12  2  1  0
 13  9  1  0
 14 15  1  1
 14 13  1  0
 16 15  1  0
 16 17  2  0
 18 17  1  0
 19 18  2  0
 20 21  2  0
 20 19  1  0
 21 16  1  0
 22 14  1  0
 23 22  2  0
 24 25  1  0
 24 22  1  0
 26 25  1  0
 27 28  1  0
 27 26  1  0
 28 24  1  0
 28 29  1  1
 29 31  1  0
 30 29  2  0
M  END
$$$$
