YFP.pdb
     RDKit          3D

 31 33  0  0  1  0  0  0  0  0999 V2000
    8.8766  -13.6665   16.6407 O   0  0  0  0  0  0  0  0  0  0  0  0
    8.4598  -13.8126   17.9666 C   0  0  0  0  0  0  0  0  0  0  0  0
    7.5133  -12.9821   18.5276 C   0  0  0  0  0  0  0  0  0  0  0  0
    7.1109  -13.1374   19.8378 C   0  0  0  0  0  0  0  0  0  0  0  0
    7.6377  -14.1330   20.6500 C   0  0  0  0  0  0  0  0  0  0  0  0
    7.2059  -14.3036   22.0641 C   0  0  0  0  0  0  0  0  0  0  0  0
    6.7757  -15.7395   22.2301 C   0  0  2  0  0  0  0  0  0  0  0  0
    5.4860  -15.8780   21.5614 N   0  0  0  0  0  0  0  0  0  0  0  0
    6.6830  -16.1428   23.6484 C   0  0  0  0  0  0  0  0  0  0  0  0
    5.7790  -15.6546   24.3443 O   0  0  0  0  0  0  0  0  0  0  0  0
    8.5834  -14.9554   20.0737 C   0  0  0  0  0  0  0  0  0  0  0  0
    8.9900  -14.8053   18.7644 C   0  0  0  0  0  0  0  0  0  0  0  0
    7.6172  -17.0611   24.1592 N   0  0  0  0  0  0  0  0  0  0  0  0
    7.9728  -17.0919   25.5608 C   0  0  1  0  0  0  0  0  0  0  0  0
    8.1404  -18.5402   26.0018 C   0  0  0  0  0  0  0  0  0  0  0  0
    8.6647  -18.6453   27.3783 C   0  0  0  0  0  0  0  0  0  0  0  0
   10.0044  -18.8205   27.6063 C   0  0  0  0  0  0  0  0  0  0  0  0
   10.4624  -18.9260   28.9284 C   0  0  0  0  0  0  0  0  0  0  0  0
    9.5546  -18.8509   29.9736 C   0  0  0  0  0  0  0  0  0  0  0  0
    8.2132  -18.6752   29.7464 C   0  0  0  0  0  0  0  0  0  0  0  0
    7.7775  -18.5734   28.4464 C   0  0  0  0  0  0  0  0  0  0  0  0
    9.2118  -16.3291   25.7596 C   0  0  0  0  0  0  0  0  0  0  0  0
   10.1615  -16.4451   24.8837 O   0  0  0  0  0  0  0  0  0  0  0  0
    9.5161  -15.4567   26.8089 N   0  0  0  0  0  0  0  0  0  0  0  0
    8.7374  -15.2597   28.0106 C   0  0  0  0  0  0  0  0  0  0  0  0
    8.6879  -13.7380   28.0845 C   0  0  0  0  0  0  0  0  0  0  0  0
   10.0938  -13.3546   27.6758 C   0  0  0  0  0  0  0  0  0  0  0  0
   10.6575  -14.6036   26.9701 C   0  0  1  0  0  0  0  0  0  0  0  0
   11.6164  -15.2196   27.9631 C   0  0  0  0  0  0  0  0  0  0  0  0
   11.2180  -16.2335   28.5726 O   0  0  0  0  0  0  0  0  0  0  0  0
   12.8609  -14.7184   28.2051 O   0  0  0  0  0  0  0  0  0  0  0  0
  2  1  1  0
  3  2  2  0
  4  3  1  0
  5  4  2  0
  5 11  1  0
  6  5  1  0
  7  6  1  0
  7  8  1  1
  9 10  2  0
  9  7  1  0
 11 12  2  0
 12  2  1  0
 13  9  1  0
 14 15  1  6
 14 13  1  0
 16 15  1  0
 16 17  2  0
 18 17  1  0
 19 18  2  0
 20 21  2  0
 20 19  1  0
 21 16  1  0
 22 14  1  0
 23 22  2  0
 24 25  1  0
 24 22  1  0
 26 25  1  0
 27 28  1  0
 27 26  1  0
 28 24  1  0
 28 29  1  1
 29 31  1  0
 30 29  2  0
M  END
$$$$
