YFP.pdb
     RDKit          3D

 31 33  0  0  1  0  0  0  0  0999 V2000
   13.9429  -20.6148   17.9661 O   0  0  0  0  0  0  0  0  0  0  0  0
   12.8659  -20.2125   18.7607 C   0  0  0  0  0  0  0  0  0  0  0  0
   11.5590  -20.4183   18.3733 C   0  0  0  0  0  0  0  0  0  0  0  0
   10.5051  -20.0161   19.1672 C   0  0  0  0  0  0  0  0  0  0  0  0
   10.7098  -19.3878   20.3886 C   0  0  0  0  0  0  0  0  0  0  0  0
    9.5752  -18.9524   21.2479 C   0  0  0  0  0  0  0  0  0  0  0  0
    9.1920  -17.5607   20.8112 C   0  0  2  0  0  0  0  0  0  0  0  0
   10.0004  -17.2443   19.6382 N   0  0  0  0  0  0  0  0  0  0  0  0
    9.3904  -16.5576   21.8776 C   0  0  0  0  0  0  0  0  0  0  0  0
   10.5092  -16.0343   21.9966 O   0  0  0  0  0  0  0  0  0  0  0  0
   12.0229  -19.1893   20.7615 C   0  0  0  0  0  0  0  0  0  0  0  0
   13.0810  -19.5890   19.9723 C   0  0  0  0  0  0  0  0  0  0  0  0
    8.3107  -16.2314   22.7171 N   0  0  0  0  0  0  0  0  0  0  0  0
    8.4519  -15.3098   23.8228 C   0  0  1  0  0  0  0  0  0  0  0  0
    7.1806  -14.4802   23.9472 C   0  0  0  0  0  0  0  0  0  0  0  0
    7.2587  -13.5052   25.0534 C   0  0  0  0  0  0  0  0  0  0  0  0
    7.8478  -12.2819   24.8689 C   0  0  0  0  0  0  0  0  0  0  0  0
    7.9114  -11.3868   25.9476 C   0  0  0  0  0  0  0  0  0  0  0  0
    7.3792  -11.7556   27.1734 C   0  0  0  0  0  0  0  0  0  0  0  0
    6.7888  -12.9800   27.3591 C   0  0  0  0  0  0  0  0  0  0  0  0
    6.7331  -13.8478   26.2942 C   0  0  0  0  0  0  0  0  0  0  0  0
    8.7128  -16.0699   25.0520 C   0  0  0  0  0  0  0  0  0  0  0  0
    8.1518  -17.2303   25.1973 O   0  0  0  0  0  0  0  0  0  0  0  0
    9.5205  -15.6952   26.1301 N   0  0  0  0  0  0  0  0  0  0  0  0
    9.8355  -14.3435   26.5336 C   0  0  0  0  0  0  0  0  0  0  0  0
   11.3450  -14.4362   26.7245 C   0  0  0  0  0  0  0  0  0  0  0  0
   11.4984  -15.7877   27.3884 C   0  0  0  0  0  0  0  0  0  0  0  0
   10.1778  -16.5267   27.0961 C   0  0  1  0  0  0  0  0  0  0  0  0
    9.4112  -16.4963   28.3985 C   0  0  0  0  0  0  0  0  0  0  0  0
    8.4524  -15.6998   28.4666 O   0  0  0  0  0  0  0  0  0  0  0  0
    9.7246  -17.2855   29.4651 O   0  0  0  0  0  0  0  0  0  0  0  0
  2  1  1  0
  3  2  2  0
  4  3  1  0
  5  4  2  0
  5 11  1  0
  6  5  1  0
  7  6  1  0
  7  8  1  6
  9 10  2  0
  9  7  1  0
 11 12  2  0
 12  2  1  0
 13  9  1  0
 14 15  1  1
 14 13  1  0
 16 15  1  0
 16 17  2  0
 18 17  1  0
 19 18  2  0
 20 21  2  0
 20 19  1  0
 21 16  1  0
 22 14  1  0
 23 22  2  0
 24 25  1  0
 24 22  1  0
 26 25  1  0
 27 28  1  0
 27 26  1  0
 28 24  1  0
 28 29  1  1
 29 31  1  0
 30 29  2  0
M  END
$$$$
