SMW.pdb
     RDKit          3D

 29 30  0  0  1  0  0  0  0  0999 V2000
    8.3941  -20.0309   22.4787 O   0  0  0  0  0  0  0  0  0  0  0  0
    7.3312  -19.6210   21.6922 C   0  0  0  0  0  0  0  0  0  0  0  0
    7.8677  -18.9531   20.4584 C   0  0  2  0  0  0  0  0  0  0  0  0
    8.5835  -19.9446   19.6427 N   0  0  0  0  0  0  0  0  0  0  0  0
    8.8267  -17.9032   20.8438 C   0  0  0  0  0  0  0  0  0  0  0  0
   10.0718  -18.1697   20.7540 O   0  0  0  0  0  0  0  0  0  0  0  0
    6.3940  -12.5491   18.5362 C   0  0  0  0  0  0  0  0  0  0  0  0
    7.5503  -12.5499   19.9211 S   0  0  0  0  0  0  0  0  0  0  0  0
    8.3170  -14.1647   20.1243 C   0  0  0  0  0  0  0  0  0  0  0  0
    9.0790  -14.2467   21.4366 C   0  0  0  0  0  0  0  0  0  0  0  0
    9.5383  -15.6864   21.6427 C   0  0  2  0  0  0  0  0  0  0  0  0
    8.4815  -16.6130   21.3083 N   0  0  0  0  0  0  0  0  0  0  0  0
    9.9773  -15.8390   23.0580 C   0  0  0  0  0  0  0  0  0  0  0  0
   10.9363  -15.1126   23.4456 O   0  0  0  0  0  0  0  0  0  0  0  0
    9.3468  -16.7598   23.9342 N   0  0  0  0  0  0  0  0  0  0  0  0
    9.9149  -16.9098   25.2732 C   0  0  1  0  0  0  0  0  0  0  0  0
    9.7669  -15.6629   26.0583 C   0  0  0  0  0  0  0  0  0  0  0  0
    8.3816  -15.1861   26.1280 C   0  0  0  0  0  0  0  0  0  0  0  0
    7.2175  -15.9254   25.8730 C   0  0  0  0  0  0  0  0  0  0  0  0
    6.1506  -15.1318   25.9967 N   0  0  0  0  0  0  0  0  0  0  0  0
    6.5230  -13.8871   26.3242 C   0  0  0  0  0  0  0  0  0  0  0  0
    5.7745  -12.7342   26.5763 C   0  0  0  0  0  0  0  0  0  0  0  0
    6.4801  -11.6038   26.9195 C   0  0  0  0  0  0  0  0  0  0  0  0
    7.8532  -11.5922   27.0143 C   0  0  0  0  0  0  0  0  0  0  0  0
    8.5588  -12.7362   26.7606 C   0  0  0  0  0  0  0  0  0  0  0  0
    7.9084  -13.9084   26.4092 C   0  0  0  0  0  0  0  0  0  0  0  0
    9.3154  -18.0802   25.9016 C   0  0  0  0  0  0  0  0  0  0  0  0
    8.3445  -18.6796   25.3150 O   0  0  0  0  0  0  0  0  0  0  0  0
    9.7386  -18.6180   27.1300 O   0  0  0  0  0  0  0  0  0  0  0  0
  1  2  1  0
  3  2  1  0
  3  5  1  0
  3  4  1  6
  5  6  2  0
  8  7  1  0
  9 10  1  0
  9  8  1  0
 11 10  1  1
 12  5  1  0
 12 11  1  0
 13 11  1  0
 13 14  2  0
 15 13  1  0
 16 15  1  0
 16 27  1  0
 16 17  1  1
 18 17  1  0
 19 18  2  0
 20 21  1  0
 20 19  1  0
 21 26  2  0
 22 23  2  0
 22 21  1  0
 23 24  1  0
 24 25  2  0
 26 18  1  0
 26 25  1  0
 27 28  2  0
 27 29  1  0
M  END
$$$$
