SMW.pdb
     RDKit          3D

 29 30  0  0  1  0  0  0  0  0999 V2000
    6.9547  -21.4037   24.6335 O   0  0  0  0  0  0  0  0  0  0  0  0
    7.4562  -20.2345   24.0878 C   0  0  0  0  0  0  0  0  0  0  0  0
    6.3094  -19.3839   23.6217 C   0  0  2  0  0  0  0  0  0  0  0  0
    5.8937  -19.8225   22.2815 N   0  0  0  0  0  0  0  0  0  0  0  0
    6.7443  -17.9795   23.5262 C   0  0  0  0  0  0  0  0  0  0  0  0
    7.1989  -17.5700   22.4060 O   0  0  0  0  0  0  0  0  0  0  0  0
    7.5933  -11.1936   27.1228 C   0  0  0  0  0  0  0  0  0  0  0  0
    6.3504  -12.1525   26.2335 S   0  0  0  0  0  0  0  0  0  0  0  0
    7.1205  -13.3398   25.1228 C   0  0  0  0  0  0  0  0  0  0  0  0
    6.7029  -14.7601   25.4663 C   0  0  0  0  0  0  0  0  0  0  0  0
    7.1093  -15.6774   24.3176 C   0  0  2  0  0  0  0  0  0  0  0  0
    6.6997  -17.0378   24.5801 N   0  0  0  0  0  0  0  0  0  0  0  0
    8.5838  -15.5719   24.1342 C   0  0  0  0  0  0  0  0  0  0  0  0
    9.0406  -14.4512   23.7696 O   0  0  0  0  0  0  0  0  0  0  0  0
    9.4398  -16.6810   24.3588 N   0  0  0  0  0  0  0  0  0  0  0  0
   10.8486  -16.5260   23.9991 C   0  0  1  0  0  0  0  0  0  0  0  0
   11.5402  -15.6090   24.9339 C   0  0  0  0  0  0  0  0  0  0  0  0
   11.3149  -15.9447   26.3438 C   0  0  0  0  0  0  0  0  0  0  0  0
   11.4625  -17.2010   26.9495 C   0  0  0  0  0  0  0  0  0  0  0  0
   11.1229  -17.1160   28.2381 N   0  0  0  0  0  0  0  0  0  0  0  0
   10.7513  -15.8665   28.5475 C   0  0  0  0  0  0  0  0  0  0  0  0
   10.3381  -15.2969   29.7549 C   0  0  0  0  0  0  0  0  0  0  0  0
   10.0479  -13.9520   29.7348 C   0  0  0  0  0  0  0  0  0  0  0  0
   10.1541  -13.1919   28.5923 C   0  0  0  0  0  0  0  0  0  0  0  0
   10.5603  -13.7778   27.4249 C   0  0  0  0  0  0  0  0  0  0  0  0
   10.8669  -15.1285   27.3775 C   0  0  0  0  0  0  0  0  0  0  0  0
   11.4523  -17.8497   23.9127 C   0  0  0  0  0  0  0  0  0  0  0  0
   12.6548  -17.9644   23.4802 O   0  0  0  0  0  0  0  0  0  0  0  0
   10.7999  -19.0385   24.2847 O   0  0  0  0  0  0  0  0  0  0  0  0
  1  2  1  0
  3  2  1  0
  3  5  1  0
  3  4  1  6
  5  6  2  0
  8  7  1  0
  9 10  1  0
  9  8  1  0
 11 10  1  1
 12  5  1  0
 12 11  1  0
 13 11  1  0
 13 14  2  0
 15 13  1  0
 16 15  1  0
 16 27  1  0
 16 17  1  1
 18 17  1  0
 19 18  2  0
 20 21  1  0
 20 19  1  0
 21 26  2  0
 22 23  2  0
 22 21  1  0
 23 24  1  0
 24 25  2  0
 26 18  1  0
 26 25  1  0
 27 28  2  0
 27 29  1  0
M  END
$$$$
