SMW.pdb
     RDKit          3D

 29 30  0  0  1  0  0  0  0  0999 V2000
    9.9638  -20.3285   22.2639 O   0  0  0  0  0  0  0  0  0  0  0  0
   10.4923  -20.4732   20.9927 C   0  0  0  0  0  0  0  0  0  0  0  0
   10.2348  -19.2159   20.2124 C   0  0  2  0  0  0  0  0  0  0  0  0
   10.8967  -19.3135   18.9034 N   0  0  0  0  0  0  0  0  0  0  0  0
   10.8107  -18.0645   20.9288 C   0  0  0  0  0  0  0  0  0  0  0  0
   12.0800  -18.0132   21.0536 O   0  0  0  0  0  0  0  0  0  0  0  0
    6.0204  -13.2977   21.4946 C   0  0  0  0  0  0  0  0  0  0  0  0
    7.7743  -13.2838   21.0718 S   0  0  0  0  0  0  0  0  0  0  0  0
    8.6414  -14.6494   21.8589 C   0  0  0  0  0  0  0  0  0  0  0  0
   10.1384  -14.5611   21.6121 C   0  0  0  0  0  0  0  0  0  0  0  0
   10.7812  -15.8732   22.0496 C   0  0  2  0  0  0  0  0  0  0  0  0
   10.0696  -17.0014   21.4944 N   0  0  0  0  0  0  0  0  0  0  0  0
   10.7987  -15.9117   23.5386 C   0  0  0  0  0  0  0  0  0  0  0  0
   11.5431  -15.0774   24.1280 O   0  0  0  0  0  0  0  0  0  0  0  0
   10.0140  -16.8442   24.2651 N   0  0  0  0  0  0  0  0  0  0  0  0
   10.2731  -16.9673   25.6989 C   0  0  1  0  0  0  0  0  0  0  0  0
    9.9376  -15.7131   26.4113 C   0  0  0  0  0  0  0  0  0  0  0  0
    8.5553  -15.2757   26.1894 C   0  0  0  0  0  0  0  0  0  0  0  0
    7.4585  -16.0776   25.8418 C   0  0  0  0  0  0  0  0  0  0  0  0
    6.3777  -15.3092   25.6850 N   0  0  0  0  0  0  0  0  0  0  0  0
    6.6764  -14.0223   25.9082 C   0  0  0  0  0  0  0  0  0  0  0  0
    5.8840  -12.8714   25.8838 C   0  0  0  0  0  0  0  0  0  0  0  0
    6.5098  -11.6853   26.1920 C   0  0  0  0  0  0  0  0  0  0  0  0
    7.8472  -11.6183   26.5104 C   0  0  0  0  0  0  0  0  0  0  0  0
    8.5975  -12.7619   26.5250 C   0  0  0  0  0  0  0  0  0  0  0  0
    8.0280  -13.9887   26.2232 C   0  0  0  0  0  0  0  0  0  0  0  0
    9.5652  -18.1395   26.1979 C   0  0  0  0  0  0  0  0  0  0  0  0
    9.6430  -18.4369   27.4436 O   0  0  0  0  0  0  0  0  0  0  0  0
    8.7781  -18.9847   25.3958 O   0  0  0  0  0  0  0  0  0  0  0  0
  1  2  1  0
  3  2  1  0
  3  5  1  0
  3  4  1  6
  5  6  2  0
  8  7  1  0
  9 10  1  0
  9  8  1  0
 11 10  1  1
 12  5  1  0
 12 11  1  0
 13 11  1  0
 13 14  2  0
 15 13  1  0
 16 15  1  0
 16 27  1  0
 16 17  1  1
 18 17  1  0
 19 18  2  0
 20 21  1  0
 20 19  1  0
 21 26  2  0
 22 23  2  0
 22 21  1  0
 23 24  1  0
 24 25  2  0
 26 18  1  0
 26 25  1  0
 27 28  2  0
 27 29  1  0
M  END
$$$$
