SMW.pdb
     RDKit          3D

 29 30  0  0  1  0  0  0  0  0999 V2000
    7.0375  -19.7944   23.7804 O   0  0  0  0  0  0  0  0  0  0  0  0
    5.8184  -19.7880   23.1246 C   0  0  0  0  0  0  0  0  0  0  0  0
    6.0567  -19.5812   21.6561 C   0  0  2  0  0  0  0  0  0  0  0  0
    6.6384  -20.8033   21.0825 N   0  0  0  0  0  0  0  0  0  0  0  0
    7.0210  -18.4842   21.4629 C   0  0  0  0  0  0  0  0  0  0  0  0
    8.2633  -18.7770   21.4480 O   0  0  0  0  0  0  0  0  0  0  0  0
    7.6983  -11.1762   20.3238 C   0  0  0  0  0  0  0  0  0  0  0  0
    7.9352  -12.5589   19.1892 S   0  0  0  0  0  0  0  0  0  0  0  0
    8.4459  -14.0410   20.0717 C   0  0  0  0  0  0  0  0  0  0  0  0
    7.2481  -14.9074   20.4240 C   0  0  0  0  0  0  0  0  0  0  0  0
    7.7459  -16.1528   21.1502 C   0  0  2  0  0  0  0  0  0  0  0  0
    6.6836  -17.1219   21.2904 N   0  0  0  0  0  0  0  0  0  0  0  0
    8.2898  -15.7366   22.4731 C   0  0  0  0  0  0  0  0  0  0  0  0
    7.7907  -14.7030   23.0022 O   0  0  0  0  0  0  0  0  0  0  0  0
    9.3237  -16.4683   23.1126 N   0  0  0  0  0  0  0  0  0  0  0  0
   10.0118  -15.8224   24.2295 C   0  0  1  0  0  0  0  0  0  0  0  0
    9.4012  -16.2025   25.5240 C   0  0  0  0  0  0  0  0  0  0  0  0
    8.1051  -15.5583   25.7617 C   0  0  0  0  0  0  0  0  0  0  0  0
    6.8341  -16.1327   25.6149 C   0  0  0  0  0  0  0  0  0  0  0  0
    5.8990  -15.2173   25.8807 N   0  0  0  0  0  0  0  0  0  0  0  0
    6.4630  -14.0455   26.2031 C   0  0  0  0  0  0  0  0  0  0  0  0
    5.9021  -12.8198   26.5721 C   0  0  0  0  0  0  0  0  0  0  0  0
    6.7814  -11.8040   26.8696 C   0  0  0  0  0  0  0  0  0  0  0  0
    8.1465  -11.9699   26.8117 C   0  0  0  0  0  0  0  0  0  0  0  0
    8.6661  -13.1812   26.4460 C   0  0  0  0  0  0  0  0  0  0  0  0
    7.8350  -14.2451   26.1330 C   0  0  0  0  0  0  0  0  0  0  0  0
   11.4342  -16.1252   24.1339 C   0  0  0  0  0  0  0  0  0  0  0  0
   11.8353  -16.9923   23.2775 O   0  0  0  0  0  0  0  0  0  0  0  0
   12.4239  -15.5164   24.9257 O   0  0  0  0  0  0  0  0  0  0  0  0
  1  2  1  0
  3  2  1  0
  3  5  1  0
  3  4  1  1
  5  6  2  0
  8  7  1  0
  9 10  1  0
  9  8  1  0
 11 10  1  1
 12  5  1  0
 12 11  1  0
 13 11  1  0
 13 14  2  0
 15 13  1  0
 16 15  1  0
 16 27  1  0
 16 17  1  1
 18 17  1  0
 19 18  2  0
 20 21  1  0
 20 19  1  0
 21 26  2  0
 22 23  2  0
 22 21  1  0
 23 24  1  0
 24 25  2  0
 26 18  1  0
 26 25  1  0
 27 28  2  0
 27 29  1  0
M  END
$$$$
