SMW.pdb
     RDKit          3D

 29 30  0  0  1  0  0  0  0  0999 V2000
    7.0617  -17.2460   19.8921 O   0  0  0  0  0  0  0  0  0  0  0  0
    7.6013  -16.3600   18.9756 C   0  0  0  0  0  0  0  0  0  0  0  0
    7.4001  -14.9584   19.4768 C   0  0  2  0  0  0  0  0  0  0  0  0
    7.9909  -14.0118   18.5198 N   0  0  0  0  0  0  0  0  0  0  0  0
    8.0917  -14.7922   20.7670 C   0  0  0  0  0  0  0  0  0  0  0  0
    9.3633  -14.9025   20.7813 O   0  0  0  0  0  0  0  0  0  0  0  0
    6.4420  -12.1134   26.6096 C   0  0  0  0  0  0  0  0  0  0  0  0
    5.3568  -13.3263   25.8311 S   0  0  0  0  0  0  0  0  0  0  0  0
    6.2712  -14.3784   24.6939 C   0  0  0  0  0  0  0  0  0  0  0  0
    7.6026  -13.7494   24.3179 C   0  0  0  0  0  0  0  0  0  0  0  0
    8.2418  -14.5872   23.2154 C   0  0  2  0  0  0  0  0  0  0  0  0
    7.4604  -14.5177   22.0021 N   0  0  0  0  0  0  0  0  0  0  0  0
    8.3713  -15.9872   23.7076 C   0  0  0  0  0  0  0  0  0  0  0  0
    7.9618  -16.9071   22.9436 O   0  0  0  0  0  0  0  0  0  0  0  0
    8.9302  -16.2770   24.9791 N   0  0  0  0  0  0  0  0  0  0  0  0
    9.6599  -17.5362   25.1212 C   0  0  1  0  0  0  0  0  0  0  0  0
   10.9850  -17.3175   25.7449 C   0  0  0  0  0  0  0  0  0  0  0  0
   10.9051  -17.0125   27.1773 C   0  0  0  0  0  0  0  0  0  0  0  0
   10.8368  -17.9296   28.2361 C   0  0  0  0  0  0  0  0  0  0  0  0
   10.7302  -17.2682   29.3913 N   0  0  0  0  0  0  0  0  0  0  0  0
   10.7230  -15.9452   29.1793 C   0  0  0  0  0  0  0  0  0  0  0  0
   10.6502  -14.8672   30.0656 C   0  0  0  0  0  0  0  0  0  0  0  0
   10.6934  -13.6088   29.5107 C   0  0  0  0  0  0  0  0  0  0  0  0
   10.8026  -13.4046   28.1539 C   0  0  0  0  0  0  0  0  0  0  0  0
   10.8709  -14.4798   27.3111 C   0  0  0  0  0  0  0  0  0  0  0  0
   10.8317  -15.7737   27.8061 C   0  0  0  0  0  0  0  0  0  0  0  0
    8.8153  -18.4815   25.8404 C   0  0  0  0  0  0  0  0  0  0  0  0
    7.7248  -18.0683   26.3754 O   0  0  0  0  0  0  0  0  0  0  0  0
    9.1119  -19.8480   25.9882 O   0  0  0  0  0  0  0  0  0  0  0  0
  1  2  1  0
  3  2  1  0
  3  5  1  0
  3  4  1  6
  5  6  2  0
  8  7  1  0
  9 10  1  0
  9  8  1  0
 11 10  1  1
 12  5  1  0
 12 11  1  0
 13 11  1  0
 13 14  2  0
 15 13  1  0
 16 15  1  0
 16 27  1  0
 16 17  1  1
 18 17  1  0
 19 18  2  0
 20 21  1  0
 20 19  1  0
 21 26  2  0
 22 23  2  0
 22 21  1  0
 23 24  1  0
 24 25  2  0
 26 18  1  0
 26 25  1  0
 27 28  2  0
 27 29  1  0
M  END
$$$$
