SMW.pdb
     RDKit          3D

 29 30  0  0  1  0  0  0  0  0999 V2000
    8.1036  -21.5965   21.9298 O   0  0  0  0  0  0  0  0  0  0  0  0
    6.9499  -22.3614   21.9385 C   0  0  0  0  0  0  0  0  0  0  0  0
    6.5046  -22.5546   23.3600 C   0  0  2  0  0  0  0  0  0  0  0  0
    5.1938  -23.2199   23.3713 N   0  0  0  0  0  0  0  0  0  0  0  0
    6.3544  -21.2420   24.0121 C   0  0  0  0  0  0  0  0  0  0  0  0
    5.4622  -20.4491   23.5596 O   0  0  0  0  0  0  0  0  0  0  0  0
    8.3025  -18.2411   29.7844 C   0  0  0  0  0  0  0  0  0  0  0  0
    9.0530  -19.7150   29.0636 S   0  0  0  0  0  0  0  0  0  0  0  0
    8.6099  -19.8851   27.3283 C   0  0  0  0  0  0  0  0  0  0  0  0
    7.2274  -19.3145   27.0588 C   0  0  0  0  0  0  0  0  0  0  0  0
    6.9392  -19.4240   25.5651 C   0  0  2  0  0  0  0  0  0  0  0  0
    7.1213  -20.7822   25.1074 N   0  0  0  0  0  0  0  0  0  0  0  0
    7.8344  -18.4756   24.8454 C   0  0  0  0  0  0  0  0  0  0  0  0
    8.9123  -18.9421   24.3783 O   0  0  0  0  0  0  0  0  0  0  0  0
    7.4931  -17.1072   24.6902 N   0  0  0  0  0  0  0  0  0  0  0  0
    8.3213  -16.3061   23.7900 C   0  0  1  0  0  0  0  0  0  0  0  0
    7.6974  -14.9904   23.5202 C   0  0  0  0  0  0  0  0  0  0  0  0
    7.0499  -14.4064   24.6996 C   0  0  0  0  0  0  0  0  0  0  0  0
    6.0999  -15.0148   25.5328 C   0  0  0  0  0  0  0  0  0  0  0  0
    5.7142  -14.1492   26.4736 N   0  0  0  0  0  0  0  0  0  0  0  0
    6.3512  -12.9793   26.3292 C   0  0  0  0  0  0  0  0  0  0  0  0
    6.2940  -11.7974   27.0726 C   0  0  0  0  0  0  0  0  0  0  0  0
    7.1135  -10.7708   26.6627 C   0  0  0  0  0  0  0  0  0  0  0  0
    7.9529  -10.8858   25.5780 C   0  0  0  0  0  0  0  0  0  0  0  0
    7.9863  -12.0552   24.8690 C   0  0  0  0  0  0  0  0  0  0  0  0
    7.1851  -13.1271   25.2293 C   0  0  0  0  0  0  0  0  0  0  0  0
    9.6643  -16.2212   24.3498 C   0  0  0  0  0  0  0  0  0  0  0  0
    9.8702  -16.6219   25.5511 O   0  0  0  0  0  0  0  0  0  0  0  0
   10.7793  -15.7271   23.6500 O   0  0  0  0  0  0  0  0  0  0  0  0
  1  2  1  0
  3  2  1  0
  3  5  1  0
  3  4  1  6
  5  6  2  0
  8  7  1  0
  9 10  1  0
  9  8  1  0
 11 10  1  1
 12  5  1  0
 12 11  1  0
 13 11  1  0
 13 14  2  0
 15 13  1  0
 16 15  1  0
 16 27  1  0
 16 17  1  1
 18 17  1  0
 19 18  2  0
 20 21  1  0
 20 19  1  0
 21 26  2  0
 22 23  2  0
 22 21  1  0
 23 24  1  0
 24 25  2  0
 26 18  1  0
 26 25  1  0
 27 28  2  0
 27 29  1  0
M  END
$$$$
