SMW.pdb
     RDKit          3D

 29 30  0  0  1  0  0  0  0  0999 V2000
   10.9127  -19.9176   20.5530 O   0  0  0  0  0  0  0  0  0  0  0  0
    9.7697  -20.0945   19.7925 C   0  0  0  0  0  0  0  0  0  0  0  0
    9.2876  -18.7531   19.3188 C   0  0  2  0  0  0  0  0  0  0  0  0
    9.9951  -18.3929   18.0816 N   0  0  0  0  0  0  0  0  0  0  0  0
    9.5974  -17.7314   20.3341 C   0  0  0  0  0  0  0  0  0  0  0  0
   10.6811  -17.0696   20.2038 O   0  0  0  0  0  0  0  0  0  0  0  0
    7.7790  -11.6366   21.9749 C   0  0  0  0  0  0  0  0  0  0  0  0
    7.1052  -12.8733   20.8473 S   0  0  0  0  0  0  0  0  0  0  0  0
    8.1362  -14.3471   20.8108 C   0  0  0  0  0  0  0  0  0  0  0  0
    7.8801  -15.2235   22.0257 C   0  0  0  0  0  0  0  0  0  0  0  0
    9.0448  -16.1965   22.1773 C   0  0  2  0  0  0  0  0  0  0  0  0
    8.7882  -17.4185   21.4506 N   0  0  0  0  0  0  0  0  0  0  0  0
    9.2537  -16.4530   23.6297 C   0  0  0  0  0  0  0  0  0  0  0  0
    8.5743  -17.3804   24.1549 O   0  0  0  0  0  0  0  0  0  0  0  0
   10.1754  -15.6897   24.3920 N   0  0  0  0  0  0  0  0  0  0  0  0
   10.5309  -16.1941   25.7176 C   0  0  1  0  0  0  0  0  0  0  0  0
    9.7577  -15.5046   26.7758 C   0  0  0  0  0  0  0  0  0  0  0  0
    8.3936  -15.1596   26.3616 C   0  0  0  0  0  0  0  0  0  0  0  0
    7.3909  -16.0404   25.9306 C   0  0  0  0  0  0  0  0  0  0  0  0
    6.3007  -15.3446   25.5982 N   0  0  0  0  0  0  0  0  0  0  0  0
    6.5036  -14.0328   25.7799 C   0  0  0  0  0  0  0  0  0  0  0  0
    5.6632  -12.9323   25.5913 C   0  0  0  0  0  0  0  0  0  0  0  0
    6.1847  -11.6976   25.9031 C   0  0  0  0  0  0  0  0  0  0  0  0
    7.4666  -11.5373   26.3777 C   0  0  0  0  0  0  0  0  0  0  0  0
    8.2662  -12.6334   26.5511 C   0  0  0  0  0  0  0  0  0  0  0  0
    7.8018  -13.9051   26.2549 C   0  0  0  0  0  0  0  0  0  0  0  0
   10.3745  -17.6431   25.7185 C   0  0  0  0  0  0  0  0  0  0  0  0
   10.5656  -18.2958   24.6305 O   0  0  0  0  0  0  0  0  0  0  0  0
   10.0283  -18.3971   26.8537 O   0  0  0  0  0  0  0  0  0  0  0  0
  1  2  1  0
  3  2  1  0
  3  5  1  0
  3  4  1  6
  5  6  2  0
  8  7  1  0
  9 10  1  0
  9  8  1  0
 11 10  1  1
 12  5  1  0
 12 11  1  0
 13 11  1  0
 13 14  2  0
 15 13  1  0
 16 15  1  0
 16 27  1  0
 16 17  1  1
 18 17  1  0
 19 18  2  0
 20 21  1  0
 20 19  1  0
 21 26  2  0
 22 23  2  0
 22 21  1  0
 23 24  1  0
 24 25  2  0
 26 18  1  0
 26 25  1  0
 27 28  2  0
 27 29  1  0
M  END
$$$$
