SMW.pdb
     RDKit          3D

 29 30  0  0  1  0  0  0  0  0999 V2000
    8.5539  -20.0445   22.4842 O   0  0  0  0  0  0  0  0  0  0  0  0
    7.5087  -19.8796   21.5917 C   0  0  0  0  0  0  0  0  0  0  0  0
    8.0422  -19.2773   20.3233 C   0  0  2  0  0  0  0  0  0  0  0  0
    8.7797  -20.3034   19.5721 N   0  0  0  0  0  0  0  0  0  0  0  0
    8.9811  -18.1902   20.6507 C   0  0  0  0  0  0  0  0  0  0  0  0
   10.2286  -18.4605   20.6576 O   0  0  0  0  0  0  0  0  0  0  0  0
    7.3445  -11.9785   21.0104 C   0  0  0  0  0  0  0  0  0  0  0  0
    7.4573  -12.8910   19.4581 S   0  0  0  0  0  0  0  0  0  0  0  0
    8.2630  -14.4815   19.6984 C   0  0  0  0  0  0  0  0  0  0  0  0
    9.1308  -14.4715   20.9460 C   0  0  0  0  0  0  0  0  0  0  0  0
    9.6549  -15.8837   21.1847 C   0  0  2  0  0  0  0  0  0  0  0  0
    8.6141  -16.8602   20.9602 N   0  0  0  0  0  0  0  0  0  0  0  0
   10.1877  -15.9561   22.5739 C   0  0  0  0  0  0  0  0  0  0  0  0
   11.2089  -15.2593   22.8367 O   0  0  0  0  0  0  0  0  0  0  0  0
    9.5761  -16.7719   23.5606 N   0  0  0  0  0  0  0  0  0  0  0  0
   10.1113  -16.6982   24.9194 C   0  0  1  0  0  0  0  0  0  0  0  0
    9.8491  -15.3724   25.5249 C   0  0  0  0  0  0  0  0  0  0  0  0
    8.4198  -15.0686   25.6518 C   0  0  0  0  0  0  0  0  0  0  0  0
    7.3455  -15.9445   25.4387 C   0  0  0  0  0  0  0  0  0  0  0  0
    6.1955  -15.2874   25.6089 N   0  0  0  0  0  0  0  0  0  0  0  0
    6.4258  -14.0069   25.9286 C   0  0  0  0  0  0  0  0  0  0  0  0
    5.5527  -12.9543   26.2165 C   0  0  0  0  0  0  0  0  0  0  0  0
    6.1281  -11.7464   26.5381 C   0  0  0  0  0  0  0  0  0  0  0  0
    7.4921  -11.5671   26.5788 C   0  0  0  0  0  0  0  0  0  0  0  0
    8.3215  -12.6160   26.2910 C   0  0  0  0  0  0  0  0  0  0  0  0
    7.8057  -13.8587   25.9587 C   0  0  0  0  0  0  0  0  0  0  0  0
    9.5784  -17.8162   25.6877 C   0  0  0  0  0  0  0  0  0  0  0  0
    9.9570  -17.9802   26.9026 O   0  0  0  0  0  0  0  0  0  0  0  0
    8.6515  -18.7464   25.1850 O   0  0  0  0  0  0  0  0  0  0  0  0
  1  2  1  0
  3  2  1  0
  3  5  1  0
  3  4  1  1
  5  6  2  0
  8  7  1  0
  9 10  1  0
  9  8  1  0
 11 10  1  1
 12  5  1  0
 12 11  1  0
 13 11  1  0
 13 14  2  0
 15 13  1  0
 16 15  1  0
 16 27  1  0
 16 17  1  1
 18 17  1  0
 19 18  2  0
 20 21  1  0
 20 19  1  0
 21 26  2  0
 22 23  2  0
 22 21  1  0
 23 24  1  0
 24 25  2  0
 26 18  1  0
 26 25  1  0
 27 28  2  0
 27 29  1  0
M  END
$$$$
