SMW.pdb
     RDKit          3D

 29 30  0  0  1  0  0  0  0  0999 V2000
    8.1647  -19.8287   23.1389 O   0  0  0  0  0  0  0  0  0  0  0  0
    6.8033  -19.6226   23.2822 C   0  0  0  0  0  0  0  0  0  0  0  0
    6.3425  -18.6611   22.2241 C   0  0  2  0  0  0  0  0  0  0  0  0
    6.4874  -19.2885   20.9026 N   0  0  0  0  0  0  0  0  0  0  0  0
    7.1893  -17.4558   22.2509 C   0  0  0  0  0  0  0  0  0  0  0  0
    8.0496  -17.3097   21.3194 O   0  0  0  0  0  0  0  0  0  0  0  0
    6.7153  -11.8274   26.0053 C   0  0  0  0  0  0  0  0  0  0  0  0
    7.2284  -13.4493   26.6062 S   0  0  0  0  0  0  0  0  0  0  0  0
    7.0810  -14.6947   25.3164 C   0  0  0  0  0  0  0  0  0  0  0  0
    7.5109  -14.1392   23.9687 C   0  0  0  0  0  0  0  0  0  0  0  0
    8.0021  -15.2937   23.1015 C   0  0  2  0  0  0  0  0  0  0  0  0
    7.1286  -16.4373   23.2298 N   0  0  0  0  0  0  0  0  0  0  0  0
    9.3988  -15.6196   23.5040 C   0  0  0  0  0  0  0  0  0  0  0  0
   10.2533  -14.6918   23.4234 O   0  0  0  0  0  0  0  0  0  0  0  0
    9.7558  -16.9153   23.9587 N   0  0  0  0  0  0  0  0  0  0  0  0
   11.1554  -17.1393   24.3181 C   0  0  1  0  0  0  0  0  0  0  0  0
   11.6256  -16.1250   25.2893 C   0  0  0  0  0  0  0  0  0  0  0  0
   11.2567  -16.4376   26.6740 C   0  0  0  0  0  0  0  0  0  0  0  0
   11.2568  -17.6993   27.2865 C   0  0  0  0  0  0  0  0  0  0  0  0
   10.8166  -17.5842   28.5419 N   0  0  0  0  0  0  0  0  0  0  0  0
   10.5157  -16.3090   28.8222 C   0  0  0  0  0  0  0  0  0  0  0  0
   10.0458  -15.7054   29.9917 C   0  0  0  0  0  0  0  0  0  0  0  0
    9.8611  -14.3425   29.9508 C   0  0  0  0  0  0  0  0  0  0  0  0
   10.1211  -13.5967   28.8236 C   0  0  0  0  0  0  0  0  0  0  0  0
   10.5793  -14.2159   27.6933 C   0  0  0  0  0  0  0  0  0  0  0  0
   10.7857  -15.5861   27.6683 C   0  0  0  0  0  0  0  0  0  0  0  0
   11.3000  -18.5139   24.7804 C   0  0  0  0  0  0  0  0  0  0  0  0
   10.2499  -19.2269   24.9680 O   0  0  0  0  0  0  0  0  0  0  0  0
   12.5365  -19.1331   25.0351 O   0  0  0  0  0  0  0  0  0  0  0  0
  1  2  1  0
  3  2  1  0
  3  5  1  0
  3  4  1  6
  5  6  2  0
  8  7  1  0
  9 10  1  0
  9  8  1  0
 11 10  1  1
 12  5  1  0
 12 11  1  0
 13 11  1  0
 13 14  2  0
 15 13  1  0
 16 15  1  0
 16 27  1  0
 16 17  1  1
 18 17  1  0
 19 18  2  0
 20 21  1  0
 20 19  1  0
 21 26  2  0
 22 23  2  0
 22 21  1  0
 23 24  1  0
 24 25  2  0
 26 18  1  0
 26 25  1  0
 27 28  2  0
 27 29  1  0
M  END
$$$$
