SMW.pdb
     RDKit          3D

 29 30  0  0  1  0  0  0  0  0999 V2000
    5.6927  -19.0386   24.3704 O   0  0  0  0  0  0  0  0  0  0  0  0
    5.8593  -20.0914   23.4872 C   0  0  0  0  0  0  0  0  0  0  0  0
    5.6548  -19.5888   22.0865 C   0  0  2  0  0  0  0  0  0  0  0  0
    5.9441  -20.6720   21.1357 N   0  0  0  0  0  0  0  0  0  0  0  0
    6.5924  -18.4846   21.8174 C   0  0  0  0  0  0  0  0  0  0  0  0
    7.8165  -18.7787   21.6069 O   0  0  0  0  0  0  0  0  0  0  0  0
    8.7252  -11.5449   19.0457 C   0  0  0  0  0  0  0  0  0  0  0  0
    7.3408  -12.5763   19.5698 S   0  0  0  0  0  0  0  0  0  0  0  0
    7.9136  -14.0075   20.4972 C   0  0  0  0  0  0  0  0  0  0  0  0
    6.7455  -14.8642   20.9567 C   0  0  0  0  0  0  0  0  0  0  0  0
    7.2965  -16.1368   21.5916 C   0  0  2  0  0  0  0  0  0  0  0  0
    6.2477  -17.1141   21.7714 N   0  0  0  0  0  0  0  0  0  0  0  0
    7.9384  -15.7735   22.8858 C   0  0  0  0  0  0  0  0  0  0  0  0
    7.2353  -15.1330   23.7183 O   0  0  0  0  0  0  0  0  0  0  0  0
    9.2812  -16.1306   23.1730 N   0  0  0  0  0  0  0  0  0  0  0  0
    9.8600  -15.6236   24.4164 C   0  0  1  0  0  0  0  0  0  0  0  0
    9.1163  -16.1253   25.5946 C   0  0  0  0  0  0  0  0  0  0  0  0
    7.8697  -15.3939   25.8442 C   0  0  0  0  0  0  0  0  0  0  0  0
    6.5616  -15.8503   25.6264 C   0  0  0  0  0  0  0  0  0  0  0  0
    5.6956  -14.8808   25.9318 N   0  0  0  0  0  0  0  0  0  0  0  0
    6.3422  -13.7838   26.3487 C   0  0  0  0  0  0  0  0  0  0  0  0
    5.8709  -12.5436   26.7879 C   0  0  0  0  0  0  0  0  0  0  0  0
    6.8197  -11.6261   27.1769 C   0  0  0  0  0  0  0  0  0  0  0  0
    8.1681  -11.8997   27.1415 C   0  0  0  0  0  0  0  0  0  0  0  0
    8.5994  -13.1225   26.7057 C   0  0  0  0  0  0  0  0  0  0  0  0
    7.6951  -14.0908   26.2990 C   0  0  0  0  0  0  0  0  0  0  0  0
   11.2810  -15.9474   24.4310 C   0  0  0  0  0  0  0  0  0  0  0  0
   11.7868  -16.5978   23.4475 O   0  0  0  0  0  0  0  0  0  0  0  0
   12.1609  -15.5837   25.4657 O   0  0  0  0  0  0  0  0  0  0  0  0
  1  2  1  0
  3  2  1  0
  3  5  1  0
  3  4  1  6
  5  6  2  0
  8  7  1  0
  9 10  1  0
  9  8  1  0
 11 10  1  1
 12  5  1  0
 12 11  1  0
 13 11  1  0
 13 14  2  0
 15 13  1  0
 16 15  1  0
 16 27  1  0
 16 17  1  1
 18 17  1  0
 19 18  2  0
 20 21  1  0
 20 19  1  0
 21 26  2  0
 22 23  2  0
 22 21  1  0
 23 24  1  0
 24 25  2  0
 26 18  1  0
 26 25  1  0
 27 28  2  0
 27 29  1  0
M  END
$$$$
