SMW.pdb
     RDKit          3D

 29 30  0  0  1  0  0  0  0  0999 V2000
    8.0841  -19.4905   22.8828 O   0  0  0  0  0  0  0  0  0  0  0  0
    7.1219  -19.8339   21.9488 C   0  0  0  0  0  0  0  0  0  0  0  0
    7.3442  -19.0270   20.7015 C   0  0  2  0  0  0  0  0  0  0  0  0
    7.9495  -19.8835   19.6714 N   0  0  0  0  0  0  0  0  0  0  0  0
    8.2815  -17.9267   20.9869 C   0  0  0  0  0  0  0  0  0  0  0  0
    9.4919  -18.0590   20.6037 O   0  0  0  0  0  0  0  0  0  0  0  0
    6.9141  -12.4744   17.9875 C   0  0  0  0  0  0  0  0  0  0  0  0
    7.4288  -12.5718   19.7140 S   0  0  0  0  0  0  0  0  0  0  0  0
    8.1483  -14.1781   20.0861 C   0  0  0  0  0  0  0  0  0  0  0  0
    8.4130  -14.3266   21.5752 C   0  0  0  0  0  0  0  0  0  0  0  0
    8.9743  -15.7213   21.8322 C   0  0  2  0  0  0  0  0  0  0  0  0
    7.9507  -16.7252   21.6548 N   0  0  0  0  0  0  0  0  0  0  0  0
    9.5416  -15.7505   23.2093 C   0  0  0  0  0  0  0  0  0  0  0  0
   10.4680  -14.9308   23.4687 O   0  0  0  0  0  0  0  0  0  0  0  0
    9.0633  -16.6589   24.1887 N   0  0  0  0  0  0  0  0  0  0  0  0
    9.7299  -16.6561   25.4902 C   0  0  1  0  0  0  0  0  0  0  0  0
    8.7449  -16.5899   26.5939 C   0  0  0  0  0  0  0  0  0  0  0  0
    7.6705  -15.6215   26.3511 C   0  0  0  0  0  0  0  0  0  0  0  0
    6.3824  -15.8894   25.8654 C   0  0  0  0  0  0  0  0  0  0  0  0
    5.7081  -14.7438   25.7376 N   0  0  0  0  0  0  0  0  0  0  0  0
    6.4668  -13.7047   26.1115 C   0  0  0  0  0  0  0  0  0  0  0  0
    6.1949  -12.3352   26.1705 C   0  0  0  0  0  0  0  0  0  0  0  0
    7.2059  -11.5253   26.6345 C   0  0  0  0  0  0  0  0  0  0  0  0
    8.4286  -12.0225   27.0247 C   0  0  0  0  0  0  0  0  0  0  0  0
    8.6657  -13.3678   26.9548 C   0  0  0  0  0  0  0  0  0  0  0  0
    7.6896  -14.2379   26.4956 C   0  0  0  0  0  0  0  0  0  0  0  0
   10.6183  -17.8096   25.5573 C   0  0  0  0  0  0  0  0  0  0  0  0
   10.6494  -18.6360   24.5764 O   0  0  0  0  0  0  0  0  0  0  0  0
   11.4698  -18.0856   26.6417 O   0  0  0  0  0  0  0  0  0  0  0  0
  1  2  1  0
  3  2  1  0
  3  5  1  0
  3  4  1  6
  5  6  2  0
  8  7  1  0
  9 10  1  0
  9  8  1  0
 11 10  1  1
 12  5  1  0
 12 11  1  0
 13 11  1  0
 13 14  2  0
 15 13  1  0
 16 15  1  0
 16 27  1  0
 16 17  1  1
 18 17  1  0
 19 18  2  0
 20 21  1  0
 20 19  1  0
 21 26  2  0
 22 23  2  0
 22 21  1  0
 23 24  1  0
 24 25  2  0
 26 18  1  0
 26 25  1  0
 27 28  2  0
 27 29  1  0
M  END
$$$$
