SMW.pdb
     RDKit          3D

 29 30  0  0  1  0  0  0  0  0999 V2000
    8.2923  -20.0635   22.4267 O   0  0  0  0  0  0  0  0  0  0  0  0
    8.3671  -20.5087   21.1181 C   0  0  0  0  0  0  0  0  0  0  0  0
    8.0209  -19.3737   20.1972 C   0  0  2  0  0  0  0  0  0  0  0  0
    8.2777  -19.7808   18.8082 N   0  0  0  0  0  0  0  0  0  0  0  0
    8.8800  -18.2153   20.4981 C   0  0  0  0  0  0  0  0  0  0  0  0
   10.0475  -18.1879   19.9827 O   0  0  0  0  0  0  0  0  0  0  0  0
    6.9867  -12.5588   19.8311 C   0  0  0  0  0  0  0  0  0  0  0  0
    6.7007  -12.9869   21.5603 S   0  0  0  0  0  0  0  0  0  0  0  0
    7.5983  -14.4780   22.0156 C   0  0  0  0  0  0  0  0  0  0  0  0
    8.7881  -14.7017   21.0970 C   0  0  0  0  0  0  0  0  0  0  0  0
    9.4473  -16.0258   21.4692 C   0  0  2  0  0  0  0  0  0  0  0  0
    8.5172  -17.1207   21.3165 N   0  0  0  0  0  0  0  0  0  0  0  0
    9.9498  -15.9211   22.8676 C   0  0  0  0  0  0  0  0  0  0  0  0
   10.8582  -15.0713   23.0916 O   0  0  0  0  0  0  0  0  0  0  0  0
    9.4319  -16.7396   23.9044 N   0  0  0  0  0  0  0  0  0  0  0  0
   10.0340  -16.6056   25.2303 C   0  0  1  0  0  0  0  0  0  0  0  0
    9.0045  -16.6707   26.2927 C   0  0  0  0  0  0  0  0  0  0  0  0
    7.8979  -15.7313   26.0821 C   0  0  0  0  0  0  0  0  0  0  0  0
    6.6113  -16.0300   25.6107 C   0  0  0  0  0  0  0  0  0  0  0  0
    5.9010  -14.9035   25.5123 N   0  0  0  0  0  0  0  0  0  0  0  0
    6.6337  -13.8482   25.8928 C   0  0  0  0  0  0  0  0  0  0  0  0
    6.3217  -12.4887   25.9790 C   0  0  0  0  0  0  0  0  0  0  0  0
    7.3148  -11.6564   26.4420 C   0  0  0  0  0  0  0  0  0  0  0  0
    8.5575  -12.1227   26.8059 C   0  0  0  0  0  0  0  0  0  0  0  0
    8.8339  -13.4589   26.7095 C   0  0  0  0  0  0  0  0  0  0  0  0
    7.8776  -14.3504   26.2499 C   0  0  0  0  0  0  0  0  0  0  0  0
   11.0866  -17.6049   25.3634 C   0  0  0  0  0  0  0  0  0  0  0  0
   11.2154  -18.5054   24.4585 O   0  0  0  0  0  0  0  0  0  0  0  0
   11.9979  -17.6509   26.4332 O   0  0  0  0  0  0  0  0  0  0  0  0
  1  2  1  0
  3  2  1  0
  3  5  1  0
  3  4  1  6
  5  6  2  0
  8  7  1  0
  9 10  1  0
  9  8  1  0
 11 10  1  1
 12  5  1  0
 12 11  1  0
 13 11  1  0
 13 14  2  0
 15 13  1  0
 16 15  1  0
 16 27  1  0
 16 17  1  1
 18 17  1  0
 19 18  2  0
 20 21  1  0
 20 19  1  0
 21 26  2  0
 22 23  2  0
 22 21  1  0
 23 24  1  0
 24 25  2  0
 26 18  1  0
 26 25  1  0
 27 28  2  0
 27 29  1  0
M  END
$$$$
