SMW.pdb
     RDKit          3D

 29 30  0  0  1  0  0  0  0  0999 V2000
    8.0296  -20.5860   22.8741 O   0  0  0  0  0  0  0  0  0  0  0  0
    6.8920  -19.9870   22.3609 C   0  0  0  0  0  0  0  0  0  0  0  0
    7.2142  -19.4035   21.0149 C   0  0  2  0  0  0  0  0  0  0  0  0
    7.5813  -20.4871   20.0919 N   0  0  0  0  0  0  0  0  0  0  0  0
    8.3693  -18.4968   21.1344 C   0  0  0  0  0  0  0  0  0  0  0  0
    9.5363  -18.9950   20.9954 O   0  0  0  0  0  0  0  0  0  0  0  0
    6.4404  -12.1825   19.9958 C   0  0  0  0  0  0  0  0  0  0  0  0
    8.0304  -13.0125   19.8003 S   0  0  0  0  0  0  0  0  0  0  0  0
    8.1650  -14.4240   20.9074 C   0  0  0  0  0  0  0  0  0  0  0  0
    9.5267  -15.0875   20.7840 C   0  0  0  0  0  0  0  0  0  0  0  0
    9.5180  -16.3716   21.6069 C   0  0  2  0  0  0  0  0  0  0  0  0
    8.2940  -17.1085   21.3918 N   0  0  0  0  0  0  0  0  0  0  0  0
    9.6981  -16.0095   23.0405 C   0  0  0  0  0  0  0  0  0  0  0  0
    9.6590  -14.7807   23.3340 O   0  0  0  0  0  0  0  0  0  0  0  0
    9.9050  -17.0003   24.0348 N   0  0  0  0  0  0  0  0  0  0  0  0
   10.2058  -16.5400   25.3897 C   0  0  1  0  0  0  0  0  0  0  0  0
    9.0542  -16.7572   26.2950 C   0  0  0  0  0  0  0  0  0  0  0  0
    7.9148  -15.8824   25.9991 C   0  0  0  0  0  0  0  0  0  0  0  0
    6.6538  -16.2665   25.5202 C   0  0  0  0  0  0  0  0  0  0  0  0
    5.8996  -15.1805   25.3327 N   0  0  0  0  0  0  0  0  0  0  0  0
    6.5777  -14.0721   25.6592 C   0  0  0  0  0  0  0  0  0  0  0  0
    6.2070  -12.7247   25.6494 C   0  0  0  0  0  0  0  0  0  0  0  0
    7.1525  -11.8219   26.0785 C   0  0  0  0  0  0  0  0  0  0  0  0
    8.4044  -12.2093   26.4993 C   0  0  0  0  0  0  0  0  0  0  0  0
    8.7389  -13.5356   26.4967 C   0  0  0  0  0  0  0  0  0  0  0  0
    7.8324  -14.4957   26.0756 C   0  0  0  0  0  0  0  0  0  0  0  0
   11.4372  -17.1811   25.8333 C   0  0  0  0  0  0  0  0  0  0  0  0
   12.0138  -18.0322   25.0656 O   0  0  0  0  0  0  0  0  0  0  0  0
   12.0585  -16.9234   27.0681 O   0  0  0  0  0  0  0  0  0  0  0  0
  1  2  1  0
  3  2  1  0
  3  5  1  0
  3  4  1  6
  5  6  2  0
  8  7  1  0
  9 10  1  0
  9  8  1  0
 11 10  1  6
 12  5  1  0
 12 11  1  0
 13 11  1  0
 13 14  2  0
 15 13  1  0
 16 15  1  0
 16 27  1  0
 16 17  1  1
 18 17  1  0
 19 18  2  0
 20 21  1  0
 20 19  1  0
 21 26  2  0
 22 23  2  0
 22 21  1  0
 23 24  1  0
 24 25  2  0
 26 18  1  0
 26 25  1  0
 27 28  2  0
 27 29  1  0
M  END
$$$$
