SYV.pdb
     RDKit          3D

 26 26  0  0  1  0  0  0  0  0999 V2000
    8.1623  -15.2553   18.1296 O   0  0  0  0  0  0  0  0  0  0  0  0
    7.6015  -15.2565   19.4004 C   0  0  0  0  0  0  0  0  0  0  0  0
    7.7193  -16.6504   19.9776 C   0  0  2  0  0  0  0  0  0  0  0  0
    6.9534  -17.6222   19.2291 N   0  0  0  0  0  0  0  0  0  0  0  0
    7.3238  -16.6669   21.4221 C   0  0  0  0  0  0  0  0  0  0  0  0
    6.1170  -16.8011   21.7602 O   0  0  0  0  0  0  0  0  0  0  0  0
    8.6188  -18.9362   29.9146 O   0  0  0  0  0  0  0  0  0  0  0  0
    8.5531  -18.7023   28.5331 C   0  0  0  0  0  0  0  0  0  0  0  0
    9.6958  -18.2989   27.8741 C   0  0  0  0  0  0  0  0  0  0  0  0
    9.6627  -18.0612   26.5164 C   0  0  0  0  0  0  0  0  0  0  0  0
    8.5015  -18.2134   25.7631 C   0  0  0  0  0  0  0  0  0  0  0  0
    8.4886  -17.9258   24.3405 C   0  0  0  0  0  0  0  0  0  0  0  0
    7.8789  -16.6575   23.8761 C   0  0  2  0  0  0  0  0  0  0  0  0
    8.2674  -16.5351   22.4560 N   0  0  0  0  0  0  0  0  0  0  0  0
    8.3261  -15.4538   24.5761 C   0  0  0  0  0  0  0  0  0  0  0  0
    9.4935  -15.0036   24.2922 O   0  0  0  0  0  0  0  0  0  0  0  0
    7.3824  -18.6163   26.4513 C   0  0  0  0  0  0  0  0  0  0  0  0
    7.4082  -18.8569   27.8152 C   0  0  0  0  0  0  0  0  0  0  0  0
    5.9752  -12.6602   26.8801 C   0  0  0  0  0  0  0  0  0  0  0  0
    7.2983  -12.4069   26.2493 C   0  0  2  0  0  0  0  0  0  0  0  0
    7.0767  -11.8906   24.8522 C   0  0  0  0  0  0  0  0  0  0  0  0
    8.1923  -13.6320   26.2143 C   0  0  2  0  0  0  0  0  0  0  0  0
    7.5621  -14.7376   25.5449 N   0  0  0  0  0  0  0  0  0  0  0  0
    8.5607  -14.0073   27.5909 C   0  0  0  0  0  0  0  0  0  0  0  0
    8.2582  -15.1190   28.0518 O   0  0  0  0  0  0  0  0  0  0  0  0
    9.2687  -13.1108   28.4231 O   0  0  0  0  0  0  0  0  0  0  0  0
  2  1  1  0
  3  2  1  0
  3  4  1  6
  5  3  1  0
  6  5  2  0
  7  8  1  0
  8  9  2  0
  9 10  1  0
 11 10  2  0
 11 12  1  0
 13 12  1  1
 13 14  1  0
 14  5  1  0
 15 13  1  0
 15 16  2  0
 17 11  1  0
 18 17  2  0
 18  8  1  0
 20 19  1  6
 20 21  1  0
 22 20  1  0
 22 23  1  1
 23 15  1  0
 24 22  1  0
 25 24  2  0
 26 24  1  0
M  END
$$$$
