SYV.pdb
     RDKit          3D

 26 26  0  0  1  0  0  0  0  0999 V2000
    9.0522  -16.3949   18.5232 O   0  0  0  0  0  0  0  0  0  0  0  0
    8.7061  -16.0502   19.8235 C   0  0  0  0  0  0  0  0  0  0  0  0
    8.5347  -17.3197   20.6290 C   0  0  2  0  0  0  0  0  0  0  0  0
    7.4811  -18.1629   20.1092 N   0  0  0  0  0  0  0  0  0  0  0  0
    8.2958  -17.0085   22.0745 C   0  0  0  0  0  0  0  0  0  0  0  0
    7.1295  -17.0128   22.5523 O   0  0  0  0  0  0  0  0  0  0  0  0
   10.7912  -16.1347   30.6545 O   0  0  0  0  0  0  0  0  0  0  0  0
   10.6690  -16.3869   29.2801 C   0  0  0  0  0  0  0  0  0  0  0  0
   11.0356  -15.3992   28.3898 C   0  0  0  0  0  0  0  0  0  0  0  0
   10.9269  -15.6174   27.0327 C   0  0  0  0  0  0  0  0  0  0  0  0
   10.4530  -16.8172   26.5083 C   0  0  0  0  0  0  0  0  0  0  0  0
   10.3199  -17.0075   25.0756 C   0  0  0  0  0  0  0  0  0  0  0  0
    9.1089  -16.4875   24.3978 C   0  0  2  0  0  0  0  0  0  0  0  0
    9.3474  -16.7007   22.9555 N   0  0  0  0  0  0  0  0  0  0  0  0
    8.8338  -15.0667   24.6089 C   0  0  0  0  0  0  0  0  0  0  0  0
    9.5760  -14.2222   23.9910 O   0  0  0  0  0  0  0  0  0  0  0  0
   10.0971  -17.7786   27.4233 C   0  0  0  0  0  0  0  0  0  0  0  0
   10.2035  -17.5665   28.7879 C   0  0  0  0  0  0  0  0  0  0  0  0
    5.9962  -11.2434   25.7726 C   0  0  0  0  0  0  0  0  0  0  0  0
    6.1939  -12.7159   25.6991 C   0  0  2  0  0  0  0  0  0  0  0  0
    5.6440  -13.3405   26.9542 C   0  0  0  0  0  0  0  0  0  0  0  0
    7.6441  -13.1194   25.5108 C   0  0  2  0  0  0  0  0  0  0  0  0
    7.7996  -14.5473   25.4432 N   0  0  0  0  0  0  0  0  0  0  0  0
    8.4520  -12.5661   26.6119 C   0  0  0  0  0  0  0  0  0  0  0  0
    8.9566  -13.3086   27.4686 O   0  0  0  0  0  0  0  0  0  0  0  0
    8.6737  -11.1745   26.7218 O   0  0  0  0  0  0  0  0  0  0  0  0
  2  1  1  0
  3  2  1  0
  3  4  1  6
  5  3  1  0
  6  5  2  0
  7  8  1  0
  8  9  2  0
  9 10  1  0
 11 10  2  0
 11 12  1  0
 13 12  1  1
 13 14  1  0
 14  5  1  0
 15 13  1  0
 15 16  2  0
 17 11  1  0
 18 17  2  0
 18  8  1  0
 20 19  1  1
 20 21  1  0
 22 20  1  0
 22 23  1  1
 23 15  1  0
 24 22  1  0
 25 24  2  0
 26 24  1  0
M  END
$$$$
