SYV.pdb
     RDKit          3D

 26 26  0  0  1  0  0  0  0  0999 V2000
   10.9728  -18.3638   18.5088 O   0  0  0  0  0  0  0  0  0  0  0  0
   10.9216  -17.2258   19.3036 C   0  0  0  0  0  0  0  0  0  0  0  0
   10.9801  -17.6491   20.7553 C   0  0  2  0  0  0  0  0  0  0  0  0
   10.1389  -18.7932   21.0288 N   0  0  0  0  0  0  0  0  0  0  0  0
   10.6289  -16.5084   21.6601 C   0  0  0  0  0  0  0  0  0  0  0  0
   11.2570  -15.4174   21.5983 O   0  0  0  0  0  0  0  0  0  0  0  0
    5.5986  -11.4723   27.0418 O   0  0  0  0  0  0  0  0  0  0  0  0
    6.1685  -12.4478   26.2104 C   0  0  0  0  0  0  0  0  0  0  0  0
    5.9857  -13.7778   26.5274 C   0  0  0  0  0  0  0  0  0  0  0  0
    6.5336  -14.7596   25.7294 C   0  0  0  0  0  0  0  0  0  0  0  0
    7.2801  -14.4627   24.5921 C   0  0  0  0  0  0  0  0  0  0  0  0
    7.8714  -15.5166   23.7881 C   0  0  0  0  0  0  0  0  0  0  0  0
    9.3382  -15.5130   23.5768 C   0  0  2  0  0  0  0  0  0  0  0  0
    9.5954  -16.5992   22.6091 N   0  0  0  0  0  0  0  0  0  0  0  0
   10.1441  -15.7662   24.7707 C   0  0  0  0  0  0  0  0  0  0  0  0
   11.3840  -16.0471   24.5988 O   0  0  0  0  0  0  0  0  0  0  0  0
    7.4422  -13.1285   24.3062 C   0  0  0  0  0  0  0  0  0  0  0  0
    6.8948  -12.1366   25.1032 C   0  0  0  0  0  0  0  0  0  0  0  0
    9.3433  -14.5741   28.8553 C   0  0  0  0  0  0  0  0  0  0  0  0
   10.6389  -14.8001   28.1603 C   0  0  2  0  0  0  0  0  0  0  0  0
   11.0361  -13.5310   27.4538 C   0  0  0  0  0  0  0  0  0  0  0  0
   10.5995  -15.9526   27.1745 C   0  0  2  0  0  0  0  0  0  0  0  0
    9.6598  -15.7181   26.1118 N   0  0  0  0  0  0  0  0  0  0  0  0
   10.2657  -17.1965   27.8905 C   0  0  0  0  0  0  0  0  0  0  0  0
   11.0243  -17.6564   28.7581 O   0  0  0  0  0  0  0  0  0  0  0  0
    9.0724  -17.8991   27.6080 O   0  0  0  0  0  0  0  0  0  0  0  0
  2  1  1  0
  3  2  1  0
  3  4  1  6
  5  3  1  0
  6  5  2  0
  7  8  1  0
  8  9  2  0
  9 10  1  0
 11 10  2  0
 11 12  1  0
 13 12  1  1
 13 14  1  0
 14  5  1  0
 15 13  1  0
 15 16  2  0
 17 11  1  0
 18 17  2  0
 18  8  1  0
 20 19  1  6
 20 21  1  0
 22 20  1  0
 22 23  1  6
 23 15  1  0
 24 22  1  0
 25 24  2  0
 26 24  1  0
M  END
$$$$
