SYV.pdb
     RDKit          3D

 26 26  0  0  1  0  0  0  0  0999 V2000
    8.8427  -15.4366   13.1486 O   0  0  0  0  0  0  0  0  0  0  0  0
    8.5024  -15.5364   14.4916 C   0  0  0  0  0  0  0  0  0  0  0  0
    8.1377  -16.9743   14.7905 C   0  0  2  0  0  0  0  0  0  0  0  0
    6.9073  -17.3753   14.1450 N   0  0  0  0  0  0  0  0  0  0  0  0
    8.0594  -17.2108   16.2674 C   0  0  0  0  0  0  0  0  0  0  0  0
    6.9707  -17.0724   16.8873 O   0  0  0  0  0  0  0  0  0  0  0  0
   10.9413  -20.6716   24.0577 O   0  0  0  0  0  0  0  0  0  0  0  0
   10.7347  -20.2315   22.7419 C   0  0  0  0  0  0  0  0  0  0  0  0
    9.5968  -20.6394   22.0775 C   0  0  0  0  0  0  0  0  0  0  0  0
    9.3659  -20.2234   20.7834 C   0  0  0  0  0  0  0  0  0  0  0  0
   10.2496  -19.3911   20.1012 C   0  0  0  0  0  0  0  0  0  0  0  0
    9.9961  -18.9944   18.7283 C   0  0  0  0  0  0  0  0  0  0  0  0
    9.0837  -17.8548   18.4734 C   0  0  2  0  0  0  0  0  0  0  0  0
    9.1818  -17.5936   17.0227 N   0  0  0  0  0  0  0  0  0  0  0  0
    9.4121  -16.6183   19.1821 C   0  0  0  0  0  0  0  0  0  0  0  0
   10.4824  -16.0029   18.8334 O   0  0  0  0  0  0  0  0  0  0  0  0
   11.3722  -19.0041   20.7928 C   0  0  0  0  0  0  0  0  0  0  0  0
   11.6108  -19.4181   22.0929 C   0  0  0  0  0  0  0  0  0  0  0  0
    6.8170  -14.2137   21.6972 C   0  0  0  0  0  0  0  0  0  0  0  0
    7.9777  -13.7714   20.8787 C   0  0  2  0  0  0  0  0  0  0  0  0
    7.4915  -13.4322   19.4944 C   0  0  0  0  0  0  0  0  0  0  0  0
    9.0869  -14.8034   20.8011 C   0  0  2  0  0  0  0  0  0  0  0  0
    8.6306  -16.0398   20.2262 N   0  0  0  0  0  0  0  0  0  0  0  0
    9.6340  -15.0347   22.1496 C   0  0  0  0  0  0  0  0  0  0  0  0
   10.2499  -14.1404   22.7503 O   0  0  0  0  0  0  0  0  0  0  0  0
    9.4718  -16.2815   22.7951 O   0  0  0  0  0  0  0  0  0  0  0  0
  2  1  1  0
  3  2  1  0
  3  4  1  6
  5  3  1  0
  6  5  2  0
  7  8  1  0
  8  9  2  0
  9 10  1  0
 11 10  2  0
 11 12  1  0
 13 12  1  1
 13 14  1  0
 14  5  1  0
 15 13  1  0
 15 16  2  0
 17 11  1  0
 18 17  2  0
 18  8  1  0
 20 19  1  1
 20 21  1  0
 22 20  1  0
 22 23  1  1
 23 15  1  0
 24 22  1  0
 25 24  2  0
 26 24  1  0
M  END
$$$$
