SYV.pdb
     RDKit          3D

 26 26  0  0  1  0  0  0  0  0999 V2000
    7.4799  -20.2306   21.9111 O   0  0  0  0  0  0  0  0  0  0  0  0
    7.0010  -20.8614   23.0523 C   0  0  0  0  0  0  0  0  0  0  0  0
    5.6719  -20.2407   23.4239 C   0  0  2  0  0  0  0  0  0  0  0  0
    4.6092  -20.6386   22.5273 N   0  0  0  0  0  0  0  0  0  0  0  0
    5.7770  -18.7480   23.4869 C   0  0  0  0  0  0  0  0  0  0  0  0
    5.1888  -18.0224   22.6407 O   0  0  0  0  0  0  0  0  0  0  0  0
    7.0316  -10.8859   27.6239 O   0  0  0  0  0  0  0  0  0  0  0  0
    7.0359  -12.2223   27.1974 C   0  0  0  0  0  0  0  0  0  0  0  0
    5.8414  -12.9113   27.1642 C   0  0  0  0  0  0  0  0  0  0  0  0
    5.8135  -14.2259   26.7497 C   0  0  0  0  0  0  0  0  0  0  0  0
    6.9629  -14.9052   26.3540 C   0  0  0  0  0  0  0  0  0  0  0  0
    6.9083  -16.2987   25.9521 C   0  0  0  0  0  0  0  0  0  0  0  0
    6.6158  -16.6201   24.5353 C   0  0  2  0  0  0  0  0  0  0  0  0
    6.5270  -18.0938   24.4801 N   0  0  0  0  0  0  0  0  0  0  0  0
    7.6286  -16.1883   23.5726 C   0  0  0  0  0  0  0  0  0  0  0  0
    8.5556  -17.0236   23.2746 O   0  0  0  0  0  0  0  0  0  0  0  0
    8.1347  -14.1889   26.3995 C   0  0  0  0  0  0  0  0  0  0  0  0
    8.1703  -12.8680   26.8148 C   0  0  0  0  0  0  0  0  0  0  0  0
    6.6965  -13.3886   20.6206 C   0  0  0  0  0  0  0  0  0  0  0  0
    8.1334  -13.5040   20.9874 C   0  0  2  0  0  0  0  0  0  0  0  0
    8.9605  -13.4264   19.7314 C   0  0  0  0  0  0  0  0  0  0  0  0
    8.4601  -14.7763   21.7463 C   0  0  2  0  0  0  0  0  0  0  0  0
    7.6614  -14.9129   22.9341 N   0  0  0  0  0  0  0  0  0  0  0  0
    9.8937  -14.7874   22.0870 C   0  0  0  0  0  0  0  0  0  0  0  0
   10.7606  -14.7525   21.1999 O   0  0  0  0  0  0  0  0  0  0  0  0
   10.3196  -14.8380   23.4337 O   0  0  0  0  0  0  0  0  0  0  0  0
  2  1  1  0
  3  2  1  0
  3  4  1  6
  5  3  1  0
  6  5  2  0
  7  8  1  0
  8  9  2  0
  9 10  1  0
 11 10  2  0
 11 12  1  0
 13 12  1  1
 13 14  1  0
 14  5  1  0
 15 13  1  0
 15 16  2  0
 17 11  1  0
 18 17  2  0
 18  8  1  0
 20 19  1  6
 20 21  1  0
 22 20  1  0
 22 23  1  1
 23 15  1  0
 24 22  1  0
 25 24  2  0
 26 24  1  0
M  END
$$$$
