SYV.pdb
     RDKit          3D

 26 26  0  0  1  0  0  0  0  0999 V2000
    8.9822  -19.1303   19.7866 O   0  0  0  0  0  0  0  0  0  0  0  0
    8.0195  -18.3186   19.2002 C   0  0  0  0  0  0  0  0  0  0  0  0
    8.6034  -16.9346   19.0167 C   0  0  2  0  0  0  0  0  0  0  0  0
    9.7554  -16.9351   18.1425 N   0  0  0  0  0  0  0  0  0  0  0  0
    8.9449  -16.3180   20.3382 C   0  0  0  0  0  0  0  0  0  0  0  0
   10.1453  -16.1898   20.7006 O   0  0  0  0  0  0  0  0  0  0  0  0
    6.9950  -11.9759   27.9842 O   0  0  0  0  0  0  0  0  0  0  0  0
    7.0213  -12.5560   26.7073 C   0  0  0  0  0  0  0  0  0  0  0  0
    6.5093  -13.8266   26.5459 C   0  0  0  0  0  0  0  0  0  0  0  0
    6.5211  -14.4234   25.3031 C   0  0  0  0  0  0  0  0  0  0  0  0
    7.0382  -13.7870   24.1776 C   0  0  0  0  0  0  0  0  0  0  0  0
    7.0660  -14.4518   22.8878 C   0  0  0  0  0  0  0  0  0  0  0  0
    8.3067  -15.1474   22.4720 C   0  0  2  0  0  0  0  0  0  0  0  0
    7.9558  -15.8591   21.2258 N   0  0  0  0  0  0  0  0  0  0  0  0
    8.8256  -16.1274   23.4255 C   0  0  0  0  0  0  0  0  0  0  0  0
    8.2153  -17.2528   23.5084 O   0  0  0  0  0  0  0  0  0  0  0  0
    7.5397  -12.5228   24.3746 C   0  0  0  0  0  0  0  0  0  0  0  0
    7.5312  -11.9170   25.6201 C   0  0  0  0  0  0  0  0  0  0  0  0
   12.2187  -17.7551   23.4792 C   0  0  0  0  0  0  0  0  0  0  0  0
   11.8833  -17.3272   24.8638 C   0  0  2  0  0  0  0  0  0  0  0  0
   12.3360  -18.3961   25.8230 C   0  0  0  0  0  0  0  0  0  0  0  0
   10.4070  -17.0413   25.0640 C   0  0  2  0  0  0  0  0  0  0  0  0
    9.9619  -15.9314   24.2656 N   0  0  0  0  0  0  0  0  0  0  0  0
   10.1486  -16.7836   26.4917 C   0  0  0  0  0  0  0  0  0  0  0  0
    9.8390  -15.6496   26.8894 O   0  0  0  0  0  0  0  0  0  0  0  0
   10.2466  -17.8212   27.4463 O   0  0  0  0  0  0  0  0  0  0  0  0
  2  1  1  0
  3  2  1  0
  3  4  1  6
  5  3  1  0
  6  5  2  0
  7  8  1  0
  8  9  2  0
  9 10  1  0
 11 10  2  0
 11 12  1  0
 13 12  1  1
 13 14  1  0
 14  5  1  0
 15 13  1  0
 15 16  2  0
 17 11  1  0
 18 17  2  0
 18  8  1  0
 20 19  1  6
 20 21  1  0
 22 20  1  0
 22 23  1  6
 23 15  1  0
 24 22  1  0
 25 24  2  0
 26 24  1  0
M  END
$$$$
