SYV.pdb
     RDKit          3D

 26 26  0  0  1  0  0  0  0  0999 V2000
   12.2247  -19.0404   22.8643 O   0  0  0  0  0  0  0  0  0  0  0  0
   10.9827  -19.4075   22.3621 C   0  0  0  0  0  0  0  0  0  0  0  0
   10.5122  -18.3318   21.4073 C   0  0  2  0  0  0  0  0  0  0  0  0
   11.4087  -18.1617   20.2854 N   0  0  0  0  0  0  0  0  0  0  0  0
   10.3109  -17.0316   22.1229 C   0  0  0  0  0  0  0  0  0  0  0  0
   11.1189  -16.0767   21.9678 O   0  0  0  0  0  0  0  0  0  0  0  0
    5.6685  -10.8956   26.7729 O   0  0  0  0  0  0  0  0  0  0  0  0
    6.1361  -12.0369   26.1046 C   0  0  0  0  0  0  0  0  0  0  0  0
    6.9287  -11.8728   24.9877 C   0  0  0  0  0  0  0  0  0  0  0  0
    7.4034  -12.9754   24.3096 C   0  0  0  0  0  0  0  0  0  0  0  0
    7.1124  -14.2769   24.7104 C   0  0  0  0  0  0  0  0  0  0  0  0
    7.6002  -15.4187   23.9588 C   0  0  0  0  0  0  0  0  0  0  0  0
    9.0570  -15.5411   23.7155 C   0  0  2  0  0  0  0  0  0  0  0  0
    9.2253  -16.8171   22.9902 N   0  0  0  0  0  0  0  0  0  0  0  0
    9.8913  -15.5860   24.9159 C   0  0  0  0  0  0  0  0  0  0  0  0
   10.8898  -14.7825   24.9727 O   0  0  0  0  0  0  0  0  0  0  0  0
    6.3207  -14.4033   25.8264 C   0  0  0  0  0  0  0  0  0  0  0  0
    5.8401  -13.3003   26.5126 C   0  0  0  0  0  0  0  0  0  0  0  0
    9.0801  -14.9071   28.5772 C   0  0  0  0  0  0  0  0  0  0  0  0
   10.3936  -15.0228   27.8885 C   0  0  2  0  0  0  0  0  0  0  0  0
   10.5406  -13.8697   26.9313 C   0  0  0  0  0  0  0  0  0  0  0  0
   10.5722  -16.3362   27.1506 C   0  0  2  0  0  0  0  0  0  0  0  0
    9.6767  -16.4492   26.0313 N   0  0  0  0  0  0  0  0  0  0  0  0
   10.3670  -17.4547   28.0878 C   0  0  0  0  0  0  0  0  0  0  0  0
    9.4085  -18.2314   27.9540 O   0  0  0  0  0  0  0  0  0  0  0  0
   11.2565  -17.6728   29.1642 O   0  0  0  0  0  0  0  0  0  0  0  0
  2  1  1  0
  3  2  1  0
  3  4  1  6
  5  3  1  0
  6  5  2  0
  7  8  1  0
  8  9  2  0
  9 10  1  0
 11 10  2  0
 11 12  1  0
 13 12  1  1
 13 14  1  0
 14  5  1  0
 15 13  1  0
 15 16  2  0
 17 11  1  0
 18 17  2  0
 18  8  1  0
 20 19  1  6
 20 21  1  0
 22 20  1  0
 22 23  1  6
 23 15  1  0
 24 22  1  0
 25 24  2  0
 26 24  1  0
M  END
$$$$
