SYV.pdb
     RDKit          3D

 26 26  0  0  1  0  0  0  0  0999 V2000
    8.6373  -15.6901   21.2323 O   0  0  0  0  0  0  0  0  0  0  0  0
    9.8270  -14.9748   21.1818 C   0  0  0  0  0  0  0  0  0  0  0  0
   10.9669  -15.9116   21.5177 C   0  0  2  0  0  0  0  0  0  0  0  0
   11.0779  -17.0029   20.5754 N   0  0  0  0  0  0  0  0  0  0  0  0
   10.8368  -16.4335   22.9155 C   0  0  0  0  0  0  0  0  0  0  0  0
   10.4527  -17.6144   23.1314 O   0  0  0  0  0  0  0  0  0  0  0  0
   11.2430  -16.0964   31.8887 O   0  0  0  0  0  0  0  0  0  0  0  0
   11.2703  -15.8191   30.5140 C   0  0  0  0  0  0  0  0  0  0  0  0
   11.5881  -16.8367   29.6387 C   0  0  0  0  0  0  0  0  0  0  0  0
   11.6231  -16.5950   28.2818 C   0  0  0  0  0  0  0  0  0  0  0  0
   11.3458  -15.3414   27.7425 C   0  0  0  0  0  0  0  0  0  0  0  0
   11.4209  -15.1084   26.3119 C   0  0  0  0  0  0  0  0  0  0  0  0
   10.7302  -16.0504   25.4000 C   0  0  2  0  0  0  0  0  0  0  0  0
   11.1331  -15.6413   24.0387 N   0  0  0  0  0  0  0  0  0  0  0  0
    9.2694  -16.0311   25.4678 C   0  0  0  0  0  0  0  0  0  0  0  0
    8.6897  -17.0309   26.0248 O   0  0  0  0  0  0  0  0  0  0  0  0
   11.0332  -14.3515   28.6428 C   0  0  0  0  0  0  0  0  0  0  0  0
   10.9961  -14.5869   30.0072 C   0  0  0  0  0  0  0  0  0  0  0  0
    6.5307  -12.9980   23.8961 C   0  0  0  0  0  0  0  0  0  0  0  0
    6.3951  -13.6590   25.2218 C   0  0  2  0  0  0  0  0  0  0  0  0
    7.0004  -12.7651   26.2716 C   0  0  0  0  0  0  0  0  0  0  0  0
    7.0360  -15.0328   25.2773 C   0  0  2  0  0  0  0  0  0  0  0  0
    8.4396  -14.9833   24.9688 N   0  0  0  0  0  0  0  0  0  0  0  0
    6.3369  -15.9359   24.3462 C   0  0  0  0  0  0  0  0  0  0  0  0
    6.9216  -16.4151   23.3622 O   0  0  0  0  0  0  0  0  0  0  0  0
    4.9813  -16.2806   24.5492 O   0  0  0  0  0  0  0  0  0  0  0  0
  2  1  1  0
  3  2  1  0
  3  4  1  6
  5  3  1  0
  6  5  2  0
  7  8  1  0
  8  9  2  0
  9 10  1  0
 11 10  2  0
 11 12  1  0
 13 12  1  1
 13 14  1  0
 14  5  1  0
 15 13  1  0
 15 16  2  0
 17 11  1  0
 18 17  2  0
 18  8  1  0
 20 19  1  6
 20 21  1  0
 22 20  1  0
 22 23  1  6
 23 15  1  0
 24 22  1  0
 25 24  2  0
 26 24  1  0
M  END
$$$$
