SYV.pdb
     RDKit          3D

 26 26  0  0  1  0  0  0  0  0999 V2000
   10.2872  -16.2218   18.9602 O   0  0  0  0  0  0  0  0  0  0  0  0
    9.6393  -15.9647   20.1617 C   0  0  0  0  0  0  0  0  0  0  0  0
    9.7040  -17.2095   21.0198 C   0  0  2  0  0  0  0  0  0  0  0  0
    8.9336  -18.3004   20.4653 N   0  0  0  0  0  0  0  0  0  0  0  0
    9.2682  -16.9161   22.4224 C   0  0  0  0  0  0  0  0  0  0  0  0
    8.0656  -17.0637   22.7697 O   0  0  0  0  0  0  0  0  0  0  0  0
   10.6427  -15.3175   31.1935 O   0  0  0  0  0  0  0  0  0  0  0  0
   10.7002  -15.5472   29.8109 C   0  0  0  0  0  0  0  0  0  0  0  0
   10.7756  -16.8477   29.3576 C   0  0  0  0  0  0  0  0  0  0  0  0
   10.8334  -17.1053   28.0043 C   0  0  0  0  0  0  0  0  0  0  0  0
   10.8188  -16.0887   27.0527 C   0  0  0  0  0  0  0  0  0  0  0  0
   10.9123  -16.3881   25.6357 C   0  0  0  0  0  0  0  0  0  0  0  0
    9.7217  -16.1675   24.7813 C   0  0  2  0  0  0  0  0  0  0  0  0
   10.1680  -16.4679   23.4054 N   0  0  0  0  0  0  0  0  0  0  0  0
    9.1810  -14.8087   24.7984 C   0  0  0  0  0  0  0  0  0  0  0  0
    9.3683  -14.0843   23.7563 O   0  0  0  0  0  0  0  0  0  0  0  0
   10.7430  -14.8059   27.5393 C   0  0  0  0  0  0  0  0  0  0  0  0
   10.6847  -14.5395   28.8973 C   0  0  0  0  0  0  0  0  0  0  0  0
    5.7007  -13.6863   24.8022 C   0  0  0  0  0  0  0  0  0  0  0  0
    6.9141  -12.8614   24.5577 C   0  0  2  0  0  0  0  0  0  0  0  0
    7.5649  -13.3254   23.2815 C   0  0  0  0  0  0  0  0  0  0  0  0
    7.9139  -12.9097   25.6977 C   0  0  2  0  0  0  0  0  0  0  0  0
    8.4553  -14.2290   25.8813 N   0  0  0  0  0  0  0  0  0  0  0  0
    7.2655  -12.4434   26.9361 C   0  0  0  0  0  0  0  0  0  0  0  0
    7.0848  -13.2149   27.8911 O   0  0  0  0  0  0  0  0  0  0  0  0
    6.8320  -11.1048   27.0692 O   0  0  0  0  0  0  0  0  0  0  0  0
  2  1  1  0
  3  2  1  0
  3  4  1  6
  5  3  1  0
  6  5  2  0
  7  8  1  0
  8  9  2  0
  9 10  1  0
 11 10  2  0
 11 12  1  0
 13 12  1  1
 13 14  1  0
 14  5  1  0
 15 13  1  0
 15 16  2  0
 17 11  1  0
 18 17  2  0
 18  8  1  0
 20 19  1  1
 20 21  1  0
 22 20  1  0
 22 23  1  1
 23 15  1  0
 24 22  1  0
 25 24  2  0
 26 24  1  0
M  END
$$$$
