SYV.pdb
     RDKit          3D

 26 26  0  0  1  0  0  0  0  0999 V2000
    9.1724  -17.3471   21.6254 O   0  0  0  0  0  0  0  0  0  0  0  0
    9.2067  -18.7319   21.5223 C   0  0  0  0  0  0  0  0  0  0  0  0
    7.9303  -19.2906   22.1127 C   0  0  2  0  0  0  0  0  0  0  0  0
    6.9964  -19.7212   21.0960 N   0  0  0  0  0  0  0  0  0  0  0  0
    7.2872  -18.2991   23.0329 C   0  0  0  0  0  0  0  0  0  0  0  0
    6.3793  -17.5285   22.6201 O   0  0  0  0  0  0  0  0  0  0  0  0
   11.4438  -18.7483   29.7571 O   0  0  0  0  0  0  0  0  0  0  0  0
   10.2905  -18.5504   28.9835 C   0  0  0  0  0  0  0  0  0  0  0  0
    9.7426  -19.6298   28.3223 C   0  0  0  0  0  0  0  0  0  0  0  0
    8.6092  -19.4667   27.5542 C   0  0  0  0  0  0  0  0  0  0  0  0
    7.9783  -18.2335   27.4126 C   0  0  0  0  0  0  0  0  0  0  0  0
    6.8043  -18.0851   26.5722 C   0  0  0  0  0  0  0  0  0  0  0  0
    6.9216  -17.3073   25.3162 C   0  0  2  0  0  0  0  0  0  0  0  0
    7.6609  -18.1824   24.3833 N   0  0  0  0  0  0  0  0  0  0  0  0
    7.6481  -16.0429   25.4273 C   0  0  0  0  0  0  0  0  0  0  0  0
    8.8862  -16.0405   25.0910 O   0  0  0  0  0  0  0  0  0  0  0  0
    8.5507  -17.1804   28.0847 C   0  0  0  0  0  0  0  0  0  0  0  0
    9.6891  -17.3367   28.8581 C   0  0  0  0  0  0  0  0  0  0  0  0
    6.0596  -12.1842   26.6892 C   0  0  0  0  0  0  0  0  0  0  0  0
    7.1571  -12.3687   25.7022 C   0  0  2  0  0  0  0  0  0  0  0  0
    6.5709  -12.3346   24.3156 C   0  0  0  0  0  0  0  0  0  0  0  0
    7.9380  -13.6536   25.9043 C   0  0  2  0  0  0  0  0  0  0  0  0
    7.0849  -14.8106   25.8741 N   0  0  0  0  0  0  0  0  0  0  0  0
    8.6671  -13.5860   27.1831 C   0  0  0  0  0  0  0  0  0  0  0  0
    8.4452  -14.4054   28.0881 O   0  0  0  0  0  0  0  0  0  0  0  0
    9.6389  -12.5858   27.4129 O   0  0  0  0  0  0  0  0  0  0  0  0
  2  1  1  0
  3  2  1  0
  3  4  1  6
  5  3  1  0
  6  5  2  0
  7  8  1  0
  8  9  2  0
  9 10  1  0
 11 10  2  0
 11 12  1  0
 13 12  1  1
 13 14  1  0
 14  5  1  0
 15 13  1  0
 15 16  2  0
 17 11  1  0
 18 17  2  0
 18  8  1  0
 20 19  1  1
 20 21  1  0
 22 20  1  0
 22 23  1  1
 23 15  1  0
 24 22  1  0
 25 24  2  0
 26 24  1  0
M  END
$$$$
