YTM.pdb
     RDKit          3D

 28 28  0  0  1  0  0  0  0  0999 V2000
   12.0387  -24.6180   22.3980 O   0  0  0  0  0  0  0  0  0  0  0  0
   12.0494  -23.2272   22.2614 C   0  0  0  0  0  0  0  0  0  0  0  0
   13.1873  -22.5507   21.8816 C   0  0  0  0  0  0  0  0  0  0  0  0
   13.2114  -21.1842   21.7437 C   0  0  0  0  0  0  0  0  0  0  0  0
   12.0817  -20.4537   21.9860 C   0  0  0  0  0  0  0  0  0  0  0  0
   12.1379  -18.9805   21.8286 C   0  0  0  0  0  0  0  0  0  0  0  0
   11.2819  -18.5166   20.6583 C   0  0  2  0  0  0  0  0  0  0  0  0
   12.0901  -18.5177   19.4913 N   0  0  0  0  0  0  0  0  0  0  0  0
   10.7206  -17.2092   21.0209 C   0  0  0  0  0  0  0  0  0  0  0  0
   11.4529  -16.1938   20.9007 O   0  0  0  0  0  0  0  0  0  0  0  0
   10.9231  -21.0876   22.3674 C   0  0  0  0  0  0  0  0  0  0  0  0
   10.9305  -22.4517   22.4963 C   0  0  0  0  0  0  0  0  0  0  0  0
    7.0310  -14.1079   21.6775 C   0  0  0  0  0  0  0  0  0  0  0  0
    7.5380  -15.5079   21.4099 C   0  0  1  0  0  0  0  0  0  0  0  0
    7.5987  -15.7512   20.0221 O   0  0  0  0  0  0  0  0  0  0  0  0
    8.9486  -15.6900   21.9244 C   0  0  2  0  0  0  0  0  0  0  0  0
    9.4021  -17.0007   21.5013 N   0  0  0  0  0  0  0  0  0  0  0  0
    8.9022  -15.6234   23.4078 C   0  0  0  0  0  0  0  0  0  0  0  0
    8.4978  -16.5922   24.1054 O   0  0  0  0  0  0  0  0  0  0  0  0
    6.4447  -10.3906   26.6963 C   0  0  0  0  0  0  0  0  0  0  0  0
    5.9732  -12.0822   27.1819 S   0  0  0  0  0  0  0  0  0  0  0  0
    7.4050  -13.1518   26.9670 C   0  0  0  0  0  0  0  0  0  0  0  0
    7.7618  -13.3480   25.4943 C   0  0  0  0  0  0  0  0  0  0  0  0
    9.0213  -14.1958   25.4833 C   0  0  2  0  0  0  0  0  0  0  0  0
    9.3193  -14.4485   24.0771 N   0  0  0  0  0  0  0  0  0  0  0  0
    8.8174  -15.5028   26.1602 C   0  0  0  0  0  0  0  0  0  0  0  0
    9.5177  -15.7913   27.1521 O   0  0  0  0  0  0  0  0  0  0  0  0
    7.8727  -16.4267   25.7336 O   0  0  0  0  0  0  0  0  0  0  0  0
  2  1  1  0
  3  2  2  0
  4  3  1  0
  5  4  2  0
  5 11  1  0
  6  5  1  0
  7  6  1  0
  7  9  1  0
  7  8  1  6
  9 10  2  0
 11 12  2  0
 12  2  1  0
 14 13  1  6
 14 16  1  0
 15 14  1  0
 16 17  1  1
 17  9  1  0
 18 16  1  0
 18 19  2  0
 20 21  1  0
 22 21  1  0
 22 23  1  0
 24 23  1  6
 24 25  1  0
 24 26  1  0
 25 18  1  0
 26 28  1  0
 27 26  2  0
M  END
$$$$
