YTM.pdb
     RDKit          3D

 28 28  0  0  1  0  0  0  0  0999 V2000
   13.9518  -21.0021   18.1673 O   0  0  0  0  0  0  0  0  0  0  0  0
   12.6575  -20.5229   18.3873 C   0  0  0  0  0  0  0  0  0  0  0  0
   11.7262  -20.4756   17.3737 C   0  0  0  0  0  0  0  0  0  0  0  0
   10.4510  -20.0069   17.5764 C   0  0  0  0  0  0  0  0  0  0  0  0
   10.0736  -19.5690   18.8151 C   0  0  0  0  0  0  0  0  0  0  0  0
    8.6907  -19.0690   19.0037 C   0  0  0  0  0  0  0  0  0  0  0  0
    8.4978  -17.7129   18.3393 C   0  0  2  0  0  0  0  0  0  0  0  0
    9.1917  -17.7243   17.1010 N   0  0  0  0  0  0  0  0  0  0  0  0
    8.9510  -16.6926   19.2931 C   0  0  0  0  0  0  0  0  0  0  0  0
   10.0877  -16.1825   19.1224 O   0  0  0  0  0  0  0  0  0  0  0  0
   10.9708  -19.5982   19.8562 C   0  0  0  0  0  0  0  0  0  0  0  0
   12.2354  -20.0713   19.6227 C   0  0  0  0  0  0  0  0  0  0  0  0
    7.3669  -13.4819   19.9290 C   0  0  0  0  0  0  0  0  0  0  0  0
    7.5908  -14.0987   21.2921 C   0  0  1  0  0  0  0  0  0  0  0  0
    6.4245  -14.7605   21.7291 O   0  0  0  0  0  0  0  0  0  0  0  0
    8.6734  -15.1539   21.2474 C   0  0  2  0  0  0  0  0  0  0  0  0
    8.1974  -16.2328   20.4037 N   0  0  0  0  0  0  0  0  0  0  0  0
    8.8827  -15.6475   22.6329 C   0  0  0  0  0  0  0  0  0  0  0  0
    8.5219  -16.8012   22.9903 O   0  0  0  0  0  0  0  0  0  0  0  0
    6.2781  -10.8672   27.2237 C   0  0  0  0  0  0  0  0  0  0  0  0
    6.1051  -12.4594   26.3548 S   0  0  0  0  0  0  0  0  0  0  0  0
    7.7497  -13.0460   25.9171 C   0  0  0  0  0  0  0  0  0  0  0  0
    7.7013  -14.3093   25.0590 C   0  0  0  0  0  0  0  0  0  0  0  0
    9.1275  -14.8274   25.0052 C   0  0  2  0  0  0  0  0  0  0  0  0
    9.5029  -14.8155   23.5949 N   0  0  0  0  0  0  0  0  0  0  0  0
    9.2309  -16.2231   25.5046 C   0  0  0  0  0  0  0  0  0  0  0  0
    9.9156  -16.4575   26.5214 O   0  0  0  0  0  0  0  0  0  0  0  0
    8.5931  -17.2889   24.8839 O   0  0  0  0  0  0  0  0  0  0  0  0
  2  1  1  0
  3  2  2  0
  4  3  1  0
  5  4  2  0
  5 11  1  0
  6  5  1  0
  7  6  1  0
  7  9  1  0
  7  8  1  6
  9 10  2  0
 11 12  2  0
 12  2  1  0
 14 13  1  6
 14 16  1  0
 15 14  1  0
 16 17  1  6
 17  9  1  0
 18 16  1  0
 18 19  2  0
 20 21  1  0
 22 21  1  0
 22 23  1  0
 24 23  1  6
 24 25  1  0
 24 26  1  0
 25 18  1  0
 26 28  1  0
 27 26  2  0
M  END
$$$$
