YTM.pdb
     RDKit          3D

 28 28  0  0  1  0  0  0  0  0999 V2000
    7.5159  -11.7137   26.1451 O   0  0  0  0  0  0  0  0  0  0  0  0
    7.2960  -13.0805   25.9536 C   0  0  0  0  0  0  0  0  0  0  0  0
    6.1467  -13.6935   26.4010 C   0  0  0  0  0  0  0  0  0  0  0  0
    5.9182  -15.0358   26.2194 C   0  0  0  0  0  0  0  0  0  0  0  0
    6.8474  -15.8056   25.5770 C   0  0  0  0  0  0  0  0  0  0  0  0
    6.5729  -17.2512   25.3954 C   0  0  0  0  0  0  0  0  0  0  0  0
    6.3898  -17.5985   23.9245 C   0  0  2  0  0  0  0  0  0  0  0  0
    5.6565  -18.8114   23.8444 N   0  0  0  0  0  0  0  0  0  0  0  0
    7.7262  -17.6423   23.3179 C   0  0  0  0  0  0  0  0  0  0  0  0
    8.4843  -18.5997   23.6184 O   0  0  0  0  0  0  0  0  0  0  0  0
    8.0092  -15.2354   25.1136 C   0  0  0  0  0  0  0  0  0  0  0  0
    8.2083  -13.8939   25.3099 C   0  0  0  0  0  0  0  0  0  0  0  0
    8.5026  -16.7922   19.5375 C   0  0  0  0  0  0  0  0  0  0  0  0
    9.5052  -16.1349   20.4601 C   0  0  1  0  0  0  0  0  0  0  0  0
    9.1334  -14.7991   20.7177 O   0  0  0  0  0  0  0  0  0  0  0  0
    9.5450  -16.8208   21.8076 C   0  0  2  0  0  0  0  0  0  0  0  0
    8.2335  -16.6780   22.4094 N   0  0  0  0  0  0  0  0  0  0  0  0
   10.5630  -16.1281   22.6389 C   0  0  0  0  0  0  0  0  0  0  0  0
   10.7619  -14.8865   22.5507 O   0  0  0  0  0  0  0  0  0  0  0  0
   11.0599  -13.5112   29.2583 C   0  0  0  0  0  0  0  0  0  0  0  0
   10.2009  -14.4603   27.9618 S   0  0  0  0  0  0  0  0  0  0  0  0
   11.4331  -15.0816   26.8058 C   0  0  0  0  0  0  0  0  0  0  0  0
   10.7959  -15.7317   25.5787 C   0  0  0  0  0  0  0  0  0  0  0  0
   11.9497  -16.2543   24.7416 C   0  0  2  0  0  0  0  0  0  0  0  0
   11.3426  -16.8638   23.5625 N   0  0  0  0  0  0  0  0  0  0  0  0
   12.7287  -17.2971   25.4582 C   0  0  0  0  0  0  0  0  0  0  0  0
   12.3183  -18.4758   25.4529 O   0  0  0  0  0  0  0  0  0  0  0  0
   13.9048  -17.0156   26.1404 O   0  0  0  0  0  0  0  0  0  0  0  0
  2  1  1  0
  3  2  2  0
  4  3  1  0
  5  4  2  0
  5 11  1  0
  6  5  1  0
  7  6  1  0
  7  9  1  0
  7  8  1  1
  9 10  2  0
 11 12  2  0
 12  2  1  0
 14 13  1  6
 14 16  1  0
 15 14  1  0
 16 17  1  1
 17  9  1  0
 18 16  1  0
 18 19  2  0
 20 21  1  0
 22 21  1  0
 22 23  1  0
 24 23  1  1
 24 25  1  0
 24 26  1  0
 25 18  1  0
 26 28  1  0
 27 26  2  0
M  END
$$$$
