YTM.pdb
     RDKit          3D

 28 28  0  0  1  0  0  0  0  0999 V2000
   18.0528  -21.5265   17.8157 O   0  0  0  0  0  0  0  0  0  0  0  0
   17.0261  -20.7970   18.4214 C   0  0  0  0  0  0  0  0  0  0  0  0
   17.2816  -19.6334   19.1125 C   0  0  0  0  0  0  0  0  0  0  0  0
   16.2819  -18.9071   19.7125 C   0  0  0  0  0  0  0  0  0  0  0  0
   14.9859  -19.3347   19.6333 C   0  0  0  0  0  0  0  0  0  0  0  0
   13.9284  -18.5298   20.2905 C   0  0  0  0  0  0  0  0  0  0  0  0
   12.9871  -17.9118   19.2659 C   0  0  2  0  0  0  0  0  0  0  0  0
   13.7453  -17.0473   18.4337 N   0  0  0  0  0  0  0  0  0  0  0  0
   11.9017  -17.2599   20.0095 C   0  0  0  0  0  0  0  0  0  0  0  0
   11.1375  -16.4807   19.3847 O   0  0  0  0  0  0  0  0  0  0  0  0
   14.6849  -20.4909   18.9534 C   0  0  0  0  0  0  0  0  0  0  0  0
   15.7039  -21.1934   18.3655 C   0  0  0  0  0  0  0  0  0  0  0  0
    9.2069  -17.3250   19.9426 C   0  0  0  0  0  0  0  0  0  0  0  0
    9.2572  -17.5018   21.4442 C   0  0  1  0  0  0  0  0  0  0  0  0
    9.3483  -18.8699   21.7747 O   0  0  0  0  0  0  0  0  0  0  0  0
   10.4882  -16.8505   22.0340 C   0  0  2  0  0  0  0  0  0  0  0  0
   11.6458  -17.4433   21.3929 N   0  0  0  0  0  0  0  0  0  0  0  0
   10.5056  -17.1487   23.4893 C   0  0  0  0  0  0  0  0  0  0  0  0
   10.9909  -18.2196   23.9437 O   0  0  0  0  0  0  0  0  0  0  0  0
   10.4550  -13.0482   30.2002 C   0  0  0  0  0  0  0  0  0  0  0  0
    9.6854  -13.1902   28.5548 S   0  0  0  0  0  0  0  0  0  0  0  0
   10.3910  -14.6218   27.7224 C   0  0  0  0  0  0  0  0  0  0  0  0
    9.8476  -14.7895   26.3042 C   0  0  0  0  0  0  0  0  0  0  0  0
   10.4972  -16.0487   25.7587 C   0  0  2  0  0  0  0  0  0  0  0  0
    9.9675  -16.2179   24.4092 N   0  0  0  0  0  0  0  0  0  0  0  0
   10.1374  -17.2499   26.5560 C   0  0  0  0  0  0  0  0  0  0  0  0
   10.8606  -17.5824   27.5173 O   0  0  0  0  0  0  0  0  0  0  0  0
    9.0210  -18.0265   26.2762 O   0  0  0  0  0  0  0  0  0  0  0  0
  2  1  1  0
  3  2  2  0
  4  3  1  0
  5  4  2  0
  5 11  1  0
  6  5  1  0
  7  6  1  0
  7  9  1  0
  7  8  1  1
  9 10  2  0
 11 12  2  0
 12  2  1  0
 14 13  1  6
 14 16  1  0
 15 14  1  0
 16 17  1  6
 17  9  1  0
 18 16  1  0
 18 19  2  0
 20 21  1  0
 22 21  1  0
 22 23  1  0
 24 23  1  1
 24 25  1  0
 24 26  1  0
 25 18  1  0
 26 28  1  0
 27 26  2  0
M  END
$$$$
