YTM.pdb
     RDKit          3D

 28 28  0  0  1  0  0  0  0  0999 V2000
    7.2444  -11.3141   26.3259 O   0  0  0  0  0  0  0  0  0  0  0  0
    7.0892  -12.6148   25.8387 C   0  0  0  0  0  0  0  0  0  0  0  0
    6.1357  -13.4659   26.3518 C   0  0  0  0  0  0  0  0  0  0  0  0
    5.9728  -14.7465   25.8822 C   0  0  0  0  0  0  0  0  0  0  0  0
    6.7714  -15.2107   24.8745 C   0  0  0  0  0  0  0  0  0  0  0  0
    6.5721  -16.5970   24.3881 C   0  0  0  0  0  0  0  0  0  0  0  0
    6.8801  -16.7109   22.9016 C   0  0  2  0  0  0  0  0  0  0  0  0
    5.7943  -17.3765   22.2747 N   0  0  0  0  0  0  0  0  0  0  0  0
    8.1767  -17.3885   22.7764 C   0  0  0  0  0  0  0  0  0  0  0  0
    8.1963  -18.6454   22.8113 O   0  0  0  0  0  0  0  0  0  0  0  0
    7.7364  -14.3954   24.3326 C   0  0  0  0  0  0  0  0  0  0  0  0
    7.8746  -13.1231   24.8223 C   0  0  0  0  0  0  0  0  0  0  0  0
   10.4606  -17.8065   20.1876 C   0  0  0  0  0  0  0  0  0  0  0  0
   11.3390  -17.2848   21.3033 C   0  0  1  0  0  0  0  0  0  0  0  0
   11.5541  -15.8992   21.1518 O   0  0  0  0  0  0  0  0  0  0  0  0
   10.6755  -17.4558   22.6517 C   0  0  2  0  0  0  0  0  0  0  0  0
    9.4220  -16.7276   22.6172 N   0  0  0  0  0  0  0  0  0  0  0  0
   11.5755  -16.8685   23.6775 C   0  0  0  0  0  0  0  0  0  0  0  0
   12.0074  -15.6878   23.5869 O   0  0  0  0  0  0  0  0  0  0  0  0
   10.7791  -13.6074   29.8823 C   0  0  0  0  0  0  0  0  0  0  0  0
   10.1180  -14.5874   28.4957 S   0  0  0  0  0  0  0  0  0  0  0  0
   11.4401  -15.6300   27.8593 C   0  0  0  0  0  0  0  0  0  0  0  0
   11.1069  -16.2086   26.4850 C   0  0  0  0  0  0  0  0  0  0  0  0
   12.3117  -17.0406   26.0834 C   0  0  2  0  0  0  0  0  0  0  0  0
   11.9717  -17.6389   24.7963 N   0  0  0  0  0  0  0  0  0  0  0  0
   12.5787  -18.1356   27.0519 C   0  0  0  0  0  0  0  0  0  0  0  0
   11.9877  -19.2265   26.9166 O   0  0  0  0  0  0  0  0  0  0  0  0
   13.4656  -17.9974   28.1112 O   0  0  0  0  0  0  0  0  0  0  0  0
  2  1  1  0
  3  2  2  0
  4  3  1  0
  5  4  2  0
  5 11  1  0
  6  5  1  0
  7  6  1  0
  7  9  1  0
  7  8  1  6
  9 10  2  0
 11 12  2  0
 12  2  1  0
 14 13  1  6
 14 16  1  0
 15 14  1  0
 16 17  1  6
 17  9  1  0
 18 16  1  0
 18 19  2  0
 20 21  1  0
 22 21  1  0
 22 23  1  0
 24 23  1  1
 24 25  1  0
 24 26  1  0
 25 18  1  0
 26 28  1  0
 27 26  2  0
M  END
$$$$
