YTM.pdb
     RDKit          3D

 28 28  0  0  1  0  0  0  0  0999 V2000
    7.7426  -11.6066   23.5683 O   0  0  0  0  0  0  0  0  0  0  0  0
    7.5899  -12.6159   22.6137 C   0  0  0  0  0  0  0  0  0  0  0  0
    6.9482  -13.7973   22.9126 C   0  0  0  0  0  0  0  0  0  0  0  0
    6.7915  -14.7972   21.9839 C   0  0  0  0  0  0  0  0  0  0  0  0
    7.2801  -14.6353   20.7175 C   0  0  0  0  0  0  0  0  0  0  0  0
    7.0956  -15.7317   19.7366 C   0  0  0  0  0  0  0  0  0  0  0  0
    8.3398  -16.6036   19.6418 C   0  0  2  0  0  0  0  0  0  0  0  0
    8.1124  -17.5925   18.6491 N   0  0  0  0  0  0  0  0  0  0  0  0
    8.6076  -17.1277   20.9871 C   0  0  0  0  0  0  0  0  0  0  0  0
    7.6831  -17.7381   21.5822 O   0  0  0  0  0  0  0  0  0  0  0  0
    7.9276  -13.4720   20.3752 C   0  0  0  0  0  0  0  0  0  0  0  0
    8.0682  -12.4930   21.3236 C   0  0  0  0  0  0  0  0  0  0  0  0
   11.1854  -19.5159   22.1927 C   0  0  0  0  0  0  0  0  0  0  0  0
   11.2826  -18.2911   23.0753 C   0  0  1  0  0  0  0  0  0  0  0  0
   12.3024  -17.4331   22.6139 O   0  0  0  0  0  0  0  0  0  0  0  0
   10.0072  -17.4792   23.0320 C   0  0  2  0  0  0  0  0  0  0  0  0
    9.8419  -16.9974   21.6744 N   0  0  0  0  0  0  0  0  0  0  0  0
   10.1687  -16.3317   23.9617 C   0  0  0  0  0  0  0  0  0  0  0  0
   10.2975  -15.1494   23.5440 O   0  0  0  0  0  0  0  0  0  0  0  0
    8.0173  -11.3552   25.3661 C   0  0  0  0  0  0  0  0  0  0  0  0
    7.7712  -12.2826   26.9151 S   0  0  0  0  0  0  0  0  0  0  0  0
    9.1260  -13.4542   27.0938 C   0  0  0  0  0  0  0  0  0  0  0  0
    9.0713  -14.5629   26.0439 C   0  0  0  0  0  0  0  0  0  0  0  0
   10.2645  -15.4585   26.3257 C   0  0  2  0  0  0  0  0  0  0  0  0
   10.1808  -16.5495   25.3598 N   0  0  0  0  0  0  0  0  0  0  0  0
   10.2129  -16.0394   27.6925 C   0  0  0  0  0  0  0  0  0  0  0  0
    9.6569  -17.1434   27.8650 O   0  0  0  0  0  0  0  0  0  0  0  0
   10.7613  -15.4019   28.7974 O   0  0  0  0  0  0  0  0  0  0  0  0
  2  1  1  0
  3  2  2  0
  4  3  1  0
  5  4  2  0
  5 11  1  0
  6  5  1  0
  7  6  1  0
  7  9  1  0
  7  8  1  6
  9 10  2  0
 11 12  2  0
 12  2  1  0
 14 13  1  6
 14 16  1  0
 15 14  1  0
 16 17  1  6
 17  9  1  0
 18 16  1  0
 18 19  2  0
 20 21  1  0
 22 21  1  0
 22 23  1  0
 24 23  1  6
 24 25  1  0
 24 26  1  0
 25 18  1  0
 26 28  1  0
 27 26  2  0
M  END
$$$$
