YTM.pdb
     RDKit          3D

 28 28  0  0  1  0  0  0  0  0999 V2000
   14.1755  -24.0835    7.4896 O   0  0  0  0  0  0  0  0  0  0  0  0
   14.0144  -23.3553    8.6715 C   0  0  0  0  0  0  0  0  0  0  0  0
   12.7652  -23.0795    9.1816 C   0  0  0  0  0  0  0  0  0  0  0  0
   12.5930  -22.3648   10.3421 C   0  0  0  0  0  0  0  0  0  0  0  0
   13.6820  -21.9038   11.0278 C   0  0  0  0  0  0  0  0  0  0  0  0
   13.4649  -21.1358   12.2773 C   0  0  0  0  0  0  0  0  0  0  0  0
   12.6219  -19.8938   12.0232 C   0  0  2  0  0  0  0  0  0  0  0  0
   13.3932  -18.9860   11.2513 N   0  0  0  0  0  0  0  0  0  0  0  0
   12.1928  -19.3840   13.3317 C   0  0  0  0  0  0  0  0  0  0  0  0
   12.7836  -18.3776   13.8004 O   0  0  0  0  0  0  0  0  0  0  0  0
   14.9479  -22.1560   10.5551 C   0  0  0  0  0  0  0  0  0  0  0  0
   15.0873  -22.8716    9.3949 C   0  0  0  0  0  0  0  0  0  0  0  0
    8.6389  -18.5687   14.3352 C   0  0  0  0  0  0  0  0  0  0  0  0
    9.2514  -19.3846   15.4522 C   0  0  1  0  0  0  0  0  0  0  0  0
    8.8796  -20.7397   15.3313 O   0  0  0  0  0  0  0  0  0  0  0  0
   10.7622  -19.3622   15.3853 C   0  0  2  0  0  0  0  0  0  0  0  0
   11.1519  -19.9448   14.1159 N   0  0  0  0  0  0  0  0  0  0  0  0
   11.2778  -20.1923   16.5043 C   0  0  0  0  0  0  0  0  0  0  0  0
   11.6914  -21.3694   16.3246 O   0  0  0  0  0  0  0  0  0  0  0  0
   14.0781  -17.9747   22.6064 C   0  0  0  0  0  0  0  0  0  0  0  0
   14.2746  -19.5312   21.6797 S   0  0  0  0  0  0  0  0  0  0  0  0
   12.6377  -20.1391   21.2423 C   0  0  0  0  0  0  0  0  0  0  0  0
   12.0361  -19.3767   20.0627 C   0  0  0  0  0  0  0  0  0  0  0  0
   11.9071  -20.3890   18.9386 C   0  0  2  0  0  0  0  0  0  0  0  0
   11.3148  -19.6663   17.8174 N   0  0  0  0  0  0  0  0  0  0  0  0
   11.0027  -21.5107   19.3018 C   0  0  0  0  0  0  0  0  0  0  0  0
    9.7902  -21.4328   19.0166 O   0  0  0  0  0  0  0  0  0  0  0  0
   11.4514  -22.6532   19.9508 O   0  0  0  0  0  0  0  0  0  0  0  0
  2  1  1  0
  3  2  2  0
  4  3  1  0
  5  4  2  0
  5 11  1  0
  6  5  1  0
  7  6  1  0
  7  9  1  0
  7  8  1  1
  9 10  2  0
 11 12  2  0
 12  2  1  0
 14 13  1  6
 14 16  1  0
 15 14  1  0
 16 17  1  6
 17  9  1  0
 18 16  1  0
 18 19  2  0
 20 21  1  0
 22 21  1  0
 22 23  1  0
 24 23  1  1
 24 25  1  0
 24 26  1  0
 25 18  1  0
 26 28  1  0
 27 26  2  0
M  END
$$$$
