YTM.pdb
     RDKit          3D

 28 28  0  0  1  0  0  0  0  0999 V2000
    8.1229  -12.7891   27.6668 O   0  0  0  0  0  0  0  0  0  0  0  0
    7.6589  -13.4887   26.5495 C   0  0  0  0  0  0  0  0  0  0  0  0
    6.4768  -14.1947   26.5830 C   0  0  0  0  0  0  0  0  0  0  0  0
    6.0096  -14.8865   25.4921 C   0  0  0  0  0  0  0  0  0  0  0  0
    6.7246  -14.8876   24.3270 C   0  0  0  0  0  0  0  0  0  0  0  0
    6.1950  -15.6429   23.1663 C   0  0  0  0  0  0  0  0  0  0  0  0
    6.4451  -17.1369   23.3185 C   0  0  2  0  0  0  0  0  0  0  0  0
    5.8761  -17.5576   24.5490 N   0  0  0  0  0  0  0  0  0  0  0  0
    7.8933  -17.3499   23.2017 C   0  0  0  0  0  0  0  0  0  0  0  0
    8.5212  -17.7371   24.2202 O   0  0  0  0  0  0  0  0  0  0  0  0
    7.9101  -14.1962   24.2486 C   0  0  0  0  0  0  0  0  0  0  0  0
    8.3499  -13.5157   25.3536 C   0  0  0  0  0  0  0  0  0  0  0  0
    9.5777  -18.4714   19.7188 C   0  0  0  0  0  0  0  0  0  0  0  0
   10.4541  -17.5135   20.4953 C   0  0  1  0  0  0  0  0  0  0  0  0
   10.2942  -16.1988   20.0105 O   0  0  0  0  0  0  0  0  0  0  0  0
   10.0602  -17.4673   21.9549 C   0  0  2  0  0  0  0  0  0  0  0  0
    8.6465  -17.1507   22.0160 N   0  0  0  0  0  0  0  0  0  0  0  0
   10.8503  -16.3893   22.6036 C   0  0  0  0  0  0  0  0  0  0  0  0
   10.6619  -15.1722   22.3353 O   0  0  0  0  0  0  0  0  0  0  0  0
   10.6396  -12.8386   28.7733 C   0  0  0  0  0  0  0  0  0  0  0  0
   10.0617  -14.1234   27.6178 S   0  0  0  0  0  0  0  0  0  0  0  0
   11.4371  -14.5857   26.5525 C   0  0  0  0  0  0  0  0  0  0  0  0
   11.0092  -15.5446   25.4426 C   0  0  0  0  0  0  0  0  0  0  0  0
   12.2552  -15.7994   24.6132 C   0  0  2  0  0  0  0  0  0  0  0  0
   11.8476  -16.7158   23.5528 N   0  0  0  0  0  0  0  0  0  0  0  0
   13.3280  -16.4518   25.4079 C   0  0  0  0  0  0  0  0  0  0  0  0
   14.3105  -15.7759   25.7761 O   0  0  0  0  0  0  0  0  0  0  0  0
   13.2855  -17.7935   25.7626 O   0  0  0  0  0  0  0  0  0  0  0  0
  2  1  1  0
  3  2  2  0
  4  3  1  0
  5  4  2  0
  5 11  1  0
  6  5  1  0
  7  6  1  0
  7  9  1  0
  7  8  1  1
  9 10  2  0
 11 12  2  0
 12  2  1  0
 14 13  1  6
 14 16  1  0
 15 14  1  0
 16 17  1  6
 17  9  1  0
 18 16  1  0
 18 19  2  0
 20 21  1  0
 22 21  1  0
 22 23  1  0
 24 23  1  1
 24 25  1  0
 24 26  1  0
 25 18  1  0
 26 28  1  0
 27 26  2  0
M  END
$$$$
