YTM.pdb
     RDKit          3D

 28 28  0  0  1  0  0  0  0  0999 V2000
    8.4293  -12.6737   27.1100 O   0  0  0  0  0  0  0  0  0  0  0  0
    7.8848  -13.5693   26.1855 C   0  0  0  0  0  0  0  0  0  0  0  0
    8.3793  -13.6692   24.9040 C   0  0  0  0  0  0  0  0  0  0  0  0
    7.8533  -14.5451   23.9857 C   0  0  0  0  0  0  0  0  0  0  0  0
    6.8062  -15.3519   24.3340 C   0  0  0  0  0  0  0  0  0  0  0  0
    6.2598  -16.2873   23.3218 C   0  0  0  0  0  0  0  0  0  0  0  0
    6.7212  -17.7145   23.5821 C   0  0  2  0  0  0  0  0  0  0  0  0
    6.2816  -18.0921   24.8780 N   0  0  0  0  0  0  0  0  0  0  0  0
    8.1766  -17.7434   23.3898 C   0  0  0  0  0  0  0  0  0  0  0  0
    8.8997  -18.0559   24.3701 O   0  0  0  0  0  0  0  0  0  0  0  0
    6.2810  -15.2856   25.6026 C   0  0  0  0  0  0  0  0  0  0  0  0
    6.8272  -14.4019   26.4962 C   0  0  0  0  0  0  0  0  0  0  0  0
    9.9000  -18.3785   19.7257 C   0  0  0  0  0  0  0  0  0  0  0  0
   10.6228  -17.3642   20.5844 C   0  0  1  0  0  0  0  0  0  0  0  0
   10.2192  -16.0563   20.2442 O   0  0  0  0  0  0  0  0  0  0  0  0
   10.2786  -17.5364   22.0470 C   0  0  2  0  0  0  0  0  0  0  0  0
    8.8368  -17.4430   22.1705 N   0  0  0  0  0  0  0  0  0  0  0  0
   10.9251  -16.4297   22.7982 C   0  0  0  0  0  0  0  0  0  0  0  0
   10.6171  -15.2232   22.6024 O   0  0  0  0  0  0  0  0  0  0  0  0
   10.2789  -12.3482   28.1272 C   0  0  0  0  0  0  0  0  0  0  0  0
   10.3394  -14.1588   27.9320 S   0  0  0  0  0  0  0  0  0  0  0  0
   11.6430  -14.5573   26.7564 C   0  0  0  0  0  0  0  0  0  0  0  0
   11.1434  -15.4527   25.6237 C   0  0  0  0  0  0  0  0  0  0  0  0
   12.3563  -15.7372   24.7558 C   0  0  2  0  0  0  0  0  0  0  0  0
   11.9172  -16.7156   23.7657 N   0  0  0  0  0  0  0  0  0  0  0  0
   13.4718  -16.3314   25.5373 C   0  0  0  0  0  0  0  0  0  0  0  0
   13.4735  -17.5594   25.7602 O   0  0  0  0  0  0  0  0  0  0  0  0
   14.5230  -15.5733   26.0355 O   0  0  0  0  0  0  0  0  0  0  0  0
  2  1  1  0
  3  2  2  0
  4  3  1  0
  5  4  2  0
  5 11  1  0
  6  5  1  0
  7  6  1  0
  7  9  1  0
  7  8  1  1
  9 10  2  0
 11 12  2  0
 12  2  1  0
 14 13  1  6
 14 16  1  0
 15 14  1  0
 16 17  1  6
 17  9  1  0
 18 16  1  0
 18 19  2  0
 20 21  1  0
 22 21  1  0
 22 23  1  0
 24 23  1  1
 24 25  1  0
 24 26  1  0
 25 18  1  0
 26 28  1  0
 27 26  2  0
M  END
$$$$
