YTM.pdb
     RDKit          3D

 28 28  0  0  1  0  0  0  0  0999 V2000
   17.0828  -22.0585   20.7534 O   0  0  0  0  0  0  0  0  0  0  0  0
   16.1423  -21.0247   20.7482 C   0  0  0  0  0  0  0  0  0  0  0  0
   16.4542  -19.7713   20.2703 C   0  0  0  0  0  0  0  0  0  0  0  0
   15.5393  -18.7466   20.2597 C   0  0  0  0  0  0  0  0  0  0  0  0
   14.2743  -18.9560   20.7335 C   0  0  0  0  0  0  0  0  0  0  0  0
   13.3086  -17.8313   20.7089 C   0  0  0  0  0  0  0  0  0  0  0  0
   12.0185  -18.2258   20.0037 C   0  0  2  0  0  0  0  0  0  0  0  0
   12.2860  -18.3217   18.6129 N   0  0  0  0  0  0  0  0  0  0  0  0
   11.0006  -17.2332   20.3709 C   0  0  0  0  0  0  0  0  0  0  0  0
   10.8841  -16.2076   19.6525 O   0  0  0  0  0  0  0  0  0  0  0  0
   13.9194  -20.1917   21.2200 C   0  0  0  0  0  0  0  0  0  0  0  0
   14.8540  -21.1938   21.2174 C   0  0  0  0  0  0  0  0  0  0  0  0
    7.5848  -17.5116   19.9988 C   0  0  0  0  0  0  0  0  0  0  0  0
    7.7480  -17.1418   21.4566 C   0  0  1  0  0  0  0  0  0  0  0  0
    7.8136  -18.3037   22.2534 O   0  0  0  0  0  0  0  0  0  0  0  0
    9.0457  -16.4026   21.6948 C   0  0  2  0  0  0  0  0  0  0  0  0
   10.1292  -17.3432   21.4850 N   0  0  0  0  0  0  0  0  0  0  0  0
    9.0475  -15.9325   23.1041 C   0  0  0  0  0  0  0  0  0  0  0  0
    9.7304  -16.5044   23.9959 O   0  0  0  0  0  0  0  0  0  0  0  0
    6.2028  -10.6168   28.1567 C   0  0  0  0  0  0  0  0  0  0  0  0
    6.1743  -11.1479   26.4140 S   0  0  0  0  0  0  0  0  0  0  0  0
    7.1206  -12.6726   26.2722 C   0  0  0  0  0  0  0  0  0  0  0  0
    7.2664  -13.1274   24.8208 C   0  0  0  0  0  0  0  0  0  0  0  0
    8.1454  -14.3647   24.8616 C   0  0  2  0  0  0  0  0  0  0  0  0
    8.2676  -14.8124   23.4778 N   0  0  0  0  0  0  0  0  0  0  0  0
    7.5277  -15.4594   25.6542 C   0  0  0  0  0  0  0  0  0  0  0  0
    6.6199  -16.1456   25.1417 O   0  0  0  0  0  0  0  0  0  0  0  0
    7.9198  -15.7557   26.9527 O   0  0  0  0  0  0  0  0  0  0  0  0
  2  1  1  0
  3  2  2  0
  4  3  1  0
  5  4  2  0
  5 11  1  0
  6  5  1  0
  7  6  1  0
  7  9  1  0
  7  8  1  6
  9 10  2  0
 11 12  2  0
 12  2  1  0
 14 13  1  6
 14 16  1  0
 15 14  1  0
 16 17  1  1
 17  9  1  0
 18 16  1  0
 18 19  2  0
 20 21  1  0
 22 21  1  0
 22 23  1  0
 24 23  1  6
 24 25  1  0
 24 26  1  0
 25 18  1  0
 26 28  1  0
 27 26  2  0
M  END
$$$$
