YTM.pdb
     RDKit          3D

 28 28  0  0  1  0  0  0  0  0999 V2000
    7.7676  -12.3101   16.4069 O   0  0  0  0  0  0  0  0  0  0  0  0
    7.8895  -12.9957   17.6186 C   0  0  0  0  0  0  0  0  0  0  0  0
    6.8427  -13.0718   18.5103 C   0  0  0  0  0  0  0  0  0  0  0  0
    6.9493  -13.7421   19.7045 C   0  0  0  0  0  0  0  0  0  0  0  0
    8.1222  -14.3601   20.0380 C   0  0  0  0  0  0  0  0  0  0  0  0
    8.2074  -15.0762   21.3335 C   0  0  0  0  0  0  0  0  0  0  0  0
    8.2018  -16.5851   21.1323 C   0  0  2  0  0  0  0  0  0  0  0  0
    6.9288  -16.9594   20.6278 N   0  0  0  0  0  0  0  0  0  0  0  0
    8.5622  -17.1969   22.4175 C   0  0  0  0  0  0  0  0  0  0  0  0
    7.6834  -17.2554   23.3152 O   0  0  0  0  0  0  0  0  0  0  0  0
    9.1933  -14.3097   19.1779 C   0  0  0  0  0  0  0  0  0  0  0  0
    9.0560  -13.6334   17.9941 C   0  0  0  0  0  0  0  0  0  0  0  0
   10.6740  -20.4866   22.9467 C   0  0  0  0  0  0  0  0  0  0  0  0
   11.1768  -19.3725   23.8381 C   0  0  1  0  0  0  0  0  0  0  0  0
   12.2792  -18.7260   23.2417 O   0  0  0  0  0  0  0  0  0  0  0  0
   10.1240  -18.3037   24.0299 C   0  0  2  0  0  0  0  0  0  0  0  0
    9.8385  -17.7331   22.7278 N   0  0  0  0  0  0  0  0  0  0  0  0
   10.6919  -17.2639   24.9263 C   0  0  0  0  0  0  0  0  0  0  0  0
   11.4584  -16.3604   24.4962 O   0  0  0  0  0  0  0  0  0  0  0  0
    8.8717  -12.3160   27.6346 C   0  0  0  0  0  0  0  0  0  0  0  0
    9.3598  -13.1390   29.1852 S   0  0  0  0  0  0  0  0  0  0  0  0
   10.4453  -14.5157   28.7771 C   0  0  0  0  0  0  0  0  0  0  0  0
    9.8428  -15.4277   27.7095 C   0  0  0  0  0  0  0  0  0  0  0  0
   10.9730  -16.3331   27.2533 C   0  0  2  0  0  0  0  0  0  0  0  0
   10.3761  -17.2690   26.3056 N   0  0  0  0  0  0  0  0  0  0  0  0
   11.5500  -17.1123   28.3793 C   0  0  0  0  0  0  0  0  0  0  0  0
   12.5339  -16.6548   28.9960 O   0  0  0  0  0  0  0  0  0  0  0  0
   11.0379  -18.3391   28.7798 O   0  0  0  0  0  0  0  0  0  0  0  0
  2  1  1  0
  3  2  2  0
  4  3  1  0
  5  4  2  0
  5 11  1  0
  6  5  1  0
  7  6  1  0
  7  9  1  0
  7  8  1  1
  9 10  2  0
 11 12  2  0
 12  2  1  0
 14 13  1  6
 14 16  1  0
 15 14  1  0
 16 17  1  6
 17  9  1  0
 18 16  1  0
 18 19  2  0
 20 21  1  0
 22 21  1  0
 22 23  1  0
 24 23  1  1
 24 25  1  0
 24 26  1  0
 25 18  1  0
 26 28  1  0
 27 26  2  0
M  END
$$$$
