YTM.pdb
     RDKit          3D

 28 28  0  0  1  0  0  0  0  0999 V2000
   14.8077  -22.4265   22.2734 O   0  0  0  0  0  0  0  0  0  0  0  0
   14.3216  -21.2338   21.7307 C   0  0  0  0  0  0  0  0  0  0  0  0
   13.5336  -20.3773   22.4669 C   0  0  0  0  0  0  0  0  0  0  0  0
   13.0493  -19.2022   21.9455 C   0  0  0  0  0  0  0  0  0  0  0  0
   13.3469  -18.8530   20.6579 C   0  0  0  0  0  0  0  0  0  0  0  0
   12.8104  -17.5787   20.1227 C   0  0  0  0  0  0  0  0  0  0  0  0
   11.5822  -17.8170   19.2554 C   0  0  2  0  0  0  0  0  0  0  0  0
   11.9416  -17.5754   17.9036 N   0  0  0  0  0  0  0  0  0  0  0  0
   10.5101  -16.9578   19.7735 C   0  0  0  0  0  0  0  0  0  0  0  0
   10.4670  -15.7621   19.3862 O   0  0  0  0  0  0  0  0  0  0  0  0
   14.1303  -19.6782   19.8865 C   0  0  0  0  0  0  0  0  0  0  0  0
   14.5984  -20.8435   20.4348 C   0  0  0  0  0  0  0  0  0  0  0  0
    5.9437  -16.4335   21.3533 C   0  0  0  0  0  0  0  0  0  0  0  0
    7.1390  -17.2844   20.9850 C   0  0  1  0  0  0  0  0  0  0  0  0
    7.0449  -17.7088   19.6433 O   0  0  0  0  0  0  0  0  0  0  0  0
    8.4261  -16.4959   21.0805 C   0  0  2  0  0  0  0  0  0  0  0  0
    9.5084  -17.3769   20.6866 N   0  0  0  0  0  0  0  0  0  0  0  0
    8.5993  -16.0806   22.4963 C   0  0  0  0  0  0  0  0  0  0  0  0
    9.2458  -16.7809   23.3212 O   0  0  0  0  0  0  0  0  0  0  0  0
    6.2094  -11.0193   28.0136 C   0  0  0  0  0  0  0  0  0  0  0  0
    5.9548  -11.5597   26.2922 S   0  0  0  0  0  0  0  0  0  0  0  0
    7.0790  -12.9248   25.9562 C   0  0  0  0  0  0  0  0  0  0  0  0
    6.9988  -13.3932   24.5041 C   0  0  0  0  0  0  0  0  0  0  0  0
    8.0701  -14.4585   24.3535 C   0  0  2  0  0  0  0  0  0  0  0  0
    8.0308  -14.8680   22.9531 N   0  0  0  0  0  0  0  0  0  0  0  0
    7.7917  -15.6499   25.1968 C   0  0  0  0  0  0  0  0  0  0  0  0
    8.4621  -15.8329   26.2335 O   0  0  0  0  0  0  0  0  0  0  0  0
    6.8088  -16.5778   24.8794 O   0  0  0  0  0  0  0  0  0  0  0  0
  2  1  1  0
  3  2  2  0
  4  3  1  0
  5  4  2  0
  5 11  1  0
  6  5  1  0
  7  6  1  0
  7  9  1  0
  7  8  1  6
  9 10  2  0
 11 12  2  0
 12  2  1  0
 14 13  1  6
 14 16  1  0
 15 14  1  0
 16 17  1  1
 17  9  1  0
 18 16  1  0
 18 19  2  0
 20 21  1  0
 22 21  1  0
 22 23  1  0
 24 23  1  6
 24 25  1  0
 24 26  1  0
 25 18  1  0
 26 28  1  0
 27 26  2  0
M  END
$$$$
