YTM.pdb
     RDKit          3D

 28 28  0  0  1  0  0  0  0  0999 V2000
    9.8047  -19.1637   29.4214 O   0  0  0  0  0  0  0  0  0  0  0  0
    8.7345  -19.4501   28.5695 C   0  0  0  0  0  0  0  0  0  0  0  0
    8.1951  -18.4886   27.7442 C   0  0  0  0  0  0  0  0  0  0  0  0
    7.1433  -18.7568   26.9023 C   0  0  0  0  0  0  0  0  0  0  0  0
    6.6001  -20.0108   26.8667 C   0  0  0  0  0  0  0  0  0  0  0  0
    5.4660  -20.2705   25.9478 C   0  0  0  0  0  0  0  0  0  0  0  0
    5.9079  -21.0874   24.7415 C   0  0  2  0  0  0  0  0  0  0  0  0
    6.3697  -22.3469   25.2054 N   0  0  0  0  0  0  0  0  0  0  0  0
    6.9067  -20.2903   24.0183 C   0  0  0  0  0  0  0  0  0  0  0  0
    8.1233  -20.5298   24.2278 O   0  0  0  0  0  0  0  0  0  0  0  0
    7.1072  -21.0015   27.6735 C   0  0  0  0  0  0  0  0  0  0  0  0
    8.1566  -20.7031   28.5025 C   0  0  0  0  0  0  0  0  0  0  0  0
    7.1811  -20.0426   20.3812 C   0  0  0  0  0  0  0  0  0  0  0  0
    7.2641  -18.6192   20.8866 C   0  0  1  0  0  0  0  0  0  0  0  0
    6.0044  -17.9916   20.7955 O   0  0  0  0  0  0  0  0  0  0  0  0
    7.6433  -18.5761   22.3501 C   0  0  2  0  0  0  0  0  0  0  0  0
    6.6018  -19.2602   23.0916 N   0  0  0  0  0  0  0  0  0  0  0  0
    7.7052  -17.1496   22.7605 C   0  0  0  0  0  0  0  0  0  0  0  0
    6.8131  -16.3226   22.4303 O   0  0  0  0  0  0  0  0  0  0  0  0
    6.7200  -11.5789   27.2066 C   0  0  0  0  0  0  0  0  0  0  0  0
    6.4579  -13.2751   26.5950 S   0  0  0  0  0  0  0  0  0  0  0  0
    7.7911  -13.6770   25.4542 C   0  0  0  0  0  0  0  0  0  0  0  0
    7.6291  -15.0694   24.8462 C   0  0  0  0  0  0  0  0  0  0  0  0
    8.8806  -15.3082   24.0205 C   0  0  2  0  0  0  0  0  0  0  0  0
    8.7874  -16.6848   23.5447 N   0  0  0  0  0  0  0  0  0  0  0  0
   10.1168  -15.1778   24.8347 C   0  0  0  0  0  0  0  0  0  0  0  0
   10.6814  -16.2084   25.2550 O   0  0  0  0  0  0  0  0  0  0  0  0
   10.6774  -13.9476   25.1516 O   0  0  0  0  0  0  0  0  0  0  0  0
  2  1  1  0
  3  2  2  0
  4  3  1  0
  5  4  2  0
  5 11  1  0
  6  5  1  0
  7  6  1  0
  7  9  1  0
  7  8  1  1
  9 10  2  0
 11 12  2  0
 12  2  1  0
 14 13  1  1
 14 16  1  0
 15 14  1  0
 16 17  1  1
 17  9  1  0
 18 16  1  0
 18 19  2  0
 20 21  1  0
 22 21  1  0
 22 23  1  0
 24 23  1  1
 24 25  1  0
 24 26  1  0
 25 18  1  0
 26 28  1  0
 27 26  2  0
M  END
$$$$
