YTM.pdb
     RDKit          3D

 28 28  0  0  1  0  0  0  0  0999 V2000
   13.5561  -23.1921   26.3590 O   0  0  0  0  0  0  0  0  0  0  0  0
   13.5936  -22.0182   25.6015 C   0  0  0  0  0  0  0  0  0  0  0  0
   14.7804  -21.5086   25.1234 C   0  0  0  0  0  0  0  0  0  0  0  0
   14.8313  -20.3558   24.3780 C   0  0  0  0  0  0  0  0  0  0  0  0
   13.6797  -19.6777   24.0902 C   0  0  0  0  0  0  0  0  0  0  0  0
   13.7659  -18.4368   23.2834 C   0  0  0  0  0  0  0  0  0  0  0  0
   12.9839  -18.5671   21.9838 C   0  0  2  0  0  0  0  0  0  0  0  0
   13.9084  -18.5435   20.9070 N   0  0  0  0  0  0  0  0  0  0  0  0
   11.9861  -17.4900   21.9664 C   0  0  0  0  0  0  0  0  0  0  0  0
   12.3665  -16.3323   21.6555 O   0  0  0  0  0  0  0  0  0  0  0  0
   12.4725  -20.1502   24.5472 C   0  0  0  0  0  0  0  0  0  0  0  0
   12.4542  -21.3027   25.2883 C   0  0  0  0  0  0  0  0  0  0  0  0
    8.9581  -17.2046   19.8749 C   0  0  0  0  0  0  0  0  0  0  0  0
    8.5228  -17.0111   21.3107 C   0  0  1  0  0  0  0  0  0  0  0  0
    8.0869  -18.2344   21.8608 O   0  0  0  0  0  0  0  0  0  0  0  0
    9.6745  -16.5541   22.1781 C   0  0  2  0  0  0  0  0  0  0  0  0
   10.6116  -17.6563   22.2761 N   0  0  0  0  0  0  0  0  0  0  0  0
    9.1294  -16.2302   23.5216 C   0  0  0  0  0  0  0  0  0  0  0  0
    9.2980  -16.9937   24.5102 O   0  0  0  0  0  0  0  0  0  0  0  0
    5.0442  -11.0034   27.7513 C   0  0  0  0  0  0  0  0  0  0  0  0
    5.6414  -11.3923   26.0744 S   0  0  0  0  0  0  0  0  0  0  0  0
    6.4497  -13.0000   26.1209 C   0  0  0  0  0  0  0  0  0  0  0  0
    7.0608  -13.3770   24.7722 C   0  0  0  0  0  0  0  0  0  0  0  0
    7.8149  -14.6735   25.0079 C   0  0  2  0  0  0  0  0  0  0  0  0
    8.3972  -15.0356   23.7194 N   0  0  0  0  0  0  0  0  0  0  0  0
    6.9112  -15.7719   25.4376 C   0  0  0  0  0  0  0  0  0  0  0  0
    6.3465  -16.4707   24.5714 O   0  0  0  0  0  0  0  0  0  0  0  0
    6.6647  -16.0582   26.7738 O   0  0  0  0  0  0  0  0  0  0  0  0
  2  1  1  0
  3  2  2  0
  4  3  1  0
  5  4  2  0
  5 11  1  0
  6  5  1  0
  7  6  1  0
  7  9  1  0
  7  8  1  6
  9 10  2  0
 11 12  2  0
 12  2  1  0
 14 13  1  6
 14 16  1  0
 15 14  1  0
 16 17  1  1
 17  9  1  0
 18 16  1  0
 18 19  2  0
 20 21  1  0
 22 21  1  0
 22 23  1  0
 24 23  1  6
 24 25  1  0
 24 26  1  0
 25 18  1  0
 26 28  1  0
 27 26  2  0
M  END
$$$$
