MLP.pdb
     RDKit          3D

 24 24  0  0  1  0  0  0  0  0999 V2000
   10.2157  -14.8960   29.0844 C   0  0  0  0  0  0  0  0  0  0  0  0
   10.8950  -16.5049   29.5273 S   0  0  0  0  0  0  0  0  0  0  0  0
    9.7195  -17.8424   29.1482 C   0  0  0  0  0  0  0  0  0  0  0  0
    9.3351  -17.7996   27.6944 C   0  0  0  0  0  0  0  0  0  0  0  0
    7.9916  -18.4218   27.4914 C   0  0  2  0  0  0  0  0  0  0  0  0
    8.0052  -19.8310   27.2505 N   0  0  0  0  0  0  0  0  0  0  0  0
    7.2419  -17.7050   26.4128 C   0  0  0  0  0  0  0  0  0  0  0  0
    7.0046  -18.3290   25.3220 O   0  0  0  0  0  0  0  0  0  0  0  0
    8.1671  -12.5500   25.4950 C   0  0  0  0  0  0  0  0  0  0  0  0
    6.6665  -12.8835   25.2929 C   0  0  2  0  0  0  0  0  0  0  0  0
    5.8971  -11.6591   25.6394 C   0  0  0  0  0  0  0  0  0  0  0  0
    6.3077  -14.0988   26.0845 C   0  0  0  0  0  0  0  0  0  0  0  0
    6.7992  -15.4096   25.5369 C   0  0  2  0  0  0  0  0  0  0  0  0
    6.8188  -16.3730   26.6204 N   0  0  0  0  0  0  0  0  0  0  0  0
    7.9721  -15.3777   24.6899 C   0  0  0  0  0  0  0  0  0  0  0  0
    9.0693  -15.7749   25.2295 O   0  0  0  0  0  0  0  0  0  0  0  0
    8.1010  -14.9676   23.3343 N   0  0  0  0  0  0  0  0  0  0  0  0
    7.5897  -13.8337   22.6085 C   0  0  0  0  0  0  0  0  0  0  0  0
    7.1277  -14.4842   21.3212 C   0  0  0  0  0  0  0  0  0  0  0  0
    7.9783  -15.7108   21.1430 C   0  0  0  0  0  0  0  0  0  0  0  0
    8.8845  -15.7039   22.3289 C   0  0  1  0  0  0  0  0  0  0  0  0
   10.1241  -14.9876   22.0535 C   0  0  0  0  0  0  0  0  0  0  0  0
   11.1466  -15.4263   21.2282 O   0  0  0  0  0  0  0  0  0  0  0  0
   10.3431  -13.8447   22.5923 O   0  0  0  0  0  0  0  0  0  0  0  0
  1  2  1  0
  2  3  1  0
  4  5  1  0
  4  3  1  0
  5  6  1  6
  7  8  2  0
  7  5  1  0
 10  9  1  1
 10 12  1  0
 11 10  1  0
 13 12  1  1
 13 14  1  0
 14  7  1  0
 15 13  1  0
 16 15  2  0
 17 21  1  0
 17 15  1  0
 18 17  1  0
 19 20  1  0
 19 18  1  0
 20 21  1  0
 21 22  1  6
 22 24  2  0
 22 23  1  0
M  END
$$$$
