MLP.pdb
     RDKit          3D

 24 24  0  0  1  0  0  0  0  0999 V2000
    8.1169  -11.7871   19.0400 C   0  0  0  0  0  0  0  0  0  0  0  0
    8.0150  -13.3589   18.1653 S   0  0  0  0  0  0  0  0  0  0  0  0
    8.4106  -14.7525   19.2679 C   0  0  0  0  0  0  0  0  0  0  0  0
    8.6209  -14.2593   20.6735 C   0  0  0  0  0  0  0  0  0  0  0  0
    8.8700  -15.4072   21.5974 C   0  0  2  0  0  0  0  0  0  0  0  0
    7.8348  -16.3928   21.6341 N   0  0  0  0  0  0  0  0  0  0  0  0
    9.1811  -14.9110   22.9743 C   0  0  0  0  0  0  0  0  0  0  0  0
   10.3397  -14.4151   23.1926 O   0  0  0  0  0  0  0  0  0  0  0  0
    7.6274  -11.7734   25.7099 C   0  0  0  0  0  0  0  0  0  0  0  0
    6.6092  -12.9292   25.5343 C   0  0  2  0  0  0  0  0  0  0  0  0
    5.3606  -12.5201   26.2308 C   0  0  0  0  0  0  0  0  0  0  0  0
    7.2096  -14.2096   26.0164 C   0  0  0  0  0  0  0  0  0  0  0  0
    8.4962  -14.6222   25.3575 C   0  0  2  0  0  0  0  0  0  0  0  0
    8.2019  -15.0001   23.9890 N   0  0  0  0  0  0  0  0  0  0  0  0
    9.3629  -15.5166   26.0943 C   0  0  0  0  0  0  0  0  0  0  0  0
    9.8148  -16.5288   25.4431 O   0  0  0  0  0  0  0  0  0  0  0  0
    9.7969  -15.4492   27.4469 N   0  0  0  0  0  0  0  0  0  0  0  0
    9.3150  -14.7136   28.5873 C   0  0  0  0  0  0  0  0  0  0  0  0
   10.6109  -14.2194   29.1958 C   0  0  0  0  0  0  0  0  0  0  0  0
   11.6671  -15.2108   28.7941 C   0  0  0  0  0  0  0  0  0  0  0  0
   10.9300  -16.2223   27.9809 C   0  0  1  0  0  0  0  0  0  0  0  0
   10.4311  -17.3153   28.8068 C   0  0  0  0  0  0  0  0  0  0  0  0
   11.2024  -18.3089   29.3873 O   0  0  0  0  0  0  0  0  0  0  0  0
    9.1770  -17.4172   29.0546 O   0  0  0  0  0  0  0  0  0  0  0  0
  1  2  1  0
  2  3  1  0
  4  5  1  0
  4  3  1  0
  5  6  1  1
  7  8  2  0
  7  5  1  0
 10  9  1  1
 10 12  1  0
 11 10  1  0
 13 12  1  1
 13 14  1  0
 14  7  1  0
 15 13  1  0
 16 15  2  0
 17 21  1  0
 17 15  1  0
 18 17  1  0
 19 20  1  0
 19 18  1  0
 20 21  1  0
 21 22  1  1
 22 24  2  0
 22 23  1  0
M  END
$$$$
