MLP.pdb
     RDKit          3D

 24 24  0  0  1  0  0  0  0  0999 V2000
    9.8495  -15.0766   30.0233 C   0  0  0  0  0  0  0  0  0  0  0  0
   10.6171  -16.6304   29.5307 S   0  0  0  0  0  0  0  0  0  0  0  0
    9.5112  -17.5994   28.4573 C   0  0  0  0  0  0  0  0  0  0  0  0
    8.4084  -16.7261   27.9240 C   0  0  0  0  0  0  0  0  0  0  0  0
    7.5232  -17.5055   27.0062 C   0  0  2  0  0  0  0  0  0  0  0  0
    8.0129  -18.7989   26.6436 N   0  0  0  0  0  0  0  0  0  0  0  0
    7.1955  -16.7001   25.7884 C   0  0  0  0  0  0  0  0  0  0  0  0
    6.6975  -17.3050   24.7776 O   0  0  0  0  0  0  0  0  0  0  0  0
    5.4834  -12.5976   26.3239 C   0  0  0  0  0  0  0  0  0  0  0  0
    7.0321  -12.6651   26.2913 C   0  0  2  0  0  0  0  0  0  0  0  0
    7.5360  -11.3444   26.7529 C   0  0  0  0  0  0  0  0  0  0  0  0
    7.4917  -13.0745   24.9298 C   0  0  0  0  0  0  0  0  0  0  0  0
    7.2888  -14.5209   24.5742 C   0  0  2  0  0  0  0  0  0  0  0  0
    7.4401  -15.3086   25.7821 N   0  0  0  0  0  0  0  0  0  0  0  0
    7.9708  -15.0179   23.3986 C   0  0  0  0  0  0  0  0  0  0  0  0
    8.6333  -16.1093   23.5493 O   0  0  0  0  0  0  0  0  0  0  0  0
    8.0236  -14.4774   22.0843 N   0  0  0  0  0  0  0  0  0  0  0  0
    7.6900  -13.1816   21.5516 C   0  0  0  0  0  0  0  0  0  0  0  0
    6.9465  -13.5588   20.2872 C   0  0  0  0  0  0  0  0  0  0  0  0
    7.4804  -14.9013   19.8719 C   0  0  0  0  0  0  0  0  0  0  0  0
    8.5011  -15.2272   20.9110 C   0  0  1  0  0  0  0  0  0  0  0  0
    9.8255  -14.7506   20.5311 C   0  0  0  0  0  0  0  0  0  0  0  0
   10.6522  -15.3278   19.5811 O   0  0  0  0  0  0  0  0  0  0  0  0
   10.3215  -13.7081   21.0896 O   0  0  0  0  0  0  0  0  0  0  0  0
  1  2  1  0
  2  3  1  0
  4  5  1  0
  4  3  1  0
  5  6  1  6
  7  8  2  0
  7  5  1  0
 10  9  1  6
 10 12  1  0
 11 10  1  0
 13 12  1  1
 13 14  1  0
 14  7  1  0
 15 13  1  0
 16 15  2  0
 17 21  1  0
 17 15  1  0
 18 17  1  0
 19 20  1  0
 19 18  1  0
 20 21  1  0
 21 22  1  6
 22 24  2  0
 22 23  1  0
M  END
$$$$
