MLP.pdb
     RDKit          3D

 24 24  0  0  1  0  0  0  0  0999 V2000
    6.6329  -20.2849   23.6422 C   0  0  0  0  0  0  0  0  0  0  0  0
    8.3183  -20.4589   23.0296 S   0  0  0  0  0  0  0  0  0  0  0  0
    8.9611  -18.8715   22.4120 C   0  0  0  0  0  0  0  0  0  0  0  0
    7.8241  -17.9413   22.0881 C   0  0  0  0  0  0  0  0  0  0  0  0
    8.3466  -16.6206   21.6233 C   0  0  2  0  0  0  0  0  0  0  0  0
    9.3689  -16.6890   20.6260 N   0  0  0  0  0  0  0  0  0  0  0  0
    8.7953  -15.7971   22.7893 C   0  0  0  0  0  0  0  0  0  0  0  0
   10.0469  -15.7415   23.0465 O   0  0  0  0  0  0  0  0  0  0  0  0
    5.9408  -12.4677   27.1462 C   0  0  0  0  0  0  0  0  0  0  0  0
    7.3096  -12.7871   26.4919 C   0  0  2  0  0  0  0  0  0  0  0  0
    8.0306  -11.4959   26.3366 C   0  0  0  0  0  0  0  0  0  0  0  0
    7.0984  -13.5479   25.2234 C   0  0  0  0  0  0  0  0  0  0  0  0
    8.1969  -14.4977   24.8352 C   0  0  2  0  0  0  0  0  0  0  0  0
    7.8396  -15.1087   23.5697 N   0  0  0  0  0  0  0  0  0  0  0  0
    8.6939  -15.3925   25.8582 C   0  0  0  0  0  0  0  0  0  0  0  0
    8.3434  -16.6246   25.7495 O   0  0  0  0  0  0  0  0  0  0  0  0
    9.5202  -15.1155   26.9820 N   0  0  0  0  0  0  0  0  0  0  0  0
    9.7222  -13.9281   27.7714 C   0  0  0  0  0  0  0  0  0  0  0  0
   11.2290  -13.9216   27.9243 C   0  0  0  0  0  0  0  0  0  0  0  0
   11.6668  -15.3560   27.8209 C   0  0  0  0  0  0  0  0  0  0  0  0
   10.3967  -16.1131   27.6173 C   0  0  1  0  0  0  0  0  0  0  0  0
    9.8159  -16.5385   28.8850 C   0  0  0  0  0  0  0  0  0  0  0  0
   10.3074  -17.5410   29.7051 O   0  0  0  0  0  0  0  0  0  0  0  0
    8.7573  -15.9702   29.3336 O   0  0  0  0  0  0  0  0  0  0  0  0
  1  2  1  0
  2  3  1  0
  4  5  1  0
  4  3  1  0
  5  6  1  6
  7  8  2  0
  7  5  1  0
 10  9  1  6
 10 12  1  0
 11 10  1  0
 13 12  1  1
 13 14  1  0
 14  7  1  0
 15 13  1  0
 16 15  2  0
 17 21  1  0
 17 15  1  0
 18 17  1  0
 19 20  1  0
 19 18  1  0
 20 21  1  0
 21 22  1  1
 22 24  2  0
 22 23  1  0
M  END
$$$$
