MLP.pdb
     RDKit          3D

 24 24  0  0  1  0  0  0  0  0999 V2000
    6.2577  -20.7484   23.8618 C   0  0  0  0  0  0  0  0  0  0  0  0
    7.0409  -20.8086   22.2402 S   0  0  0  0  0  0  0  0  0  0  0  0
    7.3620  -19.1342   21.6019 C   0  0  0  0  0  0  0  0  0  0  0  0
    7.5535  -18.1715   22.7420 C   0  0  0  0  0  0  0  0  0  0  0  0
    7.6042  -16.7665   22.2355 C   0  0  2  0  0  0  0  0  0  0  0  0
    8.2195  -16.6043   20.9551 N   0  0  0  0  0  0  0  0  0  0  0  0
    8.2411  -15.8688   23.2492 C   0  0  0  0  0  0  0  0  0  0  0  0
    9.4800  -15.5824   23.1120 O   0  0  0  0  0  0  0  0  0  0  0  0
    7.5722  -11.7897   25.1710 C   0  0  0  0  0  0  0  0  0  0  0  0
    6.4683  -12.8324   25.4843 C   0  0  2  0  0  0  0  0  0  0  0  0
    5.3798  -12.1138   26.1985 C   0  0  0  0  0  0  0  0  0  0  0  0
    7.0584  -13.9847   26.2303 C   0  0  0  0  0  0  0  0  0  0  0  0
    8.0963  -14.7838   25.4929 C   0  0  2  0  0  0  0  0  0  0  0  0
    7.4706  -15.3646   24.3209 N   0  0  0  0  0  0  0  0  0  0  0  0
    8.9325  -15.6690   26.2747 C   0  0  0  0  0  0  0  0  0  0  0  0
    8.9985  -16.8874   25.8698 O   0  0  0  0  0  0  0  0  0  0  0  0
    9.7020  -15.3963   27.4392 N   0  0  0  0  0  0  0  0  0  0  0  0
    9.6169  -14.3659   28.4417 C   0  0  0  0  0  0  0  0  0  0  0  0
   11.0740  -13.9880   28.6087 C   0  0  0  0  0  0  0  0  0  0  0  0
   11.8685  -15.2095   28.2394 C   0  0  0  0  0  0  0  0  0  0  0  0
   10.8347  -16.2252   27.8826 C   0  0  1  0  0  0  0  0  0  0  0  0
   10.4380  -17.0174   29.0404 C   0  0  0  0  0  0  0  0  0  0  0  0
   11.2142  -17.9770   29.6695 O   0  0  0  0  0  0  0  0  0  0  0  0
    9.2808  -16.8547   29.5686 O   0  0  0  0  0  0  0  0  0  0  0  0
  1  2  1  0
  2  3  1  0
  4  5  1  0
  4  3  1  0
  5  6  1  6
  7  8  2  0
  7  5  1  0
 10  9  1  1
 10 12  1  0
 11 10  1  0
 13 12  1  1
 13 14  1  0
 14  7  1  0
 15 13  1  0
 16 15  2  0
 17 21  1  0
 17 15  1  0
 18 17  1  0
 19 20  1  0
 19 18  1  0
 20 21  1  0
 21 22  1  1
 22 24  2  0
 22 23  1  0
M  END
$$$$
