MLP.pdb
     RDKit          3D

 24 24  0  0  1  0  0  0  0  0999 V2000
   10.6613  -14.9482   29.3046 C   0  0  0  0  0  0  0  0  0  0  0  0
   10.8529  -16.7286   29.5032 S   0  0  0  0  0  0  0  0  0  0  0  0
    9.4445  -17.6268   28.7794 C   0  0  0  0  0  0  0  0  0  0  0  0
    8.9183  -16.8876   27.5795 C   0  0  0  0  0  0  0  0  0  0  0  0
    7.6492  -17.5123   27.0971 C   0  0  2  0  0  0  0  0  0  0  0  0
    7.7360  -18.9068   26.7935 N   0  0  0  0  0  0  0  0  0  0  0  0
    7.1004  -16.7478   25.9338 C   0  0  0  0  0  0  0  0  0  0  0  0
    6.4542  -17.3904   25.0365 O   0  0  0  0  0  0  0  0  0  0  0  0
    5.1612  -12.7495   26.1179 C   0  0  0  0  0  0  0  0  0  0  0  0
    6.7102  -12.7267   26.1817 C   0  0  2  0  0  0  0  0  0  0  0  0
    7.1090  -11.3585   26.6061 C   0  0  0  0  0  0  0  0  0  0  0  0
    7.2767  -13.1710   24.8724 C   0  0  0  0  0  0  0  0  0  0  0  0
    7.2049  -14.6459   24.5910 C   0  0  2  0  0  0  0  0  0  0  0  0
    7.3053  -15.3521   25.8533 N   0  0  0  0  0  0  0  0  0  0  0  0
    8.0178  -15.1558   23.5078 C   0  0  0  0  0  0  0  0  0  0  0  0
    8.8143  -16.1201   23.8053 O   0  0  0  0  0  0  0  0  0  0  0  0
    8.0741  -14.7485   22.1465 N   0  0  0  0  0  0  0  0  0  0  0  0
    7.5809  -13.5831   21.4590 C   0  0  0  0  0  0  0  0  0  0  0  0
    6.9903  -14.1996   20.2080 C   0  0  0  0  0  0  0  0  0  0  0  0
    7.7514  -15.4739   19.9696 C   0  0  0  0  0  0  0  0  0  0  0  0
    8.7386  -15.5259   21.0878 C   0  0  1  0  0  0  0  0  0  0  0  0
    9.9960  -14.8835   20.7246 C   0  0  0  0  0  0  0  0  0  0  0  0
   10.5023  -13.7211   21.2827 O   0  0  0  0  0  0  0  0  0  0  0  0
   10.7434  -15.3942   19.8162 O   0  0  0  0  0  0  0  0  0  0  0  0
  1  2  1  0
  2  3  1  0
  4  5  1  0
  4  3  1  0
  5  6  1  6
  7  8  2  0
  7  5  1  0
 10  9  1  6
 10 12  1  0
 11 10  1  0
 13 12  1  1
 13 14  1  0
 14  7  1  0
 15 13  1  0
 16 15  2  0
 17 21  1  0
 17 15  1  0
 18 17  1  0
 19 20  1  0
 19 18  1  0
 20 21  1  0
 21 22  1  6
 22 24  2  0
 22 23  1  0
M  END
$$$$
