MLP.pdb
     RDKit          3D

 24 24  0  0  1  0  0  0  0  0999 V2000
    9.1017  -20.7895   23.1055 C   0  0  0  0  0  0  0  0  0  0  0  0
    9.5761  -20.6355   21.3742 S   0  0  0  0  0  0  0  0  0  0  0  0
    9.3271  -18.9354   20.7725 C   0  0  0  0  0  0  0  0  0  0  0  0
    9.6061  -17.9486   21.8733 C   0  0  0  0  0  0  0  0  0  0  0  0
    9.3275  -16.5559   21.4084 C   0  0  2  0  0  0  0  0  0  0  0  0
   10.1009  -16.1242   20.2861 N   0  0  0  0  0  0  0  0  0  0  0  0
    9.4548  -15.5910   22.5450 C   0  0  0  0  0  0  0  0  0  0  0  0
   10.6041  -15.0830   22.7830 O   0  0  0  0  0  0  0  0  0  0  0  0
    5.6663  -12.9867   26.6411 C   0  0  0  0  0  0  0  0  0  0  0  0
    7.1268  -13.0477   26.1242 C   0  0  2  0  0  0  0  0  0  0  0  0
    7.6145  -11.6462   26.0286 C   0  0  0  0  0  0  0  0  0  0  0  0
    7.1792  -13.8220   24.8474 C   0  0  0  0  0  0  0  0  0  0  0  0
    8.4430  -14.5972   24.5994 C   0  0  2  0  0  0  0  0  0  0  0  0
    8.3184  -15.2670   23.3195 N   0  0  0  0  0  0  0  0  0  0  0  0
    8.9570  -15.3966   25.6907 C   0  0  0  0  0  0  0  0  0  0  0  0
    8.9219  -16.6706   25.5227 O   0  0  0  0  0  0  0  0  0  0  0  0
    9.5009  -14.9851   26.9386 N   0  0  0  0  0  0  0  0  0  0  0  0
    9.1995  -13.8825   27.8146 C   0  0  0  0  0  0  0  0  0  0  0  0
   10.5882  -13.4086   28.1900 C   0  0  0  0  0  0  0  0  0  0  0  0
   11.4862  -14.6084   28.0726 C   0  0  0  0  0  0  0  0  0  0  0  0
   10.5742  -15.7080   27.6402 C   0  0  1  0  0  0  0  0  0  0  0  0
   10.0174  -16.4240   28.7817 C   0  0  0  0  0  0  0  0  0  0  0  0
   10.7041  -17.3106   29.5948 O   0  0  0  0  0  0  0  0  0  0  0  0
    8.7895  -16.2574   29.1122 O   0  0  0  0  0  0  0  0  0  0  0  0
  1  2  1  0
  2  3  1  0
  4  5  1  0
  4  3  1  0
  5  6  1  6
  7  8  2  0
  7  5  1  0
 10  9  1  6
 10 12  1  0
 11 10  1  0
 13 12  1  1
 13 14  1  0
 14  7  1  0
 15 13  1  0
 16 15  2  0
 17 21  1  0
 17 15  1  0
 18 17  1  0
 19 20  1  0
 19 18  1  0
 20 21  1  0
 21 22  1  1
 22 24  2  0
 22 23  1  0
M  END
$$$$
