MLP.pdb
     RDKit          3D

 24 24  0  0  1  0  0  0  0  0999 V2000
    6.4334  -21.3151   27.0212 C   0  0  0  0  0  0  0  0  0  0  0  0
    5.8035  -22.1764   25.5694 S   0  0  0  0  0  0  0  0  0  0  0  0
    5.5945  -21.0352   24.1664 C   0  0  0  0  0  0  0  0  0  0  0  0
    6.2295  -19.7074   24.4777 C   0  0  0  0  0  0  0  0  0  0  0  0
    5.9130  -18.7140   23.4072 C   0  0  2  0  0  0  0  0  0  0  0  0
    5.9722  -19.2209   22.0716 N   0  0  0  0  0  0  0  0  0  0  0  0
    6.7724  -17.4977   23.5531 C   0  0  0  0  0  0  0  0  0  0  0  0
    7.8790  -17.4570   22.9131 O   0  0  0  0  0  0  0  0  0  0  0  0
    6.3674  -12.3397   26.9148 C   0  0  0  0  0  0  0  0  0  0  0  0
    7.2832  -13.1417   25.9547 C   0  0  2  0  0  0  0  0  0  0  0  0
    7.8972  -12.1629   25.0185 C   0  0  0  0  0  0  0  0  0  0  0  0
    6.4986  -14.2325   25.3012 C   0  0  0  0  0  0  0  0  0  0  0  0
    7.2828  -15.4416   24.8736 C   0  0  2  0  0  0  0  0  0  0  0  0
    6.3484  -16.4359   24.3832 N   0  0  0  0  0  0  0  0  0  0  0  0
    8.3097  -15.9200   25.7741 C   0  0  0  0  0  0  0  0  0  0  0  0
    7.9142  -16.6942   26.7211 O   0  0  0  0  0  0  0  0  0  0  0  0
    9.7080  -15.6612   25.7745 N   0  0  0  0  0  0  0  0  0  0  0  0
   10.5089  -14.6438   25.1442 C   0  0  0  0  0  0  0  0  0  0  0  0
   11.6744  -15.4585   24.6232 C   0  0  0  0  0  0  0  0  0  0  0  0
   11.7869  -16.6543   25.5272 C   0  0  0  0  0  0  0  0  0  0  0  0
   10.6880  -16.4680   26.5199 C   0  0  1  0  0  0  0  0  0  0  0  0
   11.1420  -15.7279   27.6911 C   0  0  0  0  0  0  0  0  0  0  0  0
   10.7120  -14.4663   28.0686 O   0  0  0  0  0  0  0  0  0  0  0  0
   12.0137  -16.2394   28.4805 O   0  0  0  0  0  0  0  0  0  0  0  0
  1  2  1  0
  2  3  1  0
  4  5  1  0
  4  3  1  0
  5  6  1  6
  7  8  2  0
  7  5  1  0
 10  9  1  1
 10 12  1  0
 11 10  1  0
 13 12  1  1
 13 14  1  0
 14  7  1  0
 15 13  1  0
 16 15  2  0
 17 21  1  0
 17 15  1  0
 18 17  1  0
 19 20  1  0
 19 18  1  0
 20 21  1  0
 21 22  1  1
 22 24  2  0
 22 23  1  0
M  END
$$$$
