MLP.pdb
     RDKit          3D

 24 24  0  0  1  0  0  0  0  0999 V2000
    9.7886  -18.5657   28.8748 C   0  0  0  0  0  0  0  0  0  0  0  0
    8.6844  -19.9469   29.2204 S   0  0  0  0  0  0  0  0  0  0  0  0
    7.2038  -19.8862   28.1627 C   0  0  0  0  0  0  0  0  0  0  0  0
    7.4119  -18.9147   27.0330 C   0  0  0  0  0  0  0  0  0  0  0  0
    6.1438  -18.7290   26.2645 C   0  0  2  0  0  0  0  0  0  0  0  0
    5.6888  -19.8841   25.5552 N   0  0  0  0  0  0  0  0  0  0  0  0
    6.2568  -17.5520   25.3474 C   0  0  0  0  0  0  0  0  0  0  0  0
    5.9882  -17.7208   24.1084 O   0  0  0  0  0  0  0  0  0  0  0  0
    5.7093  -12.6596   25.1451 C   0  0  0  0  0  0  0  0  0  0  0  0
    6.3959  -13.3617   26.3449 C   0  0  2  0  0  0  0  0  0  0  0  0
    6.6616  -12.3160   27.3683 C   0  0  0  0  0  0  0  0  0  0  0  0
    7.6041  -14.1033   25.8729 C   0  0  0  0  0  0  0  0  0  0  0  0
    7.3414  -15.3250   25.0373 C   0  0  2  0  0  0  0  0  0  0  0  0
    6.6526  -16.2975   25.8632 N   0  0  0  0  0  0  0  0  0  0  0  0
    8.4354  -15.8291   24.2354 C   0  0  0  0  0  0  0  0  0  0  0  0
    9.0268  -16.8790   24.6834 O   0  0  0  0  0  0  0  0  0  0  0  0
    8.9661  -15.3349   23.0121 N   0  0  0  0  0  0  0  0  0  0  0  0
    8.7890  -14.0918   22.3070 C   0  0  0  0  0  0  0  0  0  0  0  0
    8.6260  -14.5755   20.8811 C   0  0  0  0  0  0  0  0  0  0  0  0
    9.3617  -15.8837   20.7959 C   0  0  0  0  0  0  0  0  0  0  0  0
    9.9109  -16.0855   22.1690 C   0  0  1  0  0  0  0  0  0  0  0  0
   11.2460  -15.5153   22.3026 C   0  0  0  0  0  0  0  0  0  0  0  0
   12.4012  -16.0136   21.7226 O   0  0  0  0  0  0  0  0  0  0  0  0
   11.4295  -14.4579   23.0047 O   0  0  0  0  0  0  0  0  0  0  0  0
  1  2  1  0
  2  3  1  0
  4  5  1  0
  4  3  1  0
  5  6  1  6
  7  8  2  0
  7  5  1  0
 10  9  1  6
 10 12  1  0
 11 10  1  0
 13 12  1  1
 13 14  1  0
 14  7  1  0
 15 13  1  0
 16 15  2  0
 17 21  1  0
 17 15  1  0
 18 17  1  0
 19 20  1  0
 19 18  1  0
 20 21  1  0
 21 22  1  6
 22 24  2  0
 22 23  1  0
M  END
$$$$
