MLP.pdb
     RDKit          3D

 24 24  0  0  1  0  0  0  0  0999 V2000
    7.7171  -19.7973   28.7059 C   0  0  0  0  0  0  0  0  0  0  0  0
    6.5261  -21.1146   28.4020 S   0  0  0  0  0  0  0  0  0  0  0  0
    6.3946  -21.4856   26.6246 C   0  0  0  0  0  0  0  0  0  0  0  0
    5.8509  -20.2943   25.8840 C   0  0  0  0  0  0  0  0  0  0  0  0
    6.9682  -19.4520   25.3591 C   0  0  2  0  0  0  0  0  0  0  0  0
    8.0449  -19.2327   26.2738 N   0  0  0  0  0  0  0  0  0  0  0  0
    6.4412  -18.1527   24.8364 C   0  0  0  0  0  0  0  0  0  0  0  0
    5.5190  -18.1848   23.9508 O   0  0  0  0  0  0  0  0  0  0  0  0
    8.3086  -13.5079   26.3383 C   0  0  0  0  0  0  0  0  0  0  0  0
    7.0067  -13.3504   25.5112 C   0  0  2  0  0  0  0  0  0  0  0  0
    6.2459  -12.2198   26.1066 C   0  0  0  0  0  0  0  0  0  0  0  0
    6.2733  -14.6515   25.4701 C   0  0  0  0  0  0  0  0  0  0  0  0
    6.8528  -15.7051   24.5680 C   0  0  2  0  0  0  0  0  0  0  0  0
    6.9668  -16.9359   25.3259 N   0  0  0  0  0  0  0  0  0  0  0  0
    8.0031  -15.3376   23.7707 C   0  0  0  0  0  0  0  0  0  0  0  0
    9.1206  -15.8747   24.1106 O   0  0  0  0  0  0  0  0  0  0  0  0
    8.0904  -14.4605   22.6547 N   0  0  0  0  0  0  0  0  0  0  0  0
    7.5198  -13.1653   22.3889 C   0  0  0  0  0  0  0  0  0  0  0  0
    7.0615  -13.3273   20.9544 C   0  0  0  0  0  0  0  0  0  0  0  0
    7.9584  -14.3674   20.3431 C   0  0  0  0  0  0  0  0  0  0  0  0
    8.8851  -14.7483   21.4495 C   0  0  1  0  0  0  0  0  0  0  0  0
   10.0890  -13.9260   21.4489 C   0  0  0  0  0  0  0  0  0  0  0  0
   11.1322  -14.0183   20.5421 O   0  0  0  0  0  0  0  0  0  0  0  0
   10.2521  -13.0190   22.3408 O   0  0  0  0  0  0  0  0  0  0  0  0
  1  2  1  0
  2  3  1  0
  4  5  1  0
  4  3  1  0
  5  6  1  1
  7  8  2  0
  7  5  1  0
 10  9  1  1
 10 12  1  0
 11 10  1  0
 13 12  1  1
 13 14  1  0
 14  7  1  0
 15 13  1  0
 16 15  2  0
 17 21  1  0
 17 15  1  0
 18 17  1  0
 19 20  1  0
 19 18  1  0
 20 21  1  0
 21 22  1  1
 22 24  2  0
 22 23  1  0
M  END
$$$$
