MLP.pdb
     RDKit          3D

 24 24  0  0  1  0  0  0  0  0999 V2000
   10.0652  -14.3735   29.0217 C   0  0  0  0  0  0  0  0  0  0  0  0
   11.0235  -15.7974   29.5700 S   0  0  0  0  0  0  0  0  0  0  0  0
   10.1827  -17.3570   29.1517 C   0  0  0  0  0  0  0  0  0  0  0  0
    8.7921  -17.0790   28.6494 C   0  0  0  0  0  0  0  0  0  0  0  0
    8.5765  -17.7319   27.3226 C   0  0  2  0  0  0  0  0  0  0  0  0
    9.7664  -18.1628   26.6573 N   0  0  0  0  0  0  0  0  0  0  0  0
    7.7597  -16.8486   26.4327 C   0  0  0  0  0  0  0  0  0  0  0  0
    6.5133  -17.1043   26.3036 O   0  0  0  0  0  0  0  0  0  0  0  0
    5.7759  -13.3217   26.1973 C   0  0  0  0  0  0  0  0  0  0  0  0
    7.3105  -13.1124   26.1276 C   0  0  2  0  0  0  0  0  0  0  0  0
    7.5652  -11.6679   26.3726 C   0  0  0  0  0  0  0  0  0  0  0  0
    7.8333  -13.6333   24.8285 C   0  0  0  0  0  0  0  0  0  0  0  0
    7.7413  -15.1206   24.6311 C   0  0  2  0  0  0  0  0  0  0  0  0
    8.3750  -15.7667   25.7640 N   0  0  0  0  0  0  0  0  0  0  0  0
    8.0859  -15.6401   23.3252 C   0  0  0  0  0  0  0  0  0  0  0  0
    8.4991  -16.8570   23.2926 O   0  0  0  0  0  0  0  0  0  0  0  0
    8.0392  -15.0031   22.0545 N   0  0  0  0  0  0  0  0  0  0  0  0
    7.6639  -13.6741   21.6462 C   0  0  0  0  0  0  0  0  0  0  0  0
    6.8289  -13.9622   20.4159 C   0  0  0  0  0  0  0  0  0  0  0  0
    7.3333  -15.2660   19.8632 C   0  0  0  0  0  0  0  0  0  0  0  0
    8.4295  -15.6601   20.7964 C   0  0  1  0  0  0  0  0  0  0  0  0
    9.7207  -15.1463   20.3558 C   0  0  0  0  0  0  0  0  0  0  0  0
   10.4762  -15.6460   19.3076 O   0  0  0  0  0  0  0  0  0  0  0  0
   10.2540  -14.1433   20.9510 O   0  0  0  0  0  0  0  0  0  0  0  0
  1  2  1  0
  2  3  1  0
  4  5  1  0
  4  3  1  0
  5  6  1  6
  7  8  2  0
  7  5  1  0
 10  9  1  6
 10 12  1  0
 11 10  1  0
 13 12  1  6
 13 14  1  0
 14  7  1  0
 15 13  1  0
 16 15  2  0
 17 21  1  0
 17 15  1  0
 18 17  1  0
 19 20  1  0
 19 18  1  0
 20 21  1  0
 21 22  1  6
 22 24  2  0
 22 23  1  0
M  END
$$$$
