MLP.pdb
     RDKit          3D

 24 24  0  0  1  0  0  0  0  0999 V2000
    8.1391  -20.7101   22.5849 C   0  0  0  0  0  0  0  0  0  0  0  0
    8.9191  -20.1396   21.0642 S   0  0  0  0  0  0  0  0  0  0  0  0
    8.5406  -18.3871   20.7478 C   0  0  0  0  0  0  0  0  0  0  0  0
    9.0642  -17.5319   21.8693 C   0  0  0  0  0  0  0  0  0  0  0  0
    8.6078  -16.1185   21.7043 C   0  0  2  0  0  0  0  0  0  0  0  0
    9.0718  -15.4648   20.5204 N   0  0  0  0  0  0  0  0  0  0  0  0
    8.9442  -15.3159   22.9216 C   0  0  0  0  0  0  0  0  0  0  0  0
   10.0927  -14.7565   22.9806 O   0  0  0  0  0  0  0  0  0  0  0  0
    7.4426  -11.8033   25.1514 C   0  0  0  0  0  0  0  0  0  0  0  0
    6.4713  -13.0085   25.2408 C   0  0  2  0  0  0  0  0  0  0  0  0
    5.2279  -12.5190   25.8935 C   0  0  0  0  0  0  0  0  0  0  0  0
    7.1421  -14.1479   25.9366 C   0  0  0  0  0  0  0  0  0  0  0  0
    8.3754  -14.6912   25.2707 C   0  0  2  0  0  0  0  0  0  0  0  0
    7.9986  -15.1956   23.9646 N   0  0  0  0  0  0  0  0  0  0  0  0
    9.2355  -15.5455   26.0610 C   0  0  0  0  0  0  0  0  0  0  0  0
    9.5993  -16.6474   25.5078 O   0  0  0  0  0  0  0  0  0  0  0  0
    9.7463  -15.3528   27.3742 N   0  0  0  0  0  0  0  0  0  0  0  0
    9.3169  -14.5270   28.4732 C   0  0  0  0  0  0  0  0  0  0  0  0
   10.6358  -13.9617   28.9576 C   0  0  0  0  0  0  0  0  0  0  0  0
   11.6867  -14.9685   28.5810 C   0  0  0  0  0  0  0  0  0  0  0  0
   10.9241  -16.0587   27.9045 C   0  0  1  0  0  0  0  0  0  0  0  0
   10.4965  -17.0822   28.8507 C   0  0  0  0  0  0  0  0  0  0  0  0
   11.3200  -18.0106   29.4663 O   0  0  0  0  0  0  0  0  0  0  0  0
    9.2617  -17.1793   29.1829 O   0  0  0  0  0  0  0  0  0  0  0  0
  1  2  1  0
  2  3  1  0
  4  5  1  0
  4  3  1  0
  5  6  1  6
  7  8  2  0
  7  5  1  0
 10  9  1  1
 10 12  1  0
 11 10  1  0
 13 12  1  1
 13 14  1  0
 14  7  1  0
 15 13  1  0
 16 15  2  0
 17 21  1  0
 17 15  1  0
 18 17  1  0
 19 20  1  0
 19 18  1  0
 20 21  1  0
 21 22  1  1
 22 24  2  0
 22 23  1  0
M  END
$$$$
