MLP.pdb
     RDKit          3D

 24 24  0  0  1  0  0  0  0  0999 V2000
    8.3168  -18.8539   28.9941 C   0  0  0  0  0  0  0  0  0  0  0  0
    7.2171  -19.2602   27.6260 S   0  0  0  0  0  0  0  0  0  0  0  0
    8.1288  -20.0456   26.2598 C   0  0  0  0  0  0  0  0  0  0  0  0
    7.2432  -20.1743   25.0506 C   0  0  0  0  0  0  0  0  0  0  0  0
    5.9541  -19.4504   25.2686 C   0  0  2  0  0  0  0  0  0  0  0  0
    4.7915  -20.1171   24.7705 N   0  0  0  0  0  0  0  0  0  0  0  0
    6.0402  -18.0571   24.7296 C   0  0  0  0  0  0  0  0  0  0  0  0
    5.8853  -17.8830   23.4720 O   0  0  0  0  0  0  0  0  0  0  0  0
    8.3000  -12.9411   26.6210 C   0  0  0  0  0  0  0  0  0  0  0  0
    6.9579  -13.2834   25.9244 C   0  0  2  0  0  0  0  0  0  0  0  0
    5.9737  -12.2497   26.3421 C   0  0  0  0  0  0  0  0  0  0  0  0
    6.5677  -14.6903   26.2421 C   0  0  0  0  0  0  0  0  0  0  0  0
    6.6865  -15.6767   25.1141 C   0  0  2  0  0  0  0  0  0  0  0  0
    6.2874  -16.9796   25.6095 N   0  0  0  0  0  0  0  0  0  0  0  0
    7.8974  -15.6382   24.3227 C   0  0  0  0  0  0  0  0  0  0  0  0
    8.8513  -16.4069   24.7125 O   0  0  0  0  0  0  0  0  0  0  0  0
    8.2005  -14.8696   23.1652 N   0  0  0  0  0  0  0  0  0  0  0  0
    7.7716  -13.5680   22.7225 C   0  0  0  0  0  0  0  0  0  0  0  0
    7.4987  -13.8245   21.2550 C   0  0  0  0  0  0  0  0  0  0  0  0
    8.3871  -14.9703   20.8578 C   0  0  0  0  0  0  0  0  0  0  0  0
    9.1251  -15.3128   22.1091 C   0  0  1  0  0  0  0  0  0  0  0  0
   10.3777  -14.5740   22.2133 C   0  0  0  0  0  0  0  0  0  0  0  0
   10.7010  -13.6641   23.2065 O   0  0  0  0  0  0  0  0  0  0  0  0
   11.3006  -14.7408   21.3386 O   0  0  0  0  0  0  0  0  0  0  0  0
  1  2  1  0
  2  3  1  0
  4  5  1  0
  4  3  1  0
  5  6  1  6
  7  8  2  0
  7  5  1  0
 10  9  1  1
 10 12  1  0
 11 10  1  0
 13 12  1  1
 13 14  1  0
 14  7  1  0
 15 13  1  0
 16 15  2  0
 17 21  1  0
 17 15  1  0
 18 17  1  0
 19 20  1  0
 19 18  1  0
 20 21  1  0
 21 22  1  6
 22 24  2  0
 22 23  1  0
M  END
$$$$
