MLP.pdb
     RDKit          3D

 24 24  0  0  1  0  0  0  0  0999 V2000
    8.4930  -11.4030   19.5739 C   0  0  0  0  0  0  0  0  0  0  0  0
    7.4786  -12.8204   19.1177 S   0  0  0  0  0  0  0  0  0  0  0  0
    7.4865  -14.0842   20.4281 C   0  0  0  0  0  0  0  0  0  0  0  0
    8.7699  -14.8678   20.3863 C   0  0  0  0  0  0  0  0  0  0  0  0
    8.8051  -15.8708   21.4936 C   0  0  2  0  0  0  0  0  0  0  0  0
    7.6461  -16.7017   21.5973 N   0  0  0  0  0  0  0  0  0  0  0  0
    9.0957  -15.1981   22.7983 C   0  0  0  0  0  0  0  0  0  0  0  0
   10.1978  -14.5606   22.9193 O   0  0  0  0  0  0  0  0  0  0  0  0
    7.6019  -11.9677   25.5691 C   0  0  0  0  0  0  0  0  0  0  0  0
    6.5691  -13.1139   25.4164 C   0  0  2  0  0  0  0  0  0  0  0  0
    5.3533  -12.7087   26.1707 C   0  0  0  0  0  0  0  0  0  0  0  0
    7.1798  -14.4061   25.8519 C   0  0  0  0  0  0  0  0  0  0  0  0
    8.4700  -14.7838   25.1792 C   0  0  2  0  0  0  0  0  0  0  0  0
    8.1593  -15.2810   23.8531 N   0  0  0  0  0  0  0  0  0  0  0  0
    9.4164  -15.5634   25.9477 C   0  0  0  0  0  0  0  0  0  0  0  0
    9.9830  -16.5359   25.3265 O   0  0  0  0  0  0  0  0  0  0  0  0
    9.8212  -15.4192   27.3033 N   0  0  0  0  0  0  0  0  0  0  0  0
    9.2762  -14.6711   28.4066 C   0  0  0  0  0  0  0  0  0  0  0  0
   10.5295  -14.0780   29.0159 C   0  0  0  0  0  0  0  0  0  0  0  0
   11.6494  -15.0191   28.6696 C   0  0  0  0  0  0  0  0  0  0  0  0
   10.9881  -16.1028   27.8847 C   0  0  1  0  0  0  0  0  0  0  0  0
   10.5397  -17.1916   28.7443 C   0  0  0  0  0  0  0  0  0  0  0  0
    9.2212  -17.5323   28.9984 O   0  0  0  0  0  0  0  0  0  0  0  0
   11.3952  -17.9357   29.3435 O   0  0  0  0  0  0  0  0  0  0  0  0
  1  2  1  0
  2  3  1  0
  4  5  1  0
  4  3  1  0
  5  6  1  1
  7  8  2  0
  7  5  1  0
 10  9  1  1
 10 12  1  0
 11 10  1  0
 13 12  1  1
 13 14  1  0
 14  7  1  0
 15 13  1  0
 16 15  2  0
 17 21  1  0
 17 15  1  0
 18 17  1  0
 19 20  1  0
 19 18  1  0
 20 21  1  0
 21 22  1  1
 22 24  2  0
 22 23  1  0
M  END
$$$$
