KMN.pdb
     RDKit          3D

 26 25  0  0  1  0  0  0  0  0999 V2000
    7.5037  -17.0137   21.1650 N   0  0  0  0  0  0  0  0  0  0  0  0
    8.8853  -16.6514   21.1043 C   0  0  1  0  0  0  0  0  0  0  0  0
    9.2496  -16.0779   19.7764 C   0  0  0  0  0  0  0  0  0  0  0  0
    8.3139  -15.0437   19.2607 C   0  0  0  0  0  0  0  0  0  0  0  0
    8.6885  -14.5343   17.9222 C   0  0  0  0  0  0  0  0  0  0  0  0
    7.8044  -13.3671   17.4813 C   0  0  0  0  0  0  0  0  0  0  0  0
    8.1596  -12.8727   16.1926 N   0  0  0  0  0  0  0  0  0  0  0  0
    9.2162  -15.7166   22.2241 C   0  0  0  0  0  0  0  0  0  0  0  0
   10.3321  -15.1738   22.3743 O   0  0  0  0  0  0  0  0  0  0  0  0
    6.0843  -11.1920   27.8628 C   0  0  0  0  0  0  0  0  0  0  0  0
    5.8022  -12.4120   26.5668 S   0  0  0  0  0  0  0  0  0  0  0  0
    7.3799  -13.0298   25.8894 C   0  0  0  0  0  0  0  0  0  0  0  0
    7.1432  -14.0055   24.7879 C   0  0  0  0  0  0  0  0  0  0  0  0
    8.4468  -14.5133   24.2378 C   0  0  2  0  0  0  0  0  0  0  0  0
    8.2072  -15.4270   23.1745 N   0  0  0  0  0  0  0  0  0  0  0  0
    9.2202  -15.0941   25.3588 C   0  0  0  0  0  0  0  0  0  0  0  0
    9.3788  -14.5445   26.4786 O   0  0  0  0  0  0  0  0  0  0  0  0
    7.6541  -20.3047   26.6398 N   0  0  0  0  0  0  0  0  0  0  0  0
    8.0640  -19.0452   27.1480 C   0  0  0  0  0  0  0  0  0  0  0  0
    8.2774  -18.9367   28.3756 O   0  0  0  0  0  0  0  0  0  0  0  0
    8.2371  -17.8896   26.2630 C   0  0  0  0  0  0  0  0  0  0  0  0
    9.6623  -17.4480   26.1400 C   0  0  2  0  0  0  0  0  0  0  0  0
    9.8372  -16.3631   25.1813 N   0  0  0  0  0  0  0  0  0  0  0  0
   10.5256  -18.5896   25.7604 C   0  0  0  0  0  0  0  0  0  0  0  0
   10.6056  -18.9815   24.4438 O   0  0  0  0  0  0  0  0  0  0  0  0
   11.1919  -19.2124   26.6235 O   0  0  0  0  0  0  0  0  0  0  0  0
  2  1  1  6
  3  4  1  0
  3  2  1  0
  4  5  1  0
  6  5  1  0
  7  6  1  0
  8  2  1  0
  8  9  2  0
 10 11  1  0
 11 12  1  0
 12 13  1  0
 14 13  1  1
 14 15  1  0
 15  8  1  0
 16 14  1  0
 17 16  2  0
 18 19  1  0
 19 21  1  0
 20 19  2  0
 22 21  1  6
 22 24  1  0
 22 23  1  0
 23 16  1  0
 24 25  1  0
 26 24  2  0
M  END
$$$$
