KMN.pdb
     RDKit          3D

 26 25  0  0  1  0  0  0  0  0999 V2000
    7.1335  -15.6251   21.1406 N   0  0  0  0  0  0  0  0  0  0  0  0
    8.3449  -14.8832   20.9799 C   0  0  1  0  0  0  0  0  0  0  0  0
    8.1789  -13.7529   20.0208 C   0  0  0  0  0  0  0  0  0  0  0  0
    7.5804  -14.1232   18.7109 C   0  0  0  0  0  0  0  0  0  0  0  0
    8.4365  -13.7664   17.5572 C   0  0  0  0  0  0  0  0  0  0  0  0
    7.7519  -14.0538   16.2205 C   0  0  0  0  0  0  0  0  0  0  0  0
    8.6136  -13.8259   15.1083 N   0  0  0  0  0  0  0  0  0  0  0  0
    8.8356  -14.4147   22.3129 C   0  0  0  0  0  0  0  0  0  0  0  0
    9.9222  -13.8223   22.4884 O   0  0  0  0  0  0  0  0  0  0  0  0
    6.4850  -11.1850   27.6461 C   0  0  0  0  0  0  0  0  0  0  0  0
    5.5934  -11.8528   26.2294 S   0  0  0  0  0  0  0  0  0  0  0  0
    6.7369  -12.6304   25.0388 C   0  0  0  0  0  0  0  0  0  0  0  0
    7.3424  -13.8673   25.6088 C   0  0  0  0  0  0  0  0  0  0  0  0
    8.4855  -14.3419   24.7556 C   0  0  2  0  0  0  0  0  0  0  0  0
    8.0234  -14.6555   23.4476 N   0  0  0  0  0  0  0  0  0  0  0  0
    9.1300  -15.4807   25.4482 C   0  0  0  0  0  0  0  0  0  0  0  0
    9.4370  -15.4951   26.6675 O   0  0  0  0  0  0  0  0  0  0  0  0
   11.3120  -20.1131   26.3125 N   0  0  0  0  0  0  0  0  0  0  0  0
   10.1866  -20.2681   25.4627 C   0  0  0  0  0  0  0  0  0  0  0  0
    9.8115  -21.4254   25.1726 O   0  0  0  0  0  0  0  0  0  0  0  0
    9.4713  -19.1044   24.9306 C   0  0  0  0  0  0  0  0  0  0  0  0
   10.1030  -17.8002   25.3063 C   0  0  2  0  0  0  0  0  0  0  0  0
    9.4336  -16.6535   24.7032 N   0  0  0  0  0  0  0  0  0  0  0  0
   11.5352  -17.7929   24.9303 C   0  0  0  0  0  0  0  0  0  0  0  0
   12.4545  -18.4488   25.7166 O   0  0  0  0  0  0  0  0  0  0  0  0
   11.9309  -17.1949   23.8995 O   0  0  0  0  0  0  0  0  0  0  0  0
  2  1  1  1
  3  4  1  0
  3  2  1  0
  4  5  1  0
  6  5  1  0
  7  6  1  0
  8  2  1  0
  8  9  2  0
 10 11  1  0
 11 12  1  0
 12 13  1  0
 14 13  1  1
 14 15  1  0
 15  8  1  0
 16 14  1  0
 17 16  2  0
 18 19  1  0
 19 21  1  0
 20 19  2  0
 22 21  1  6
 22 24  1  0
 22 23  1  0
 23 16  1  0
 24 25  1  0
 26 24  2  0
M  END
$$$$
