KMN.pdb
     RDKit          3D

 26 25  0  0  1  0  0  0  0  0999 V2000
    7.7541  -16.3162   21.1010 N   0  0  0  0  0  0  0  0  0  0  0  0
    8.6309  -15.1905   21.0127 C   0  0  1  0  0  0  0  0  0  0  0  0
    8.1193  -14.1634   20.0597 C   0  0  0  0  0  0  0  0  0  0  0  0
    8.3160  -14.4872   18.6218 C   0  0  0  0  0  0  0  0  0  0  0  0
    7.7477  -13.4674   17.7117 C   0  0  0  0  0  0  0  0  0  0  0  0
    7.9554  -13.8279   16.2402 C   0  0  0  0  0  0  0  0  0  0  0  0
    7.5842  -15.1736   15.9527 N   0  0  0  0  0  0  0  0  0  0  0  0
    8.8642  -14.6187   22.3750 C   0  0  0  0  0  0  0  0  0  0  0  0
    9.7910  -13.8266   22.6509 O   0  0  0  0  0  0  0  0  0  0  0  0
    6.4664  -10.7889   26.5535 C   0  0  0  0  0  0  0  0  0  0  0  0
    6.1402  -12.3535   27.3861 S   0  0  0  0  0  0  0  0  0  0  0  0
    7.2819  -13.6558   26.8112 C   0  0  0  0  0  0  0  0  0  0  0  0
    7.0378  -13.9865   25.3787 C   0  0  0  0  0  0  0  0  0  0  0  0
    8.2515  -14.6285   24.7666 C   0  0  2  0  0  0  0  0  0  0  0  0
    7.9844  -14.9956   23.4187 N   0  0  0  0  0  0  0  0  0  0  0  0
    8.6485  -15.7667   25.6260 C   0  0  0  0  0  0  0  0  0  0  0  0
    8.6950  -15.7322   26.8822 O   0  0  0  0  0  0  0  0  0  0  0  0
    6.6268  -19.3753   27.1119 N   0  0  0  0  0  0  0  0  0  0  0  0
    7.1473  -19.1571   25.8103 C   0  0  0  0  0  0  0  0  0  0  0  0
    6.3662  -18.7788   24.9098 O   0  0  0  0  0  0  0  0  0  0  0  0
    8.5679  -19.3669   25.5159 C   0  0  0  0  0  0  0  0  0  0  0  0
    9.4125  -18.1617   25.7908 C   0  0  2  0  0  0  0  0  0  0  0  0
    9.0073  -16.9978   25.0110 N   0  0  0  0  0  0  0  0  0  0  0  0
   10.8392  -18.4608   25.5310 C   0  0  0  0  0  0  0  0  0  0  0  0
   11.5169  -17.7737   24.5501 O   0  0  0  0  0  0  0  0  0  0  0  0
   11.4481  -19.3365   26.1937 O   0  0  0  0  0  0  0  0  0  0  0  0
  2  1  1  1
  3  4  1  0
  3  2  1  0
  4  5  1  0
  6  5  1  0
  7  6  1  0
  8  2  1  0
  8  9  2  0
 10 11  1  0
 11 12  1  0
 12 13  1  0
 14 13  1  1
 14 15  1  0
 15  8  1  0
 16 14  1  0
 17 16  2  0
 18 19  1  0
 19 21  1  0
 20 19  2  0
 22 21  1  6
 22 24  1  0
 22 23  1  0
 23 16  1  0
 24 25  1  0
 26 24  2  0
M  END
$$$$
