KMN.pdb
     RDKit          3D

 26 25  0  0  1  0  0  0  0  0999 V2000
    7.7764  -15.8114   20.6404 N   0  0  0  0  0  0  0  0  0  0  0  0
    9.1931  -15.6632   20.7624 C   0  0  1  0  0  0  0  0  0  0  0  0
    9.7293  -14.6562   19.8016 C   0  0  0  0  0  0  0  0  0  0  0  0
    9.2929  -14.8383   18.3918 C   0  0  0  0  0  0  0  0  0  0  0  0
    8.4097  -13.7523   17.9102 C   0  0  0  0  0  0  0  0  0  0  0  0
    8.0882  -13.8880   16.4214 C   0  0  0  0  0  0  0  0  0  0  0  0
    7.3679  -12.7666   15.9164 N   0  0  0  0  0  0  0  0  0  0  0  0
    9.5503  -15.3294   22.1759 C   0  0  0  0  0  0  0  0  0  0  0  0
   10.7237  -15.2271   22.5944 O   0  0  0  0  0  0  0  0  0  0  0  0
    5.2387  -12.1868   27.0155 C   0  0  0  0  0  0  0  0  0  0  0  0
    6.8029  -11.5521   26.3844 S   0  0  0  0  0  0  0  0  0  0  0  0
    7.9738  -12.9090   26.0416 C   0  0  0  0  0  0  0  0  0  0  0  0
    7.7185  -13.5097   24.7017 C   0  0  0  0  0  0  0  0  0  0  0  0
    8.7541  -14.5504   24.3792 C   0  0  2  0  0  0  0  0  0  0  0  0
    8.4983  -15.1162   23.0997 N   0  0  0  0  0  0  0  0  0  0  0  0
    8.7620  -15.5427   25.4780 C   0  0  0  0  0  0  0  0  0  0  0  0
    8.9259  -15.2630   26.6929 O   0  0  0  0  0  0  0  0  0  0  0  0
    6.3871  -19.0881   23.6272 N   0  0  0  0  0  0  0  0  0  0  0  0
    6.4780  -18.6770   24.9820 C   0  0  0  0  0  0  0  0  0  0  0  0
    5.5695  -17.9562   25.4502 O   0  0  0  0  0  0  0  0  0  0  0  0
    7.6073  -19.0824   25.8241 C   0  0  0  0  0  0  0  0  0  0  0  0
    8.5059  -17.9441   26.1954 C   0  0  2  0  0  0  0  0  0  0  0  0
    8.5726  -16.9165   25.1627 N   0  0  0  0  0  0  0  0  0  0  0  0
    9.8697  -18.4384   26.4923 C   0  0  0  0  0  0  0  0  0  0  0  0
   10.0640  -19.3504   27.5043 O   0  0  0  0  0  0  0  0  0  0  0  0
   10.8610  -18.0385   25.8334 O   0  0  0  0  0  0  0  0  0  0  0  0
  2  1  1  1
  3  4  1  0
  3  2  1  0
  4  5  1  0
  6  5  1  0
  7  6  1  0
  8  2  1  0
  8  9  2  0
 10 11  1  0
 11 12  1  0
 12 13  1  0
 14 13  1  1
 14 15  1  0
 15  8  1  0
 16 14  1  0
 17 16  2  0
 18 19  1  0
 19 21  1  0
 20 19  2  0
 22 21  1  6
 22 24  1  0
 22 23  1  0
 23 16  1  0
 24 25  1  0
 26 24  2  0
M  END
$$$$
