KMN.pdb
     RDKit          3D

 26 25  0  0  1  0  0  0  0  0999 V2000
    7.7954  -15.6908   20.9981 N   0  0  0  0  0  0  0  0  0  0  0  0
    8.8209  -14.6957   21.0413 C   0  0  1  0  0  0  0  0  0  0  0  0
    8.4867  -13.5187   20.1882 C   0  0  0  0  0  0  0  0  0  0  0  0
    8.7594  -13.6968   18.7373 C   0  0  0  0  0  0  0  0  0  0  0  0
    7.5309  -13.8769   17.9313 C   0  0  0  0  0  0  0  0  0  0  0  0
    7.8415  -14.1281   16.4552 C   0  0  0  0  0  0  0  0  0  0  0  0
    6.6753  -14.4490   15.7013 N   0  0  0  0  0  0  0  0  0  0  0  0
    9.0855  -14.2986   22.4589 C   0  0  0  0  0  0  0  0  0  0  0  0
    9.9815  -13.4985   22.8045 O   0  0  0  0  0  0  0  0  0  0  0  0
    6.9723  -12.2191   27.8722 C   0  0  0  0  0  0  0  0  0  0  0  0
    5.9563  -12.0446   26.3941 S   0  0  0  0  0  0  0  0  0  0  0  0
    6.5822  -13.0923   25.0374 C   0  0  0  0  0  0  0  0  0  0  0  0
    7.2388  -14.3199   25.5693 C   0  0  0  0  0  0  0  0  0  0  0  0
    8.5293  -14.5887   24.8467 C   0  0  2  0  0  0  0  0  0  0  0  0
    8.2747  -14.8616   23.4743 N   0  0  0  0  0  0  0  0  0  0  0  0
    9.2276  -15.6870   25.5524 C   0  0  0  0  0  0  0  0  0  0  0  0
    9.4181  -15.7318   26.7945 O   0  0  0  0  0  0  0  0  0  0  0  0
   10.7975  -21.4946   24.9602 N   0  0  0  0  0  0  0  0  0  0  0  0
   10.5077  -20.3456   25.7402 C   0  0  0  0  0  0  0  0  0  0  0  0
   10.8978  -20.3156   26.9282 O   0  0  0  0  0  0  0  0  0  0  0  0
    9.7682  -19.2124   25.1766 C   0  0  0  0  0  0  0  0  0  0  0  0
   10.4353  -17.8938   25.4161 C   0  0  2  0  0  0  0  0  0  0  0  0
    9.7278  -16.7809   24.7935 N   0  0  0  0  0  0  0  0  0  0  0  0
   11.8337  -17.9268   24.9303 C   0  0  0  0  0  0  0  0  0  0  0  0
   12.1308  -17.4788   23.6636 O   0  0  0  0  0  0  0  0  0  0  0  0
   12.7616  -18.3590   25.6575 O   0  0  0  0  0  0  0  0  0  0  0  0
  2  1  1  1
  3  4  1  0
  3  2  1  0
  4  5  1  0
  6  5  1  0
  7  6  1  0
  8  2  1  0
  8  9  2  0
 10 11  1  0
 11 12  1  0
 12 13  1  0
 14 13  1  1
 14 15  1  0
 15  8  1  0
 16 14  1  0
 17 16  2  0
 18 19  1  0
 19 21  1  0
 20 19  2  0
 22 21  1  6
 22 24  1  0
 22 23  1  0
 23 16  1  0
 24 25  1  0
 26 24  2  0
M  END
$$$$
