KMN.pdb
     RDKit          3D

 26 25  0  0  1  0  0  0  0  0999 V2000
    6.7193  -15.7197   19.9260 N   0  0  0  0  0  0  0  0  0  0  0  0
    8.0496  -15.2024   19.8460 C   0  0  1  0  0  0  0  0  0  0  0  0
    8.1397  -14.0489   18.9046 C   0  0  0  0  0  0  0  0  0  0  0  0
    7.7180  -14.3425   17.5092 C   0  0  0  0  0  0  0  0  0  0  0  0
    8.3630  -13.4630   16.5082 C   0  0  0  0  0  0  0  0  0  0  0  0
    7.8411  -13.7195   15.0940 C   0  0  0  0  0  0  0  0  0  0  0  0
    8.4512  -12.8687   14.1268 N   0  0  0  0  0  0  0  0  0  0  0  0
    8.5399  -14.8448   21.2131 C   0  0  0  0  0  0  0  0  0  0  0  0
    9.7197  -14.5214   21.4697 O   0  0  0  0  0  0  0  0  0  0  0  0
    7.3975  -11.9445   28.0849 C   0  0  0  0  0  0  0  0  0  0  0  0
    6.8210  -12.2831   26.4114 S   0  0  0  0  0  0  0  0  0  0  0  0
    7.3115  -13.9559   25.8719 C   0  0  0  0  0  0  0  0  0  0  0  0
    6.8762  -14.2146   24.4702 C   0  0  0  0  0  0  0  0  0  0  0  0
    8.0403  -14.6466   23.6227 C   0  0  2  0  0  0  0  0  0  0  0  0
    7.6147  -14.8738   22.2848 N   0  0  0  0  0  0  0  0  0  0  0  0
    8.6549  -15.8324   24.2614 C   0  0  0  0  0  0  0  0  0  0  0  0
    8.0818  -16.9417   24.4109 O   0  0  0  0  0  0  0  0  0  0  0  0
   13.4523  -18.8954   24.2165 N   0  0  0  0  0  0  0  0  0  0  0  0
   13.0467  -17.9014   25.1438 C   0  0  0  0  0  0  0  0  0  0  0  0
   13.4058  -18.0144   26.3365 O   0  0  0  0  0  0  0  0  0  0  0  0
   12.2249  -16.7623   24.7245 C   0  0  0  0  0  0  0  0  0  0  0  0
   10.7780  -16.9164   25.0765 C   0  0  2  0  0  0  0  0  0  0  0  0
    9.9876  -15.7355   24.7484 N   0  0  0  0  0  0  0  0  0  0  0  0
   10.6272  -17.2302   26.5156 C   0  0  0  0  0  0  0  0  0  0  0  0
   10.7235  -18.5332   26.9477 O   0  0  0  0  0  0  0  0  0  0  0  0
   10.4115  -16.3233   27.3569 O   0  0  0  0  0  0  0  0  0  0  0  0
  2  1  1  1
  3  4  1  0
  3  2  1  0
  4  5  1  0
  6  5  1  0
  7  6  1  0
  8  2  1  0
  8  9  2  0
 10 11  1  0
 11 12  1  0
 12 13  1  0
 14 13  1  1
 14 15  1  0
 15  8  1  0
 16 14  1  0
 17 16  2  0
 18 19  1  0
 19 21  1  0
 20 19  2  0
 22 21  1  1
 22 24  1  0
 22 23  1  0
 23 16  1  0
 24 25  1  0
 26 24  2  0
M  END
$$$$
