KMN.pdb
     RDKit          3D

 26 25  0  0  1  0  0  0  0  0999 V2000
    6.6939  -13.1513   19.3871 N   0  0  0  0  0  0  0  0  0  0  0  0
    7.5748  -14.2563   19.6030 C   0  0  1  0  0  0  0  0  0  0  0  0
    8.5604  -14.4040   18.4932 C   0  0  0  0  0  0  0  0  0  0  0  0
    7.9639  -14.5740   17.1417 C   0  0  0  0  0  0  0  0  0  0  0  0
    8.5558  -15.6970   16.3804 C   0  0  0  0  0  0  0  0  0  0  0  0
    7.7040  -16.9640   16.4660 C   0  0  0  0  0  0  0  0  0  0  0  0
    8.2514  -18.0394   15.7075 N   0  0  0  0  0  0  0  0  0  0  0  0
    8.2487  -14.1183   20.9312 C   0  0  0  0  0  0  0  0  0  0  0  0
    9.4759  -13.9299   21.0757 O   0  0  0  0  0  0  0  0  0  0  0  0
    7.4357  -12.1958   28.4509 C   0  0  0  0  0  0  0  0  0  0  0  0
    6.6467  -12.4229   26.8467 S   0  0  0  0  0  0  0  0  0  0  0  0
    7.7507  -13.2997   25.6882 C   0  0  0  0  0  0  0  0  0  0  0  0
    7.1203  -13.4300   24.3441 C   0  0  0  0  0  0  0  0  0  0  0  0
    8.0410  -14.1400   23.3912 C   0  0  2  0  0  0  0  0  0  0  0  0
    7.4518  -14.2067   22.0985 N   0  0  0  0  0  0  0  0  0  0  0  0
    8.3619  -15.4652   23.9682 C   0  0  0  0  0  0  0  0  0  0  0  0
    7.5350  -16.4014   24.1127 O   0  0  0  0  0  0  0  0  0  0  0  0
   11.2197  -18.3112   22.2805 N   0  0  0  0  0  0  0  0  0  0  0  0
   11.7820  -17.3447   23.1536 C   0  0  0  0  0  0  0  0  0  0  0  0
   12.5212  -16.4596   22.6691 O   0  0  0  0  0  0  0  0  0  0  0  0
   11.5094  -17.3727   24.5936 C   0  0  0  0  0  0  0  0  0  0  0  0
   10.0956  -17.0170   24.9342 C   0  0  2  0  0  0  0  0  0  0  0  0
    9.6933  -15.7222   24.3969 N   0  0  0  0  0  0  0  0  0  0  0  0
    9.8996  -17.0277   26.4018 C   0  0  0  0  0  0  0  0  0  0  0  0
   10.1129  -18.1855   27.1142 O   0  0  0  0  0  0  0  0  0  0  0  0
    9.5396  -15.9924   27.0144 O   0  0  0  0  0  0  0  0  0  0  0  0
  2  1  1  6
  3  4  1  0
  3  2  1  0
  4  5  1  0
  6  5  1  0
  7  6  1  0
  8  2  1  0
  8  9  2  0
 10 11  1  0
 11 12  1  0
 12 13  1  0
 14 13  1  1
 14 15  1  0
 15  8  1  0
 16 14  1  0
 17 16  2  0
 18 19  1  0
 19 21  1  0
 20 19  2  0
 22 21  1  1
 22 24  1  0
 22 23  1  0
 23 16  1  0
 24 25  1  0
 26 24  2  0
M  END
$$$$
