KMN.pdb
     RDKit          3D

 26 25  0  0  1  0  0  0  0  0999 V2000
    6.7091  -15.8067   20.8909 N   0  0  0  0  0  0  0  0  0  0  0  0
    7.9957  -15.1990   20.7519 C   0  0  1  0  0  0  0  0  0  0  0  0
    7.9356  -13.9576   19.9271 C   0  0  0  0  0  0  0  0  0  0  0  0
    7.6694  -14.1768   18.4806 C   0  0  0  0  0  0  0  0  0  0  0  0
    8.4198  -13.2505   17.6030 C   0  0  0  0  0  0  0  0  0  0  0  0
    7.9797  -13.3564   16.1424 C   0  0  0  0  0  0  0  0  0  0  0  0
    8.5791  -12.3582   15.3203 N   0  0  0  0  0  0  0  0  0  0  0  0
    8.5860  -14.9422   22.1020 C   0  0  0  0  0  0  0  0  0  0  0  0
    9.7908  -14.6730   22.2979 O   0  0  0  0  0  0  0  0  0  0  0  0
    6.8295  -11.9938   27.6844 C   0  0  0  0  0  0  0  0  0  0  0  0
    6.5545  -11.4182   25.9990 S   0  0  0  0  0  0  0  0  0  0  0  0
    7.2372  -12.5941   24.7821 C   0  0  0  0  0  0  0  0  0  0  0  0
    7.3113  -13.9695   25.3511 C   0  0  0  0  0  0  0  0  0  0  0  0
    8.2438  -14.8295   24.5444 C   0  0  2  0  0  0  0  0  0  0  0  0
    7.7318  -15.0078   23.2295 N   0  0  0  0  0  0  0  0  0  0  0  0
    8.4475  -16.0976   25.2809 C   0  0  0  0  0  0  0  0  0  0  0  0
    7.5318  -16.9053   25.5811 O   0  0  0  0  0  0  0  0  0  0  0  0
   12.5197  -20.4148   24.6098 N   0  0  0  0  0  0  0  0  0  0  0  0
   11.4509  -19.7984   25.3100 C   0  0  0  0  0  0  0  0  0  0  0  0
   10.9134  -20.4233   26.2507 O   0  0  0  0  0  0  0  0  0  0  0  0
   10.9787  -18.4587   24.9479 C   0  0  0  0  0  0  0  0  0  0  0  0
   10.1319  -17.8245   26.0071 C   0  0  2  0  0  0  0  0  0  0  0  0
    9.7637  -16.4499   25.6886 N   0  0  0  0  0  0  0  0  0  0  0  0
   10.8262  -17.8620   27.3145 C   0  0  0  0  0  0  0  0  0  0  0  0
   11.1377  -16.6874   27.9600 O   0  0  0  0  0  0  0  0  0  0  0  0
   11.1389  -18.9537   27.8503 O   0  0  0  0  0  0  0  0  0  0  0  0
  2  1  1  1
  3  4  1  0
  3  2  1  0
  4  5  1  0
  6  5  1  0
  7  6  1  0
  8  2  1  0
  8  9  2  0
 10 11  1  0
 11 12  1  0
 12 13  1  0
 14 13  1  1
 14 15  1  0
 15  8  1  0
 16 14  1  0
 17 16  2  0
 18 19  1  0
 19 21  1  0
 20 19  2  0
 22 21  1  6
 22 24  1  0
 22 23  1  0
 23 16  1  0
 24 25  1  0
 26 24  2  0
M  END
$$$$
