KMN.pdb
     RDKit          3D

 26 25  0  0  1  0  0  0  0  0999 V2000
    7.7053  -15.9253   20.6875 N   0  0  0  0  0  0  0  0  0  0  0  0
    8.4414  -14.7003   20.7221 C   0  0  1  0  0  0  0  0  0  0  0  0
    7.8282  -13.6607   19.8458 C   0  0  0  0  0  0  0  0  0  0  0  0
    8.5817  -13.3667   18.5980 C   0  0  0  0  0  0  0  0  0  0  0  0
    7.7466  -13.4536   17.3788 C   0  0  0  0  0  0  0  0  0  0  0  0
    8.5429  -13.1416   16.1111 C   0  0  0  0  0  0  0  0  0  0  0  0
    7.7194  -13.0987   14.9487 N   0  0  0  0  0  0  0  0  0  0  0  0
    8.5776  -14.2279   22.1348 C   0  0  0  0  0  0  0  0  0  0  0  0
    9.2465  -13.2286   22.4758 O   0  0  0  0  0  0  0  0  0  0  0  0
    7.3228  -11.0846   27.5508 C   0  0  0  0  0  0  0  0  0  0  0  0
    6.1206  -12.1682   26.7581 S   0  0  0  0  0  0  0  0  0  0  0  0
    6.8021  -13.8438   26.5181 C   0  0  0  0  0  0  0  0  0  0  0  0
    6.6826  -14.2708   25.0952 C   0  0  0  0  0  0  0  0  0  0  0  0
    8.0353  -14.5807   24.5173 C   0  0  2  0  0  0  0  0  0  0  0  0
    7.9104  -14.9545   23.1508 N   0  0  0  0  0  0  0  0  0  0  0  0
    8.6663  -15.6190   25.3632 C   0  0  0  0  0  0  0  0  0  0  0  0
    8.8388  -15.5222   26.6050 O   0  0  0  0  0  0  0  0  0  0  0  0
    6.6269  -19.3192   25.0975 N   0  0  0  0  0  0  0  0  0  0  0  0
    7.7316  -19.1121   25.9631 C   0  0  0  0  0  0  0  0  0  0  0  0
    7.5085  -18.8711   27.1700 O   0  0  0  0  0  0  0  0  0  0  0  0
    9.1087  -19.1770   25.4651 C   0  0  0  0  0  0  0  0  0  0  0  0
    9.8142  -17.8571   25.5049 C   0  0  2  0  0  0  0  0  0  0  0  0
    9.1176  -16.8209   24.7514 N   0  0  0  0  0  0  0  0  0  0  0  0
   11.1977  -17.9956   24.9959 C   0  0  0  0  0  0  0  0  0  0  0  0
   12.0717  -18.8624   25.6108 O   0  0  0  0  0  0  0  0  0  0  0  0
   11.5927  -17.3319   24.0057 O   0  0  0  0  0  0  0  0  0  0  0  0
  2  1  1  1
  3  4  1  0
  3  2  1  0
  4  5  1  0
  6  5  1  0
  7  6  1  0
  8  2  1  0
  8  9  2  0
 10 11  1  0
 11 12  1  0
 12 13  1  0
 14 13  1  1
 14 15  1  0
 15  8  1  0
 16 14  1  0
 17 16  2  0
 18 19  1  0
 19 21  1  0
 20 19  2  0
 22 21  1  6
 22 24  1  0
 22 23  1  0
 23 16  1  0
 24 25  1  0
 26 24  2  0
M  END
$$$$
