KMN.pdb
     RDKit          3D

 26 25  0  0  1  0  0  0  0  0999 V2000
    6.7875  -15.0006   20.8030 N   0  0  0  0  0  0  0  0  0  0  0  0
    8.1018  -14.4464   20.7059 C   0  0  1  0  0  0  0  0  0  0  0  0
    8.0751  -13.0433   20.2006 C   0  0  0  0  0  0  0  0  0  0  0  0
    7.4642  -12.8714   18.8558 C   0  0  0  0  0  0  0  0  0  0  0  0
    8.3742  -13.2461   17.7500 C   0  0  0  0  0  0  0  0  0  0  0  0
    7.7054  -13.1097   16.3816 C   0  0  0  0  0  0  0  0  0  0  0  0
    8.5993  -13.3950   15.3089 N   0  0  0  0  0  0  0  0  0  0  0  0
    8.7966  -14.5494   22.0265 C   0  0  0  0  0  0  0  0  0  0  0  0
   10.0203  -14.3531   22.1892 O   0  0  0  0  0  0  0  0  0  0  0  0
    7.4950  -12.1695   28.0688 C   0  0  0  0  0  0  0  0  0  0  0  0
    6.5632  -12.0921   26.5282 S   0  0  0  0  0  0  0  0  0  0  0  0
    7.4673  -12.9095   25.1702 C   0  0  0  0  0  0  0  0  0  0  0  0
    7.7115  -14.3468   25.4795 C   0  0  0  0  0  0  0  0  0  0  0  0
    8.6200  -14.9649   24.4537 C   0  0  2  0  0  0  0  0  0  0  0  0
    8.0251  -14.8905   23.1640 N   0  0  0  0  0  0  0  0  0  0  0  0
    8.9270  -16.3463   24.8888 C   0  0  0  0  0  0  0  0  0  0  0  0
    8.0933  -17.2870   24.9236 O   0  0  0  0  0  0  0  0  0  0  0  0
   13.6452  -19.8965   26.0503 N   0  0  0  0  0  0  0  0  0  0  0  0
   12.3647  -19.7726   25.4523 C   0  0  0  0  0  0  0  0  0  0  0  0
   11.6542  -20.7962   25.3434 O   0  0  0  0  0  0  0  0  0  0  0  0
   11.8746  -18.4783   24.9693 C   0  0  0  0  0  0  0  0  0  0  0  0
   10.6457  -18.0080   25.6834 C   0  0  2  0  0  0  0  0  0  0  0  0
   10.2521  -16.6568   25.3013 N   0  0  0  0  0  0  0  0  0  0  0  0
   10.8445  -18.0711   27.1494 C   0  0  0  0  0  0  0  0  0  0  0  0
   11.2592  -16.9521   27.8345 O   0  0  0  0  0  0  0  0  0  0  0  0
   10.6403  -19.1345   27.7852 O   0  0  0  0  0  0  0  0  0  0  0  0
  2  1  1  1
  3  4  1  0
  3  2  1  0
  4  5  1  0
  6  5  1  0
  7  6  1  0
  8  2  1  0
  8  9  2  0
 10 11  1  0
 11 12  1  0
 12 13  1  0
 14 13  1  1
 14 15  1  0
 15  8  1  0
 16 14  1  0
 17 16  2  0
 18 19  1  0
 19 21  1  0
 20 19  2  0
 22 21  1  6
 22 24  1  0
 22 23  1  0
 23 16  1  0
 24 25  1  0
 26 24  2  0
M  END
$$$$
