KMN.pdb
     RDKit          3D

 26 25  0  0  1  0  0  0  0  0999 V2000
    7.5630  -15.7779   20.9405 N   0  0  0  0  0  0  0  0  0  0  0  0
    8.7271  -14.9606   21.0847 C   0  0  1  0  0  0  0  0  0  0  0  0
    8.5586  -13.6350   20.4220 C   0  0  0  0  0  0  0  0  0  0  0  0
    7.6348  -13.6281   19.2568 C   0  0  0  0  0  0  0  0  0  0  0  0
    8.3159  -13.3383   17.9748 C   0  0  0  0  0  0  0  0  0  0  0  0
    7.3622  -13.4249   16.7827 C   0  0  0  0  0  0  0  0  0  0  0  0
    8.0235  -13.2015   15.5401 N   0  0  0  0  0  0  0  0  0  0  0  0
    9.0735  -14.8190   22.5329 C   0  0  0  0  0  0  0  0  0  0  0  0
   10.1719  -14.3921   22.9499 O   0  0  0  0  0  0  0  0  0  0  0  0
    6.4434  -10.6639   26.2939 C   0  0  0  0  0  0  0  0  0  0  0  0
    7.1291  -12.2992   26.6152 S   0  0  0  0  0  0  0  0  0  0  0  0
    6.5686  -13.5053   25.3659 C   0  0  0  0  0  0  0  0  0  0  0  0
    7.1103  -14.8636   25.6534 C   0  0  0  0  0  0  0  0  0  0  0  0
    8.3800  -15.1035   24.8851 C   0  0  2  0  0  0  0  0  0  0  0  0
    8.1014  -15.1907   23.4932 N   0  0  0  0  0  0  0  0  0  0  0  0
    9.0274  -16.3141   25.4396 C   0  0  0  0  0  0  0  0  0  0  0  0
    9.1339  -16.5699   26.6661 O   0  0  0  0  0  0  0  0  0  0  0  0
   10.4651  -21.7952   25.1212 N   0  0  0  0  0  0  0  0  0  0  0  0
   11.0721  -20.7276   24.4110 C   0  0  0  0  0  0  0  0  0  0  0  0
   12.2930  -20.8012   24.1499 O   0  0  0  0  0  0  0  0  0  0  0  0
   10.2951  -19.5591   23.9872 C   0  0  0  0  0  0  0  0  0  0  0  0
   10.2609  -18.4689   25.0126 C   0  0  2  0  0  0  0  0  0  0  0  0
    9.5754  -17.2710   24.5414 N   0  0  0  0  0  0  0  0  0  0  0  0
   11.6346  -18.1187   25.4401 C   0  0  0  0  0  0  0  0  0  0  0  0
   12.3908  -17.2558   24.6803 O   0  0  0  0  0  0  0  0  0  0  0  0
   12.1275  -18.5977   26.4910 O   0  0  0  0  0  0  0  0  0  0  0  0
  2  1  1  1
  3  4  1  0
  3  2  1  0
  4  5  1  0
  6  5  1  0
  7  6  1  0
  8  2  1  0
  8  9  2  0
 10 11  1  0
 11 12  1  0
 12 13  1  0
 14 13  1  1
 14 15  1  0
 15  8  1  0
 16 14  1  0
 17 16  2  0
 18 19  1  0
 19 21  1  0
 20 19  2  0
 22 21  1  6
 22 24  1  0
 22 23  1  0
 23 16  1  0
 24 25  1  0
 26 24  2  0
M  END
$$$$
