KMN.pdb
     RDKit          3D

 26 25  0  0  1  0  0  0  0  0999 V2000
    6.9574  -15.1031   20.5004 N   0  0  0  0  0  0  0  0  0  0  0  0
    8.2660  -14.5273   20.4992 C   0  0  1  0  0  0  0  0  0  0  0  0
    8.2570  -13.1330   19.9696 C   0  0  0  0  0  0  0  0  0  0  0  0
    7.6828  -12.9825   18.6061 C   0  0  0  0  0  0  0  0  0  0  0  0
    8.5563  -13.5276   17.5425 C   0  0  0  0  0  0  0  0  0  0  0  0
    7.8831  -13.4938   16.1700 C   0  0  0  0  0  0  0  0  0  0  0  0
    8.6789  -14.1070   15.1590 N   0  0  0  0  0  0  0  0  0  0  0  0
    8.8543  -14.5974   21.8726 C   0  0  0  0  0  0  0  0  0  0  0  0
   10.0504  -14.3452   22.1338 O   0  0  0  0  0  0  0  0  0  0  0  0
    6.0987  -10.7804   26.6186 C   0  0  0  0  0  0  0  0  0  0  0  0
    6.1411  -12.5787   26.5092 S   0  0  0  0  0  0  0  0  0  0  0  0
    7.3618  -13.1344   25.2720 C   0  0  0  0  0  0  0  0  0  0  0  0
    7.4672  -14.6210   25.2553 C   0  0  0  0  0  0  0  0  0  0  0  0
    8.5117  -15.0693   24.2715 C   0  0  2  0  0  0  0  0  0  0  0  0
    8.0087  -14.9726   22.9447 N   0  0  0  0  0  0  0  0  0  0  0  0
    8.9374  -16.4362   24.6486 C   0  0  0  0  0  0  0  0  0  0  0  0
    8.2550  -17.4754   24.4597 O   0  0  0  0  0  0  0  0  0  0  0  0
   11.8517  -20.4360   26.1356 N   0  0  0  0  0  0  0  0  0  0  0  0
   12.6765  -19.4466   25.5413 C   0  0  0  0  0  0  0  0  0  0  0  0
   13.8638  -19.7379   25.2772 O   0  0  0  0  0  0  0  0  0  0  0  0
   12.1593  -18.1088   25.2387 C   0  0  0  0  0  0  0  0  0  0  0  0
   10.7199  -17.9337   25.6113 C   0  0  2  0  0  0  0  0  0  0  0  0
   10.2043  -16.6129   25.2701 N   0  0  0  0  0  0  0  0  0  0  0  0
   10.5271  -18.1831   27.0581 C   0  0  0  0  0  0  0  0  0  0  0  0
   10.7228  -19.4457   27.5690 O   0  0  0  0  0  0  0  0  0  0  0  0
   10.1855  -17.2573   27.8347 O   0  0  0  0  0  0  0  0  0  0  0  0
  2  1  1  1
  3  4  1  0
  3  2  1  0
  4  5  1  0
  6  5  1  0
  7  6  1  0
  8  2  1  0
  8  9  2  0
 10 11  1  0
 11 12  1  0
 12 13  1  0
 14 13  1  1
 14 15  1  0
 15  8  1  0
 16 14  1  0
 17 16  2  0
 18 19  1  0
 19 21  1  0
 20 19  2  0
 22 21  1  1
 22 24  1  0
 22 23  1  0
 23 16  1  0
 24 25  1  0
 26 24  2  0
M  END
$$$$
