KMN.pdb
     RDKit          3D

 26 25  0  0  1  0  0  0  0  0999 V2000
    7.7712  -17.2895   21.3101 N   0  0  0  0  0  0  0  0  0  0  0  0
    8.8991  -16.4918   20.9421 C   0  0  1  0  0  0  0  0  0  0  0  0
    8.6681  -15.7638   19.6609 C   0  0  0  0  0  0  0  0  0  0  0  0
    7.4812  -14.8680   19.6524 C   0  0  0  0  0  0  0  0  0  0  0  0
    7.2162  -14.2641   18.3271 C   0  0  0  0  0  0  0  0  0  0  0  0
    8.2376  -13.1832   17.9715 C   0  0  0  0  0  0  0  0  0  0  0  0
    8.0104  -12.6244   16.6802 N   0  0  0  0  0  0  0  0  0  0  0  0
    9.2484  -15.5585   22.0575 C   0  0  0  0  0  0  0  0  0  0  0  0
   10.2175  -14.7696   22.0306 O   0  0  0  0  0  0  0  0  0  0  0  0
    6.6064  -11.4615   28.1374 C   0  0  0  0  0  0  0  0  0  0  0  0
    6.2404  -12.5993   26.7887 S   0  0  0  0  0  0  0  0  0  0  0  0
    7.7713  -13.2959   26.0812 C   0  0  0  0  0  0  0  0  0  0  0  0
    7.4694  -14.1815   24.9211 C   0  0  0  0  0  0  0  0  0  0  0  0
    8.7365  -14.7290   24.3257 C   0  0  2  0  0  0  0  0  0  0  0  0
    8.4348  -15.5665   23.2165 N   0  0  0  0  0  0  0  0  0  0  0  0
    9.4878  -15.4142   25.4019 C   0  0  0  0  0  0  0  0  0  0  0  0
    9.5000  -15.0540   26.6066 O   0  0  0  0  0  0  0  0  0  0  0  0
   10.2953  -18.5525   28.6667 N   0  0  0  0  0  0  0  0  0  0  0  0
    9.1486  -18.7008   27.8447 C   0  0  0  0  0  0  0  0  0  0  0  0
    8.1090  -19.1790   28.3496 O   0  0  0  0  0  0  0  0  0  0  0  0
    9.1701  -18.3054   26.4333 C   0  0  0  0  0  0  0  0  0  0  0  0
   10.4548  -17.6566   26.0212 C   0  0  2  0  0  0  0  0  0  0  0  0
   10.2582  -16.5642   25.0752 N   0  0  0  0  0  0  0  0  0  0  0  0
   11.3754  -18.6587   25.4375 C   0  0  0  0  0  0  0  0  0  0  0  0
   12.5721  -18.9349   26.0582 O   0  0  0  0  0  0  0  0  0  0  0  0
   11.0833  -19.2667   24.3784 O   0  0  0  0  0  0  0  0  0  0  0  0
  2  1  1  1
  3  4  1  0
  3  2  1  0
  4  5  1  0
  6  5  1  0
  7  6  1  0
  8  2  1  0
  8  9  2  0
 10 11  1  0
 11 12  1  0
 12 13  1  0
 14 13  1  1
 14 15  1  0
 15  8  1  0
 16 14  1  0
 17 16  2  0
 18 19  1  0
 19 21  1  0
 20 19  2  0
 22 21  1  6
 22 24  1  0
 22 23  1  0
 23 16  1  0
 24 25  1  0
 26 24  2  0
M  END
$$$$
