KMN.pdb
     RDKit          3D

 26 25  0  0  1  0  0  0  0  0999 V2000
    7.4568  -15.8423   20.5817 N   0  0  0  0  0  0  0  0  0  0  0  0
    8.5432  -14.9520   20.8481 C   0  0  1  0  0  0  0  0  0  0  0  0
    8.5832  -13.8208   19.8767 C   0  0  0  0  0  0  0  0  0  0  0  0
    8.0839  -14.1449   18.5140 C   0  0  0  0  0  0  0  0  0  0  0  0
    8.4939  -13.1552   17.4924 C   0  0  0  0  0  0  0  0  0  0  0  0
    7.9527  -13.5011   16.1047 C   0  0  0  0  0  0  0  0  0  0  0  0
    8.3074  -12.5286   15.1250 N   0  0  0  0  0  0  0  0  0  0  0  0
    8.4710  -14.4694   22.2620 C   0  0  0  0  0  0  0  0  0  0  0  0
    8.1221  -13.3145   22.5889 O   0  0  0  0  0  0  0  0  0  0  0  0
    7.7823  -12.0613   27.3473 C   0  0  0  0  0  0  0  0  0  0  0  0
    6.4466  -12.7646   26.3631 S   0  0  0  0  0  0  0  0  0  0  0  0
    6.6356  -14.5714   26.1920 C   0  0  0  0  0  0  0  0  0  0  0  0
    6.9951  -14.9413   24.7938 C   0  0  0  0  0  0  0  0  0  0  0  0
    8.4836  -15.0953   24.6501 C   0  0  2  0  0  0  0  0  0  0  0  0
    8.8191  -15.3721   23.2960 N   0  0  0  0  0  0  0  0  0  0  0  0
    8.9283  -16.1408   25.5993 C   0  0  0  0  0  0  0  0  0  0  0  0
    8.7644  -16.0922   26.8450 O   0  0  0  0  0  0  0  0  0  0  0  0
   11.5373  -19.3187   22.8114 N   0  0  0  0  0  0  0  0  0  0  0  0
   10.5155  -19.4344   23.7887 C   0  0  0  0  0  0  0  0  0  0  0  0
    9.3314  -19.5543   23.4043 O   0  0  0  0  0  0  0  0  0  0  0  0
   10.8290  -19.4156   25.2205 C   0  0  0  0  0  0  0  0  0  0  0  0
   10.1146  -18.3326   25.9675 C   0  0  2  0  0  0  0  0  0  0  0  0
    9.5902  -17.2922   25.0904 N   0  0  0  0  0  0  0  0  0  0  0  0
   11.0102  -17.7249   26.9780 C   0  0  0  0  0  0  0  0  0  0  0  0
   11.1991  -16.3620   26.9965 O   0  0  0  0  0  0  0  0  0  0  0  0
   11.6058  -18.4346   27.8255 O   0  0  0  0  0  0  0  0  0  0  0  0
  2  1  1  6
  3  4  1  0
  3  2  1  0
  4  5  1  0
  6  5  1  0
  7  6  1  0
  8  2  1  0
  8  9  2  0
 10 11  1  0
 11 12  1  0
 12 13  1  0
 14 13  1  6
 14 15  1  0
 15  8  1  0
 16 14  1  0
 17 16  2  0
 18 19  1  0
 19 21  1  0
 20 19  2  0
 22 21  1  6
 22 24  1  0
 22 23  1  0
 23 16  1  0
 24 25  1  0
 26 24  2  0
M  END
$$$$
