KMN.pdb
     RDKit          3D

 26 25  0  0  1  0  0  0  0  0999 V2000
    7.2862  -15.6872   20.4862 N   0  0  0  0  0  0  0  0  0  0  0  0
    8.6462  -15.2558   20.5777 C   0  0  1  0  0  0  0  0  0  0  0  0
    8.8836  -14.0043   19.8017 C   0  0  0  0  0  0  0  0  0  0  0  0
    7.9178  -13.7564   18.6985 C   0  0  0  0  0  0  0  0  0  0  0  0
    8.5638  -13.6532   17.3705 C   0  0  0  0  0  0  0  0  0  0  0  0
    7.5756  -13.2399   16.2792 C   0  0  0  0  0  0  0  0  0  0  0  0
    8.2184  -12.9798   15.0340 N   0  0  0  0  0  0  0  0  0  0  0  0
    9.0364  -15.1030   22.0135 C   0  0  0  0  0  0  0  0  0  0  0  0
   10.1877  -14.8025   22.3963 O   0  0  0  0  0  0  0  0  0  0  0  0
    6.9911  -10.7838   26.9463 C   0  0  0  0  0  0  0  0  0  0  0  0
    6.5067  -12.4791   26.5738 S   0  0  0  0  0  0  0  0  0  0  0  0
    7.7663  -13.3143   25.5513 C   0  0  0  0  0  0  0  0  0  0  0  0
    7.3470  -14.7047   25.2163 C   0  0  0  0  0  0  0  0  0  0  0  0
    8.3919  -15.3885   24.3795 C   0  0  2  0  0  0  0  0  0  0  0  0
    8.0446  -15.3114   23.0025 N   0  0  0  0  0  0  0  0  0  0  0  0
    8.5419  -16.7742   24.8789 C   0  0  0  0  0  0  0  0  0  0  0  0
    7.9229  -17.7694   24.4235 O   0  0  0  0  0  0  0  0  0  0  0  0
   11.4174  -20.8842   25.3451 N   0  0  0  0  0  0  0  0  0  0  0  0
   11.9632  -19.6398   24.9374 C   0  0  0  0  0  0  0  0  0  0  0  0
   13.1808  -19.5844   24.6566 O   0  0  0  0  0  0  0  0  0  0  0  0
   11.1281  -18.4389   24.8434 C   0  0  0  0  0  0  0  0  0  0  0  0
   10.2313  -18.2488   26.0271 C   0  0  2  0  0  0  0  0  0  0  0  0
    9.4447  -17.0233   25.9493 N   0  0  0  0  0  0  0  0  0  0  0  0
   11.0214  -18.2526   27.2794 C   0  0  0  0  0  0  0  0  0  0  0  0
   11.6248  -17.0947   27.7137 O   0  0  0  0  0  0  0  0  0  0  0  0
   11.1528  -19.3005   27.9587 O   0  0  0  0  0  0  0  0  0  0  0  0
  2  1  1  1
  3  4  1  0
  3  2  1  0
  4  5  1  0
  6  5  1  0
  7  6  1  0
  8  2  1  0
  8  9  2  0
 10 11  1  0
 11 12  1  0
 12 13  1  0
 14 13  1  1
 14 15  1  0
 15  8  1  0
 16 14  1  0
 17 16  2  0
 18 19  1  0
 19 21  1  0
 20 19  2  0
 22 21  1  6
 22 24  1  0
 22 23  1  0
 23 16  1  0
 24 25  1  0
 26 24  2  0
M  END
$$$$
