FLA.pdb
     RDKit          3D

 25 25  0  0  1  0  0  0  0  0999 V2000
    5.7485  -18.1651   25.1121 N   0  0  0  0  0  0  0  0  0  0  0  0
    6.2030  -16.7956   25.1695 C   0  0  1  0  0  0  0  0  0  0  0  0
    6.8517  -16.4750   26.4966 C   0  0  0  0  0  0  0  0  0  0  0  0
    7.1252  -15.0240   26.5519 C   0  0  0  0  0  0  0  0  0  0  0  0
    6.1237  -14.1114   26.3472 C   0  0  0  0  0  0  0  0  0  0  0  0
    6.3705  -12.7402   26.3968 C   0  0  0  0  0  0  0  0  0  0  0  0
    7.6702  -12.3255   26.6615 C   0  0  0  0  0  0  0  0  0  0  0  0
    8.6846  -13.2152   26.8688 C   0  0  0  0  0  0  0  0  0  0  0  0
    8.3943  -14.5734   26.8103 C   0  0  0  0  0  0  0  0  0  0  0  0
    7.1194  -16.5550   24.0316 C   0  0  0  0  0  0  0  0  0  0  0  0
    7.7950  -17.5050   23.5508 O   0  0  0  0  0  0  0  0  0  0  0  0
    7.4683  -14.3086   19.1139 C   0  0  0  0  0  0  0  0  0  0  0  0
    8.2496  -13.4956   20.2090 C   0  0  1  0  0  0  0  0  0  0  0  0
    8.0757  -12.0514   19.7933 C   0  0  0  0  0  0  0  0  0  0  0  0
    7.6871  -13.8531   21.5362 C   0  0  0  0  0  0  0  0  0  0  0  0
    8.0903  -15.1002   22.1821 C   0  0  2  0  0  0  0  0  0  0  0  0
    7.2858  -15.2819   23.4344 N   0  0  0  0  0  0  0  0  0  0  0  0
    9.4463  -15.4062   22.5465 C   0  0  0  0  0  0  0  0  0  0  0  0
   10.3249  -15.6391   21.6793 O   0  0  0  0  0  0  0  0  0  0  0  0
   11.5422  -15.0489   25.5998 C   0  0  0  0  0  0  0  0  0  0  0  0
   11.3300  -15.6333   24.2015 C   0  0  2  0  0  0  0  0  0  0  0  0
    9.9245  -15.4755   23.9009 N   0  0  0  0  0  0  0  0  0  0  0  0
   11.7456  -17.0609   24.1467 C   0  0  0  0  0  0  0  0  0  0  0  0
   10.8299  -18.0442   23.8003 O   0  0  0  0  0  0  0  0  0  0  0  0
   12.9175  -17.4391   24.4048 O   0  0  0  0  0  0  0  0  0  0  0  0
  2 10  1  0
  2  1  1  1
  3  2  1  0
  4  3  1  0
  5  4  2  0
  6  5  1  0
  7  6  2  0
  7  8  1  0
  8  9  2  0
  9  4  1  0
 10 11  2  0
 13 12  1  6
 14 13  1  0
 15 13  1  0
 16 15  1  1
 17 16  1  0
 17 10  1  0
 18 22  1  0
 18 16  1  0
 19 18  2  0
 21 20  1  1
 21 22  1  0
 23 21  1  0
 23 24  1  0
 25 23  2  0
M  END
$$$$
