FLA.pdb
     RDKit          3D

 25 25  0  0  1  0  0  0  0  0999 V2000
    7.9734  -16.8900   21.9919 N   0  0  0  0  0  0  0  0  0  0  0  0
    9.3056  -16.3477   22.1201 C   0  0  1  0  0  0  0  0  0  0  0  0
    9.6354  -15.3976   20.9917 C   0  0  0  0  0  0  0  0  0  0  0  0
    8.5495  -14.4019   20.8781 C   0  0  0  0  0  0  0  0  0  0  0  0
    8.8042  -13.0637   21.0263 C   0  0  0  0  0  0  0  0  0  0  0  0
    7.7874  -12.1158   20.9214 C   0  0  0  0  0  0  0  0  0  0  0  0
    6.5011  -12.5723   20.6606 C   0  0  0  0  0  0  0  0  0  0  0  0
    6.2224  -13.9001   20.5090 C   0  0  0  0  0  0  0  0  0  0  0  0
    7.2662  -14.8112   20.6214 C   0  0  0  0  0  0  0  0  0  0  0  0
    9.4242  -15.6976   23.4452 C   0  0  0  0  0  0  0  0  0  0  0  0
   10.4950  -15.1175   23.7723 O   0  0  0  0  0  0  0  0  0  0  0  0
    5.8117  -12.6495   26.4107 C   0  0  0  0  0  0  0  0  0  0  0  0
    7.1540  -13.1554   25.7679 C   0  0  1  0  0  0  0  0  0  0  0  0
    8.1708  -12.1053   26.1575 C   0  0  0  0  0  0  0  0  0  0  0  0
    7.4199  -14.5254   26.2762 C   0  0  0  0  0  0  0  0  0  0  0  0
    8.5979  -15.2545   25.8118 C   0  0  2  0  0  0  0  0  0  0  0  0
    8.3734  -15.6895   24.3943 N   0  0  0  0  0  0  0  0  0  0  0  0
    9.1418  -16.4012   26.4859 C   0  0  0  0  0  0  0  0  0  0  0  0
    9.3571  -16.3970   27.7236 O   0  0  0  0  0  0  0  0  0  0  0  0
    9.7411  -20.0031   25.7092 C   0  0  0  0  0  0  0  0  0  0  0  0
    9.9977  -18.7674   26.5744 C   0  0  2  0  0  0  0  0  0  0  0  0
    9.4861  -17.6357   25.8338 N   0  0  0  0  0  0  0  0  0  0  0  0
   11.4463  -18.6147   26.8776 C   0  0  0  0  0  0  0  0  0  0  0  0
   12.0655  -19.4634   27.7841 O   0  0  0  0  0  0  0  0  0  0  0  0
   12.1645  -17.7316   26.3416 O   0  0  0  0  0  0  0  0  0  0  0  0
  2 10  1  0
  2  1  1  6
  3  2  1  0
  4  3  1  0
  5  4  2  0
  6  5  1  0
  7  6  2  0
  7  8  1  0
  8  9  2  0
  9  4  1  0
 10 11  2  0
 13 12  1  1
 14 13  1  0
 15 13  1  0
 16 15  1  1
 17 16  1  0
 17 10  1  0
 18 22  1  0
 18 16  1  0
 19 18  2  0
 21 20  1  6
 21 22  1  0
 23 21  1  0
 23 24  1  0
 25 23  2  0
M  END
$$$$
