FLA.pdb
     RDKit          3D

 25 25  0  0  1  0  0  0  0  0999 V2000
    8.9036  -19.7730   27.4045 N   0  0  0  0  0  0  0  0  0  0  0  0
    9.0808  -18.3555   27.6157 C   0  0  1  0  0  0  0  0  0  0  0  0
   10.5378  -17.9919   27.7883 C   0  0  0  0  0  0  0  0  0  0  0  0
   10.6237  -16.6032   28.2856 C   0  0  0  0  0  0  0  0  0  0  0  0
   10.5930  -16.3342   29.6289 C   0  0  0  0  0  0  0  0  0  0  0  0
   10.6730  -15.0279   30.1091 C   0  0  0  0  0  0  0  0  0  0  0  0
   10.7855  -14.0018   29.1787 C   0  0  0  0  0  0  0  0  0  0  0  0
   10.8182  -14.2445   27.8357 C   0  0  0  0  0  0  0  0  0  0  0  0
   10.7356  -15.5621   27.4003 C   0  0  0  0  0  0  0  0  0  0  0  0
    8.4579  -17.6292   26.4857 C   0  0  0  0  0  0  0  0  0  0  0  0
    8.1597  -18.2433   25.4255 O   0  0  0  0  0  0  0  0  0  0  0  0
    5.6034  -12.1906   25.8335 C   0  0  0  0  0  0  0  0  0  0  0  0
    6.2152  -13.3593   24.9786 C   0  0  1  0  0  0  0  0  0  0  0  0
    7.0379  -12.6549   23.9224 C   0  0  0  0  0  0  0  0  0  0  0  0
    6.9733  -14.2505   25.8934 C   0  0  0  0  0  0  0  0  0  0  0  0
    7.4100  -15.5647   25.4275 C   0  0  2  0  0  0  0  0  0  0  0  0
    8.1693  -16.2435   26.5281 N   0  0  0  0  0  0  0  0  0  0  0  0
    8.1893  -15.7694   24.2376 C   0  0  0  0  0  0  0  0  0  0  0  0
    7.6479  -15.9428   23.1173 O   0  0  0  0  0  0  0  0  0  0  0  0
   10.6653  -14.7538   22.3300 C   0  0  0  0  0  0  0  0  0  0  0  0
   10.3529  -16.0974   22.9924 C   0  0  2  0  0  0  0  0  0  0  0  0
    9.6267  -15.7964   24.2060 N   0  0  0  0  0  0  0  0  0  0  0  0
   11.5986  -16.8607   23.2738 C   0  0  0  0  0  0  0  0  0  0  0  0
   11.8724  -17.3052   24.5595 O   0  0  0  0  0  0  0  0  0  0  0  0
   12.4448  -17.1346   22.3840 O   0  0  0  0  0  0  0  0  0  0  0  0
  2 10  1  0
  2  1  1  6
  3  2  1  0
  4  3  1  0
  5  4  2  0
  6  5  1  0
  7  6  2  0
  7  8  1  0
  8  9  2  0
  9  4  1  0
 10 11  2  0
 13 12  1  1
 14 13  1  0
 15 13  1  0
 16 15  1  1
 17 16  1  0
 17 10  1  0
 18 22  1  0
 18 16  1  0
 19 18  2  0
 21 20  1  1
 21 22  1  0
 23 21  1  0
 23 24  1  0
 25 23  2  0
M  END
$$$$
