FLA.pdb
     RDKit          3D

 25 25  0  0  1  0  0  0  0  0999 V2000
    8.2034  -17.3341   26.1975 N   0  0  0  0  0  0  0  0  0  0  0  0
    8.3306  -16.1448   25.3883 C   0  0  1  0  0  0  0  0  0  0  0  0
    9.6549  -15.4518   25.6140 C   0  0  0  0  0  0  0  0  0  0  0  0
    9.7084  -14.9761   27.0119 C   0  0  0  0  0  0  0  0  0  0  0  0
   10.1995  -15.7775   28.0090 C   0  0  0  0  0  0  0  0  0  0  0  0
   10.2544  -15.3390   29.3312 C   0  0  0  0  0  0  0  0  0  0  0  0
    9.7932  -14.0577   29.6081 C   0  0  0  0  0  0  0  0  0  0  0  0
    9.2995  -13.2408   28.6321 C   0  0  0  0  0  0  0  0  0  0  0  0
    9.2631  -13.7181   27.3270 C   0  0  0  0  0  0  0  0  0  0  0  0
    8.1343  -16.5174   23.9688 C   0  0  0  0  0  0  0  0  0  0  0  0
    7.7046  -17.6643   23.6686 O   0  0  0  0  0  0  0  0  0  0  0  0
    7.1270  -12.6740   19.8616 C   0  0  0  0  0  0  0  0  0  0  0  0
    7.9748  -13.5592   20.8456 C   0  0  1  0  0  0  0  0  0  0  0  0
    7.8608  -12.8481   22.1760 C   0  0  0  0  0  0  0  0  0  0  0  0
    7.4297  -14.9403   20.8079 C   0  0  0  0  0  0  0  0  0  0  0  0
    8.1523  -16.0229   21.4718 C   0  0  2  0  0  0  0  0  0  0  0  0
    8.4096  -15.6338   22.8970 N   0  0  0  0  0  0  0  0  0  0  0  0
    9.3926  -16.5655   20.9898 C   0  0  0  0  0  0  0  0  0  0  0  0
    9.4772  -17.1168   19.8641 O   0  0  0  0  0  0  0  0  0  0  0  0
   12.8849  -16.2051   21.0255 C   0  0  0  0  0  0  0  0  0  0  0  0
   11.7981  -17.2545   21.2693 C   0  0  2  0  0  0  0  0  0  0  0  0
   10.6289  -16.5350   21.7235 N   0  0  0  0  0  0  0  0  0  0  0  0
   12.2413  -18.2659   22.2664 C   0  0  0  0  0  0  0  0  0  0  0  0
   13.3851  -19.0183   22.0401 O   0  0  0  0  0  0  0  0  0  0  0  0
   11.6180  -18.4846   23.3372 O   0  0  0  0  0  0  0  0  0  0  0  0
  2 10  1  0
  2  1  1  1
  3  2  1  0
  4  3  1  0
  5  4  2  0
  6  5  1  0
  7  6  2  0
  7  8  1  0
  8  9  2  0
  9  4  1  0
 10 11  2  0
 13 12  1  6
 14 13  1  0
 15 13  1  0
 16 15  1  6
 17 16  1  0
 17 10  1  0
 18 22  1  0
 18 16  1  0
 19 18  2  0
 21 20  1  1
 21 22  1  0
 23 21  1  0
 23 24  1  0
 25 23  2  0
M  END
$$$$
