FLA.pdb
     RDKit          3D

 25 25  0  0  1  0  0  0  0  0999 V2000
    9.2247  -17.7005   22.0434 N   0  0  0  0  0  0  0  0  0  0  0  0
    8.9733  -16.2909   22.2313 C   0  0  1  0  0  0  0  0  0  0  0  0
    7.5875  -15.9019   21.7698 C   0  0  0  0  0  0  0  0  0  0  0  0
    7.6730  -14.6175   21.0444 C   0  0  0  0  0  0  0  0  0  0  0  0
    8.0858  -14.5736   19.7384 C   0  0  0  0  0  0  0  0  0  0  0  0
    8.1704  -13.3674   19.0445 C   0  0  0  0  0  0  0  0  0  0  0  0
    7.8216  -12.2051   19.7217 C   0  0  0  0  0  0  0  0  0  0  0  0
    7.4075  -12.2232   21.0224 C   0  0  0  0  0  0  0  0  0  0  0  0
    7.3377  -13.4478   21.6765 C   0  0  0  0  0  0  0  0  0  0  0  0
    9.1971  -15.9582   23.6566 C   0  0  0  0  0  0  0  0  0  0  0  0
   10.3540  -16.0385   24.1516 O   0  0  0  0  0  0  0  0  0  0  0  0
    5.7580  -12.2626   26.2114 C   0  0  0  0  0  0  0  0  0  0  0  0
    7.0892  -12.8745   25.6419 C   0  0  1  0  0  0  0  0  0  0  0  0
    8.1278  -11.8043   25.8959 C   0  0  0  0  0  0  0  0  0  0  0  0
    7.3267  -14.1731   26.3223 C   0  0  0  0  0  0  0  0  0  0  0  0
    8.4391  -15.0204   25.8985 C   0  0  2  0  0  0  0  0  0  0  0  0
    8.1558  -15.5427   24.5216 N   0  0  0  0  0  0  0  0  0  0  0  0
    8.9110  -16.1504   26.6504 C   0  0  0  0  0  0  0  0  0  0  0  0
    9.3650  -16.0236   27.8150 O   0  0  0  0  0  0  0  0  0  0  0  0
    8.9970  -19.8834   26.2786 C   0  0  0  0  0  0  0  0  0  0  0  0
    9.4734  -18.5876   26.9385 C   0  0  2  0  0  0  0  0  0  0  0  0
    8.9130  -17.5033   26.1632 N   0  0  0  0  0  0  0  0  0  0  0  0
   10.9591  -18.5206   26.9811 C   0  0  0  0  0  0  0  0  0  0  0  0
   11.6391  -17.5694   26.2337 O   0  0  0  0  0  0  0  0  0  0  0  0
   11.6561  -19.3022   27.6783 O   0  0  0  0  0  0  0  0  0  0  0  0
  2 10  1  0
  2  1  1  1
  3  2  1  0
  4  3  1  0
  5  4  2  0
  6  5  1  0
  7  6  2  0
  7  8  1  0
  8  9  2  0
  9  4  1  0
 10 11  2  0
 13 12  1  1
 14 13  1  0
 15 13  1  0
 16 15  1  1
 17 16  1  0
 17 10  1  0
 18 22  1  0
 18 16  1  0
 19 18  2  0
 21 20  1  6
 21 22  1  0
 23 21  1  0
 23 24  1  0
 25 23  2  0
M  END
$$$$
