FLA.pdb
     RDKit          3D

 25 25  0  0  1  0  0  0  0  0999 V2000
    6.0782  -17.5103   25.1319 N   0  0  0  0  0  0  0  0  0  0  0  0
    6.8101  -16.2969   24.8538 C   0  0  1  0  0  0  0  0  0  0  0  0
    7.6639  -15.8754   26.0278 C   0  0  0  0  0  0  0  0  0  0  0  0
    7.3775  -14.4593   26.3374 C   0  0  0  0  0  0  0  0  0  0  0  0
    6.1208  -13.9416   26.1628 C   0  0  0  0  0  0  0  0  0  0  0  0
    5.8394  -12.6070   26.4515 C   0  0  0  0  0  0  0  0  0  0  0  0
    6.8781  -11.8140   26.9242 C   0  0  0  0  0  0  0  0  0  0  0  0
    8.1382  -12.3066   27.1064 C   0  0  0  0  0  0  0  0  0  0  0  0
    8.3748  -13.6431   26.8060 C   0  0  0  0  0  0  0  0  0  0  0  0
    7.6149  -16.5024   23.6280 C   0  0  0  0  0  0  0  0  0  0  0  0
    7.7823  -17.6643   23.1677 O   0  0  0  0  0  0  0  0  0  0  0  0
    7.6874  -12.3899   20.1043 C   0  0  0  0  0  0  0  0  0  0  0  0
    7.4788  -13.7624   20.8415 C   0  0  1  0  0  0  0  0  0  0  0  0
    6.2888  -14.3818   20.1423 C   0  0  0  0  0  0  0  0  0  0  0  0
    8.7468  -14.5305   20.7515 C   0  0  0  0  0  0  0  0  0  0  0  0
    8.9691  -15.6687   21.6403 C   0  0  2  0  0  0  0  0  0  0  0  0
    8.2256  -15.4377   22.9220 N   0  0  0  0  0  0  0  0  0  0  0  0
   10.2723  -16.1336   22.0283 C   0  0  0  0  0  0  0  0  0  0  0  0
   11.1158  -16.5144   21.1787 O   0  0  0  0  0  0  0  0  0  0  0  0
   13.0094  -15.5537   23.1176 C   0  0  0  0  0  0  0  0  0  0  0  0
   12.0823  -16.6171   23.7103 C   0  0  2  0  0  0  0  0  0  0  0  0
   10.7329  -16.2092   23.3884 N   0  0  0  0  0  0  0  0  0  0  0  0
   12.2808  -16.7450   25.1793 C   0  0  0  0  0  0  0  0  0  0  0  0
   13.5376  -17.0293   25.6942 O   0  0  0  0  0  0  0  0  0  0  0  0
   11.3439  -16.6057   26.0075 O   0  0  0  0  0  0  0  0  0  0  0  0
  2 10  1  0
  2  1  1  1
  3  2  1  0
  4  3  1  0
  5  4  2  0
  6  5  1  0
  7  6  2  0
  7  8  1  0
  8  9  2  0
  9  4  1  0
 10 11  2  0
 13 12  1  6
 14 13  1  0
 15 13  1  0
 16 15  1  1
 17 16  1  0
 17 10  1  0
 18 22  1  0
 18 16  1  0
 19 18  2  0
 21 20  1  1
 21 22  1  0
 23 21  1  0
 23 24  1  0
 25 23  2  0
M  END
$$$$
