FLA.pdb
     RDKit          3D

 25 25  0  0  1  0  0  0  0  0999 V2000
    6.2830  -17.4230   25.3298 N   0  0  0  0  0  0  0  0  0  0  0  0
    6.9575  -16.1977   24.9704 C   0  0  1  0  0  0  0  0  0  0  0  0
    7.8821  -15.7235   26.0682 C   0  0  0  0  0  0  0  0  0  0  0  0
    7.5185  -14.3373   26.4280 C   0  0  0  0  0  0  0  0  0  0  0  0
    8.0656  -13.7297   27.5276 C   0  0  0  0  0  0  0  0  0  0  0  0
    7.7294  -12.4224   27.8764 C   0  0  0  0  0  0  0  0  0  0  0  0
    6.8178  -11.7513   27.0704 C   0  0  0  0  0  0  0  0  0  0  0  0
    6.2593  -12.3352   25.9700 C   0  0  0  0  0  0  0  0  0  0  0  0
    6.6225  -13.6404   25.6586 C   0  0  0  0  0  0  0  0  0  0  0  0
    7.6764  -16.4124   23.6939 C   0  0  0  0  0  0  0  0  0  0  0  0
    7.7996  -17.5762   23.2244 O   0  0  0  0  0  0  0  0  0  0  0  0
    7.6890  -12.4028   20.0432 C   0  0  0  0  0  0  0  0  0  0  0  0
    7.4986  -13.7503   20.8300 C   0  0  1  0  0  0  0  0  0  0  0  0
    6.3042  -14.4009   20.1676 C   0  0  0  0  0  0  0  0  0  0  0  0
    8.7704  -14.5131   20.7506 C   0  0  0  0  0  0  0  0  0  0  0  0
    9.0170  -15.6098   21.6843 C   0  0  2  0  0  0  0  0  0  0  0  0
    8.2507  -15.3547   22.9478 N   0  0  0  0  0  0  0  0  0  0  0  0
   10.3291  -16.0183   22.1044 C   0  0  0  0  0  0  0  0  0  0  0  0
   11.1424  -16.5454   21.3049 O   0  0  0  0  0  0  0  0  0  0  0  0
   12.8582  -15.1472   24.4725 C   0  0  0  0  0  0  0  0  0  0  0  0
   12.1524  -16.3334   23.8119 C   0  0  2  0  0  0  0  0  0  0  0  0
   10.8329  -15.8709   23.4431 N   0  0  0  0  0  0  0  0  0  0  0  0
   12.0870  -17.5006   24.7322 C   0  0  0  0  0  0  0  0  0  0  0  0
   13.2529  -18.0941   25.1947 O   0  0  0  0  0  0  0  0  0  0  0  0
   11.0000  -17.9959   25.1273 O   0  0  0  0  0  0  0  0  0  0  0  0
  2 10  1  0
  2  1  1  1
  3  2  1  0
  4  3  1  0
  5  4  2  0
  6  5  1  0
  7  6  2  0
  7  8  1  0
  8  9  2  0
  9  4  1  0
 10 11  2  0
 13 12  1  6
 14 13  1  0
 15 13  1  0
 16 15  1  6
 17 16  1  0
 17 10  1  0
 18 22  1  0
 18 16  1  0
 19 18  2  0
 21 20  1  1
 21 22  1  0
 23 21  1  0
 23 24  1  0
 25 23  2  0
M  END
$$$$
