FLA.pdb
     RDKit          3D

 25 25  0  0  1  0  0  0  0  0999 V2000
   11.4217  -16.9784   22.0905 N   0  0  0  0  0  0  0  0  0  0  0  0
   10.3629  -15.9993   22.0153 C   0  0  1  0  0  0  0  0  0  0  0  0
    9.2967  -16.4012   21.0221 C   0  0  0  0  0  0  0  0  0  0  0  0
    8.4269  -15.2352   20.7632 C   0  0  0  0  0  0  0  0  0  0  0  0
    7.0783  -15.2980   20.9982 C   0  0  0  0  0  0  0  0  0  0  0  0
    6.2483  -14.2041   20.7572 C   0  0  0  0  0  0  0  0  0  0  0  0
    6.8338  -13.0423   20.2689 C   0  0  0  0  0  0  0  0  0  0  0  0
    8.1745  -12.9553   20.0269 C   0  0  0  0  0  0  0  0  0  0  0  0
    8.9654  -14.0699   20.2811 C   0  0  0  0  0  0  0  0  0  0  0  0
    9.8086  -15.7993   23.3737 C   0  0  0  0  0  0  0  0  0  0  0  0
   10.1694  -16.5487   24.3215 O   0  0  0  0  0  0  0  0  0  0  0  0
    7.8236  -11.9860   27.0473 C   0  0  0  0  0  0  0  0  0  0  0  0
    6.8321  -12.9922   26.3577 C   0  0  1  0  0  0  0  0  0  0  0  0
    5.5431  -12.2113   26.2263 C   0  0  0  0  0  0  0  0  0  0  0  0
    7.4444  -13.4390   25.0805 C   0  0  0  0  0  0  0  0  0  0  0  0
    8.4091  -14.5365   25.0844 C   0  0  2  0  0  0  0  0  0  0  0  0
    8.8688  -14.7850   23.6788 N   0  0  0  0  0  0  0  0  0  0  0  0
    8.1363  -15.8347   25.6366 C   0  0  0  0  0  0  0  0  0  0  0  0
    8.3673  -16.0993   26.8429 O   0  0  0  0  0  0  0  0  0  0  0  0
    6.2311  -18.8654   24.5514 C   0  0  0  0  0  0  0  0  0  0  0  0
    7.1602  -18.1535   25.5371 C   0  0  2  0  0  0  0  0  0  0  0  0
    7.5872  -16.9334   24.8889 N   0  0  0  0  0  0  0  0  0  0  0  0
    8.3175  -19.0142   25.9025 C   0  0  0  0  0  0  0  0  0  0  0  0
    9.6107  -18.6181   25.5919 O   0  0  0  0  0  0  0  0  0  0  0  0
    8.1861  -20.1157   26.4959 O   0  0  0  0  0  0  0  0  0  0  0  0
  2 10  1  0
  2  1  1  1
  3  2  1  0
  4  3  1  0
  5  4  2  0
  6  5  1  0
  7  6  2  0
  7  8  1  0
  8  9  2  0
  9  4  1  0
 10 11  2  0
 13 12  1  6
 14 13  1  0
 15 13  1  0
 16 15  1  6
 17 16  1  0
 17 10  1  0
 18 22  1  0
 18 16  1  0
 19 18  2  0
 21 20  1  6
 21 22  1  0
 23 21  1  0
 23 24  1  0
 25 23  2  0
M  END
$$$$
