FLA.pdb
     RDKit          3D

 25 25  0  0  1  0  0  0  0  0999 V2000
    5.6680  -17.9359   24.6251 N   0  0  0  0  0  0  0  0  0  0  0  0
    6.2395  -16.6172   24.7659 C   0  0  1  0  0  0  0  0  0  0  0  0
    6.5048  -16.2724   26.2135 C   0  0  0  0  0  0  0  0  0  0  0  0
    6.6958  -14.8115   26.3251 C   0  0  0  0  0  0  0  0  0  0  0  0
    5.6614  -13.9464   26.0811 C   0  0  0  0  0  0  0  0  0  0  0  0
    5.8305  -12.5664   26.1831 C   0  0  0  0  0  0  0  0  0  0  0  0
    7.0868  -12.0928   26.5417 C   0  0  0  0  0  0  0  0  0  0  0  0
    8.1326  -12.9344   26.7897 C   0  0  0  0  0  0  0  0  0  0  0  0
    7.9200  -14.3035   26.6764 C   0  0  0  0  0  0  0  0  0  0  0  0
    7.4695  -16.5465   23.9445 C   0  0  0  0  0  0  0  0  0  0  0  0
    8.3121  -17.4837   23.9839 O   0  0  0  0  0  0  0  0  0  0  0  0
    7.2504  -12.5610   21.6986 C   0  0  0  0  0  0  0  0  0  0  0  0
    7.4196  -13.8928   20.8810 C   0  0  1  0  0  0  0  0  0  0  0  0
    7.1600  -13.4838   19.4479 C   0  0  0  0  0  0  0  0  0  0  0  0
    8.7747  -14.4338   21.1581 C   0  0  0  0  0  0  0  0  0  0  0  0
    8.9472  -15.4713   22.1724 C   0  0  2  0  0  0  0  0  0  0  0  0
    7.7628  -15.4545   23.0919 N   0  0  0  0  0  0  0  0  0  0  0  0
   10.0984  -15.5657   23.0274 C   0  0  0  0  0  0  0  0  0  0  0  0
   10.0197  -15.3561   24.2636 O   0  0  0  0  0  0  0  0  0  0  0  0
   11.9891  -17.3814   24.3507 C   0  0  0  0  0  0  0  0  0  0  0  0
   12.4859  -16.2123   23.4974 C   0  0  2  0  0  0  0  0  0  0  0  0
   11.4204  -15.8998   22.5711 N   0  0  0  0  0  0  0  0  0  0  0  0
   13.7453  -16.5623   22.7867 C   0  0  0  0  0  0  0  0  0  0  0  0
   13.7687  -16.6432   21.4016 O   0  0  0  0  0  0  0  0  0  0  0  0
   14.8245  -16.7966   23.3895 O   0  0  0  0  0  0  0  0  0  0  0  0
  2 10  1  0
  2  1  1  1
  3  2  1  0
  4  3  1  0
  5  4  2  0
  6  5  1  0
  7  6  2  0
  7  8  1  0
  8  9  2  0
  9  4  1  0
 10 11  2  0
 13 12  1  1
 14 13  1  0
 15 13  1  0
 16 15  1  1
 17 16  1  0
 17 10  1  0
 18 22  1  0
 18 16  1  0
 19 18  2  0
 21 20  1  6
 21 22  1  0
 23 21  1  0
 23 24  1  0
 25 23  2  0
M  END
$$$$
