FLA.pdb
     RDKit          3D

 25 25  0  0  1  0  0  0  0  0999 V2000
    6.8465  -19.4458   24.0069 N   0  0  0  0  0  0  0  0  0  0  0  0
    6.9637  -18.6193   25.1853 C   0  0  1  0  0  0  0  0  0  0  0  0
    7.8067  -19.2797   26.2521 C   0  0  0  0  0  0  0  0  0  0  0  0
    7.0538  -20.4214   26.8114 C   0  0  0  0  0  0  0  0  0  0  0  0
    7.3311  -21.7054   26.4212 C   0  0  0  0  0  0  0  0  0  0  0  0
    6.6269  -22.7900   26.9421 C   0  0  0  0  0  0  0  0  0  0  0  0
    5.6300  -22.5273   27.8739 C   0  0  0  0  0  0  0  0  0  0  0  0
    5.3353  -21.2572   28.2783 C   0  0  0  0  0  0  0  0  0  0  0  0
    6.0622  -20.2050   27.7334 C   0  0  0  0  0  0  0  0  0  0  0  0
    7.5082  -17.3018   24.7847 C   0  0  0  0  0  0  0  0  0  0  0  0
    8.3445  -17.2216   23.8444 O   0  0  0  0  0  0  0  0  0  0  0  0
    7.4311  -11.5275   26.0405 C   0  0  0  0  0  0  0  0  0  0  0  0
    6.7049  -12.8817   26.3719 C   0  0  1  0  0  0  0  0  0  0  0  0
    5.3304  -12.4600   26.8426 C   0  0  0  0  0  0  0  0  0  0  0  0
    6.7332  -13.7293   25.1526 C   0  0  0  0  0  0  0  0  0  0  0  0
    7.7421  -14.7782   25.0226 C   0  0  2  0  0  0  0  0  0  0  0  0
    7.1326  -16.0909   25.4153 N   0  0  0  0  0  0  0  0  0  0  0  0
    9.0225  -14.7370   25.6737 C   0  0  0  0  0  0  0  0  0  0  0  0
    9.9574  -14.0166   25.2434 O   0  0  0  0  0  0  0  0  0  0  0  0
   10.3558  -14.2323   28.6105 C   0  0  0  0  0  0  0  0  0  0  0  0
   10.6108  -15.3000   27.5444 C   0  0  2  0  0  0  0  0  0  0  0  0
    9.3571  -15.4930   26.8502 N   0  0  0  0  0  0  0  0  0  0  0  0
   11.0990  -16.5652   28.1565 C   0  0  0  0  0  0  0  0  0  0  0  0
   12.3131  -16.5956   28.8279 O   0  0  0  0  0  0  0  0  0  0  0  0
   10.4531  -17.6433   28.0980 O   0  0  0  0  0  0  0  0  0  0  0  0
  2 10  1  0
  2  1  1  6
  3  2  1  0
  4  3  1  0
  5  4  2  0
  6  5  1  0
  7  6  2  0
  7  8  1  0
  8  9  2  0
  9  4  1  0
 10 11  2  0
 13 12  1  6
 14 13  1  0
 15 13  1  0
 16 15  1  1
 17 16  1  0
 17 10  1  0
 18 22  1  0
 18 16  1  0
 19 18  2  0
 21 20  1  1
 21 22  1  0
 23 21  1  0
 23 24  1  0
 25 23  2  0
M  END
$$$$
