FLA.pdb
     RDKit          3D

 25 25  0  0  1  0  0  0  0  0999 V2000
    5.5436  -18.2194   25.0096 N   0  0  0  0  0  0  0  0  0  0  0  0
    6.1013  -16.8874   25.0125 C   0  0  1  0  0  0  0  0  0  0  0  0
    6.9234  -16.6262   26.2538 C   0  0  0  0  0  0  0  0  0  0  0  0
    7.1769  -15.1742   26.3571 C   0  0  0  0  0  0  0  0  0  0  0  0
    6.1823  -14.2668   26.1014 C   0  0  0  0  0  0  0  0  0  0  0  0
    6.4104  -12.8948   26.1956 C   0  0  0  0  0  0  0  0  0  0  0  0
    7.6839  -12.4736   26.5588 C   0  0  0  0  0  0  0  0  0  0  0  0
    8.6909  -13.3580   26.8185 C   0  0  0  0  0  0  0  0  0  0  0  0
    8.4199  -14.7173   26.7127 C   0  0  0  0  0  0  0  0  0  0  0  0
    6.8928  -16.7051   23.7744 C   0  0  0  0  0  0  0  0  0  0  0  0
    7.4663  -17.6919   23.2384 O   0  0  0  0  0  0  0  0  0  0  0  0
    7.0204  -12.6115   19.2102 C   0  0  0  0  0  0  0  0  0  0  0  0
    7.7350  -13.9126   19.7271 C   0  0  1  0  0  0  0  0  0  0  0  0
    9.2077  -13.6327   19.5236 C   0  0  0  0  0  0  0  0  0  0  0  0
    7.3140  -14.1413   21.1328 C   0  0  0  0  0  0  0  0  0  0  0  0
    7.8165  -15.3051   21.8595 C   0  0  2  0  0  0  0  0  0  0  0  0
    7.0475  -15.4492   23.1388 N   0  0  0  0  0  0  0  0  0  0  0  0
    9.1966  -15.4864   22.2162 C   0  0  0  0  0  0  0  0  0  0  0  0
   10.0813  -15.6842   21.3464 O   0  0  0  0  0  0  0  0  0  0  0  0
   11.3764  -14.6781   25.0625 C   0  0  0  0  0  0  0  0  0  0  0  0
   11.1060  -15.5781   23.8548 C   0  0  2  0  0  0  0  0  0  0  0  0
    9.6942  -15.4612   23.5651 N   0  0  0  0  0  0  0  0  0  0  0  0
   11.4932  -16.9867   24.1367 C   0  0  0  0  0  0  0  0  0  0  0  0
   10.5327  -17.9883   24.1482 O   0  0  0  0  0  0  0  0  0  0  0  0
   12.6796  -17.3324   24.3727 O   0  0  0  0  0  0  0  0  0  0  0  0
  2 10  1  0
  2  1  1  1
  3  2  1  0
  4  3  1  0
  5  4  2  0
  6  5  1  0
  7  6  2  0
  7  8  1  0
  8  9  2  0
  9  4  1  0
 10 11  2  0
 13 12  1  1
 14 13  1  0
 15 13  1  0
 16 15  1  1
 17 16  1  0
 17 10  1  0
 18 22  1  0
 18 16  1  0
 19 18  2  0
 21 20  1  1
 21 22  1  0
 23 21  1  0
 23 24  1  0
 25 23  2  0
M  END
$$$$
