FLA.pdb
     RDKit          3D

 25 25  0  0  1  0  0  0  0  0999 V2000
    5.7734  -17.9935   24.6828 N   0  0  0  0  0  0  0  0  0  0  0  0
    6.3463  -16.6735   24.8035 C   0  0  1  0  0  0  0  0  0  0  0  0
    6.6711  -16.3321   26.2398 C   0  0  0  0  0  0  0  0  0  0  0  0
    6.8330  -14.8679   26.3537 C   0  0  0  0  0  0  0  0  0  0  0  0
    8.0635  -14.3127   26.5892 C   0  0  0  0  0  0  0  0  0  0  0  0
    8.2277  -12.9326   26.6987 C   0  0  0  0  0  0  0  0  0  0  0  0
    7.0992  -12.1335   26.5610 C   0  0  0  0  0  0  0  0  0  0  0  0
    5.8630  -12.6629   26.3260 C   0  0  0  0  0  0  0  0  0  0  0  0
    5.7445  -14.0442   26.2239 C   0  0  0  0  0  0  0  0  0  0  0  0
    7.5405  -16.5964   23.9314 C   0  0  0  0  0  0  0  0  0  0  0  0
    8.2152  -17.6336   23.6884 O   0  0  0  0  0  0  0  0  0  0  0  0
    7.5471  -12.1884   20.6697 C   0  0  0  0  0  0  0  0  0  0  0  0
    7.4164  -13.6362   21.2679 C   0  0  1  0  0  0  0  0  0  0  0  0
    6.4971  -14.3539   20.3044 C   0  0  0  0  0  0  0  0  0  0  0  0
    8.7819  -14.2059   21.3966 C   0  0  0  0  0  0  0  0  0  0  0  0
    9.0003  -15.3814   22.2366 C   0  0  2  0  0  0  0  0  0  0  0  0
    7.9815  -15.3893   23.3369 N   0  0  0  0  0  0  0  0  0  0  0  0
   10.2541  -15.6865   22.8691 C   0  0  0  0  0  0  0  0  0  0  0  0
   11.3122  -15.8182   22.2048 O   0  0  0  0  0  0  0  0  0  0  0  0
   11.8212  -15.5130   26.1843 C   0  0  0  0  0  0  0  0  0  0  0  0
   11.6944  -16.2577   24.8536 C   0  0  2  0  0  0  0  0  0  0  0  0
   10.4233  -15.8674   24.2855 N   0  0  0  0  0  0  0  0  0  0  0  0
   11.7777  -17.7300   25.0513 C   0  0  0  0  0  0  0  0  0  0  0  0
   12.9316  -18.3034   25.5663 O   0  0  0  0  0  0  0  0  0  0  0  0
   10.8312  -18.5093   24.7691 O   0  0  0  0  0  0  0  0  0  0  0  0
  2 10  1  0
  2  1  1  1
  3  2  1  0
  4  3  1  0
  5  4  2  0
  6  5  1  0
  7  6  2  0
  7  8  1  0
  8  9  2  0
  9  4  1  0
 10 11  2  0
 13 12  1  6
 14 13  1  0
 15 13  1  0
 16 15  1  1
 17 16  1  0
 17 10  1  0
 18 22  1  0
 18 16  1  0
 19 18  2  0
 21 20  1  1
 21 22  1  0
 23 21  1  0
 23 24  1  0
 25 23  2  0
M  END
$$$$
