FLA.pdb
     RDKit          3D

 25 25  0  0  1  0  0  0  0  0999 V2000
    6.5914  -17.8193   25.6766 N   0  0  0  0  0  0  0  0  0  0  0  0
    7.6070  -16.7945   25.6157 C   0  0  1  0  0  0  0  0  0  0  0  0
    8.6600  -16.9843   26.6834 C   0  0  0  0  0  0  0  0  0  0  0  0
    8.9639  -15.6706   27.2877 C   0  0  0  0  0  0  0  0  0  0  0  0
    8.4685  -14.5147   26.7434 C   0  0  0  0  0  0  0  0  0  0  0  0
    8.7491  -13.2700   27.3051 C   0  0  0  0  0  0  0  0  0  0  0  0
    9.5507  -13.2376   28.4397 C   0  0  0  0  0  0  0  0  0  0  0  0
   10.0559  -14.3752   29.0003 C   0  0  0  0  0  0  0  0  0  0  0  0
    9.7512  -15.5953   28.4079 C   0  0  0  0  0  0  0  0  0  0  0  0
    8.1910  -16.7900   24.2551 C   0  0  0  0  0  0  0  0  0  0  0  0
    8.1879  -17.8428   23.5611 O   0  0  0  0  0  0  0  0  0  0  0  0
    7.3977  -12.5322   21.0226 C   0  0  0  0  0  0  0  0  0  0  0  0
    7.4796  -13.9884   21.6087 C   0  0  1  0  0  0  0  0  0  0  0  0
    6.5580  -14.7972   20.7227 C   0  0  0  0  0  0  0  0  0  0  0  0
    8.9046  -14.4070   21.6037 C   0  0  0  0  0  0  0  0  0  0  0  0
    9.2976  -15.6481   22.2672 C   0  0  2  0  0  0  0  0  0  0  0  0
    8.7701  -15.6373   23.6710 N   0  0  0  0  0  0  0  0  0  0  0  0
   10.6576  -16.1006   22.3693 C   0  0  0  0  0  0  0  0  0  0  0  0
   11.3394  -16.3735   21.3499 O   0  0  0  0  0  0  0  0  0  0  0  0
   13.5115  -15.7084   24.4612 C   0  0  0  0  0  0  0  0  0  0  0  0
   12.7297  -16.7421   23.6476 C   0  0  2  0  0  0  0  0  0  0  0  0
   11.3591  -16.2828   23.6112 N   0  0  0  0  0  0  0  0  0  0  0  0
   12.8382  -18.0967   24.2532 C   0  0  0  0  0  0  0  0  0  0  0  0
   11.7078  -18.7409   24.7356 O   0  0  0  0  0  0  0  0  0  0  0  0
   13.9314  -18.7109   24.3560 O   0  0  0  0  0  0  0  0  0  0  0  0
  2 10  1  0
  2  1  1  6
  3  2  1  0
  4  3  1  0
  5  4  2  0
  6  5  1  0
  7  6  2  0
  7  8  1  0
  8  9  2  0
  9  4  1  0
 10 11  2  0
 13 12  1  6
 14 13  1  0
 15 13  1  0
 16 15  1  1
 17 16  1  0
 17 10  1  0
 18 22  1  0
 18 16  1  0
 19 18  2  0
 21 20  1  1
 21 22  1  0
 23 21  1  0
 23 24  1  0
 25 23  2  0
M  END
$$$$
