HPE.pdb
     RDKit          3D

 27 28  0  0  1  0  0  0  0  0999 V2000
   19.1014  -12.6043  -17.1937 N   0  0  0  0  0  0  0  0  0  0  0  0
   19.9509  -11.5155  -17.5233 C   0  0  1  0  0  0  0  0  0  0  0  0
   19.2673  -10.4921  -18.4223 C   0  0  0  0  0  0  0  0  0  0  0  0
   18.8003  -11.1089  -19.6858 C   0  0  0  0  0  0  0  0  0  0  0  0
   19.5453  -11.6895  -20.6824 C   0  0  0  0  0  0  0  0  0  0  0  0
   18.6875  -12.1097  -21.6333 N   0  0  0  0  0  0  0  0  0  0  0  0
   17.4379  -11.8018  -21.2454 C   0  0  0  0  0  0  0  0  0  0  0  0
   17.5186  -11.1919  -20.0566 N   0  0  0  0  0  0  0  0  0  0  0  0
   20.5667  -10.8276  -16.3417 C   0  0  0  0  0  0  0  0  0  0  0  0
   19.8366  -10.7555  -15.2907 O   0  0  0  0  0  0  0  0  0  0  0  0
   21.8804  -10.2841  -16.3660 N   0  0  0  0  0  0  0  0  0  0  0  0
   22.8805  -10.3314  -17.3904 C   0  0  0  0  0  0  0  0  0  0  0  0
   23.9715   -9.4009  -16.9516 C   0  0  0  0  0  0  0  0  0  0  0  0
   23.9254   -9.5648  -15.4507 C   0  0  0  0  0  0  0  0  0  0  0  0
   22.4291   -9.5572  -15.2398 C   0  0  1  0  0  0  0  0  0  0  0  0
   21.8905   -8.1857  -15.1419 C   0  0  0  0  0  0  0  0  0  0  0  0
   21.5272   -7.6144  -16.2210 O   0  0  0  0  0  0  0  0  0  0  0  0
   21.7521   -7.4693  -13.9471 N   0  0  0  0  0  0  0  0  0  0  0  0
   20.9546   -6.2372  -13.7897 C   0  0  1  0  0  0  0  0  0  0  0  0
   19.5528   -6.5638  -13.4645 C   0  0  0  0  0  0  0  0  0  0  0  0
   19.3588   -7.1120  -12.0948 C   0  0  0  0  0  0  0  0  0  0  0  0
   17.9490   -7.2654  -11.6724 C   0  0  0  0  0  0  0  0  0  0  0  0
   16.9595   -6.8533  -12.3487 O   0  0  0  0  0  0  0  0  0  0  0  0
   21.6610   -5.1966  -13.1021 C   0  0  0  0  0  0  0  0  0  0  0  0
   21.3969   -3.9670  -13.0445 O   0  0  0  0  0  0  0  0  0  0  0  0
   17.6364   -7.9006  -10.4556 O   0  0  0  0  0  0  0  0  0  0  0  0
   22.8222   -5.5764  -12.3779 O   0  0  0  0  0  0  0  0  0  0  0  0
  2  1  1  1
  2  9  1  0
  3  4  1  0
  3  2  1  0
  4  8  1  0
  4  5  2  0
  5  6  1  0
  7  6  1  0
  8  7  2  0
  9 11  1  0
  9 10  2  0
 11 12  1  0
 13 12  1  0
 14 15  1  0
 14 13  1  0
 15 11  1  0
 15 16  1  6
 16 17  2  0
 18 16  1  0
 19 18  1  0
 19 20  1  1
 21 20  1  0
 22 21  1  0
 23 22  2  0
 24 19  1  0
 25 24  2  0
 26 22  1  0
 27 24  1  0
M  END
$$$$
