HPE.pdb
     RDKit          3D

 27 28  0  0  1  0  0  0  0  0999 V2000
   14.5678  -23.5083    3.1479 N   0  0  0  0  0  0  0  0  0  0  0  0
   15.6412  -24.1959    3.7730 C   0  0  1  0  0  0  0  0  0  0  0  0
   16.8700  -24.2986    2.8774 C   0  0  0  0  0  0  0  0  0  0  0  0
   17.0010  -25.6534    2.2923 C   0  0  0  0  0  0  0  0  0  0  0  0
   16.3952  -26.1646    1.1711 C   0  0  0  0  0  0  0  0  0  0  0  0
   16.8154  -27.4376    1.0316 N   0  0  0  0  0  0  0  0  0  0  0  0
   17.6617  -27.7190    2.0373 C   0  0  0  0  0  0  0  0  0  0  0  0
   17.7675  -26.6240    2.7997 N   0  0  0  0  0  0  0  0  0  0  0  0
   16.0305  -23.6520    5.1151 C   0  0  0  0  0  0  0  0  0  0  0  0
   15.6656  -22.4481    5.3601 O   0  0  0  0  0  0  0  0  0  0  0  0
   16.7583  -24.4116    6.0717 N   0  0  0  0  0  0  0  0  0  0  0  0
   17.2440  -25.7576    6.0060 C   0  0  0  0  0  0  0  0  0  0  0  0
   18.1270  -25.9413    7.2040 C   0  0  0  0  0  0  0  0  0  0  0  0
   17.4374  -25.0692    8.2265 C   0  0  0  0  0  0  0  0  0  0  0  0
   17.1203  -23.8690    7.3649 C   0  0  1  0  0  0  0  0  0  0  0  0
   18.2581  -22.9315    7.2807 C   0  0  0  0  0  0  0  0  0  0  0  0
   19.0843  -23.0883    6.3238 O   0  0  0  0  0  0  0  0  0  0  0  0
   18.4930  -21.8836    8.1789 N   0  0  0  0  0  0  0  0  0  0  0  0
   19.6282  -20.9435    8.1003 C   0  0  1  0  0  0  0  0  0  0  0  0
   19.2031  -19.5827    8.4812 C   0  0  0  0  0  0  0  0  0  0  0  0
   18.0224  -19.0816    7.7270 C   0  0  0  0  0  0  0  0  0  0  0  0
   17.5400  -17.7422    8.1306 C   0  0  0  0  0  0  0  0  0  0  0  0
   16.9647  -17.5009    9.2338 O   0  0  0  0  0  0  0  0  0  0  0  0
   20.8563  -21.5069    8.5786 C   0  0  0  0  0  0  0  0  0  0  0  0
   21.0387  -22.5747    9.2202 O   0  0  0  0  0  0  0  0  0  0  0  0
   17.7073  -16.6381    7.2735 O   0  0  0  0  0  0  0  0  0  0  0  0
   22.0469  -20.7823    8.3054 O   0  0  0  0  0  0  0  0  0  0  0  0
  2  1  1  6
  2  9  1  0
  3  4  1  0
  3  2  1  0
  4  8  1  0
  4  5  2  0
  5  6  1  0
  7  6  1  0
  8  7  2  0
  9 11  1  0
  9 10  2  0
 11 12  1  0
 13 12  1  0
 14 15  1  0
 14 13  1  0
 15 11  1  0
 15 16  1  6
 16 17  2  0
 18 16  1  0
 19 18  1  0
 19 20  1  1
 21 20  1  0
 22 21  1  0
 23 22  2  0
 24 19  1  0
 25 24  2  0
 26 22  1  0
 27 24  1  0
M  END
$$$$
