HPE.pdb
     RDKit          3D

 27 28  0  0  1  0  0  0  0  0999 V2000
   21.3700  -13.9090  -19.0172 N   0  0  0  0  0  0  0  0  0  0  0  0
   20.2011  -13.1330  -18.7995 C   0  0  1  0  0  0  0  0  0  0  0  0
   19.3805  -13.6318  -17.6160 C   0  0  0  0  0  0  0  0  0  0  0  0
   18.8727  -15.0038  -17.8500 C   0  0  0  0  0  0  0  0  0  0  0  0
   19.4739  -16.2020  -17.5532 C   0  0  0  0  0  0  0  0  0  0  0  0
   18.6368  -17.1813  -17.9491 N   0  0  0  0  0  0  0  0  0  0  0  0
   17.5398  -16.6145  -18.4802 C   0  0  0  0  0  0  0  0  0  0  0  0
   17.6945  -15.2866  -18.4146 N   0  0  0  0  0  0  0  0  0  0  0  0
   20.4485  -11.6601  -18.6658 C   0  0  0  0  0  0  0  0  0  0  0  0
   21.5103  -11.3247  -18.0310 O   0  0  0  0  0  0  0  0  0  0  0  0
   19.5711  -10.6802  -19.2057 N   0  0  0  0  0  0  0  0  0  0  0  0
   18.3303  -10.8361  -19.9042 C   0  0  0  0  0  0  0  0  0  0  0  0
   17.7472   -9.4604  -20.0310 C   0  0  0  0  0  0  0  0  0  0  0  0
   18.9909   -8.6151  -20.1730 C   0  0  0  0  0  0  0  0  0  0  0  0
   19.8608   -9.2635  -19.1212 C   0  0  1  0  0  0  0  0  0  0  0  0
   19.6009   -8.7177  -17.7739 C   0  0  0  0  0  0  0  0  0  0  0  0
   18.7270   -9.3045  -17.0565 O   0  0  0  0  0  0  0  0  0  0  0  0
   20.2466   -7.6007  -17.2305 N   0  0  0  0  0  0  0  0  0  0  0  0
   20.0761   -7.1183  -15.8460 C   0  0  1  0  0  0  0  0  0  0  0  0
   21.2626   -6.3560  -15.4117 C   0  0  0  0  0  0  0  0  0  0  0  0
   21.2068   -5.8994  -13.9966 C   0  0  0  0  0  0  0  0  0  0  0  0
   22.3615   -5.0883  -13.5511 C   0  0  0  0  0  0  0  0  0  0  0  0
   22.3100   -4.2433  -12.6080 O   0  0  0  0  0  0  0  0  0  0  0  0
   18.7469   -6.6563  -15.5734 C   0  0  0  0  0  0  0  0  0  0  0  0
   17.9770   -5.9854  -16.3097 O   0  0  0  0  0  0  0  0  0  0  0  0
   23.6132   -5.2277  -14.1800 O   0  0  0  0  0  0  0  0  0  0  0  0
   18.1975   -6.9865  -14.3059 O   0  0  0  0  0  0  0  0  0  0  0  0
  2  1  1  1
  2  9  1  0
  3  4  1  0
  3  2  1  0
  4  8  1  0
  4  5  2  0
  5  6  1  0
  7  6  1  0
  8  7  2  0
  9 11  1  0
  9 10  2  0
 11 12  1  0
 13 12  1  0
 14 15  1  0
 14 13  1  0
 15 11  1  0
 15 16  1  1
 16 17  2  0
 18 16  1  0
 19 18  1  0
 19 20  1  6
 21 20  1  0
 22 21  1  0
 23 22  2  0
 24 19  1  0
 25 24  2  0
 26 22  1  0
 27 24  1  0
M  END
$$$$
