HPE.pdb
     RDKit          3D

 27 28  0  0  1  0  0  0  0  0999 V2000
   20.8761  -20.7814  -13.9161 N   0  0  0  0  0  0  0  0  0  0  0  0
   20.5574  -20.3262  -12.6096 C   0  0  1  0  0  0  0  0  0  0  0  0
   19.1774  -19.6836  -12.5350 C   0  0  0  0  0  0  0  0  0  0  0  0
   19.0718  -18.5220  -13.4485 C   0  0  0  0  0  0  0  0  0  0  0  0
   19.5119  -17.2361  -13.2537 C   0  0  0  0  0  0  0  0  0  0  0  0
   19.1934  -16.5302  -14.3568 N   0  0  0  0  0  0  0  0  0  0  0  0
   18.5703  -17.3495  -15.2212 C   0  0  0  0  0  0  0  0  0  0  0  0
   18.5016  -18.5614  -14.6570 N   0  0  0  0  0  0  0  0  0  0  0  0
   20.6959  -21.3658  -11.5379 C   0  0  0  0  0  0  0  0  0  0  0  0
   20.3560  -22.5576  -11.8648 O   0  0  0  0  0  0  0  0  0  0  0  0
   21.1755  -21.0670  -10.2332 N   0  0  0  0  0  0  0  0  0  0  0  0
   21.5322  -19.8102   -9.6458 C   0  0  0  0  0  0  0  0  0  0  0  0
   21.7504  -20.0786   -8.1866 C   0  0  0  0  0  0  0  0  0  0  0  0
   22.3159  -21.4790   -8.2165 C   0  0  0  0  0  0  0  0  0  0  0  0
   21.3998  -22.1015   -9.2445 C   0  0  1  0  0  0  0  0  0  0  0  0
   20.1404  -22.5849   -8.6437 C   0  0  0  0  0  0  0  0  0  0  0  0
   19.1371  -21.8001   -8.6613 O   0  0  0  0  0  0  0  0  0  0  0  0
   19.9722  -23.8441   -8.0555 N   0  0  0  0  0  0  0  0  0  0  0  0
   18.6689  -24.4552   -7.7283 C   0  0  1  0  0  0  0  0  0  0  0  0
   18.4980  -25.7314   -8.4491 C   0  0  0  0  0  0  0  0  0  0  0  0
   17.1597  -26.3564   -8.2688 C   0  0  0  0  0  0  0  0  0  0  0  0
   16.9663  -27.6434   -8.9730 C   0  0  0  0  0  0  0  0  0  0  0  0
   17.0936  -27.7900  -10.2254 O   0  0  0  0  0  0  0  0  0  0  0  0
   18.3199  -24.3230   -6.3444 C   0  0  0  0  0  0  0  0  0  0  0  0
   19.0753  -24.3029   -5.3374 O   0  0  0  0  0  0  0  0  0  0  0  0
   16.6205  -28.8028   -8.2533 O   0  0  0  0  0  0  0  0  0  0  0  0
   16.9390  -24.1952   -6.0378 O   0  0  0  0  0  0  0  0  0  0  0  0
  2  1  1  6
  2  9  1  0
  3  4  1  0
  3  2  1  0
  4  8  1  0
  4  5  2  0
  5  6  1  0
  7  6  1  0
  8  7  2  0
  9 11  1  0
  9 10  2  0
 11 12  1  0
 13 12  1  0
 14 15  1  0
 14 13  1  0
 15 11  1  0
 15 16  1  1
 16 17  2  0
 18 16  1  0
 19 18  1  0
 19 20  1  1
 21 20  1  0
 22 21  1  0
 23 22  2  0
 24 19  1  0
 25 24  2  0
 26 22  1  0
 27 24  1  0
M  END
$$$$
