HPE.pdb
     RDKit          3D

 27 28  0  0  1  0  0  0  0  0999 V2000
   18.1378  -10.0860  -13.3328 N   0  0  0  0  0  0  0  0  0  0  0  0
   17.4163   -8.8657  -13.2553 C   0  0  1  0  0  0  0  0  0  0  0  0
   16.0883   -8.9235  -14.0010 C   0  0  0  0  0  0  0  0  0  0  0  0
   16.2921   -9.1433  -15.4519 C   0  0  0  0  0  0  0  0  0  0  0  0
   16.2132  -10.3170  -16.1600 C   0  0  0  0  0  0  0  0  0  0  0  0
   16.4766  -10.0275  -17.4497 N   0  0  0  0  0  0  0  0  0  0  0  0
   16.7146   -8.7084  -17.5497 C   0  0  0  0  0  0  0  0  0  0  0  0
   16.5995   -8.1793  -16.3256 N   0  0  0  0  0  0  0  0  0  0  0  0
   17.1980   -8.3598  -11.8607 C   0  0  0  0  0  0  0  0  0  0  0  0
   16.8740   -9.2411  -10.9882 O   0  0  0  0  0  0  0  0  0  0  0  0
   17.3395   -6.9897  -11.5080 N   0  0  0  0  0  0  0  0  0  0  0  0
   17.6974   -5.8609  -12.3140 C   0  0  0  0  0  0  0  0  0  0  0  0
   17.4670   -4.6493  -11.4608 C   0  0  0  0  0  0  0  0  0  0  0  0
   17.8131   -5.1745  -10.0875 C   0  0  0  0  0  0  0  0  0  0  0  0
   17.1344   -6.5231  -10.1522 C   0  0  1  0  0  0  0  0  0  0  0  0
   15.7030   -6.4403   -9.7986 C   0  0  0  0  0  0  0  0  0  0  0  0
   14.8580   -6.8756  -10.6468 O   0  0  0  0  0  0  0  0  0  0  0  0
   15.2098   -5.9165   -8.5977 N   0  0  0  0  0  0  0  0  0  0  0  0
   13.7909   -5.9304   -8.1908 C   0  0  1  0  0  0  0  0  0  0  0  0
   13.3253   -7.3144   -7.9776 C   0  0  0  0  0  0  0  0  0  0  0  0
   12.9906   -8.0427   -9.2313 C   0  0  0  0  0  0  0  0  0  0  0  0
   12.4097   -9.3901   -9.0402 C   0  0  0  0  0  0  0  0  0  0  0  0
   12.1688   -9.9018   -7.9060 O   0  0  0  0  0  0  0  0  0  0  0  0
   13.4604   -4.8786   -7.2749 C   0  0  0  0  0  0  0  0  0  0  0  0
   14.2200   -4.2320   -6.5069 O   0  0  0  0  0  0  0  0  0  0  0  0
   12.0873  -10.1898  -10.1530 O   0  0  0  0  0  0  0  0  0  0  0  0
   12.0956   -4.4921   -7.2035 O   0  0  0  0  0  0  0  0  0  0  0  0
  2  1  1  1
  2  9  1  0
  3  4  1  0
  3  2  1  0
  4  8  1  0
  4  5  2  0
  5  6  1  0
  7  6  1  0
  8  7  2  0
  9 11  1  0
  9 10  2  0
 11 12  1  0
 13 12  1  0
 14 15  1  0
 14 13  1  0
 15 11  1  0
 15 16  1  6
 16 17  2  0
 18 16  1  0
 19 18  1  0
 19 20  1  1
 21 20  1  0
 22 21  1  0
 23 22  2  0
 24 19  1  0
 25 24  2  0
 26 22  1  0
 27 24  1  0
M  END
$$$$
