HPE.pdb
     RDKit          3D

 27 28  0  0  1  0  0  0  0  0999 V2000
   18.7221  -13.9698  -16.5609 N   0  0  0  0  0  0  0  0  0  0  0  0
   17.9164  -12.8016  -16.5171 C   0  0  1  0  0  0  0  0  0  0  0  0
   17.2778  -12.5830  -15.1506 C   0  0  0  0  0  0  0  0  0  0  0  0
   16.4434  -13.7406  -14.7523 C   0  0  0  0  0  0  0  0  0  0  0  0
   15.1316  -13.9991  -15.0650 C   0  0  0  0  0  0  0  0  0  0  0  0
   14.8009  -15.1671  -14.4793 N   0  0  0  0  0  0  0  0  0  0  0  0
   15.8749  -15.6301  -13.8168 C   0  0  0  0  0  0  0  0  0  0  0  0
   16.8705  -14.7524  -13.9901 N   0  0  0  0  0  0  0  0  0  0  0  0
   18.6114  -11.5499  -16.9629 C   0  0  0  0  0  0  0  0  0  0  0  0
   19.8015  -11.3800  -16.5184 O   0  0  0  0  0  0  0  0  0  0  0  0
   18.0040  -10.5987  -17.8277 N   0  0  0  0  0  0  0  0  0  0  0  0
   16.7671  -10.6625  -18.5473 C   0  0  0  0  0  0  0  0  0  0  0  0
   16.5394   -9.2903  -19.1079 C   0  0  0  0  0  0  0  0  0  0  0  0
   17.9531   -8.8380  -19.3880 C   0  0  0  0  0  0  0  0  0  0  0  0
   18.6312   -9.3286  -18.1299 C   0  0  1  0  0  0  0  0  0  0  0  0
   18.5046   -8.3629  -17.0199 C   0  0  0  0  0  0  0  0  0  0  0  0
   17.5367   -8.5199  -16.2067 O   0  0  0  0  0  0  0  0  0  0  0  0
   19.3727   -7.2869  -16.7992 N   0  0  0  0  0  0  0  0  0  0  0  0
   19.3531   -6.4179  -15.6062 C   0  0  1  0  0  0  0  0  0  0  0  0
   20.5919   -6.5844  -14.8219 C   0  0  0  0  0  0  0  0  0  0  0  0
   20.6751   -5.7057  -13.6239 C   0  0  0  0  0  0  0  0  0  0  0  0
   21.9029   -5.8622  -12.8129 C   0  0  0  0  0  0  0  0  0  0  0  0
   22.8311   -5.0007  -12.7622 O   0  0  0  0  0  0  0  0  0  0  0  0
   18.7986   -5.1220  -15.8662 C   0  0  0  0  0  0  0  0  0  0  0  0
   18.8168   -4.4544  -16.9335 O   0  0  0  0  0  0  0  0  0  0  0  0
   22.0978   -7.0182  -12.0336 O   0  0  0  0  0  0  0  0  0  0  0  0
   18.1311   -4.4793  -14.7899 O   0  0  0  0  0  0  0  0  0  0  0  0
  2  1  1  1
  2  9  1  0
  3  4  1  0
  3  2  1  0
  4  8  1  0
  4  5  2  0
  5  6  1  0
  7  6  1  0
  8  7  2  0
  9 11  1  0
  9 10  2  0
 11 12  1  0
 13 12  1  0
 14 15  1  0
 14 13  1  0
 15 11  1  0
 15 16  1  1
 16 17  2  0
 18 16  1  0
 19 18  1  0
 19 20  1  6
 21 20  1  0
 22 21  1  0
 23 22  2  0
 24 19  1  0
 25 24  2  0
 26 22  1  0
 27 24  1  0
M  END
$$$$
