HPE.pdb
     RDKit          3D

 27 28  0  0  1  0  0  0  0  0999 V2000
   27.1714  -21.5581  -15.6127 N   0  0  0  0  0  0  0  0  0  0  0  0
   26.7414  -20.6794  -14.5837 C   0  0  1  0  0  0  0  0  0  0  0  0
   26.3818  -19.2950  -15.1097 C   0  0  0  0  0  0  0  0  0  0  0  0
   27.5010  -18.7006  -15.8772 C   0  0  0  0  0  0  0  0  0  0  0  0
   28.7984  -19.1387  -15.9782 C   0  0  0  0  0  0  0  0  0  0  0  0
   29.4520  -18.2785  -16.7840 N   0  0  0  0  0  0  0  0  0  0  0  0
   28.5896  -17.3260  -17.1786 C   0  0  0  0  0  0  0  0  0  0  0  0
   27.4031  -17.5933  -16.6196 N   0  0  0  0  0  0  0  0  0  0  0  0
   25.6229  -21.2118  -13.7385 C   0  0  0  0  0  0  0  0  0  0  0  0
   24.7449  -21.9179  -14.3494 O   0  0  0  0  0  0  0  0  0  0  0  0
   25.5267  -20.9610  -12.3423 N   0  0  0  0  0  0  0  0  0  0  0  0
   26.4803  -20.3896  -11.4389 C   0  0  0  0  0  0  0  0  0  0  0  0
   25.7500  -20.1656  -10.1484 C   0  0  0  0  0  0  0  0  0  0  0  0
   24.7853  -21.3279  -10.1394 C   0  0  0  0  0  0  0  0  0  0  0  0
   24.3407  -21.3007  -11.5834 C   0  0  1  0  0  0  0  0  0  0  0  0
   23.2394  -20.3425  -11.8060 C   0  0  0  0  0  0  0  0  0  0  0  0
   23.5267  -19.2271  -12.3502 O   0  0  0  0  0  0  0  0  0  0  0  0
   21.9026  -20.5734  -11.4602 N   0  0  0  0  0  0  0  0  0  0  0  0
   20.7403  -20.2075  -12.2933 C   0  0  1  0  0  0  0  0  0  0  0  0
   20.9499  -20.6298  -13.6916 C   0  0  0  0  0  0  0  0  0  0  0  0
   19.8359  -20.2676  -14.6091 C   0  0  0  0  0  0  0  0  0  0  0  0
   20.0071  -20.7081  -16.0114 C   0  0  0  0  0  0  0  0  0  0  0  0
   19.1878  -20.4420  -16.9410 O   0  0  0  0  0  0  0  0  0  0  0  0
   19.4875  -20.4123  -11.6279 C   0  0  0  0  0  0  0  0  0  0  0  0
   19.0864  -21.4221  -10.9919 O   0  0  0  0  0  0  0  0  0  0  0  0
   21.1306  -21.4693  -16.3855 O   0  0  0  0  0  0  0  0  0  0  0  0
   18.5506  -19.3459  -11.6764 O   0  0  0  0  0  0  0  0  0  0  0  0
  2  1  1  6
  2  9  1  0
  3  4  1  0
  3  2  1  0
  4  8  1  0
  4  5  2  0
  5  6  1  0
  7  6  1  0
  8  7  2  0
  9 11  1  0
  9 10  2  0
 11 12  1  0
 13 12  1  0
 14 15  1  0
 14 13  1  0
 15 11  1  0
 15 16  1  1
 16 17  2  0
 18 16  1  0
 19 18  1  0
 19 20  1  6
 21 20  1  0
 22 21  1  0
 23 22  2  0
 24 19  1  0
 25 24  2  0
 26 22  1  0
 27 24  1  0
M  END
$$$$
