HPE.pdb
     RDKit          3D

 27 28  0  0  1  0  0  0  0  0999 V2000
   24.9839  -21.4753  -13.3640 N   0  0  0  0  0  0  0  0  0  0  0  0
   24.5294  -20.6414  -12.3086 C   0  0  1  0  0  0  0  0  0  0  0  0
   23.1846  -19.9925  -12.6140 C   0  0  0  0  0  0  0  0  0  0  0  0
   23.2304  -19.2233  -13.8793 C   0  0  0  0  0  0  0  0  0  0  0  0
   24.3240  -18.8878  -14.6389 C   0  0  0  0  0  0  0  0  0  0  0  0
   23.8775  -18.1848  -15.6987 N   0  0  0  0  0  0  0  0  0  0  0  0
   22.5405  -18.0811  -15.6079 C   0  0  0  0  0  0  0  0  0  0  0  0
   22.1567  -18.7179  -14.4948 N   0  0  0  0  0  0  0  0  0  0  0  0
   24.4826  -21.3075  -10.9659 C   0  0  0  0  0  0  0  0  0  0  0  0
   24.0056  -22.4970  -10.9459 O   0  0  0  0  0  0  0  0  0  0  0  0
   24.9373  -20.6748   -9.7766 N   0  0  0  0  0  0  0  0  0  0  0  0
   25.5617  -19.3992   -9.5899 C   0  0  0  0  0  0  0  0  0  0  0  0
   25.6108  -19.1715   -8.1086 C   0  0  0  0  0  0  0  0  0  0  0  0
   25.8044  -20.5774   -7.5912 C   0  0  0  0  0  0  0  0  0  0  0  0
   24.8286  -21.3125   -8.4806 C   0  0  1  0  0  0  0  0  0  0  0  0
   23.4520  -21.2683   -7.9480 C   0  0  0  0  0  0  0  0  0  0  0  0
   22.7078  -20.3006   -8.3119 O   0  0  0  0  0  0  0  0  0  0  0  0
   22.9082  -22.2143   -7.0709 N   0  0  0  0  0  0  0  0  0  0  0  0
   21.4699  -22.3590   -6.7722 C   0  0  1  0  0  0  0  0  0  0  0  0
   20.8825  -23.4561   -7.5654 C   0  0  0  0  0  0  0  0  0  0  0  0
   19.6198  -23.0923   -8.2636 C   0  0  0  0  0  0  0  0  0  0  0  0
   18.4559  -23.9492   -7.9460 C   0  0  0  0  0  0  0  0  0  0  0  0
   18.5063  -24.9517   -7.1722 O   0  0  0  0  0  0  0  0  0  0  0  0
   21.1673  -22.1943   -5.3809 C   0  0  0  0  0  0  0  0  0  0  0  0
   20.0552  -21.9693   -4.8354 O   0  0  0  0  0  0  0  0  0  0  0  0
   17.1961  -23.6753   -8.5112 O   0  0  0  0  0  0  0  0  0  0  0  0
   22.2522  -22.2940   -4.4697 O   0  0  0  0  0  0  0  0  0  0  0  0
  2  1  1  6
  2  9  1  0
  3  4  1  0
  3  2  1  0
  4  8  1  0
  4  5  2  0
  5  6  1  0
  7  6  1  0
  8  7  2  0
  9 11  1  0
  9 10  2  0
 11 12  1  0
 13 12  1  0
 14 15  1  0
 14 13  1  0
 15 11  1  0
 15 16  1  1
 16 17  2  0
 18 16  1  0
 19 18  1  0
 19 20  1  1
 21 20  1  0
 22 21  1  0
 23 22  2  0
 24 19  1  0
 25 24  2  0
 26 22  1  0
 27 24  1  0
M  END
$$$$
