HPE.pdb
     RDKit          3D

 27 28  0  0  1  0  0  0  0  0999 V2000
   15.1903  -18.8096    3.7393 N   0  0  0  0  0  0  0  0  0  0  0  0
   16.2504  -19.5658    4.3050 C   0  0  1  0  0  0  0  0  0  0  0  0
   17.4953  -19.5756    3.4260 C   0  0  0  0  0  0  0  0  0  0  0  0
   17.2234  -20.2001    2.1103 C   0  0  0  0  0  0  0  0  0  0  0  0
   17.0491  -21.5291    1.8125 C   0  0  0  0  0  0  0  0  0  0  0  0
   16.8274  -21.6185    0.4860 N   0  0  0  0  0  0  0  0  0  0  0  0
   16.8613  -20.3802   -0.0356 C   0  0  0  0  0  0  0  0  0  0  0  0
   17.1035  -19.5233    0.9638 N   0  0  0  0  0  0  0  0  0  0  0  0
   16.6161  -19.1731    5.7052 C   0  0  0  0  0  0  0  0  0  0  0  0
   16.5264  -17.9243    5.9795 O   0  0  0  0  0  0  0  0  0  0  0  0
   17.0368  -20.1150    6.6838 N   0  0  0  0  0  0  0  0  0  0  0  0
   17.1048  -21.5444    6.6204 C   0  0  0  0  0  0  0  0  0  0  0  0
   17.8319  -21.9827    7.8566 C   0  0  0  0  0  0  0  0  0  0  0  0
   17.3805  -20.9460    8.8582 C   0  0  0  0  0  0  0  0  0  0  0  0
   17.4772  -19.7051    8.0013 C   0  0  1  0  0  0  0  0  0  0  0  0
   18.8443  -19.1471    7.9869 C   0  0  0  0  0  0  0  0  0  0  0  0
   19.5700  -19.3859    6.9675 O   0  0  0  0  0  0  0  0  0  0  0  0
   19.3989  -18.3754    9.0149 N   0  0  0  0  0  0  0  0  0  0  0  0
   20.7066  -17.6941    8.9469 C   0  0  1  0  0  0  0  0  0  0  0  0
   20.5725  -16.2736    9.3233 C   0  0  0  0  0  0  0  0  0  0  0  0
   21.8487  -15.5099    9.2776 C   0  0  0  0  0  0  0  0  0  0  0  0
   21.7574  -14.1042    9.7305 C   0  0  0  0  0  0  0  0  0  0  0  0
   20.6873  -13.5609   10.1379 O   0  0  0  0  0  0  0  0  0  0  0  0
   21.7849  -18.5012    9.4373 C   0  0  0  0  0  0  0  0  0  0  0  0
   22.9953  -18.4976    9.0911 O   0  0  0  0  0  0  0  0  0  0  0  0
   22.8992  -13.2808    9.7284 O   0  0  0  0  0  0  0  0  0  0  0  0
   21.4738  -19.4427   10.4541 O   0  0  0  0  0  0  0  0  0  0  0  0
  2  1  1  6
  2  9  1  0
  3  4  1  0
  3  2  1  0
  4  8  1  0
  4  5  2  0
  5  6  1  0
  7  6  1  0
  8  7  2  0
  9 11  1  0
  9 10  2  0
 11 12  1  0
 13 12  1  0
 14 15  1  0
 14 13  1  0
 15 11  1  0
 15 16  1  6
 16 17  2  0
 18 16  1  0
 19 18  1  0
 19 20  1  1
 21 20  1  0
 22 21  1  0
 23 22  2  0
 24 19  1  0
 25 24  2  0
 26 22  1  0
 27 24  1  0
M  END
$$$$
