HPE.pdb
     RDKit          3D

 27 28  0  0  1  0  0  0  0  0999 V2000
   25.3919  -21.0957  -16.3265 N   0  0  0  0  0  0  0  0  0  0  0  0
   25.9525  -20.2531  -15.3308 C   0  0  1  0  0  0  0  0  0  0  0  0
   25.1038  -19.0149  -15.0674 C   0  0  0  0  0  0  0  0  0  0  0  0
   24.9291  -18.2076  -16.2973 C   0  0  0  0  0  0  0  0  0  0  0  0
   25.8811  -17.5358  -17.0236 C   0  0  0  0  0  0  0  0  0  0  0  0
   25.2537  -16.9435  -18.0590 N   0  0  0  0  0  0  0  0  0  0  0  0
   23.9435  -17.2347  -17.9857 C   0  0  0  0  0  0  0  0  0  0  0  0
   23.7570  -18.0059  -16.9077 N   0  0  0  0  0  0  0  0  0  0  0  0
   26.2659  -20.9430  -14.0368 C   0  0  0  0  0  0  0  0  0  0  0  0
   25.3631  -21.7359  -13.5905 O   0  0  0  0  0  0  0  0  0  0  0  0
   27.4859  -20.7441  -13.3343 N   0  0  0  0  0  0  0  0  0  0  0  0
   28.6169  -19.9277  -13.6606 C   0  0  0  0  0  0  0  0  0  0  0  0
   29.5022  -19.9384  -12.4503 C   0  0  0  0  0  0  0  0  0  0  0  0
   29.2687  -21.3316  -11.9153 C   0  0  0  0  0  0  0  0  0  0  0  0
   27.7700  -21.4220  -12.0862 C   0  0  1  0  0  0  0  0  0  0  0  0
   27.0454  -20.8247  -10.9465 C   0  0  0  0  0  0  0  0  0  0  0  0
   26.6030  -19.6379  -11.0833 O   0  0  0  0  0  0  0  0  0  0  0  0
   26.8116  -21.4705   -9.7266 N   0  0  0  0  0  0  0  0  0  0  0  0
   25.8759  -20.9978   -8.6875 C   0  0  1  0  0  0  0  0  0  0  0  0
   26.4896  -19.9205   -7.8872 C   0  0  0  0  0  0  0  0  0  0  0  0
   27.1492  -20.3912   -6.6392 C   0  0  0  0  0  0  0  0  0  0  0  0
   27.8939  -19.3540   -5.8914 C   0  0  0  0  0  0  0  0  0  0  0  0
   27.8082  -18.1121   -6.1297 O   0  0  0  0  0  0  0  0  0  0  0  0
   24.5223  -20.9098   -9.1505 C   0  0  0  0  0  0  0  0  0  0  0  0
   24.0834  -20.4069  -10.2181 O   0  0  0  0  0  0  0  0  0  0  0  0
   28.7610  -19.7175   -4.8437 O   0  0  0  0  0  0  0  0  0  0  0  0
   23.5171  -21.4574   -8.3097 O   0  0  0  0  0  0  0  0  0  0  0  0
  2  1  1  6
  2  9  1  0
  3  4  1  0
  3  2  1  0
  4  8  1  0
  4  5  2  0
  5  6  1  0
  7  6  1  0
  8  7  2  0
  9 11  1  0
  9 10  2  0
 11 12  1  0
 13 12  1  0
 14 15  1  0
 14 13  1  0
 15 11  1  0
 15 16  1  1
 16 17  2  0
 18 16  1  0
 19 18  1  0
 19 20  1  6
 21 20  1  0
 22 21  1  0
 23 22  2  0
 24 19  1  0
 25 24  2  0
 26 22  1  0
 27 24  1  0
M  END
$$$$
