HPE.pdb
     RDKit          3D

 27 28  0  0  1  0  0  0  0  0999 V2000
   21.7280  -13.7228  -17.2320 N   0  0  0  0  0  0  0  0  0  0  0  0
   22.5653  -12.6357  -17.5967 C   0  0  1  0  0  0  0  0  0  0  0  0
   22.0783  -11.9176  -18.8496 C   0  0  0  0  0  0  0  0  0  0  0  0
   21.9884  -12.8433  -20.0029 C   0  0  0  0  0  0  0  0  0  0  0  0
   20.9736  -13.7084  -20.3299 C   0  0  0  0  0  0  0  0  0  0  0  0
   21.3359  -14.3442  -21.4618 N   0  0  0  0  0  0  0  0  0  0  0  0
   22.5449  -13.8913  -21.8360 C   0  0  0  0  0  0  0  0  0  0  0  0
   22.9331  -12.9766  -20.9392 N   0  0  0  0  0  0  0  0  0  0  0  0
   22.8079  -11.6425  -16.4997 C   0  0  0  0  0  0  0  0  0  0  0  0
   21.8187  -11.4191  -15.7159 O   0  0  0  0  0  0  0  0  0  0  0  0
   24.0537  -10.9805  -16.3226 N   0  0  0  0  0  0  0  0  0  0  0  0
   25.2906  -11.1361  -17.0281 C   0  0  0  0  0  0  0  0  0  0  0  0
   26.1809  -10.0241  -16.5595 C   0  0  0  0  0  0  0  0  0  0  0  0
   25.7464   -9.8727  -15.1207 C   0  0  0  0  0  0  0  0  0  0  0  0
   24.2491   -9.9791  -15.2945 C   0  0  1  0  0  0  0  0  0  0  0  0
   23.6394   -8.6826  -15.6520 C   0  0  0  0  0  0  0  0  0  0  0  0
   23.6607   -8.3368  -16.8779 O   0  0  0  0  0  0  0  0  0  0  0  0
   23.0409   -7.8067  -14.7384 N   0  0  0  0  0  0  0  0  0  0  0  0
   22.2630   -6.6071  -15.1053 C   0  0  1  0  0  0  0  0  0  0  0  0
   20.8622   -6.9661  -15.3992 C   0  0  0  0  0  0  0  0  0  0  0  0
   20.0333   -5.8304  -15.8861 C   0  0  0  0  0  0  0  0  0  0  0  0
   18.6444   -6.1794  -16.2588 C   0  0  0  0  0  0  0  0  0  0  0  0
   18.3427   -6.9566  -17.2134 O   0  0  0  0  0  0  0  0  0  0  0  0
   22.5923   -5.4610  -14.3100 C   0  0  0  0  0  0  0  0  0  0  0  0
   23.0060   -5.4162  -13.1218 O   0  0  0  0  0  0  0  0  0  0  0  0
   17.5592   -5.6429  -15.5403 O   0  0  0  0  0  0  0  0  0  0  0  0
   22.4408   -4.1879  -14.9211 O   0  0  0  0  0  0  0  0  0  0  0  0
  2  1  1  1
  2  9  1  0
  3  4  1  0
  3  2  1  0
  4  8  1  0
  4  5  2  0
  5  6  1  0
  7  6  1  0
  8  7  2  0
  9 11  1  0
  9 10  2  0
 11 12  1  0
 13 12  1  0
 14 15  1  0
 14 13  1  0
 15 11  1  0
 15 16  1  6
 16 17  2  0
 18 16  1  0
 19 18  1  0
 19 20  1  1
 21 20  1  0
 22 21  1  0
 23 22  2  0
 24 19  1  0
 25 24  2  0
 26 22  1  0
 27 24  1  0
M  END
$$$$
