HPE.pdb
     RDKit          3D

 27 28  0  0  1  0  0  0  0  0999 V2000
   19.7150  -10.0881  -14.4628 N   0  0  0  0  0  0  0  0  0  0  0  0
   20.4458   -9.4993  -15.5282 C   0  0  1  0  0  0  0  0  0  0  0  0
   19.7295   -9.6243  -16.8676 C   0  0  0  0  0  0  0  0  0  0  0  0
   19.4578  -11.0411  -17.2053 C   0  0  0  0  0  0  0  0  0  0  0  0
   20.0916  -11.8392  -18.1254 C   0  0  0  0  0  0  0  0  0  0  0  0
   19.5007  -13.0499  -18.0828 N   0  0  0  0  0  0  0  0  0  0  0  0
   18.5226  -13.0138  -17.1616 C   0  0  0  0  0  0  0  0  0  0  0  0
   18.5054  -11.7842  -16.6330 N   0  0  0  0  0  0  0  0  0  0  0  0
   20.8468   -8.0735  -15.2939 C   0  0  0  0  0  0  0  0  0  0  0  0
   20.0259   -7.3646  -14.6110 O   0  0  0  0  0  0  0  0  0  0  0  0
   22.0610   -7.5241  -15.7892 N   0  0  0  0  0  0  0  0  0  0  0  0
   23.1089   -8.1364  -16.5501 C   0  0  0  0  0  0  0  0  0  0  0  0
   24.0198   -7.0239  -16.9761 C   0  0  0  0  0  0  0  0  0  0  0  0
   23.9206   -6.0823  -15.7991 C   0  0  0  0  0  0  0  0  0  0  0  0
   22.4319   -6.1449  -15.5479 C   0  0  1  0  0  0  0  0  0  0  0  0
   21.6850   -5.2051  -16.4079 C   0  0  0  0  0  0  0  0  0  0  0  0
   21.4576   -5.5571  -17.6108 O   0  0  0  0  0  0  0  0  0  0  0  0
   21.2104   -3.9546  -15.9943 N   0  0  0  0  0  0  0  0  0  0  0  0
   20.2900   -3.1021  -16.7720 C   0  0  1  0  0  0  0  0  0  0  0  0
   18.8863   -3.4337  -16.4601 C   0  0  0  0  0  0  0  0  0  0  0  0
   18.2684   -2.5537  -15.4315 C   0  0  0  0  0  0  0  0  0  0  0  0
   16.8630   -2.8708  -15.0942 C   0  0  0  0  0  0  0  0  0  0  0  0
   16.1485   -3.6926  -15.7426 O   0  0  0  0  0  0  0  0  0  0  0  0
   20.7350   -1.7433  -16.8726 C   0  0  0  0  0  0  0  0  0  0  0  0
   21.5714   -1.1309  -16.1581 O   0  0  0  0  0  0  0  0  0  0  0  0
   16.2377   -2.2497  -13.9965 O   0  0  0  0  0  0  0  0  0  0  0  0
   20.1718   -0.9564  -17.9121 O   0  0  0  0  0  0  0  0  0  0  0  0
  2  1  1  1
  2  9  1  0
  3  4  1  0
  3  2  1  0
  4  8  1  0
  4  5  2  0
  5  6  1  0
  7  6  1  0
  8  7  2  0
  9 11  1  0
  9 10  2  0
 11 12  1  0
 13 12  1  0
 14 15  1  0
 14 13  1  0
 15 11  1  0
 15 16  1  6
 16 17  2  0
 18 16  1  0
 19 18  1  0
 19 20  1  1
 21 20  1  0
 22 21  1  0
 23 22  2  0
 24 19  1  0
 25 24  2  0
 26 22  1  0
 27 24  1  0
M  END
$$$$
