HPE.pdb
     RDKit          3D

 27 28  0  0  1  0  0  0  0  0999 V2000
   15.8768  -18.9227    4.7711 N   0  0  0  0  0  0  0  0  0  0  0  0
   17.2906  -19.0473    4.8100 C   0  0  1  0  0  0  0  0  0  0  0  0
   17.9895  -18.0677    3.8747 C   0  0  0  0  0  0  0  0  0  0  0  0
   18.1241  -18.6263    2.5092 C   0  0  0  0  0  0  0  0  0  0  0  0
   17.7233  -19.8538    2.0423 C   0  0  0  0  0  0  0  0  0  0  0  0
   18.0562  -19.9165    0.7377 N   0  0  0  0  0  0  0  0  0  0  0  0
   18.6497  -18.7605    0.3940 C   0  0  0  0  0  0  0  0  0  0  0  0
   18.6858  -17.9814    1.4818 N   0  0  0  0  0  0  0  0  0  0  0  0
   17.8853  -18.9558    6.1835 C   0  0  0  0  0  0  0  0  0  0  0  0
   17.1413  -18.4270    7.0832 O   0  0  0  0  0  0  0  0  0  0  0  0
   19.1926  -19.4241    6.4889 N   0  0  0  0  0  0  0  0  0  0  0  0
   20.1283  -20.1445    5.6780 C   0  0  0  0  0  0  0  0  0  0  0  0
   21.4158  -20.1667    6.4465 C   0  0  0  0  0  0  0  0  0  0  0  0
   20.9182  -20.2291    7.8714 C   0  0  0  0  0  0  0  0  0  0  0  0
   19.7924  -19.2243    7.7920 C   0  0  1  0  0  0  0  0  0  0  0  0
   20.2708  -17.8403    7.9824 C   0  0  0  0  0  0  0  0  0  0  0  0
   20.6818  -17.2098    6.9547 O   0  0  0  0  0  0  0  0  0  0  0  0
   20.3052  -17.1732    9.2128 N   0  0  0  0  0  0  0  0  0  0  0  0
   20.7427  -15.7763    9.4032 C   0  0  1  0  0  0  0  0  0  0  0  0
   19.6923  -14.9906   10.0791 C   0  0  0  0  0  0  0  0  0  0  0  0
   20.0404  -13.5581   10.2812 C   0  0  0  0  0  0  0  0  0  0  0  0
   19.0382  -12.7664   11.0284 C   0  0  0  0  0  0  0  0  0  0  0  0
   19.1968  -11.5519   11.3542 O   0  0  0  0  0  0  0  0  0  0  0  0
   22.1209  -15.6676    9.7815 C   0  0  0  0  0  0  0  0  0  0  0  0
   22.8813  -14.6661    9.7172 O   0  0  0  0  0  0  0  0  0  0  0  0
   17.8201  -13.3515   11.4227 O   0  0  0  0  0  0  0  0  0  0  0  0
   22.7394  -16.8344   10.3041 O   0  0  0  0  0  0  0  0  0  0  0  0
  2  1  1  1
  2  9  1  0
  3  4  1  0
  3  2  1  0
  4  8  1  0
  4  5  2  0
  5  6  1  0
  7  6  1  0
  8  7  2  0
  9 11  1  0
  9 10  2  0
 11 12  1  0
 13 12  1  0
 14 15  1  0
 14 13  1  0
 15 11  1  0
 15 16  1  6
 16 17  2  0
 18 16  1  0
 19 18  1  0
 19 20  1  1
 21 20  1  0
 22 21  1  0
 23 22  2  0
 24 19  1  0
 25 24  2  0
 26 22  1  0
 27 24  1  0
M  END
$$$$
