HPE.pdb
     RDKit          3D

 27 28  0  0  1  0  0  0  0  0999 V2000
   21.7480  -17.6725  -15.4648 N   0  0  0  0  0  0  0  0  0  0  0  0
   22.7893  -16.9093  -16.0556 C   0  0  1  0  0  0  0  0  0  0  0  0
   22.6261  -16.7670  -17.5642 C   0  0  0  0  0  0  0  0  0  0  0  0
   22.5345  -18.0897  -18.2252 C   0  0  0  0  0  0  0  0  0  0  0  0
   23.5395  -18.9874  -18.4884 C   0  0  0  0  0  0  0  0  0  0  0  0
   22.9807  -20.0481  -19.1041 N   0  0  0  0  0  0  0  0  0  0  0  0
   21.6610  -19.8236  -19.2248 C   0  0  0  0  0  0  0  0  0  0  0  0
   21.4000  -18.6266  -18.6856 N   0  0  0  0  0  0  0  0  0  0  0  0
   23.0009  -15.5608  -15.4347 C   0  0  0  0  0  0  0  0  0  0  0  0
   21.9620  -15.0066  -14.9286 O   0  0  0  0  0  0  0  0  0  0  0  0
   24.2701  -14.9210  -15.3982 N   0  0  0  0  0  0  0  0  0  0  0  0
   25.5427  -15.3656  -15.8826 C   0  0  0  0  0  0  0  0  0  0  0  0
   26.4655  -14.1887  -15.7723 C   0  0  0  0  0  0  0  0  0  0  0  0
   25.9380  -13.5041  -14.5335 C   0  0  0  0  0  0  0  0  0  0  0  0
   24.4536  -13.6183  -14.7922 C   0  0  1  0  0  0  0  0  0  0  0  0
   23.9554  -12.5254  -15.6513 C   0  0  0  0  0  0  0  0  0  0  0  0
   23.7900  -12.7749  -16.8895 O   0  0  0  0  0  0  0  0  0  0  0  0
   23.6531  -11.2348  -15.2008 N   0  0  0  0  0  0  0  0  0  0  0  0
   22.4556  -10.4643  -15.5896 C   0  0  1  0  0  0  0  0  0  0  0  0
   21.2680  -11.3390  -15.6371 C   0  0  0  0  0  0  0  0  0  0  0  0
   19.9966  -10.6219  -15.9258 C   0  0  0  0  0  0  0  0  0  0  0  0
   18.7997  -11.4844  -16.0398 C   0  0  0  0  0  0  0  0  0  0  0  0
   18.1134  -11.8757  -15.0487 O   0  0  0  0  0  0  0  0  0  0  0  0
   22.4059   -9.1645  -14.9876 C   0  0  0  0  0  0  0  0  0  0  0  0
   22.2057   -8.0479  -15.5337 O   0  0  0  0  0  0  0  0  0  0  0  0
   18.3561  -11.9220  -17.3021 O   0  0  0  0  0  0  0  0  0  0  0  0
   22.6065   -9.0971  -13.5832 O   0  0  0  0  0  0  0  0  0  0  0  0
  2  1  1  1
  2  9  1  0
  3  4  1  0
  3  2  1  0
  4  8  1  0
  4  5  2  0
  5  6  1  0
  7  6  1  0
  8  7  2  0
  9 11  1  0
  9 10  2  0
 11 12  1  0
 13 12  1  0
 14 15  1  0
 14 13  1  0
 15 11  1  0
 15 16  1  6
 16 17  2  0
 18 16  1  0
 19 18  1  0
 19 20  1  1
 21 20  1  0
 22 21  1  0
 23 22  2  0
 24 19  1  0
 25 24  2  0
 26 22  1  0
 27 24  1  0
M  END
$$$$
