HPE.pdb
     RDKit          3D

 27 28  0  0  1  0  0  0  0  0999 V2000
   16.7366  -14.6536    6.9240 N   0  0  0  0  0  0  0  0  0  0  0  0
   17.4955  -15.4521    6.0283 C   0  0  1  0  0  0  0  0  0  0  0  0
   18.9973  -15.2641    6.2068 C   0  0  0  0  0  0  0  0  0  0  0  0
   19.4061  -13.8702    5.9156 C   0  0  0  0  0  0  0  0  0  0  0  0
   19.8383  -12.9038    6.7900 C   0  0  0  0  0  0  0  0  0  0  0  0
   20.0948  -11.7943    6.0690 N   0  0  0  0  0  0  0  0  0  0  0  0
   19.8312  -12.0559    4.7772 C   0  0  0  0  0  0  0  0  0  0  0  0
   19.4120  -13.3244    4.6953 N   0  0  0  0  0  0  0  0  0  0  0  0
   17.1559  -16.9124    6.0568 C   0  0  0  0  0  0  0  0  0  0  0  0
   16.9963  -17.4290    7.2189 O   0  0  0  0  0  0  0  0  0  0  0  0
   17.0132  -17.6926    4.8767 N   0  0  0  0  0  0  0  0  0  0  0  0
   17.0597  -17.3010    3.4996 C   0  0  0  0  0  0  0  0  0  0  0  0
   17.0728  -18.5724    2.7046 C   0  0  0  0  0  0  0  0  0  0  0  0
   16.2199  -19.4764    3.5631 C   0  0  0  0  0  0  0  0  0  0  0  0
   16.7627  -19.1182    4.9272 C   0  0  1  0  0  0  0  0  0  0  0  0
   17.9774  -19.8893    5.2600 C   0  0  0  0  0  0  0  0  0  0  0  0
   19.0486  -19.6057    4.6316 O   0  0  0  0  0  0  0  0  0  0  0  0
   18.0339  -20.9101    6.2163 N   0  0  0  0  0  0  0  0  0  0  0  0
   19.1822  -21.8157    6.4169 C   0  0  1  0  0  0  0  0  0  0  0  0
   19.8366  -21.5458    7.7117 C   0  0  0  0  0  0  0  0  0  0  0  0
   20.2467  -20.1280    7.9012 C   0  0  0  0  0  0  0  0  0  0  0  0
   20.9079  -19.8314    9.1913 C   0  0  0  0  0  0  0  0  0  0  0  0
   21.3122  -18.6789    9.5299 O   0  0  0  0  0  0  0  0  0  0  0  0
   18.9251  -23.1534    5.9711 C   0  0  0  0  0  0  0  0  0  0  0  0
   17.8386  -23.6656    5.5938 O   0  0  0  0  0  0  0  0  0  0  0  0
   21.1228  -20.8560   10.1324 O   0  0  0  0  0  0  0  0  0  0  0  0
   20.0299  -24.0455    5.9403 O   0  0  0  0  0  0  0  0  0  0  0  0
  2  1  1  1
  2  9  1  0
  3  4  1  0
  3  2  1  0
  4  8  1  0
  4  5  2  0
  5  6  1  0
  7  6  1  0
  8  7  2  0
  9 11  1  0
  9 10  2  0
 11 12  1  0
 13 12  1  0
 14 15  1  0
 14 13  1  0
 15 11  1  0
 15 16  1  6
 16 17  2  0
 18 16  1  0
 19 18  1  0
 19 20  1  1
 21 20  1  0
 22 21  1  0
 23 22  2  0
 24 19  1  0
 25 24  2  0
 26 22  1  0
 27 24  1  0
M  END
$$$$
