RPT.pdb
     RDKit          3D

 26 26  0  0  1  0  0  0  0  0999 V2000
   21.6726  -21.0316  -15.5508 N   0  0  0  0  0  0  0  0  0  0  0  0
   21.6372  -21.9667  -16.6433 C   0  0  0  0  0  0  0  0  0  0  0  0
   22.1220  -21.5946  -17.7592 N   0  0  0  0  0  0  0  0  0  0  0  0
   21.0916  -23.2659  -16.5250 N   0  0  0  0  0  0  0  0  0  0  0  0
   20.8444  -23.8232  -15.2394 C   0  0  0  0  0  0  0  0  0  0  0  0
   21.4204  -25.2107  -15.0649 C   0  0  0  0  0  0  0  0  0  0  0  0
   21.1467  -25.7569  -13.6886 C   0  0  0  0  0  0  0  0  0  0  0  0
   20.1951  -26.9390  -13.7263 C   0  0  2  0  0  0  0  0  0  0  0  0
   19.3991  -26.9845  -14.8917 N   0  0  0  0  0  0  0  0  0  0  0  0
   19.4627  -27.0991  -12.4730 C   0  0  0  0  0  0  0  0  0  0  0  0
   18.5514  -26.2207  -12.2520 O   0  0  0  0  0  0  0  0  0  0  0  0
   22.0659  -22.1202  -18.6528 N   0  0  0  0  0  0  0  0  0  0  0  0
   19.6319  -28.1066  -11.4684 C   0  0  0  0  0  0  0  0  0  0  0  0
   20.4747  -29.2479  -11.6263 C   0  0  0  0  0  0  0  0  0  0  0  0
   20.9241  -29.5671  -10.1918 C   0  0  0  0  0  0  0  0  0  0  0  0
   19.6731  -29.2377   -9.4187 C   0  0  2  0  0  0  0  0  0  0  0  0
   19.0027  -28.1358  -10.1796 C   0  0  0  0  0  0  0  0  0  0  0  0
   19.1690  -26.8978   -9.4022 O   0  0  0  0  0  0  0  0  0  0  0  0
   20.2371  -26.2612   -9.4172 C   0  0  0  0  0  0  0  0  0  0  0  0
   15.5799  -25.3675   -7.9417 C   0  0  2  0  0  0  0  0  0  0  0  0
   16.7591  -24.4866   -8.1972 O   0  0  0  0  0  0  0  0  0  0  0  0
   16.6603  -23.3072   -7.4588 C   0  0  1  0  0  0  0  0  0  0  0  0
   18.0907  -25.1493   -7.9229 N   0  0  0  0  0  0  0  0  0  0  0  0
   18.0841  -26.4289   -8.6236 C   0  0  0  0  0  0  0  0  0  0  0  0
   18.2008  -25.4073   -6.4840 O   0  0  0  0  0  0  0  0  0  0  0  0
   18.4870  -24.3654   -5.5961 O   0  0  0  0  0  0  0  0  0  0  0  0
  2  4  1  0
  2  1  1  0
  3  2  2  0
  4  5  1  0
  6  5  1  0
  6  7  1  0
  7  8  1  0
  8  9  1  6
  8 10  1  0
 10 12  1  0
 11 10  2  0
 12 16  1  0
 12 13  1  0
 13 14  1  0
 14 15  1  0
 16 15  1  0
 17 23  1  0
 16 17  1  1
 18 17  2  0
 20 19  1  6
 20 22  1  0
 21 20  1  0
 22 24  1  0
 22 23  1  6
 24 25  1  0
 26 24  2  0
M  END
$$$$
