RPT.pdb
     RDKit          3D

 26 26  0  0  1  0  0  0  0  0999 V2000
   26.5494  -27.9191  -17.7041 N   0  0  0  0  0  0  0  0  0  0  0  0
   27.0699  -26.8062  -16.9560 C   0  0  0  0  0  0  0  0  0  0  0  0
   27.9621  -27.0443  -16.0809 N   0  0  0  0  0  0  0  0  0  0  0  0
   26.6330  -25.4759  -17.1541 N   0  0  0  0  0  0  0  0  0  0  0  0
   25.6978  -25.1763  -18.1836 C   0  0  0  0  0  0  0  0  0  0  0  0
   25.2817  -23.7226  -18.2135 C   0  0  0  0  0  0  0  0  0  0  0  0
   24.2902  -23.4060  -17.1254 C   0  0  0  0  0  0  0  0  0  0  0  0
   24.8014  -22.3263  -16.1888 C   0  0  2  0  0  0  0  0  0  0  0  0
   25.9972  -22.6766  -15.5247 N   0  0  0  0  0  0  0  0  0  0  0  0
   23.7480  -21.7998  -15.3250 C   0  0  0  0  0  0  0  0  0  0  0  0
   23.2921  -22.6223  -14.4493 O   0  0  0  0  0  0  0  0  0  0  0  0
   28.3907  -26.3463  -15.4430 N   0  0  0  0  0  0  0  0  0  0  0  0
   23.1659  -20.4907  -15.3318 C   0  0  0  0  0  0  0  0  0  0  0  0
   23.6289  -19.4231  -16.1587 C   0  0  0  0  0  0  0  0  0  0  0  0
   22.3667  -18.5811  -16.4029 C   0  0  0  0  0  0  0  0  0  0  0  0
   21.6775  -18.7025  -15.0682 C   0  0  1  0  0  0  0  0  0  0  0  0
   22.0582  -20.0490  -14.5345 C   0  0  0  0  0  0  0  0  0  0  0  0
   20.8704  -20.9123  -14.6265 O   0  0  0  0  0  0  0  0  0  0  0  0
   20.4595  -21.3355  -15.7211 C   0  0  0  0  0  0  0  0  0  0  0  0
   17.5939  -23.2795  -11.6709 C   0  0  2  0  0  0  0  0  0  0  0  0
   18.9328  -22.7075  -12.0055 O   0  0  0  0  0  0  0  0  0  0  0  0
   19.9356  -23.6569  -11.8087 C   0  0  1  0  0  0  0  0  0  0  0  0
   19.0281  -22.1489  -13.4078 N   0  0  0  0  0  0  0  0  0  0  0  0
   20.1873  -21.2636  -13.4377 C   0  0  0  0  0  0  0  0  0  0  0  0
   17.8276  -21.3527  -13.6802 O   0  0  0  0  0  0  0  0  0  0  0  0
   17.7521  -20.0186  -13.2672 O   0  0  0  0  0  0  0  0  0  0  0  0
  2  4  1  0
  2  1  1  0
  3  2  2  0
  4  5  1  0
  6  5  1  0
  6  7  1  0
  7  8  1  0
  8  9  1  1
  8 10  1  0
 10 12  1  0
 11 10  2  0
 12 16  1  0
 12 13  1  0
 13 14  1  0
 14 15  1  0
 16 15  1  0
 17 23  1  0
 16 17  1  6
 18 17  2  0
 20 19  1  1
 20 22  1  0
 21 20  1  0
 22 24  1  0
 22 23  1  1
 24 25  1  0
 26 24  2  0
M  END
$$$$
