RPT.pdb
     RDKit          3D

 26 26  0  0  1  0  0  0  0  0999 V2000
   25.2085  -20.4901  -16.8269 N   0  0  0  0  0  0  0  0  0  0  0  0
   23.8330  -20.4685  -16.4065 C   0  0  0  0  0  0  0  0  0  0  0  0
   22.9612  -20.9419  -17.2030 N   0  0  0  0  0  0  0  0  0  0  0  0
   23.4194  -19.9480  -15.1584 N   0  0  0  0  0  0  0  0  0  0  0  0
   24.1197  -20.2977  -13.9704 C   0  0  0  0  0  0  0  0  0  0  0  0
   25.3676  -19.4739  -13.7434 C   0  0  0  0  0  0  0  0  0  0  0  0
   25.9862  -19.7606  -12.4009 C   0  0  0  0  0  0  0  0  0  0  0  0
   25.9818  -21.2442  -12.0794 C   0  0  2  0  0  0  0  0  0  0  0  0
   24.7109  -21.8453  -12.2109 N   0  0  0  0  0  0  0  0  0  0  0  0
   26.6779  -21.5410  -10.8304 C   0  0  0  0  0  0  0  0  0  0  0  0
   25.9195  -21.7794   -9.8209 O   0  0  0  0  0  0  0  0  0  0  0  0
   21.9347  -20.9484  -17.0479 N   0  0  0  0  0  0  0  0  0  0  0  0
   28.0896  -21.6005  -10.5934 C   0  0  0  0  0  0  0  0  0  0  0  0
   29.0687  -21.5614  -11.6315 C   0  0  0  0  0  0  0  0  0  0  0  0
   30.2853  -20.9084  -10.9570 C   0  0  0  0  0  0  0  0  0  0  0  0
   30.1931  -21.4921   -9.5707 C   0  0  1  0  0  0  0  0  0  0  0  0
   28.7332  -21.7067   -9.3157 C   0  0  0  0  0  0  0  0  0  0  0  0
   28.3017  -20.6934   -8.3402 O   0  0  0  0  0  0  0  0  0  0  0  0
   27.8904  -19.5775   -8.7032 C   0  0  0  0  0  0  0  0  0  0  0  0
   29.2778  -21.4798   -4.2892 C   0  0  2  0  0  0  0  0  0  0  0  0
   27.9601  -20.8532   -4.6096 O   0  0  0  0  0  0  0  0  0  0  0  0
   27.5434  -20.0254   -3.5670 C   0  0  1  0  0  0  0  0  0  0  0  0
   27.9482  -20.0803   -5.9096 N   0  0  0  0  0  0  0  0  0  0  0  0
   28.3593  -21.0048   -6.9607 C   0  0  0  0  0  0  0  0  0  0  0  0
   28.9378  -19.0020   -5.8254 O   0  0  0  0  0  0  0  0  0  0  0  0
   28.6053  -17.7782   -5.2356 O   0  0  0  0  0  0  0  0  0  0  0  0
  2  4  1  0
  2  1  1  0
  3  2  2  0
  4  5  1  0
  6  5  1  0
  6  7  1  0
  7  8  1  0
  8  9  1  1
  8 10  1  0
 10 12  1  0
 11 10  2  0
 12 16  1  0
 12 13  1  0
 13 14  1  0
 14 15  1  0
 16 15  1  0
 17 23  1  0
 16 17  1  1
 18 17  2  0
 20 19  1  1
 20 22  1  0
 21 20  1  0
 22 24  1  0
 22 23  1  1
 24 25  1  0
 26 24  2  0
M  END
$$$$
