RPT.pdb
     RDKit          3D

 26 26  0  0  1  0  0  0  0  0999 V2000
   19.9684  -23.7806   -8.6505 N   0  0  0  0  0  0  0  0  0  0  0  0
   18.7305  -23.7816   -9.3830 C   0  0  0  0  0  0  0  0  0  0  0  0
   17.6475  -23.8466   -8.7185 N   0  0  0  0  0  0  0  0  0  0  0  0
   18.6730  -23.7139  -10.7943 N   0  0  0  0  0  0  0  0  0  0  0  0
   19.4643  -22.7632  -11.4973 C   0  0  0  0  0  0  0  0  0  0  0  0
   20.9281  -22.8021  -11.1190 C   0  0  0  0  0  0  0  0  0  0  0  0
   21.7525  -21.8953  -11.9938 C   0  0  0  0  0  0  0  0  0  0  0  0
   22.1477  -20.6184  -11.2742 C   0  0  2  0  0  0  0  0  0  0  0  0
   21.0589  -19.7573  -11.0158 N   0  0  0  0  0  0  0  0  0  0  0  0
   23.3095  -19.9773  -11.8842 C   0  0  0  0  0  0  0  0  0  0  0  0
   23.0465  -18.9983  -12.6739 O   0  0  0  0  0  0  0  0  0  0  0  0
   16.6901  -23.8913   -9.1178 N   0  0  0  0  0  0  0  0  0  0  0  0
   24.6945  -20.3007  -11.7116 C   0  0  0  0  0  0  0  0  0  0  0  0
   25.1749  -21.2322  -10.7423 C   0  0  0  0  0  0  0  0  0  0  0  0
   26.4503  -21.7986  -11.3858 C   0  0  0  0  0  0  0  0  0  0  0  0
   26.9908  -20.5743  -12.0786 C   0  0  1  0  0  0  0  0  0  0  0  0
   25.7932  -19.7596  -12.4587 C   0  0  0  0  0  0  0  0  0  0  0  0
   25.6349  -19.8614  -13.9178 O   0  0  0  0  0  0  0  0  0  0  0  0
   25.0985  -20.8519  -14.4444 C   0  0  0  0  0  0  0  0  0  0  0  0
   24.9448  -16.4071  -16.0928 C   0  0  2  0  0  0  0  0  0  0  0  0
   26.0437  -17.2929  -16.5820 O   0  0  0  0  0  0  0  0  0  0  0  0
   27.2847  -16.8138  -16.1622 C   0  0  2  0  0  0  0  0  0  0  0  0
   25.8920  -18.7413  -16.1734 N   0  0  0  0  0  0  0  0  0  0  0  0
   26.1063  -18.8037  -14.7317 C   0  0  0  0  0  0  0  0  0  0  0  0
   26.9374  -19.5289  -16.8337 O   0  0  0  0  0  0  0  0  0  0  0  0
   26.8664  -19.7943  -18.2050 O   0  0  0  0  0  0  0  0  0  0  0  0
  2  4  1  0
  2  1  1  0
  3  2  2  0
  4  5  1  0
  6  5  1  0
  6  7  1  0
  7  8  1  0
  8  9  1  6
  8 10  1  0
 10 12  1  0
 11 10  2  0
 12 16  1  0
 12 13  1  0
 13 14  1  0
 14 15  1  0
 16 15  1  0
 17 23  1  0
 16 17  1  6
 18 17  2  0
 20 19  1  6
 20 22  1  0
 21 20  1  0
 22 24  1  0
 22 23  1  6
 24 25  1  0
 26 24  2  0
M  END
$$$$
