RPT.pdb
     RDKit          3D

 26 26  0  0  1  0  0  0  0  0999 V2000
   21.2129  -18.1002  -17.7658 N   0  0  0  0  0  0  0  0  0  0  0  0
   21.3475  -17.6146  -16.4185 C   0  0  0  0  0  0  0  0  0  0  0  0
   20.3262  -17.6717  -15.6621 N   0  0  0  0  0  0  0  0  0  0  0  0
   22.5557  -17.0836  -15.9105 N   0  0  0  0  0  0  0  0  0  0  0  0
   23.6838  -16.9301  -16.7638 C   0  0  0  0  0  0  0  0  0  0  0  0
   24.5028  -18.1930  -16.9107 C   0  0  0  0  0  0  0  0  0  0  0  0
   24.7509  -18.8523  -15.5799 C   0  0  0  0  0  0  0  0  0  0  0  0
   25.5356  -20.1438  -15.7242 C   0  0  2  0  0  0  0  0  0  0  0  0
   24.9279  -21.0783  -16.5909 N   0  0  0  0  0  0  0  0  0  0  0  0
   25.9554  -20.6826  -14.4334 C   0  0  0  0  0  0  0  0  0  0  0  0
   25.0123  -21.1623  -13.7043 O   0  0  0  0  0  0  0  0  0  0  0  0
   20.2993  -17.4186  -14.6555 N   0  0  0  0  0  0  0  0  0  0  0  0
   27.2774  -20.7435  -13.8844 C   0  0  0  0  0  0  0  0  0  0  0  0
   28.4618  -20.5048  -14.6447 C   0  0  0  0  0  0  0  0  0  0  0  0
   29.4488  -19.9421  -13.6100 C   0  0  0  0  0  0  0  0  0  0  0  0
   29.0826  -20.7523  -12.3932 C   0  0  2  0  0  0  0  0  0  0  0  0
   27.6198  -21.0453  -12.5244 C   0  0  0  0  0  0  0  0  0  0  0  0
   26.9137  -20.2218  -11.5307 O   0  0  0  0  0  0  0  0  0  0  0  0
   26.7462  -19.0015  -11.7009 C   0  0  0  0  0  0  0  0  0  0  0  0
   23.4956  -20.4446  -10.1503 C   0  0  2  0  0  0  0  0  0  0  0  0
   24.4444  -20.6788   -9.0204 O   0  0  0  0  0  0  0  0  0  0  0  0
   24.5446  -22.0411   -8.7374 C   0  0  2  0  0  0  0  0  0  0  0  0
   25.8242  -20.1030   -9.2486 N   0  0  0  0  0  0  0  0  0  0  0  0
   26.4174  -20.8409  -10.3586 C   0  0  0  0  0  0  0  0  0  0  0  0
   26.6354  -20.3346   -8.0497 O   0  0  0  0  0  0  0  0  0  0  0  0
   26.3368  -19.6758   -6.8527 O   0  0  0  0  0  0  0  0  0  0  0  0
  2  4  1  0
  2  1  1  0
  3  2  2  0
  4  5  1  0
  6  5  1  0
  6  7  1  0
  7  8  1  0
  8  9  1  1
  8 10  1  0
 10 12  1  0
 11 10  2  0
 12 16  1  0
 12 13  1  0
 13 14  1  0
 14 15  1  0
 16 15  1  0
 17 23  1  0
 16 17  1  1
 18 17  2  0
 20 19  1  1
 20 22  1  0
 21 20  1  0
 22 24  1  0
 22 23  1  1
 24 25  1  0
 26 24  2  0
M  END
$$$$
