RPT.pdb
     RDKit          3D

 26 26  0  0  1  0  0  0  0  0999 V2000
   21.7479  -21.2252   -8.3024 N   0  0  0  0  0  0  0  0  0  0  0  0
   22.1179  -20.3524   -9.3843 C   0  0  0  0  0  0  0  0  0  0  0  0
   21.1861  -19.7468  -10.0038 N   0  0  0  0  0  0  0  0  0  0  0  0
   23.4597  -20.1452   -9.7794 N   0  0  0  0  0  0  0  0  0  0  0  0
   24.3986  -21.2119   -9.7092 C   0  0  0  0  0  0  0  0  0  0  0  0
   25.7945  -20.8131  -10.1331 C   0  0  0  0  0  0  0  0  0  0  0  0
   25.8261  -20.3325  -11.5597 C   0  0  0  0  0  0  0  0  0  0  0  0
   25.4374  -21.4279  -12.5361 C   0  0  2  0  0  0  0  0  0  0  0  0
   26.2512  -22.5782  -12.4453 N   0  0  0  0  0  0  0  0  0  0  0  0
   25.2409  -20.9171  -13.8901 C   0  0  0  0  0  0  0  0  0  0  0  0
   26.3095  -20.7968  -14.5934 O   0  0  0  0  0  0  0  0  0  0  0  0
   21.3075  -19.1143  -10.8181 N   0  0  0  0  0  0  0  0  0  0  0  0
   24.0145  -20.5382  -14.5266 C   0  0  0  0  0  0  0  0  0  0  0  0
   22.7272  -20.7230  -13.9379 C   0  0  0  0  0  0  0  0  0  0  0  0
   21.8899  -19.5798  -14.5326 C   0  0  0  0  0  0  0  0  0  0  0  0
   22.4464  -19.5136  -15.9315 C   0  0  2  0  0  0  0  0  0  0  0  0
   23.8802  -19.9310  -15.8194 C   0  0  0  0  0  0  0  0  0  0  0  0
   24.7062  -18.7279  -16.0062 O   0  0  0  0  0  0  0  0  0  0  0  0
   24.6080  -17.7493  -15.2453 C   0  0  0  0  0  0  0  0  0  0  0  0
   28.5116  -18.7281  -16.1853 C   0  0  2  0  0  0  0  0  0  0  0  0
   27.9366  -18.1974  -17.4579 O   0  0  0  0  0  0  0  0  0  0  0  0
   27.9048  -19.1923  -18.4352 C   0  0  2  0  0  0  0  0  0  0  0  0
   26.5595  -17.5913  -17.3030 N   0  0  0  0  0  0  0  0  0  0  0  0
   25.6300  -18.6930  -17.0779 C   0  0  0  0  0  0  0  0  0  0  0  0
   26.1950  -16.9239  -18.5564 O   0  0  0  0  0  0  0  0  0  0  0  0
   25.1960  -17.4549  -19.3786 O   0  0  0  0  0  0  0  0  0  0  0  0
  2  4  1  0
  2  1  1  0
  3  2  2  0
  4  5  1  0
  6  5  1  0
  6  7  1  0
  7  8  1  0
  8  9  1  6
  8 10  1  0
 10 12  1  0
 11 10  2  0
 12 16  1  0
 12 13  1  0
 13 14  1  0
 14 15  1  0
 16 15  1  0
 17 23  1  0
 16 17  1  6
 18 17  2  0
 20 19  1  6
 20 22  1  0
 21 20  1  0
 22 24  1  0
 22 23  1  6
 24 25  1  0
 26 24  2  0
M  END
$$$$
