RPT.pdb
     RDKit          3D

 26 26  0  0  1  0  0  0  0  0999 V2000
   18.7946  -25.8811  -14.5462 N   0  0  0  0  0  0  0  0  0  0  0  0
   19.8625  -26.7630  -14.1578 C   0  0  0  0  0  0  0  0  0  0  0  0
   19.5496  -27.8818  -13.6390 N   0  0  0  0  0  0  0  0  0  0  0  0
   21.2280  -26.4375  -14.3286 N   0  0  0  0  0  0  0  0  0  0  0  0
   21.5989  -25.1971  -14.9186 C   0  0  0  0  0  0  0  0  0  0  0  0
   23.0954  -24.9969  -15.0066 C   0  0  0  0  0  0  0  0  0  0  0  0
   23.4435  -23.7031  -15.6937 C   0  0  0  0  0  0  0  0  0  0  0  0
   23.8276  -22.6197  -14.7022 C   0  0  2  0  0  0  0  0  0  0  0  0
   22.7266  -22.0824  -14.0003 N   0  0  0  0  0  0  0  0  0  0  0  0
   24.7286  -21.6300  -15.2866 C   0  0  0  0  0  0  0  0  0  0  0  0
   24.2053  -20.4801  -15.5213 O   0  0  0  0  0  0  0  0  0  0  0  0
   20.2151  -28.6073  -13.3094 N   0  0  0  0  0  0  0  0  0  0  0  0
   26.1123  -21.7804  -15.6263 C   0  0  0  0  0  0  0  0  0  0  0  0
   26.8988  -22.9138  -15.2592 C   0  0  0  0  0  0  0  0  0  0  0  0
   27.9405  -23.0113  -16.3847 C   0  0  0  0  0  0  0  0  0  0  0  0
   28.1988  -21.5531  -16.6644 C   0  0  2  0  0  0  0  0  0  0  0  0
   26.9119  -20.8474  -16.3668 C   0  0  0  0  0  0  0  0  0  0  0  0
   26.3238  -20.4409  -17.6526 O   0  0  0  0  0  0  0  0  0  0  0  0
   25.9266  -21.2812  -18.4787 C   0  0  0  0  0  0  0  0  0  0  0  0
   23.2996  -18.0668  -18.0651 C   0  0  2  0  0  0  0  0  0  0  0  0
   24.5485  -17.4984  -18.6560 O   0  0  0  0  0  0  0  0  0  0  0  0
   25.1734  -16.6400  -17.7512 C   0  0  2  0  0  0  0  0  0  0  0  0
   25.5335  -18.5435  -19.1304 N   0  0  0  0  0  0  0  0  0  0  0  0
   26.2114  -19.0610  -17.9467 C   0  0  0  0  0  0  0  0  0  0  0  0
   26.5286  -17.8965  -19.9908 O   0  0  0  0  0  0  0  0  0  0  0  0
   27.8055  -17.6023  -19.5018 O   0  0  0  0  0  0  0  0  0  0  0  0
  2  4  1  0
  2  1  1  0
  3  2  2  0
  4  5  1  0
  6  5  1  0
  6  7  1  0
  7  8  1  0
  8  9  1  6
  8 10  1  0
 10 12  1  0
 11 10  2  0
 12 16  1  0
 12 13  1  0
 13 14  1  0
 14 15  1  0
 16 15  1  0
 17 23  1  0
 16 17  1  6
 18 17  2  0
 20 19  1  6
 20 22  1  0
 21 20  1  0
 22 24  1  0
 22 23  1  6
 24 25  1  0
 26 24  2  0
M  END
$$$$
