RPT.pdb
     RDKit          3D

 26 26  0  0  1  0  0  0  0  0999 V2000
   20.4829  -18.0608  -16.1578 N   0  0  0  0  0  0  0  0  0  0  0  0
   20.4290  -16.6507  -16.4363 C   0  0  0  0  0  0  0  0  0  0  0  0
   19.5450  -15.9603  -15.8358 N   0  0  0  0  0  0  0  0  0  0  0  0
   21.3094  -16.0120  -17.3399 N   0  0  0  0  0  0  0  0  0  0  0  0
   22.3057  -16.7657  -18.0208 C   0  0  0  0  0  0  0  0  0  0  0  0
   23.6981  -16.5599  -17.4675 C   0  0  0  0  0  0  0  0  0  0  0  0
   23.9938  -17.5113  -16.3385 C   0  0  0  0  0  0  0  0  0  0  0  0
   24.7410  -18.7434  -16.8160 C   0  0  2  0  0  0  0  0  0  0  0  0
   24.0308  -19.4959  -17.7768 N   0  0  0  0  0  0  0  0  0  0  0  0
   25.2909  -19.5201  -15.7081 C   0  0  0  0  0  0  0  0  0  0  0  0
   24.4550  -20.2886  -15.1066 O   0  0  0  0  0  0  0  0  0  0  0  0
   19.3861  -14.9409  -15.9520 N   0  0  0  0  0  0  0  0  0  0  0  0
   26.6356  -19.5325  -15.2140 C   0  0  0  0  0  0  0  0  0  0  0  0
   27.7433  -18.9732  -15.9198 C   0  0  0  0  0  0  0  0  0  0  0  0
   28.7034  -18.5394  -14.8011 C   0  0  0  0  0  0  0  0  0  0  0  0
   28.4991  -19.6481  -13.8010 C   0  0  2  0  0  0  0  0  0  0  0  0
   27.0786  -20.0913  -13.9693 C   0  0  0  0  0  0  0  0  0  0  0  0
   26.3264  -19.6175  -12.7970 O   0  0  0  0  0  0  0  0  0  0  0  0
   26.0732  -18.4111  -12.6333 C   0  0  0  0  0  0  0  0  0  0  0  0
   22.9227  -20.3245  -11.7471 C   0  0  2  0  0  0  0  0  0  0  0  0
   23.8178  -20.8677  -10.6815 O   0  0  0  0  0  0  0  0  0  0  0  0
   23.9793  -22.2452  -10.8306 C   0  0  2  0  0  0  0  0  0  0  0  0
   25.1734  -20.1996  -10.6198 N   0  0  0  0  0  0  0  0  0  0  0  0
   25.8852  -20.5628  -11.8404 C   0  0  0  0  0  0  0  0  0  0  0  0
   25.9117  -20.7375   -9.4732 O   0  0  0  0  0  0  0  0  0  0  0  0
   25.5009  -20.4516   -8.1673 O   0  0  0  0  0  0  0  0  0  0  0  0
  2  4  1  0
  2  1  1  0
  3  2  2  0
  4  5  1  0
  6  5  1  0
  6  7  1  0
  7  8  1  0
  8  9  1  1
  8 10  1  0
 10 12  1  0
 11 10  2  0
 12 16  1  0
 12 13  1  0
 13 14  1  0
 14 15  1  0
 16 15  1  0
 17 23  1  0
 16 17  1  1
 18 17  2  0
 20 19  1  1
 20 22  1  0
 21 20  1  0
 22 24  1  0
 22 23  1  1
 24 25  1  0
 26 24  2  0
M  END
$$$$
