RPT.pdb
     RDKit          3D

 26 26  0  0  1  0  0  0  0  0999 V2000
   18.3520  -24.2473  -13.2517 N   0  0  0  0  0  0  0  0  0  0  0  0
   18.0443  -22.8456  -13.3501 C   0  0  0  0  0  0  0  0  0  0  0  0
   16.8993  -22.4597  -12.9516 N   0  0  0  0  0  0  0  0  0  0  0  0
   18.9541  -21.8938  -13.8659 N   0  0  0  0  0  0  0  0  0  0  0  0
   19.6686  -22.1650  -15.0660 C   0  0  0  0  0  0  0  0  0  0  0  0
   21.1201  -22.5208  -14.8341 C   0  0  0  0  0  0  0  0  0  0  0  0
   21.9746  -21.2916  -14.6726 C   0  0  0  0  0  0  0  0  0  0  0  0
   22.6390  -21.2378  -13.3087 C   0  0  2  0  0  0  0  0  0  0  0  0
   21.7231  -21.1268  -12.2399 N   0  0  0  0  0  0  0  0  0  0  0  0
   23.7481  -20.2884  -13.2713 C   0  0  0  0  0  0  0  0  0  0  0  0
   23.4140  -19.0492  -13.3337 O   0  0  0  0  0  0  0  0  0  0  0  0
   16.5627  -21.4779  -12.9261 N   0  0  0  0  0  0  0  0  0  0  0  0
   25.1504  -20.5648  -13.1730 C   0  0  0  0  0  0  0  0  0  0  0  0
   25.6819  -21.8247  -12.7628 C   0  0  0  0  0  0  0  0  0  0  0  0
   27.0284  -21.9063  -13.4987 C   0  0  0  0  0  0  0  0  0  0  0  0
   27.4743  -20.4678  -13.4425 C   0  0  1  0  0  0  0  0  0  0  0  0
   26.2189  -19.6516  -13.4598 C   0  0  0  0  0  0  0  0  0  0  0  0
   26.1249  -19.0142  -14.7825 O   0  0  0  0  0  0  0  0  0  0  0  0
   25.6398  -19.6134  -15.7581 C   0  0  0  0  0  0  0  0  0  0  0  0
   25.2072  -15.0133  -15.1714 C   0  0  2  0  0  0  0  0  0  0  0  0
   26.4774  -15.4691  -15.8121 O   0  0  0  0  0  0  0  0  0  0  0  0
   27.5703  -15.1845  -14.9932 C   0  0  2  0  0  0  0  0  0  0  0  0
   26.4860  -16.9357  -16.1818 N   0  0  0  0  0  0  0  0  0  0  0  0
   26.5993  -17.6898  -14.9380 C   0  0  0  0  0  0  0  0  0  0  0  0
   27.6713  -17.2080  -17.0004 O   0  0  0  0  0  0  0  0  0  0  0  0
   27.5684  -17.2903  -18.3928 O   0  0  0  0  0  0  0  0  0  0  0  0
  2  4  1  0
  2  1  1  0
  3  2  2  0
  4  5  1  0
  6  5  1  0
  6  7  1  0
  7  8  1  0
  8  9  1  1
  8 10  1  0
 10 12  1  0
 11 10  2  0
 12 16  1  0
 12 13  1  0
 13 14  1  0
 14 15  1  0
 16 15  1  0
 17 23  1  0
 16 17  1  6
 18 17  2  0
 20 19  1  6
 20 22  1  0
 21 20  1  0
 22 24  1  0
 22 23  1  6
 24 25  1  0
 26 24  2  0
M  END
$$$$
