RPT.pdb
     RDKit          3D

 26 26  0  0  1  0  0  0  0  0999 V2000
   20.6877  -18.2657  -16.0003 N   0  0  0  0  0  0  0  0  0  0  0  0
   20.3311  -17.0877  -16.7449 C   0  0  0  0  0  0  0  0  0  0  0  0
   19.2016  -16.5533  -16.5053 N   0  0  0  0  0  0  0  0  0  0  0  0
   21.1770  -16.5097  -17.7195 N   0  0  0  0  0  0  0  0  0  0  0  0
   22.1607  -17.3028  -18.3734 C   0  0  0  0  0  0  0  0  0  0  0  0
   23.5718  -17.0092  -17.9151 C   0  0  0  0  0  0  0  0  0  0  0  0
   23.9264  -17.7864  -16.6752 C   0  0  0  0  0  0  0  0  0  0  0  0
   24.5218  -19.1428  -17.0069 C   0  0  2  0  0  0  0  0  0  0  0  0
   23.6810  -19.9466  -17.8073 N   0  0  0  0  0  0  0  0  0  0  0  0
   25.0715  -19.8081  -15.8287 C   0  0  0  0  0  0  0  0  0  0  0  0
   24.2168  -20.4326  -15.1004 O   0  0  0  0  0  0  0  0  0  0  0  0
   18.8303  -15.6906  -16.9478 N   0  0  0  0  0  0  0  0  0  0  0  0
   26.4344  -19.8518  -15.3889 C   0  0  0  0  0  0  0  0  0  0  0  0
   27.5291  -19.3461  -16.1529 C   0  0  0  0  0  0  0  0  0  0  0  0
   28.5474  -18.9162  -15.0853 C   0  0  0  0  0  0  0  0  0  0  0  0
   28.3497  -19.9927  -14.0494 C   0  0  2  0  0  0  0  0  0  0  0  0
   26.9103  -20.3938  -14.1489 C   0  0  0  0  0  0  0  0  0  0  0  0
   26.2220  -19.8671  -12.9601 O   0  0  0  0  0  0  0  0  0  0  0  0
   26.0552  -18.6459  -12.7951 C   0  0  0  0  0  0  0  0  0  0  0  0
   22.7893  -20.4066  -11.6736 C   0  0  2  0  0  0  0  0  0  0  0  0
   23.7494  -20.9866  -10.6868 O   0  0  0  0  0  0  0  0  0  0  0  0
   23.8524  -22.3675  -10.8550 C   0  0  2  0  0  0  0  0  0  0  0  0
   25.1269  -20.3638  -10.7323 N   0  0  0  0  0  0  0  0  0  0  0  0
   25.7424  -20.7779  -11.9886 C   0  0  0  0  0  0  0  0  0  0  0  0
   25.9234  -20.9008   -9.6249 O   0  0  0  0  0  0  0  0  0  0  0  0
   25.6162  -20.5659   -8.3022 O   0  0  0  0  0  0  0  0  0  0  0  0
  2  4  1  0
  2  1  1  0
  3  2  2  0
  4  5  1  0
  6  5  1  0
  6  7  1  0
  7  8  1  0
  8  9  1  1
  8 10  1  0
 10 12  1  0
 11 10  2  0
 12 16  1  0
 12 13  1  0
 13 14  1  0
 14 15  1  0
 16 15  1  0
 17 23  1  0
 16 17  1  1
 18 17  2  0
 20 19  1  1
 20 22  1  0
 21 20  1  0
 22 24  1  0
 22 23  1  1
 24 25  1  0
 26 24  2  0
M  END
$$$$
