RPT.pdb
     RDKit          3D

 26 26  0  0  1  0  0  0  0  0999 V2000
   25.6771  -15.8209  -17.0581 N   0  0  0  0  0  0  0  0  0  0  0  0
   25.3817  -16.9920  -17.8393 C   0  0  0  0  0  0  0  0  0  0  0  0
   25.2854  -16.8556  -19.1006 N   0  0  0  0  0  0  0  0  0  0  0  0
   25.1971  -18.2714  -17.2659 N   0  0  0  0  0  0  0  0  0  0  0  0
   25.6327  -18.5284  -15.9360 C   0  0  0  0  0  0  0  0  0  0  0  0
   27.0798  -18.9596  -15.8502 C   0  0  0  0  0  0  0  0  0  0  0  0
   27.4643  -19.3383  -14.4445 C   0  0  0  0  0  0  0  0  0  0  0  0
   27.3564  -20.8343  -14.2104 C   0  0  2  0  0  0  0  0  0  0  0  0
   27.7304  -21.6082  -15.3306 N   0  0  0  0  0  0  0  0  0  0  0  0
   26.0830  -21.2078  -13.6005 C   0  0  0  0  0  0  0  0  0  0  0  0
   25.2008  -21.6741  -14.4101 O   0  0  0  0  0  0  0  0  0  0  0  0
   25.0823  -17.6131  -19.7809 N   0  0  0  0  0  0  0  0  0  0  0  0
   25.6992  -21.1209  -12.2229 C   0  0  0  0  0  0  0  0  0  0  0  0
   26.5936  -20.7495  -11.1741 C   0  0  0  0  0  0  0  0  0  0  0  0
   25.6774  -20.0814  -10.1369 C   0  0  0  0  0  0  0  0  0  0  0  0
   24.4379  -20.9298  -10.2595 C   0  0  2  0  0  0  0  0  0  0  0  0
   24.3955  -21.3849  -11.6856 C   0  0  0  0  0  0  0  0  0  0  0  0
   23.3109  -20.6476  -12.3523 O   0  0  0  0  0  0  0  0  0  0  0  0
   23.3665  -19.4155  -12.5112 C   0  0  0  0  0  0  0  0  0  0  0  0
   22.0239  -21.5344  -15.7900 C   0  0  2  0  0  0  0  0  0  0  0  0
   20.8923  -21.5976  -14.8167 O   0  0  0  0  0  0  0  0  0  0  0  0
   20.6361  -22.9179  -14.4464 C   0  0  2  0  0  0  0  0  0  0  0  0
   21.0993  -20.7525  -13.5796 N   0  0  0  0  0  0  0  0  0  0  0  0
   22.1839  -21.3648  -12.8198 C   0  0  0  0  0  0  0  0  0  0  0  0
   19.8792  -20.7986  -12.7682 O   0  0  0  0  0  0  0  0  0  0  0  0
   19.8484  -21.5251  -11.5735 O   0  0  0  0  0  0  0  0  0  0  0  0
  2  4  1  0
  2  1  1  0
  3  2  2  0
  4  5  1  0
  6  5  1  0
  6  7  1  0
  7  8  1  0
  8  9  1  6
  8 10  1  0
 10 12  1  0
 11 10  2  0
 12 16  1  0
 12 13  1  0
 13 14  1  0
 14 15  1  0
 16 15  1  0
 17 23  1  0
 16 17  1  1
 18 17  2  0
 20 19  1  6
 20 22  1  0
 21 20  1  0
 22 24  1  0
 22 23  1  6
 24 25  1  0
 26 24  2  0
M  END
$$$$
