RPT.pdb
     RDKit          3D

 26 26  0  0  1  0  0  0  0  0999 V2000
   13.6935  -30.5602   -6.7747 N   0  0  0  0  0  0  0  0  0  0  0  0
   13.2577  -29.9199   -7.9868 C   0  0  0  0  0  0  0  0  0  0  0  0
   12.0302  -30.0237   -8.3049 N   0  0  0  0  0  0  0  0  0  0  0  0
   14.1304  -29.1896   -8.8263 N   0  0  0  0  0  0  0  0  0  0  0  0
   15.5193  -29.1197   -8.5259 C   0  0  0  0  0  0  0  0  0  0  0  0
   16.3243  -28.3817   -9.5722 C   0  0  0  0  0  0  0  0  0  0  0  0
   15.8559  -26.9597   -9.7328 C   0  0  0  0  0  0  0  0  0  0  0  0
   16.9132  -25.9615   -9.2965 C   0  0  2  0  0  0  0  0  0  0  0  0
   18.1843  -26.2043   -9.8612 N   0  0  0  0  0  0  0  0  0  0  0  0
   16.9107  -25.7500   -7.8515 C   0  0  0  0  0  0  0  0  0  0  0  0
   17.8127  -26.3925   -7.1998 O   0  0  0  0  0  0  0  0  0  0  0  0
   11.5915  -29.6498   -9.1684 N   0  0  0  0  0  0  0  0  0  0  0  0
   16.0358  -24.9209   -7.0772 C   0  0  0  0  0  0  0  0  0  0  0  0
   14.9646  -24.1611   -7.6367 C   0  0  0  0  0  0  0  0  0  0  0  0
   13.9352  -24.0937   -6.4977 C   0  0  0  0  0  0  0  0  0  0  0  0
   14.8405  -23.9771   -5.2986 C   0  0  2  0  0  0  0  0  0  0  0  0
   16.0893  -24.7217   -5.6575 C   0  0  0  0  0  0  0  0  0  0  0  0
   16.0997  -25.9685   -4.8765 O   0  0  0  0  0  0  0  0  0  0  0  0
   15.4088  -26.9476   -5.2086 C   0  0  0  0  0  0  0  0  0  0  0  0
   19.4915  -27.5965   -3.4217 C   0  0  2  0  0  0  0  0  0  0  0  0
   18.4659  -27.2770   -2.3834 O   0  0  0  0  0  0  0  0  0  0  0  0
   18.7593  -26.0641   -1.7600 C   0  0  2  0  0  0  0  0  0  0  0  0
   17.0482  -27.2495   -2.9097 N   0  0  0  0  0  0  0  0  0  0  0  0
   16.9173  -26.0458   -3.7237 C   0  0  0  0  0  0  0  0  0  0  0  0
   16.1264  -27.1457   -1.7745 O   0  0  0  0  0  0  0  0  0  0  0  0
   15.8557  -28.2616   -0.9760 O   0  0  0  0  0  0  0  0  0  0  0  0
  2  4  1  0
  2  1  1  0
  3  2  2  0
  4  5  1  0
  6  5  1  0
  6  7  1  0
  7  8  1  0
  8  9  1  1
  8 10  1  0
 10 12  1  0
 11 10  2  0
 12 16  1  0
 12 13  1  0
 13 14  1  0
 14 15  1  0
 16 15  1  0
 17 23  1  0
 16 17  1  1
 18 17  2  0
 20 19  1  1
 20 22  1  0
 21 20  1  0
 22 24  1  0
 22 23  1  1
 24 25  1  0
 26 24  2  0
M  END
$$$$
