RPT.pdb
     RDKit          3D

 26 26  0  0  1  0  0  0  0  0999 V2000
   21.4568  -18.1438  -15.3809 N   0  0  0  0  0  0  0  0  0  0  0  0
   22.5214  -19.0245  -15.7811 C   0  0  0  0  0  0  0  0  0  0  0  0
   23.1465  -18.7506  -16.8548 N   0  0  0  0  0  0  0  0  0  0  0  0
   22.8938  -20.1673  -15.0361 N   0  0  0  0  0  0  0  0  0  0  0  0
   24.1836  -20.2432  -14.4403 C   0  0  0  0  0  0  0  0  0  0  0  0
   24.4365  -19.1613  -13.4142 C   0  0  0  0  0  0  0  0  0  0  0  0
   24.5455  -19.7287  -12.0237 C   0  0  0  0  0  0  0  0  0  0  0  0
   25.0980  -21.1426  -12.0298 C   0  0  2  0  0  0  0  0  0  0  0  0
   24.1158  -22.1302  -12.2615 N   0  0  0  0  0  0  0  0  0  0  0  0
   25.9728  -21.3990  -10.8888 C   0  0  0  0  0  0  0  0  0  0  0  0
   25.3751  -21.7282   -9.8000 O   0  0  0  0  0  0  0  0  0  0  0  0
   23.9073  -19.3167  -17.2774 N   0  0  0  0  0  0  0  0  0  0  0  0
   27.4029  -21.3311  -10.8337 C   0  0  0  0  0  0  0  0  0  0  0  0
   28.2315  -21.1525  -11.9824 C   0  0  0  0  0  0  0  0  0  0  0  0
   29.4608  -20.4139  -11.4304 C   0  0  0  0  0  0  0  0  0  0  0  0
   29.6026  -21.0627  -10.0776 C   0  0  1  0  0  0  0  0  0  0  0  0
   28.2136  -21.4290   -9.6543 C   0  0  0  0  0  0  0  0  0  0  0  0
   27.8219  -20.5052   -8.5783 O   0  0  0  0  0  0  0  0  0  0  0  0
   27.2902  -19.4088   -8.8264 C   0  0  0  0  0  0  0  0  0  0  0  0
   29.2977  -21.4148   -4.6998 C   0  0  2  0  0  0  0  0  0  0  0  0
   27.9076  -20.8887   -4.8499 O   0  0  0  0  0  0  0  0  0  0  0  0
   27.5342  -20.1586   -3.7214 C   0  0  1  0  0  0  0  0  0  0  0  0
   27.7000  -20.0497   -6.0911 N   0  0  0  0  0  0  0  0  0  0  0  0
   28.0592  -20.8814   -7.2346 C   0  0  0  0  0  0  0  0  0  0  0  0
   28.6138  -18.9043   -6.0436 O   0  0  0  0  0  0  0  0  0  0  0  0
   28.2928  -17.7713   -5.2892 O   0  0  0  0  0  0  0  0  0  0  0  0
  2  4  1  0
  2  1  1  0
  3  2  2  0
  4  5  1  0
  6  5  1  0
  6  7  1  0
  7  8  1  0
  8  9  1  1
  8 10  1  0
 10 12  1  0
 11 10  2  0
 12 16  1  0
 12 13  1  0
 13 14  1  0
 14 15  1  0
 16 15  1  0
 17 23  1  0
 16 17  1  1
 18 17  2  0
 20 19  1  1
 20 22  1  0
 21 20  1  0
 22 24  1  0
 22 23  1  1
 24 25  1  0
 26 24  2  0
M  END
$$$$
