FKP.pdb
     RDKit          3D

 28 29  0  0  1  0  0  0  0  0999 V2000
   24.6222  -12.2155  -18.0843 N   0  0  0  0  0  0  0  0  0  0  0  0
   24.1802  -11.9993  -16.7454 C   0  0  1  0  0  0  0  0  0  0  0  0
   25.3401  -12.0304  -15.7747 C   0  0  0  0  0  0  0  0  0  0  0  0
   26.0237  -13.3321  -15.7616 C   0  0  0  0  0  0  0  0  0  0  0  0
   25.4911  -14.3367  -14.9877 C   0  0  0  0  0  0  0  0  0  0  0  0
   26.0535  -15.5956  -14.9041 C   0  0  0  0  0  0  0  0  0  0  0  0
   27.1910  -15.8286  -15.6332 C   0  0  0  0  0  0  0  0  0  0  0  0
   27.7449  -14.8390  -16.4167 C   0  0  0  0  0  0  0  0  0  0  0  0
   27.1668  -13.6007  -16.4810 C   0  0  0  0  0  0  0  0  0  0  0  0
   23.3708  -10.7639  -16.5882 C   0  0  0  0  0  0  0  0  0  0  0  0
   23.8437   -9.7288  -17.1722 O   0  0  0  0  0  0  0  0  0  0  0  0
   22.1677  -10.7101  -15.8551 N   0  0  0  0  0  0  0  0  0  0  0  0
   21.4018   -9.4720  -15.8150 C   0  0  1  0  0  0  0  0  0  0  0  0
   20.0381   -9.8471  -15.3273 C   0  0  0  0  0  0  0  0  0  0  0  0
   19.2401  -10.7577  -16.1822 C   0  0  0  0  0  0  0  0  0  0  0  0
   17.9045  -11.1327  -15.5846 C   0  0  0  0  0  0  0  0  0  0  0  0
   17.1242  -12.0619  -16.4929 C   0  0  0  0  0  0  0  0  0  0  0  0
   15.9285  -12.4619  -15.7463 N   0  0  0  0  0  0  0  0  0  0  0  0
   22.0481   -8.3820  -15.0978 C   0  0  0  0  0  0  0  0  0  0  0  0
   22.7996   -8.7342  -14.1152 O   0  0  0  0  0  0  0  0  0  0  0  0
   21.9695   -6.9900  -15.3253 N   0  0  0  0  0  0  0  0  0  0  0  0
   21.1343   -6.3971  -16.3994 C   0  0  0  0  0  0  0  0  0  0  0  0
   21.7206   -5.0510  -16.7046 C   0  0  0  0  0  0  0  0  0  0  0  0
   23.0002   -5.0110  -15.9001 C   0  0  0  0  0  0  0  0  0  0  0  0
   22.5601   -5.8472  -14.6833 C   0  0  1  0  0  0  0  0  0  0  0  0
   21.5705   -5.0363  -13.9480 C   0  0  0  0  0  0  0  0  0  0  0  0
   20.3430   -5.2077  -14.1305 O   0  0  0  0  0  0  0  0  0  0  0  0
   21.9598   -4.0786  -13.0506 O   0  0  0  0  0  0  0  0  0  0  0  0
  2  1  1  6
  3  2  1  0
  4  3  1  0
  4  9  1  0
  5  4  2  0
  6  5  1  0
  6  7  2  0
  7  8  1  0
  8  9  2  0
 10  2  1  0
 10 11  2  0
 12 10  1  0
 13 12  1  0
 13 14  1  1
 15 14  1  0
 16 15  1  0
 17 16  1  0
 18 17  1  0
 19 13  1  0
 20 19  2  0
 21 25  1  0
 21 19  1  0
 22 21  1  0
 23 22  1  0
 23 24  1  0
 24 25  1  0
 25 26  1  6
 26 27  2  0
 26 28  1  0
M  END
$$$$
