FKP.pdb
     RDKit          3D

 28 29  0  0  1  0  0  0  0  0999 V2000
   24.6669  -19.8768   -7.5082 N   0  0  0  0  0  0  0  0  0  0  0  0
   25.9165  -20.0114   -8.1827 C   0  0  1  0  0  0  0  0  0  0  0  0
   26.8095  -21.0138   -7.4852 C   0  0  0  0  0  0  0  0  0  0  0  0
   27.5922  -20.4051   -6.3995 C   0  0  0  0  0  0  0  0  0  0  0  0
   28.8033  -19.8342   -6.7142 C   0  0  0  0  0  0  0  0  0  0  0  0
   29.6167  -19.2360   -5.7714 C   0  0  0  0  0  0  0  0  0  0  0  0
   29.1754  -19.2240   -4.4734 C   0  0  0  0  0  0  0  0  0  0  0  0
   27.9656  -19.7892   -4.1316 C   0  0  0  0  0  0  0  0  0  0  0  0
   27.1798  -20.3751   -5.0859 C   0  0  0  0  0  0  0  0  0  0  0  0
   25.7716  -20.3232   -9.6276 C   0  0  0  0  0  0  0  0  0  0  0  0
   24.5739  -20.5507  -10.0149 O   0  0  0  0  0  0  0  0  0  0  0  0
   26.8572  -20.3710  -10.5259 N   0  0  0  0  0  0  0  0  0  0  0  0
   26.6158  -20.2481  -11.9569 C   0  0  1  0  0  0  0  0  0  0  0  0
   27.9574  -20.3502  -12.6110 C   0  0  0  0  0  0  0  0  0  0  0  0
   27.9838  -20.4517  -14.0894 C   0  0  0  0  0  0  0  0  0  0  0  0
   28.1773  -19.1241  -14.7834 C   0  0  0  0  0  0  0  0  0  0  0  0
   28.1359  -19.2679  -16.2917 C   0  0  0  0  0  0  0  0  0  0  0  0
   28.2794  -17.9166  -16.8399 N   0  0  0  0  0  0  0  0  0  0  0  0
   25.5924  -21.1431  -12.4784 C   0  0  0  0  0  0  0  0  0  0  0  0
   25.6109  -22.3399  -12.0074 O   0  0  0  0  0  0  0  0  0  0  0  0
   24.5793  -20.8871  -13.4289 N   0  0  0  0  0  0  0  0  0  0  0  0
   24.4736  -19.6024  -14.1647 C   0  0  0  0  0  0  0  0  0  0  0  0
   23.0455  -19.4764  -14.6044 C   0  0  0  0  0  0  0  0  0  0  0  0
   22.3444  -20.6334  -13.9291 C   0  0  0  0  0  0  0  0  0  0  0  0
   23.4874  -21.6663  -13.9461 C   0  0  1  0  0  0  0  0  0  0  0  0
   23.6862  -22.0544  -15.3559 C   0  0  0  0  0  0  0  0  0  0  0  0
   24.6470  -21.5940  -16.0150 O   0  0  0  0  0  0  0  0  0  0  0  0
   22.8336  -22.9228  -15.9828 O   0  0  0  0  0  0  0  0  0  0  0  0
  2  1  1  1
  3  2  1  0
  4  3  1  0
  4  9  1  0
  5  4  2  0
  6  5  1  0
  6  7  2  0
  7  8  1  0
  8  9  2  0
 10  2  1  0
 10 11  2  0
 12 10  1  0
 13 12  1  0
 13 14  1  6
 15 14  1  0
 16 15  1  0
 17 16  1  0
 18 17  1  0
 19 13  1  0
 20 19  2  0
 21 25  1  0
 21 19  1  0
 22 21  1  0
 23 22  1  0
 23 24  1  0
 24 25  1  0
 25 26  1  6
 26 27  2  0
 26 28  1  0
M  END
$$$$
