FKP.pdb
     RDKit          3D

 28 29  0  0  1  0  0  0  0  0999 V2000
   28.7166  -21.0892   -8.8857 N   0  0  0  0  0  0  0  0  0  0  0  0
   27.3403  -20.7191   -8.9436 C   0  0  1  0  0  0  0  0  0  0  0  0
   27.0867  -19.4350   -8.1849 C   0  0  0  0  0  0  0  0  0  0  0  0
   27.5637  -19.5028   -6.7958 C   0  0  0  0  0  0  0  0  0  0  0  0
   28.6476  -18.7326   -6.4438 C   0  0  0  0  0  0  0  0  0  0  0  0
   29.1755  -18.7216   -5.1674 C   0  0  0  0  0  0  0  0  0  0  0  0
   28.5754  -19.5212   -4.2291 C   0  0  0  0  0  0  0  0  0  0  0  0
   27.4880  -20.3026   -4.5559 C   0  0  0  0  0  0  0  0  0  0  0  0
   26.9856  -20.2942   -5.8283 C   0  0  0  0  0  0  0  0  0  0  0  0
   26.8111  -20.6468  -10.3296 C   0  0  0  0  0  0  0  0  0  0  0  0
   27.5187  -19.9602  -11.1443 O   0  0  0  0  0  0  0  0  0  0  0  0
   25.6201  -21.2791  -10.7414 N   0  0  0  0  0  0  0  0  0  0  0  0
   25.2466  -21.2678  -12.1491 C   0  0  1  0  0  0  0  0  0  0  0  0
   25.2442  -22.6986  -12.5859 C   0  0  0  0  0  0  0  0  0  0  0  0
   24.9793  -22.9685  -14.0190 C   0  0  0  0  0  0  0  0  0  0  0  0
   24.4673  -24.3640  -14.2871 C   0  0  0  0  0  0  0  0  0  0  0  0
   24.0505  -24.5408  -15.7336 C   0  0  0  0  0  0  0  0  0  0  0  0
   23.6134  -25.9326  -15.8707 N   0  0  0  0  0  0  0  0  0  0  0  0
   24.0356  -20.5169  -12.4492 C   0  0  0  0  0  0  0  0  0  0  0  0
   23.1789  -20.4421  -11.4928 O   0  0  0  0  0  0  0  0  0  0  0  0
   23.6643  -19.8565  -13.6415 N   0  0  0  0  0  0  0  0  0  0  0  0
   24.4836  -19.9089  -14.8779 C   0  0  0  0  0  0  0  0  0  0  0  0
   24.1190  -18.6989  -15.6854 C   0  0  0  0  0  0  0  0  0  0  0  0
   23.2206  -17.8976  -14.7707 C   0  0  0  0  0  0  0  0  0  0  0  0
   22.5334  -19.0519  -14.0164 C   0  0  1  0  0  0  0  0  0  0  0  0
   21.6541  -19.7289  -14.9891 C   0  0  0  0  0  0  0  0  0  0  0  0
   20.4978  -19.3001  -15.2101 O   0  0  0  0  0  0  0  0  0  0  0  0
   22.0709  -20.8379  -15.6749 O   0  0  0  0  0  0  0  0  0  0  0  0
  2  1  1  6
  3  2  1  0
  4  3  1  0
  4  9  1  0
  5  4  2  0
  6  5  1  0
  6  7  2  0
  7  8  1  0
  8  9  2  0
 10  2  1  0
 10 11  2  0
 12 10  1  0
 13 12  1  0
 13 14  1  1
 15 14  1  0
 16 15  1  0
 17 16  1  0
 18 17  1  0
 19 13  1  0
 20 19  2  0
 21 25  1  0
 21 19  1  0
 22 21  1  0
 23 22  1  0
 23 24  1  0
 24 25  1  0
 25 26  1  6
 26 27  2  0
 26 28  1  0
M  END
$$$$
