FKP.pdb
     RDKit          3D

 28 29  0  0  1  0  0  0  0  0999 V2000
   30.9611  -31.7085  -16.9904 N   0  0  0  0  0  0  0  0  0  0  0  0
   29.8876  -32.1130  -17.8381 C   0  0  1  0  0  0  0  0  0  0  0  0
   29.9958  -33.5788  -18.1962 C   0  0  0  0  0  0  0  0  0  0  0  0
   30.9957  -33.8259  -19.2456 C   0  0  0  0  0  0  0  0  0  0  0  0
   30.7061  -33.4172  -20.5266 C   0  0  0  0  0  0  0  0  0  0  0  0
   31.5744  -33.6002  -21.5853 C   0  0  0  0  0  0  0  0  0  0  0  0
   32.7696  -34.2182  -21.3218 C   0  0  0  0  0  0  0  0  0  0  0  0
   33.0842  -34.6372  -20.0470 C   0  0  0  0  0  0  0  0  0  0  0  0
   32.2052  -34.4432  -19.0167 C   0  0  0  0  0  0  0  0  0  0  0  0
   28.5489  -31.7844  -17.2850 C   0  0  0  0  0  0  0  0  0  0  0  0
   28.4869  -31.7386  -16.0082 O   0  0  0  0  0  0  0  0  0  0  0  0
   27.4154  -31.5372  -18.0862 N   0  0  0  0  0  0  0  0  0  0  0  0
   26.1467  -31.1979  -17.4566 C   0  0  1  0  0  0  0  0  0  0  0  0
   25.5102  -30.1719  -18.3399 C   0  0  0  0  0  0  0  0  0  0  0  0
   25.4767  -30.4573  -19.7940 C   0  0  0  0  0  0  0  0  0  0  0  0
   24.7692  -29.3956  -20.6025 C   0  0  0  0  0  0  0  0  0  0  0  0
   24.6240  -29.8008  -22.0559 C   0  0  0  0  0  0  0  0  0  0  0  0
   25.1599  -28.6918  -22.8497 N   0  0  0  0  0  0  0  0  0  0  0  0
   25.3118  -32.3422  -17.1194 C   0  0  0  0  0  0  0  0  0  0  0  0
   25.5514  -33.4175  -17.7834 O   0  0  0  0  0  0  0  0  0  0  0  0
   24.2741  -32.4432  -16.1663 N   0  0  0  0  0  0  0  0  0  0  0  0
   23.7584  -31.2732  -15.4126 C   0  0  0  0  0  0  0  0  0  0  0  0
   23.1326  -31.8116  -14.1607 C   0  0  0  0  0  0  0  0  0  0  0  0
   23.4872  -33.2814  -14.1694 C   0  0  0  0  0  0  0  0  0  0  0  0
   23.4716  -33.5362  -15.6887 C   0  0  1  0  0  0  0  0  0  0  0  0
   22.0640  -33.4364  -16.1202 C   0  0  0  0  0  0  0  0  0  0  0  0
   21.6506  -32.4155  -16.7173 O   0  0  0  0  0  0  0  0  0  0  0  0
   21.1726  -34.4480  -15.8832 O   0  0  0  0  0  0  0  0  0  0  0  0
  2  1  1  1
  3  2  1  0
  4  3  1  0
  4  9  1  0
  5  4  2  0
  6  5  1  0
  6  7  2  0
  7  8  1  0
  8  9  2  0
 10  2  1  0
 10 11  2  0
 12 10  1  0
 13 12  1  0
 13 14  1  6
 15 14  1  0
 16 15  1  0
 17 16  1  0
 18 17  1  0
 19 13  1  0
 20 19  2  0
 21 25  1  0
 21 19  1  0
 22 21  1  0
 23 22  1  0
 23 24  1  0
 24 25  1  0
 25 26  1  6
 26 27  2  0
 26 28  1  0
M  END
$$$$
