FKP.pdb
     RDKit          3D

 28 29  0  0  1  0  0  0  0  0999 V2000
   27.5783  -21.7080  -10.3252 N   0  0  0  0  0  0  0  0  0  0  0  0
   26.5171  -20.8934  -10.8201 C   0  0  1  0  0  0  0  0  0  0  0  0
   26.4194  -19.5949  -10.0502 C   0  0  0  0  0  0  0  0  0  0  0  0
   26.1680  -19.8116   -8.6178 C   0  0  0  0  0  0  0  0  0  0  0  0
   27.1157  -19.3782   -7.7200 C   0  0  0  0  0  0  0  0  0  0  0  0
   26.9787  -19.5318   -6.3541 C   0  0  0  0  0  0  0  0  0  0  0  0
   25.8404  -20.1458   -5.8989 C   0  0  0  0  0  0  0  0  0  0  0  0
   24.8754  -20.5893   -6.7775 C   0  0  0  0  0  0  0  0  0  0  0  0
   25.0369  -20.4241   -8.1259 C   0  0  0  0  0  0  0  0  0  0  0  0
   26.5961  -20.6545  -12.2840 C   0  0  0  0  0  0  0  0  0  0  0  0
   27.7428  -20.2819  -12.7107 O   0  0  0  0  0  0  0  0  0  0  0  0
   25.5030  -20.8192  -13.1592 N   0  0  0  0  0  0  0  0  0  0  0  0
   25.6532  -20.4935  -14.5707 C   0  0  1  0  0  0  0  0  0  0  0  0
   24.8611  -21.5202  -15.3167 C   0  0  0  0  0  0  0  0  0  0  0  0
   24.7987  -21.3869  -16.7915 C   0  0  0  0  0  0  0  0  0  0  0  0
   23.9713  -22.4586  -17.4611 C   0  0  0  0  0  0  0  0  0  0  0  0
   23.9891  -22.3205  -18.9704 C   0  0  0  0  0  0  0  0  0  0  0  0
   23.3237  -23.5126  -19.5025 N   0  0  0  0  0  0  0  0  0  0  0  0
   25.3612  -19.1073  -14.9077 C   0  0  0  0  0  0  0  0  0  0  0  0
   24.3635  -18.5846  -14.2866 O   0  0  0  0  0  0  0  0  0  0  0  0
   26.0166  -18.2509  -15.8201 N   0  0  0  0  0  0  0  0  0  0  0  0
   27.1692  -18.6878  -16.6468 C   0  0  0  0  0  0  0  0  0  0  0  0
   27.9250  -17.4471  -17.0185 C   0  0  0  0  0  0  0  0  0  0  0  0
   27.2577  -16.3509  -16.2191 C   0  0  0  0  0  0  0  0  0  0  0  0
   25.8122  -16.8841  -16.2165 C   0  0  1  0  0  0  0  0  0  0  0  0
   25.3143  -16.7640  -17.6004 C   0  0  0  0  0  0  0  0  0  0  0  0
   24.9517  -15.6538  -18.0539 O   0  0  0  0  0  0  0  0  0  0  0  0
   25.2333  -17.8534  -18.4255 O   0  0  0  0  0  0  0  0  0  0  0  0
  2  1  1  1
  3  2  1  0
  4  3  1  0
  4  9  1  0
  5  4  2  0
  6  5  1  0
  6  7  2  0
  7  8  1  0
  8  9  2  0
 10  2  1  0
 10 11  2  0
 12 10  1  0
 13 12  1  0
 13 14  1  6
 15 14  1  0
 16 15  1  0
 17 16  1  0
 18 17  1  0
 19 13  1  0
 20 19  2  0
 21 25  1  0
 21 19  1  0
 22 21  1  0
 23 22  1  0
 23 24  1  0
 24 25  1  0
 25 26  1  6
 26 27  2  0
 26 28  1  0
M  END
$$$$
