FKP.pdb
     RDKit          3D

 28 29  0  0  1  0  0  0  0  0999 V2000
   25.5806  -21.4848   -7.2942 N   0  0  0  0  0  0  0  0  0  0  0  0
   25.9437  -20.6278   -8.3751 C   0  0  1  0  0  0  0  0  0  0  0  0
   27.4462  -20.4847   -8.4788 C   0  0  0  0  0  0  0  0  0  0  0  0
   28.0377  -19.9032   -7.2648 C   0  0  0  0  0  0  0  0  0  0  0  0
   28.8077  -20.7156   -6.4653 C   0  0  0  0  0  0  0  0  0  0  0  0
   29.4090  -20.2706   -5.3040 C   0  0  0  0  0  0  0  0  0  0  0  0
   29.2147  -18.9589   -4.9551 C   0  0  0  0  0  0  0  0  0  0  0  0
   28.4476  -18.1239   -5.7388 C   0  0  0  0  0  0  0  0  0  0  0  0
   27.8635  -18.5912   -6.8843 C   0  0  0  0  0  0  0  0  0  0  0  0
   25.3441  -21.0345   -9.6717 C   0  0  0  0  0  0  0  0  0  0  0  0
   25.9141  -22.0259  -10.2447 O   0  0  0  0  0  0  0  0  0  0  0  0
   24.2298  -20.3919  -10.2490 N   0  0  0  0  0  0  0  0  0  0  0  0
   23.7869  -20.7747  -11.5826 C   0  0  1  0  0  0  0  0  0  0  0  0
   22.3816  -20.2773  -11.7083 C   0  0  0  0  0  0  0  0  0  0  0  0
   21.6653  -20.5833  -12.9693 C   0  0  0  0  0  0  0  0  0  0  0  0
   21.0908  -21.9795  -13.0151 C   0  0  0  0  0  0  0  0  0  0  0  0
   20.3900  -22.2551  -14.3304 C   0  0  0  0  0  0  0  0  0  0  0  0
   19.9807  -23.6616  -14.2939 N   0  0  0  0  0  0  0  0  0  0  0  0
   24.6899  -20.3855  -12.6565 C   0  0  0  0  0  0  0  0  0  0  0  0
   25.2214  -19.2203  -12.5383 O   0  0  0  0  0  0  0  0  0  0  0  0
   25.0681  -21.1040  -13.8125 N   0  0  0  0  0  0  0  0  0  0  0  0
   24.4923  -22.4269  -14.1608 C   0  0  0  0  0  0  0  0  0  0  0  0
   25.4870  -23.1054  -15.0548 C   0  0  0  0  0  0  0  0  0  0  0  0
   26.6929  -22.1938  -15.0298 C   0  0  0  0  0  0  0  0  0  0  0  0
   25.9799  -20.8351  -14.8910 C   0  0  1  0  0  0  0  0  0  0  0  0
   25.2872  -20.5880  -16.1703 C   0  0  0  0  0  0  0  0  0  0  0  0
   25.9365  -20.2994  -17.2021 O   0  0  0  0  0  0  0  0  0  0  0  0
   23.9240  -20.6655  -16.2689 O   0  0  0  0  0  0  0  0  0  0  0  0
  2  1  1  1
  3  2  1  0
  4  3  1  0
  4  9  1  0
  5  4  2  0
  6  5  1  0
  6  7  2  0
  7  8  1  0
  8  9  2  0
 10  2  1  0
 10 11  2  0
 12 10  1  0
 13 12  1  0
 13 14  1  6
 15 14  1  0
 16 15  1  0
 17 16  1  0
 18 17  1  0
 19 13  1  0
 20 19  2  0
 21 25  1  0
 21 19  1  0
 22 21  1  0
 23 22  1  0
 23 24  1  0
 24 25  1  0
 25 26  1  6
 26 27  2  0
 26 28  1  0
M  END
$$$$
