FKP.pdb
     RDKit          3D

 28 29  0  0  1  0  0  0  0  0999 V2000
   24.1243  -13.1362  -18.4059 N   0  0  0  0  0  0  0  0  0  0  0  0
   23.9838  -12.4816  -17.1464 C   0  0  1  0  0  0  0  0  0  0  0  0
   25.3229  -12.3205  -16.4612 C   0  0  0  0  0  0  0  0  0  0  0  0
   25.9279  -13.6124  -16.1051 C   0  0  0  0  0  0  0  0  0  0  0  0
   26.9004  -14.1233  -16.9329 C   0  0  0  0  0  0  0  0  0  0  0  0
   27.5326  -15.3275  -16.6910 C   0  0  0  0  0  0  0  0  0  0  0  0
   27.1568  -16.0241  -15.5715 C   0  0  0  0  0  0  0  0  0  0  0  0
   26.1850  -15.5343  -14.7257 C   0  0  0  0  0  0  0  0  0  0  0  0
   25.5749  -14.3385  -14.9895 C   0  0  0  0  0  0  0  0  0  0  0  0
   23.2583  -11.1886  -17.2361 C   0  0  0  0  0  0  0  0  0  0  0  0
   23.5346  -10.4831  -18.2666 O   0  0  0  0  0  0  0  0  0  0  0  0
   22.3295  -10.7491  -16.2707 N   0  0  0  0  0  0  0  0  0  0  0  0
   21.6522   -9.4723  -16.4497 C   0  0  1  0  0  0  0  0  0  0  0  0
   20.1966   -9.7930  -16.5784 C   0  0  0  0  0  0  0  0  0  0  0  0
   19.6015  -10.6671  -15.5399 C   0  0  0  0  0  0  0  0  0  0  0  0
   18.1488  -10.9984  -15.7880 C   0  0  0  0  0  0  0  0  0  0  0  0
   17.6078  -11.9620  -14.7506 C   0  0  0  0  0  0  0  0  0  0  0  0
   16.2786  -12.3668  -15.2158 N   0  0  0  0  0  0  0  0  0  0  0  0
   21.9879   -8.4630  -15.4554 C   0  0  0  0  0  0  0  0  0  0  0  0
   22.3196   -8.9147  -14.2976 O   0  0  0  0  0  0  0  0  0  0  0  0
   22.0026   -7.0558  -15.5780 N   0  0  0  0  0  0  0  0  0  0  0  0
   21.5718   -6.3520  -16.8117 C   0  0  0  0  0  0  0  0  0  0  0  0
   22.2395   -5.0093  -16.7948 C   0  0  0  0  0  0  0  0  0  0  0  0
   23.1849   -5.0784  -15.6169 C   0  0  0  0  0  0  0  0  0  0  0  0
   22.3617   -5.9879  -14.6849 C   0  0  1  0  0  0  0  0  0  0  0  0
   21.1941   -5.1991  -14.2467 C   0  0  0  0  0  0  0  0  0  0  0  0
   21.3112   -4.3285  -13.3534 O   0  0  0  0  0  0  0  0  0  0  0  0
   19.9561   -5.3923  -14.7982 O   0  0  0  0  0  0  0  0  0  0  0  0
  2  1  1  6
  3  2  1  0
  4  3  1  0
  4  9  1  0
  5  4  2  0
  6  5  1  0
  6  7  2  0
  7  8  1  0
  8  9  2  0
 10  2  1  0
 10 11  2  0
 12 10  1  0
 13 12  1  0
 13 14  1  1
 15 14  1  0
 16 15  1  0
 17 16  1  0
 18 17  1  0
 19 13  1  0
 20 19  2  0
 21 25  1  0
 21 19  1  0
 22 21  1  0
 23 22  1  0
 23 24  1  0
 24 25  1  0
 25 26  1  6
 26 27  2  0
 26 28  1  0
M  END
$$$$
