FKP.pdb
     RDKit          3D

 28 29  0  0  1  0  0  0  0  0999 V2000
   18.8507  -19.2886  -16.2744 N   0  0  0  0  0  0  0  0  0  0  0  0
   19.7075  -18.6967  -15.2997 C   0  0  1  0  0  0  0  0  0  0  0  0
   19.0830  -18.7423  -13.9225 C   0  0  0  0  0  0  0  0  0  0  0  0
   18.3335  -17.5172  -13.6075 C   0  0  0  0  0  0  0  0  0  0  0  0
   18.9450  -16.5660  -12.8244 C   0  0  0  0  0  0  0  0  0  0  0  0
   18.3309  -15.3806  -12.4696 C   0  0  0  0  0  0  0  0  0  0  0  0
   17.0573  -15.1668  -12.9304 C   0  0  0  0  0  0  0  0  0  0  0  0
   16.4222  -16.1040  -13.7166 C   0  0  0  0  0  0  0  0  0  0  0  0
   17.0541  -17.2698  -14.0529 C   0  0  0  0  0  0  0  0  0  0  0  0
   21.0767  -19.2724  -15.2966 C   0  0  0  0  0  0  0  0  0  0  0  0
   21.1269  -20.5498  -15.2557 O   0  0  0  0  0  0  0  0  0  0  0  0
   22.2494  -18.4906  -15.3355 N   0  0  0  0  0  0  0  0  0  0  0  0
   23.5445  -19.1209  -15.1197 C   0  0  1  0  0  0  0  0  0  0  0  0
   24.5685  -18.0952  -15.4902 C   0  0  0  0  0  0  0  0  0  0  0  0
   25.9916  -18.4537  -15.2831 C   0  0  0  0  0  0  0  0  0  0  0  0
   26.9553  -17.3651  -15.6925 C   0  0  0  0  0  0  0  0  0  0  0  0
   28.3968  -17.8201  -15.5803 C   0  0  0  0  0  0  0  0  0  0  0  0
   28.6005  -18.8129  -16.6386 N   0  0  0  0  0  0  0  0  0  0  0  0
   23.7112  -19.7303  -13.8078 C   0  0  0  0  0  0  0  0  0  0  0  0
   23.0678  -19.1647  -12.8484 O   0  0  0  0  0  0  0  0  0  0  0  0
   24.4790  -20.8559  -13.4347 N   0  0  0  0  0  0  0  0  0  0  0  0
   25.3940  -21.5517  -14.3737 C   0  0  0  0  0  0  0  0  0  0  0  0
   25.5659  -22.9464  -13.8503 C   0  0  0  0  0  0  0  0  0  0  0  0
   24.5766  -23.0413  -12.7109 C   0  0  0  0  0  0  0  0  0  0  0  0
   24.6320  -21.5867  -12.2062 C   0  0  1  0  0  0  0  0  0  0  0  0
   25.9636  -21.4002  -11.5981 C   0  0  0  0  0  0  0  0  0  0  0  0
   26.9034  -20.9026  -12.2605 O   0  0  0  0  0  0  0  0  0  0  0  0
   26.2117  -21.7623  -10.3014 O   0  0  0  0  0  0  0  0  0  0  0  0
  2  1  1  6
  3  2  1  0
  4  3  1  0
  4  9  1  0
  5  4  2  0
  6  5  1  0
  6  7  2  0
  7  8  1  0
  8  9  2  0
 10  2  1  0
 10 11  2  0
 12 10  1  0
 13 12  1  0
 13 14  1  1
 15 14  1  0
 16 15  1  0
 17 16  1  0
 18 17  1  0
 19 13  1  0
 20 19  2  0
 21 25  1  0
 21 19  1  0
 22 21  1  0
 23 22  1  0
 23 24  1  0
 24 25  1  0
 25 26  1  6
 26 27  2  0
 26 28  1  0
M  END
$$$$
