FKP.pdb
     RDKit          3D

 28 29  0  0  1  0  0  0  0  0999 V2000
   19.5562  -19.6019  -16.4272 N   0  0  0  0  0  0  0  0  0  0  0  0
   20.7420  -18.8600  -16.1480 C   0  0  1  0  0  0  0  0  0  0  0  0
   20.4329  -17.6173  -15.3425 C   0  0  0  0  0  0  0  0  0  0  0  0
   19.8794  -16.5367  -16.1718 C   0  0  0  0  0  0  0  0  0  0  0  0
   18.5168  -16.3490  -16.1678 C   0  0  0  0  0  0  0  0  0  0  0  0
   17.8944  -15.3640  -16.9098 C   0  0  0  0  0  0  0  0  0  0  0  0
   18.6910  -14.5516  -17.6748 C   0  0  0  0  0  0  0  0  0  0  0  0
   20.0590  -14.7187  -17.6966 C   0  0  0  0  0  0  0  0  0  0  0  0
   20.6493  -15.7027  -16.9517 C   0  0  0  0  0  0  0  0  0  0  0  0
   21.8053  -19.6749  -15.5066 C   0  0  0  0  0  0  0  0  0  0  0  0
   21.4388  -20.3196  -14.4644 O   0  0  0  0  0  0  0  0  0  0  0  0
   23.1274  -19.7490  -15.9908 N   0  0  0  0  0  0  0  0  0  0  0  0
   24.1180  -20.5340  -15.2673 C   0  0  1  0  0  0  0  0  0  0  0  0
   25.1400  -20.9421  -16.2807 C   0  0  0  0  0  0  0  0  0  0  0  0
   26.3031  -21.7210  -15.7934 C   0  0  0  0  0  0  0  0  0  0  0  0
   27.2985  -22.0632  -16.8768 C   0  0  0  0  0  0  0  0  0  0  0  0
   28.4457  -22.8969  -16.3419 C   0  0  0  0  0  0  0  0  0  0  0  0
   29.3758  -23.0849  -17.4585 N   0  0  0  0  0  0  0  0  0  0  0  0
   24.6417  -19.8937  -14.0689 C   0  0  0  0  0  0  0  0  0  0  0  0
   24.7249  -18.6112  -14.1175 O   0  0  0  0  0  0  0  0  0  0  0  0
   25.0726  -20.4784  -12.8573 N   0  0  0  0  0  0  0  0  0  0  0  0
   25.1140  -21.9465  -12.6433 C   0  0  0  0  0  0  0  0  0  0  0  0
   25.0515  -22.1657  -11.1611 C   0  0  0  0  0  0  0  0  0  0  0  0
   24.7889  -20.7898  -10.5919 C   0  0  0  0  0  0  0  0  0  0  0  0
   25.5628  -19.9399  -11.6177 C   0  0  1  0  0  0  0  0  0  0  0  0
   26.9957  -20.2210  -11.4052 C   0  0  0  0  0  0  0  0  0  0  0  0
   27.6320  -20.9369  -12.2127 O   0  0  0  0  0  0  0  0  0  0  0  0
   27.6693  -19.7124  -10.3274 O   0  0  0  0  0  0  0  0  0  0  0  0
  2  1  1  1
  3  2  1  0
  4  3  1  0
  4  9  1  0
  5  4  2  0
  6  5  1  0
  6  7  2  0
  7  8  1  0
  8  9  2  0
 10  2  1  0
 10 11  2  0
 12 10  1  0
 13 12  1  0
 13 14  1  6
 15 14  1  0
 16 15  1  0
 17 16  1  0
 18 17  1  0
 19 13  1  0
 20 19  2  0
 21 25  1  0
 21 19  1  0
 22 21  1  0
 23 22  1  0
 23 24  1  0
 24 25  1  0
 25 26  1  1
 26 27  2  0
 26 28  1  0
M  END
$$$$
