FKP.pdb
     RDKit          3D

 28 29  0  0  1  0  0  0  0  0999 V2000
   27.7753  -20.9597  -14.0056 N   0  0  0  0  0  0  0  0  0  0  0  0
   26.7043  -21.0786  -13.0711 C   0  0  1  0  0  0  0  0  0  0  0  0
   26.9594  -20.2416  -11.8371 C   0  0  0  0  0  0  0  0  0  0  0  0
   28.1972  -20.6292  -11.1445 C   0  0  0  0  0  0  0  0  0  0  0  0
   29.3973  -20.3460  -11.7539 C   0  0  0  0  0  0  0  0  0  0  0  0
   30.6171  -20.6667  -11.1905 C   0  0  0  0  0  0  0  0  0  0  0  0
   30.6041  -21.2936   -9.9712 C   0  0  0  0  0  0  0  0  0  0  0  0
   29.4152  -21.5886   -9.3394 C   0  0  0  0  0  0  0  0  0  0  0  0
   28.2211  -21.2596   -9.9204 C   0  0  0  0  0  0  0  0  0  0  0  0
   25.3745  -20.7844  -13.6639 C   0  0  0  0  0  0  0  0  0  0  0  0
   25.0539  -19.5464  -13.6871 O   0  0  0  0  0  0  0  0  0  0  0  0
   24.5115  -21.7778  -14.1703 N   0  0  0  0  0  0  0  0  0  0  0  0
   23.2318  -21.3945  -14.7503 C   0  0  1  0  0  0  0  0  0  0  0  0
   23.1512  -22.0955  -16.0695 C   0  0  0  0  0  0  0  0  0  0  0  0
   23.9545  -21.5373  -17.1830 C   0  0  0  0  0  0  0  0  0  0  0  0
   25.4263  -21.8638  -17.0898 C   0  0  0  0  0  0  0  0  0  0  0  0
   26.2169  -21.2159  -18.2090 C   0  0  0  0  0  0  0  0  0  0  0  0
   27.6171  -21.5928  -17.9979 N   0  0  0  0  0  0  0  0  0  0  0  0
   22.0871  -21.5791  -13.8694 C   0  0  0  0  0  0  0  0  0  0  0  0
   22.1857  -22.5474  -13.0286 O   0  0  0  0  0  0  0  0  0  0  0  0
   20.8808  -20.8469  -13.8040 N   0  0  0  0  0  0  0  0  0  0  0  0
   20.5641  -19.7348  -14.7344 C   0  0  0  0  0  0  0  0  0  0  0  0
   19.5538  -18.8703  -14.0411 C   0  0  0  0  0  0  0  0  0  0  0  0
   19.4725  -19.4404  -12.6431 C   0  0  0  0  0  0  0  0  0  0  0  0
   19.7184  -20.9275  -12.9618 C   0  0  1  0  0  0  0  0  0  0  0  0
   18.5260  -21.4079  -13.6864 C   0  0  0  0  0  0  0  0  0  0  0  0
   18.5091  -21.4367  -14.9388 O   0  0  0  0  0  0  0  0  0  0  0  0
   17.4097  -21.8335  -13.0181 O   0  0  0  0  0  0  0  0  0  0  0  0
  2  1  1  6
  3  2  1  0
  4  3  1  0
  4  9  1  0
  5  4  2  0
  6  5  1  0
  6  7  2  0
  7  8  1  0
  8  9  2  0
 10  2  1  0
 10 11  2  0
 12 10  1  0
 13 12  1  0
 13 14  1  6
 15 14  1  0
 16 15  1  0
 17 16  1  0
 18 17  1  0
 19 13  1  0
 20 19  2  0
 21 25  1  0
 21 19  1  0
 22 21  1  0
 23 22  1  0
 23 24  1  0
 24 25  1  0
 25 26  1  6
 26 27  2  0
 26 28  1  0
M  END
$$$$
