FKP.pdb
     RDKit          3D

 28 29  0  0  1  0  0  0  0  0999 V2000
   25.1429  -19.0065  -13.8121 N   0  0  0  0  0  0  0  0  0  0  0  0
   26.2415  -19.3640  -12.9755 C   0  0  1  0  0  0  0  0  0  0  0  0
   27.4403  -18.4798  -13.2393 C   0  0  0  0  0  0  0  0  0  0  0  0
   28.0082  -18.6925  -14.5787 C   0  0  0  0  0  0  0  0  0  0  0  0
   28.7440  -19.8338  -14.7975 C   0  0  0  0  0  0  0  0  0  0  0  0
   29.3208  -20.1305  -16.0171 C   0  0  0  0  0  0  0  0  0  0  0  0
   29.1375  -19.2329  -17.0373 C   0  0  0  0  0  0  0  0  0  0  0  0
   28.4045  -18.0817  -16.8442 C   0  0  0  0  0  0  0  0  0  0  0  0
   27.8441  -17.8128  -15.6255 C   0  0  0  0  0  0  0  0  0  0  0  0
   25.8930  -19.3935  -11.5320 C   0  0  0  0  0  0  0  0  0  0  0  0
   25.4158  -18.3013  -11.0677 O   0  0  0  0  0  0  0  0  0  0  0  0
   26.0657  -20.5281  -10.7130 N   0  0  0  0  0  0  0  0  0  0  0  0
   25.9013  -20.4089   -9.2708 C   0  0  1  0  0  0  0  0  0  0  0  0
   24.8045  -21.3570   -8.9018 C   0  0  0  0  0  0  0  0  0  0  0  0
   23.9398  -20.9799   -7.7586 C   0  0  0  0  0  0  0  0  0  0  0  0
   22.8780  -22.0056   -7.4393 C   0  0  0  0  0  0  0  0  0  0  0  0
   21.9269  -21.5137   -6.3665 C   0  0  0  0  0  0  0  0  0  0  0  0
   20.8891  -22.5394   -6.2322 N   0  0  0  0  0  0  0  0  0  0  0  0
   27.1333  -20.5448   -8.5067 C   0  0  0  0  0  0  0  0  0  0  0  0
   28.0065  -21.3489   -9.0020 O   0  0  0  0  0  0  0  0  0  0  0  0
   27.5099  -19.9198   -7.2971 N   0  0  0  0  0  0  0  0  0  0  0  0
   26.6462  -18.9358   -6.5980 C   0  0  0  0  0  0  0  0  0  0  0  0
   27.5524  -18.1012   -5.7429 C   0  0  0  0  0  0  0  0  0  0  0  0
   28.9447  -18.5378   -6.1392 C   0  0  0  0  0  0  0  0  0  0  0  0
   28.6661  -20.0211   -6.4487 C   0  0  1  0  0  0  0  0  0  0  0  0
   28.3672  -20.6736   -5.1593 C   0  0  0  0  0  0  0  0  0  0  0  0
   27.1970  -21.0194   -4.8754 O   0  0  0  0  0  0  0  0  0  0  0  0
   29.3514  -20.9193   -4.2401 O   0  0  0  0  0  0  0  0  0  0  0  0
  2  1  1  6
  3  2  1  0
  4  3  1  0
  4  9  1  0
  5  4  2  0
  6  5  1  0
  6  7  2  0
  7  8  1  0
  8  9  2  0
 10  2  1  0
 10 11  2  0
 12 10  1  0
 13 12  1  0
 13 14  1  1
 15 14  1  0
 16 15  1  0
 17 16  1  0
 18 17  1  0
 19 13  1  0
 20 19  2  0
 21 25  1  0
 21 19  1  0
 22 21  1  0
 23 22  1  0
 23 24  1  0
 24 25  1  0
 25 26  1  1
 26 27  2  0
 26 28  1  0
M  END
$$$$
