FKP.pdb
     RDKit          3D

 28 29  0  0  1  0  0  0  0  0999 V2000
   19.0809   -7.7718  -12.5054 N   0  0  0  0  0  0  0  0  0  0  0  0
   19.9411   -7.5228  -13.6157 C   0  0  1  0  0  0  0  0  0  0  0  0
   21.3858   -7.7982  -13.2611 C   0  0  0  0  0  0  0  0  0  0  0  0
   22.3178   -6.9365  -14.0031 C   0  0  0  0  0  0  0  0  0  0  0  0
   23.2337   -7.5369  -14.8352 C   0  0  0  0  0  0  0  0  0  0  0  0
   24.1533   -6.8212  -15.5770 C   0  0  0  0  0  0  0  0  0  0  0  0
   24.1317   -5.4551  -15.4615 C   0  0  0  0  0  0  0  0  0  0  0  0
   23.2241   -4.8288  -14.6347 C   0  0  0  0  0  0  0  0  0  0  0  0
   22.3242   -5.5624  -13.9111 C   0  0  0  0  0  0  0  0  0  0  0  0
   19.5340   -8.2485  -14.8461 C   0  0  0  0  0  0  0  0  0  0  0  0
   19.3773   -9.5099  -14.7040 O   0  0  0  0  0  0  0  0  0  0  0  0
   19.3293   -7.6168  -16.0900 N   0  0  0  0  0  0  0  0  0  0  0  0
   19.0138   -8.4195  -17.2636 C   0  0  1  0  0  0  0  0  0  0  0  0
   18.4987   -7.4618  -18.2910 C   0  0  0  0  0  0  0  0  0  0  0  0
   18.1601   -8.0157  -19.6234 C   0  0  0  0  0  0  0  0  0  0  0  0
   16.7043   -8.3906  -19.7703 C   0  0  0  0  0  0  0  0  0  0  0  0
   16.4066   -8.9574  -21.1442 C   0  0  0  0  0  0  0  0  0  0  0  0
   14.9766   -9.2765  -21.1587 N   0  0  0  0  0  0  0  0  0  0  0  0
   20.0888   -9.2968  -17.7051 C   0  0  0  0  0  0  0  0  0  0  0  0
   21.2806   -8.8551  -17.5080 O   0  0  0  0  0  0  0  0  0  0  0  0
   20.0126  -10.5663  -18.3199 N   0  0  0  0  0  0  0  0  0  0  0  0
   18.7255  -11.2603  -18.5742 C   0  0  0  0  0  0  0  0  0  0  0  0
   19.0402  -12.7227  -18.6791 C   0  0  0  0  0  0  0  0  0  0  0  0
   20.4985  -12.8186  -18.2914 C   0  0  0  0  0  0  0  0  0  0  0  0
   20.9971  -11.4712  -18.8479 C   0  0  1  0  0  0  0  0  0  0  0  0
   20.9411  -11.5741  -20.3189 C   0  0  0  0  0  0  0  0  0  0  0  0
   19.9593  -11.1230  -20.9530 O   0  0  0  0  0  0  0  0  0  0  0  0
   21.9521  -12.1613  -21.0310 O   0  0  0  0  0  0  0  0  0  0  0  0
  2  1  1  1
  3  2  1  0
  4  3  1  0
  4  9  1  0
  5  4  2  0
  6  5  1  0
  6  7  2  0
  7  8  1  0
  8  9  2  0
 10  2  1  0
 10 11  2  0
 12 10  1  0
 13 12  1  0
 13 14  1  6
 15 14  1  0
 16 15  1  0
 17 16  1  0
 18 17  1  0
 19 13  1  0
 20 19  2  0
 21 25  1  0
 21 19  1  0
 22 21  1  0
 23 22  1  0
 23 24  1  0
 24 25  1  0
 25 26  1  6
 26 27  2  0
 26 28  1  0
M  END
$$$$
