SIW.pdb
     RDKit          3D

 29 30  0  0  1  0  0  0  0  0999 V2000
    6.3261  -18.6528   23.3970 O   0  0  0  0  0  0  0  0  0  0  0  0
    5.2654  -18.2340   22.6020 C   0  0  0  0  0  0  0  0  0  0  0  0
    5.7865  -18.0769   21.1983 C   0  0  2  0  0  0  0  0  0  0  0  0
    6.0402  -19.3900   20.6598 N   0  0  0  0  0  0  0  0  0  0  0  0
    7.0256  -17.2214   21.1831 C   0  0  0  0  0  0  0  0  0  0  0  0
    8.0936  -17.8144   20.9610 O   0  0  0  0  0  0  0  0  0  0  0  0
    7.0024  -12.3502   18.9925 C   0  0  0  0  0  0  0  0  0  0  0  0
    7.5039  -13.6407   19.5371 C   0  0  0  0  0  0  0  0  0  0  0  0
    7.8654  -13.5958   21.0141 C   0  0  2  0  0  0  0  0  0  0  0  0
    9.1921  -12.8223   21.0194 C   0  0  0  0  0  0  0  0  0  0  0  0
    8.1639  -15.0053   21.4234 C   0  0  2  0  0  0  0  0  0  0  0  0
    7.0060  -15.8562   21.3998 N   0  0  0  0  0  0  0  0  0  0  0  0
    8.7637  -15.1043   22.7416 C   0  0  0  0  0  0  0  0  0  0  0  0
    8.9263  -13.9977   23.4059 O   0  0  0  0  0  0  0  0  0  0  0  0
    9.2087  -16.2514   23.4410 N   0  0  0  0  0  0  0  0  0  0  0  0
    9.9643  -16.1222   24.7023 C   0  0  1  0  0  0  0  0  0  0  0  0
    9.0519  -16.6428   25.7981 C   0  0  0  0  0  0  0  0  0  0  0  0
    7.8064  -15.8495   25.8778 C   0  0  0  0  0  0  0  0  0  0  0  0
    6.5446  -16.2892   25.5354 C   0  0  0  0  0  0  0  0  0  0  0  0
    5.6799  -15.2733   25.7492 N   0  0  0  0  0  0  0  0  0  0  0  0
    6.3471  -14.1991   26.2167 C   0  0  0  0  0  0  0  0  0  0  0  0
    5.8803  -12.9484   26.5712 C   0  0  0  0  0  0  0  0  0  0  0  0
    6.8085  -12.0344   27.0241 C   0  0  0  0  0  0  0  0  0  0  0  0
    8.1576  -12.3765   27.1136 C   0  0  0  0  0  0  0  0  0  0  0  0
    8.6079  -13.6213   26.7586 C   0  0  0  0  0  0  0  0  0  0  0  0
    7.6914  -14.5438   26.3046 C   0  0  0  0  0  0  0  0  0  0  0  0
   11.1725  -16.9703   24.6290 C   0  0  0  0  0  0  0  0  0  0  0  0
   11.3733  -17.7871   23.6958 O   0  0  0  0  0  0  0  0  0  0  0  0
   12.1446  -16.8769   25.6269 O   0  0  0  0  0  0  0  0  0  0  0  0
  2  1  1  0
  2  3  1  0
  3  4  1  1
  5  6  2  0
  5  3  1  0
  8  7  1  0
  8  9  1  0
  9 11  1  0
  9 10  1  6
 11 12  1  1
 12  5  1  0
 13 11  1  0
 14 13  2  0
 15 13  1  0
 16 27  1  0
 16 15  1  0
 16 17  1  1
 18 17  1  0
 18 19  2  0
 20 19  1  0
 21 20  1  0
 22 21  2  0
 23 22  1  0
 24 23  2  0
 24 25  1  0
 25 26  2  0
 26 21  1  0
 26 18  1  0
 27 29  1  0
 28 27  2  0
M  END
$$$$
