SIW.pdb
     RDKit          3D

 29 30  0  0  1  0  0  0  0  0999 V2000
    6.9487  -19.3667   22.9939 O   0  0  0  0  0  0  0  0  0  0  0  0
    5.7268  -18.7921   22.6634 C   0  0  0  0  0  0  0  0  0  0  0  0
    5.8192  -18.3220   21.2361 C   0  0  2  0  0  0  0  0  0  0  0  0
    5.8046  -19.4792   20.3764 N   0  0  0  0  0  0  0  0  0  0  0  0
    7.0578  -17.4912   21.0284 C   0  0  0  0  0  0  0  0  0  0  0  0
    8.0113  -18.0643   20.4771 O   0  0  0  0  0  0  0  0  0  0  0  0
    6.7727  -12.3492   19.6465 C   0  0  0  0  0  0  0  0  0  0  0  0
    7.3798  -13.6943   19.8351 C   0  0  0  0  0  0  0  0  0  0  0  0
    8.0402  -13.8958   21.1907 C   0  0  2  0  0  0  0  0  0  0  0  0
    9.3799  -13.1620   21.0324 C   0  0  0  0  0  0  0  0  0  0  0  0
    8.3387  -15.3590   21.3065 C   0  0  2  0  0  0  0  0  0  0  0  0
    7.1564  -16.1683   21.4175 N   0  0  0  0  0  0  0  0  0  0  0  0
    9.2058  -15.6799   22.4257 C   0  0  0  0  0  0  0  0  0  0  0  0
   10.4652  -15.3754   22.3090 O   0  0  0  0  0  0  0  0  0  0  0  0
    8.8856  -16.2863   23.6637 N   0  0  0  0  0  0  0  0  0  0  0  0
    9.9057  -16.4327   24.7203 C   0  0  1  0  0  0  0  0  0  0  0  0
    9.7071  -15.2621   25.6661 C   0  0  0  0  0  0  0  0  0  0  0  0
    8.2806  -14.8824   25.7539 C   0  0  0  0  0  0  0  0  0  0  0  0
    7.2064  -15.7341   25.6009 C   0  0  0  0  0  0  0  0  0  0  0  0
    6.0772  -15.0079   25.7526 N   0  0  0  0  0  0  0  0  0  0  0  0
    6.3940  -13.7205   25.9974 C   0  0  0  0  0  0  0  0  0  0  0  0
    5.5748  -12.6302   26.2161 C   0  0  0  0  0  0  0  0  0  0  0  0
    6.1887  -11.4163   26.4438 C   0  0  0  0  0  0  0  0  0  0  0  0
    7.5796  -11.3134   26.4492 C   0  0  0  0  0  0  0  0  0  0  0  0
    8.3812  -12.4033   26.2308 C   0  0  0  0  0  0  0  0  0  0  0  0
    7.7810  -13.6217   26.0021 C   0  0  0  0  0  0  0  0  0  0  0  0
    9.6660  -17.6957   25.4495 C   0  0  0  0  0  0  0  0  0  0  0  0
    8.6383  -18.3967   25.2742 O   0  0  0  0  0  0  0  0  0  0  0  0
   10.6070  -18.1482   26.3766 O   0  0  0  0  0  0  0  0  0  0  0  0
  2  1  1  0
  2  3  1  0
  3  4  1  6
  5  6  2  0
  5  3  1  0
  8  7  1  0
  8  9  1  0
  9 11  1  0
  9 10  1  6
 11 12  1  1
 12  5  1  0
 13 11  1  0
 14 13  2  0
 15 13  1  0
 16 27  1  0
 16 15  1  0
 16 17  1  1
 18 17  1  0
 18 19  2  0
 20 19  1  0
 21 20  1  0
 22 21  2  0
 23 22  1  0
 24 23  2  0
 24 25  1  0
 25 26  2  0
 26 21  1  0
 26 18  1  0
 27 29  1  0
 28 27  2  0
M  END
$$$$
