SIW.pdb
     RDKit          3D

 29 30  0  0  1  0  0  0  0  0999 V2000
    5.6791  -20.4175   21.8258 O   0  0  0  0  0  0  0  0  0  0  0  0
    6.8947  -19.7434   21.8143 C   0  0  0  0  0  0  0  0  0  0  0  0
    6.9707  -18.9694   20.5251 C   0  0  2  0  0  0  0  0  0  0  0  0
    7.3295  -19.8829   19.4690 N   0  0  0  0  0  0  0  0  0  0  0  0
    7.9581  -17.8384   20.6406 C   0  0  0  0  0  0  0  0  0  0  0  0
    9.1091  -18.0780   20.2417 O   0  0  0  0  0  0  0  0  0  0  0  0
    6.5777  -12.7511   19.6025 C   0  0  0  0  0  0  0  0  0  0  0  0
    7.4267  -13.9545   19.8131 C   0  0  0  0  0  0  0  0  0  0  0  0
    7.8676  -14.1622   21.2542 C   0  0  2  0  0  0  0  0  0  0  0  0
    8.9498  -13.0886   21.4403 C   0  0  0  0  0  0  0  0  0  0  0  0
    8.5440  -15.4976   21.3052 C   0  0  2  0  0  0  0  0  0  0  0  0
    7.6316  -16.5976   21.1554 N   0  0  0  0  0  0  0  0  0  0  0  0
    9.3021  -15.7095   22.5250 C   0  0  0  0  0  0  0  0  0  0  0  0
   10.5047  -15.2157   22.5714 O   0  0  0  0  0  0  0  0  0  0  0  0
    8.9250  -16.3857   23.7097 N   0  0  0  0  0  0  0  0  0  0  0  0
    9.8726  -16.5307   24.8319 C   0  0  1  0  0  0  0  0  0  0  0  0
    9.7065  -15.2896   25.6899 C   0  0  0  0  0  0  0  0  0  0  0  0
    8.2817  -14.9136   25.8151 C   0  0  0  0  0  0  0  0  0  0  0  0
    7.2064  -15.7693   25.6967 C   0  0  0  0  0  0  0  0  0  0  0  0
    6.0796  -15.0457   25.8755 N   0  0  0  0  0  0  0  0  0  0  0  0
    6.3991  -13.7559   26.1042 C   0  0  0  0  0  0  0  0  0  0  0  0
    5.5828  -12.6668   26.3393 C   0  0  0  0  0  0  0  0  0  0  0  0
    6.1990  -11.4498   26.5429 C   0  0  0  0  0  0  0  0  0  0  0  0
    7.5892  -11.3427   26.5092 C   0  0  0  0  0  0  0  0  0  0  0  0
    8.3878  -12.4316   26.2749 C   0  0  0  0  0  0  0  0  0  0  0  0
    7.7853  -13.6530   26.0698 C   0  0  0  0  0  0  0  0  0  0  0  0
    9.5040  -17.7238   25.6224 C   0  0  0  0  0  0  0  0  0  0  0  0
   10.1073  -18.0551   26.6735 O   0  0  0  0  0  0  0  0  0  0  0  0
    8.4448  -18.5311   25.2030 O   0  0  0  0  0  0  0  0  0  0  0  0
  2  1  1  0
  2  3  1  0
  3  4  1  6
  5  6  2  0
  5  3  1  0
  8  7  1  0
  8  9  1  0
  9 11  1  0
  9 10  1  6
 11 12  1  1
 12  5  1  0
 13 11  1  0
 14 13  2  0
 15 13  1  0
 16 27  1  0
 16 15  1  0
 16 17  1  1
 18 17  1  0
 18 19  2  0
 20 19  1  0
 21 20  1  0
 22 21  2  0
 23 22  1  0
 24 23  2  0
 24 25  1  0
 25 26  2  0
 26 21  1  0
 26 18  1  0
 27 29  1  0
 28 27  2  0
M  END
$$$$
