SIW.pdb
     RDKit          3D

 29 30  0  0  1  0  0  0  0  0999 V2000
    9.4699  -19.4149   20.7650 O   0  0  0  0  0  0  0  0  0  0  0  0
    8.6759  -19.3053   19.6293 C   0  0  0  0  0  0  0  0  0  0  0  0
    9.2310  -18.1810   18.7959 C   0  0  2  0  0  0  0  0  0  0  0  0
   10.4029  -18.6630   18.1082 N   0  0  0  0  0  0  0  0  0  0  0  0
    9.5441  -16.9852   19.6559 C   0  0  0  0  0  0  0  0  0  0  0  0
   10.7236  -16.8761   20.0274 O   0  0  0  0  0  0  0  0  0  0  0  0
    6.8850  -12.3361   18.9538 C   0  0  0  0  0  0  0  0  0  0  0  0
    7.9309  -13.3246   19.3312 C   0  0  0  0  0  0  0  0  0  0  0  0
    7.8099  -13.8476   20.7546 C   0  0  2  0  0  0  0  0  0  0  0  0
    8.2800  -12.6546   21.5998 C   0  0  0  0  0  0  0  0  0  0  0  0
    8.8323  -14.9327   20.8988 C   0  0  2  0  0  0  0  0  0  0  0  0
    8.5963  -16.0491   20.0252 N   0  0  0  0  0  0  0  0  0  0  0  0
    8.9403  -15.4415   22.2541 C   0  0  0  0  0  0  0  0  0  0  0  0
    8.0757  -16.3409   22.6226 O   0  0  0  0  0  0  0  0  0  0  0  0
    9.8700  -15.1059   23.2670 N   0  0  0  0  0  0  0  0  0  0  0  0
    9.7133  -15.6254   24.6396 C   0  0  1  0  0  0  0  0  0  0  0  0
    8.3663  -16.3245   24.6769 C   0  0  0  0  0  0  0  0  0  0  0  0
    7.3758  -15.5350   25.4400 C   0  0  0  0  0  0  0  0  0  0  0  0
    6.0901  -15.9299   25.7462 C   0  0  0  0  0  0  0  0  0  0  0  0
    5.5080  -14.9350   26.4509 N   0  0  0  0  0  0  0  0  0  0  0  0
    6.3789  -13.9174   26.6052 C   0  0  0  0  0  0  0  0  0  0  0  0
    6.2240  -12.7055   27.2495 C   0  0  0  0  0  0  0  0  0  0  0  0
    7.3038  -11.8475   27.2461 C   0  0  0  0  0  0  0  0  0  0  0  0
    8.4941  -12.2057   26.6136 C   0  0  0  0  0  0  0  0  0  0  0  0
    8.6347  -13.4116   25.9777 C   0  0  0  0  0  0  0  0  0  0  0  0
    7.5640  -14.2779   25.9735 C   0  0  0  0  0  0  0  0  0  0  0  0
   10.7822  -16.6104   24.9068 C   0  0  0  0  0  0  0  0  0  0  0  0
   11.1147  -17.4936   24.0775 O   0  0  0  0  0  0  0  0  0  0  0  0
   11.4645  -16.5772   26.1246 O   0  0  0  0  0  0  0  0  0  0  0  0
  2  1  1  0
  2  3  1  0
  3  4  1  1
  5  6  2  0
  5  3  1  0
  8  7  1  0
  8  9  1  0
  9 11  1  0
  9 10  1  1
 11 12  1  6
 12  5  1  0
 13 11  1  0
 14 13  2  0
 15 13  1  0
 16 27  1  0
 16 15  1  0
 16 17  1  6
 18 17  1  0
 18 19  2  0
 20 19  1  0
 21 20  1  0
 22 21  2  0
 23 22  1  0
 24 23  2  0
 24 25  1  0
 25 26  2  0
 26 21  1  0
 26 18  1  0
 27 29  1  0
 28 27  2  0
M  END
$$$$
