SIW.pdb
     RDKit          3D

 29 30  0  0  1  0  0  0  0  0999 V2000
    9.5003  -12.7140   20.6139 O   0  0  0  0  0  0  0  0  0  0  0  0
    8.1991  -12.5620   20.1488 C   0  0  0  0  0  0  0  0  0  0  0  0
    7.7969  -13.8587   19.4981 C   0  0  2  0  0  0  0  0  0  0  0  0
    6.5046  -13.6761   18.8855 N   0  0  0  0  0  0  0  0  0  0  0  0
    7.7808  -14.9775   20.5057 C   0  0  0  0  0  0  0  0  0  0  0  0
    6.7272  -15.1168   21.1474 O   0  0  0  0  0  0  0  0  0  0  0  0
    9.3331  -19.7563   19.2006 C   0  0  0  0  0  0  0  0  0  0  0  0
    8.7550  -18.5869   19.9160 C   0  0  0  0  0  0  0  0  0  0  0  0
    9.5683  -18.1258   21.1161 C   0  0  2  0  0  0  0  0  0  0  0  0
    9.3604  -19.2616   22.1286 C   0  0  0  0  0  0  0  0  0  0  0  0
    8.8806  -16.9095   21.6557 C   0  0  2  0  0  0  0  0  0  0  0  0
    8.8588  -15.8148   20.7249 N   0  0  0  0  0  0  0  0  0  0  0  0
    9.4585  -16.4281   22.8973 C   0  0  0  0  0  0  0  0  0  0  0  0
   10.5653  -15.7496   22.8147 O   0  0  0  0  0  0  0  0  0  0  0  0
    8.9899  -16.5817   24.2239 N   0  0  0  0  0  0  0  0  0  0  0  0
    9.8048  -16.1341   25.3703 C   0  0  1  0  0  0  0  0  0  0  0  0
    8.8404  -15.9438   26.5270 C   0  0  0  0  0  0  0  0  0  0  0  0
    7.6940  -15.0968   26.1328 C   0  0  0  0  0  0  0  0  0  0  0  0
    6.4850  -15.5483   25.6461 C   0  0  0  0  0  0  0  0  0  0  0  0
    5.7069  -14.4704   25.4053 N   0  0  0  0  0  0  0  0  0  0  0  0
    6.3785  -13.3450   25.7219 C   0  0  0  0  0  0  0  0  0  0  0  0
    5.9853  -12.0234   25.6413 C   0  0  0  0  0  0  0  0  0  0  0  0
    6.8974  -11.0691   26.0409 C   0  0  0  0  0  0  0  0  0  0  0  0
    8.1590  -11.4419   26.5042 C   0  0  0  0  0  0  0  0  0  0  0  0
    8.5367  -12.7572   26.5792 C   0  0  0  0  0  0  0  0  0  0  0  0
    7.6354  -13.7204   26.1832 C   0  0  0  0  0  0  0  0  0  0  0  0
   10.7761  -17.1937   25.7137 C   0  0  0  0  0  0  0  0  0  0  0  0
   10.6924  -18.3637   25.2635 O   0  0  0  0  0  0  0  0  0  0  0  0
   11.8390  -16.9057   26.5721 O   0  0  0  0  0  0  0  0  0  0  0  0
  2  1  1  0
  2  3  1  0
  3  4  1  1
  5  6  2  0
  5  3  1  0
  8  7  1  0
  8  9  1  0
  9 11  1  0
  9 10  1  1
 11 12  1  6
 12  5  1  0
 13 11  1  0
 14 13  2  0
 15 13  1  0
 16 27  1  0
 16 15  1  0
 16 17  1  1
 18 17  1  0
 18 19  2  0
 20 19  1  0
 21 20  1  0
 22 21  2  0
 23 22  1  0
 24 23  2  0
 24 25  1  0
 25 26  2  0
 26 21  1  0
 26 18  1  0
 27 29  1  0
 28 27  2  0
M  END
$$$$
