SIW.pdb
     RDKit          3D

 29 30  0  0  1  0  0  0  0  0999 V2000
    9.9911  -19.6743   19.5451 O   0  0  0  0  0  0  0  0  0  0  0  0
    9.0607  -19.1273   18.6689 C   0  0  0  0  0  0  0  0  0  0  0  0
    9.6817  -17.8992   18.0583 C   0  0  2  0  0  0  0  0  0  0  0  0
   10.9327  -18.2788   17.4506 N   0  0  0  0  0  0  0  0  0  0  0  0
    9.8718  -16.8261   19.0975 C   0  0  0  0  0  0  0  0  0  0  0  0
   11.0099  -16.7368   19.5855 O   0  0  0  0  0  0  0  0  0  0  0  0
    6.7990  -12.3881   18.8192 C   0  0  0  0  0  0  0  0  0  0  0  0
    7.9822  -13.2256   19.1539 C   0  0  0  0  0  0  0  0  0  0  0  0
    7.8700  -13.9613   20.4808 C   0  0  2  0  0  0  0  0  0  0  0  0
    8.2001  -12.8686   21.5082 C   0  0  0  0  0  0  0  0  0  0  0  0
    8.9860  -14.9599   20.5106 C   0  0  2  0  0  0  0  0  0  0  0  0
    8.8592  -15.9770   19.5034 N   0  0  0  0  0  0  0  0  0  0  0  0
    9.1300  -15.6197   21.7956 C   0  0  0  0  0  0  0  0  0  0  0  0
    8.4455  -16.7096   21.9848 O   0  0  0  0  0  0  0  0  0  0  0  0
    9.9263  -15.2549   22.9073 N   0  0  0  0  0  0  0  0  0  0  0  0
    9.5237  -15.6222   24.2789 C   0  0  1  0  0  0  0  0  0  0  0  0
    8.0453  -15.9596   24.2106 C   0  0  0  0  0  0  0  0  0  0  0  0
    7.2735  -15.1820   25.2038 C   0  0  0  0  0  0  0  0  0  0  0  0
    6.2857  -15.6785   26.0287 C   0  0  0  0  0  0  0  0  0  0  0  0
    5.8271  -14.6581   26.7862 N   0  0  0  0  0  0  0  0  0  0  0  0
    6.4888  -13.5261   26.4728 C   0  0  0  0  0  0  0  0  0  0  0  0
    6.3575  -12.2498   26.9843 C   0  0  0  0  0  0  0  0  0  0  0  0
    7.1820  -11.2744   26.4638 C   0  0  0  0  0  0  0  0  0  0  0  0
    8.1036  -11.5825   25.4633 C   0  0  0  0  0  0  0  0  0  0  0  0
    8.2238  -12.8533   24.9643 C   0  0  0  0  0  0  0  0  0  0  0  0
    7.4064  -13.8370   25.4754 C   0  0  0  0  0  0  0  0  0  0  0  0
   10.2794  -16.8212   24.6979 C   0  0  0  0  0  0  0  0  0  0  0  0
   10.2048  -17.3004   25.8569 O   0  0  0  0  0  0  0  0  0  0  0  0
   11.1172  -17.4646   23.7849 O   0  0  0  0  0  0  0  0  0  0  0  0
  2  1  1  0
  2  3  1  0
  3  4  1  1
  5  6  2  0
  5  3  1  0
  8  7  1  0
  8  9  1  0
  9 11  1  0
  9 10  1  1
 11 12  1  6
 12  5  1  0
 13 11  1  0
 14 13  2  0
 15 13  1  0
 16 27  1  0
 16 15  1  0
 16 17  1  6
 18 17  1  0
 18 19  2  0
 20 19  1  0
 21 20  1  0
 22 21  2  0
 23 22  1  0
 24 23  2  0
 24 25  1  0
 25 26  2  0
 26 21  1  0
 26 18  1  0
 27 29  1  0
 28 27  2  0
M  END
$$$$
