SIW.pdb
     RDKit          3D

 29 30  0  0  1  0  0  0  0  0999 V2000
   11.8821  -18.9262   20.6800 O   0  0  0  0  0  0  0  0  0  0  0  0
   11.4112  -18.6714   19.3971 C   0  0  0  0  0  0  0  0  0  0  0  0
   11.6921  -17.2243   19.0911 C   0  0  2  0  0  0  0  0  0  0  0  0
   13.1156  -17.0638   18.9287 N   0  0  0  0  0  0  0  0  0  0  0  0
   11.1536  -16.3355   20.1808 C   0  0  0  0  0  0  0  0  0  0  0  0
   11.9958  -15.8509   20.9536 O   0  0  0  0  0  0  0  0  0  0  0  0
    6.8902  -13.0342   19.3818 C   0  0  0  0  0  0  0  0  0  0  0  0
    8.1364  -13.6337   19.9304 C   0  0  0  0  0  0  0  0  0  0  0  0
    7.9025  -14.6769   21.0127 C   0  0  2  0  0  0  0  0  0  0  0  0
    7.4198  -13.8346   22.2027 C   0  0  0  0  0  0  0  0  0  0  0  0
    9.2477  -15.2310   21.3691 C   0  0  2  0  0  0  0  0  0  0  0  0
    9.8083  -16.0578   20.3360 N   0  0  0  0  0  0  0  0  0  0  0  0
    9.2431  -15.9982   22.6014 C   0  0  0  0  0  0  0  0  0  0  0  0
    9.1400  -17.2907   22.4972 O   0  0  0  0  0  0  0  0  0  0  0  0
    9.3408  -15.5473   23.9394 N   0  0  0  0  0  0  0  0  0  0  0  0
    9.4401  -16.5077   25.0557 C   0  0  1  0  0  0  0  0  0  0  0  0
    9.3013  -15.6931   26.3291 C   0  0  0  0  0  0  0  0  0  0  0  0
    8.0169  -14.9607   26.3574 C   0  0  0  0  0  0  0  0  0  0  0  0
    6.7664  -15.5146   26.1783 C   0  0  0  0  0  0  0  0  0  0  0  0
    5.8557  -14.5214   26.2758 N   0  0  0  0  0  0  0  0  0  0  0  0
    6.4827  -13.3512   26.5112 C   0  0  0  0  0  0  0  0  0  0  0  0
    5.9623  -12.0831   26.6813 C   0  0  0  0  0  0  0  0  0  0  0  0
    6.8582  -11.0601   26.9118 C   0  0  0  0  0  0  0  0  0  0  0  0
    8.2284  -11.3145   26.9674 C   0  0  0  0  0  0  0  0  0  0  0  0
    8.7318  -12.5777   26.7970 C   0  0  0  0  0  0  0  0  0  0  0  0
    7.8481  -13.6086   26.5660 C   0  0  0  0  0  0  0  0  0  0  0  0
    8.3203  -17.4680   24.9659 C   0  0  0  0  0  0  0  0  0  0  0  0
    7.2682  -17.2264   24.3232 O   0  0  0  0  0  0  0  0  0  0  0  0
    8.4133  -18.7013   25.6141 O   0  0  0  0  0  0  0  0  0  0  0  0
  2  1  1  0
  2  3  1  0
  3  4  1  1
  5  6  2  0
  5  3  1  0
  8  7  1  0
  8  9  1  0
  9 11  1  0
  9 10  1  1
 11 12  1  6
 12  5  1  0
 13 11  1  0
 14 13  2  0
 15 13  1  0
 16 27  1  0
 16 15  1  0
 16 17  1  1
 18 17  1  0
 18 19  2  0
 20 19  1  0
 21 20  1  0
 22 21  2  0
 23 22  1  0
 24 23  2  0
 24 25  1  0
 25 26  2  0
 26 21  1  0
 26 18  1  0
 27 29  1  0
 28 27  2  0
M  END
$$$$
