SIW.pdb
     RDKit          3D

 29 30  0  0  1  0  0  0  0  0999 V2000
    8.3129  -11.9885   19.5206 O   0  0  0  0  0  0  0  0  0  0  0  0
    8.1903  -12.8840   20.5767 C   0  0  0  0  0  0  0  0  0  0  0  0
    7.8657  -14.2325   19.9912 C   0  0  2  0  0  0  0  0  0  0  0  0
    6.5066  -14.2024   19.5109 N   0  0  0  0  0  0  0  0  0  0  0  0
    8.0698  -15.3197   21.0129 C   0  0  0  0  0  0  0  0  0  0  0  0
    7.0591  -15.6721   21.6418 O   0  0  0  0  0  0  0  0  0  0  0  0
   11.0570  -19.1198   19.4826 C   0  0  0  0  0  0  0  0  0  0  0  0
   10.0164  -18.6067   20.4138 C   0  0  0  0  0  0  0  0  0  0  0  0
   10.5715  -17.9574   21.6727 C   0  0  2  0  0  0  0  0  0  0  0  0
   10.6287  -19.1274   22.6658 C   0  0  0  0  0  0  0  0  0  0  0  0
    9.5235  -17.0043   22.1589 C   0  0  2  0  0  0  0  0  0  0  0  0
    9.2965  -15.9083   21.2576 N   0  0  0  0  0  0  0  0  0  0  0  0
    9.8153  -16.4515   23.4691 C   0  0  0  0  0  0  0  0  0  0  0  0
   10.6822  -15.4833   23.5267 O   0  0  0  0  0  0  0  0  0  0  0  0
    9.2852  -16.8084   24.7319 N   0  0  0  0  0  0  0  0  0  0  0  0
    9.8766  -16.2805   25.9769 C   0  0  1  0  0  0  0  0  0  0  0  0
    8.7212  -16.0688   26.9384 C   0  0  0  0  0  0  0  0  0  0  0  0
    7.6641  -15.2342   26.3276 C   0  0  0  0  0  0  0  0  0  0  0  0
    6.5700  -15.6994   25.6283 C   0  0  0  0  0  0  0  0  0  0  0  0
    5.8447  -14.6297   25.2345 N   0  0  0  0  0  0  0  0  0  0  0  0
    6.4390  -13.4963   25.6589 C   0  0  0  0  0  0  0  0  0  0  0  0
    6.0606  -12.1785   25.4919 C   0  0  0  0  0  0  0  0  0  0  0  0
    6.8765  -11.2137   26.0446 C   0  0  0  0  0  0  0  0  0  0  0  0
    8.0313  -11.5726   26.7396 C   0  0  0  0  0  0  0  0  0  0  0  0
    8.3955  -12.8842   26.8982 C   0  0  0  0  0  0  0  0  0  0  0  0
    7.5895  -13.8579   26.3511 C   0  0  0  0  0  0  0  0  0  0  0  0
   10.7996  -17.2896   26.5373 C   0  0  0  0  0  0  0  0  0  0  0  0
   10.8714  -18.4637   26.0962 O   0  0  0  0  0  0  0  0  0  0  0  0
   11.6360  -16.9464   27.6015 O   0  0  0  0  0  0  0  0  0  0  0  0
  2  1  1  0
  2  3  1  0
  3  4  1  1
  5  6  2  0
  5  3  1  0
  8  7  1  0
  8  9  1  0
  9 11  1  0
  9 10  1  1
 11 12  1  6
 12  5  1  0
 13 11  1  0
 14 13  2  0
 15 13  1  0
 16 27  1  0
 16 15  1  0
 16 17  1  1
 18 17  1  0
 18 19  2  0
 20 19  1  0
 21 20  1  0
 22 21  2  0
 23 22  1  0
 24 23  2  0
 24 25  1  0
 25 26  2  0
 26 21  1  0
 26 18  1  0
 27 29  1  0
 28 27  2  0
M  END
$$$$
