SIW.pdb
     RDKit          3D

 29 30  0  0  1  0  0  0  0  0999 V2000
    8.9517  -19.6734   21.4733 O   0  0  0  0  0  0  0  0  0  0  0  0
    9.5780  -19.8211   20.2410 C   0  0  0  0  0  0  0  0  0  0  0  0
    9.2306  -18.6152   19.4094 C   0  0  2  0  0  0  0  0  0  0  0  0
    9.8643  -18.7551   18.1220 N   0  0  0  0  0  0  0  0  0  0  0  0
    9.6570  -17.3489   20.1038 C   0  0  0  0  0  0  0  0  0  0  0  0
   10.8781  -17.1263   20.1281 O   0  0  0  0  0  0  0  0  0  0  0  0
    6.6296  -12.8254   20.0472 C   0  0  0  0  0  0  0  0  0  0  0  0
    7.7767  -13.7671   20.1509 C   0  0  0  0  0  0  0  0  0  0  0  0
    8.0187  -14.3030   21.5540 C   0  0  2  0  0  0  0  0  0  0  0  0
    8.5704  -13.0785   22.2987 C   0  0  0  0  0  0  0  0  0  0  0  0
    9.1295  -15.3016   21.4436 C   0  0  2  0  0  0  0  0  0  0  0  0
    8.7654  -16.4684   20.6879 N   0  0  0  0  0  0  0  0  0  0  0  0
    9.6330  -15.7432   22.7316 C   0  0  0  0  0  0  0  0  0  0  0  0
   10.8077  -15.3144   23.0900 O   0  0  0  0  0  0  0  0  0  0  0  0
    9.0259  -16.5892   23.6900 N   0  0  0  0  0  0  0  0  0  0  0  0
    9.6639  -16.8288   24.9992 C   0  0  1  0  0  0  0  0  0  0  0  0
    9.5227  -15.5362   25.7824 C   0  0  0  0  0  0  0  0  0  0  0  0
    8.1019  -15.1529   25.9288 C   0  0  0  0  0  0  0  0  0  0  0  0
    7.0177  -15.9889   25.7613 C   0  0  0  0  0  0  0  0  0  0  0  0
    5.8985  -15.2648   25.9812 N   0  0  0  0  0  0  0  0  0  0  0  0
    6.2314  -13.9938   26.2837 C   0  0  0  0  0  0  0  0  0  0  0  0
    5.4266  -12.9113   26.5809 C   0  0  0  0  0  0  0  0  0  0  0  0
    6.0556  -11.7147   26.8543 C   0  0  0  0  0  0  0  0  0  0  0  0
    7.4469  -11.6207   26.8270 C   0  0  0  0  0  0  0  0  0  0  0  0
    8.2340  -12.7027   26.5305 C   0  0  0  0  0  0  0  0  0  0  0  0
    7.6187  -13.9038   26.2555 C   0  0  0  0  0  0  0  0  0  0  0  0
    8.9350  -17.9066   25.7001 C   0  0  0  0  0  0  0  0  0  0  0  0
    7.9189  -18.4653   25.2165 O   0  0  0  0  0  0  0  0  0  0  0  0
    9.3756  -18.3383   26.9528 O   0  0  0  0  0  0  0  0  0  0  0  0
  2  1  1  0
  2  3  1  0
  3  4  1  6
  5  6  2  0
  5  3  1  0
  8  7  1  0
  8  9  1  0
  9 11  1  0
  9 10  1  1
 11 12  1  1
 12  5  1  0
 13 11  1  0
 14 13  2  0
 15 13  1  0
 16 27  1  0
 16 15  1  0
 16 17  1  1
 18 17  1  0
 18 19  2  0
 20 19  1  0
 21 20  1  0
 22 21  2  0
 23 22  1  0
 24 23  2  0
 24 25  1  0
 25 26  2  0
 26 21  1  0
 26 18  1  0
 27 29  1  0
 28 27  2  0
M  END
$$$$
