SIW.pdb
     RDKit          3D

 29 30  0  0  1  0  0  0  0  0999 V2000
   12.7355  -18.5437   20.8799 O   0  0  0  0  0  0  0  0  0  0  0  0
   12.0149  -18.3967   19.7002 C   0  0  0  0  0  0  0  0  0  0  0  0
   12.1672  -16.9675   19.2521 C   0  0  2  0  0  0  0  0  0  0  0  0
   13.5741  -16.6830   19.1164 N   0  0  0  0  0  0  0  0  0  0  0  0
   11.5024  -16.0306   20.2256 C   0  0  0  0  0  0  0  0  0  0  0  0
   12.2627  -15.3211   20.9037 O   0  0  0  0  0  0  0  0  0  0  0  0
    6.9905  -13.1529   19.3025 C   0  0  0  0  0  0  0  0  0  0  0  0
    8.2637  -13.6575   19.8838 C   0  0  0  0  0  0  0  0  0  0  0  0
    8.0818  -14.7303   20.9469 C   0  0  2  0  0  0  0  0  0  0  0  0
    7.4584  -13.9532   22.1157 C   0  0  0  0  0  0  0  0  0  0  0  0
    9.4562  -15.1514   21.3677 C   0  0  2  0  0  0  0  0  0  0  0  0
   10.1310  -15.9438   20.3769 N   0  0  0  0  0  0  0  0  0  0  0  0
    9.4714  -15.8909   22.6168 C   0  0  0  0  0  0  0  0  0  0  0  0
    9.5288  -17.1882   22.5396 O   0  0  0  0  0  0  0  0  0  0  0  0
    9.4374  -15.4071   23.9464 N   0  0  0  0  0  0  0  0  0  0  0  0
    9.6316  -16.3211   25.0889 C   0  0  1  0  0  0  0  0  0  0  0  0
    9.4037  -15.4909   26.3392 C   0  0  0  0  0  0  0  0  0  0  0  0
    8.0600  -14.8734   26.3327 C   0  0  0  0  0  0  0  0  0  0  0  0
    6.8750  -15.5190   26.0473 C   0  0  0  0  0  0  0  0  0  0  0  0
    5.8762  -14.6147   26.1473 N   0  0  0  0  0  0  0  0  0  0  0  0
    6.3835  -13.4127   26.4872 C   0  0  0  0  0  0  0  0  0  0  0  0
    5.7446  -12.2065   26.6988 C   0  0  0  0  0  0  0  0  0  0  0  0
    6.5327  -11.1277   27.0414 C   0  0  0  0  0  0  0  0  0  0  0  0
    7.9149  -11.2679   27.1643 C   0  0  0  0  0  0  0  0  0  0  0  0
    8.5364  -12.4707   26.9515 C   0  0  0  0  0  0  0  0  0  0  0  0
    7.7612  -13.5562   26.6088 C   0  0  0  0  0  0  0  0  0  0  0  0
    8.6181  -17.3949   25.0243 C   0  0  0  0  0  0  0  0  0  0  0  0
    7.5310  -17.2666   24.4078 O   0  0  0  0  0  0  0  0  0  0  0  0
    8.8571  -18.6109   25.6676 O   0  0  0  0  0  0  0  0  0  0  0  0
  2  1  1  0
  2  3  1  0
  3  4  1  1
  5  6  2  0
  5  3  1  0
  8  7  1  0
  8  9  1  0
  9 11  1  0
  9 10  1  1
 11 12  1  6
 12  5  1  0
 13 11  1  0
 14 13  2  0
 15 13  1  0
 16 27  1  0
 16 15  1  0
 16 17  1  1
 18 17  1  0
 18 19  2  0
 20 19  1  0
 21 20  1  0
 22 21  2  0
 23 22  1  0
 24 23  2  0
 24 25  1  0
 25 26  2  0
 26 21  1  0
 26 18  1  0
 27 29  1  0
 28 27  2  0
M  END
$$$$
