SIW.pdb
     RDKit          3D

 29 30  0  0  1  0  0  0  0  0999 V2000
   11.2242  -19.2020   20.3444 O   0  0  0  0  0  0  0  0  0  0  0  0
   10.7431  -18.7450   19.1229 C   0  0  0  0  0  0  0  0  0  0  0  0
   11.2150  -17.3254   18.9531 C   0  0  2  0  0  0  0  0  0  0  0  0
   12.6452  -17.3423   18.7725 N   0  0  0  0  0  0  0  0  0  0  0  0
   10.8145  -16.4861   20.1374 C   0  0  0  0  0  0  0  0  0  0  0  0
   11.7379  -16.1202   20.8823 O   0  0  0  0  0  0  0  0  0  0  0  0
    6.6780  -13.0306   19.6287 C   0  0  0  0  0  0  0  0  0  0  0  0
    7.9335  -13.6891   20.0800 C   0  0  0  0  0  0  0  0  0  0  0  0
    7.7508  -14.6447   21.2495 C   0  0  2  0  0  0  0  0  0  0  0  0
    7.4754  -13.6978   22.4268 C   0  0  0  0  0  0  0  0  0  0  0  0
    9.0832  -15.2857   21.4889 C   0  0  2  0  0  0  0  0  0  0  0  0
    9.5060  -16.1288   20.4046 N   0  0  0  0  0  0  0  0  0  0  0  0
    9.1304  -16.0707   22.7091 C   0  0  0  0  0  0  0  0  0  0  0  0
    8.9254  -17.3507   22.6014 O   0  0  0  0  0  0  0  0  0  0  0  0
    9.3765  -15.6498   24.0377 N   0  0  0  0  0  0  0  0  0  0  0  0
    9.4651  -16.6302   25.1374 C   0  0  1  0  0  0  0  0  0  0  0  0
    9.2502  -15.8482   26.4207 C   0  0  0  0  0  0  0  0  0  0  0  0
    7.9884  -15.0785   26.3722 C   0  0  0  0  0  0  0  0  0  0  0  0
    6.7293  -15.6025   26.1654 C   0  0  0  0  0  0  0  0  0  0  0  0
    5.8461  -14.5804   26.1909 N   0  0  0  0  0  0  0  0  0  0  0  0
    6.4989  -13.4207   26.4071 C   0  0  0  0  0  0  0  0  0  0  0  0
    6.0112  -12.1326   26.5100 C   0  0  0  0  0  0  0  0  0  0  0  0
    6.9283  -11.1278   26.7372 C   0  0  0  0  0  0  0  0  0  0  0  0
    8.2872  -11.4193   26.8551 C   0  0  0  0  0  0  0  0  0  0  0  0
    8.7581  -12.7022   26.7509 C   0  0  0  0  0  0  0  0  0  0  0  0
    7.8529  -13.7151   26.5242 C   0  0  0  0  0  0  0  0  0  0  0  0
    8.3825  -17.6246   24.9845 C   0  0  0  0  0  0  0  0  0  0  0  0
    7.3435  -17.4000   24.3148 O   0  0  0  0  0  0  0  0  0  0  0  0
    8.4973  -18.8722   25.6009 O   0  0  0  0  0  0  0  0  0  0  0  0
  2  1  1  0
  2  3  1  0
  3  4  1  1
  5  6  2  0
  5  3  1  0
  8  7  1  0
  8  9  1  0
  9 11  1  0
  9 10  1  1
 11 12  1  6
 12  5  1  0
 13 11  1  0
 14 13  2  0
 15 13  1  0
 16 27  1  0
 16 15  1  0
 16 17  1  1
 18 17  1  0
 18 19  2  0
 20 19  1  0
 21 20  1  0
 22 21  2  0
 23 22  1  0
 24 23  2  0
 24 25  1  0
 25 26  2  0
 26 21  1  0
 26 18  1  0
 27 29  1  0
 28 27  2  0
M  END
$$$$
