RTN.pdb
     RDKit          3D

 27 26  0  0  1  0  0  0  0  0999 V2000
   13.9755  -13.8302   19.3544 N   0  0  0  0  0  0  0  0  0  0  0  0
   14.3048  -14.2481   18.0157 C   0  0  0  0  0  0  0  0  0  0  0  0
   14.7143  -13.3495   17.1922 N   0  0  0  0  0  0  0  0  0  0  0  0
   14.1770  -15.5956   17.6440 N   0  0  0  0  0  0  0  0  0  0  0  0
   12.8683  -16.1496   17.2963 C   0  0  0  0  0  0  0  0  0  0  0  0
   11.7645  -15.2478   17.7717 C   0  0  0  0  0  0  0  0  0  0  0  0
   10.3974  -15.7460   17.4706 C   0  0  0  0  0  0  0  0  0  0  0  0
    9.2702  -14.8296   17.8162 C   0  0  2  0  0  0  0  0  0  0  0  0
    9.1113  -13.6921   16.9638 N   0  0  0  0  0  0  0  0  0  0  0  0
    9.3889  -14.4492   19.2527 C   0  0  0  0  0  0  0  0  0  0  0  0
   10.0388  -13.4542   19.6372 O   0  0  0  0  0  0  0  0  0  0  0  0
   15.0173  -13.5754   16.2270 C   0  0  0  0  0  0  0  0  0  0  0  0
    7.4120  -14.4073   23.6340 C   0  0  2  0  0  0  0  0  0  0  0  0
    7.4570  -14.6509   22.1408 O   0  0  0  0  0  0  0  0  0  0  0  0
    6.8974  -13.5761   21.4357 C   0  0  1  0  0  0  0  0  0  0  0  0
    8.8070  -15.0180   21.6390 N   0  0  0  0  0  0  0  0  0  0  0  0
    8.7407  -15.2475   20.2125 C   0  0  0  0  0  0  0  0  0  0  0  0
    9.4627  -16.1367   22.3537 O   0  0  0  0  0  0  0  0  0  0  0  0
    9.0797  -17.3216   22.1773 N   0  0  0  0  0  0  0  0  0  0  0  0
   14.1055  -15.3033   22.6404 C   0  0  0  0  0  0  0  0  0  0  0  0
   13.3632  -16.4956   22.9158 O   0  0  0  0  0  0  0  0  0  0  0  0
   13.4171  -17.3947   22.0584 C   0  0  0  0  0  0  0  0  0  0  0  0
   12.6091  -16.5877   24.1466 C   0  0  2  0  0  0  0  0  0  0  0  0
   11.1646  -16.9515   24.0539 N   0  0  0  0  0  0  0  0  0  0  0  0
   10.5368  -15.8851   23.2515 C   0  0  0  0  0  0  0  0  0  0  0  0
   10.5292  -16.9711   25.3672 O   0  0  0  0  0  0  0  0  0  0  0  0
   10.9015  -17.8448   26.2317 O   0  0  0  0  0  0  0  0  0  0  0  0
  2  1  1  0
  3  2  2  0
  4  2  1  0
  5  4  1  0
  6  5  1  0
  7  6  1  0
  8  9  1  6
  8 10  1  0
  8  7  1  0
 10 16  1  0
 10 11  2  0
 13 12  1  1
 14 13  1  0
 15 13  1  0
 15 16  1  6
 17 24  1  0
 17 15  1  0
 18 17  2  0
 19 20  1  0
 20 21  2  0
 20 22  1  0
 23 22  1  6
 23 25  1  0
 23 24  1  0
 25 27  1  0
 26 25  2  0
M  END
$$$$
