RTN.pdb
     RDKit          3D

 27 26  0  0  1  0  0  0  0  0999 V2000
    6.5245  -12.8213   18.2851 N   0  0  0  0  0  0  0  0  0  0  0  0
    7.8226  -12.6124   18.8736 C   0  0  0  0  0  0  0  0  0  0  0  0
    8.5276  -11.6308   18.4345 N   0  0  0  0  0  0  0  0  0  0  0  0
    8.2827  -13.4625   19.8914 N   0  0  0  0  0  0  0  0  0  0  0  0
    7.5586  -14.6913   20.2172 C   0  0  0  0  0  0  0  0  0  0  0  0
    8.2972  -15.8963   19.7073 C   0  0  0  0  0  0  0  0  0  0  0  0
    7.4382  -17.0872   19.4799 C   0  0  0  0  0  0  0  0  0  0  0  0
    8.1284  -18.3121   18.9770 C   0  0  2  0  0  0  0  0  0  0  0  0
    7.2802  -19.4249   18.6798 N   0  0  0  0  0  0  0  0  0  0  0  0
    9.2191  -18.6691   19.9284 C   0  0  0  0  0  0  0  0  0  0  0  0
    8.9997  -19.1716   21.0507 O   0  0  0  0  0  0  0  0  0  0  0  0
    9.4592  -11.3963   18.8237 C   0  0  0  0  0  0  0  0  0  0  0  0
   12.1552  -20.7722   18.8700 C   0  0  2  0  0  0  0  0  0  0  0  0
   12.6902  -19.4940   19.4789 O   0  0  0  0  0  0  0  0  0  0  0  0
   13.2435  -18.6591   18.4979 C   0  0  2  0  0  0  0  0  0  0  0  0
   11.7043  -18.7863   20.3368 N   0  0  0  0  0  0  0  0  0  0  0  0
   10.5500  -18.4275   19.5425 C   0  0  0  0  0  0  0  0  0  0  0  0
   12.2405  -17.6322   21.0937 O   0  0  0  0  0  0  0  0  0  0  0  0
   12.1083  -16.4611   20.6548 N   0  0  0  0  0  0  0  0  0  0  0  0
   11.2671  -18.1689   25.7273 C   0  0  0  0  0  0  0  0  0  0  0  0
   11.7973  -17.0453   25.0167 O   0  0  0  0  0  0  0  0  0  0  0  0
   11.0256  -16.0868   24.8365 C   0  0  0  0  0  0  0  0  0  0  0  0
   13.1684  -17.0847   24.5580 C   0  0  2  0  0  0  0  0  0  0  0  0
   13.4393  -16.7167   23.1372 N   0  0  0  0  0  0  0  0  0  0  0  0
   12.9142  -17.8338   22.3301 C   0  0  0  0  0  0  0  0  0  0  0  0
   14.8697  -16.5954   22.8760 O   0  0  0  0  0  0  0  0  0  0  0  0
   15.4579  -17.4948   22.1729 O   0  0  0  0  0  0  0  0  0  0  0  0
  2  1  1  0
  3  2  2  0
  4  2  1  0
  5  4  1  0
  6  5  1  0
  7  6  1  0
  8  9  1  1
  8 10  1  0
  8  7  1  0
 10 16  1  0
 10 11  2  0
 13 12  1  1
 14 13  1  0
 15 13  1  0
 15 16  1  1
 17 24  1  0
 17 15  1  0
 18 17  2  0
 19 20  1  0
 20 21  2  0
 20 22  1  0
 23 22  1  6
 23 25  1  0
 23 24  1  0
 25 27  1  0
 26 25  2  0
M  END
$$$$
