RTN.pdb
     RDKit          3D

 27 26  0  0  1  0  0  0  0  0999 V2000
    7.3537  -12.8917   16.9499 N   0  0  0  0  0  0  0  0  0  0  0  0
    8.4033  -13.8562   17.1580 C   0  0  0  0  0  0  0  0  0  0  0  0
    8.4489  -14.8703   16.3688 N   0  0  0  0  0  0  0  0  0  0  0  0
    9.3347  -13.6754   18.1924 N   0  0  0  0  0  0  0  0  0  0  0  0
    8.9130  -13.1401   19.4871 C   0  0  0  0  0  0  0  0  0  0  0  0
    7.4843  -13.5056   19.7749 C   0  0  0  0  0  0  0  0  0  0  0  0
    7.2964  -14.3024   21.0150 C   0  0  0  0  0  0  0  0  0  0  0  0
    8.0398  -15.5954   21.0873 C   0  0  2  0  0  0  0  0  0  0  0  0
    7.6352  -16.5974   20.1502 N   0  0  0  0  0  0  0  0  0  0  0  0
    8.0040  -16.0876   22.4940 C   0  0  0  0  0  0  0  0  0  0  0  0
    6.9379  -16.2848   23.1143 O   0  0  0  0  0  0  0  0  0  0  0  0
    9.2031  -15.5798   16.4171 C   0  0  0  0  0  0  0  0  0  0  0  0
   11.1006  -18.4990   23.4202 C   0  0  1  0  0  0  0  0  0  0  0  0
    9.8034  -18.4093   24.1949 O   0  0  0  0  0  0  0  0  0  0  0  0
    9.8716  -19.1496   25.3835 C   0  0  1  0  0  0  0  0  0  0  0  0
    9.3408  -17.0149   24.4200 N   0  0  0  0  0  0  0  0  0  0  0  0
    9.2244  -16.3384   23.1469 C   0  0  0  0  0  0  0  0  0  0  0  0
   10.1380  -16.2356   25.3945 O   0  0  0  0  0  0  0  0  0  0  0  0
   11.1655  -15.6102   25.0271 N   0  0  0  0  0  0  0  0  0  0  0  0
    7.7339  -13.3943   27.1604 C   0  0  0  0  0  0  0  0  0  0  0  0
    9.0941  -13.3934   27.6055 O   0  0  0  0  0  0  0  0  0  0  0  0
    9.7902  -12.4210   27.2643 C   0  0  0  0  0  0  0  0  0  0  0  0
    9.5735  -14.4968   28.4084 C   0  0  2  0  0  0  0  0  0  0  0  0
   10.5306  -15.4533   27.7788 N   0  0  0  0  0  0  0  0  0  0  0  0
    9.7512  -16.1843   26.7622 C   0  0  0  0  0  0  0  0  0  0  0  0
   11.0414  -16.4188   28.7462 O   0  0  0  0  0  0  0  0  0  0  0  0
   10.6312  -17.6347   28.6960 O   0  0  0  0  0  0  0  0  0  0  0  0
  2  1  1  0
  3  2  2  0
  4  2  1  0
  5  4  1  0
  6  5  1  0
  7  6  1  0
  8  9  1  6
  8 10  1  0
  8  7  1  0
 10 16  1  0
 10 11  2  0
 13 12  1  6
 14 13  1  0
 15 13  1  0
 15 16  1  6
 17 24  1  0
 17 15  1  0
 18 17  2  0
 19 20  1  0
 20 21  2  0
 20 22  1  0
 23 22  1  6
 23 25  1  0
 23 24  1  0
 25 27  1  0
 26 25  2  0
M  END
$$$$
