RTN.pdb
     RDKit          3D

 27 26  0  0  1  0  0  0  0  0999 V2000
    7.2798  -13.8774   14.5277 N   0  0  0  0  0  0  0  0  0  0  0  0
    8.5302  -14.2172   15.1569 C   0  0  0  0  0  0  0  0  0  0  0  0
    9.1011  -15.3128   14.8004 N   0  0  0  0  0  0  0  0  0  0  0  0
    9.0896  -13.3665   16.1233 N   0  0  0  0  0  0  0  0  0  0  0  0
    8.3188  -12.9740   17.3033 C   0  0  0  0  0  0  0  0  0  0  0  0
    7.4527  -14.1073   17.7753 C   0  0  0  0  0  0  0  0  0  0  0  0
    7.4458  -14.2970   19.2490 C   0  0  0  0  0  0  0  0  0  0  0  0
    8.7592  -14.6276   19.8777 C   0  0  2  0  0  0  0  0  0  0  0  0
    9.5978  -15.5157   19.1335 N   0  0  0  0  0  0  0  0  0  0  0  0
    8.5145  -15.1100   21.2669 C   0  0  0  0  0  0  0  0  0  0  0  0
    7.6745  -14.5841   22.0271 O   0  0  0  0  0  0  0  0  0  0  0  0
   10.0415  -15.5867   15.1397 C   0  0  0  0  0  0  0  0  0  0  0  0
    8.1366  -18.8812   21.8416 C   0  0  2  0  0  0  0  0  0  0  0  0
    9.1357  -18.3257   22.8336 O   0  0  0  0  0  0  0  0  0  0  0  0
   10.4380  -18.7465   22.5295 C   0  0  2  0  0  0  0  0  0  0  0  0
    9.0414  -16.8531   23.0106 N   0  0  0  0  0  0  0  0  0  0  0  0
    9.2640  -16.2033   21.7378 C   0  0  0  0  0  0  0  0  0  0  0  0
    9.8963  -16.2905   24.0807 O   0  0  0  0  0  0  0  0  0  0  0  0
   11.0308  -15.8184   23.8125 N   0  0  0  0  0  0  0  0  0  0  0  0
   11.2138  -14.5375   28.9273 C   0  0  0  0  0  0  0  0  0  0  0  0
    9.8954  -14.1982   28.4857 O   0  0  0  0  0  0  0  0  0  0  0  0
    9.2805  -13.3576   29.1652 C   0  0  0  0  0  0  0  0  0  0  0  0
    9.3628  -14.8362   27.3019 C   0  0  2  0  0  0  0  0  0  0  0  0
   10.2642  -15.7445   26.5338 N   0  0  0  0  0  0  0  0  0  0  0  0
    9.4446  -16.2770   25.4293 C   0  0  0  0  0  0  0  0  0  0  0  0
   10.7195  -16.8660   27.3485 O   0  0  0  0  0  0  0  0  0  0  0  0
   10.0646  -17.9703   27.3186 O   0  0  0  0  0  0  0  0  0  0  0  0
  2  1  1  0
  3  2  2  0
  4  2  1  0
  5  4  1  0
  6  5  1  0
  7  6  1  0
  8  9  1  6
  8 10  1  0
  8  7  1  0
 10 16  1  0
 10 11  2  0
 13 12  1  1
 14 13  1  0
 15 13  1  0
 15 16  1  1
 17 24  1  0
 17 15  1  0
 18 17  2  0
 19 20  1  0
 20 21  2  0
 20 22  1  0
 23 22  1  6
 23 25  1  0
 23 24  1  0
 25 27  1  0
 26 25  2  0
M  END
$$$$
