RTN.pdb
     RDKit          3D

 27 26  0  0  1  0  0  0  0  0999 V2000
    9.8311  -14.1684   16.4044 N   0  0  0  0  0  0  0  0  0  0  0  0
    8.4975  -13.7571   16.0472 C   0  0  0  0  0  0  0  0  0  0  0  0
    8.3662  -12.6630   15.3846 N   0  0  0  0  0  0  0  0  0  0  0  0
    7.3929  -14.5394   16.4189 N   0  0  0  0  0  0  0  0  0  0  0  0
    7.5029  -15.5110   17.5072 C   0  0  0  0  0  0  0  0  0  0  0  0
    8.8135  -16.2425   17.4380 C   0  0  0  0  0  0  0  0  0  0  0  0
    9.7553  -15.9122   18.5389 C   0  0  0  0  0  0  0  0  0  0  0  0
    9.8211  -16.8893   19.6661 C   0  0  2  0  0  0  0  0  0  0  0  0
    8.7381  -17.8203   19.7448 N   0  0  0  0  0  0  0  0  0  0  0  0
   10.0149  -16.1367   20.9383 C   0  0  0  0  0  0  0  0  0  0  0  0
   10.9241  -15.2943   21.0937 O   0  0  0  0  0  0  0  0  0  0  0  0
    7.4399  -12.2764   15.1260 C   0  0  0  0  0  0  0  0  0  0  0  0
    7.7775  -14.0240   23.0212 C   0  0  2  0  0  0  0  0  0  0  0  0
    8.1460  -15.2338   23.8526 O   0  0  0  0  0  0  0  0  0  0  0  0
    7.0489  -16.0923   24.0107 C   0  0  2  0  0  0  0  0  0  0  0  0
    9.3571  -15.9438   23.3645 N   0  0  0  0  0  0  0  0  0  0  0  0
    9.1352  -16.3893   22.0064 C   0  0  0  0  0  0  0  0  0  0  0  0
    9.8420  -17.0370   24.2375 O   0  0  0  0  0  0  0  0  0  0  0  0
   10.0650  -18.1817   23.7667 N   0  0  0  0  0  0  0  0  0  0  0  0
   12.2813  -20.5493   26.8181 C   0  0  0  0  0  0  0  0  0  0  0  0
   12.6809  -19.1751   26.8010 O   0  0  0  0  0  0  0  0  0  0  0  0
   13.6899  -18.8811   27.4659 C   0  0  0  0  0  0  0  0  0  0  0  0
   11.9082  -18.2261   26.0301 C   0  0  1  0  0  0  0  0  0  0  0  0
   10.5523  -17.8581   26.5337 N   0  0  0  0  0  0  0  0  0  0  0  0
   10.0622  -16.8060   25.6236 C   0  0  0  0  0  0  0  0  0  0  0  0
   10.6109  -17.3059   27.8830 O   0  0  0  0  0  0  0  0  0  0  0  0
   10.8288  -16.0499   28.0383 O   0  0  0  0  0  0  0  0  0  0  0  0
  2  1  1  0
  3  2  2  0
  4  2  1  0
  5  4  1  0
  6  5  1  0
  7  6  1  0
  8  9  1  1
  8 10  1  0
  8  7  1  0
 10 16  1  0
 10 11  2  0
 13 12  1  1
 14 13  1  0
 15 13  1  0
 15 16  1  1
 17 24  1  0
 17 15  1  0
 18 17  2  0
 19 20  1  0
 20 21  2  0
 20 22  1  0
 23 22  1  6
 23 25  1  0
 23 24  1  0
 25 27  1  0
 26 25  2  0
M  END
$$$$
