RTN.pdb
     RDKit          3D

 27 26  0  0  1  0  0  0  0  0999 V2000
   12.4515  -15.4114   20.2957 N   0  0  0  0  0  0  0  0  0  0  0  0
   13.0380  -14.2379   19.7009 C   0  0  0  0  0  0  0  0  0  0  0  0
   14.2951  -14.0391   19.8839 N   0  0  0  0  0  0  0  0  0  0  0  0
   12.2464  -13.3548   18.9499 N   0  0  0  0  0  0  0  0  0  0  0  0
   10.8337  -13.6472   18.7064 C   0  0  0  0  0  0  0  0  0  0  0  0
    9.9674  -12.9933   19.7454 C   0  0  0  0  0  0  0  0  0  0  0  0
    8.5303  -13.3616   19.6611 C   0  0  0  0  0  0  0  0  0  0  0  0
    8.2318  -14.8083   19.4430 C   0  0  2  0  0  0  0  0  0  0  0  0
    7.2777  -15.0976   18.4173 N   0  0  0  0  0  0  0  0  0  0  0  0
    7.8613  -15.4208   20.7506 C   0  0  0  0  0  0  0  0  0  0  0  0
    6.7005  -15.3828   21.2103 O   0  0  0  0  0  0  0  0  0  0  0  0
   14.7975  -13.2326   19.4696 C   0  0  0  0  0  0  0  0  0  0  0  0
    7.5142  -18.6085   21.7148 C   0  0  2  0  0  0  0  0  0  0  0  0
    8.5897  -18.1338   22.6681 O   0  0  0  0  0  0  0  0  0  0  0  0
    9.8326  -18.6997   22.3509 C   0  0  2  0  0  0  0  0  0  0  0  0
    8.6561  -16.6550   22.8005 N   0  0  0  0  0  0  0  0  0  0  0  0
    8.8644  -16.0671   21.4955 C   0  0  0  0  0  0  0  0  0  0  0  0
    9.6279  -16.1541   23.7990 O   0  0  0  0  0  0  0  0  0  0  0  0
   10.8232  -15.9346   23.4753 N   0  0  0  0  0  0  0  0  0  0  0  0
   11.3579  -14.4230   28.5489 C   0  0  0  0  0  0  0  0  0  0  0  0
    9.9708  -14.1457   28.3309 O   0  0  0  0  0  0  0  0  0  0  0  0
    9.4098  -13.4210   29.1714 C   0  0  0  0  0  0  0  0  0  0  0  0
    9.3129  -14.7098   27.1729 C   0  0  2  0  0  0  0  0  0  0  0  0
   10.1547  -15.4374   26.1781 N   0  0  0  0  0  0  0  0  0  0  0  0
    9.2211  -15.9145   25.1407 C   0  0  0  0  0  0  0  0  0  0  0  0
   10.8099  -16.5973   26.7732 O   0  0  0  0  0  0  0  0  0  0  0  0
   11.8500  -16.4233   27.5061 O   0  0  0  0  0  0  0  0  0  0  0  0
  2  1  1  0
  3  2  2  0
  4  2  1  0
  5  4  1  0
  6  5  1  0
  7  6  1  0
  8  9  1  6
  8 10  1  0
  8  7  1  0
 10 16  1  0
 10 11  2  0
 13 12  1  1
 14 13  1  0
 15 13  1  0
 15 16  1  1
 17 24  1  0
 17 15  1  0
 18 17  2  0
 19 20  1  0
 20 21  2  0
 20 22  1  0
 23 22  1  6
 23 25  1  0
 23 24  1  0
 25 27  1  0
 26 25  2  0
M  END
$$$$
