RTN.pdb
     RDKit          3D

 27 26  0  0  1  0  0  0  0  0999 V2000
   10.0349  -13.4434   18.4105 N   0  0  0  0  0  0  0  0  0  0  0  0
    9.2264  -13.9253   17.3200 C   0  0  0  0  0  0  0  0  0  0  0  0
    8.2409  -13.1936   16.9371 N   0  0  0  0  0  0  0  0  0  0  0  0
    9.5225  -15.1541   16.7095 N   0  0  0  0  0  0  0  0  0  0  0  0
    9.5577  -16.3861   17.4977 C   0  0  0  0  0  0  0  0  0  0  0  0
   10.8800  -16.5347   18.1955 C   0  0  0  0  0  0  0  0  0  0  0  0
   10.7746  -16.7685   19.6591 C   0  0  0  0  0  0  0  0  0  0  0  0
    9.9395  -15.7954   20.4241 C   0  0  2  0  0  0  0  0  0  0  0  0
    9.9656  -14.4466   19.9486 N   0  0  0  0  0  0  0  0  0  0  0  0
   10.2956  -15.8941   21.8683 C   0  0  0  0  0  0  0  0  0  0  0  0
   11.4615  -15.7403   22.2893 O   0  0  0  0  0  0  0  0  0  0  0  0
    7.6564  -13.4324   16.1150 C   0  0  0  0  0  0  0  0  0  0  0  0
    7.6546  -14.4634   25.7274 C   0  0  1  0  0  0  0  0  0  0  0  0
    7.8898  -14.9498   24.3135 O   0  0  0  0  0  0  0  0  0  0  0  0
    7.6678  -13.9254   23.3825 C   0  0  1  0  0  0  0  0  0  0  0  0
    9.2062  -15.6135   24.1247 N   0  0  0  0  0  0  0  0  0  0  0  0
    9.2726  -16.1732   22.7926 C   0  0  0  0  0  0  0  0  0  0  0  0
    9.5680  -16.6039   25.1641 O   0  0  0  0  0  0  0  0  0  0  0  0
    9.5466  -16.2910   26.3821 N   0  0  0  0  0  0  0  0  0  0  0  0
   10.5112  -20.5041   22.5560 C   0  0  0  0  0  0  0  0  0  0  0  0
    9.9789  -20.5033   23.8846 O   0  0  0  0  0  0  0  0  0  0  0  0
    8.7909  -20.8495   24.0078 C   0  0  0  0  0  0  0  0  0  0  0  0
   10.8311  -20.1094   24.9849 C   0  0  2  0  0  0  0  0  0  0  0  0
   10.4336  -18.9108   25.7804 N   0  0  0  0  0  0  0  0  0  0  0  0
    9.9456  -17.9253   24.7977 C   0  0  0  0  0  0  0  0  0  0  0  0
   11.5722  -18.3305   26.4846 O   0  0  0  0  0  0  0  0  0  0  0  0
   12.3413  -17.5096   25.8652 O   0  0  0  0  0  0  0  0  0  0  0  0
  2  1  1  0
  3  2  2  0
  4  2  1  0
  5  4  1  0
  6  5  1  0
  7  6  1  0
  8  9  1  6
  8 10  1  0
  8  7  1  0
 10 16  1  0
 10 11  2  0
 13 12  1  6
 14 13  1  0
 15 13  1  0
 15 16  1  6
 17 24  1  0
 17 15  1  0
 18 17  2  0
 19 20  1  0
 20 21  2  0
 20 22  1  0
 23 22  1  1
 23 25  1  0
 23 24  1  0
 25 27  1  0
 26 25  2  0
M  END
$$$$
