RTN.pdb
     RDKit          3D

 27 26  0  0  1  0  0  0  0  0999 V2000
    7.4983  -15.0279   15.9841 N   0  0  0  0  0  0  0  0  0  0  0  0
    8.1987  -13.7815   15.8071 C   0  0  0  0  0  0  0  0  0  0  0  0
    8.7800  -13.5770   14.6786 N   0  0  0  0  0  0  0  0  0  0  0  0
    8.2321  -12.8358   16.8439 N   0  0  0  0  0  0  0  0  0  0  0  0
    7.3964  -13.0064   18.0326 C   0  0  0  0  0  0  0  0  0  0  0  0
    7.6834  -14.3209   18.7015 C   0  0  0  0  0  0  0  0  0  0  0  0
    8.5166  -14.2127   19.9270 C   0  0  0  0  0  0  0  0  0  0  0  0
    8.7782  -15.4862   20.6615 C   0  0  2  0  0  0  0  0  0  0  0  0
    7.7366  -16.4645   20.5983 N   0  0  0  0  0  0  0  0  0  0  0  0
    9.1622  -15.1571   22.0638 C   0  0  0  0  0  0  0  0  0  0  0  0
   10.1025  -14.3839   22.3436 O   0  0  0  0  0  0  0  0  0  0  0  0
    9.2256  -12.6727   14.4376 C   0  0  0  0  0  0  0  0  0  0  0  0
    7.0278  -13.7426   24.7663 C   0  0  2  0  0  0  0  0  0  0  0  0
    7.5173  -15.0988   25.2266 O   0  0  0  0  0  0  0  0  0  0  0  0
    6.4850  -16.0469   25.1948 C   0  0  2  0  0  0  0  0  0  0  0  0
    8.7371  -15.5631   24.5156 N   0  0  0  0  0  0  0  0  0  0  0  0
    8.4329  -15.7449   23.1133 C   0  0  0  0  0  0  0  0  0  0  0  0
    9.3945  -16.7531   25.1022 O   0  0  0  0  0  0  0  0  0  0  0  0
    9.1147  -17.9079   24.6900 N   0  0  0  0  0  0  0  0  0  0  0  0
   12.2501  -18.8017   24.5115 C   0  0  0  0  0  0  0  0  0  0  0  0
   13.0611  -18.1192   25.4733 O   0  0  0  0  0  0  0  0  0  0  0  0
   14.2741  -18.0294   25.2142 C   0  0  0  0  0  0  0  0  0  0  0  0
   12.4407  -17.5841   26.6652 C   0  0  2  0  0  0  0  0  0  0  0  0
   10.9672  -17.7602   26.8237 N   0  0  0  0  0  0  0  0  0  0  0  0
   10.3532  -16.6052   26.1424 C   0  0  0  0  0  0  0  0  0  0  0  0
   10.5692  -17.7291   28.2271 O   0  0  0  0  0  0  0  0  0  0  0  0
   10.0158  -16.6708   28.6992 O   0  0  0  0  0  0  0  0  0  0  0  0
  2  1  1  0
  3  2  2  0
  4  2  1  0
  5  4  1  0
  6  5  1  0
  7  6  1  0
  8  9  1  1
  8 10  1  0
  8  7  1  0
 10 16  1  0
 10 11  2  0
 13 12  1  1
 14 13  1  0
 15 13  1  0
 15 16  1  1
 17 24  1  0
 17 15  1  0
 18 17  2  0
 19 20  1  0
 20 21  2  0
 20 22  1  0
 23 22  1  6
 23 25  1  0
 23 24  1  0
 25 27  1  0
 26 25  2  0
M  END
$$$$
