RTN.pdb
     RDKit          3D

 27 26  0  0  1  0  0  0  0  0999 V2000
    9.1535  -15.0611   12.1555 N   0  0  0  0  0  0  0  0  0  0  0  0
   10.1130  -16.1271   12.0206 C   0  0  0  0  0  0  0  0  0  0  0  0
   10.7303  -16.2377   10.8981 N   0  0  0  0  0  0  0  0  0  0  0  0
   10.3516  -17.0035   13.0908 N   0  0  0  0  0  0  0  0  0  0  0  0
   10.8494  -16.4964   14.3697 C   0  0  0  0  0  0  0  0  0  0  0  0
   10.3484  -15.1024   14.6216 C   0  0  0  0  0  0  0  0  0  0  0  0
   10.8047  -14.5132   15.9072 C   0  0  0  0  0  0  0  0  0  0  0  0
   10.7428  -15.4074   17.1015 C   0  0  2  0  0  0  0  0  0  0  0  0
    9.7385  -16.4252   17.0636 N   0  0  0  0  0  0  0  0  0  0  0  0
   10.6469  -14.5618   18.3254 C   0  0  0  0  0  0  0  0  0  0  0  0
   11.4355  -13.6224   18.5616 O   0  0  0  0  0  0  0  0  0  0  0  0
   11.5109  -16.9047   10.7552 C   0  0  0  0  0  0  0  0  0  0  0  0
    7.5324  -12.7614   19.2369 C   0  0  2  0  0  0  0  0  0  0  0  0
    7.9140  -13.6341   20.4131 O   0  0  0  0  0  0  0  0  0  0  0  0
    7.0531  -14.7347   20.5269 C   0  0  2  0  0  0  0  0  0  0  0  0
    9.3464  -14.0305   20.4190 N   0  0  0  0  0  0  0  0  0  0  0  0
    9.6240  -14.8371   19.2510 C   0  0  0  0  0  0  0  0  0  0  0  0
    9.8174  -14.6748   21.6661 O   0  0  0  0  0  0  0  0  0  0  0  0
    9.6593  -14.1094   22.7784 N   0  0  0  0  0  0  0  0  0  0  0  0
    8.4945  -17.6975   21.9139 C   0  0  0  0  0  0  0  0  0  0  0  0
    9.5885  -18.6012   22.1007 O   0  0  0  0  0  0  0  0  0  0  0  0
    9.3657  -19.8010   21.8615 C   0  0  0  0  0  0  0  0  0  0  0  0
   10.8628  -18.0823   22.5468 C   0  0  2  0  0  0  0  0  0  0  0  0
   10.9591  -16.6207   22.8329 N   0  0  0  0  0  0  0  0  0  0  0  0
   10.4565  -15.9447   21.6222 C   0  0  0  0  0  0  0  0  0  0  0  0
   12.3406  -16.2046   23.0498 O   0  0  0  0  0  0  0  0  0  0  0  0
   12.9568  -16.5995   24.1050 O   0  0  0  0  0  0  0  0  0  0  0  0
  2  1  1  0
  3  2  2  0
  4  2  1  0
  5  4  1  0
  6  5  1  0
  7  6  1  0
  8  9  1  6
  8 10  1  0
  8  7  1  0
 10 16  1  0
 10 11  2  0
 13 12  1  1
 14 13  1  0
 15 13  1  0
 15 16  1  1
 17 24  1  0
 17 15  1  0
 18 17  2  0
 19 20  1  0
 20 21  2  0
 20 22  1  0
 23 22  1  1
 23 25  1  0
 23 24  1  0
 25 27  1  0
 26 25  2  0
M  END
$$$$
