RTN.pdb
     RDKit          3D

 27 26  0  0  1  0  0  0  0  0999 V2000
   11.4211  -20.8183   13.1450 N   0  0  0  0  0  0  0  0  0  0  0  0
   12.2351  -19.6324   13.0667 C   0  0  0  0  0  0  0  0  0  0  0  0
   12.9077  -19.4386   11.9881 N   0  0  0  0  0  0  0  0  0  0  0  0
   12.2775  -18.7316   14.1424 N   0  0  0  0  0  0  0  0  0  0  0  0
   11.4541  -18.9543   15.3310 C   0  0  0  0  0  0  0  0  0  0  0  0
   10.4359  -17.8604   15.4865 C   0  0  0  0  0  0  0  0  0  0  0  0
   10.1227  -17.5145   16.8973 C   0  0  0  0  0  0  0  0  0  0  0  0
    9.0491  -16.4976   17.1046 C   0  0  2  0  0  0  0  0  0  0  0  0
    8.7130  -15.7077   15.9605 N   0  0  0  0  0  0  0  0  0  0  0  0
    9.4067  -15.6611   18.2855 C   0  0  0  0  0  0  0  0  0  0  0  0
   10.3281  -14.8180   18.2627 O   0  0  0  0  0  0  0  0  0  0  0  0
   13.6057  -18.6779   11.8963 C   0  0  0  0  0  0  0  0  0  0  0  0
    7.4013  -13.1984   19.8126 C   0  0  2  0  0  0  0  0  0  0  0  0
    7.6661  -14.2063   20.9103 O   0  0  0  0  0  0  0  0  0  0  0  0
    6.5242  -14.9743   21.1783 C   0  0  2  0  0  0  0  0  0  0  0  0
    8.8703  -15.0437   20.6704 N   0  0  0  0  0  0  0  0  0  0  0  0
    8.6737  -15.8321   19.4738 C   0  0  0  0  0  0  0  0  0  0  0  0
    9.3014  -15.8722   21.8193 O   0  0  0  0  0  0  0  0  0  0  0  0
    9.0532  -17.1048   21.8490 N   0  0  0  0  0  0  0  0  0  0  0  0
   13.2187  -15.8742   22.5162 C   0  0  0  0  0  0  0  0  0  0  0  0
   12.8898  -16.1864   23.8737 O   0  0  0  0  0  0  0  0  0  0  0  0
   13.6291  -17.0027   24.4513 C   0  0  0  0  0  0  0  0  0  0  0  0
   11.7434  -15.5509   24.4851 C   0  0  2  0  0  0  0  0  0  0  0  0
   10.3873  -16.0476   24.1086 N   0  0  0  0  0  0  0  0  0  0  0  0
   10.0034  -15.2833   22.9071 C   0  0  0  0  0  0  0  0  0  0  0  0
    9.4064  -15.7798   25.1549 O   0  0  0  0  0  0  0  0  0  0  0  0
    8.6149  -14.7760   25.0313 O   0  0  0  0  0  0  0  0  0  0  0  0
  2  1  1  0
  3  2  2  0
  4  2  1  0
  5  4  1  0
  6  5  1  0
  7  6  1  0
  8  9  1  6
  8 10  1  0
  8  7  1  0
 10 16  1  0
 10 11  2  0
 13 12  1  1
 14 13  1  0
 15 13  1  0
 15 16  1  1
 17 24  1  0
 17 15  1  0
 18 17  2  0
 19 20  1  0
 20 21  2  0
 20 22  1  0
 23 22  1  6
 23 25  1  0
 23 24  1  0
 25 27  1  0
 26 25  2  0
M  END
$$$$
