RTN.pdb
     RDKit          3D

 27 26  0  0  1  0  0  0  0  0999 V2000
    8.5943  -14.4706   15.3462 N   0  0  0  0  0  0  0  0  0  0  0  0
    8.9030  -13.9831   16.6661 C   0  0  0  0  0  0  0  0  0  0  0  0
   10.1268  -14.0452   17.0557 N   0  0  0  0  0  0  0  0  0  0  0  0
    7.8875  -13.4610   17.4825 N   0  0  0  0  0  0  0  0  0  0  0  0
    8.1948  -12.9609   18.8226 C   0  0  0  0  0  0  0  0  0  0  0  0
    8.4028  -14.0990   19.7813 C   0  0  0  0  0  0  0  0  0  0  0  0
    7.1898  -14.4769   20.5519 C   0  0  0  0  0  0  0  0  0  0  0  0
    7.3142  -15.6777   21.4308 C   0  0  2  0  0  0  0  0  0  0  0  0
    6.1017  -16.1287   22.0409 N   0  0  0  0  0  0  0  0  0  0  0  0
    8.3922  -15.4274   22.4296 C   0  0  0  0  0  0  0  0  0  0  0  0
    8.2256  -14.7106   23.4389 O   0  0  0  0  0  0  0  0  0  0  0  0
   10.4160  -13.8092   18.0227 C   0  0  0  0  0  0  0  0  0  0  0  0
   11.5171  -16.7564   25.3926 C   0  0  2  0  0  0  0  0  0  0  0  0
   10.3536  -16.5100   24.4564 O   0  0  0  0  0  0  0  0  0  0  0  0
    9.3468  -15.7646   25.0858 C   0  0  1  0  0  0  0  0  0  0  0  0
   10.7559  -15.9303   23.1483 N   0  0  0  0  0  0  0  0  0  0  0  0
    9.6487  -16.0250   22.2226 C   0  0  0  0  0  0  0  0  0  0  0  0
   12.0088  -16.4737   22.5762 O   0  0  0  0  0  0  0  0  0  0  0  0
   12.0819  -17.6786   22.2232 N   0  0  0  0  0  0  0  0  0  0  0  0
   13.6492  -13.1424   19.6995 C   0  0  0  0  0  0  0  0  0  0  0  0
   14.0865  -14.5016   19.7993 O   0  0  0  0  0  0  0  0  0  0  0  0
   13.7681  -15.2581   18.8650 C   0  0  0  0  0  0  0  0  0  0  0  0
   14.8561  -14.9113   20.9533 C   0  0  2  0  0  0  0  0  0  0  0  0
   14.3730  -16.0899   21.7311 N   0  0  0  0  0  0  0  0  0  0  0  0
   13.1489  -15.6380   22.4185 C   0  0  0  0  0  0  0  0  0  0  0  0
   15.3412  -16.5009   22.7423 O   0  0  0  0  0  0  0  0  0  0  0  0
   15.1051  -16.2444   23.9783 O   0  0  0  0  0  0  0  0  0  0  0  0
  2  1  1  0
  3  2  2  0
  4  2  1  0
  5  4  1  0
  6  5  1  0
  7  6  1  0
  8  9  1  1
  8 10  1  0
  8  7  1  0
 10 16  1  0
 10 11  2  0
 13 12  1  1
 14 13  1  0
 15 13  1  0
 15 16  1  1
 17 24  1  0
 17 15  1  0
 18 17  2  0
 19 20  1  0
 20 21  2  0
 20 22  1  0
 23 22  1  6
 23 25  1  0
 23 24  1  0
 25 27  1  0
 26 25  2  0
M  END
$$$$
