RTN.pdb
     RDKit          3D

 27 26  0  0  1  0  0  0  0  0999 V2000
    9.7028  -21.0139   14.3736 N   0  0  0  0  0  0  0  0  0  0  0  0
    8.2641  -20.9531   14.4112 C   0  0  0  0  0  0  0  0  0  0  0  0
    7.6105  -21.8180   13.7198 N   0  0  0  0  0  0  0  0  0  0  0  0
    7.6176  -19.9756   15.1838 N   0  0  0  0  0  0  0  0  0  0  0  0
    8.1344  -18.6079   15.2358 C   0  0  0  0  0  0  0  0  0  0  0  0
    9.6361  -18.6032   15.1842 C   0  0  0  0  0  0  0  0  0  0  0  0
   10.2233  -17.3594   14.6220 C   0  0  0  0  0  0  0  0  0  0  0  0
    9.4118  -16.1161   14.7815 C   0  0  2  0  0  0  0  0  0  0  0  0
    9.1763  -15.3706   13.5838 N   0  0  0  0  0  0  0  0  0  0  0  0
   10.0224  -15.2833   15.8566 C   0  0  0  0  0  0  0  0  0  0  0  0
   11.1740  -14.8072   15.7713 O   0  0  0  0  0  0  0  0  0  0  0  0
    6.5760  -21.8808   13.7406 C   0  0  0  0  0  0  0  0  0  0  0  0
    7.5724  -14.5891   19.3558 C   0  0  2  0  0  0  0  0  0  0  0  0
    8.6420  -13.6393   18.8612 O   0  0  0  0  0  0  0  0  0  0  0  0
    9.0762  -12.7879   19.8870 C   0  0  1  0  0  0  0  0  0  0  0  0
    9.7696  -14.3204   18.1730 N   0  0  0  0  0  0  0  0  0  0  0  0
    9.2666  -15.0258   17.0148 C   0  0  0  0  0  0  0  0  0  0  0  0
   10.6031  -15.1884   19.0357 O   0  0  0  0  0  0  0  0  0  0  0  0
   10.3928  -16.4271   19.0919 N   0  0  0  0  0  0  0  0  0  0  0  0
   14.9711  -13.4931   19.1172 C   0  0  0  0  0  0  0  0  0  0  0  0
   14.6369  -14.7355   19.7441 O   0  0  0  0  0  0  0  0  0  0  0  0
   15.1372  -15.7606   19.2488 C   0  0  0  0  0  0  0  0  0  0  0  0
   13.7567  -14.7313   20.8919 C   0  0  2  0  0  0  0  0  0  0  0  0
   12.4450  -15.4324   20.7674 N   0  0  0  0  0  0  0  0  0  0  0  0
   11.6548  -14.6309   19.8142 C   0  0  0  0  0  0  0  0  0  0  0  0
   11.7307  -15.4673   22.0391 O   0  0  0  0  0  0  0  0  0  0  0  0
   10.6679  -14.7606   22.1818 O   0  0  0  0  0  0  0  0  0  0  0  0
  2  1  1  0
  3  2  2  0
  4  2  1  0
  5  4  1  0
  6  5  1  0
  7  6  1  0
  8  9  1  6
  8 10  1  0
  8  7  1  0
 10 16  1  0
 10 11  2  0
 13 12  1  6
 14 13  1  0
 15 13  1  0
 15 16  1  6
 17 24  1  0
 17 15  1  0
 18 17  2  0
 19 20  1  0
 20 21  2  0
 20 22  1  0
 23 22  1  6
 23 25  1  0
 23 24  1  0
 25 27  1  0
 26 25  2  0
M  END
$$$$
