RTN.pdb
     RDKit          3D

 27 26  0  0  1  0  0  0  0  0999 V2000
   12.0299  -19.1967   14.0645 N   0  0  0  0  0  0  0  0  0  0  0  0
   12.5907  -17.9551   13.5963 C   0  0  0  0  0  0  0  0  0  0  0  0
   13.2329  -17.9711   12.4825 N   0  0  0  0  0  0  0  0  0  0  0  0
   12.4290  -16.7792   14.3456 N   0  0  0  0  0  0  0  0  0  0  0  0
   11.4732  -16.7286   15.4521 C   0  0  0  0  0  0  0  0  0  0  0  0
   10.0932  -17.0911   14.9812 C   0  0  0  0  0  0  0  0  0  0  0  0
    9.0583  -17.0644   16.0471 C   0  0  0  0  0  0  0  0  0  0  0  0
    8.3158  -15.7796   16.2137 C   0  0  2  0  0  0  0  0  0  0  0  0
    8.2761  -14.9318   15.0624 N   0  0  0  0  0  0  0  0  0  0  0  0
    8.8442  -15.0765   17.4173 C   0  0  0  0  0  0  0  0  0  0  0  0
    9.6117  -14.0938   17.3437 O   0  0  0  0  0  0  0  0  0  0  0  0
   13.6853  -17.1258   12.0884 C   0  0  0  0  0  0  0  0  0  0  0  0
    7.4066  -12.8842   19.2496 C   0  0  2  0  0  0  0  0  0  0  0  0
    7.6677  -13.9530   20.2891 O   0  0  0  0  0  0  0  0  0  0  0  0
    6.4894  -14.6380   20.6176 C   0  0  2  0  0  0  0  0  0  0  0  0
    8.7782  -14.8731   19.9295 N   0  0  0  0  0  0  0  0  0  0  0  0
    8.4606  -15.5432   18.6876 C   0  0  0  0  0  0  0  0  0  0  0  0
    9.1767  -15.8255   20.9907 O   0  0  0  0  0  0  0  0  0  0  0  0
    8.8935  -17.0471   20.8944 N   0  0  0  0  0  0  0  0  0  0  0  0
   12.3108  -17.5853   21.6971 C   0  0  0  0  0  0  0  0  0  0  0  0
   12.7347  -16.6596   22.7030 O   0  0  0  0  0  0  0  0  0  0  0  0
   13.9618  -16.5134   22.8426 C   0  0  0  0  0  0  0  0  0  0  0  0
   11.7370  -15.9615   23.4835 C   0  0  2  0  0  0  0  0  0  0  0  0
   10.3016  -16.2764   23.2229 N   0  0  0  0  0  0  0  0  0  0  0  0
    9.8867  -15.3700   22.1359 C   0  0  0  0  0  0  0  0  0  0  0  0
    9.4700  -16.0028   24.3901 O   0  0  0  0  0  0  0  0  0  0  0  0
    8.8814  -14.8658   24.4888 O   0  0  0  0  0  0  0  0  0  0  0  0
  2  1  1  0
  3  2  2  0
  4  2  1  0
  5  4  1  0
  6  5  1  0
  7  6  1  0
  8  9  1  6
  8 10  1  0
  8  7  1  0
 10 16  1  0
 10 11  2  0
 13 12  1  1
 14 13  1  0
 15 13  1  0
 15 16  1  1
 17 24  1  0
 17 15  1  0
 18 17  2  0
 19 20  1  0
 20 21  2  0
 20 22  1  0
 23 22  1  6
 23 25  1  0
 23 24  1  0
 25 27  1  0
 26 25  2  0
M  END
$$$$
