RTN.pdb
     RDKit          3D

 27 26  0  0  1  0  0  0  0  0999 V2000
   15.1822  -13.4692   17.6393 N   0  0  0  0  0  0  0  0  0  0  0  0
   16.0077  -14.5492   17.1625 C   0  0  0  0  0  0  0  0  0  0  0  0
   17.2014  -14.2650   16.7781 N   0  0  0  0  0  0  0  0  0  0  0  0
   15.5067  -15.8600   17.1278 N   0  0  0  0  0  0  0  0  0  0  0  0
   14.1709  -16.1589   17.6441 C   0  0  0  0  0  0  0  0  0  0  0  0
   13.1625  -16.1840   16.5305 C   0  0  0  0  0  0  0  0  0  0  0  0
   12.1152  -15.1348   16.6321 C   0  0  0  0  0  0  0  0  0  0  0  0
   10.8132  -15.5579   17.2283 C   0  0  2  0  0  0  0  0  0  0  0  0
    9.6826  -15.5018   16.3539 N   0  0  0  0  0  0  0  0  0  0  0  0
   10.5942  -14.7911   18.4877 C   0  0  0  0  0  0  0  0  0  0  0  0
   11.4057  -13.9416   18.9118 O   0  0  0  0  0  0  0  0  0  0  0  0
   17.8888  -14.9936   16.5115 C   0  0  0  0  0  0  0  0  0  0  0  0
    8.0114  -12.4331   19.6340 C   0  0  2  0  0  0  0  0  0  0  0  0
    7.8991  -13.6842   20.4783 O   0  0  0  0  0  0  0  0  0  0  0  0
    6.7930  -14.4556   20.0950 C   0  0  2  0  0  0  0  0  0  0  0  0
    9.1540  -14.4786   20.5334 N   0  0  0  0  0  0  0  0  0  0  0  0
    9.4233  -15.0382   19.2271 C   0  0  0  0  0  0  0  0  0  0  0  0
    9.2049  -15.5041   21.6003 O   0  0  0  0  0  0  0  0  0  0  0  0
    8.7918  -16.6725   21.3859 N   0  0  0  0  0  0  0  0  0  0  0  0
   11.8638  -17.8120   22.9222 C   0  0  0  0  0  0  0  0  0  0  0  0
   12.1707  -16.7071   23.7786 O   0  0  0  0  0  0  0  0  0  0  0  0
   13.3553  -16.3289   23.7954 C   0  0  0  0  0  0  0  0  0  0  0  0
   11.1121  -16.1051   24.5590 C   0  0  2  0  0  0  0  0  0  0  0  0
    9.7278  -16.1423   24.0024 N   0  0  0  0  0  0  0  0  0  0  0  0
    9.7226  -15.1800   22.8848 C   0  0  0  0  0  0  0  0  0  0  0  0
    8.7407  -15.7083   24.9853 O   0  0  0  0  0  0  0  0  0  0  0  0
    8.4648  -16.4743   25.9784 O   0  0  0  0  0  0  0  0  0  0  0  0
  2  1  1  0
  3  2  2  0
  4  2  1  0
  5  4  1  0
  6  5  1  0
  7  6  1  0
  8  9  1  6
  8 10  1  0
  8  7  1  0
 10 16  1  0
 10 11  2  0
 13 12  1  1
 14 13  1  0
 15 13  1  0
 15 16  1  1
 17 24  1  0
 17 15  1  0
 18 17  2  0
 19 20  1  0
 20 21  2  0
 20 22  1  0
 23 22  1  6
 23 25  1  0
 23 24  1  0
 25 27  1  0
 26 25  2  0
M  END
$$$$
