WEP.pdb
     RDKit          3D

 31 33  0  0  1  0  0  0  0  0999 V2000
   15.1928  -10.0304   -9.8629 N   0  0  0  0  0  0  0  0  0  0  0  0
   16.1665   -9.0734  -10.2821 C   0  0  1  0  0  0  0  0  0  0  0  0
   16.9472   -9.5742  -11.5044 C   0  0  0  0  0  0  0  0  0  0  0  0
   18.3974   -9.3961  -11.3507 C   0  0  0  0  0  0  0  0  0  0  0  0
   19.1649   -9.7595  -10.2421 C   0  0  0  0  0  0  0  0  0  0  0  0
   20.4466   -9.4695  -10.4972 N   0  0  0  0  0  0  0  0  0  0  0  0
   20.5552   -8.9279  -11.7306 C   0  0  0  0  0  0  0  0  0  0  0  0
   21.6158   -8.4564  -12.4725 C   0  0  0  0  0  0  0  0  0  0  0  0
   21.4675   -7.9364  -13.7231 C   0  0  0  0  0  0  0  0  0  0  0  0
   20.1981   -7.8934  -14.2401 C   0  0  0  0  0  0  0  0  0  0  0  0
   19.0919   -8.3508  -13.5475 C   0  0  0  0  0  0  0  0  0  0  0  0
   19.2668   -8.8797  -12.2702 C   0  0  0  0  0  0  0  0  0  0  0  0
   15.5859   -7.7399  -10.5820 C   0  0  0  0  0  0  0  0  0  0  0  0
   14.4816   -7.6852  -11.2084 O   0  0  0  0  0  0  0  0  0  0  0  0
   16.1608   -6.5032  -10.2234 N   0  0  0  0  0  0  0  0  0  0  0  0
   15.5816   -5.2477  -10.6308 C   0  0  1  0  0  0  0  0  0  0  0  0
   15.3546   -4.4554   -9.3692 C   0  0  0  0  0  0  0  0  0  0  0  0
   14.7743   -3.1019   -9.5602 C   0  0  0  0  0  0  0  0  0  0  0  0
   14.8999   -2.1879   -8.4193 C   0  0  0  0  0  0  0  0  0  0  0  0
   14.7073   -2.6759   -7.2749 O   0  0  0  0  0  0  0  0  0  0  0  0
   16.3035   -4.5292  -11.6833 C   0  0  0  0  0  0  0  0  0  0  0  0
   17.5498   -4.3572  -11.4607 O   0  0  0  0  0  0  0  0  0  0  0  0
   15.2084   -0.8437   -8.4718 O   0  0  0  0  0  0  0  0  0  0  0  0
   15.7522   -4.0234  -12.8950 N   0  0  0  0  0  0  0  0  0  0  0  0
   14.3972   -4.0466  -13.3621 C   0  0  0  0  0  0  0  0  0  0  0  0
   14.3856   -3.0178  -14.4695 C   0  0  0  0  0  0  0  0  0  0  0  0
   15.7087   -3.3212  -15.1489 C   0  0  0  0  0  0  0  0  0  0  0  0
   16.5995   -3.3726  -13.9049 C   0  0  1  0  0  0  0  0  0  0  0  0
   16.9273   -1.9995  -13.4475 C   0  0  0  0  0  0  0  0  0  0  0  0
   16.4240   -1.4665  -12.4289 O   0  0  0  0  0  0  0  0  0  0  0  0
   17.8378   -1.2383  -14.1619 O   0  0  0  0  0  0  0  0  0  0  0  0
  2  1  1  6
  2  3  1  0
  2 13  1  0
  3  4  1  0
  4  5  2  0
  5  6  1  0
  7  6  1  0
  8  7  2  0
  9  8  1  0
 10 11  1  0
 10  9  2  0
 11 12  2  0
 12  4  1  0
 12  7  1  0
 13 15  1  0
 13 14  2  0
 15 16  1  0
 16 17  1  1
 17 18  1  0
 18 19  1  0
 19 23  1  0
 20 19  2  0
 21 16  1  0
 21 22  2  0
 24 21  1  0
 25 24  1  0
 26 27  1  0
 26 25  1  0
 27 28  1  0
 28 24  1  0
 28 29  1  1
 29 31  1  0
 30 29  2  0
M  END
$$$$
