WEP.pdb
     RDKit          3D

 31 33  0  0  1  0  0  0  0  0999 V2000
   17.6231  -22.4995    2.3811 N   0  0  0  0  0  0  0  0  0  0  0  0
   17.9723  -22.8523    3.7203 C   0  0  1  0  0  0  0  0  0  0  0  0
   19.2144  -23.7525    3.7516 C   0  0  0  0  0  0  0  0  0  0  0  0
   19.1642  -24.8071    2.7299 C   0  0  0  0  0  0  0  0  0  0  0  0
   18.2037  -25.8153    2.6249 C   0  0  0  0  0  0  0  0  0  0  0  0
   18.4798  -26.5565    1.5450 N   0  0  0  0  0  0  0  0  0  0  0  0
   19.5856  -26.0776    0.9332 C   0  0  0  0  0  0  0  0  0  0  0  0
   20.2924  -26.4560   -0.1870 C   0  0  0  0  0  0  0  0  0  0  0  0
   21.4100  -25.8013   -0.6096 C   0  0  0  0  0  0  0  0  0  0  0  0
   21.8257  -24.7241    0.1301 C   0  0  0  0  0  0  0  0  0  0  0  0
   21.1608  -24.2930    1.2636 C   0  0  0  0  0  0  0  0  0  0  0  0
   20.0191  -24.9767    1.6771 C   0  0  0  0  0  0  0  0  0  0  0  0
   18.1964  -21.6746    4.5967 C   0  0  0  0  0  0  0  0  0  0  0  0
   18.9298  -20.7294    4.1682 O   0  0  0  0  0  0  0  0  0  0  0  0
   17.6540  -21.5065    5.8874 N   0  0  0  0  0  0  0  0  0  0  0  0
   17.9633  -20.3563    6.6993 C   0  0  1  0  0  0  0  0  0  0  0  0
   16.7283  -20.0657    7.5124 C   0  0  0  0  0  0  0  0  0  0  0  0
   16.8058  -18.8680    8.3869 C   0  0  0  0  0  0  0  0  0  0  0  0
   16.4598  -17.5916    7.7515 C   0  0  0  0  0  0  0  0  0  0  0  0
   16.1213  -17.6321    6.5397 O   0  0  0  0  0  0  0  0  0  0  0  0
   19.2013  -20.4445    7.4770 C   0  0  0  0  0  0  0  0  0  0  0  0
   19.4913  -21.6157    7.8970 O   0  0  0  0  0  0  0  0  0  0  0  0
   16.4674  -16.3469    8.3477 O   0  0  0  0  0  0  0  0  0  0  0  0
   20.0814  -19.3705    7.7933 N   0  0  0  0  0  0  0  0  0  0  0  0
   20.0177  -17.9922    7.4046 C   0  0  0  0  0  0  0  0  0  0  0  0
   20.9583  -17.3073    8.3695 C   0  0  0  0  0  0  0  0  0  0  0  0
   22.0983  -18.3087    8.4096 C   0  0  0  0  0  0  0  0  0  0  0  0
   21.2772  -19.5834    8.6215 C   0  0  1  0  0  0  0  0  0  0  0  0
   20.8654  -19.7021   10.0422 C   0  0  0  0  0  0  0  0  0  0  0  0
   19.7073  -19.4498   10.4546 O   0  0  0  0  0  0  0  0  0  0  0  0
   21.7870  -20.1141   10.9907 O   0  0  0  0  0  0  0  0  0  0  0  0
  2  1  1  6
  2  3  1  0
  2 13  1  0
  3  4  1  0
  4  5  2  0
  5  6  1  0
  7  6  1  0
  8  7  2  0
  9  8  1  0
 10 11  1  0
 10  9  2  0
 11 12  2  0
 12  4  1  0
 12  7  1  0
 13 15  1  0
 13 14  2  0
 15 16  1  0
 16 17  1  1
 17 18  1  0
 18 19  1  0
 19 23  1  0
 20 19  2  0
 21 16  1  0
 21 22  2  0
 24 21  1  0
 25 24  1  0
 26 27  1  0
 26 25  1  0
 27 28  1  0
 28 24  1  0
 28 29  1  1
 29 31  1  0
 30 29  2  0
M  END
$$$$
