WEP.pdb
     RDKit          3D

 31 33  0  0  1  0  0  0  0  0999 V2000
   15.3562  -14.2525    3.8691 N   0  0  0  0  0  0  0  0  0  0  0  0
   16.3067  -15.3172    3.8151 C   0  0  1  0  0  0  0  0  0  0  0  0
   17.6166  -14.8597    3.1601 C   0  0  0  0  0  0  0  0  0  0  0  0
   18.1961  -15.8934    2.2917 C   0  0  0  0  0  0  0  0  0  0  0  0
   17.5620  -17.0563    1.8493 C   0  0  0  0  0  0  0  0  0  0  0  0
   18.4030  -17.7225    1.0489 N   0  0  0  0  0  0  0  0  0  0  0  0
   19.5681  -17.0454    0.9462 C   0  0  0  0  0  0  0  0  0  0  0  0
   20.7467  -17.2769    0.2718 C   0  0  0  0  0  0  0  0  0  0  0  0
   21.8100  -16.4272    0.3322 C   0  0  0  0  0  0  0  0  0  0  0  0
   21.6730  -15.3020    1.1041 C   0  0  0  0  0  0  0  0  0  0  0  0
   20.5168  -15.0113    1.8050 C   0  0  0  0  0  0  0  0  0  0  0  0
   19.4412  -15.8938    1.7280 C   0  0  0  0  0  0  0  0  0  0  0  0
   16.6020  -15.9066    5.1457 C   0  0  0  0  0  0  0  0  0  0  0  0
   17.0052  -15.1385    6.0743 O   0  0  0  0  0  0  0  0  0  0  0  0
   16.4690  -17.2704    5.4788 N   0  0  0  0  0  0  0  0  0  0  0  0
   16.6391  -17.7444    6.8294 C   0  0  1  0  0  0  0  0  0  0  0  0
   15.9665  -19.0913    6.8948 C   0  0  0  0  0  0  0  0  0  0  0  0
   15.8927  -19.7040    8.2454 C   0  0  0  0  0  0  0  0  0  0  0  0
   16.5858  -20.9877    8.4015 C   0  0  0  0  0  0  0  0  0  0  0  0
   16.9001  -21.3264    9.5726 O   0  0  0  0  0  0  0  0  0  0  0  0
   18.0113  -17.7200    7.3410 C   0  0  0  0  0  0  0  0  0  0  0  0
   18.9019  -18.1118    6.5129 O   0  0  0  0  0  0  0  0  0  0  0  0
   16.9298  -21.8652    7.3933 O   0  0  0  0  0  0  0  0  0  0  0  0
   18.4237  -17.3089    8.6406 N   0  0  0  0  0  0  0  0  0  0  0  0
   17.6513  -16.7460    9.7089 C   0  0  0  0  0  0  0  0  0  0  0  0
   18.5406  -16.9183   10.9190 C   0  0  0  0  0  0  0  0  0  0  0  0
   19.8912  -16.5546   10.3295 C   0  0  0  0  0  0  0  0  0  0  0  0
   19.8279  -17.4127    9.0632 C   0  0  1  0  0  0  0  0  0  0  0  0
   20.1319  -18.8294    9.3837 C   0  0  0  0  0  0  0  0  0  0  0  0
   19.2565  -19.7224    9.4893 O   0  0  0  0  0  0  0  0  0  0  0  0
   21.4459  -19.2206    9.5813 O   0  0  0  0  0  0  0  0  0  0  0  0
  2  1  1  1
  2  3  1  0
  2 13  1  0
  3  4  1  0
  4  5  2  0
  5  6  1  0
  7  6  1  0
  8  7  2  0
  9  8  1  0
 10 11  1  0
 10  9  2  0
 11 12  2  0
 12  4  1  0
 12  7  1  0
 13 15  1  0
 13 14  2  0
 15 16  1  0
 16 17  1  6
 17 18  1  0
 18 19  1  0
 19 23  1  0
 20 19  2  0
 21 16  1  0
 21 22  2  0
 24 21  1  0
 25 24  1  0
 26 27  1  0
 26 25  1  0
 27 28  1  0
 28 24  1  0
 28 29  1  1
 29 31  1  0
 30 29  2  0
M  END
$$$$
