WEP.pdb
     RDKit          3D

 31 33  0  0  1  0  0  0  0  0999 V2000
   20.0158  -19.6381  -16.5100 N   0  0  0  0  0  0  0  0  0  0  0  0
   20.6318  -19.1499  -15.3174 C   0  0  1  0  0  0  0  0  0  0  0  0
   19.7001  -19.3033  -14.1081 C   0  0  0  0  0  0  0  0  0  0  0  0
   18.4980  -18.4663  -14.2211 C   0  0  0  0  0  0  0  0  0  0  0  0
   17.2372  -18.8799  -14.6564 C   0  0  0  0  0  0  0  0  0  0  0  0
   16.3983  -17.8394  -14.5834 N   0  0  0  0  0  0  0  0  0  0  0  0
   17.0561  -16.7546  -14.1178 C   0  0  0  0  0  0  0  0  0  0  0  0
   16.6829  -15.4539  -13.8597 C   0  0  0  0  0  0  0  0  0  0  0  0
   17.5525  -14.5170  -13.3880 C   0  0  0  0  0  0  0  0  0  0  0  0
   18.8470  -14.9136  -13.1699 C   0  0  0  0  0  0  0  0  0  0  0  0
   19.2850  -16.2036  -13.4080 C   0  0  0  0  0  0  0  0  0  0  0  0
   18.3783  -17.1459  -13.8894 C   0  0  0  0  0  0  0  0  0  0  0  0
   21.9330  -19.8015  -15.0215 C   0  0  0  0  0  0  0  0  0  0  0  0
   21.9341  -21.0202  -14.6616 O   0  0  0  0  0  0  0  0  0  0  0  0
   23.1941  -19.1765  -15.1092 N   0  0  0  0  0  0  0  0  0  0  0  0
   24.3837  -19.7831  -14.5666 C   0  0  1  0  0  0  0  0  0  0  0  0
   25.5467  -19.1722  -15.3049 C   0  0  0  0  0  0  0  0  0  0  0  0
   26.8905  -19.6395  -14.8796 C   0  0  0  0  0  0  0  0  0  0  0  0
   27.4492  -20.7575  -15.6481 C   0  0  0  0  0  0  0  0  0  0  0  0
   26.7842  -21.1550  -16.6403 O   0  0  0  0  0  0  0  0  0  0  0  0
   24.5011  -19.7520  -13.1069 C   0  0  0  0  0  0  0  0  0  0  0  0
   24.1777  -18.6416  -12.5641 O   0  0  0  0  0  0  0  0  0  0  0  0
   28.6328  -21.4206  -15.3942 O   0  0  0  0  0  0  0  0  0  0  0  0
   24.9301  -20.8202  -12.2685 N   0  0  0  0  0  0  0  0  0  0  0  0
   25.3304  -22.1516  -12.6178 C   0  0  0  0  0  0  0  0  0  0  0  0
   26.0486  -22.6422  -11.3815 C   0  0  0  0  0  0  0  0  0  0  0  0
   25.1404  -22.0976  -10.2940 C   0  0  0  0  0  0  0  0  0  0  0  0
   25.0004  -20.6626  -10.8086 C   0  0  1  0  0  0  0  0  0  0  0  0
   26.2080  -19.8711  -10.4663 C   0  0  0  0  0  0  0  0  0  0  0  0
   27.1219  -19.6067  -11.2848 O   0  0  0  0  0  0  0  0  0  0  0  0
   26.3642  -19.3806   -9.1803 O   0  0  0  0  0  0  0  0  0  0  0  0
  2  1  1  6
  2  3  1  0
  2 13  1  0
  3  4  1  0
  4  5  2  0
  5  6  1  0
  7  6  1  0
  8  7  2  0
  9  8  1  0
 10 11  1  0
 10  9  2  0
 11 12  2  0
 12  4  1  0
 12  7  1  0
 13 15  1  0
 13 14  2  0
 15 16  1  0
 16 17  1  6
 17 18  1  0
 18 19  1  0
 19 23  1  0
 20 19  2  0
 21 16  1  0
 21 22  2  0
 24 21  1  0
 25 24  1  0
 26 27  1  0
 26 25  1  0
 27 28  1  0
 28 24  1  0
 28 29  1  6
 29 31  1  0
 30 29  2  0
M  END
$$$$
