WEP.pdb
     RDKit          3D

 31 33  0  0  1  0  0  0  0  0999 V2000
   27.9149  -19.5694   -9.8747 N   0  0  0  0  0  0  0  0  0  0  0  0
   27.0110  -20.6620   -9.7042 C   0  0  1  0  0  0  0  0  0  0  0  0
   26.2913  -20.5817   -8.3516 C   0  0  0  0  0  0  0  0  0  0  0  0
   27.0384  -19.7845   -7.3693 C   0  0  0  0  0  0  0  0  0  0  0  0
   27.2683  -18.4080   -7.4206 C   0  0  0  0  0  0  0  0  0  0  0  0
   27.9543  -18.0493   -6.3286 N   0  0  0  0  0  0  0  0  0  0  0  0
   28.1872  -19.1352   -5.5587 C   0  0  0  0  0  0  0  0  0  0  0  0
   28.8358  -19.3295   -4.3591 C   0  0  0  0  0  0  0  0  0  0  0  0
   28.9475  -20.5534   -3.7709 C   0  0  0  0  0  0  0  0  0  0  0  0
   28.3807  -21.6186   -4.4225 C   0  0  0  0  0  0  0  0  0  0  0  0
   27.7155  -21.4907   -5.6283 C   0  0  0  0  0  0  0  0  0  0  0  0
   27.6123  -20.2292   -6.2114 C   0  0  0  0  0  0  0  0  0  0  0  0
   26.0046  -20.7646  -10.7914 C   0  0  0  0  0  0  0  0  0  0  0  0
   25.3364  -19.7287  -11.1002 O   0  0  0  0  0  0  0  0  0  0  0  0
   25.7206  -21.9321  -11.5293 N   0  0  0  0  0  0  0  0  0  0  0  0
   24.9159  -21.9004  -12.7248 C   0  0  1  0  0  0  0  0  0  0  0  0
   25.1007  -23.2364  -13.3969 C   0  0  0  0  0  0  0  0  0  0  0  0
   24.3264  -23.4349  -14.6484 C   0  0  0  0  0  0  0  0  0  0  0  0
   24.4547  -24.7557  -15.2743 C   0  0  0  0  0  0  0  0  0  0  0  0
   25.2522  -25.5666  -14.7346 O   0  0  0  0  0  0  0  0  0  0  0  0
   23.5203  -21.4970  -12.5382 C   0  0  0  0  0  0  0  0  0  0  0  0
   22.9557  -21.9762  -11.4971 O   0  0  0  0  0  0  0  0  0  0  0  0
   23.7888  -25.2021  -16.3978 O   0  0  0  0  0  0  0  0  0  0  0  0
   22.7642  -20.6426  -13.3905 N   0  0  0  0  0  0  0  0  0  0  0  0
   23.1646  -19.9544  -14.5825 C   0  0  0  0  0  0  0  0  0  0  0  0
   21.8529  -19.5750  -15.2310 C   0  0  0  0  0  0  0  0  0  0  0  0
   21.0542  -19.1394  -14.0159 C   0  0  0  0  0  0  0  0  0  0  0  0
   21.3567  -20.3305  -13.1029 C   0  0  1  0  0  0  0  0  0  0  0  0
   20.5176  -21.4953  -13.4786 C   0  0  0  0  0  0  0  0  0  0  0  0
   20.8788  -22.3797  -14.2924 O   0  0  0  0  0  0  0  0  0  0  0  0
   19.2609  -21.6448  -12.9155 O   0  0  0  0  0  0  0  0  0  0  0  0
  2  1  1  6
  2  3  1  0
  2 13  1  0
  3  4  1  0
  4  5  2  0
  5  6  1  0
  7  6  1  0
  8  7  2  0
  9  8  1  0
 10 11  1  0
 10  9  2  0
 11 12  2  0
 12  4  1  0
 12  7  1  0
 13 15  1  0
 13 14  2  0
 15 16  1  0
 16 17  1  1
 17 18  1  0
 18 19  1  0
 19 23  1  0
 20 19  2  0
 21 16  1  0
 21 22  2  0
 24 21  1  0
 25 24  1  0
 26 27  1  0
 26 25  1  0
 27 28  1  0
 28 24  1  0
 28 29  1  6
 29 31  1  0
 30 29  2  0
M  END
$$$$
