WEP.pdb
     RDKit          3D

 31 33  0  0  1  0  0  0  0  0999 V2000
   24.4569  -20.0325   -8.6227 N   0  0  0  0  0  0  0  0  0  0  0  0
   25.7304  -20.1884   -9.2503 C   0  0  1  0  0  0  0  0  0  0  0  0
   26.6022  -21.1995   -8.4941 C   0  0  0  0  0  0  0  0  0  0  0  0
   26.7920  -20.8281   -7.0854 C   0  0  0  0  0  0  0  0  0  0  0  0
   25.8051  -20.7864   -6.0983 C   0  0  0  0  0  0  0  0  0  0  0  0
   26.3762  -20.4389   -4.9387 N   0  0  0  0  0  0  0  0  0  0  0  0
   27.7016  -20.2485   -5.1216 C   0  0  0  0  0  0  0  0  0  0  0  0
   28.7349  -19.8857   -4.2860 C   0  0  0  0  0  0  0  0  0  0  0  0
   30.0197  -19.7490   -4.7185 C   0  0  0  0  0  0  0  0  0  0  0  0
   30.2655  -19.9892   -6.0460 C   0  0  0  0  0  0  0  0  0  0  0  0
   29.2733  -20.3572   -6.9365 C   0  0  0  0  0  0  0  0  0  0  0  0
   27.9663  -20.4922   -6.4722 C   0  0  0  0  0  0  0  0  0  0  0  0
   25.6351  -20.5909  -10.6765 C   0  0  0  0  0  0  0  0  0  0  0  0
   24.7232  -21.4077  -11.0174 O   0  0  0  0  0  0  0  0  0  0  0  0
   26.4815  -20.1356  -11.7083 N   0  0  0  0  0  0  0  0  0  0  0  0
   25.9596  -19.5969  -12.9392 C   0  0  1  0  0  0  0  0  0  0  0  0
   27.0494  -18.7341  -13.5212 C   0  0  0  0  0  0  0  0  0  0  0  0
   28.0869  -19.4547  -14.3019 C   0  0  0  0  0  0  0  0  0  0  0  0
   28.2730  -19.0016  -15.6849 C   0  0  0  0  0  0  0  0  0  0  0  0
   29.4574  -18.8138  -16.0681 O   0  0  0  0  0  0  0  0  0  0  0  0
   25.3921  -20.5762  -13.8689 C   0  0  0  0  0  0  0  0  0  0  0  0
   26.1406  -21.5819  -14.1149 O   0  0  0  0  0  0  0  0  0  0  0  0
   27.2799  -18.7592  -16.6122 O   0  0  0  0  0  0  0  0  0  0  0  0
   24.1177  -20.5053  -14.5004 N   0  0  0  0  0  0  0  0  0  0  0  0
   23.1395  -19.4579  -14.4693 C   0  0  0  0  0  0  0  0  0  0  0  0
   22.2315  -19.7856  -15.6325 C   0  0  0  0  0  0  0  0  0  0  0  0
   22.1233  -21.2928  -15.4889 C   0  0  0  0  0  0  0  0  0  0  0  0
   23.6104  -21.6150  -15.3205 C   0  0  1  0  0  0  0  0  0  0  0  0
   24.2955  -21.5947  -16.6367 C   0  0  0  0  0  0  0  0  0  0  0  0
   25.1221  -20.7140  -16.9776 O   0  0  0  0  0  0  0  0  0  0  0  0
   24.0311  -22.5907  -17.5623 O   0  0  0  0  0  0  0  0  0  0  0  0
  2  1  1  1
  2  3  1  0
  2 13  1  0
  3  4  1  0
  4  5  2  0
  5  6  1  0
  7  6  1  0
  8  7  2  0
  9  8  1  0
 10 11  1  0
 10  9  2  0
 11 12  2  0
 12  4  1  0
 12  7  1  0
 13 15  1  0
 13 14  2  0
 15 16  1  0
 16 17  1  6
 17 18  1  0
 18 19  1  0
 19 23  1  0
 20 19  2  0
 21 16  1  0
 21 22  2  0
 24 21  1  0
 25 24  1  0
 26 27  1  0
 26 25  1  0
 27 28  1  0
 28 24  1  0
 28 29  1  6
 29 31  1  0
 30 29  2  0
M  END
$$$$
