WEP.pdb
     RDKit          3D

 31 33  0  0  1  0  0  0  0  0999 V2000
   15.8008  -16.3920    5.4827 N   0  0  0  0  0  0  0  0  0  0  0  0
   17.0445  -16.7003    6.1136 C   0  0  1  0  0  0  0  0  0  0  0  0
   17.5461  -15.5218    6.9583 C   0  0  0  0  0  0  0  0  0  0  0  0
   18.0100  -14.4003    6.1304 C   0  0  0  0  0  0  0  0  0  0  0  0
   17.3082  -13.7940    5.0864 C   0  0  0  0  0  0  0  0  0  0  0  0
   18.0471  -12.7877    4.6036 N   0  0  0  0  0  0  0  0  0  0  0  0
   19.2099  -12.7064    5.2874 C   0  0  0  0  0  0  0  0  0  0  0  0
   20.3072  -11.8779    5.2031 C   0  0  0  0  0  0  0  0  0  0  0  0
   21.3895  -12.0020    6.0215 C   0  0  0  0  0  0  0  0  0  0  0  0
   21.3577  -13.0021    6.9592 C   0  0  0  0  0  0  0  0  0  0  0  0
   20.2868  -13.8664    7.0958 C   0  0  0  0  0  0  0  0  0  0  0  0
   19.1898  -13.7206    6.2489 C   0  0  0  0  0  0  0  0  0  0  0  0
   16.9863  -17.9208    6.9576 C   0  0  0  0  0  0  0  0  0  0  0  0
   16.2269  -17.9189    7.9766 O   0  0  0  0  0  0  0  0  0  0  0  0
   17.7109  -19.1074    6.7227 N   0  0  0  0  0  0  0  0  0  0  0  0
   17.6687  -20.2192    7.6391 C   0  0  1  0  0  0  0  0  0  0  0  0
   17.6510  -21.4663    6.7933 C   0  0  0  0  0  0  0  0  0  0  0  0
   16.5497  -21.5499    5.8006 C   0  0  0  0  0  0  0  0  0  0  0  0
   16.4993  -22.7830    5.0071 C   0  0  0  0  0  0  0  0  0  0  0  0
   17.4820  -23.0173    4.2560 O   0  0  0  0  0  0  0  0  0  0  0  0
   18.6849  -20.2095    8.6938 C   0  0  0  0  0  0  0  0  0  0  0  0
   19.8485  -19.8402    8.3172 O   0  0  0  0  0  0  0  0  0  0  0  0
   15.4819  -23.7155    4.9993 O   0  0  0  0  0  0  0  0  0  0  0  0
   18.4919  -20.5641   10.0595 N   0  0  0  0  0  0  0  0  0  0  0  0
   17.2961  -20.9701   10.7379 C   0  0  0  0  0  0  0  0  0  0  0  0
   17.8075  -21.5930   12.0167 C   0  0  0  0  0  0  0  0  0  0  0  0
   18.9119  -20.6179   12.3823 C   0  0  0  0  0  0  0  0  0  0  0  0
   19.6046  -20.5337   11.0197 C   0  0  1  0  0  0  0  0  0  0  0  0
   20.4625  -21.7248   10.8020 C   0  0  0  0  0  0  0  0  0  0  0  0
   20.1882  -22.6410    9.9893 O   0  0  0  0  0  0  0  0  0  0  0  0
   21.6397  -21.8619   11.5191 O   0  0  0  0  0  0  0  0  0  0  0  0
  2  1  1  1
  2  3  1  0
  2 13  1  0
  3  4  1  0
  4  5  2  0
  5  6  1  0
  7  6  1  0
  8  7  2  0
  9  8  1  0
 10 11  1  0
 10  9  2  0
 11 12  2  0
 12  4  1  0
 12  7  1  0
 13 15  1  0
 13 14  2  0
 15 16  1  0
 16 17  1  6
 17 18  1  0
 18 19  1  0
 19 23  1  0
 20 19  2  0
 21 16  1  0
 21 22  2  0
 24 21  1  0
 25 24  1  0
 26 27  1  0
 26 25  1  0
 27 28  1  0
 28 24  1  0
 28 29  1  6
 29 31  1  0
 30 29  2  0
M  END
$$$$
