WEP.pdb
     RDKit          3D

 31 33  0  0  1  0  0  0  0  0999 V2000
   25.4552  -18.9570   -9.2969 N   0  0  0  0  0  0  0  0  0  0  0  0
   26.4450  -19.9139   -9.6772 C   0  0  1  0  0  0  0  0  0  0  0  0
   26.4568  -21.1118   -8.7187 C   0  0  0  0  0  0  0  0  0  0  0  0
   26.7593  -20.7166   -7.3364 C   0  0  0  0  0  0  0  0  0  0  0  0
   25.8375  -20.3112   -6.3689 C   0  0  0  0  0  0  0  0  0  0  0  0
   26.4948  -20.0707   -5.2279 N   0  0  0  0  0  0  0  0  0  0  0  0
   27.8148  -20.3006   -5.4044 C   0  0  0  0  0  0  0  0  0  0  0  0
   28.9152  -20.2072   -4.5810 C   0  0  0  0  0  0  0  0  0  0  0  0
   30.1786  -20.4934   -5.0032 C   0  0  0  0  0  0  0  0  0  0  0  0
   30.3315  -20.8890   -6.3073 C   0  0  0  0  0  0  0  0  0  0  0  0
   29.2683  -21.0035   -7.1844 C   0  0  0  0  0  0  0  0  0  0  0  0
   27.9845  -20.7067   -6.7309 C   0  0  0  0  0  0  0  0  0  0  0  0
   26.2840  -20.4007  -11.0709 C   0  0  0  0  0  0  0  0  0  0  0  0
   25.1085  -20.5669  -11.5241 O   0  0  0  0  0  0  0  0  0  0  0  0
   27.3409  -20.6981  -11.9557 N   0  0  0  0  0  0  0  0  0  0  0  0
   27.2345  -20.4653  -13.3742 C   0  0  1  0  0  0  0  0  0  0  0  0
   28.6006  -20.7315  -13.9520 C   0  0  0  0  0  0  0  0  0  0  0  0
   28.6978  -20.6415  -15.4311 C   0  0  0  0  0  0  0  0  0  0  0  0
   28.3215  -19.3500  -16.0169 C   0  0  0  0  0  0  0  0  0  0  0  0
   27.3793  -19.3564  -16.8519 O   0  0  0  0  0  0  0  0  0  0  0  0
   26.1378  -21.1623  -14.0500 C   0  0  0  0  0  0  0  0  0  0  0  0
   26.1941  -22.4374  -13.9936 O   0  0  0  0  0  0  0  0  0  0  0  0
   28.8962  -18.1247  -15.7461 O   0  0  0  0  0  0  0  0  0  0  0  0
   25.0486  -20.5588  -14.7410 N   0  0  0  0  0  0  0  0  0  0  0  0
   24.7546  -19.1713  -14.9488 C   0  0  0  0  0  0  0  0  0  0  0  0
   23.7425  -19.1871  -16.0714 C   0  0  0  0  0  0  0  0  0  0  0  0
   22.8808  -20.3658  -15.6565 C   0  0  0  0  0  0  0  0  0  0  0  0
   23.9954  -21.3736  -15.3639 C   0  0  1  0  0  0  0  0  0  0  0  0
   24.5157  -21.9499  -16.6285 C   0  0  0  0  0  0  0  0  0  0  0  0
   25.6445  -21.6779  -17.1048 O   0  0  0  0  0  0  0  0  0  0  0  0
   23.7369  -22.8427  -17.3463 O   0  0  0  0  0  0  0  0  0  0  0  0
  2  1  1  1
  2  3  1  0
  2 13  1  0
  3  4  1  0
  4  5  2  0
  5  6  1  0
  7  6  1  0
  8  7  2  0
  9  8  1  0
 10 11  1  0
 10  9  2  0
 11 12  2  0
 12  4  1  0
 12  7  1  0
 13 15  1  0
 13 14  2  0
 15 16  1  0
 16 17  1  6
 17 18  1  0
 18 19  1  0
 19 23  1  0
 20 19  2  0
 21 16  1  0
 21 22  2  0
 24 21  1  0
 25 24  1  0
 26 27  1  0
 26 25  1  0
 27 28  1  0
 28 24  1  0
 28 29  1  6
 29 31  1  0
 30 29  2  0
M  END
$$$$
