WEP.pdb
     RDKit          3D

 31 33  0  0  1  0  0  0  0  0999 V2000
   26.5647  -19.5648  -18.0706 N   0  0  0  0  0  0  0  0  0  0  0  0
   26.5539  -19.0006  -16.7586 C   0  0  1  0  0  0  0  0  0  0  0  0
   26.1816  -17.5126  -16.7968 C   0  0  0  0  0  0  0  0  0  0  0  0
   27.2117  -16.6971  -17.4542 C   0  0  0  0  0  0  0  0  0  0  0  0
   26.9929  -15.5996  -18.2895 C   0  0  0  0  0  0  0  0  0  0  0  0
   28.1793  -15.1025  -18.6600 N   0  0  0  0  0  0  0  0  0  0  0  0
   29.1729  -15.8294  -18.1027 C   0  0  0  0  0  0  0  0  0  0  0  0
   30.5476  -15.7585  -18.1544 C   0  0  0  0  0  0  0  0  0  0  0  0
   31.3565  -16.6336  -17.4939 C   0  0  0  0  0  0  0  0  0  0  0  0
   30.7494  -17.6158  -16.7541 C   0  0  0  0  0  0  0  0  0  0  0  0
   29.3753  -17.7411  -16.6606 C   0  0  0  0  0  0  0  0  0  0  0  0
   28.5670  -16.8343  -17.3435 C   0  0  0  0  0  0  0  0  0  0  0  0
   25.6454  -19.7110  -15.8230 C   0  0  0  0  0  0  0  0  0  0  0  0
   24.6742  -20.3736  -16.3052 O   0  0  0  0  0  0  0  0  0  0  0  0
   25.7687  -19.7188  -14.4183 N   0  0  0  0  0  0  0  0  0  0  0  0
   24.8694  -20.4705  -13.5793 C   0  0  1  0  0  0  0  0  0  0  0  0
   25.4017  -20.3538  -12.1744 C   0  0  0  0  0  0  0  0  0  0  0  0
   24.5802  -21.0062  -11.1233 C   0  0  0  0  0  0  0  0  0  0  0  0
   25.0928  -20.8946   -9.7531 C   0  0  0  0  0  0  0  0  0  0  0  0
   25.3907  -19.7402   -9.3488 O   0  0  0  0  0  0  0  0  0  0  0  0
   23.4484  -20.1466  -13.7243 C   0  0  0  0  0  0  0  0  0  0  0  0
   23.1543  -18.9174  -13.5373 O   0  0  0  0  0  0  0  0  0  0  0  0
   25.2828  -21.9285   -8.8587 O   0  0  0  0  0  0  0  0  0  0  0  0
   22.4008  -21.0559  -14.0466 N   0  0  0  0  0  0  0  0  0  0  0  0
   22.4547  -22.4715  -14.2654 C   0  0  0  0  0  0  0  0  0  0  0  0
   21.0108  -22.9038  -14.1506 C   0  0  0  0  0  0  0  0  0  0  0  0
   20.3199  -21.7774  -14.8976 C   0  0  0  0  0  0  0  0  0  0  0  0
   21.0167  -20.5928  -14.2230 C   0  0  1  0  0  0  0  0  0  0  0  0
   20.4206  -20.3344  -12.8889 C   0  0  0  0  0  0  0  0  0  0  0  0
   19.4378  -19.5771  -12.7005 O   0  0  0  0  0  0  0  0  0  0  0  0
   20.9546  -20.9501  -11.7688 O   0  0  0  0  0  0  0  0  0  0  0  0
  2  1  1  6
  2  3  1  0
  2 13  1  0
  3  4  1  0
  4  5  2  0
  5  6  1  0
  7  6  1  0
  8  7  2  0
  9  8  1  0
 10 11  1  0
 10  9  2  0
 11 12  2  0
 12  4  1  0
 12  7  1  0
 13 15  1  0
 13 14  2  0
 15 16  1  0
 16 17  1  1
 17 18  1  0
 18 19  1  0
 19 23  1  0
 20 19  2  0
 21 16  1  0
 21 22  2  0
 24 21  1  0
 25 24  1  0
 26 27  1  0
 26 25  1  0
 27 28  1  0
 28 24  1  0
 28 29  1  1
 29 31  1  0
 30 29  2  0
M  END
$$$$
