WEP.pdb
     RDKit          3D

 31 33  0  0  1  0  0  0  0  0999 V2000
   27.5425  -21.4842  -12.4023 N   0  0  0  0  0  0  0  0  0  0  0  0
   26.3595  -21.2722  -11.6305 C   0  0  1  0  0  0  0  0  0  0  0  0
   26.6001  -20.2459  -10.5157 C   0  0  0  0  0  0  0  0  0  0  0  0
   27.7761  -20.5754   -9.6991 C   0  0  0  0  0  0  0  0  0  0  0  0
   28.9634  -21.1557  -10.1507 C   0  0  0  0  0  0  0  0  0  0  0  0
   29.8059  -21.2632   -9.1161 N   0  0  0  0  0  0  0  0  0  0  0  0
   29.2210  -20.7775   -7.9988 C   0  0  0  0  0  0  0  0  0  0  0  0
   29.6286  -20.6532   -6.6888 C   0  0  0  0  0  0  0  0  0  0  0  0
   28.8346  -20.1230   -5.7167 C   0  0  0  0  0  0  0  0  0  0  0  0
   27.5825  -19.7035   -6.0864 C   0  0  0  0  0  0  0  0  0  0  0  0
   27.1136  -19.7998   -7.3839 C   0  0  0  0  0  0  0  0  0  0  0  0
   27.9430  -20.3443   -8.3624 C   0  0  0  0  0  0  0  0  0  0  0  0
   25.1953  -20.8464  -12.4481 C   0  0  0  0  0  0  0  0  0  0  0  0
   25.1843  -19.6670  -12.9213 O   0  0  0  0  0  0  0  0  0  0  0  0
   24.0793  -21.6516  -12.7555 N   0  0  0  0  0  0  0  0  0  0  0  0
   23.0195  -21.1877  -13.6153 C   0  0  1  0  0  0  0  0  0  0  0  0
   23.2635  -21.8118  -14.9650 C   0  0  0  0  0  0  0  0  0  0  0  0
   24.0938  -21.0101  -15.8994 C   0  0  0  0  0  0  0  0  0  0  0  0
   24.1849  -21.5227  -17.2711 C   0  0  0  0  0  0  0  0  0  0  0  0
   23.4839  -20.9448  -18.1426 O   0  0  0  0  0  0  0  0  0  0  0  0
   21.6609  -21.3627  -13.0967 C   0  0  0  0  0  0  0  0  0  0  0  0
   21.3861  -22.5435  -12.6937 O   0  0  0  0  0  0  0  0  0  0  0  0
   24.9626  -22.5767  -17.7058 O   0  0  0  0  0  0  0  0  0  0  0  0
   20.6533  -20.3604  -13.0055 N   0  0  0  0  0  0  0  0  0  0  0  0
   20.6888  -18.9887  -13.4202 C   0  0  0  0  0  0  0  0  0  0  0  0
   19.2317  -18.5870  -13.4433 C   0  0  0  0  0  0  0  0  0  0  0  0
   18.7338  -19.2622  -12.1783 C   0  0  0  0  0  0  0  0  0  0  0  0
   19.3440  -20.6483  -12.4021 C   0  0  1  0  0  0  0  0  0  0  0  0
   18.5268  -21.4223  -13.3690 C   0  0  0  0  0  0  0  0  0  0  0  0
   18.8422  -21.5861  -14.5726 O   0  0  0  0  0  0  0  0  0  0  0  0
   17.3449  -22.0113  -12.9504 O   0  0  0  0  0  0  0  0  0  0  0  0
  2  1  1  6
  2  3  1  0
  2 13  1  0
  3  4  1  0
  4  5  2  0
  5  6  1  0
  7  6  1  0
  8  7  2  0
  9  8  1  0
 10 11  1  0
 10  9  2  0
 11 12  2  0
 12  4  1  0
 12  7  1  0
 13 15  1  0
 13 14  2  0
 15 16  1  0
 16 17  1  6
 17 18  1  0
 18 19  1  0
 19 23  1  0
 20 19  2  0
 21 16  1  0
 21 22  2  0
 24 21  1  0
 25 24  1  0
 26 27  1  0
 26 25  1  0
 27 28  1  0
 28 24  1  0
 28 29  1  6
 29 31  1  0
 30 29  2  0
M  END
$$$$
