WEP.pdb
     RDKit          3D

 31 33  0  0  1  0  0  0  0  0999 V2000
   16.1105  -17.2033  -20.6374 N   0  0  0  0  0  0  0  0  0  0  0  0
   15.6705  -16.8954  -19.3139 C   0  0  1  0  0  0  0  0  0  0  0  0
   14.1396  -16.8261  -19.2396 C   0  0  0  0  0  0  0  0  0  0  0  0
   13.6008  -15.6473  -19.9314 C   0  0  0  0  0  0  0  0  0  0  0  0
   13.4206  -15.5041  -21.3088 C   0  0  0  0  0  0  0  0  0  0  0  0
   12.8737  -14.3054  -21.5450 N   0  0  0  0  0  0  0  0  0  0  0  0
   12.6866  -13.6511  -20.3775 C   0  0  0  0  0  0  0  0  0  0  0  0
   12.1761  -12.4138  -20.0516 C   0  0  0  0  0  0  0  0  0  0  0  0
   12.0960  -11.9640  -18.7679 C   0  0  0  0  0  0  0  0  0  0  0  0
   12.5497  -12.7990  -17.7793 C   0  0  0  0  0  0  0  0  0  0  0  0
   13.0726  -14.0526  -18.0397 C   0  0  0  0  0  0  0  0  0  0  0  0
   13.1439  -14.4930  -19.3599 C   0  0  0  0  0  0  0  0  0  0  0  0
   16.1696  -17.8519  -18.2935 C   0  0  0  0  0  0  0  0  0  0  0  0
   15.9992  -19.0955  -18.4919 O   0  0  0  0  0  0  0  0  0  0  0  0
   16.8324  -17.4963  -17.1008 N   0  0  0  0  0  0  0  0  0  0  0  0
   17.2724  -18.4863  -16.1500 C   0  0  1  0  0  0  0  0  0  0  0  0
   18.2941  -17.8090  -15.2735 C   0  0  0  0  0  0  0  0  0  0  0  0
   18.8901  -18.6594  -14.2120 C   0  0  0  0  0  0  0  0  0  0  0  0
   19.8062  -17.9791  -13.2898 C   0  0  0  0  0  0  0  0  0  0  0  0
   21.0339  -18.0342  -13.5628 O   0  0  0  0  0  0  0  0  0  0  0  0
   16.2087  -19.1834  -15.4235 C   0  0  0  0  0  0  0  0  0  0  0  0
   15.3802  -18.4213  -14.8193 O   0  0  0  0  0  0  0  0  0  0  0  0
   19.4593  -17.2826  -12.1498 O   0  0  0  0  0  0  0  0  0  0  0  0
   16.0248  -20.5930  -15.3373 N   0  0  0  0  0  0  0  0  0  0  0  0
   16.8511  -21.6542  -15.8330 C   0  0  0  0  0  0  0  0  0  0  0  0
   16.3564  -22.8695  -15.0824 C   0  0  0  0  0  0  0  0  0  0  0  0
   14.8575  -22.6341  -15.1230 C   0  0  0  0  0  0  0  0  0  0  0  0
   14.8428  -21.1689  -14.6798 C   0  0  1  0  0  0  0  0  0  0  0  0
   15.0140  -21.0725  -13.2089 C   0  0  0  0  0  0  0  0  0  0  0  0
   16.0880  -20.7359  -12.6538 O   0  0  0  0  0  0  0  0  0  0  0  0
   13.9469  -21.3618  -12.3743 O   0  0  0  0  0  0  0  0  0  0  0  0
  2  1  1  6
  2  3  1  0
  2 13  1  0
  3  4  1  0
  4  5  2  0
  5  6  1  0
  7  6  1  0
  8  7  2  0
  9  8  1  0
 10 11  1  0
 10  9  2  0
 11 12  2  0
 12  4  1  0
 12  7  1  0
 13 15  1  0
 13 14  2  0
 15 16  1  0
 16 17  1  1
 17 18  1  0
 18 19  1  0
 19 23  1  0
 20 19  2  0
 21 16  1  0
 21 22  2  0
 24 21  1  0
 25 24  1  0
 26 27  1  0
 26 25  1  0
 27 28  1  0
 28 24  1  0
 28 29  1  1
 29 31  1  0
 30 29  2  0
M  END
$$$$
