VNA.pdb
     RDKit          3D

 21 20  0  0  1  0  0  0  0  0999 V2000
   24.0829  -11.9375  -16.5802 C   0  0  0  0  0  0  0  0  0  0  0  0
   23.2669  -12.3760  -15.4082 C   0  0  2  0  0  0  0  0  0  0  0  0
   23.8071  -13.6956  -14.9193 C   0  0  0  0  0  0  0  0  0  0  0  0
   21.7948  -12.5028  -15.7090 C   0  0  2  0  0  0  0  0  0  0  0  0
   21.5946  -13.4663  -16.7747 N   0  0  0  0  0  0  0  0  0  0  0  0
   21.1843  -11.2087  -16.0932 C   0  0  0  0  0  0  0  0  0  0  0  0
   21.0694  -10.9016  -17.3065 O   0  0  0  0  0  0  0  0  0  0  0  0
   17.5921   -7.2614  -16.6886 N   0  0  0  0  0  0  0  0  0  0  0  0
   18.2400   -7.4653  -15.4329 C   0  0  0  0  0  0  0  0  0  0  0  0
   18.3227   -6.4861  -14.6526 O   0  0  0  0  0  0  0  0  0  0  0  0
   18.7769   -8.7951  -15.1085 C   0  0  0  0  0  0  0  0  0  0  0  0
   20.2156   -8.9374  -15.5390 C   0  0  2  0  0  0  0  0  0  0  0  0
   20.7026  -10.2565  -15.1553 N   0  0  0  0  0  0  0  0  0  0  0  0
   21.0303   -7.8698  -14.8647 C   0  0  0  0  0  0  0  0  0  0  0  0
   21.3751   -8.1065  -13.6909 O   0  0  0  0  0  0  0  0  0  0  0  0
   22.4882   -4.5235  -15.8549 C   0  0  0  0  0  0  0  0  0  0  0  0
   22.1581   -5.6514  -14.9243 C   0  0  2  0  0  0  0  0  0  0  0  0
   21.3782   -6.6803  -15.5231 N   0  0  0  0  0  0  0  0  0  0  0  0
   21.6094   -5.1097  -13.6511 C   0  0  0  0  0  0  0  0  0  0  0  0
   22.3864   -4.7368  -12.7568 O   0  0  0  0  0  0  0  0  0  0  0  0
   20.2446   -5.0167  -13.4524 O   0  0  0  0  0  0  0  0  0  0  0  0
  2  1  1  6
  2  4  1  0
  3  2  1  0
  4  6  1  0
  4  5  1  6
  6  7  2  0
  8  9  1  0
  9 10  2  0
  9 11  1  0
 12 11  1  1
 12 14  1  0
 13 12  1  0
 13  6  1  0
 14 15  2  0
 14 18  1  0
 17 16  1  6
 17 19  1  0
 18 17  1  0
 19 20  2  0
 19 21  1  0
M  END
$$$$
