VNA.pdb
     RDKit          3D

 21 20  0  0  1  0  0  0  0  0999 V2000
   27.5770  -10.6500  -17.4768 C   0  0  0  0  0  0  0  0  0  0  0  0
   27.3588  -10.9077  -16.0215 C   0  0  2  0  0  0  0  0  0  0  0  0
   28.4414  -11.8372  -15.5354 C   0  0  0  0  0  0  0  0  0  0  0  0
   26.0032  -11.4878  -15.7061 C   0  0  2  0  0  0  0  0  0  0  0  0
   25.8851  -12.8058  -16.3002 N   0  0  0  0  0  0  0  0  0  0  0  0
   24.8964  -10.6288  -16.1877 C   0  0  0  0  0  0  0  0  0  0  0  0
   24.2906  -10.9180  -17.2502 O   0  0  0  0  0  0  0  0  0  0  0  0
   20.4950   -9.8149  -15.4202 N   0  0  0  0  0  0  0  0  0  0  0  0
   21.5847   -9.4782  -14.5614 C   0  0  0  0  0  0  0  0  0  0  0  0
   21.7813  -10.2027  -13.5559 O   0  0  0  0  0  0  0  0  0  0  0  0
   22.4211   -8.3129  -14.8844 C   0  0  0  0  0  0  0  0  0  0  0  0
   23.3822   -8.6090  -16.0087 C   0  0  2  0  0  0  0  0  0  0  0  0
   24.4553   -9.4603  -15.5105 N   0  0  0  0  0  0  0  0  0  0  0  0
   23.9458   -7.3122  -16.5176 C   0  0  0  0  0  0  0  0  0  0  0  0
   24.7820   -6.7545  -15.7812 O   0  0  0  0  0  0  0  0  0  0  0  0
   23.6545   -5.2875  -19.6961 C   0  0  0  0  0  0  0  0  0  0  0  0
   24.1100   -5.5806  -18.2983 C   0  0  2  0  0  0  0  0  0  0  0  0
   23.5496   -6.7678  -17.7488 N   0  0  0  0  0  0  0  0  0  0  0  0
   23.9555   -4.3652  -17.4530 C   0  0  0  0  0  0  0  0  0  0  0  0
   23.0764   -4.3344  -16.5761 O   0  0  0  0  0  0  0  0  0  0  0  0
   24.7794   -3.2698  -17.6326 O   0  0  0  0  0  0  0  0  0  0  0  0
  2  1  1  6
  2  4  1  0
  3  2  1  0
  4  6  1  0
  4  5  1  6
  6  7  2  0
  8  9  1  0
  9 10  2  0
  9 11  1  0
 12 11  1  1
 12 14  1  0
 13 12  1  0
 13  6  1  0
 14 15  2  0
 14 18  1  0
 17 16  1  6
 17 19  1  0
 18 17  1  0
 19 20  2  0
 19 21  1  0
M  END
$$$$
