VNA.pdb
     RDKit          3D

 21 20  0  0  1  0  0  0  0  0999 V2000
   26.6605  -13.6211  -16.8593 C   0  0  0  0  0  0  0  0  0  0  0  0
   25.9829  -14.1413  -15.6337 C   0  0  2  0  0  0  0  0  0  0  0  0
   26.8949  -15.1451  -14.9757 C   0  0  0  0  0  0  0  0  0  0  0  0
   24.6388  -14.7684  -15.9051 C   0  0  2  0  0  0  0  0  0  0  0  0
   24.8087  -15.9555  -16.7212 N   0  0  0  0  0  0  0  0  0  0  0  0
   23.7073  -13.8350  -16.5804 C   0  0  0  0  0  0  0  0  0  0  0  0
   23.6153  -13.8332  -17.8339 O   0  0  0  0  0  0  0  0  0  0  0  0
   20.1954  -10.4684  -17.9691 N   0  0  0  0  0  0  0  0  0  0  0  0
   19.6733  -11.6037  -17.2787 C   0  0  0  0  0  0  0  0  0  0  0  0
   18.4341  -11.7955  -17.3236 O   0  0  0  0  0  0  0  0  0  0  0  0
   20.5949  -12.4903  -16.5530 C   0  0  0  0  0  0  0  0  0  0  0  0
   22.0072  -11.9604  -16.5663 C   0  0  2  0  0  0  0  0  0  0  0  0
   22.8815  -12.9091  -15.8880 N   0  0  0  0  0  0  0  0  0  0  0  0
   22.0336  -10.6356  -15.8575 C   0  0  0  0  0  0  0  0  0  0  0  0
   21.9675  -10.6809  -14.6140 O   0  0  0  0  0  0  0  0  0  0  0  0
   22.4925   -7.0233  -16.8690 C   0  0  0  0  0  0  0  0  0  0  0  0
   22.2156   -8.1540  -15.9245 C   0  0  2  0  0  0  0  0  0  0  0  0
   22.1272   -9.4244  -16.5598 N   0  0  0  0  0  0  0  0  0  0  0  0
   21.0614   -7.8088  -15.0503 C   0  0  0  0  0  0  0  0  0  0  0  0
   19.9381   -8.2744  -15.3035 O   0  0  0  0  0  0  0  0  0  0  0  0
   21.2251   -6.9756  -13.9595 O   0  0  0  0  0  0  0  0  0  0  0  0
  2  1  1  6
  2  4  1  0
  3  2  1  0
  4  6  1  0
  4  5  1  6
  6  7  2  0
  8  9  1  0
  9 10  2  0
  9 11  1  0
 12 11  1  1
 12 14  1  0
 13 12  1  0
 13  6  1  0
 14 15  2  0
 14 18  1  0
 17 16  1  6
 17 19  1  0
 18 17  1  0
 19 20  2  0
 19 21  1  0
M  END
$$$$
