VNA.pdb
     RDKit          3D

 21 20  0  0  1  0  0  0  0  0999 V2000
   15.8003  -11.6518  -14.5039 C   0  0  0  0  0  0  0  0  0  0  0  0
   16.4987  -11.0626  -15.6857 C   0  0  2  0  0  0  0  0  0  0  0  0
   17.1049  -12.1852  -16.4885 C   0  0  0  0  0  0  0  0  0  0  0  0
   17.5627  -10.0582  -15.3214 C   0  0  2  0  0  0  0  0  0  0  0  0
   18.6164  -10.7129  -14.5698 N   0  0  0  0  0  0  0  0  0  0  0  0
   17.0232   -8.9270  -14.5314 C   0  0  0  0  0  0  0  0  0  0  0  0
   16.1379   -8.1814  -15.0213 O   0  0  0  0  0  0  0  0  0  0  0  0
   16.0869   -5.4518  -10.8359 N   0  0  0  0  0  0  0  0  0  0  0  0
   16.9148   -6.4416  -10.2251 C   0  0  0  0  0  0  0  0  0  0  0  0
   17.1732   -6.3142   -9.0039 O   0  0  0  0  0  0  0  0  0  0  0  0
   17.4245   -7.5547  -11.0394 C   0  0  0  0  0  0  0  0  0  0  0  0
   16.9605   -7.4581  -12.4715 C   0  0  2  0  0  0  0  0  0  0  0  0
   17.4500   -8.6136  -13.2129 N   0  0  0  0  0  0  0  0  0  0  0  0
   17.5032   -6.1917  -13.0715 C   0  0  0  0  0  0  0  0  0  0  0  0
   18.7449   -6.1028  -13.1269 O   0  0  0  0  0  0  0  0  0  0  0  0
   16.2643   -3.4833  -15.2651 C   0  0  0  0  0  0  0  0  0  0  0  0
   17.1302   -3.9774  -14.1456 C   0  0  2  0  0  0  0  0  0  0  0  0
   16.6570   -5.1747  -13.5391 N   0  0  0  0  0  0  0  0  0  0  0  0
   17.4127   -2.8644  -13.1986 C   0  0  0  0  0  0  0  0  0  0  0  0
   16.9691   -2.9164  -12.0396 O   0  0  0  0  0  0  0  0  0  0  0  0
   18.1632   -1.7730  -13.5941 O   0  0  0  0  0  0  0  0  0  0  0  0
  2  1  1  1
  2  4  1  0
  3  2  1  0
  4  6  1  0
  4  5  1  1
  6  7  2  0
  8  9  1  0
  9 10  2  0
  9 11  1  0
 12 11  1  1
 12 14  1  0
 13 12  1  0
 13  6  1  0
 14 15  2  0
 14 18  1  0
 17 16  1  6
 17 19  1  0
 18 17  1  0
 19 20  2  0
 19 21  1  0
M  END
$$$$
