VNA.pdb
     RDKit          3D

 21 20  0  0  1  0  0  0  0  0999 V2000
   13.5502  -12.1318  -10.1641 C   0  0  0  0  0  0  0  0  0  0  0  0
   13.4202  -11.5868  -11.5489 C   0  0  2  0  0  0  0  0  0  0  0  0
   12.5003  -12.4893  -12.3309 C   0  0  0  0  0  0  0  0  0  0  0  0
   14.7369  -11.4455  -12.2700 C   0  0  2  0  0  0  0  0  0  0  0  0
   15.4000  -12.7340  -12.3342 N   0  0  0  0  0  0  0  0  0  0  0  0
   15.6332  -10.4616  -11.6193 C   0  0  0  0  0  0  0  0  0  0  0  0
   16.5588  -10.8543  -10.8652 O   0  0  0  0  0  0  0  0  0  0  0  0
   19.5666   -8.0655  -12.3383 N   0  0  0  0  0  0  0  0  0  0  0  0
   18.2149   -8.1823  -12.7827 C   0  0  0  0  0  0  0  0  0  0  0  0
   17.9689   -9.0100  -13.6931 O   0  0  0  0  0  0  0  0  0  0  0  0
   17.1797   -7.3404  -12.1650 C   0  0  0  0  0  0  0  0  0  0  0  0
   16.3897   -8.0973  -11.1266 C   0  0  2  0  0  0  0  0  0  0  0  0
   15.5173   -9.0562  -11.7929 N   0  0  0  0  0  0  0  0  0  0  0  0
   15.5707   -7.1184  -10.3333 C   0  0  0  0  0  0  0  0  0  0  0  0
   14.7045   -6.4892  -10.9707 O   0  0  0  0  0  0  0  0  0  0  0  0
   15.3084   -6.0955   -6.7036 C   0  0  0  0  0  0  0  0  0  0  0  0
   15.0261   -6.0076   -8.1732 C   0  0  2  0  0  0  0  0  0  0  0  0
   15.7746   -6.9292   -8.9579 N   0  0  0  0  0  0  0  0  0  0  0  0
   15.1127   -4.5901   -8.6189 C   0  0  0  0  0  0  0  0  0  0  0  0
   14.3241   -3.7507   -8.1541 O   0  0  0  0  0  0  0  0  0  0  0  0
   16.0611   -4.1968   -9.5445 O   0  0  0  0  0  0  0  0  0  0  0  0
  2  1  1  1
  2  4  1  0
  3  2  1  0
  4  6  1  0
  4  5  1  1
  6  7  2  0
  8  9  1  0
  9 10  2  0
  9 11  1  0
 12 11  1  6
 12 14  1  0
 13 12  1  0
 13  6  1  0
 14 15  2  0
 14 18  1  0
 17 16  1  1
 17 19  1  0
 18 17  1  0
 19 20  2  0
 19 21  1  0
M  END
$$$$
