VNA.pdb
     RDKit          3D

 21 20  0  0  1  0  0  0  0  0999 V2000
   29.6637  -19.5773  -13.6550 C   0  0  0  0  0  0  0  0  0  0  0  0
   29.5367  -19.8577  -12.1931 C   0  0  2  0  0  0  0  0  0  0  0  0
   30.8831  -19.6456  -11.5493 C   0  0  0  0  0  0  0  0  0  0  0  0
   29.0320  -21.2447  -11.8844 C   0  0  2  0  0  0  0  0  0  0  0  0
   29.9420  -22.2303  -12.4362 N   0  0  0  0  0  0  0  0  0  0  0  0
   27.6691  -21.4799  -12.4156 C   0  0  0  0  0  0  0  0  0  0  0  0
   27.5140  -22.0705  -13.5142 O   0  0  0  0  0  0  0  0  0  0  0  0
   21.6978  -20.5450  -11.3366 N   0  0  0  0  0  0  0  0  0  0  0  0
   22.7695  -21.4234  -11.6801 C   0  0  0  0  0  0  0  0  0  0  0  0
   22.4993  -22.4280  -12.3817 O   0  0  0  0  0  0  0  0  0  0  0  0
   24.1276  -21.1206  -11.2050 C   0  0  0  0  0  0  0  0  0  0  0  0
   25.1499  -21.2656  -12.3047 C   0  0  2  0  0  0  0  0  0  0  0  0
   26.4831  -21.0712  -11.7486 N   0  0  0  0  0  0  0  0  0  0  0  0
   24.8749  -20.2321  -13.3603 C   0  0  0  0  0  0  0  0  0  0  0  0
   25.0482  -19.0459  -13.0206 O   0  0  0  0  0  0  0  0  0  0  0  0
   25.4268  -19.5278  -16.6271 C   0  0  0  0  0  0  0  0  0  0  0  0
   24.2554  -19.6479  -15.6994 C   0  0  2  0  0  0  0  0  0  0  0  0
   24.4488  -20.5884  -14.6490 N   0  0  0  0  0  0  0  0  0  0  0  0
   23.0065  -19.8360  -16.4870 C   0  0  0  0  0  0  0  0  0  0  0  0
   22.2530  -20.7882  -16.2257 O   0  0  0  0  0  0  0  0  0  0  0  0
   22.6753  -18.9630  -17.5064 O   0  0  0  0  0  0  0  0  0  0  0  0
  2  1  1  6
  2  4  1  0
  3  2  1  0
  4  6  1  0
  4  5  1  6
  6  7  2  0
  8  9  1  0
  9 10  2  0
  9 11  1  0
 12 11  1  1
 12 14  1  0
 13 12  1  0
 13  6  1  0
 14 15  2  0
 14 18  1  0
 17 16  1  6
 17 19  1  0
 18 17  1  0
 19 20  2  0
 19 21  1  0
M  END
$$$$
