VNA.pdb
     RDKit          3D

 21 20  0  0  1  0  0  0  0  0999 V2000
   20.6107  -14.9033  -17.6152 C   0  0  0  0  0  0  0  0  0  0  0  0
   21.6805  -14.9037  -18.6579 C   0  0  2  0  0  0  0  0  0  0  0  0
   21.3702  -15.9887  -19.6573 C   0  0  0  0  0  0  0  0  0  0  0  0
   23.0682  -15.0990  -18.1014 C   0  0  2  0  0  0  0  0  0  0  0  0
   23.1587  -16.3951  -17.4567 N   0  0  0  0  0  0  0  0  0  0  0  0
   23.4421  -14.0403  -17.1348 C   0  0  0  0  0  0  0  0  0  0  0  0
   23.0892  -14.1318  -15.9320 O   0  0  0  0  0  0  0  0  0  0  0  0
   26.9249  -10.5907  -14.5702 N   0  0  0  0  0  0  0  0  0  0  0  0
   26.2642  -10.2769  -15.7962 C   0  0  0  0  0  0  0  0  0  0  0  0
   26.0098   -9.0707  -16.0304 O   0  0  0  0  0  0  0  0  0  0  0  0
   25.9133  -11.3636  -16.7225 C   0  0  0  0  0  0  0  0  0  0  0  0
   24.4839  -11.8110  -16.5434 C   0  0  2  0  0  0  0  0  0  0  0  0
   24.1976  -12.8884  -17.4825 N   0  0  0  0  0  0  0  0  0  0  0  0
   23.5750  -10.6432  -16.8044 C   0  0  0  0  0  0  0  0  0  0  0  0
   23.4365  -10.3160  -17.9987 O   0  0  0  0  0  0  0  0  0  0  0  0
   20.5788   -9.3291  -16.0531 C   0  0  0  0  0  0  0  0  0  0  0  0
   22.0113   -8.8952  -15.9704 C   0  0  2  0  0  0  0  0  0  0  0  0
   22.9246   -9.9664  -15.7613 N   0  0  0  0  0  0  0  0  0  0  0  0
   22.1405   -7.7650  -15.0104 C   0  0  0  0  0  0  0  0  0  0  0  0
   22.8721   -7.8859  -14.0140 O   0  0  0  0  0  0  0  0  0  0  0  0
   21.4554   -6.5819  -15.2149 O   0  0  0  0  0  0  0  0  0  0  0  0
  2  1  1  1
  2  4  1  0
  3  2  1  0
  4  6  1  0
  4  5  1  1
  6  7  2  0
  8  9  1  0
  9 10  2  0
  9 11  1  0
 12 11  1  6
 12 14  1  0
 13 12  1  0
 13  6  1  0
 14 15  2  0
 14 18  1  0
 17 16  1  1
 17 19  1  0
 18 17  1  0
 19 20  2  0
 19 21  1  0
M  END
$$$$
