VNA.pdb
     RDKit          3D

 21 20  0  0  1  0  0  0  0  0999 V2000
   19.4050  -12.3460  -18.8644 C   0  0  0  0  0  0  0  0  0  0  0  0
   19.1045  -11.0641  -18.1586 C   0  0  2  0  0  0  0  0  0  0  0  0
   18.6465  -10.0547  -19.1801 C   0  0  0  0  0  0  0  0  0  0  0  0
   20.2725  -10.5137  -17.3797 C   0  0  2  0  0  0  0  0  0  0  0  0
   20.8020  -11.5399  -16.5018 N   0  0  0  0  0  0  0  0  0  0  0  0
   19.9052   -9.3220  -16.5799 C   0  0  0  0  0  0  0  0  0  0  0  0
   19.4409   -8.3009  -17.1469 O   0  0  0  0  0  0  0  0  0  0  0  0
   17.1764   -8.9140  -13.9138 N   0  0  0  0  0  0  0  0  0  0  0  0
   18.0471   -8.8671  -12.7834 C   0  0  0  0  0  0  0  0  0  0  0  0
   17.5741   -9.1934  -11.6679 O   0  0  0  0  0  0  0  0  0  0  0  0
   19.4432   -8.4446  -12.9683 C   0  0  0  0  0  0  0  0  0  0  0  0
   19.7242   -8.0530  -14.3978 C   0  0  2  0  0  0  0  0  0  0  0  0
   20.0452   -9.2481  -15.1679 N   0  0  0  0  0  0  0  0  0  0  0  0
   20.8842   -7.0980  -14.4187 C   0  0  0  0  0  0  0  0  0  0  0  0
   21.9952   -7.5828  -14.1300 O   0  0  0  0  0  0  0  0  0  0  0  0
   21.8878   -4.0626  -16.0878 C   0  0  0  0  0  0  0  0  0  0  0  0
   21.7936   -4.8111  -14.7924 C   0  0  2  0  0  0  0  0  0  0  0  0
   20.7191   -5.7431  -14.7446 N   0  0  0  0  0  0  0  0  0  0  0  0
   21.8446   -3.8546  -13.6532 C   0  0  0  0  0  0  0  0  0  0  0  0
   20.8628   -3.7423  -12.9007 O   0  0  0  0  0  0  0  0  0  0  0  0
   22.9725   -3.0892  -13.4227 O   0  0  0  0  0  0  0  0  0  0  0  0
  2  1  1  6
  2  4  1  0
  3  2  1  0
  4  6  1  0
  4  5  1  1
  6  7  2  0
  8  9  1  0
  9 10  2  0
  9 11  1  0
 12 11  1  1
 12 14  1  0
 13 12  1  0
 13  6  1  0
 14 15  2  0
 14 18  1  0
 17 16  1  6
 17 19  1  0
 18 17  1  0
 19 20  2  0
 19 21  1  0
M  END
$$$$
