VNA.pdb
     RDKit          3D

 21 20  0  0  1  0  0  0  0  0999 V2000
   19.0993  -18.0454  -16.2023 C   0  0  0  0  0  0  0  0  0  0  0  0
   19.9766  -16.9706  -15.6483 C   0  0  2  0  0  0  0  0  0  0  0  0
   19.5391  -15.6514  -16.2320 C   0  0  0  0  0  0  0  0  0  0  0  0
   21.4444  -17.1895  -15.9155 C   0  0  2  0  0  0  0  0  0  0  0  0
   21.8553  -18.4690  -15.3695 N   0  0  0  0  0  0  0  0  0  0  0  0
   22.2881  -16.1150  -15.3423 C   0  0  0  0  0  0  0  0  0  0  0  0
   22.3718  -15.9765  -14.0959 O   0  0  0  0  0  0  0  0  0  0  0  0
   27.0108  -13.4955  -14.6209 N   0  0  0  0  0  0  0  0  0  0  0  0
   26.0867  -13.1052  -15.6366 C   0  0  0  0  0  0  0  0  0  0  0  0
   26.0769  -11.8999  -15.9854 O   0  0  0  0  0  0  0  0  0  0  0  0
   25.1961  -14.1162  -16.2252 C   0  0  0  0  0  0  0  0  0  0  0  0
   23.8460  -14.1317  -15.5524 C   0  0  2  0  0  0  0  0  0  0  0  0
   23.0356  -15.1975  -16.1285 N   0  0  0  0  0  0  0  0  0  0  0  0
   23.1813  -12.8018  -15.7709 C   0  0  0  0  0  0  0  0  0  0  0  0
   22.6497  -12.6342  -16.8853 O   0  0  0  0  0  0  0  0  0  0  0  0
   22.3677   -9.8092  -13.6156 C   0  0  0  0  0  0  0  0  0  0  0  0
   22.4302  -10.5988  -14.8883 C   0  0  2  0  0  0  0  0  0  0  0  0
   23.1641  -11.8129  -14.7754 N   0  0  0  0  0  0  0  0  0  0  0  0
   22.8502   -9.7146  -16.0095 C   0  0  0  0  0  0  0  0  0  0  0  0
   23.8871   -9.9747  -16.6419 O   0  0  0  0  0  0  0  0  0  0  0  0
   22.0994   -8.6065  -16.3554 O   0  0  0  0  0  0  0  0  0  0  0  0
  2  1  1  6
  2  4  1  0
  3  2  1  0
  4  6  1  0
  4  5  1  1
  6  7  2  0
  8  9  1  0
  9 10  2  0
  9 11  1  0
 12 11  1  6
 12 14  1  0
 13 12  1  0
 13  6  1  0
 14 15  2  0
 14 18  1  0
 17 16  1  1
 17 19  1  0
 18 17  1  0
 19 20  2  0
 19 21  1  0
M  END
$$$$
