QEH.pdb
     RDKit          3D

 29 29  0  0  1  0  0  0  0  0999 V2000
   31.8307  -23.8266  -20.1897 N   0  0  0  0  0  0  0  0  0  0  0  0
   32.8221  -22.8573  -19.7605 C   0  0  0  0  0  0  0  0  0  0  0  0
   32.3529  -21.7452  -19.4783 O   0  0  0  0  0  0  0  0  0  0  0  0
   34.2269  -23.2800  -19.7117 C   0  0  0  0  0  0  0  0  0  0  0  0
   34.4483  -24.6769  -20.1143 C   0  0  0  0  0  0  0  0  0  0  0  0
   33.9831  -25.7641  -19.2152 C   0  0  2  0  0  0  0  0  0  0  0  0
   34.5070  -25.4824  -17.8432 N   0  0  0  0  0  0  0  0  0  0  0  0
   34.3385  -27.1324  -19.5322 C   0  0  0  0  0  0  0  0  0  0  0  0
   34.7318  -27.4412  -20.6785 O   0  0  0  0  0  0  0  0  0  0  0  0
   34.2536  -28.1711  -18.5343 N   0  0  0  0  0  0  0  0  0  0  0  0
   34.6622  -29.5154  -18.8148 C   0  0  1  0  0  0  0  0  0  0  0  0
   35.1912  -30.2492  -17.6433 C   0  0  0  0  0  0  0  0  0  0  0  0
   35.5969  -31.6500  -17.7610 C   0  0  0  0  0  0  0  0  0  0  0  0
   36.0270  -32.3329  -16.5243 C   0  0  0  0  0  0  0  0  0  0  0  0
   35.7539  -31.9633  -15.3737 O   0  0  0  0  0  0  0  0  0  0  0  0
   33.6354  -30.2621  -19.5718 C   0  0  0  0  0  0  0  0  0  0  0  0
   32.4382  -30.1549  -19.2666 O   0  0  0  0  0  0  0  0  0  0  0  0
   36.8134  -33.5045  -16.5954 O   0  0  0  0  0  0  0  0  0  0  0  0
   34.0241  -31.0933  -20.6379 N   0  0  0  0  0  0  0  0  0  0  0  0
   32.9764  -31.7940  -21.4138 C   0  0  1  0  0  0  0  0  0  0  0  0
   32.1053  -30.7411  -22.0257 C   0  0  0  0  0  0  0  0  0  0  0  0
   31.1611  -31.2200  -23.0433 C   0  0  0  0  0  0  0  0  0  0  0  0
   30.6460  -32.4616  -23.2867 C   0  0  0  0  0  0  0  0  0  0  0  0
   29.7342  -32.4268  -24.2981 N   0  0  0  0  0  0  0  0  0  0  0  0
   29.6899  -31.1499  -24.6762 C   0  0  0  0  0  0  0  0  0  0  0  0
   30.5190  -30.4069  -23.9574 N   0  0  0  0  0  0  0  0  0  0  0  0
   33.7250  -32.5457  -22.4671 C   0  0  0  0  0  0  0  0  0  0  0  0
   34.9580  -32.5947  -22.4464 O   0  0  0  0  0  0  0  0  0  0  0  0
   32.9855  -33.1928  -23.4775 O   0  0  0  0  0  0  0  0  0  0  0  0
  2  3  2  0
  2  1  1  0
  4  2  1  0
  5  4  1  0
  5  6  1  0
  6  8  1  0
  6  7  1  1
  8  9  2  0
 10 11  1  0
 10  8  1  0
 11 12  1  1
 12 13  1  0
 13 14  1  0
 14 18  1  0
 14 15  2  0
 16 19  1  0
 16 11  1  0
 17 16  2  0
 20 21  1  6
 20 19  1  0
 21 22  1  0
 22 23  2  0
 22 26  1  0
 23 24  1  0
 24 25  1  0
 26 25  2  0
 27 29  1  0
 27 20  1  0
 28 27  2  0
M  END
$$$$
