QEH.pdb
     RDKit          3D

 29 29  0  0  1  0  0  0  0  0999 V2000
   18.2132  -14.0951  -17.1961 N   0  0  0  0  0  0  0  0  0  0  0  0
   19.1889  -15.0575  -16.7180 C   0  0  0  0  0  0  0  0  0  0  0  0
   18.7235  -16.1868  -16.5066 O   0  0  0  0  0  0  0  0  0  0  0  0
   20.5741  -14.6067  -16.5379 C   0  0  0  0  0  0  0  0  0  0  0  0
   20.7757  -13.1711  -16.7847 C   0  0  0  0  0  0  0  0  0  0  0  0
   22.1410  -12.6039  -16.6396 C   0  0  2  0  0  0  0  0  0  0  0  0
   22.9209  -13.5068  -15.7379 N   0  0  0  0  0  0  0  0  0  0  0  0
   22.2868  -11.2586  -16.1221 C   0  0  0  0  0  0  0  0  0  0  0  0
   22.2007  -11.0332  -14.8950 O   0  0  0  0  0  0  0  0  0  0  0  0
   22.5403  -10.1471  -17.0065 N   0  0  0  0  0  0  0  0  0  0  0  0
   22.6270   -8.8036  -16.5162 C   0  0  1  0  0  0  0  0  0  0  0  0
   23.7395   -8.0149  -17.0917 C   0  0  0  0  0  0  0  0  0  0  0  0
   23.9645   -6.6297  -16.6778 C   0  0  0  0  0  0  0  0  0  0  0  0
   25.0827   -5.9086  -17.3183 C   0  0  0  0  0  0  0  0  0  0  0  0
   25.9060   -6.4139  -18.0940 O   0  0  0  0  0  0  0  0  0  0  0  0
   21.3218   -8.1112  -16.5578 C   0  0  0  0  0  0  0  0  0  0  0  0
   20.6630   -8.0899  -17.6083 O   0  0  0  0  0  0  0  0  0  0  0  0
   25.2799   -4.5327  -17.0648 O   0  0  0  0  0  0  0  0  0  0  0  0
   20.8328   -7.4779  -15.4009 N   0  0  0  0  0  0  0  0  0  0  0  0
   19.5888   -6.6816  -15.4960 C   0  0  1  0  0  0  0  0  0  0  0  0
   18.5742   -7.3461  -14.6179 C   0  0  0  0  0  0  0  0  0  0  0  0
   17.7992   -8.4191  -15.2538 C   0  0  0  0  0  0  0  0  0  0  0  0
   17.9093   -9.0099  -16.4806 C   0  0  0  0  0  0  0  0  0  0  0  0
   17.0156  -10.0285  -16.6187 N   0  0  0  0  0  0  0  0  0  0  0  0
   16.3528  -10.0621  -15.4633 C   0  0  0  0  0  0  0  0  0  0  0  0
   16.7882   -9.1264  -14.6320 N   0  0  0  0  0  0  0  0  0  0  0  0
   19.9591   -5.3362  -14.9600 C   0  0  0  0  0  0  0  0  0  0  0  0
   21.0931   -5.1261  -14.5207 O   0  0  0  0  0  0  0  0  0  0  0  0
   18.9812   -4.3213  -14.9715 O   0  0  0  0  0  0  0  0  0  0  0  0
  2  3  2  0
  2  1  1  0
  4  2  1  0
  5  4  1  0
  5  6  1  0
  6  8  1  0
  6  7  1  1
  8  9  2  0
 10 11  1  0
 10  8  1  0
 11 12  1  6
 12 13  1  0
 13 14  1  0
 14 18  1  0
 14 15  2  0
 16 19  1  0
 16 11  1  0
 17 16  2  0
 20 21  1  1
 20 19  1  0
 21 22  1  0
 22 23  2  0
 22 26  1  0
 23 24  1  0
 24 25  1  0
 26 25  2  0
 27 29  1  0
 27 20  1  0
 28 27  2  0
M  END
$$$$
