QEH.pdb
     RDKit          3D

 29 29  0  0  1  0  0  0  0  0999 V2000
   18.0478  -12.4505  -16.6359 N   0  0  0  0  0  0  0  0  0  0  0  0
   19.2026  -13.1613  -17.1535 C   0  0  0  0  0  0  0  0  0  0  0  0
   18.9426  -13.9395  -18.0827 O   0  0  0  0  0  0  0  0  0  0  0  0
   20.5098  -12.8959  -16.5409 C   0  0  0  0  0  0  0  0  0  0  0  0
   20.4773  -11.8925  -15.4664 C   0  0  0  0  0  0  0  0  0  0  0  0
   21.3471  -10.6935  -15.5791 C   0  0  2  0  0  0  0  0  0  0  0  0
   22.7680  -11.1422  -15.4524 N   0  0  0  0  0  0  0  0  0  0  0  0
   21.1607   -9.6052  -14.6412 C   0  0  0  0  0  0  0  0  0  0  0  0
   21.4363   -9.7510  -13.4301 O   0  0  0  0  0  0  0  0  0  0  0  0
   20.6588   -8.3255  -15.0801 N   0  0  0  0  0  0  0  0  0  0  0  0
   20.4510   -7.2464  -14.1607 C   0  0  1  0  0  0  0  0  0  0  0  0
   20.9243   -5.9310  -14.6471 C   0  0  0  0  0  0  0  0  0  0  0  0
   20.6836   -4.7164  -13.8677 C   0  0  0  0  0  0  0  0  0  0  0  0
   21.2061   -3.4491  -14.4168 C   0  0  0  0  0  0  0  0  0  0  0  0
   21.9386   -3.3510  -15.4112 O   0  0  0  0  0  0  0  0  0  0  0  0
   19.0710   -7.2247  -13.6316 C   0  0  0  0  0  0  0  0  0  0  0  0
   18.1123   -7.4419  -14.3876 O   0  0  0  0  0  0  0  0  0  0  0  0
   20.8790   -2.2194  -13.8028 O   0  0  0  0  0  0  0  0  0  0  0  0
   18.8527   -6.9567  -12.2681 N   0  0  0  0  0  0  0  0  0  0  0  0
   17.4608   -6.8333  -11.7800 C   0  0  1  0  0  0  0  0  0  0  0  0
   17.4518   -7.2996  -10.3572 C   0  0  0  0  0  0  0  0  0  0  0  0
   16.1920   -7.0856   -9.6337 C   0  0  0  0  0  0  0  0  0  0  0  0
   14.9749   -6.6275  -10.0521 C   0  0  0  0  0  0  0  0  0  0  0  0
   14.0607   -6.6661   -9.0430 N   0  0  0  0  0  0  0  0  0  0  0  0
   14.7254   -7.1546   -7.9966 C   0  0  0  0  0  0  0  0  0  0  0  0
   15.9871   -7.4146   -8.3075 N   0  0  0  0  0  0  0  0  0  0  0  0
   17.1587   -5.3717  -11.8645 C   0  0  0  0  0  0  0  0  0  0  0  0
   18.0726   -4.5429  -11.8970 O   0  0  0  0  0  0  0  0  0  0  0  0
   15.8081   -4.9711  -11.9060 O   0  0  0  0  0  0  0  0  0  0  0  0
  2  3  2  0
  2  1  1  0
  4  2  1  0
  5  4  1  0
  5  6  1  0
  6  8  1  0
  6  7  1  1
  8  9  2  0
 10 11  1  0
 10  8  1  0
 11 12  1  6
 12 13  1  0
 13 14  1  0
 14 18  1  0
 14 15  2  0
 16 19  1  0
 16 11  1  0
 17 16  2  0
 20 21  1  1
 20 19  1  0
 21 22  1  0
 22 23  2  0
 22 26  1  0
 23 24  1  0
 24 25  1  0
 26 25  2  0
 27 29  1  0
 27 20  1  0
 28 27  2  0
M  END
$$$$
