QEH.pdb
     RDKit          3D

 29 29  0  0  1  0  0  0  0  0999 V2000
   28.0982  -10.2237  -16.7570 N   0  0  0  0  0  0  0  0  0  0  0  0
   28.7293  -11.5299  -16.7099 C   0  0  0  0  0  0  0  0  0  0  0  0
   29.8365  -11.5768  -17.2652 O   0  0  0  0  0  0  0  0  0  0  0  0
   28.0131  -12.6202  -16.0369 C   0  0  0  0  0  0  0  0  0  0  0  0
   26.7309  -12.2183  -15.4397 C   0  0  0  0  0  0  0  0  0  0  0  0
   25.4856  -12.8842  -15.9009 C   0  0  2  0  0  0  0  0  0  0  0  0
   25.8275  -13.7288  -17.0867 N   0  0  0  0  0  0  0  0  0  0  0  0
   24.3529  -12.0631  -16.2773 C   0  0  0  0  0  0  0  0  0  0  0  0
   24.1776  -11.7234  -17.4680 O   0  0  0  0  0  0  0  0  0  0  0  0
   23.3966  -11.6215  -15.2913 N   0  0  0  0  0  0  0  0  0  0  0  0
   22.2487  -10.8451  -15.6552 C   0  0  1  0  0  0  0  0  0  0  0  0
   20.9530  -11.4866  -15.3383 C   0  0  0  0  0  0  0  0  0  0  0  0
   19.6915  -10.8360  -15.6933 C   0  0  0  0  0  0  0  0  0  0  0  0
   18.4462  -11.4926  -15.2475 C   0  0  0  0  0  0  0  0  0  0  0  0
   17.7457  -11.1215  -14.2953 O   0  0  0  0  0  0  0  0  0  0  0  0
   22.3518   -9.4470  -15.1869 C   0  0  0  0  0  0  0  0  0  0  0  0
   22.7052   -9.2062  -14.0228 O   0  0  0  0  0  0  0  0  0  0  0  0
   17.9657  -12.6381  -15.9207 O   0  0  0  0  0  0  0  0  0  0  0  0
   22.0471   -8.3937  -16.0679 N   0  0  0  0  0  0  0  0  0  0  0  0
   22.2078   -7.0002  -15.5955 C   0  0  1  0  0  0  0  0  0  0  0  0
   22.2510   -6.1270  -16.8110 C   0  0  0  0  0  0  0  0  0  0  0  0
   22.4319   -4.6935  -16.5489 C   0  0  0  0  0  0  0  0  0  0  0  0
   22.9801   -4.0298  -15.4882 C   0  0  0  0  0  0  0  0  0  0  0  0
   23.0078   -2.6860  -15.7091 N   0  0  0  0  0  0  0  0  0  0  0  0
   22.4722   -2.5262  -16.9186 C   0  0  0  0  0  0  0  0  0  0  0  0
   22.1203   -3.6900  -17.4459 N   0  0  0  0  0  0  0  0  0  0  0  0
   20.9789   -6.7306  -14.7881 C   0  0  0  0  0  0  0  0  0  0  0  0
   19.8887   -7.1973  -15.1297 O   0  0  0  0  0  0  0  0  0  0  0  0
   21.1018   -5.9330  -13.6326 O   0  0  0  0  0  0  0  0  0  0  0  0
  2  3  2  0
  2  1  1  0
  4  2  1  0
  5  4  1  0
  5  6  1  0
  6  8  1  0
  6  7  1  6
  8  9  2  0
 10 11  1  0
 10  8  1  0
 11 12  1  1
 12 13  1  0
 13 14  1  0
 14 18  1  0
 14 15  2  0
 16 19  1  0
 16 11  1  0
 17 16  2  0
 20 21  1  6
 20 19  1  0
 21 22  1  0
 22 23  2  0
 22 26  1  0
 23 24  1  0
 24 25  1  0
 26 25  2  0
 27 29  1  0
 27 20  1  0
 28 27  2  0
M  END
$$$$
