QEH.pdb
     RDKit          3D

 29 29  0  0  1  0  0  0  0  0999 V2000
   13.4544  -11.2978  -17.2502 N   0  0  0  0  0  0  0  0  0  0  0  0
   12.5805  -11.8652  -16.2397 C   0  0  0  0  0  0  0  0  0  0  0  0
   11.8425  -12.7685  -16.6589 O   0  0  0  0  0  0  0  0  0  0  0  0
   12.6574  -11.3255  -14.8768 C   0  0  0  0  0  0  0  0  0  0  0  0
   13.6481  -10.2516  -14.7108 C   0  0  0  0  0  0  0  0  0  0  0  0
   15.0308  -10.6092  -14.3019 C   0  0  2  0  0  0  0  0  0  0  0  0
   14.9658  -11.2063  -12.9325 N   0  0  0  0  0  0  0  0  0  0  0  0
   16.0386   -9.5691  -14.2638 C   0  0  0  0  0  0  0  0  0  0  0  0
   16.1721   -8.8455  -13.2525 O   0  0  0  0  0  0  0  0  0  0  0  0
   16.9165   -9.3452  -15.3868 N   0  0  0  0  0  0  0  0  0  0  0  0
   17.9340   -8.3371  -15.3537 C   0  0  1  0  0  0  0  0  0  0  0  0
   19.2066   -8.7334  -15.9972 C   0  0  0  0  0  0  0  0  0  0  0  0
   19.9885   -9.8552  -15.4766 C   0  0  0  0  0  0  0  0  0  0  0  0
   21.2214  -10.2131  -16.2064 C   0  0  0  0  0  0  0  0  0  0  0  0
   21.8207   -9.4736  -16.9996 O   0  0  0  0  0  0  0  0  0  0  0  0
   17.4272   -7.0209  -15.7960 C   0  0  0  0  0  0  0  0  0  0  0  0
   16.3416   -6.9409  -16.3902 O   0  0  0  0  0  0  0  0  0  0  0  0
   21.8104  -11.4847  -16.0270 O   0  0  0  0  0  0  0  0  0  0  0  0
   18.1825   -5.8623  -15.5394 N   0  0  0  0  0  0  0  0  0  0  0  0
   17.6064   -4.5442  -15.8880 C   0  0  1  0  0  0  0  0  0  0  0  0
   16.3503   -4.3889  -15.0879 C   0  0  0  0  0  0  0  0  0  0  0  0
   15.7743   -3.0382  -15.0785 C   0  0  0  0  0  0  0  0  0  0  0  0
   15.6230   -2.1261  -14.0728 C   0  0  0  0  0  0  0  0  0  0  0  0
   15.1005   -0.9586  -14.5412 N   0  0  0  0  0  0  0  0  0  0  0  0
   14.9319   -1.1582  -15.8478 C   0  0  0  0  0  0  0  0  0  0  0  0
   15.3192   -2.3751  -16.2019 N   0  0  0  0  0  0  0  0  0  0  0  0
   18.6398   -3.5539  -15.4567 C   0  0  0  0  0  0  0  0  0  0  0  0
   19.5558   -3.8914  -14.7016 O   0  0  0  0  0  0  0  0  0  0  0  0
   18.5376   -2.2321  -15.9351 O   0  0  0  0  0  0  0  0  0  0  0  0
  2  3  2  0
  2  1  1  0
  4  2  1  0
  5  4  1  0
  5  6  1  0
  6  8  1  0
  6  7  1  1
  8  9  2  0
 10 11  1  0
 10  8  1  0
 11 12  1  6
 12 13  1  0
 13 14  1  0
 14 18  1  0
 14 15  2  0
 16 19  1  0
 16 11  1  0
 17 16  2  0
 20 21  1  1
 20 19  1  0
 21 22  1  0
 22 23  2  0
 22 26  1  0
 23 24  1  0
 24 25  1  0
 26 25  2  0
 27 29  1  0
 27 20  1  0
 28 27  2  0
M  END
$$$$
