QEH.pdb
     RDKit          3D

 29 29  0  0  1  0  0  0  0  0999 V2000
   14.3169  -15.4419  -13.9172 N   0  0  0  0  0  0  0  0  0  0  0  0
   15.2485  -16.4244  -14.4402 C   0  0  0  0  0  0  0  0  0  0  0  0
   14.9999  -17.5894  -14.0976 O   0  0  0  0  0  0  0  0  0  0  0  0
   16.3503  -15.9508  -15.2865 C   0  0  0  0  0  0  0  0  0  0  0  0
   16.2761  -14.5219  -15.6257 C   0  0  0  0  0  0  0  0  0  0  0  0
   17.5374  -13.7444  -15.7324 C   0  0  2  0  0  0  0  0  0  0  0  0
   18.6529  -14.6062  -15.2331 N   0  0  0  0  0  0  0  0  0  0  0  0
   17.6372  -12.4769  -15.0378 C   0  0  0  0  0  0  0  0  0  0  0  0
   18.1373  -12.4131  -13.8933 O   0  0  0  0  0  0  0  0  0  0  0  0
   17.1683  -11.2570  -15.6493 N   0  0  0  0  0  0  0  0  0  0  0  0
   17.2463   -9.9989  -14.9682 C   0  0  1  0  0  0  0  0  0  0  0  0
   17.7481   -8.8838  -15.8023 C   0  0  0  0  0  0  0  0  0  0  0  0
   17.8898   -7.5390  -15.2437 C   0  0  0  0  0  0  0  0  0  0  0  0
   18.4977   -6.5100  -16.1110 C   0  0  0  0  0  0  0  0  0  0  0  0
   18.6535   -5.3199  -15.8039 O   0  0  0  0  0  0  0  0  0  0  0  0
   16.0001   -9.6833  -14.2386 C   0  0  0  0  0  0  0  0  0  0  0  0
   15.0068  -10.4158  -14.3599 O   0  0  0  0  0  0  0  0  0  0  0  0
   18.9564   -6.8496  -17.4035 O   0  0  0  0  0  0  0  0  0  0  0  0
   15.9482   -8.5494  -13.4079 N   0  0  0  0  0  0  0  0  0  0  0  0
   14.6831   -8.2376  -12.7059 C   0  0  1  0  0  0  0  0  0  0  0  0
   14.4602   -9.3239  -11.6997 C   0  0  0  0  0  0  0  0  0  0  0  0
   13.3913   -9.0687  -10.7258 C   0  0  0  0  0  0  0  0  0  0  0  0
   12.4794   -8.0563  -10.6277 C   0  0  0  0  0  0  0  0  0  0  0  0
   11.6162   -8.2693   -9.5957 N   0  0  0  0  0  0  0  0  0  0  0  0
   12.0032   -9.4253   -9.0579 C   0  0  0  0  0  0  0  0  0  0  0  0
   13.0487   -9.9274   -9.6991 N   0  0  0  0  0  0  0  0  0  0  0  0
   14.9382   -6.9286  -12.0304 C   0  0  0  0  0  0  0  0  0  0  0  0
   16.0896   -6.5045  -11.8984 O   0  0  0  0  0  0  0  0  0  0  0  0
   13.8318   -6.1981  -11.5521 O   0  0  0  0  0  0  0  0  0  0  0  0
  2  3  2  0
  2  1  1  0
  4  2  1  0
  5  4  1  0
  5  6  1  0
  6  8  1  0
  6  7  1  1
  8  9  2  0
 10 11  1  0
 10  8  1  0
 11 12  1  6
 12 13  1  0
 13 14  1  0
 14 18  1  0
 14 15  2  0
 16 19  1  0
 16 11  1  0
 17 16  2  0
 20 21  1  1
 20 19  1  0
 21 22  1  0
 22 23  2  0
 22 26  1  0
 23 24  1  0
 24 25  1  0
 26 25  2  0
 27 29  1  0
 27 20  1  0
 28 27  2  0
M  END
$$$$
