QEH.pdb
     RDKit          3D

 29 29  0  0  1  0  0  0  0  0999 V2000
   27.7983  -16.4888  -16.4218 N   0  0  0  0  0  0  0  0  0  0  0  0
   26.9467  -17.2980  -17.2741 C   0  0  0  0  0  0  0  0  0  0  0  0
   26.4089  -16.6678  -18.1961 O   0  0  0  0  0  0  0  0  0  0  0  0
   26.8137  -18.7263  -16.9629 C   0  0  0  0  0  0  0  0  0  0  0  0
   27.5893  -19.1608  -15.7916 C   0  0  0  0  0  0  0  0  0  0  0  0
   27.4963  -20.5781  -15.3561 C   0  0  2  0  0  0  0  0  0  0  0  0
   27.7831  -21.4434  -16.5416 N   0  0  0  0  0  0  0  0  0  0  0  0
   26.2555  -21.0504  -14.7765 C   0  0  0  0  0  0  0  0  0  0  0  0
   25.4522  -21.7299  -15.4526 O   0  0  0  0  0  0  0  0  0  0  0  0
   25.9173  -20.7546  -13.4053 N   0  0  0  0  0  0  0  0  0  0  0  0
   24.6920  -21.2116  -12.8200 C   0  0  1  0  0  0  0  0  0  0  0  0
   24.7367  -21.3581  -11.3478 C   0  0  0  0  0  0  0  0  0  0  0  0
   25.4594  -20.3896  -10.5230 C   0  0  0  0  0  0  0  0  0  0  0  0
   25.5844  -20.6917   -9.0829 C   0  0  0  0  0  0  0  0  0  0  0  0
   24.6383  -20.7799   -8.2880 O   0  0  0  0  0  0  0  0  0  0  0  0
   23.5241  -20.4482  -13.3077 C   0  0  0  0  0  0  0  0  0  0  0  0
   23.6905  -19.4367  -14.0058 O   0  0  0  0  0  0  0  0  0  0  0  0
   26.8576  -20.9069   -8.5093 O   0  0  0  0  0  0  0  0  0  0  0  0
   22.2256  -20.8752  -12.9757 N   0  0  0  0  0  0  0  0  0  0  0  0
   21.0955  -20.4532  -13.8333 C   0  0  1  0  0  0  0  0  0  0  0  0
   21.2799  -21.1194  -15.1615 C   0  0  0  0  0  0  0  0  0  0  0  0
   21.8815  -20.2817  -16.2066 C   0  0  0  0  0  0  0  0  0  0  0  0
   22.2349  -18.9621  -16.2168 C   0  0  0  0  0  0  0  0  0  0  0  0
   22.8383  -18.6229  -17.3899 N   0  0  0  0  0  0  0  0  0  0  0  0
   22.8556  -19.7474  -18.1044 C   0  0  0  0  0  0  0  0  0  0  0  0
   22.2994  -20.7488  -17.4380 N   0  0  0  0  0  0  0  0  0  0  0  0
   19.8787  -20.9746  -13.1389 C   0  0  0  0  0  0  0  0  0  0  0  0
   19.9338  -22.0091  -12.4683 O   0  0  0  0  0  0  0  0  0  0  0  0
   18.6747  -20.2541  -13.2719 O   0  0  0  0  0  0  0  0  0  0  0  0
  2  3  2  0
  2  1  1  0
  4  2  1  0
  5  4  1  0
  5  6  1  0
  6  8  1  0
  6  7  1  6
  8  9  2  0
 10 11  1  0
 10  8  1  0
 11 12  1  1
 12 13  1  0
 13 14  1  0
 14 18  1  0
 14 15  2  0
 16 19  1  0
 16 11  1  0
 17 16  2  0
 20 21  1  6
 20 19  1  0
 21 22  1  0
 22 23  2  0
 22 26  1  0
 23 24  1  0
 24 25  1  0
 26 25  2  0
 27 29  1  0
 27 20  1  0
 28 27  2  0
M  END
$$$$
