QEH.pdb
     RDKit          3D

 29 29  0  0  1  0  0  0  0  0999 V2000
   19.4010  -31.9851   -4.8288 N   0  0  0  0  0  0  0  0  0  0  0  0
   18.8939  -32.6645   -6.0068 C   0  0  0  0  0  0  0  0  0  0  0  0
   19.5310  -33.6814   -6.3175 O   0  0  0  0  0  0  0  0  0  0  0  0
   17.7238  -32.0936   -6.6846 C   0  0  0  0  0  0  0  0  0  0  0  0
   17.2047  -30.8687   -6.0579 C   0  0  0  0  0  0  0  0  0  0  0  0
   17.4675  -29.5617   -6.7134 C   0  0  2  0  0  0  0  0  0  0  0  0
   18.6821  -29.7138   -7.5724 N   0  0  0  0  0  0  0  0  0  0  0  0
   17.6791  -28.3940   -5.8824 C   0  0  0  0  0  0  0  0  0  0  0  0
   18.7342  -28.2607   -5.2243 O   0  0  0  0  0  0  0  0  0  0  0  0
   16.6827  -27.3539   -5.7971 N   0  0  0  0  0  0  0  0  0  0  0  0
   16.7599  -26.3212   -4.8069 C   0  0  1  0  0  0  0  0  0  0  0  0
   16.0290  -25.0831   -5.1585 C   0  0  0  0  0  0  0  0  0  0  0  0
   16.2151  -24.4521   -6.4653 C   0  0  0  0  0  0  0  0  0  0  0  0
   15.4995  -23.1836   -6.7089 C   0  0  0  0  0  0  0  0  0  0  0  0
   14.9333  -22.5060   -5.8398 O   0  0  0  0  0  0  0  0  0  0  0  0
   16.4575  -26.8271   -3.4513 C   0  0  0  0  0  0  0  0  0  0  0  0
   15.6732  -27.7761   -3.3030 O   0  0  0  0  0  0  0  0  0  0  0  0
   15.4204  -22.6510   -8.0152 O   0  0  0  0  0  0  0  0  0  0  0  0
   17.0637  -26.2263   -2.3331 N   0  0  0  0  0  0  0  0  0  0  0  0
   16.7733  -26.7696   -0.9873 C   0  0  1  0  0  0  0  0  0  0  0  0
   18.0759  -27.2285   -0.4089 C   0  0  0  0  0  0  0  0  0  0  0  0
   18.5002  -28.5767   -0.8073 C   0  0  0  0  0  0  0  0  0  0  0  0
   17.8824  -29.5339   -1.5610 C   0  0  0  0  0  0  0  0  0  0  0  0
   18.6889  -30.6171   -1.7391 N   0  0  0  0  0  0  0  0  0  0  0  0
   19.8128  -30.3185   -1.0887 C   0  0  0  0  0  0  0  0  0  0  0  0
   19.7386  -29.1209   -0.5259 N   0  0  0  0  0  0  0  0  0  0  0  0
   16.2284  -25.6080   -0.2201 C   0  0  0  0  0  0  0  0  0  0  0  0
   16.1471  -24.4932   -0.7431 O   0  0  0  0  0  0  0  0  0  0  0  0
   15.8128  -25.8227    1.1094 O   0  0  0  0  0  0  0  0  0  0  0  0
  2  3  2  0
  2  1  1  0
  4  2  1  0
  5  4  1  0
  5  6  1  0
  6  8  1  0
  6  7  1  1
  8  9  2  0
 10 11  1  0
 10  8  1  0
 11 12  1  6
 12 13  1  0
 13 14  1  0
 14 18  1  0
 14 15  2  0
 16 19  1  0
 16 11  1  0
 17 16  2  0
 20 21  1  1
 20 19  1  0
 21 22  1  0
 22 23  2  0
 22 26  1  0
 23 24  1  0
 24 25  1  0
 26 25  2  0
 27 29  1  0
 27 20  1  0
 28 27  2  0
M  END
$$$$
