QEH.pdb
     RDKit          3D

 29 29  0  0  1  0  0  0  0  0999 V2000
   20.8484  -13.5302  -17.7877 N   0  0  0  0  0  0  0  0  0  0  0  0
   19.7522  -14.3173  -17.2536 C   0  0  0  0  0  0  0  0  0  0  0  0
   19.8523  -15.5342  -17.4674 O   0  0  0  0  0  0  0  0  0  0  0  0
   18.6763  -13.6136  -16.5452 C   0  0  0  0  0  0  0  0  0  0  0  0
   18.8526  -12.1551  -16.4814 C   0  0  0  0  0  0  0  0  0  0  0  0
   17.7905  -11.3320  -15.8479 C   0  0  2  0  0  0  0  0  0  0  0  0
   16.4810  -11.7247  -16.4540 N   0  0  0  0  0  0  0  0  0  0  0  0
   17.8815   -9.8886  -15.9332 C   0  0  0  0  0  0  0  0  0  0  0  0
   17.7750   -9.3057  -17.0345 O   0  0  0  0  0  0  0  0  0  0  0  0
   18.0914   -9.0874  -14.7517 N   0  0  0  0  0  0  0  0  0  0  0  0
   18.2986   -7.6720  -14.8328 C   0  0  1  0  0  0  0  0  0  0  0  0
   17.1631   -6.8601  -14.3405 C   0  0  0  0  0  0  0  0  0  0  0  0
   15.8472   -6.9566  -14.9725 C   0  0  0  0  0  0  0  0  0  0  0  0
   14.7823   -6.0779  -14.4486 C   0  0  0  0  0  0  0  0  0  0  0  0
   14.9120   -5.2840  -13.5063 O   0  0  0  0  0  0  0  0  0  0  0  0
   19.6062   -7.2686  -14.2739 C   0  0  0  0  0  0  0  0  0  0  0  0
   20.0052   -7.7618  -13.2083 O   0  0  0  0  0  0  0  0  0  0  0  0
   13.4933   -6.1000  -15.0267 O   0  0  0  0  0  0  0  0  0  0  0  0
   20.3932   -6.3237  -14.9569 N   0  0  0  0  0  0  0  0  0  0  0  0
   21.7289   -5.9849  -14.4168 C   0  0  1  0  0  0  0  0  0  0  0  0
   22.6899   -6.0272  -15.5643 C   0  0  0  0  0  0  0  0  0  0  0  0
   23.0527   -7.3714  -16.0309 C   0  0  0  0  0  0  0  0  0  0  0  0
   22.7109   -8.6116  -15.5715 C   0  0  0  0  0  0  0  0  0  0  0  0
   23.2227   -9.5904  -16.3686 N   0  0  0  0  0  0  0  0  0  0  0  0
   23.8833   -8.9419  -17.3268 C   0  0  0  0  0  0  0  0  0  0  0  0
   23.8050   -7.6294  -17.1608 N   0  0  0  0  0  0  0  0  0  0  0  0
   21.5831   -4.5921  -13.8938 C   0  0  0  0  0  0  0  0  0  0  0  0
   20.5706   -3.9316  -14.1415 O   0  0  0  0  0  0  0  0  0  0  0  0
   22.6296   -4.0595  -13.1142 O   0  0  0  0  0  0  0  0  0  0  0  0
  2  3  2  0
  2  1  1  0
  4  2  1  0
  5  4  1  0
  5  6  1  0
  6  8  1  0
  6  7  1  6
  8  9  2  0
 10 11  1  0
 10  8  1  0
 11 12  1  1
 12 13  1  0
 13 14  1  0
 14 18  1  0
 14 15  2  0
 16 19  1  0
 16 11  1  0
 17 16  2  0
 20 21  1  6
 20 19  1  0
 21 22  1  0
 22 23  2  0
 22 26  1  0
 23 24  1  0
 24 25  1  0
 26 25  2  0
 27 29  1  0
 27 20  1  0
 28 27  2  0
M  END
$$$$
