QEH.pdb
     RDKit          3D

 29 29  0  0  1  0  0  0  0  0999 V2000
   27.7899  -17.2823  -15.7952 N   0  0  0  0  0  0  0  0  0  0  0  0
   28.6117  -17.5996  -16.9487 C   0  0  0  0  0  0  0  0  0  0  0  0
   29.5222  -16.7855  -17.1602 O   0  0  0  0  0  0  0  0  0  0  0  0
   28.2868  -18.8065  -17.7185 C   0  0  0  0  0  0  0  0  0  0  0  0
   27.2111  -19.6208  -17.1336 C   0  0  0  0  0  0  0  0  0  0  0  0
   27.5527  -20.6057  -16.0752 C   0  0  2  0  0  0  0  0  0  0  0  0
   28.3985  -21.6721  -16.6947 N   0  0  0  0  0  0  0  0  0  0  0  0
   26.4779  -21.2733  -15.3695 C   0  0  0  0  0  0  0  0  0  0  0  0
   25.7905  -22.1515  -15.9354 O   0  0  0  0  0  0  0  0  0  0  0  0
   26.1768  -20.9470  -13.9966 N   0  0  0  0  0  0  0  0  0  0  0  0
   25.0898  -21.5678  -13.2996 C   0  0  1  0  0  0  0  0  0  0  0  0
   25.3317  -21.7766  -11.8544 C   0  0  0  0  0  0  0  0  0  0  0  0
   25.1942  -20.6701  -10.9071 C   0  0  0  0  0  0  0  0  0  0  0  0
   25.5067  -20.9524   -9.4917 C   0  0  0  0  0  0  0  0  0  0  0  0
   24.7267  -20.7897   -8.5430 O   0  0  0  0  0  0  0  0  0  0  0  0
   23.7950  -20.9208  -13.5997 C   0  0  0  0  0  0  0  0  0  0  0  0
   23.7032  -19.6841  -13.5970 O   0  0  0  0  0  0  0  0  0  0  0  0
   26.7791  -21.4486   -9.1295 O   0  0  0  0  0  0  0  0  0  0  0  0
   22.6704  -21.7151  -13.8874 N   0  0  0  0  0  0  0  0  0  0  0  0
   21.3959  -21.0470  -14.2340 C   0  0  1  0  0  0  0  0  0  0  0  0
   20.4770  -22.1033  -14.7650 C   0  0  0  0  0  0  0  0  0  0  0  0
   19.1320  -21.6406  -15.1299 C   0  0  0  0  0  0  0  0  0  0  0  0
   18.6464  -20.3922  -15.3981 C   0  0  0  0  0  0  0  0  0  0  0  0
   17.3376  -20.4428  -15.7723 N   0  0  0  0  0  0  0  0  0  0  0  0
   17.0197  -21.7362  -15.7340 C   0  0  0  0  0  0  0  0  0  0  0  0
   18.0545  -22.4745  -15.3591 N   0  0  0  0  0  0  0  0  0  0  0  0
   20.8898  -20.5021  -12.9372 C   0  0  0  0  0  0  0  0  0  0  0  0
   21.1154  -21.0930  -11.8775 O   0  0  0  0  0  0  0  0  0  0  0  0
   20.1524  -19.3012  -12.9608 O   0  0  0  0  0  0  0  0  0  0  0  0
  2  3  2  0
  2  1  1  0
  4  2  1  0
  5  4  1  0
  5  6  1  0
  6  8  1  0
  6  7  1  6
  8  9  2  0
 10 11  1  0
 10  8  1  0
 11 12  1  1
 12 13  1  0
 13 14  1  0
 14 18  1  0
 14 15  2  0
 16 19  1  0
 16 11  1  0
 17 16  2  0
 20 21  1  1
 20 19  1  0
 21 22  1  0
 22 23  2  0
 22 26  1  0
 23 24  1  0
 24 25  1  0
 26 25  2  0
 27 29  1  0
 27 20  1  0
 28 27  2  0
M  END
$$$$
