QEH.pdb
     RDKit          3D

 29 29  0  0  1  0  0  0  0  0999 V2000
   17.5861  -28.0053   -9.3056 N   0  0  0  0  0  0  0  0  0  0  0  0
   18.5001  -27.4143  -10.2657 C   0  0  0  0  0  0  0  0  0  0  0  0
   18.4596  -27.9356  -11.3896 O   0  0  0  0  0  0  0  0  0  0  0  0
   19.3492  -26.3033   -9.8191 C   0  0  0  0  0  0  0  0  0  0  0  0
   19.0911  -25.8672   -8.4387 C   0  0  0  0  0  0  0  0  0  0  0  0
   17.8635  -25.0809   -8.1533 C   0  0  2  0  0  0  0  0  0  0  0  0
   18.0186  -23.7376   -8.7920 N   0  0  0  0  0  0  0  0  0  0  0  0
   17.4851  -24.8533   -6.7735 C   0  0  0  0  0  0  0  0  0  0  0  0
   17.9817  -23.9081   -6.1223 O   0  0  0  0  0  0  0  0  0  0  0  0
   16.5232  -25.7058   -6.1178 N   0  0  0  0  0  0  0  0  0  0  0  0
   16.0729  -25.4406   -4.7837 C   0  0  1  0  0  0  0  0  0  0  0  0
   14.6010  -25.4078   -4.6319 C   0  0  0  0  0  0  0  0  0  0  0  0
   13.8044  -24.3787   -5.3006 C   0  0  0  0  0  0  0  0  0  0  0  0
   12.3528  -24.3685   -5.0294 C   0  0  0  0  0  0  0  0  0  0  0  0
   11.5419  -23.5689   -5.5172 O   0  0  0  0  0  0  0  0  0  0  0  0
   16.7560  -26.2917   -3.7868 C   0  0  0  0  0  0  0  0  0  0  0  0
   17.1803  -27.4108   -4.1119 O   0  0  0  0  0  0  0  0  0  0  0  0
   11.7862  -25.3212   -4.1533 O   0  0  0  0  0  0  0  0  0  0  0  0
   16.9211  -25.8254   -2.4701 N   0  0  0  0  0  0  0  0  0  0  0  0
   17.6090  -26.6930   -1.4878 C   0  0  1  0  0  0  0  0  0  0  0  0
   17.8897  -25.8525   -0.2808 C   0  0  0  0  0  0  0  0  0  0  0  0
   18.5360  -26.5530    0.8362 C   0  0  0  0  0  0  0  0  0  0  0  0
   19.0707  -27.8066    0.9302 C   0  0  0  0  0  0  0  0  0  0  0  0
   19.6403  -28.0089    2.1509 N   0  0  0  0  0  0  0  0  0  0  0  0
   19.4535  -26.8661    2.8101 C   0  0  0  0  0  0  0  0  0  0  0  0
   18.8049  -25.9823    2.0655 N   0  0  0  0  0  0  0  0  0  0  0  0
   16.6176  -27.7664   -1.1718 C   0  0  0  0  0  0  0  0  0  0  0  0
   16.9493  -28.7504   -0.5050 O   0  0  0  0  0  0  0  0  0  0  0  0
   15.3014  -27.6218   -1.6548 O   0  0  0  0  0  0  0  0  0  0  0  0
  2  3  2  0
  2  1  1  0
  4  2  1  0
  5  4  1  0
  5  6  1  0
  6  8  1  0
  6  7  1  1
  8  9  2  0
 10 11  1  0
 10  8  1  0
 11 12  1  6
 12 13  1  0
 13 14  1  0
 14 18  1  0
 14 15  2  0
 16 19  1  0
 16 11  1  0
 17 16  2  0
 20 21  1  1
 20 19  1  0
 21 22  1  0
 22 23  2  0
 22 26  1  0
 23 24  1  0
 24 25  1  0
 26 25  2  0
 27 29  1  0
 27 20  1  0
 28 27  2  0
M  END
$$$$
