QEH.pdb
     RDKit          3D

 29 29  0  0  1  0  0  0  0  0999 V2000
   26.4714  -33.3377   -7.0641 N   0  0  0  0  0  0  0  0  0  0  0  0
   26.1265  -32.7026   -8.3228 C   0  0  0  0  0  0  0  0  0  0  0  0
   27.0680  -32.6268   -9.1255 O   0  0  0  0  0  0  0  0  0  0  0  0
   24.7487  -32.2301   -8.5044 C   0  0  0  0  0  0  0  0  0  0  0  0
   23.8967  -32.3914   -7.3167 C   0  0  0  0  0  0  0  0  0  0  0  0
   23.3160  -33.7279   -7.0277 C   0  0  2  0  0  0  0  0  0  0  0  0
   22.1967  -33.9614   -7.9916 N   0  0  0  0  0  0  0  0  0  0  0  0
   22.7956  -33.9911   -5.7015 C   0  0  0  0  0  0  0  0  0  0  0  0
   21.6038  -33.7365   -5.4206 O   0  0  0  0  0  0  0  0  0  0  0  0
   23.6353  -34.5578   -4.6741 N   0  0  0  0  0  0  0  0  0  0  0  0
   23.1537  -34.7620   -3.3403 C   0  0  1  0  0  0  0  0  0  0  0  0
   24.0452  -35.5811   -2.4886 C   0  0  0  0  0  0  0  0  0  0  0  0
   23.6539  -35.9372   -1.1245 C   0  0  0  0  0  0  0  0  0  0  0  0
   24.5674  -36.8188   -0.3702 C   0  0  0  0  0  0  0  0  0  0  0  0
   25.6702  -37.2149   -0.7726 O   0  0  0  0  0  0  0  0  0  0  0  0
   22.7191  -33.4993   -2.7066 C   0  0  0  0  0  0  0  0  0  0  0  0
   23.3800  -32.4627   -2.8698 O   0  0  0  0  0  0  0  0  0  0  0  0
   24.2102  -37.2791    0.9170 O   0  0  0  0  0  0  0  0  0  0  0  0
   21.5538  -33.4810   -1.9190 N   0  0  0  0  0  0  0  0  0  0  0  0
   21.1635  -32.2182   -1.2530 C   0  0  1  0  0  0  0  0  0  0  0  0
   20.7040  -31.2801   -2.3257 C   0  0  0  0  0  0  0  0  0  0  0  0
   19.9767  -30.0946   -1.8547 C   0  0  0  0  0  0  0  0  0  0  0  0
   19.6978  -29.6455   -0.5950 C   0  0  0  0  0  0  0  0  0  0  0  0
   19.0559  -28.4446   -0.6312 N   0  0  0  0  0  0  0  0  0  0  0  0
   18.9424  -28.1553   -1.9269 C   0  0  0  0  0  0  0  0  0  0  0  0
   19.4752  -29.1067   -2.6802 N   0  0  0  0  0  0  0  0  0  0  0  0
   20.0302  -32.5987   -0.3554 C   0  0  0  0  0  0  0  0  0  0  0  0
   19.6941  -33.7801   -0.2354 O   0  0  0  0  0  0  0  0  0  0  0  0
   19.3617  -31.5748    0.3454 O   0  0  0  0  0  0  0  0  0  0  0  0
  2  3  2  0
  2  1  1  0
  4  2  1  0
  5  4  1  0
  5  6  1  0
  6  8  1  0
  6  7  1  6
  8  9  2  0
 10 11  1  0
 10  8  1  0
 11 12  1  1
 12 13  1  0
 13 14  1  0
 14 18  1  0
 14 15  2  0
 16 19  1  0
 16 11  1  0
 17 16  2  0
 20 21  1  6
 20 19  1  0
 21 22  1  0
 22 23  2  0
 22 26  1  0
 23 24  1  0
 24 25  1  0
 26 25  2  0
 27 29  1  0
 27 20  1  0
 28 27  2  0
M  END
$$$$
