QEH.pdb
     RDKit          3D

 29 29  0  0  1  0  0  0  0  0999 V2000
   18.1202  -14.1837  -19.3863 N   0  0  0  0  0  0  0  0  0  0  0  0
   17.7349  -15.4348  -18.7596 C   0  0  0  0  0  0  0  0  0  0  0  0
   17.3553  -16.3042  -19.5575 O   0  0  0  0  0  0  0  0  0  0  0  0
   17.8282  -15.5337  -17.2980 C   0  0  0  0  0  0  0  0  0  0  0  0
   18.3454  -14.3216  -16.6456 C   0  0  0  0  0  0  0  0  0  0  0  0
   19.7961  -14.0176  -16.7454 C   0  0  2  0  0  0  0  0  0  0  0  0
   20.5459  -15.1301  -16.0848 N   0  0  0  0  0  0  0  0  0  0  0  0
   20.2903  -12.7786  -16.1801 C   0  0  0  0  0  0  0  0  0  0  0  0
   19.7315  -12.2611  -15.1882 O   0  0  0  0  0  0  0  0  0  0  0  0
   21.4412  -12.1139  -16.7419 N   0  0  0  0  0  0  0  0  0  0  0  0
   22.0008  -10.9427  -16.1354 C   0  0  1  0  0  0  0  0  0  0  0  0
   23.4740  -10.8458  -16.2408 C   0  0  0  0  0  0  0  0  0  0  0  0
   24.3334  -11.8763  -15.6576 C   0  0  0  0  0  0  0  0  0  0  0  0
   25.7913  -11.7108  -15.8238 C   0  0  0  0  0  0  0  0  0  0  0  0
   26.3391  -10.7754  -16.4239 O   0  0  0  0  0  0  0  0  0  0  0  0
   21.2918   -9.7119  -16.5445 C   0  0  0  0  0  0  0  0  0  0  0  0
   20.7004   -9.6686  -17.6337 O   0  0  0  0  0  0  0  0  0  0  0  0
   26.6820  -12.6618  -15.2775 O   0  0  0  0  0  0  0  0  0  0  0  0
   21.2925   -8.5926  -15.6926 N   0  0  0  0  0  0  0  0  0  0  0  0
   20.5571   -7.3782  -16.1110 C   0  0  1  0  0  0  0  0  0  0  0  0
   19.1265   -7.7760  -16.3037 C   0  0  0  0  0  0  0  0  0  0  0  0
   18.1879   -6.6658  -16.5100 C   0  0  0  0  0  0  0  0  0  0  0  0
   18.3957   -5.3304  -16.7093 C   0  0  0  0  0  0  0  0  0  0  0  0
   17.2215   -4.6774  -16.9339 N   0  0  0  0  0  0  0  0  0  0  0  0
   16.2856   -5.6239  -16.8731 C   0  0  0  0  0  0  0  0  0  0  0  0
   16.8187   -6.8115  -16.6247 N   0  0  0  0  0  0  0  0  0  0  0  0
   20.6983   -6.4352  -14.9596 C   0  0  0  0  0  0  0  0  0  0  0  0
   21.1185   -6.8340  -13.8699 O   0  0  0  0  0  0  0  0  0  0  0  0
   20.3399   -5.0862  -15.1545 O   0  0  0  0  0  0  0  0  0  0  0  0
  2  3  2  0
  2  1  1  0
  4  2  1  0
  5  4  1  0
  5  6  1  0
  6  8  1  0
  6  7  1  1
  8  9  2  0
 10 11  1  0
 10  8  1  0
 11 12  1  6
 12 13  1  0
 13 14  1  0
 14 18  1  0
 14 15  2  0
 16 19  1  0
 16 11  1  0
 17 16  2  0
 20 21  1  1
 20 19  1  0
 21 22  1  0
 22 23  2  0
 22 26  1  0
 23 24  1  0
 24 25  1  0
 26 25  2  0
 27 29  1  0
 27 20  1  0
 28 27  2  0
M  END
$$$$
