YTW.pdb
     RDKit          3D

 34 36  0  0  1  0  0  0  0  0999 V2000
   13.8942  -14.1958   21.5775 O   0  0  0  0  0  0  0  0  0  0  0  0
   12.7563  -14.0306   20.7700 C   0  0  0  0  0  0  0  0  0  0  0  0
   11.5198  -13.6845   21.2733 C   0  0  0  0  0  0  0  0  0  0  0  0
   10.4340  -13.5366   20.4361 C   0  0  0  0  0  0  0  0  0  0  0  0
   10.5266  -13.7242   19.0710 C   0  0  0  0  0  0  0  0  0  0  0  0
    9.3645  -13.5865   18.1650 C   0  0  0  0  0  0  0  0  0  0  0  0
    8.8133  -15.0052   17.9589 C   0  0  2  0  0  0  0  0  0  0  0  0
    7.7486  -14.9694   16.9671 N   0  0  0  0  0  0  0  0  0  0  0  0
    8.3044  -15.4223   19.2849 C   0  0  0  0  0  0  0  0  0  0  0  0
    7.3277  -14.8406   19.7856 O   0  0  0  0  0  0  0  0  0  0  0  0
   11.7765  -14.0724   18.5685 C   0  0  0  0  0  0  0  0  0  0  0  0
   12.8639  -14.2191   19.4180 C   0  0  0  0  0  0  0  0  0  0  0  0
    6.9567  -18.5676   20.2855 C   0  0  0  0  0  0  0  0  0  0  0  0
    8.1507  -18.3927   21.2335 C   0  0  1  0  0  0  0  0  0  0  0  0
    9.1609  -19.2004   20.7665 O   0  0  0  0  0  0  0  0  0  0  0  0
    8.5678  -16.9233   21.2370 C   0  0  2  0  0  0  0  0  0  0  0  0
    8.9795  -16.4938   19.9302 N   0  0  0  0  0  0  0  0  0  0  0  0
    9.6193  -16.7219   22.2614 C   0  0  0  0  0  0  0  0  0  0  0  0
   10.8530  -16.8114   21.9917 O   0  0  0  0  0  0  0  0  0  0  0  0
    9.2856  -16.4163   23.6081 N   0  0  0  0  0  0  0  0  0  0  0  0
   10.3030  -16.4345   24.6645 C   0  0  1  0  0  0  0  0  0  0  0  0
   10.0941  -15.1718   25.4398 C   0  0  0  0  0  0  0  0  0  0  0  0
    8.6755  -14.7873   25.5790 C   0  0  0  0  0  0  0  0  0  0  0  0
    7.5700  -15.6478   25.5222 C   0  0  0  0  0  0  0  0  0  0  0  0
    6.4546  -14.9253   25.6481 N   0  0  0  0  0  0  0  0  0  0  0  0
    6.7271  -13.6096   25.7915 C   0  0  0  0  0  0  0  0  0  0  0  0
    5.9310  -12.4994   25.9643 C   0  0  0  0  0  0  0  0  0  0  0  0
    6.5011  -11.2621   26.1044 C   0  0  0  0  0  0  0  0  0  0  0  0
    7.8952  -11.1695   26.0643 C   0  0  0  0  0  0  0  0  0  0  0  0
    8.6782  -12.2810   25.8898 C   0  0  0  0  0  0  0  0  0  0  0  0
    8.1298  -13.5368   25.7463 C   0  0  0  0  0  0  0  0  0  0  0  0
   10.2358  -17.6277   25.4805 C   0  0  0  0  0  0  0  0  0  0  0  0
    9.2144  -18.3933   25.3672 O   0  0  0  0  0  0  0  0  0  0  0  0
   11.1795  -18.0516   26.3928 O   0  0  0  0  0  0  0  0  0  0  0  0
  2  1  1  0
  3  2  2  0
  4  3  1  0
  5  4  2  0
  5 11  1  0
  6  5  1  0
  7  9  1  0
  7  6  1  0
  7  8  1  6
  9 17  1  0
 10  9  2  0
 11 12  2  0
 12  2  1  0
 14 13  1  6
 14 16  1  0
 15 14  1  0
 16 18  1  0
 16 17  1  6
 18 19  2  0
 18 20  1  0
 20 21  1  0
 21 32  1  0
 21 22  1  1
 23 22  1  0
 23 31  1  0
 24 23  2  0
 25 24  1  0
 25 26  1  0
 26 27  1  0
 26 31  2  0
 27 28  2  0
 28 29  1  0
 30 29  2  0
 31 30  1  0
 32 34  1  0
 33 32  2  0
M  END
$$$$
