YTW.pdb
     RDKit          3D

 34 36  0  0  1  0  0  0  0  0999 V2000
    8.7825  -11.9729   16.6754 O   0  0  0  0  0  0  0  0  0  0  0  0
    8.4159  -12.6656   17.8415 C   0  0  0  0  0  0  0  0  0  0  0  0
    7.1501  -13.1723   18.0498 C   0  0  0  0  0  0  0  0  0  0  0  0
    6.8420  -13.8435   19.2143 C   0  0  0  0  0  0  0  0  0  0  0  0
    7.7706  -14.0409   20.2173 C   0  0  0  0  0  0  0  0  0  0  0  0
    7.4466  -14.7433   21.4791 C   0  0  0  0  0  0  0  0  0  0  0  0
    7.6710  -16.2379   21.2055 C   0  0  2  0  0  0  0  0  0  0  0  0
    6.5032  -16.7851   20.5306 N   0  0  0  0  0  0  0  0  0  0  0  0
    7.8643  -16.8534   22.5378 C   0  0  0  0  0  0  0  0  0  0  0  0
    6.8798  -17.2198   23.2007 O   0  0  0  0  0  0  0  0  0  0  0  0
    9.0462  -13.5286   20.0017 C   0  0  0  0  0  0  0  0  0  0  0  0
    9.3477  -12.8543   18.8270 C   0  0  0  0  0  0  0  0  0  0  0  0
    9.6395  -19.9074   23.0324 C   0  0  0  0  0  0  0  0  0  0  0  0
   10.3796  -18.9202   23.9449 C   0  0  1  0  0  0  0  0  0  0  0  0
   11.5312  -18.5493   23.2914 O   0  0  0  0  0  0  0  0  0  0  0  0
    9.4755  -17.7176   24.2082 C   0  0  2  0  0  0  0  0  0  0  0  0
    9.2015  -16.9948   22.9982 N   0  0  0  0  0  0  0  0  0  0  0  0
   10.0936  -16.8679   25.2530 C   0  0  0  0  0  0  0  0  0  0  0  0
   11.0018  -16.0258   24.9906 O   0  0  0  0  0  0  0  0  0  0  0  0
    9.6902  -16.9622   26.6119 N   0  0  0  0  0  0  0  0  0  0  0  0
   10.4448  -16.2907   27.6755 C   0  0  1  0  0  0  0  0  0  0  0  0
    9.4344  -15.4912   28.4363 C   0  0  0  0  0  0  0  0  0  0  0  0
    8.2669  -15.0854   27.6289 C   0  0  0  0  0  0  0  0  0  0  0  0
    7.3677  -15.9408   26.9765 C   0  0  0  0  0  0  0  0  0  0  0  0
    6.4726  -15.2025   26.3162 N   0  0  0  0  0  0  0  0  0  0  0  0
    6.7014  -13.8806   26.4774 C   0  0  0  0  0  0  0  0  0  0  0  0
    6.0582  -12.7535   26.0167 C   0  0  0  0  0  0  0  0  0  0  0  0
    6.5160  -11.5114   26.3672 C   0  0  0  0  0  0  0  0  0  0  0  0
    7.6408  -11.4315   27.1933 C   0  0  0  0  0  0  0  0  0  0  0  0
    8.2746  -12.5600   27.6447 C   0  0  0  0  0  0  0  0  0  0  0  0
    7.8345  -13.8210   27.3066 C   0  0  0  0  0  0  0  0  0  0  0  0
   11.1846  -17.2191   28.5031 C   0  0  0  0  0  0  0  0  0  0  0  0
   10.9620  -18.4740   28.3695 O   0  0  0  0  0  0  0  0  0  0  0  0
   12.1372  -16.8967   29.4472 O   0  0  0  0  0  0  0  0  0  0  0  0
  2  1  1  0
  3  2  2  0
  4  3  1  0
  5  4  2  0
  5 11  1  0
  6  5  1  0
  7  9  1  0
  7  6  1  0
  7  8  1  1
  9 17  1  0
 10  9  2  0
 11 12  2  0
 12  2  1  0
 14 13  1  6
 14 16  1  0
 15 14  1  0
 16 18  1  0
 16 17  1  6
 18 19  2  0
 18 20  1  0
 20 21  1  0
 21 32  1  0
 21 22  1  1
 23 22  1  0
 23 31  1  0
 24 23  2  0
 25 24  1  0
 25 26  1  0
 26 27  1  0
 26 31  2  0
 27 28  2  0
 28 29  1  0
 30 29  2  0
 31 30  1  0
 32 34  1  0
 33 32  2  0
M  END
$$$$
