YTW.pdb
     RDKit          3D

 34 36  0  0  1  0  0  0  0  0999 V2000
    8.0841  -12.0570   15.9754 O   0  0  0  0  0  0  0  0  0  0  0  0
    8.0501  -12.8445   17.1385 C   0  0  0  0  0  0  0  0  0  0  0  0
    9.1511  -13.5186   17.6238 C   0  0  0  0  0  0  0  0  0  0  0  0
    9.0630  -14.2800   18.7702 C   0  0  0  0  0  0  0  0  0  0  0  0
    7.8859  -14.4052   19.4815 C   0  0  0  0  0  0  0  0  0  0  0  0
    7.7745  -15.2342   20.7024 C   0  0  0  0  0  0  0  0  0  0  0  0
    8.1116  -16.6705   20.2755 C   0  0  2  0  0  0  0  0  0  0  0  0
    7.0271  -17.1984   19.4609 N   0  0  0  0  0  0  0  0  0  0  0  0
    8.2583  -17.4284   21.5386 C   0  0  0  0  0  0  0  0  0  0  0  0
    7.2577  -17.9180   22.0882 O   0  0  0  0  0  0  0  0  0  0  0  0
    6.7785  -13.7223   18.9880 C   0  0  0  0  0  0  0  0  0  0  0  0
    6.8759  -12.9584   17.8337 C   0  0  0  0  0  0  0  0  0  0  0  0
   10.0646  -20.4231   22.2280 C   0  0  0  0  0  0  0  0  0  0  0  0
   10.7064  -19.4135   23.1892 C   0  0  1  0  0  0  0  0  0  0  0  0
   11.9188  -19.0539   22.6494 O   0  0  0  0  0  0  0  0  0  0  0  0
    9.7791  -18.2080   23.3309 C   0  0  2  0  0  0  0  0  0  0  0  0
    9.5711  -17.5574   22.0679 N   0  0  0  0  0  0  0  0  0  0  0  0
   10.3284  -17.2942   24.3599 C   0  0  0  0  0  0  0  0  0  0  0  0
   11.1594  -16.3811   24.0800 O   0  0  0  0  0  0  0  0  0  0  0  0
    9.9428  -17.4040   25.7228 N   0  0  0  0  0  0  0  0  0  0  0  0
   10.4995  -16.5091   26.7431 C   0  0  1  0  0  0  0  0  0  0  0  0
   10.1258  -15.1273   26.3068 C   0  0  0  0  0  0  0  0  0  0  0  0
    8.6721  -14.8706   26.3256 C   0  0  0  0  0  0  0  0  0  0  0  0
    7.6573  -15.8106   26.0962 C   0  0  0  0  0  0  0  0  0  0  0  0
    6.4757  -15.1924   26.1563 N   0  0  0  0  0  0  0  0  0  0  0  0
    6.6162  -13.8740   26.4172 C   0  0  0  0  0  0  0  0  0  0  0  0
    5.7124  -12.8484   26.5834 C   0  0  0  0  0  0  0  0  0  0  0  0
    6.1551  -11.5837   26.8663 C   0  0  0  0  0  0  0  0  0  0  0  0
    7.5330  -11.3761   26.9763 C   0  0  0  0  0  0  0  0  0  0  0  0
    8.4240  -12.4039   26.8071 C   0  0  0  0  0  0  0  0  0  0  0  0
    8.0048  -13.6849   26.5216 C   0  0  0  0  0  0  0  0  0  0  0  0
   10.0420  -16.8342   28.0769 C   0  0  0  0  0  0  0  0  0  0  0  0
   10.5041  -16.1632   29.0660 O   0  0  0  0  0  0  0  0  0  0  0  0
    9.1310  -17.8130   28.4156 O   0  0  0  0  0  0  0  0  0  0  0  0
  2  1  1  0
  3  2  2  0
  4  3  1  0
  5  4  2  0
  5 11  1  0
  6  5  1  0
  7  9  1  0
  7  6  1  0
  7  8  1  6
  9 17  1  0
 10  9  2  0
 11 12  2  0
 12  2  1  0
 14 13  1  6
 14 16  1  0
 15 14  1  0
 16 18  1  0
 16 17  1  6
 18 19  2  0
 18 20  1  0
 20 21  1  0
 21 32  1  0
 21 22  1  6
 23 22  1  0
 23 31  1  0
 24 23  2  0
 25 24  1  0
 25 26  1  0
 26 27  1  0
 26 31  2  0
 27 28  2  0
 28 29  1  0
 30 29  2  0
 31 30  1  0
 32 34  1  0
 33 32  2  0
M  END
$$$$
