YTW.pdb
     RDKit          3D

 34 36  0  0  1  0  0  0  0  0999 V2000
    6.9104  -12.2623   15.7249 O   0  0  0  0  0  0  0  0  0  0  0  0
    7.2299  -13.1523   16.7641 C   0  0  0  0  0  0  0  0  0  0  0  0
    6.4912  -14.2838   17.0402 C   0  0  0  0  0  0  0  0  0  0  0  0
    6.8478  -15.1240   18.0739 C   0  0  0  0  0  0  0  0  0  0  0  0
    7.9466  -14.8802   18.8743 C   0  0  0  0  0  0  0  0  0  0  0  0
    8.3284  -15.7644   19.9980 C   0  0  0  0  0  0  0  0  0  0  0  0
    9.5290  -16.5862   19.5060 C   0  0  2  0  0  0  0  0  0  0  0  0
    9.1114  -17.4350   18.3999 N   0  0  0  0  0  0  0  0  0  0  0  0
    9.9565  -17.3894   20.6735 C   0  0  0  0  0  0  0  0  0  0  0  0
    9.2032  -18.2625   21.1353 O   0  0  0  0  0  0  0  0  0  0  0  0
    8.6889  -13.7380   18.5908 C   0  0  0  0  0  0  0  0  0  0  0  0
    8.3229  -12.8979   17.5486 C   0  0  0  0  0  0  0  0  0  0  0  0
   13.3769  -19.0443   21.4055 C   0  0  0  0  0  0  0  0  0  0  0  0
   13.0991  -18.0258   22.5192 C   0  0  1  0  0  0  0  0  0  0  0  0
   13.8958  -16.9317   22.2760 O   0  0  0  0  0  0  0  0  0  0  0  0
   11.6178  -17.6545   22.4910 C   0  0  2  0  0  0  0  0  0  0  0  0
   11.2396  -17.1099   21.2173 N   0  0  0  0  0  0  0  0  0  0  0  0
   11.3292  -16.7322   23.6143 C   0  0  0  0  0  0  0  0  0  0  0  0
   11.4931  -15.4803   23.5213 O   0  0  0  0  0  0  0  0  0  0  0  0
   10.8509  -17.2179   24.8607 N   0  0  0  0  0  0  0  0  0  0  0  0
    9.9758  -16.4005   25.7079 C   0  0  1  0  0  0  0  0  0  0  0  0
    8.7694  -16.1110   24.8711 C   0  0  0  0  0  0  0  0  0  0  0  0
    7.7448  -15.3050   25.5639 C   0  0  0  0  0  0  0  0  0  0  0  0
    6.5378  -15.7751   26.1005 C   0  0  0  0  0  0  0  0  0  0  0  0
    5.8605  -14.7426   26.6077 N   0  0  0  0  0  0  0  0  0  0  0  0
    6.5340  -13.5814   26.4537 C   0  0  0  0  0  0  0  0  0  0  0  0
    6.2593  -12.2815   26.8159 C   0  0  0  0  0  0  0  0  0  0  0  0
    7.1600  -11.2878   26.5393 C   0  0  0  0  0  0  0  0  0  0  0  0
    8.3461  -11.6352   25.8863 C   0  0  0  0  0  0  0  0  0  0  0  0
    8.6087  -12.9321   25.5285 C   0  0  0  0  0  0  0  0  0  0  0  0
    7.7193  -13.9501   25.7948 C   0  0  0  0  0  0  0  0  0  0  0  0
    9.6619  -17.0430   26.9659 C   0  0  0  0  0  0  0  0  0  0  0  0
    9.1490  -16.3382   27.9052 O   0  0  0  0  0  0  0  0  0  0  0  0
    9.8535  -18.3729   27.2778 O   0  0  0  0  0  0  0  0  0  0  0  0
  2  1  1  0
  3  2  2  0
  4  3  1  0
  5  4  2  0
  5 11  1  0
  6  5  1  0
  7  9  1  0
  7  6  1  0
  7  8  1  6
  9 17  1  0
 10  9  2  0
 11 12  2  0
 12  2  1  0
 14 13  1  6
 14 16  1  0
 15 14  1  0
 16 18  1  0
 16 17  1  6
 18 19  2  0
 18 20  1  0
 20 21  1  0
 21 32  1  0
 21 22  1  6
 23 22  1  0
 23 31  1  0
 24 23  2  0
 25 24  1  0
 25 26  1  0
 26 27  1  0
 26 31  2  0
 27 28  2  0
 28 29  1  0
 30 29  2  0
 31 30  1  0
 32 34  1  0
 33 32  2  0
M  END
$$$$
