YTW.pdb
     RDKit          3D

 34 36  0  0  1  0  0  0  0  0999 V2000
   11.7318  -12.5257   19.3323 O   0  0  0  0  0  0  0  0  0  0  0  0
   10.5399  -13.2683   19.3789 C   0  0  0  0  0  0  0  0  0  0  0  0
   10.5109  -14.6351   19.5615 C   0  0  0  0  0  0  0  0  0  0  0  0
    9.3125  -15.3164   19.5978 C   0  0  0  0  0  0  0  0  0  0  0  0
    8.0974  -14.6756   19.4559 C   0  0  0  0  0  0  0  0  0  0  0  0
    6.8061  -15.3984   19.4747 C   0  0  0  0  0  0  0  0  0  0  0  0
    7.1533  -16.8941   19.4381 C   0  0  2  0  0  0  0  0  0  0  0  0
    6.1005  -17.6165   18.7394 N   0  0  0  0  0  0  0  0  0  0  0  0
    7.2447  -17.3080   20.8564 C   0  0  0  0  0  0  0  0  0  0  0  0
    6.2134  -17.4051   21.5420 O   0  0  0  0  0  0  0  0  0  0  0  0
    8.1323  -13.2967   19.2730 C   0  0  0  0  0  0  0  0  0  0  0  0
    9.3427  -12.6189   19.2376 C   0  0  0  0  0  0  0  0  0  0  0  0
    8.2247  -20.3646   22.1525 C   0  0  0  0  0  0  0  0  0  0  0  0
    9.2325  -19.4222   22.8243 C   0  0  1  0  0  0  0  0  0  0  0  0
   10.4256  -19.5607   22.1548 O   0  0  0  0  0  0  0  0  0  0  0  0
    8.7059  -17.9912   22.7356 C   0  0  2  0  0  0  0  0  0  0  0  0
    8.5420  -17.5782   21.3701 N   0  0  0  0  0  0  0  0  0  0  0  0
    9.6077  -17.0962   23.4981 C   0  0  0  0  0  0  0  0  0  0  0  0
   10.7152  -16.6958   23.0335 O   0  0  0  0  0  0  0  0  0  0  0  0
    9.2657  -16.6429   24.8003 N   0  0  0  0  0  0  0  0  0  0  0  0
   10.2800  -16.0803   25.6983 C   0  0  1  0  0  0  0  0  0  0  0  0
    9.8665  -14.6601   25.9252 C   0  0  0  0  0  0  0  0  0  0  0  0
    8.4044  -14.4719   26.0044 C   0  0  0  0  0  0  0  0  0  0  0  0
    7.4321  -15.4817   25.9788 C   0  0  0  0  0  0  0  0  0  0  0  0
    6.2233  -14.9175   26.0294 N   0  0  0  0  0  0  0  0  0  0  0  0
    6.3049  -13.5702   26.0909 C   0  0  0  0  0  0  0  0  0  0  0  0
    5.3566  -12.5748   26.1700 C   0  0  0  0  0  0  0  0  0  0  0  0
    5.7437  -11.2631   26.2406 C   0  0  0  0  0  0  0  0  0  0  0  0
    7.1119  -10.9773   26.2278 C   0  0  0  0  0  0  0  0  0  0  0  0
    8.0475  -11.9758   26.1469 C   0  0  0  0  0  0  0  0  0  0  0  0
    7.6845  -13.3029   26.0745 C   0  0  0  0  0  0  0  0  0  0  0  0
   10.4221  -16.8399   26.9217 C   0  0  0  0  0  0  0  0  0  0  0  0
   11.3222  -16.4879   27.7631 O   0  0  0  0  0  0  0  0  0  0  0  0
    9.6707  -17.9330   27.3003 O   0  0  0  0  0  0  0  0  0  0  0  0
  2  1  1  0
  3  2  2  0
  4  3  1  0
  5  4  2  0
  5 11  1  0
  6  5  1  0
  7  9  1  0
  7  6  1  0
  7  8  1  6
  9 17  1  0
 10  9  2  0
 11 12  2  0
 12  2  1  0
 14 13  1  6
 14 16  1  0
 15 14  1  0
 16 18  1  0
 16 17  1  6
 18 19  2  0
 18 20  1  0
 20 21  1  0
 21 32  1  0
 21 22  1  1
 23 22  1  0
 23 31  1  0
 24 23  2  0
 25 24  1  0
 25 26  1  0
 26 27  1  0
 26 31  2  0
 27 28  2  0
 28 29  1  0
 30 29  2  0
 31 30  1  0
 32 34  1  0
 33 32  2  0
M  END
$$$$
