YTW.pdb
     RDKit          3D

 34 36  0  0  1  0  0  0  0  0999 V2000
   -0.0591  -19.6310   19.6171 O   0  0  0  0  0  0  0  0  0  0  0  0
    1.1589  -19.2315   20.1924 C   0  0  0  0  0  0  0  0  0  0  0  0
    1.5947  -19.6817   21.4211 C   0  0  0  0  0  0  0  0  0  0  0  0
    2.7989  -19.2564   21.9413 C   0  0  0  0  0  0  0  0  0  0  0  0
    3.6191  -18.3714   21.2694 C   0  0  0  0  0  0  0  0  0  0  0  0
    4.9046  -17.8936   21.8258 C   0  0  0  0  0  0  0  0  0  0  0  0
    5.9770  -18.2421   20.7830 C   0  0  2  0  0  0  0  0  0  0  0  0
    5.6607  -19.5271   20.1771 N   0  0  0  0  0  0  0  0  0  0  0  0
    7.2500  -18.2974   21.5365 C   0  0  0  0  0  0  0  0  0  0  0  0
    7.4281  -19.1824   22.3897 O   0  0  0  0  0  0  0  0  0  0  0  0
    3.1751  -17.9213   20.0299 C   0  0  0  0  0  0  0  0  0  0  0  0
    1.9620  -18.3543   19.5138 C   0  0  0  0  0  0  0  0  0  0  0  0
   10.3532  -18.2004   19.5029 C   0  0  0  0  0  0  0  0  0  0  0  0
   10.5963  -17.1976   20.6388 C   0  0  1  0  0  0  0  0  0  0  0  0
   10.4747  -15.9380   20.1007 O   0  0  0  0  0  0  0  0  0  0  0  0
    9.5634  -17.4366   21.7384 C   0  0  2  0  0  0  0  0  0  0  0  0
    8.2248  -17.3079   21.2349 N   0  0  0  0  0  0  0  0  0  0  0  0
    9.8388  -16.5182   22.8681 C   0  0  0  0  0  0  0  0  0  0  0  0
   10.0904  -15.2895   22.6956 O   0  0  0  0  0  0  0  0  0  0  0  0
    9.8334  -16.9815   24.2111 N   0  0  0  0  0  0  0  0  0  0  0  0
   10.6513  -16.3317   25.2409 C   0  0  1  0  0  0  0  0  0  0  0  0
   10.1384  -14.9287   25.3296 C   0  0  0  0  0  0  0  0  0  0  0  0
    8.7356  -14.8358   25.7803 C   0  0  0  0  0  0  0  0  0  0  0  0
    7.8269  -15.8971   25.8990 C   0  0  0  0  0  0  0  0  0  0  0  0
    6.6479  -15.4125   26.2953 N   0  0  0  0  0  0  0  0  0  0  0  0
    6.6904  -14.0721   26.4600 C   0  0  0  0  0  0  0  0  0  0  0  0
    5.7538  -13.1452   26.8604 C   0  0  0  0  0  0  0  0  0  0  0  0
    6.0956  -11.8226   26.9559 C   0  0  0  0  0  0  0  0  0  0  0  0
    7.4058  -11.4548   26.6363 C   0  0  0  0  0  0  0  0  0  0  0  0
    8.3296  -12.3854   26.2370 C   0  0  0  0  0  0  0  0  0  0  0  0
    8.0113  -13.7218   26.1324 C   0  0  0  0  0  0  0  0  0  0  0  0
   10.6177  -17.0368   26.5041 C   0  0  0  0  0  0  0  0  0  0  0  0
    9.8881  -18.0855   26.6037 O   0  0  0  0  0  0  0  0  0  0  0  0
   11.3086  -16.7005   27.6496 O   0  0  0  0  0  0  0  0  0  0  0  0
  2  1  1  0
  3  2  2  0
  4  3  1  0
  5  4  2  0
  5 11  1  0
  6  5  1  0
  7  9  1  0
  7  6  1  0
  7  8  1  1
  9 17  1  0
 10  9  2  0
 11 12  2  0
 12  2  1  0
 14 13  1  6
 14 16  1  0
 15 14  1  0
 16 18  1  0
 16 17  1  6
 18 19  2  0
 18 20  1  0
 20 21  1  0
 21 32  1  0
 21 22  1  1
 23 22  1  0
 23 31  1  0
 24 23  2  0
 25 24  1  0
 25 26  1  0
 26 27  1  0
 26 31  2  0
 27 28  2  0
 28 29  1  0
 30 29  2  0
 31 30  1  0
 32 34  1  0
 33 32  2  0
M  END
$$$$
