YTW.pdb
     RDKit          3D

 34 36  0  0  1  0  0  0  0  0999 V2000
    8.7053  -11.7834   16.5294 O   0  0  0  0  0  0  0  0  0  0  0  0
    8.3959  -12.5485   17.6665 C   0  0  0  0  0  0  0  0  0  0  0  0
    9.3342  -13.2910   18.3526 C   0  0  0  0  0  0  0  0  0  0  0  0
    8.9768  -14.0265   19.4630 C   0  0  0  0  0  0  0  0  0  0  0  0
    7.6807  -14.0573   19.9390 C   0  0  0  0  0  0  0  0  0  0  0  0
    7.2816  -14.8575   21.1183 C   0  0  0  0  0  0  0  0  0  0  0  0
    7.6027  -16.3188   20.7714 C   0  0  2  0  0  0  0  0  0  0  0  0
    6.4690  -16.9094   20.0756 N   0  0  0  0  0  0  0  0  0  0  0  0
    7.8464  -16.9837   22.0714 C   0  0  0  0  0  0  0  0  0  0  0  0
    6.8899  -17.2724   22.8094 O   0  0  0  0  0  0  0  0  0  0  0  0
    6.7384  -13.3058   19.2437 C   0  0  0  0  0  0  0  0  0  0  0  0
    7.1066  -12.5685   18.1273 C   0  0  0  0  0  0  0  0  0  0  0  0
    9.5751  -20.1526   22.5256 C   0  0  0  0  0  0  0  0  0  0  0  0
   10.3610  -19.1727   23.4073 C   0  0  1  0  0  0  0  0  0  0  0  0
   11.5206  -18.8638   22.7360 O   0  0  0  0  0  0  0  0  0  0  0  0
    9.5068  -17.9292   23.6467 C   0  0  2  0  0  0  0  0  0  0  0  0
    9.1975  -17.2622   22.4134 N   0  0  0  0  0  0  0  0  0  0  0  0
   10.1991  -17.0465   24.6149 C   0  0  0  0  0  0  0  0  0  0  0  0
   11.1787  -16.3159   24.2841 O   0  0  0  0  0  0  0  0  0  0  0  0
    9.7898  -16.9807   25.9737 N   0  0  0  0  0  0  0  0  0  0  0  0
   10.6538  -16.3842   26.9980 C   0  0  1  0  0  0  0  0  0  0  0  0
   10.1675  -14.9781   27.1591 C   0  0  0  0  0  0  0  0  0  0  0  0
    8.7283  -14.8107   26.8758 C   0  0  0  0  0  0  0  0  0  0  0  0
    7.8115  -15.8321   26.5892 C   0  0  0  0  0  0  0  0  0  0  0  0
    6.6179  -15.2848   26.3487 N   0  0  0  0  0  0  0  0  0  0  0  0
    6.6569  -13.9383   26.4552 C   0  0  0  0  0  0  0  0  0  0  0  0
    5.7005  -12.9574   26.3157 C   0  0  0  0  0  0  0  0  0  0  0  0
    6.0338  -11.6429   26.5063 C   0  0  0  0  0  0  0  0  0  0  0  0
    7.3569  -11.3393   26.8399 C   0  0  0  0  0  0  0  0  0  0  0  0
    8.3014  -12.3235   26.9744 C   0  0  0  0  0  0  0  0  0  0  0  0
    7.9922  -13.6530   26.7878 C   0  0  0  0  0  0  0  0  0  0  0  0
   10.6529  -17.1377   28.2334 C   0  0  0  0  0  0  0  0  0  0  0  0
   11.3948  -16.7372   29.1985 O   0  0  0  0  0  0  0  0  0  0  0  0
    9.9161  -18.2726   28.5013 O   0  0  0  0  0  0  0  0  0  0  0  0
  2  1  1  0
  3  2  2  0
  4  3  1  0
  5  4  2  0
  5 11  1  0
  6  5  1  0
  7  9  1  0
  7  6  1  0
  7  8  1  1
  9 17  1  0
 10  9  2  0
 11 12  2  0
 12  2  1  0
 14 13  1  6
 14 16  1  0
 15 14  1  0
 16 18  1  0
 16 17  1  6
 18 19  2  0
 18 20  1  0
 20 21  1  0
 21 32  1  0
 21 22  1  1
 23 22  1  0
 23 31  1  0
 24 23  2  0
 25 24  1  0
 25 26  1  0
 26 27  1  0
 26 31  2  0
 27 28  2  0
 28 29  1  0
 30 29  2  0
 31 30  1  0
 32 34  1  0
 33 32  2  0
M  END
$$$$
