YTW.pdb
     RDKit          3D

 34 36  0  0  1  0  0  0  0  0999 V2000
    8.5878  -12.2537   16.6517 O   0  0  0  0  0  0  0  0  0  0  0  0
    8.2809  -12.9735   17.8186 C   0  0  0  0  0  0  0  0  0  0  0  0
    7.0013  -13.0819   18.3217 C   0  0  0  0  0  0  0  0  0  0  0  0
    6.7547  -13.8000   19.4730 C   0  0  0  0  0  0  0  0  0  0  0  0
    7.7606  -14.4385   20.1713 C   0  0  0  0  0  0  0  0  0  0  0  0
    7.5110  -15.1963   21.4178 C   0  0  0  0  0  0  0  0  0  0  0  0
    7.3494  -16.6653   20.9994 C   0  0  2  0  0  0  0  0  0  0  0  0
    6.0433  -16.8505   20.3844 N   0  0  0  0  0  0  0  0  0  0  0  0
    7.4732  -17.4435   22.2526 C   0  0  0  0  0  0  0  0  0  0  0  0
    6.5577  -17.4178   23.0918 O   0  0  0  0  0  0  0  0  0  0  0  0
    9.0494  -14.3268   19.6588 C   0  0  0  0  0  0  0  0  0  0  0  0
    9.2887  -13.6022   18.4998 C   0  0  0  0  0  0  0  0  0  0  0  0
    8.8945  -21.0057   22.8477 C   0  0  0  0  0  0  0  0  0  0  0  0
    9.7546  -20.0196   23.6496 C   0  0  1  0  0  0  0  0  0  0  0  0
   10.9529  -19.8947   22.9867 O   0  0  0  0  0  0  0  0  0  0  0  0
    9.0225  -18.6819   23.7355 C   0  0  2  0  0  0  0  0  0  0  0  0
    8.6647  -18.1972   22.4321 N   0  0  0  0  0  0  0  0  0  0  0  0
    9.8591  -17.7208   24.4919 C   0  0  0  0  0  0  0  0  0  0  0  0
   10.2322  -16.6154   24.0004 O   0  0  0  0  0  0  0  0  0  0  0  0
   10.2854  -18.0010   25.8177 N   0  0  0  0  0  0  0  0  0  0  0  0
   10.3419  -16.9459   26.8352 C   0  0  1  0  0  0  0  0  0  0  0  0
    8.9666  -16.3573   26.8746 C   0  0  0  0  0  0  0  0  0  0  0  0
    8.9206  -14.9905   27.4309 C   0  0  0  0  0  0  0  0  0  0  0  0
    9.7347  -14.4788   28.4513 C   0  0  0  0  0  0  0  0  0  0  0  0
    9.3659  -13.2216   28.7071 N   0  0  0  0  0  0  0  0  0  0  0  0
    8.3409  -12.8328   27.9172 C   0  0  0  0  0  0  0  0  0  0  0  0
    7.6411  -11.6526   27.8002 C   0  0  0  0  0  0  0  0  0  0  0  0
    6.6385  -11.5389   26.8743 C   0  0  0  0  0  0  0  0  0  0  0  0
    6.3560  -12.6456   26.0684 C   0  0  0  0  0  0  0  0  0  0  0  0
    7.0576  -13.8163   26.1945 C   0  0  0  0  0  0  0  0  0  0  0  0
    8.0703  -13.9567   27.1180 C   0  0  0  0  0  0  0  0  0  0  0  0
   10.7943  -17.4359   28.1195 C   0  0  0  0  0  0  0  0  0  0  0  0
   10.2912  -18.5231   28.5747 O   0  0  0  0  0  0  0  0  0  0  0  0
   11.7404  -16.8494   28.9340 O   0  0  0  0  0  0  0  0  0  0  0  0
  2  1  1  0
  3  2  2  0
  4  3  1  0
  5  4  2  0
  5 11  1  0
  6  5  1  0
  7  9  1  0
  7  6  1  0
  7  8  1  1
  9 17  1  0
 10  9  2  0
 11 12  2  0
 12  2  1  0
 14 13  1  6
 14 16  1  0
 15 14  1  0
 16 18  1  0
 16 17  1  6
 18 19  2  0
 18 20  1  0
 20 21  1  0
 21 32  1  0
 21 22  1  1
 23 22  1  0
 23 31  1  0
 24 23  2  0
 25 24  1  0
 25 26  1  0
 26 27  1  0
 26 31  2  0
 27 28  2  0
 28 29  1  0
 30 29  2  0
 31 30  1  0
 32 34  1  0
 33 32  2  0
M  END
$$$$
