YTW.pdb
     RDKit          3D

 34 36  0  0  1  0  0  0  0  0999 V2000
    7.8942  -11.7006   16.5623 O   0  0  0  0  0  0  0  0  0  0  0  0
    7.9156  -12.4658   17.7405 C   0  0  0  0  0  0  0  0  0  0  0  0
    9.0754  -12.7595   18.4267 C   0  0  0  0  0  0  0  0  0  0  0  0
    9.0407  -13.5169   19.5785 C   0  0  0  0  0  0  0  0  0  0  0  0
    7.8609  -14.0131   20.0974 C   0  0  0  0  0  0  0  0  0  0  0  0
    7.8132  -14.8426   21.3222 C   0  0  0  0  0  0  0  0  0  0  0  0
    8.3139  -16.2360   20.9140 C   0  0  2  0  0  0  0  0  0  0  0  0
    7.3254  -16.8708   20.0548 N   0  0  0  0  0  0  0  0  0  0  0  0
    8.4829  -16.9771   22.1843 C   0  0  0  0  0  0  0  0  0  0  0  0
    7.4847  -17.3431   22.8266 O   0  0  0  0  0  0  0  0  0  0  0  0
    6.6938  -13.7131   19.4018 C   0  0  0  0  0  0  0  0  0  0  0  0
    6.7377  -12.9502   18.2435 C   0  0  0  0  0  0  0  0  0  0  0  0
   10.4829  -20.0823   22.7530 C   0  0  0  0  0  0  0  0  0  0  0  0
   11.0624  -19.0317   23.7098 C   0  0  1  0  0  0  0  0  0  0  0  0
   12.2407  -18.5869   23.1580 O   0  0  0  0  0  0  0  0  0  0  0  0
   10.0543  -17.8946   23.8641 C   0  0  2  0  0  0  0  0  0  0  0  0
    9.8137  -17.2358   22.6112 N   0  0  0  0  0  0  0  0  0  0  0  0
   10.5314  -16.9652   24.9151 C   0  0  0  0  0  0  0  0  0  0  0  0
   11.4742  -16.1444   24.7154 O   0  0  0  0  0  0  0  0  0  0  0  0
    9.9453  -16.9546   26.2091 N   0  0  0  0  0  0  0  0  0  0  0  0
   10.6736  -16.4259   27.3674 C   0  0  1  0  0  0  0  0  0  0  0  0
   10.1879  -15.0204   27.5349 C   0  0  0  0  0  0  0  0  0  0  0  0
    8.7875  -14.8208   27.1122 C   0  0  0  0  0  0  0  0  0  0  0  0
    7.8627  -15.8252   26.7930 C   0  0  0  0  0  0  0  0  0  0  0  0
    6.7172  -15.2524   26.4168 N   0  0  0  0  0  0  0  0  0  0  0  0
    6.7969  -13.9042   26.4599 C   0  0  0  0  0  0  0  0  0  0  0  0
    5.8946  -12.9011   26.1845 C   0  0  0  0  0  0  0  0  0  0  0  0
    6.2584  -11.5901   26.3399 C   0  0  0  0  0  0  0  0  0  0  0  0
    7.5563  -11.3129   26.7787 C   0  0  0  0  0  0  0  0  0  0  0  0
    8.4472  -12.3192   27.0482 C   0  0  0  0  0  0  0  0  0  0  0  0
    8.1064  -13.6459   26.8997 C   0  0  0  0  0  0  0  0  0  0  0  0
   10.4998  -17.2390   28.5517 C   0  0  0  0  0  0  0  0  0  0  0  0
   11.1238  -16.9089   29.6212 O   0  0  0  0  0  0  0  0  0  0  0  0
    9.7089  -18.3633   28.6658 O   0  0  0  0  0  0  0  0  0  0  0  0
  2  1  1  0
  3  2  2  0
  4  3  1  0
  5  4  2  0
  5 11  1  0
  6  5  1  0
  7  9  1  0
  7  6  1  0
  7  8  1  6
  9 17  1  0
 10  9  2  0
 11 12  2  0
 12  2  1  0
 14 13  1  6
 14 16  1  0
 15 14  1  0
 16 18  1  0
 16 17  1  6
 18 19  2  0
 18 20  1  0
 20 21  1  0
 21 32  1  0
 21 22  1  1
 23 22  1  0
 23 31  1  0
 24 23  2  0
 25 24  1  0
 25 26  1  0
 26 27  1  0
 26 31  2  0
 27 28  2  0
 28 29  1  0
 30 29  2  0
 31 30  1  0
 32 34  1  0
 33 32  2  0
M  END
$$$$
