YTW.pdb
     RDKit          3D

 34 36  0  0  1  0  0  0  0  0999 V2000
    8.9189  -12.8608   13.6690 O   0  0  0  0  0  0  0  0  0  0  0  0
    8.6063  -13.3117   14.9625 C   0  0  0  0  0  0  0  0  0  0  0  0
    7.3226  -13.6180   15.3634 C   0  0  0  0  0  0  0  0  0  0  0  0
    7.0701  -14.0555   16.6465 C   0  0  0  0  0  0  0  0  0  0  0  0
    8.0739  -14.2077   17.5828 C   0  0  0  0  0  0  0  0  0  0  0  0
    7.8126  -14.6586   18.9680 C   0  0  0  0  0  0  0  0  0  0  0  0
    8.2125  -16.1407   19.0173 C   0  0  2  0  0  0  0  0  0  0  0  0
    7.4075  -16.8892   18.0633 N   0  0  0  0  0  0  0  0  0  0  0  0
    7.9437  -16.5710   20.4079 C   0  0  0  0  0  0  0  0  0  0  0  0
    6.7771  -16.6014   20.8334 O   0  0  0  0  0  0  0  0  0  0  0  0
    9.3670  -13.8982   17.1728 C   0  0  0  0  0  0  0  0  0  0  0  0
    9.6123  -13.4586   15.8797 C   0  0  0  0  0  0  0  0  0  0  0  0
    7.8663  -19.5242   21.8818 C   0  0  0  0  0  0  0  0  0  0  0  0
    8.9899  -18.8709   22.6977 C   0  0  1  0  0  0  0  0  0  0  0  0
   10.1811  -19.3356   22.1919 O   0  0  0  0  0  0  0  0  0  0  0  0
    8.8805  -17.3534   22.5627 C   0  0  2  0  0  0  0  0  0  0  0  0
    9.0652  -16.9351   21.2016 N   0  0  0  0  0  0  0  0  0  0  0  0
    9.8427  -16.7150   23.4914 C   0  0  0  0  0  0  0  0  0  0  0  0
   11.0403  -16.4701   23.1620 O   0  0  0  0  0  0  0  0  0  0  0  0
    9.4595  -16.3457   24.8086 N   0  0  0  0  0  0  0  0  0  0  0  0
   10.4628  -16.0062   25.8233 C   0  0  1  0  0  0  0  0  0  0  0  0
    9.9471  -14.7727   26.4955 C   0  0  0  0  0  0  0  0  0  0  0  0
    8.5112  -14.5232   26.2597 C   0  0  0  0  0  0  0  0  0  0  0  0
    7.4984  -15.4902   26.1896 C   0  0  0  0  0  0  0  0  0  0  0  0
    6.3403  -14.8827   25.9217 N   0  0  0  0  0  0  0  0  0  0  0  0
    6.4951  -13.5455   25.8044 C   0  0  0  0  0  0  0  0  0  0  0  0
    5.6144  -12.5170   25.5533 C   0  0  0  0  0  0  0  0  0  0  0  0
    6.0646  -11.2244   25.5096 C   0  0  0  0  0  0  0  0  0  0  0  0
    7.4263  -10.9922   25.7235 C   0  0  0  0  0  0  0  0  0  0  0  0
    8.2945  -12.0237   25.9707 C   0  0  0  0  0  0  0  0  0  0  0  0
    7.8674  -13.3326   26.0197 C   0  0  0  0  0  0  0  0  0  0  0  0
   10.7173  -17.0966   26.7400 C   0  0  0  0  0  0  0  0  0  0  0  0
   11.7012  -16.9978   27.5551 O   0  0  0  0  0  0  0  0  0  0  0  0
    9.9944  -18.2667   26.8433 O   0  0  0  0  0  0  0  0  0  0  0  0
  2  1  1  0
  3  2  2  0
  4  3  1  0
  5  4  2  0
  5 11  1  0
  6  5  1  0
  7  9  1  0
  7  6  1  0
  7  8  1  6
  9 17  1  0
 10  9  2  0
 11 12  2  0
 12  2  1  0
 14 13  1  6
 14 16  1  0
 15 14  1  0
 16 18  1  0
 16 17  1  6
 18 19  2  0
 18 20  1  0
 20 21  1  0
 21 32  1  0
 21 22  1  1
 23 22  1  0
 23 31  1  0
 24 23  2  0
 25 24  1  0
 25 26  1  0
 26 27  1  0
 26 31  2  0
 27 28  2  0
 28 29  1  0
 30 29  2  0
 31 30  1  0
 32 34  1  0
 33 32  2  0
M  END
$$$$
