YTW.pdb
     RDKit          3D

 34 36  0  0  1  0  0  0  0  0999 V2000
    8.0247  -11.4270   17.0884 O   0  0  0  0  0  0  0  0  0  0  0  0
    7.9104  -12.3274   18.1609 C   0  0  0  0  0  0  0  0  0  0  0  0
    8.7429  -12.2987   19.2602 C   0  0  0  0  0  0  0  0  0  0  0  0
    8.5883  -13.2076   20.2857 C   0  0  0  0  0  0  0  0  0  0  0  0
    7.6068  -14.1790   20.2661 C   0  0  0  0  0  0  0  0  0  0  0  0
    7.4431  -15.1713   21.3518 C   0  0  0  0  0  0  0  0  0  0  0  0
    8.2848  -16.3904   20.9466 C   0  0  2  0  0  0  0  0  0  0  0  0
    7.5680  -17.1575   19.9386 N   0  0  0  0  0  0  0  0  0  0  0  0
    8.4670  -17.1697   22.1919 C   0  0  0  0  0  0  0  0  0  0  0  0
    7.5785  -17.9507   22.5707 O   0  0  0  0  0  0  0  0  0  0  0  0
    6.7691  -14.2028   19.1553 C   0  0  0  0  0  0  0  0  0  0  0  0
    6.9317  -13.2845   18.1277 C   0  0  0  0  0  0  0  0  0  0  0  0
   10.3929  -19.8635   22.9735 C   0  0  0  0  0  0  0  0  0  0  0  0
   10.9726  -18.7959   23.9112 C   0  0  1  0  0  0  0  0  0  0  0  0
   12.1057  -18.3004   23.3101 O   0  0  0  0  0  0  0  0  0  0  0  0
    9.9276  -17.7016   24.1198 C   0  0  2  0  0  0  0  0  0  0  0  0
    9.6809  -16.9761   22.9055 N   0  0  0  0  0  0  0  0  0  0  0  0
   10.3631  -16.8231   25.2309 C   0  0  0  0  0  0  0  0  0  0  0  0
   11.2099  -15.8961   25.0686 O   0  0  0  0  0  0  0  0  0  0  0  0
    9.8438  -16.9845   26.5433 N   0  0  0  0  0  0  0  0  0  0  0  0
   10.4200  -16.2603   27.6813 C   0  0  1  0  0  0  0  0  0  0  0  0
    9.2716  -15.5437   28.3194 C   0  0  0  0  0  0  0  0  0  0  0  0
    8.2048  -15.1671   27.3709 C   0  0  0  0  0  0  0  0  0  0  0  0
    7.2738  -16.0320   26.7783 C   0  0  0  0  0  0  0  0  0  0  0  0
    6.4994  -15.3288   25.9490 N   0  0  0  0  0  0  0  0  0  0  0  0
    6.8418  -14.0217   25.9361 C   0  0  0  0  0  0  0  0  0  0  0  0
    6.3412  -12.9266   25.2678 C   0  0  0  0  0  0  0  0  0  0  0  0
    6.8909  -11.6890   25.4715 C   0  0  0  0  0  0  0  0  0  0  0  0
    7.9603  -11.5808   26.3651 C   0  0  0  0  0  0  0  0  0  0  0  0
    8.4521  -12.6779   27.0236 C   0  0  0  0  0  0  0  0  0  0  0  0
    7.9174  -13.9337   26.8363 C   0  0  0  0  0  0  0  0  0  0  0  0
   11.1313  -17.1314   28.5920 C   0  0  0  0  0  0  0  0  0  0  0  0
   11.0326  -18.3992   28.4334 O   0  0  0  0  0  0  0  0  0  0  0  0
   11.9341  -16.7395   29.6429 O   0  0  0  0  0  0  0  0  0  0  0  0
  2  1  1  0
  3  2  2  0
  4  3  1  0
  5  4  2  0
  5 11  1  0
  6  5  1  0
  7  9  1  0
  7  6  1  0
  7  8  1  6
  9 17  1  0
 10  9  2  0
 11 12  2  0
 12  2  1  0
 14 13  1  6
 14 16  1  0
 15 14  1  0
 16 18  1  0
 16 17  1  6
 18 19  2  0
 18 20  1  0
 20 21  1  0
 21 32  1  0
 21 22  1  1
 23 22  1  0
 23 31  1  0
 24 23  2  0
 25 24  1  0
 25 26  1  0
 26 27  1  0
 26 31  2  0
 27 28  2  0
 28 29  1  0
 30 29  2  0
 31 30  1  0
 32 34  1  0
 33 32  2  0
M  END
$$$$
