YTW.pdb
     RDKit          3D

 34 36  0  0  1  0  0  0  0  0999 V2000
   17.1036  -14.7079   14.3488 O   0  0  0  0  0  0  0  0  0  0  0  0
   16.0219  -15.1900   15.1050 C   0  0  0  0  0  0  0  0  0  0  0  0
   14.7156  -14.8104   14.8774 C   0  0  0  0  0  0  0  0  0  0  0  0
   13.6904  -15.3129   15.6507 C   0  0  0  0  0  0  0  0  0  0  0  0
   13.9146  -16.2088   16.6776 C   0  0  0  0  0  0  0  0  0  0  0  0
   12.8247  -16.7405   17.5260 C   0  0  0  0  0  0  0  0  0  0  0  0
   11.5698  -15.9317   17.1658 C   0  0  2  0  0  0  0  0  0  0  0  0
   11.8615  -15.0696   16.0299 N   0  0  0  0  0  0  0  0  0  0  0  0
   11.2534  -15.1424   18.3775 C   0  0  0  0  0  0  0  0  0  0  0  0
   11.8136  -14.0506   18.5704 O   0  0  0  0  0  0  0  0  0  0  0  0
   15.2340  -16.5891   16.9022 C   0  0  0  0  0  0  0  0  0  0  0  0
   16.2597  -16.0786   16.1192 C   0  0  0  0  0  0  0  0  0  0  0  0
    8.5368  -13.3953   18.8805 C   0  0  0  0  0  0  0  0  0  0  0  0
    8.4375  -14.3302   20.0934 C   0  0  1  0  0  0  0  0  0  0  0  0
    7.5348  -15.3166   19.7722 O   0  0  0  0  0  0  0  0  0  0  0  0
    9.8197  -14.9118   20.3835 C   0  0  2  0  0  0  0  0  0  0  0  0
   10.3011  -15.6918   19.2781 N   0  0  0  0  0  0  0  0  0  0  0  0
    9.7632  -15.6856   21.6460 C   0  0  0  0  0  0  0  0  0  0  0  0
    9.1452  -16.7866   21.7379 O   0  0  0  0  0  0  0  0  0  0  0  0
   10.4071  -15.2201   22.8237 N   0  0  0  0  0  0  0  0  0  0  0  0
    9.6707  -15.0752   24.0840 C   0  0  1  0  0  0  0  0  0  0  0  0
    8.3217  -14.5545   23.6989 C   0  0  0  0  0  0  0  0  0  0  0  0
    7.3896  -14.4196   24.8359 C   0  0  0  0  0  0  0  0  0  0  0  0
    6.4712  -15.3820   25.2786 C   0  0  0  0  0  0  0  0  0  0  0  0
    5.7790  -14.8780   26.3028 N   0  0  0  0  0  0  0  0  0  0  0  0
    6.1696  -13.6181   26.5958 C   0  0  0  0  0  0  0  0  0  0  0  0
    5.7730  -12.7109   27.5528 C   0  0  0  0  0  0  0  0  0  0  0  0
    6.3765  -11.4837   27.6261 C   0  0  0  0  0  0  0  0  0  0  0  0
    7.3902  -11.1911   26.7093 C   0  0  0  0  0  0  0  0  0  0  0  0
    7.7759  -12.1010   25.7594 C   0  0  0  0  0  0  0  0  0  0  0  0
    7.1849  -13.3418   25.6642 C   0  0  0  0  0  0  0  0  0  0  0  0
    9.6166  -16.3073   24.8409 C   0  0  0  0  0  0  0  0  0  0  0  0
    9.6013  -17.4196   24.2047 O   0  0  0  0  0  0  0  0  0  0  0  0
    9.5837  -16.4250   26.2148 O   0  0  0  0  0  0  0  0  0  0  0  0
  2  1  1  0
  3  2  2  0
  4  3  1  0
  5  4  2  0
  5 11  1  0
  6  5  1  0
  7  9  1  0
  7  6  1  0
  7  8  1  6
  9 17  1  0
 10  9  2  0
 11 12  2  0
 12  2  1  0
 14 13  1  6
 14 16  1  0
 15 14  1  0
 16 18  1  0
 16 17  1  6
 18 19  2  0
 18 20  1  0
 20 21  1  0
 21 32  1  0
 21 22  1  6
 23 22  1  0
 23 31  1  0
 24 23  2  0
 25 24  1  0
 25 26  1  0
 26 27  1  0
 26 31  2  0
 27 28  2  0
 28 29  1  0
 30 29  2  0
 31 30  1  0
 32 34  1  0
 33 32  2  0
M  END
$$$$
