SWG.pdb
     RDKit          3D

 25 26  0  0  1  0  0  0  0  0999 V2000
   30.7166  -23.4112  -21.1986 O   0  0  0  0  0  0  0  0  0  0  0  0
   30.1617  -24.0116  -20.0901 C   0  0  0  0  0  0  0  0  0  0  0  0
   30.1310  -23.0260  -18.9170 C   0  0  2  0  0  0  0  0  0  0  0  0
   30.0270  -21.7139  -19.4805 N   0  0  0  0  0  0  0  0  0  0  0  0
   31.3819  -23.1920  -18.0971 C   0  0  0  0  0  0  0  0  0  0  0  0
   32.2850  -22.3730  -18.2064 O   0  0  0  0  0  0  0  0  0  0  0  0
   31.4862  -24.2969  -17.2115 N   0  0  0  0  0  0  0  0  0  0  0  0
   32.5220  -24.6197  -16.3163 C   0  0  1  0  0  0  0  0  0  0  0  0
   32.1312  -24.9885  -14.8966 C   0  0  0  0  0  0  0  0  0  0  0  0
   31.4034  -23.8747  -14.2056 C   0  0  0  0  0  0  0  0  0  0  0  0
   30.3151  -23.1435  -14.5925 C   0  0  0  0  0  0  0  0  0  0  0  0
   30.0795  -22.2389  -13.6316 N   0  0  0  0  0  0  0  0  0  0  0  0
   30.9778  -22.3746  -12.6573 C   0  0  0  0  0  0  0  0  0  0  0  0
   31.1447  -21.6687  -11.4642 C   0  0  0  0  0  0  0  0  0  0  0  0
   32.1652  -21.9920  -10.6058 C   0  0  0  0  0  0  0  0  0  0  0  0
   33.0145  -23.0145  -10.9358 C   0  0  0  0  0  0  0  0  0  0  0  0
   32.8700  -23.7324  -12.1169 C   0  0  0  0  0  0  0  0  0  0  0  0
   31.8432  -23.4009  -12.9723 C   0  0  0  0  0  0  0  0  0  0  0  0
   33.6615  -25.3914  -16.7798 C   0  0  0  0  0  0  0  0  0  0  0  0
   34.6353  -25.5409  -15.9462 O   0  0  0  0  0  0  0  0  0  0  0  0
   33.8294  -26.0031  -18.0468 N   0  0  0  0  0  0  0  0  0  0  0  0
   35.1070  -26.6510  -18.3211 C   0  0  0  0  0  0  0  0  0  0  0  0
   34.8580  -28.1084  -18.4282 C   0  0  0  0  0  0  0  0  0  0  0  0
   33.6946  -28.6241  -18.3774 O   0  0  0  0  0  0  0  0  0  0  0  0
   35.9321  -28.9625  -18.5906 O   0  0  0  0  0  0  0  0  0  0  0  0
  2  1  1  0
  2  3  1  0
  3  4  1  6
  5  7  1  0
  5  3  1  0
  6  5  2  0
  8  7  1  0
  8  9  1  1
  9 10  1  0
 10 11  2  0
 10 18  1  0
 11 12  1  0
 12 13  1  0
 13 14  2  0
 15 14  1  0
 16 15  2  0
 17 18  2  0
 17 16  1  0
 18 13  1  0
 19  8  1  0
 20 19  2  0
 21 19  1  0
 22 23  1  0
 22 21  1  0
 23 25  1  0
 24 23  2  0
M  END
$$$$
