SWG.pdb
     RDKit          3D

 25 26  0  0  1  0  0  0  0  0999 V2000
   28.2579  -17.9477  -15.7168 O   0  0  0  0  0  0  0  0  0  0  0  0
   27.4142  -18.6230  -14.8627 C   0  0  0  0  0  0  0  0  0  0  0  0
   28.1221  -19.8545  -14.2874 C   0  0  2  0  0  0  0  0  0  0  0  0
   28.7135  -20.5466  -15.3924 N   0  0  0  0  0  0  0  0  0  0  0  0
   27.1196  -20.7067  -13.5572 C   0  0  0  0  0  0  0  0  0  0  0  0
   26.7085  -21.7335  -14.0817 O   0  0  0  0  0  0  0  0  0  0  0  0
   26.6730  -20.3005  -12.2721 N   0  0  0  0  0  0  0  0  0  0  0  0
   25.6246  -20.8224  -11.4930 C   0  0  1  0  0  0  0  0  0  0  0  0
   25.7438  -20.6978   -9.9848 C   0  0  0  0  0  0  0  0  0  0  0  0
   27.1464  -20.9314   -9.5097 C   0  0  0  0  0  0  0  0  0  0  0  0
   28.1810  -21.6172  -10.0825 C   0  0  0  0  0  0  0  0  0  0  0  0
   29.2169  -21.5598   -9.2336 N   0  0  0  0  0  0  0  0  0  0  0  0
   28.8720  -20.8647   -8.1508 C   0  0  0  0  0  0  0  0  0  0  0  0
   29.5986  -20.5419   -7.0030 C   0  0  0  0  0  0  0  0  0  0  0  0
   29.0180  -19.8071   -6.0001 C   0  0  0  0  0  0  0  0  0  0  0  0
   27.7191  -19.3962   -6.1419 C   0  0  0  0  0  0  0  0  0  0  0  0
   26.9745  -19.7042   -7.2740 C   0  0  0  0  0  0  0  0  0  0  0  0
   27.5653  -20.4421   -8.2752 C   0  0  0  0  0  0  0  0  0  0  0  0
   24.2509  -20.6735  -11.9396 C   0  0  0  0  0  0  0  0  0  0  0  0
   23.8089  -19.4666  -12.0553 O   0  0  0  0  0  0  0  0  0  0  0  0
   23.3347  -21.7042  -12.2655 N   0  0  0  0  0  0  0  0  0  0  0  0
   22.0957  -21.3215  -12.9329 C   0  0  0  0  0  0  0  0  0  0  0  0
   21.0392  -21.2233  -11.8975 C   0  0  0  0  0  0  0  0  0  0  0  0
   21.2806  -20.9535  -10.6764 O   0  0  0  0  0  0  0  0  0  0  0  0
   19.7225  -21.4334  -12.2603 O   0  0  0  0  0  0  0  0  0  0  0  0
  2  1  1  0
  2  3  1  0
  3  4  1  6
  5  7  1  0
  5  3  1  0
  6  5  2  0
  8  7  1  0
  8  9  1  1
  9 10  1  0
 10 11  2  0
 10 18  1  0
 11 12  1  0
 12 13  1  0
 13 14  2  0
 15 14  1  0
 16 15  2  0
 17 18  2  0
 17 16  1  0
 18 13  1  0
 19  8  1  0
 20 19  2  0
 21 19  1  0
 22 23  1  0
 22 21  1  0
 23 25  1  0
 24 23  2  0
M  END
$$$$
