SWG.pdb
     RDKit          3D

 25 26  0  0  1  0  0  0  0  0999 V2000
   20.3394  -38.1202   -7.8189 O   0  0  0  0  0  0  0  0  0  0  0  0
   19.9073  -36.8207   -7.9670 C   0  0  0  0  0  0  0  0  0  0  0  0
   21.0188  -35.9627   -8.5811 C   0  0  2  0  0  0  0  0  0  0  0  0
   21.5337  -36.6909   -9.7012 N   0  0  0  0  0  0  0  0  0  0  0  0
   22.0754  -35.7019   -7.5418 C   0  0  0  0  0  0  0  0  0  0  0  0
   23.0629  -36.4237   -7.4947 O   0  0  0  0  0  0  0  0  0  0  0  0
   21.9035  -34.6206   -6.6378 N   0  0  0  0  0  0  0  0  0  0  0  0
   22.7716  -34.1618   -5.6306 C   0  0  1  0  0  0  0  0  0  0  0  0
   23.1258  -32.6858   -5.6302 C   0  0  0  0  0  0  0  0  0  0  0  0
   23.8277  -32.2748   -6.8896 C   0  0  0  0  0  0  0  0  0  0  0  0
   23.3448  -31.7140   -8.0390 C   0  0  0  0  0  0  0  0  0  0  0  0
   24.3787  -31.5757   -8.8810 N   0  0  0  0  0  0  0  0  0  0  0  0
   25.4910  -32.0280   -8.3042 C   0  0  0  0  0  0  0  0  0  0  0  0
   26.8022  -32.0988   -8.7789 C   0  0  0  0  0  0  0  0  0  0  0  0
   27.7967  -32.6198   -7.9902 C   0  0  0  0  0  0  0  0  0  0  0  0
   27.4848  -33.0676   -6.7339 C   0  0  0  0  0  0  0  0  0  0  0  0
   26.1880  -33.0083   -6.2379 C   0  0  0  0  0  0  0  0  0  0  0  0
   25.1965  -32.4840   -7.0366 C   0  0  0  0  0  0  0  0  0  0  0  0
   22.6546  -34.6888   -4.2825 C   0  0  0  0  0  0  0  0  0  0  0  0
   21.5299  -34.4918   -3.6810 O   0  0  0  0  0  0  0  0  0  0  0  0
   23.6361  -35.3983   -3.5469 N   0  0  0  0  0  0  0  0  0  0  0  0
   23.2763  -35.8628   -2.2120 C   0  0  0  0  0  0  0  0  0  0  0  0
   23.7243  -34.8348   -1.2424 C   0  0  0  0  0  0  0  0  0  0  0  0
   23.9887  -33.6329   -1.5706 O   0  0  0  0  0  0  0  0  0  0  0  0
   23.8679  -35.1835    0.0869 O   0  0  0  0  0  0  0  0  0  0  0  0
  2  1  1  0
  2  3  1  0
  3  4  1  6
  5  7  1  0
  5  3  1  0
  6  5  2  0
  8  7  1  0
  8  9  1  1
  9 10  1  0
 10 11  2  0
 10 18  1  0
 11 12  1  0
 12 13  1  0
 13 14  2  0
 15 14  1  0
 16 15  2  0
 17 18  2  0
 17 16  1  0
 18 13  1  0
 19  8  1  0
 20 19  2  0
 21 19  1  0
 22 23  1  0
 22 21  1  0
 23 25  1  0
 24 23  2  0
M  END
$$$$
