SWG.pdb
     RDKit          3D

 25 26  0  0  1  0  0  0  0  0999 V2000
   15.2640  -22.4821    3.7604 O   0  0  0  0  0  0  0  0  0  0  0  0
   14.7767  -21.1961    3.8390 C   0  0  0  0  0  0  0  0  0  0  0  0
   15.6826  -20.2407    3.0547 C   0  0  2  0  0  0  0  0  0  0  0  0
   16.4308  -21.0414    2.1333 N   0  0  0  0  0  0  0  0  0  0  0  0
   16.5743  -19.5020    4.0158 C   0  0  0  0  0  0  0  0  0  0  0  0
   17.7350  -19.8639    4.1578 O   0  0  0  0  0  0  0  0  0  0  0  0
   16.0484  -18.3978    4.7371 N   0  0  0  0  0  0  0  0  0  0  0  0
   16.7037  -17.5291    5.6285 C   0  0  1  0  0  0  0  0  0  0  0  0
   16.5036  -16.0379    5.4274 C   0  0  0  0  0  0  0  0  0  0  0  0
   17.2061  -15.5357    4.2019 C   0  0  0  0  0  0  0  0  0  0  0  0
   17.2731  -16.0498    2.9370 C   0  0  0  0  0  0  0  0  0  0  0  0
   18.0623  -15.2394    2.2176 N   0  0  0  0  0  0  0  0  0  0  0  0
   18.4926  -14.2371    2.9824 C   0  0  0  0  0  0  0  0  0  0  0  0
   19.3301  -13.1591    2.6892 C   0  0  0  0  0  0  0  0  0  0  0  0
   19.6421  -12.2409    3.6600 C   0  0  0  0  0  0  0  0  0  0  0  0
   19.1208  -12.3973    4.9168 C   0  0  0  0  0  0  0  0  0  0  0  0
   18.2850  -13.4612    5.2343 C   0  0  0  0  0  0  0  0  0  0  0  0
   17.9775  -14.3777    4.2538 C   0  0  0  0  0  0  0  0  0  0  0  0
   16.7976  -17.8759    7.0355 C   0  0  0  0  0  0  0  0  0  0  0  0
   15.6846  -18.0865    7.6539 O   0  0  0  0  0  0  0  0  0  0  0  0
   17.9748  -18.0113    7.8124 N   0  0  0  0  0  0  0  0  0  0  0  0
   17.8187  -18.3347    9.2260 C   0  0  0  0  0  0  0  0  0  0  0  0
   17.9890  -19.7999    9.3734 C   0  0  0  0  0  0  0  0  0  0  0  0
   18.0637  -20.5977    8.3834 O   0  0  0  0  0  0  0  0  0  0  0  0
   18.0713  -20.3417   10.6419 O   0  0  0  0  0  0  0  0  0  0  0  0
  2  1  1  0
  2  3  1  0
  3  4  1  6
  5  7  1  0
  5  3  1  0
  6  5  2  0
  8  7  1  0
  8  9  1  1
  9 10  1  0
 10 11  2  0
 10 18  1  0
 11 12  1  0
 12 13  1  0
 13 14  2  0
 15 14  1  0
 16 15  2  0
 17 18  2  0
 17 16  1  0
 18 13  1  0
 19  8  1  0
 20 19  2  0
 21 19  1  0
 22 23  1  0
 22 21  1  0
 23 25  1  0
 24 23  2  0
M  END
$$$$
