SWG.pdb
     RDKit          3D

 25 26  0  0  1  0  0  0  0  0999 V2000
   27.0287  -21.8559  -17.8015 O   0  0  0  0  0  0  0  0  0  0  0  0
   26.0516  -22.0102  -16.8429 C   0  0  0  0  0  0  0  0  0  0  0  0
   26.4579  -23.1026  -15.8477 C   0  0  2  0  0  0  0  0  0  0  0  0
   26.0132  -24.3485  -16.3953 N   0  0  0  0  0  0  0  0  0  0  0  0
   25.8282  -22.8151  -14.5115 C   0  0  0  0  0  0  0  0  0  0  0  0
   24.6961  -23.2197  -14.2813 O   0  0  0  0  0  0  0  0  0  0  0  0
   26.5640  -22.0804  -13.5446 N   0  0  0  0  0  0  0  0  0  0  0  0
   26.1235  -21.5293  -12.3277 C   0  0  1  0  0  0  0  0  0  0  0  0
   27.1827  -21.0465  -11.3535 C   0  0  0  0  0  0  0  0  0  0  0  0
   26.5996  -20.6884  -10.0196 C   0  0  0  0  0  0  0  0  0  0  0  0
   25.3208  -20.3633   -9.6620 C   0  0  0  0  0  0  0  0  0  0  0  0
   25.3303  -20.0893   -8.3498 N   0  0  0  0  0  0  0  0  0  0  0  0
   26.5654  -20.2300   -7.8707 C   0  0  0  0  0  0  0  0  0  0  0  0
   27.0705  -20.0521   -6.5813 C   0  0  0  0  0  0  0  0  0  0  0  0
   28.4037  -20.2534   -6.3264 C   0  0  0  0  0  0  0  0  0  0  0  0
   29.2286  -20.6306   -7.3527 C   0  0  0  0  0  0  0  0  0  0  0  0
   28.7508  -20.8142   -8.6447 C   0  0  0  0  0  0  0  0  0  0  0  0
   27.4116  -20.6099   -8.8911 C   0  0  0  0  0  0  0  0  0  0  0  0
   24.9434  -20.6834  -12.3043 C   0  0  0  0  0  0  0  0  0  0  0  0
   25.1322  -19.4230  -12.5076 O   0  0  0  0  0  0  0  0  0  0  0  0
   23.6019  -21.0826  -12.0837 N   0  0  0  0  0  0  0  0  0  0  0  0
   22.5728  -20.0500  -12.1293 C   0  0  0  0  0  0  0  0  0  0  0  0
   21.2691  -20.7026  -11.8610 C   0  0  0  0  0  0  0  0  0  0  0  0
   21.0626  -21.4672  -10.8636 O   0  0  0  0  0  0  0  0  0  0  0  0
   20.2164  -20.4805  -12.7282 O   0  0  0  0  0  0  0  0  0  0  0  0
  2  1  1  0
  2  3  1  0
  3  4  1  6
  5  7  1  0
  5  3  1  0
  6  5  2  0
  8  7  1  0
  8  9  1  6
  9 10  1  0
 10 11  2  0
 10 18  1  0
 11 12  1  0
 12 13  1  0
 13 14  2  0
 15 14  1  0
 16 15  2  0
 17 18  2  0
 17 16  1  0
 18 13  1  0
 19  8  1  0
 20 19  2  0
 21 19  1  0
 22 23  1  0
 22 21  1  0
 23 25  1  0
 24 23  2  0
M  END
$$$$
