SWG.pdb
     RDKit          3D

 25 26  0  0  1  0  0  0  0  0999 V2000
   22.2835  -27.0084  -17.1540 O   0  0  0  0  0  0  0  0  0  0  0  0
   22.9848  -26.1973  -18.0187 C   0  0  0  0  0  0  0  0  0  0  0  0
   24.4429  -26.0770  -17.5624 C   0  0  2  0  0  0  0  0  0  0  0  0
   24.9268  -27.4099  -17.3649 N   0  0  0  0  0  0  0  0  0  0  0  0
   24.5016  -25.2609  -16.2995 C   0  0  0  0  0  0  0  0  0  0  0  0
   25.3149  -25.5530  -15.4326 O   0  0  0  0  0  0  0  0  0  0  0  0
   23.6109  -24.1663  -16.1420 N   0  0  0  0  0  0  0  0  0  0  0  0
   23.5600  -23.2067  -15.1148 C   0  0  1  0  0  0  0  0  0  0  0  0
   23.7981  -21.7574  -15.4981 C   0  0  0  0  0  0  0  0  0  0  0  0
   24.6664  -21.6318  -16.7139 C   0  0  0  0  0  0  0  0  0  0  0  0
   24.3584  -21.2829  -17.9992 C   0  0  0  0  0  0  0  0  0  0  0  0
   25.4889  -21.3589  -18.7156 N   0  0  0  0  0  0  0  0  0  0  0  0
   26.4937  -21.7419  -17.9294 C   0  0  0  0  0  0  0  0  0  0  0  0
   27.8424  -21.9645  -18.2140 C   0  0  0  0  0  0  0  0  0  0  0  0
   28.7015  -22.3682  -17.2232 C   0  0  0  0  0  0  0  0  0  0  0  0
   28.2175  -22.5486  -15.9546 C   0  0  0  0  0  0  0  0  0  0  0  0
   26.8798  -22.3339  -15.6453 C   0  0  0  0  0  0  0  0  0  0  0  0
   26.0251  -21.9290  -16.6460 C   0  0  0  0  0  0  0  0  0  0  0  0
   22.5685  -23.3301  -14.0610 C   0  0  0  0  0  0  0  0  0  0  0  0
   22.6245  -22.4589  -13.1106 O   0  0  0  0  0  0  0  0  0  0  0  0
   21.5412  -24.3001  -13.9545 N   0  0  0  0  0  0  0  0  0  0  0  0
   20.7777  -24.3429  -12.7125 C   0  0  0  0  0  0  0  0  0  0  0  0
   19.5527  -23.5317  -12.9097 C   0  0  0  0  0  0  0  0  0  0  0  0
   19.3271  -22.8515  -13.9626 O   0  0  0  0  0  0  0  0  0  0  0  0
   18.5996  -23.5015  -11.9096 O   0  0  0  0  0  0  0  0  0  0  0  0
  2  1  1  0
  2  3  1  0
  3  4  1  1
  5  7  1  0
  5  3  1  0
  6  5  2  0
  8  7  1  0
  8  9  1  6
  9 10  1  0
 10 11  2  0
 10 18  1  0
 11 12  1  0
 12 13  1  0
 13 14  2  0
 15 14  1  0
 16 15  2  0
 17 18  2  0
 17 16  1  0
 18 13  1  0
 19  8  1  0
 20 19  2  0
 21 19  1  0
 22 23  1  0
 22 21  1  0
 23 25  1  0
 24 23  2  0
M  END
$$$$
