SWG.pdb
     RDKit          3D

 25 26  0  0  1  0  0  0  0  0999 V2000
   17.2719   -5.8730  -15.9573 O   0  0  0  0  0  0  0  0  0  0  0  0
   18.3003   -6.4997  -16.6259 C   0  0  0  0  0  0  0  0  0  0  0  0
   19.3665   -5.4761  -17.0308 C   0  0  2  0  0  0  0  0  0  0  0  0
   18.7783   -4.6388  -18.0322 N   0  0  0  0  0  0  0  0  0  0  0  0
   20.5815   -6.2018  -17.5425 C   0  0  0  0  0  0  0  0  0  0  0  0
   20.6635   -6.4702  -18.7340 O   0  0  0  0  0  0  0  0  0  0  0  0
   21.6089   -6.5584  -16.6297 N   0  0  0  0  0  0  0  0  0  0  0  0
   22.8030   -7.2616  -16.8710 C   0  0  1  0  0  0  0  0  0  0  0  0
   23.9790   -6.9802  -15.9533 C   0  0  0  0  0  0  0  0  0  0  0  0
   25.2701   -7.4895  -16.5203 C   0  0  0  0  0  0  0  0  0  0  0  0
   26.0922   -6.9670  -17.4794 C   0  0  0  0  0  0  0  0  0  0  0  0
   27.1037   -7.8298  -17.6518 N   0  0  0  0  0  0  0  0  0  0  0  0
   26.9476   -8.8729  -16.8381 C   0  0  0  0  0  0  0  0  0  0  0  0
   27.7285  -10.0164  -16.6591 C   0  0  0  0  0  0  0  0  0  0  0  0
   27.3556  -10.9738  -15.7496 C   0  0  0  0  0  0  0  0  0  0  0  0
   26.2096  -10.7910  -15.0221 C   0  0  0  0  0  0  0  0  0  0  0  0
   25.4151   -9.6621  -15.1814 C   0  0  0  0  0  0  0  0  0  0  0  0
   25.7971   -8.7067  -16.0963 C   0  0  0  0  0  0  0  0  0  0  0  0
   22.7504   -8.6575  -17.2678 C   0  0  0  0  0  0  0  0  0  0  0  0
   22.2203   -9.4780  -16.4244 O   0  0  0  0  0  0  0  0  0  0  0  0
   23.2151   -9.2265  -18.4794 N   0  0  0  0  0  0  0  0  0  0  0  0
   23.0804  -10.6694  -18.6443 C   0  0  0  0  0  0  0  0  0  0  0  0
   21.7628  -10.9290  -19.2721 C   0  0  0  0  0  0  0  0  0  0  0  0
   20.9523  -11.8176  -18.8532 O   0  0  0  0  0  0  0  0  0  0  0  0
   21.3818  -10.1781  -20.3677 O   0  0  0  0  0  0  0  0  0  0  0  0
  2  1  1  0
  2  3  1  0
  3  4  1  6
  5  7  1  0
  5  3  1  0
  6  5  2  0
  8  7  1  0
  8  9  1  1
  9 10  1  0
 10 11  2  0
 10 18  1  0
 11 12  1  0
 12 13  1  0
 13 14  2  0
 15 14  1  0
 16 15  2  0
 17 18  2  0
 17 16  1  0
 18 13  1  0
 19  8  1  0
 20 19  2  0
 21 19  1  0
 22 23  1  0
 22 21  1  0
 23 25  1  0
 24 23  2  0
M  END
$$$$
