SWG.pdb
     RDKit          3D

 25 26  0  0  1  0  0  0  0  0999 V2000
   25.6129  -19.7313  -14.4386 O   0  0  0  0  0  0  0  0  0  0  0  0
   26.9231  -19.7981  -14.0186 C   0  0  0  0  0  0  0  0  0  0  0  0
   27.2065  -21.1680  -13.3928 C   0  0  2  0  0  0  0  0  0  0  0  0
   27.0472  -22.1396  -14.4323 N   0  0  0  0  0  0  0  0  0  0  0  0
   26.2530  -21.3987  -12.2518 C   0  0  0  0  0  0  0  0  0  0  0  0
   25.4019  -22.2733  -12.3475 O   0  0  0  0  0  0  0  0  0  0  0  0
   26.3632  -20.5958  -11.0859 N   0  0  0  0  0  0  0  0  0  0  0  0
   25.5073  -20.5302   -9.9716 C   0  0  1  0  0  0  0  0  0  0  0  0
   26.0466  -19.8774   -8.7118 C   0  0  0  0  0  0  0  0  0  0  0  0
   27.3843  -20.4294   -8.3200 C   0  0  0  0  0  0  0  0  0  0  0  0
   28.2229  -21.2878   -8.9747 C   0  0  0  0  0  0  0  0  0  0  0  0
   29.2806  -21.4981   -8.1784 N   0  0  0  0  0  0  0  0  0  0  0  0
   29.1377  -20.8050   -7.0498 C   0  0  0  0  0  0  0  0  0  0  0  0
   29.9628  -20.7065   -5.9278 C   0  0  0  0  0  0  0  0  0  0  0  0
   29.5952  -19.9201   -4.8651 C   0  0  0  0  0  0  0  0  0  0  0  0
   28.4105  -19.2351   -4.9218 C   0  0  0  0  0  0  0  0  0  0  0  0
   27.5716  -19.3161   -6.0267 C   0  0  0  0  0  0  0  0  0  0  0  0
   27.9486  -20.1077   -7.0883 C   0  0  0  0  0  0  0  0  0  0  0  0
   24.0952  -20.2500  -10.1622 C   0  0  0  0  0  0  0  0  0  0  0  0
   23.8028  -19.1842  -10.8286 O   0  0  0  0  0  0  0  0  0  0  0  0
   22.9954  -21.0146   -9.7000 N   0  0  0  0  0  0  0  0  0  0  0  0
   21.6566  -20.5525  -10.0481 C   0  0  0  0  0  0  0  0  0  0  0  0
   21.1887  -21.3583  -11.2012 C   0  0  0  0  0  0  0  0  0  0  0  0
   21.7570  -21.3429  -12.3409 O   0  0  0  0  0  0  0  0  0  0  0  0
   20.0813  -22.1703  -11.0471 O   0  0  0  0  0  0  0  0  0  0  0  0
  2  1  1  0
  2  3  1  0
  3  4  1  6
  5  7  1  0
  5  3  1  0
  6  5  2  0
  8  7  1  0
  8  9  1  1
  9 10  1  0
 10 11  2  0
 10 18  1  0
 11 12  1  0
 12 13  1  0
 13 14  2  0
 15 14  1  0
 16 15  2  0
 17 18  2  0
 17 16  1  0
 18 13  1  0
 19  8  1  0
 20 19  2  0
 21 19  1  0
 22 23  1  0
 22 21  1  0
 23 25  1  0
 24 23  2  0
M  END
$$$$
