SWG.pdb
     RDKit          3D

 25 26  0  0  1  0  0  0  0  0999 V2000
   30.6712  -25.1232  -17.1179 O   0  0  0  0  0  0  0  0  0  0  0  0
   30.5612  -23.8028  -16.7413 C   0  0  0  0  0  0  0  0  0  0  0  0
   29.6256  -23.0578  -17.6997 C   0  0  2  0  0  0  0  0  0  0  0  0
   30.3618  -22.8338  -18.9071 N   0  0  0  0  0  0  0  0  0  0  0  0
   29.1833  -21.7698  -17.0595 C   0  0  0  0  0  0  0  0  0  0  0  0
   29.8288  -20.7485  -17.2561 O   0  0  0  0  0  0  0  0  0  0  0  0
   28.0231  -21.7676  -16.2410 N   0  0  0  0  0  0  0  0  0  0  0  0
   27.3924  -20.6850  -15.6016 C   0  0  1  0  0  0  0  0  0  0  0  0
   26.6608  -19.6842  -16.4775 C   0  0  0  0  0  0  0  0  0  0  0  0
   26.3139  -18.4309  -15.7314 C   0  0  0  0  0  0  0  0  0  0  0  0
   27.0425  -17.6890  -14.8439 C   0  0  0  0  0  0  0  0  0  0  0  0
   26.2620  -16.6805  -14.4308 N   0  0  0  0  0  0  0  0  0  0  0  0
   25.0723  -16.7611  -15.0248 C   0  0  0  0  0  0  0  0  0  0  0  0
   23.9394  -15.9526  -14.9138 C   0  0  0  0  0  0  0  0  0  0  0  0
   22.8081  -16.2437  -15.6337 C   0  0  0  0  0  0  0  0  0  0  0  0
   22.8073  -17.3358  -16.4603 C   0  0  0  0  0  0  0  0  0  0  0  0
   23.9215  -18.1563  -16.5886 C   0  0  0  0  0  0  0  0  0  0  0  0
   25.0522  -17.8565  -15.8623 C   0  0  0  0  0  0  0  0  0  0  0  0
   26.7124  -20.8920  -14.3353 C   0  0  0  0  0  0  0  0  0  0  0  0
   25.8093  -21.8135  -14.3086 O   0  0  0  0  0  0  0  0  0  0  0  0
   26.9264  -20.1969  -13.1192 N   0  0  0  0  0  0  0  0  0  0  0  0
   26.1801  -20.6395  -11.9469 C   0  0  0  0  0  0  0  0  0  0  0  0
   24.7876  -20.1514  -12.0900 C   0  0  0  0  0  0  0  0  0  0  0  0
   24.3442  -19.6054  -13.1518 O   0  0  0  0  0  0  0  0  0  0  0  0
   23.9160  -20.2880  -11.0264 O   0  0  0  0  0  0  0  0  0  0  0  0
  2  1  1  0
  2  3  1  0
  3  4  1  6
  5  7  1  0
  5  3  1  0
  6  5  2  0
  8  7  1  0
  8  9  1  6
  9 10  1  0
 10 11  2  0
 10 18  1  0
 11 12  1  0
 12 13  1  0
 13 14  2  0
 15 14  1  0
 16 15  2  0
 17 18  2  0
 17 16  1  0
 18 13  1  0
 19  8  1  0
 20 19  2  0
 21 19  1  0
 22 23  1  0
 22 21  1  0
 23 25  1  0
 24 23  2  0
M  END
$$$$
