SWG.pdb
     RDKit          3D

 25 26  0  0  1  0  0  0  0  0999 V2000
   27.6268  -18.9555  -15.9257 O   0  0  0  0  0  0  0  0  0  0  0  0
   26.7608  -19.6081  -15.0761 C   0  0  0  0  0  0  0  0  0  0  0  0
   27.5371  -20.2376  -13.9144 C   0  0  2  0  0  0  0  0  0  0  0  0
   28.4484  -21.1813  -14.4878 N   0  0  0  0  0  0  0  0  0  0  0  0
   26.5678  -20.8912  -12.9668 C   0  0  0  0  0  0  0  0  0  0  0  0
   25.9061  -21.8475  -13.3491 O   0  0  0  0  0  0  0  0  0  0  0  0
   26.4432  -20.3837  -11.6466 N   0  0  0  0  0  0  0  0  0  0  0  0
   25.4972  -20.7097  -10.6581 C   0  0  1  0  0  0  0  0  0  0  0  0
   25.8340  -20.3529   -9.2216 C   0  0  0  0  0  0  0  0  0  0  0  0
   27.2774  -20.6033   -8.9028 C   0  0  0  0  0  0  0  0  0  0  0  0
   28.2387  -21.2879   -9.5927 C   0  0  0  0  0  0  0  0  0  0  0  0
   29.3600  -21.2504   -8.8590 N   0  0  0  0  0  0  0  0  0  0  0  0
   29.1390  -20.5689   -7.7359 C   0  0  0  0  0  0  0  0  0  0  0  0
   29.9870  -20.2681   -6.6682 C   0  0  0  0  0  0  0  0  0  0  0  0
   29.5235  -19.5441   -5.5988 C   0  0  0  0  0  0  0  0  0  0  0  0
   28.2205  -19.1219   -5.5948 C   0  0  0  0  0  0  0  0  0  0  0  0
   27.3563  -19.4080   -6.6448 C   0  0  0  0  0  0  0  0  0  0  0  0
   27.8302  -20.1351   -7.7136 C   0  0  0  0  0  0  0  0  0  0  0  0
   24.0806  -20.5514  -10.9353 C   0  0  0  0  0  0  0  0  0  0  0  0
   23.6693  -19.3515  -11.1732 O   0  0  0  0  0  0  0  0  0  0  0  0
   23.0922  -21.5659  -10.9758 N   0  0  0  0  0  0  0  0  0  0  0  0
   21.7070  -21.1533  -11.1709 C   0  0  0  0  0  0  0  0  0  0  0  0
   21.3681  -21.3762  -12.5967 C   0  0  0  0  0  0  0  0  0  0  0  0
   22.2414  -21.4301  -13.5223 O   0  0  0  0  0  0  0  0  0  0  0  0
   20.0428  -21.5342  -12.9547 O   0  0  0  0  0  0  0  0  0  0  0  0
  2  1  1  0
  2  3  1  0
  3  4  1  6
  5  7  1  0
  5  3  1  0
  6  5  2  0
  8  7  1  0
  8  9  1  1
  9 10  1  0
 10 11  2  0
 10 18  1  0
 11 12  1  0
 12 13  1  0
 13 14  2  0
 15 14  1  0
 16 15  2  0
 17 18  2  0
 17 16  1  0
 18 13  1  0
 19  8  1  0
 20 19  2  0
 21 19  1  0
 22 23  1  0
 22 21  1  0
 23 25  1  0
 24 23  2  0
M  END
$$$$
