SWG.pdb
     RDKit          3D

 25 26  0  0  1  0  0  0  0  0999 V2000
   20.0523  -23.9926  -10.4858 O   0  0  0  0  0  0  0  0  0  0  0  0
   20.3666  -22.7692  -11.0354 C   0  0  0  0  0  0  0  0  0  0  0  0
   21.0083  -21.8655   -9.9770 C   0  0  2  0  0  0  0  0  0  0  0  0
   19.9375  -21.2626   -9.2423 N   0  0  0  0  0  0  0  0  0  0  0  0
   21.8738  -20.8406  -10.6590 C   0  0  0  0  0  0  0  0  0  0  0  0
   21.4405  -19.7093  -10.8346 O   0  0  0  0  0  0  0  0  0  0  0  0
   23.1776  -21.2093  -11.0833 N   0  0  0  0  0  0  0  0  0  0  0  0
   24.0591  -20.5210  -11.9364 C   0  0  1  0  0  0  0  0  0  0  0  0
   25.5296  -20.5066  -11.5601 C   0  0  0  0  0  0  0  0  0  0  0  0
   26.3398  -19.6514  -12.4874 C   0  0  0  0  0  0  0  0  0  0  0  0
   26.4077  -18.2924  -12.6188 C   0  0  0  0  0  0  0  0  0  0  0  0
   27.2567  -18.0300  -13.6225 N   0  0  0  0  0  0  0  0  0  0  0  0
   27.7237  -19.1718  -14.1255 C   0  0  0  0  0  0  0  0  0  0  0  0
   28.6178  -19.4111  -15.1709 C   0  0  0  0  0  0  0  0  0  0  0  0
   28.9490  -20.6967  -15.5177 C   0  0  0  0  0  0  0  0  0  0  0  0
   28.3913  -21.7383  -14.8248 C   0  0  0  0  0  0  0  0  0  0  0  0
   27.4990  -21.5269  -13.7806 C   0  0  0  0  0  0  0  0  0  0  0  0
   27.1725  -20.2335  -13.4397 C   0  0  0  0  0  0  0  0  0  0  0  0
   23.8711  -20.5889  -13.3748 C   0  0  0  0  0  0  0  0  0  0  0  0
   23.8257  -21.7686  -13.8961 O   0  0  0  0  0  0  0  0  0  0  0  0
   23.7303  -19.5055  -14.2770 N   0  0  0  0  0  0  0  0  0  0  0  0
   23.2298  -19.8002  -15.6149 C   0  0  0  0  0  0  0  0  0  0  0  0
   24.2640  -19.3712  -16.5864 C   0  0  0  0  0  0  0  0  0  0  0  0
   24.4803  -18.1518  -16.8837 O   0  0  0  0  0  0  0  0  0  0  0  0
   25.0391  -20.3308  -17.2090 O   0  0  0  0  0  0  0  0  0  0  0  0
  2  1  1  0
  2  3  1  0
  3  4  1  6
  5  7  1  0
  5  3  1  0
  6  5  2  0
  8  7  1  0
  8  9  1  6
  9 10  1  0
 10 11  2  0
 10 18  1  0
 11 12  1  0
 12 13  1  0
 13 14  2  0
 15 14  1  0
 16 15  2  0
 17 18  2  0
 17 16  1  0
 18 13  1  0
 19  8  1  0
 20 19  2  0
 21 19  1  0
 22 23  1  0
 22 21  1  0
 23 25  1  0
 24 23  2  0
M  END
$$$$
