SWG.pdb
     RDKit          3D

 25 26  0  0  1  0  0  0  0  0999 V2000
   25.0992  -21.4419  -16.7752 O   0  0  0  0  0  0  0  0  0  0  0  0
   26.3881  -21.9196  -16.6867 C   0  0  0  0  0  0  0  0  0  0  0  0
   26.4357  -23.1381  -15.7585 C   0  0  2  0  0  0  0  0  0  0  0  0
   25.7343  -24.1940  -16.4242 N   0  0  0  0  0  0  0  0  0  0  0  0
   25.8035  -22.7822  -14.4401 C   0  0  0  0  0  0  0  0  0  0  0  0
   24.6784  -23.1904  -14.1837 O   0  0  0  0  0  0  0  0  0  0  0  0
   26.5289  -21.9800  -13.5201 N   0  0  0  0  0  0  0  0  0  0  0  0
   26.1106  -21.4492  -12.2865 C   0  0  1  0  0  0  0  0  0  0  0  0
   27.1835  -20.9211  -11.3515 C   0  0  0  0  0  0  0  0  0  0  0  0
   26.6279  -20.5501  -10.0094 C   0  0  0  0  0  0  0  0  0  0  0  0
   25.3418  -20.3192   -9.6079 C   0  0  0  0  0  0  0  0  0  0  0  0
   25.3825  -19.9820   -8.3111 N   0  0  0  0  0  0  0  0  0  0  0  0
   26.6442  -19.9925   -7.8839 C   0  0  0  0  0  0  0  0  0  0  0  0
   27.1858  -19.7095   -6.6285 C   0  0  0  0  0  0  0  0  0  0  0  0
   28.5410  -19.7829   -6.4268 C   0  0  0  0  0  0  0  0  0  0  0  0
   29.3518  -20.1371   -7.4723 C   0  0  0  0  0  0  0  0  0  0  0  0
   28.8379  -20.4236   -8.7313 C   0  0  0  0  0  0  0  0  0  0  0  0
   27.4768  -20.3474   -8.9243 C   0  0  0  0  0  0  0  0  0  0  0  0
   24.8965  -20.6555  -12.2173 C   0  0  0  0  0  0  0  0  0  0  0  0
   24.9405  -19.4844  -12.7577 O   0  0  0  0  0  0  0  0  0  0  0  0
   23.6626  -21.0192  -11.6230 N   0  0  0  0  0  0  0  0  0  0  0  0
   22.5475  -20.0886  -11.7564 C   0  0  0  0  0  0  0  0  0  0  0  0
   21.5800  -20.6803  -12.7111 C   0  0  0  0  0  0  0  0  0  0  0  0
   21.8259  -21.7240  -13.3984 O   0  0  0  0  0  0  0  0  0  0  0  0
   20.3463  -20.0799  -12.8749 O   0  0  0  0  0  0  0  0  0  0  0  0
  2  1  1  0
  2  3  1  0
  3  4  1  6
  5  7  1  0
  5  3  1  0
  6  5  2  0
  8  7  1  0
  8  9  1  6
  9 10  1  0
 10 11  2  0
 10 18  1  0
 11 12  1  0
 12 13  1  0
 13 14  2  0
 15 14  1  0
 16 15  2  0
 17 18  2  0
 17 16  1  0
 18 13  1  0
 19  8  1  0
 20 19  2  0
 21 19  1  0
 22 23  1  0
 22 21  1  0
 23 25  1  0
 24 23  2  0
M  END
$$$$
