SWG.pdb
     RDKit          3D

 25 26  0  0  1  0  0  0  0  0999 V2000
   28.2163  -19.6389  -16.1873 O   0  0  0  0  0  0  0  0  0  0  0  0
   27.3935  -19.9076  -15.1157 C   0  0  0  0  0  0  0  0  0  0  0  0
   27.7229  -21.2852  -14.5309 C   0  0  2  0  0  0  0  0  0  0  0  0
   27.3709  -22.2529  -15.5257 N   0  0  0  0  0  0  0  0  0  0  0  0
   26.9503  -21.4796  -13.2542 C   0  0  0  0  0  0  0  0  0  0  0  0
   25.8468  -22.0077  -13.2943 O   0  0  0  0  0  0  0  0  0  0  0  0
   27.5209  -21.0463  -12.0284 N   0  0  0  0  0  0  0  0  0  0  0  0
   26.9101  -20.9010  -10.7697 C   0  0  1  0  0  0  0  0  0  0  0  0
   27.7913  -20.4779   -9.6084 C   0  0  0  0  0  0  0  0  0  0  0  0
   27.0265  -20.3976   -8.3213 C   0  0  0  0  0  0  0  0  0  0  0  0
   25.6935  -20.5559   -8.0631 C   0  0  0  0  0  0  0  0  0  0  0  0
   25.5129  -20.3454   -6.7516 N   0  0  0  0  0  0  0  0  0  0  0  0
   26.6809  -20.0613   -6.1775 C   0  0  0  0  0  0  0  0  0  0  0  0
   26.9983  -19.7658   -4.8503 C   0  0  0  0  0  0  0  0  0  0  0  0
   28.2952  -19.4956   -4.4924 C   0  0  0  0  0  0  0  0  0  0  0  0
   29.2704  -19.5204   -5.4538 C   0  0  0  0  0  0  0  0  0  0  0  0
   28.9807  -19.8115   -6.7814 C   0  0  0  0  0  0  0  0  0  0  0  0
   27.6766  -20.0813   -7.1312 C   0  0  0  0  0  0  0  0  0  0  0  0
   25.5803  -20.3252  -10.6755 C   0  0  0  0  0  0  0  0  0  0  0  0
   25.4875  -19.0521  -10.8649 O   0  0  0  0  0  0  0  0  0  0  0  0
   24.3665  -21.0019  -10.3989 N   0  0  0  0  0  0  0  0  0  0  0  0
   23.1322  -20.2269  -10.4550 C   0  0  0  0  0  0  0  0  0  0  0  0
   22.4144  -20.6138  -11.6930 C   0  0  0  0  0  0  0  0  0  0  0  0
   22.2638  -21.8227  -12.0646 O   0  0  0  0  0  0  0  0  0  0  0  0
   21.8774  -19.6244  -12.4944 O   0  0  0  0  0  0  0  0  0  0  0  0
  2  1  1  0
  2  3  1  0
  3  4  1  6
  5  7  1  0
  5  3  1  0
  6  5  2  0
  8  7  1  0
  8  9  1  1
  9 10  1  0
 10 11  2  0
 10 18  1  0
 11 12  1  0
 12 13  1  0
 13 14  2  0
 15 14  1  0
 16 15  2  0
 17 18  2  0
 17 16  1  0
 18 13  1  0
 19  8  1  0
 20 19  2  0
 21 19  1  0
 22 23  1  0
 22 21  1  0
 23 25  1  0
 24 23  2  0
M  END
$$$$
