SWG.pdb
     RDKit          3D

 25 26  0  0  1  0  0  0  0  0999 V2000
   26.2241  -21.5287  -17.3787 O   0  0  0  0  0  0  0  0  0  0  0  0
   27.5176  -21.1257  -17.1299 C   0  0  0  0  0  0  0  0  0  0  0  0
   28.1471  -22.0125  -16.0502 C   0  0  2  0  0  0  0  0  0  0  0  0
   28.4763  -23.2574  -16.6761 N   0  0  0  0  0  0  0  0  0  0  0  0
   27.1687  -22.1886  -14.9205 C   0  0  0  0  0  0  0  0  0  0  0  0
   26.6218  -23.2723  -14.7628 O   0  0  0  0  0  0  0  0  0  0  0  0
   26.9022  -21.0913  -14.0597 N   0  0  0  0  0  0  0  0  0  0  0  0
   25.9801  -20.9995  -13.0014 C   0  0  1  0  0  0  0  0  0  0  0  0
   26.3206  -20.0644  -11.8552 C   0  0  0  0  0  0  0  0  0  0  0  0
   27.5136  -20.5357  -11.0793 C   0  0  0  0  0  0  0  0  0  0  0  0
   28.7013  -21.0651  -11.5012 C   0  0  0  0  0  0  0  0  0  0  0  0
   29.4184  -21.3596  -10.4075 N   0  0  0  0  0  0  0  0  0  0  0  0
   28.7265  -21.0354   -9.3163 C   0  0  0  0  0  0  0  0  0  0  0  0
   29.0464  -21.1563   -7.9626 C   0  0  0  0  0  0  0  0  0  0  0  0
   28.1540  -20.7524   -7.0017 C   0  0  0  0  0  0  0  0  0  0  0  0
   26.9487  -20.2301   -7.3895 C   0  0  0  0  0  0  0  0  0  0  0  0
   26.6062  -20.0991   -8.7299 C   0  0  0  0  0  0  0  0  0  0  0  0
   27.5079  -20.5071   -9.6871 C   0  0  0  0  0  0  0  0  0  0  0  0
   24.5556  -21.0116  -13.2828 C   0  0  0  0  0  0  0  0  0  0  0  0
   24.1112  -20.0765  -14.0533 O   0  0  0  0  0  0  0  0  0  0  0  0
   23.5917  -21.9354  -12.8082 N   0  0  0  0  0  0  0  0  0  0  0  0
   22.2491  -21.8622  -13.3732 C   0  0  0  0  0  0  0  0  0  0  0  0
   21.3990  -21.1142  -12.4165 C   0  0  0  0  0  0  0  0  0  0  0  0
   21.8508  -20.2162  -11.6345 O   0  0  0  0  0  0  0  0  0  0  0  0
   20.0473  -21.3951  -12.3583 O   0  0  0  0  0  0  0  0  0  0  0  0
  2  1  1  0
  2  3  1  0
  3  4  1  6
  5  7  1  0
  5  3  1  0
  6  5  2  0
  8  7  1  0
  8  9  1  6
  9 10  1  0
 10 11  2  0
 10 18  1  0
 11 12  1  0
 12 13  1  0
 13 14  2  0
 15 14  1  0
 16 15  2  0
 17 18  2  0
 17 16  1  0
 18 13  1  0
 19  8  1  0
 20 19  2  0
 21 19  1  0
 22 23  1  0
 22 21  1  0
 23 25  1  0
 24 23  2  0
M  END
$$$$
