YPW.pdb
     RDKit          3D

 34 37  0  0  1  0  0  0  0  0999 V2000
   20.0762  -17.2235  -18.4913 O   0  0  0  0  0  0  0  0  0  0  0  0
   20.5992  -17.8266  -17.3820 C   0  0  0  0  0  0  0  0  0  0  0  0
   19.8173  -18.1276  -16.2914 C   0  0  0  0  0  0  0  0  0  0  0  0
   20.3770  -18.7392  -15.1828 C   0  0  0  0  0  0  0  0  0  0  0  0
   21.7133  -19.0664  -15.1287 C   0  0  0  0  0  0  0  0  0  0  0  0
   22.2926  -19.7186  -13.9383 C   0  0  0  0  0  0  0  0  0  0  0  0
   22.8761  -21.0773  -14.3554 C   0  0  2  0  0  0  0  0  0  0  0  0
   21.7688  -21.9811  -14.6590 N   0  0  0  0  0  0  0  0  0  0  0  0
   23.7155  -21.6634  -13.2754 C   0  0  0  0  0  0  0  0  0  0  0  0
   23.2032  -22.5508  -12.5470 O   0  0  0  0  0  0  0  0  0  0  0  0
   22.4806  -18.7623  -16.2188 C   0  0  0  0  0  0  0  0  0  0  0  0
   21.9661  -18.1530  -17.3442 C   0  0  0  0  0  0  0  0  0  0  0  0
   25.0339  -21.2591  -13.0592 N   0  0  0  0  0  0  0  0  0  0  0  0
   25.8165  -20.3336  -13.8414 C   0  0  0  0  0  0  0  0  0  0  0  0
   27.2324  -20.8753  -13.7515 C   0  0  0  0  0  0  0  0  0  0  0  0
   27.2248  -21.8778  -12.6307 C   0  0  0  0  0  0  0  0  0  0  0  0
   25.9013  -21.6894  -11.9819 C   0  0  1  0  0  0  0  0  0  0  0  0
   25.9136  -20.7397  -10.8632 C   0  0  0  0  0  0  0  0  0  0  0  0
   25.7463  -19.5177  -11.1270 O   0  0  0  0  0  0  0  0  0  0  0  0
   26.0981  -21.0701   -9.5057 N   0  0  0  0  0  0  0  0  0  0  0  0
   26.0217  -20.0459   -8.4606 C   0  0  1  0  0  0  0  0  0  0  0  0
   25.9542  -20.6840   -7.1213 C   0  0  0  0  0  0  0  0  0  0  0  0
   26.9542  -20.1644   -6.1872 C   0  0  0  0  0  0  0  0  0  0  0  0
   26.8192  -18.9313   -5.5607 C   0  0  0  0  0  0  0  0  0  0  0  0
   27.8898  -18.6959   -4.7942 N   0  0  0  0  0  0  0  0  0  0  0  0
   28.7229  -19.7730   -4.9153 C   0  0  0  0  0  0  0  0  0  0  0  0
   29.9472  -20.0219   -4.3005 C   0  0  0  0  0  0  0  0  0  0  0  0
   30.5562  -21.2061   -4.5848 C   0  0  0  0  0  0  0  0  0  0  0  0
   29.9841  -22.1377   -5.4532 C   0  0  0  0  0  0  0  0  0  0  0  0
   28.7823  -21.8828   -6.0513 C   0  0  0  0  0  0  0  0  0  0  0  0
   28.1539  -20.6814   -5.7729 C   0  0  0  0  0  0  0  0  0  0  0  0
   27.1097  -19.0741   -8.5895 C   0  0  0  0  0  0  0  0  0  0  0  0
   28.3772  -19.3685   -9.0632 O   0  0  0  0  0  0  0  0  0  0  0  0
   26.9496  -17.8478   -8.2531 O   0  0  0  0  0  0  0  0  0  0  0  0
  2  1  1  0
  3  2  2  0
  4  3  1  0
  5 11  1  0
  5  4  2  0
  6  5  1  0
  7  9  1  0
  7  6  1  0
  7  8  1  1
  9 13  1  0
 10  9  2  0
 11 12  2  0
 12  2  1  0
 13 17  1  0
 13 14  1  0
 14 15  1  0
 16 15  1  0
 17 16  1  0
 17 18  1  1
 18 19  2  0
 18 20  1  0
 20 21  1  0
 21 32  1  0
 21 22  1  1
 23 22  1  0
 23 31  1  0
 24 25  1  0
 24 23  2  0
 25 26  1  0
 26 27  2  0
 26 31  1  0
 27 28  1  0
 28 29  2  0
 30 29  1  0
 31 30  2  0
 32 34  2  0
 32 33  1  0
M  END
$$$$
