YPW.pdb
     RDKit          3D

 34 37  0  0  1  0  0  0  0  0999 V2000
   19.2122  -22.9755  -11.5923 O   0  0  0  0  0  0  0  0  0  0  0  0
   18.5973  -23.4525  -10.4688 C   0  0  0  0  0  0  0  0  0  0  0  0
   19.3095  -24.0665   -9.4653 C   0  0  0  0  0  0  0  0  0  0  0  0
   18.6573  -24.5386   -8.3392 C   0  0  0  0  0  0  0  0  0  0  0  0
   17.2954  -24.4138   -8.1804 C   0  0  0  0  0  0  0  0  0  0  0  0
   16.6171  -24.9230   -6.9728 C   0  0  0  0  0  0  0  0  0  0  0  0
   16.8221  -26.4437   -6.8963 C   0  0  2  0  0  0  0  0  0  0  0  0
   16.2128  -27.0512   -8.0773 N   0  0  0  0  0  0  0  0  0  0  0  0
   16.2053  -27.0146   -5.6682 C   0  0  0  0  0  0  0  0  0  0  0  0
   15.0418  -27.4828   -5.7562 O   0  0  0  0  0  0  0  0  0  0  0  0
   16.5980  -23.8018   -9.1848 C   0  0  0  0  0  0  0  0  0  0  0  0
   17.2056  -23.3167  -10.3241 C   0  0  0  0  0  0  0  0  0  0  0  0
   16.8778  -27.0434   -4.4454 N   0  0  0  0  0  0  0  0  0  0  0  0
   18.2007  -26.5496   -4.1499 C   0  0  0  0  0  0  0  0  0  0  0  0
   18.7306  -27.5110   -3.1006 C   0  0  0  0  0  0  0  0  0  0  0  0
   17.5403  -28.2854   -2.6056 C   0  0  0  0  0  0  0  0  0  0  0  0
   16.3743  -27.5797   -3.1976 C   0  0  1  0  0  0  0  0  0  0  0  0
   15.8034  -26.5395   -2.3341 C   0  0  0  0  0  0  0  0  0  0  0  0
   16.4999  -25.5118   -2.1117 O   0  0  0  0  0  0  0  0  0  0  0  0
   14.5345  -26.5834   -1.7224 N   0  0  0  0  0  0  0  0  0  0  0  0
   14.0503  -25.4686   -0.9039 C   0  0  1  0  0  0  0  0  0  0  0  0
   12.8964  -24.8094   -1.5667 C   0  0  0  0  0  0  0  0  0  0  0  0
   11.7374  -25.6916   -1.7120 C   0  0  0  0  0  0  0  0  0  0  0  0
   11.0583  -26.2159   -0.6188 C   0  0  0  0  0  0  0  0  0  0  0  0
   10.0703  -27.0121   -1.0419 N   0  0  0  0  0  0  0  0  0  0  0  0
   10.0997  -27.0074   -2.4087 C   0  0  0  0  0  0  0  0  0  0  0  0
    9.2656  -27.6544   -3.3168 C   0  0  0  0  0  0  0  0  0  0  0  0
    9.5089  -27.4480   -4.6404 C   0  0  0  0  0  0  0  0  0  0  0  0
   10.5472  -26.6233   -5.0777 C   0  0  0  0  0  0  0  0  0  0  0  0
   11.3599  -25.9936   -4.1776 C   0  0  0  0  0  0  0  0  0  0  0  0
   11.1249  -26.1971   -2.8289 C   0  0  0  0  0  0  0  0  0  0  0  0
   13.7671  -25.9003    0.4665 C   0  0  0  0  0  0  0  0  0  0  0  0
   13.6495  -25.0490    1.5524 O   0  0  0  0  0  0  0  0  0  0  0  0
   13.6113  -27.1393    0.7548 O   0  0  0  0  0  0  0  0  0  0  0  0
  2  1  1  0
  3  2  2  0
  4  3  1  0
  5 11  1  0
  5  4  2  0
  6  5  1  0
  7  9  1  0
  7  6  1  0
  7  8  1  6
  9 13  1  0
 10  9  2  0
 11 12  2  0
 12  2  1  0
 13 17  1  0
 13 14  1  0
 14 15  1  0
 16 15  1  0
 17 16  1  0
 17 18  1  1
 18 19  2  0
 18 20  1  0
 20 21  1  0
 21 32  1  0
 21 22  1  6
 23 22  1  0
 23 31  1  0
 24 25  1  0
 24 23  2  0
 25 26  1  0
 26 27  2  0
 26 31  1  0
 27 28  1  0
 28 29  2  0
 30 29  1  0
 31 30  2  0
 32 34  2  0
 32 33  1  0
M  END
$$$$
