YPW.pdb
     RDKit          3D

 34 37  0  0  1  0  0  0  0  0999 V2000
   25.3610  -18.2313  -23.5216 O   0  0  0  0  0  0  0  0  0  0  0  0
   25.5735  -18.9910  -22.4057 C   0  0  0  0  0  0  0  0  0  0  0  0
   25.6119  -20.3644  -22.4676 C   0  0  0  0  0  0  0  0  0  0  0  0
   25.8296  -21.1059  -21.3191 C   0  0  0  0  0  0  0  0  0  0  0  0
   26.0146  -20.5101  -20.0918 C   0  0  0  0  0  0  0  0  0  0  0  0
   26.2457  -21.3168  -18.8778 C   0  0  0  0  0  0  0  0  0  0  0  0
   27.6718  -21.0495  -18.3724 C   0  0  2  0  0  0  0  0  0  0  0  0
   28.5460  -22.1051  -18.8789 N   0  0  0  0  0  0  0  0  0  0  0  0
   27.7267  -21.0281  -16.8854 C   0  0  0  0  0  0  0  0  0  0  0  0
   28.2048  -22.0322  -16.2990 O   0  0  0  0  0  0  0  0  0  0  0  0
   25.9742  -19.1442  -20.0426 C   0  0  0  0  0  0  0  0  0  0  0  0
   25.7598  -18.3654  -21.1606 C   0  0  0  0  0  0  0  0  0  0  0  0
   27.2702  -19.9384  -16.1423 N   0  0  0  0  0  0  0  0  0  0  0  0
   26.5616  -18.7755  -16.6184 C   0  0  0  0  0  0  0  0  0  0  0  0
   27.0519  -17.6496  -15.7251 C   0  0  0  0  0  0  0  0  0  0  0  0
   27.7444  -18.3095  -14.5647 C   0  0  0  0  0  0  0  0  0  0  0  0
   27.4118  -19.7502  -14.7130 C   0  0  1  0  0  0  0  0  0  0  0  0
   26.2137  -20.1663  -13.9748 C   0  0  0  0  0  0  0  0  0  0  0  0
   25.0995  -20.0669  -14.5575 O   0  0  0  0  0  0  0  0  0  0  0  0
   26.1922  -20.6718  -12.6594 N   0  0  0  0  0  0  0  0  0  0  0  0
   24.9568  -21.1946  -12.0700 C   0  0  1  0  0  0  0  0  0  0  0  0
   25.2541  -21.8984  -10.7965 C   0  0  0  0  0  0  0  0  0  0  0  0
   26.0735  -21.1040   -9.8799 C   0  0  0  0  0  0  0  0  0  0  0  0
   25.5196  -20.2327   -8.9498 C   0  0  0  0  0  0  0  0  0  0  0  0
   26.4951  -19.6154   -8.2742 N   0  0  0  0  0  0  0  0  0  0  0  0
   27.6852  -20.0829   -8.7579 C   0  0  0  0  0  0  0  0  0  0  0  0
   28.9855  -19.7721   -8.3684 C   0  0  0  0  0  0  0  0  0  0  0  0
   29.9978  -20.4174   -9.0107 C   0  0  0  0  0  0  0  0  0  0  0  0
   29.7521  -21.3535  -10.0171 C   0  0  0  0  0  0  0  0  0  0  0  0
   28.4720  -21.6505  -10.3916 C   0  0  0  0  0  0  0  0  0  0  0  0
   27.4337  -20.9996   -9.7482 C   0  0  0  0  0  0  0  0  0  0  0  0
   23.9475  -20.1424  -11.9330 C   0  0  0  0  0  0  0  0  0  0  0  0
   22.6031  -20.3671  -11.6883 O   0  0  0  0  0  0  0  0  0  0  0  0
   24.2588  -18.9039  -12.0415 O   0  0  0  0  0  0  0  0  0  0  0  0
  2  1  1  0
  3  2  2  0
  4  3  1  0
  5 11  1  0
  5  4  2  0
  6  5  1  0
  7  9  1  0
  7  6  1  0
  7  8  1  1
  9 13  1  0
 10  9  2  0
 11 12  2  0
 12  2  1  0
 13 17  1  0
 13 14  1  0
 14 15  1  0
 16 15  1  0
 17 16  1  0
 17 18  1  1
 18 19  2  0
 18 20  1  0
 20 21  1  0
 21 32  1  0
 21 22  1  1
 23 22  1  0
 23 31  1  0
 24 25  1  0
 24 23  2  0
 25 26  1  0
 26 27  2  0
 26 31  1  0
 27 28  1  0
 28 29  2  0
 30 29  1  0
 31 30  2  0
 32 34  2  0
 32 33  1  0
M  END
$$$$
