YPW.pdb
     RDKit          3D

 34 37  0  0  1  0  0  0  0  0999 V2000
   21.6098  -12.0518  -17.4036 O   0  0  0  0  0  0  0  0  0  0  0  0
   21.9981  -13.1980  -16.7685 C   0  0  0  0  0  0  0  0  0  0  0  0
   21.2189  -14.3311  -16.7902 C   0  0  0  0  0  0  0  0  0  0  0  0
   21.6404  -15.4767  -16.1373 C   0  0  0  0  0  0  0  0  0  0  0  0
   22.8346  -15.5280  -15.4541 C   0  0  0  0  0  0  0  0  0  0  0  0
   23.2679  -16.7584  -14.7641 C   0  0  0  0  0  0  0  0  0  0  0  0
   24.0204  -17.6469  -15.7665 C   0  0  2  0  0  0  0  0  0  0  0  0
   23.0556  -18.1781  -16.7267 N   0  0  0  0  0  0  0  0  0  0  0  0
   24.7133  -18.7724  -15.0824 C   0  0  0  0  0  0  0  0  0  0  0  0
   24.0620  -19.8281  -14.8778 O   0  0  0  0  0  0  0  0  0  0  0  0
   23.6006  -14.3954  -15.4395 C   0  0  0  0  0  0  0  0  0  0  0  0
   23.2206  -13.2319  -16.0753 C   0  0  0  0  0  0  0  0  0  0  0  0
   26.0448  -18.6840  -14.6731 N   0  0  0  0  0  0  0  0  0  0  0  0
   26.9233  -17.5428  -14.7553 C   0  0  0  0  0  0  0  0  0  0  0  0
   28.2936  -18.1459  -15.0099 C   0  0  0  0  0  0  0  0  0  0  0  0
   28.1669  -19.6128  -14.7039 C   0  0  0  0  0  0  0  0  0  0  0  0
   26.8310  -19.7380  -14.0652 C   0  0  1  0  0  0  0  0  0  0  0  0
   26.8566  -19.6403  -12.6012 C   0  0  0  0  0  0  0  0  0  0  0  0
   27.1798  -18.5330  -12.0910 O   0  0  0  0  0  0  0  0  0  0  0  0
   26.5509  -20.6814  -11.7019 N   0  0  0  0  0  0  0  0  0  0  0  0
   27.1618  -20.7354  -10.3711 C   0  0  1  0  0  0  0  0  0  0  0  0
   26.6238  -19.6474   -9.5155 C   0  0  0  0  0  0  0  0  0  0  0  0
   26.6048  -19.9923   -8.0931 C   0  0  0  0  0  0  0  0  0  0  0  0
   25.6009  -20.7695   -7.5281 C   0  0  0  0  0  0  0  0  0  0  0  0
   25.8145  -20.8953   -6.2137 N   0  0  0  0  0  0  0  0  0  0  0  0
   26.9570  -20.2051   -5.9183 C   0  0  0  0  0  0  0  0  0  0  0  0
   27.6122  -20.0530   -4.6991 C   0  0  0  0  0  0  0  0  0  0  0  0
   28.7633  -19.3259   -4.6985 C   0  0  0  0  0  0  0  0  0  0  0  0
   29.2734  -18.7548   -5.8660 C   0  0  0  0  0  0  0  0  0  0  0  0
   28.6219  -18.9102   -7.0570 C   0  0  0  0  0  0  0  0  0  0  0  0
   27.4491  -19.6450   -7.0709 C   0  0  0  0  0  0  0  0  0  0  0  0
   27.0234  -22.0669   -9.7773 C   0  0  0  0  0  0  0  0  0  0  0  0
   27.9009  -22.6141   -8.8563 O   0  0  0  0  0  0  0  0  0  0  0  0
   26.0481  -22.8369  -10.0910 O   0  0  0  0  0  0  0  0  0  0  0  0
  2  1  1  0
  3  2  2  0
  4  3  1  0
  5 11  1  0
  5  4  2  0
  6  5  1  0
  7  9  1  0
  7  6  1  0
  7  8  1  6
  9 13  1  0
 10  9  2  0
 11 12  2  0
 12  2  1  0
 13 17  1  0
 13 14  1  0
 14 15  1  0
 16 15  1  0
 17 16  1  0
 17 18  1  1
 18 19  2  0
 18 20  1  0
 20 21  1  0
 21 32  1  0
 21 22  1  1
 23 22  1  0
 23 31  1  0
 24 25  1  0
 24 23  2  0
 25 26  1  0
 26 27  2  0
 26 31  1  0
 27 28  1  0
 28 29  2  0
 30 29  1  0
 31 30  2  0
 32 34  2  0
 32 33  1  0
M  END
$$$$
