YPW.pdb
     RDKit          3D

 34 37  0  0  1  0  0  0  0  0999 V2000
   19.5207  -15.6951  -16.0608 O   0  0  0  0  0  0  0  0  0  0  0  0
   20.4743  -16.5119  -15.5212 C   0  0  0  0  0  0  0  0  0  0  0  0
   21.6794  -16.0167  -15.0809 C   0  0  0  0  0  0  0  0  0  0  0  0
   22.6248  -16.8702  -14.5385 C   0  0  0  0  0  0  0  0  0  0  0  0
   22.4007  -18.2233  -14.4187 C   0  0  0  0  0  0  0  0  0  0  0  0
   23.4203  -19.1181  -13.8375 C   0  0  0  0  0  0  0  0  0  0  0  0
   24.4176  -19.5101  -14.9385 C   0  0  2  0  0  0  0  0  0  0  0  0
   23.6679  -20.0629  -16.0643 N   0  0  0  0  0  0  0  0  0  0  0  0
   25.3983  -20.5175  -14.4506 C   0  0  0  0  0  0  0  0  0  0  0  0
   25.1759  -21.7282  -14.7062 O   0  0  0  0  0  0  0  0  0  0  0  0
   21.1991  -18.7040  -14.8599 C   0  0  0  0  0  0  0  0  0  0  0  0
   20.2284  -17.8913  -15.4072 C   0  0  0  0  0  0  0  0  0  0  0  0
   26.5382  -20.1546  -13.7315 N   0  0  0  0  0  0  0  0  0  0  0  0
   26.9417  -18.8327  -13.3181 C   0  0  0  0  0  0  0  0  0  0  0  0
   28.4583  -18.8685  -13.3861 C   0  0  0  0  0  0  0  0  0  0  0  0
   28.8367  -20.3200  -13.4939 C   0  0  0  0  0  0  0  0  0  0  0  0
   27.5665  -21.0478  -13.2386 C   0  0  1  0  0  0  0  0  0  0  0  0
   27.3595  -21.4139  -11.8327 C   0  0  0  0  0  0  0  0  0  0  0  0
   28.0778  -22.3325  -11.3519 O   0  0  0  0  0  0  0  0  0  0  0  0
   26.4208  -20.8280  -10.9598 N   0  0  0  0  0  0  0  0  0  0  0  0
   26.2858  -21.2876   -9.5750 C   0  0  1  0  0  0  0  0  0  0  0  0
   27.6058  -21.2609   -8.8950 C   0  0  0  0  0  0  0  0  0  0  0  0
   27.6605  -20.3075   -7.7857 C   0  0  0  0  0  0  0  0  0  0  0  0
   27.0596  -19.0560   -7.8483 C   0  0  0  0  0  0  0  0  0  0  0  0
   27.2973  -18.3851   -6.7158 N   0  0  0  0  0  0  0  0  0  0  0  0
   28.0493  -19.1956   -5.9118 C   0  0  0  0  0  0  0  0  0  0  0  0
   28.5315  -18.9694   -4.6252 C   0  0  0  0  0  0  0  0  0  0  0  0
   29.2389  -19.9752   -4.0407 C   0  0  0  0  0  0  0  0  0  0  0  0
   29.4744  -21.1858   -4.6952 C   0  0  0  0  0  0  0  0  0  0  0  0
   28.9967  -21.3969   -5.9579 C   0  0  0  0  0  0  0  0  0  0  0  0
   28.2781  -20.3813   -6.5645 C   0  0  0  0  0  0  0  0  0  0  0  0
   25.2487  -20.5358   -8.8652 C   0  0  0  0  0  0  0  0  0  0  0  0
   24.6832  -20.9186   -7.6604 O   0  0  0  0  0  0  0  0  0  0  0  0
   24.7804  -19.4403   -9.3374 O   0  0  0  0  0  0  0  0  0  0  0  0
  2  1  1  0
  3  2  2  0
  4  3  1  0
  5 11  1  0
  5  4  2  0
  6  5  1  0
  7  9  1  0
  7  6  1  0
  7  8  1  6
  9 13  1  0
 10  9  2  0
 11 12  2  0
 12  2  1  0
 13 17  1  0
 13 14  1  0
 14 15  1  0
 16 15  1  0
 17 16  1  0
 17 18  1  1
 18 19  2  0
 18 20  1  0
 20 21  1  0
 21 32  1  0
 21 22  1  1
 23 22  1  0
 23 31  1  0
 24 25  1  0
 24 23  2  0
 25 26  1  0
 26 27  2  0
 26 31  1  0
 27 28  1  0
 28 29  2  0
 30 29  1  0
 31 30  2  0
 32 34  2  0
 32 33  1  0
M  END
$$$$
