YPW.pdb
     RDKit          3D

 34 37  0  0  1  0  0  0  0  0999 V2000
   25.2462  -13.0652  -19.1547 O   0  0  0  0  0  0  0  0  0  0  0  0
   25.1257  -14.1395  -18.3186 C   0  0  0  0  0  0  0  0  0  0  0  0
   24.0758  -15.0211  -18.4275 C   0  0  0  0  0  0  0  0  0  0  0  0
   23.9823  -16.1001  -17.5655 C   0  0  0  0  0  0  0  0  0  0  0  0
   24.9195  -16.3313  -16.5838 C   0  0  0  0  0  0  0  0  0  0  0  0
   24.8037  -17.4874  -15.6738 C   0  0  0  0  0  0  0  0  0  0  0  0
   25.6659  -18.6347  -16.2221 C   0  0  2  0  0  0  0  0  0  0  0  0
   25.0612  -19.1137  -17.4631 N   0  0  0  0  0  0  0  0  0  0  0  0
   25.7608  -19.7567  -15.2490 C   0  0  0  0  0  0  0  0  0  0  0  0
   24.8944  -20.6656  -15.3114 O   0  0  0  0  0  0  0  0  0  0  0  0
   25.9587  -15.4482  -16.4851 C   0  0  0  0  0  0  0  0  0  0  0  0
   26.0920  -14.3596  -17.3215 C   0  0  0  0  0  0  0  0  0  0  0  0
   26.7720  -19.8218  -14.2890 N   0  0  0  0  0  0  0  0  0  0  0  0
   27.9278  -18.9683  -14.1601 C   0  0  0  0  0  0  0  0  0  0  0  0
   29.0123  -19.8888  -13.6284 C   0  0  0  0  0  0  0  0  0  0  0  0
   28.3093  -21.1300  -13.1523 C   0  0  0  0  0  0  0  0  0  0  0  0
   26.8674  -20.7739  -13.2015 C   0  0  1  0  0  0  0  0  0  0  0  0
   26.3412  -20.2356  -11.9418 C   0  0  0  0  0  0  0  0  0  0  0  0
   26.4114  -18.9895  -11.7596 O   0  0  0  0  0  0  0  0  0  0  0  0
   25.7586  -20.9908  -10.9043 N   0  0  0  0  0  0  0  0  0  0  0  0
   25.1458  -20.3369   -9.7449 C   0  0  1  0  0  0  0  0  0  0  0  0
   24.0689  -19.4146  -10.1864 C   0  0  0  0  0  0  0  0  0  0  0  0
   22.9489  -20.1054  -10.8275 C   0  0  0  0  0  0  0  0  0  0  0  0
   22.0127  -20.8362  -10.1060 C   0  0  0  0  0  0  0  0  0  0  0  0
   21.1274  -21.3863  -10.9445 N   0  0  0  0  0  0  0  0  0  0  0  0
   21.4806  -21.0147  -12.2118 C   0  0  0  0  0  0  0  0  0  0  0  0
   20.8649  -21.3058  -13.4263 C   0  0  0  0  0  0  0  0  0  0  0  0
   21.4222  -20.7738  -14.5489 C   0  0  0  0  0  0  0  0  0  0  0  0
   22.5614  -19.9685  -14.4941 C   0  0  0  0  0  0  0  0  0  0  0  0
   23.1576  -19.6896  -13.2966 C   0  0  0  0  0  0  0  0  0  0  0  0
   22.6026  -20.2264  -12.1480 C   0  0  0  0  0  0  0  0  0  0  0  0
   24.7020  -21.3201   -8.7544 C   0  0  0  0  0  0  0  0  0  0  0  0
   24.3121  -21.0149   -7.4612 O   0  0  0  0  0  0  0  0  0  0  0  0
   24.6519  -22.5699   -9.0339 O   0  0  0  0  0  0  0  0  0  0  0  0
  2  1  1  0
  3  2  2  0
  4  3  1  0
  5 11  1  0
  5  4  2  0
  6  5  1  0
  7  9  1  0
  7  6  1  0
  7  8  1  6
  9 13  1  0
 10  9  2  0
 11 12  2  0
 12  2  1  0
 13 17  1  0
 13 14  1  0
 14 15  1  0
 16 15  1  0
 17 16  1  0
 17 18  1  1
 18 19  2  0
 18 20  1  0
 20 21  1  0
 21 32  1  0
 21 22  1  6
 23 22  1  0
 23 31  1  0
 24 25  1  0
 24 23  2  0
 25 26  1  0
 26 27  2  0
 26 31  1  0
 27 28  1  0
 28 29  2  0
 30 29  1  0
 31 30  2  0
 32 34  2  0
 32 33  1  0
M  END
$$$$
