YPW.pdb
     RDKit          3D

 34 37  0  0  1  0  0  0  0  0999 V2000
   19.4641  -27.0013  -13.1430 O   0  0  0  0  0  0  0  0  0  0  0  0
   20.2590  -25.9041  -13.3216 C   0  0  0  0  0  0  0  0  0  0  0  0
   21.6235  -25.9714  -13.1631 C   0  0  0  0  0  0  0  0  0  0  0  0
   22.4014  -24.8421  -13.3517 C   0  0  0  0  0  0  0  0  0  0  0  0
   21.8516  -23.6290  -13.7004 C   0  0  0  0  0  0  0  0  0  0  0  0
   22.6968  -22.4354  -13.8976 C   0  0  0  0  0  0  0  0  0  0  0  0
   22.8164  -21.6895  -12.5598 C   0  0  2  0  0  0  0  0  0  0  0  0
   21.5106  -21.1232  -12.2292 N   0  0  0  0  0  0  0  0  0  0  0  0
   23.8276  -20.6000  -12.6330 C   0  0  0  0  0  0  0  0  0  0  0  0
   23.4166  -19.4260  -12.8157 O   0  0  0  0  0  0  0  0  0  0  0  0
   20.4942  -23.5742  -13.8551 C   0  0  0  0  0  0  0  0  0  0  0  0
   19.6801  -24.6733  -13.6771 C   0  0  0  0  0  0  0  0  0  0  0  0
   25.1951  -20.8479  -12.5035 N   0  0  0  0  0  0  0  0  0  0  0  0
   25.8400  -22.0805  -12.1217 C   0  0  0  0  0  0  0  0  0  0  0  0
   27.0666  -21.6337  -11.3458 C   0  0  0  0  0  0  0  0  0  0  0  0
   27.2334  -20.1679  -11.6377 C   0  0  0  0  0  0  0  0  0  0  0  0
   26.2678  -19.9025  -12.7355 C   0  0  1  0  0  0  0  0  0  0  0  0
   26.8415  -20.0299  -14.0802 C   0  0  0  0  0  0  0  0  0  0  0  0
   26.8523  -21.1748  -14.6093 O   0  0  0  0  0  0  0  0  0  0  0  0
   27.3889  -18.9794  -14.8438 N   0  0  0  0  0  0  0  0  0  0  0  0
   27.2368  -18.9443  -16.3008 C   0  0  1  0  0  0  0  0  0  0  0  0
   26.3264  -17.8391  -16.6947 C   0  0  0  0  0  0  0  0  0  0  0  0
   26.7120  -16.5473  -16.1246 C   0  0  0  0  0  0  0  0  0  0  0  0
   26.0485  -15.9826  -15.0420 C   0  0  0  0  0  0  0  0  0  0  0  0
   26.5853  -14.7913  -14.7562 N   0  0  0  0  0  0  0  0  0  0  0  0
   27.6000  -14.5769  -15.6469 C   0  0  0  0  0  0  0  0  0  0  0  0
   28.4776  -13.5009  -15.7508 C   0  0  0  0  0  0  0  0  0  0  0  0
   29.4239  -13.5626  -16.7277 C   0  0  0  0  0  0  0  0  0  0  0  0
   29.5188  -14.6549  -17.5922 C   0  0  0  0  0  0  0  0  0  0  0  0
   28.6519  -15.7054  -17.4814 C   0  0  0  0  0  0  0  0  0  0  0  0
   27.6834  -15.6539  -16.4940 C   0  0  0  0  0  0  0  0  0  0  0  0
   28.5388  -18.8936  -16.9691 C   0  0  0  0  0  0  0  0  0  0  0  0
   28.7412  -19.1263  -18.3191 O   0  0  0  0  0  0  0  0  0  0  0  0
   29.6104  -18.6268  -16.3187 O   0  0  0  0  0  0  0  0  0  0  0  0
  2  1  1  0
  3  2  2  0
  4  3  1  0
  5 11  1  0
  5  4  2  0
  6  5  1  0
  7  9  1  0
  7  6  1  0
  7  8  1  6
  9 13  1  0
 10  9  2  0
 11 12  2  0
 12  2  1  0
 13 17  1  0
 13 14  1  0
 14 15  1  0
 16 15  1  0
 17 16  1  0
 17 18  1  6
 18 19  2  0
 18 20  1  0
 20 21  1  0
 21 32  1  0
 21 22  1  1
 23 22  1  0
 23 31  1  0
 24 25  1  0
 24 23  2  0
 25 26  1  0
 26 27  2  0
 26 31  1  0
 27 28  1  0
 28 29  2  0
 30 29  1  0
 31 30  2  0
 32 34  2  0
 32 33  1  0
M  END
$$$$
