YPW.pdb
     RDKit          3D

 34 37  0  0  1  0  0  0  0  0999 V2000
   22.5691  -18.4859  -17.4022 O   0  0  0  0  0  0  0  0  0  0  0  0
   23.1618  -18.7437  -16.1981 C   0  0  0  0  0  0  0  0  0  0  0  0
   24.5298  -18.7486  -16.0566 C   0  0  0  0  0  0  0  0  0  0  0  0
   25.0997  -19.0130  -14.8231 C   0  0  0  0  0  0  0  0  0  0  0  0
   24.3350  -19.2752  -13.7087 C   0  0  0  0  0  0  0  0  0  0  0  0
   24.9602  -19.5547  -12.4014 C   0  0  0  0  0  0  0  0  0  0  0  0
   25.4198  -21.0205  -12.3780 C   0  0  2  0  0  0  0  0  0  0  0  0
   24.2376  -21.8758  -12.4558 N   0  0  0  0  0  0  0  0  0  0  0  0
   26.1793  -21.3325  -11.1368 C   0  0  0  0  0  0  0  0  0  0  0  0
   25.5435  -21.8028  -10.1595 O   0  0  0  0  0  0  0  0  0  0  0  0
   22.9762  -19.2676  -13.8616 C   0  0  0  0  0  0  0  0  0  0  0  0
   22.3650  -19.0099  -15.0709 C   0  0  0  0  0  0  0  0  0  0  0  0
   27.5553  -21.1209  -11.0369 N   0  0  0  0  0  0  0  0  0  0  0  0
   28.4770  -20.7714  -12.0901 C   0  0  0  0  0  0  0  0  0  0  0  0
   29.7679  -21.4708  -11.7019 C   0  0  0  0  0  0  0  0  0  0  0  0
   29.6017  -21.8859  -10.2661 C   0  0  0  0  0  0  0  0  0  0  0  0
   28.3546  -21.2046   -9.8316 C   0  0  1  0  0  0  0  0  0  0  0  0
   28.5743  -19.8906   -9.2164 C   0  0  0  0  0  0  0  0  0  0  0  0
   28.2370  -18.8689   -9.8745 O   0  0  0  0  0  0  0  0  0  0  0  0
   29.1347  -19.6617   -7.9437 N   0  0  0  0  0  0  0  0  0  0  0  0
   28.5652  -18.6633   -7.0348 C   0  0  1  0  0  0  0  0  0  0  0  0
   27.1115  -18.9060   -6.8526 C   0  0  0  0  0  0  0  0  0  0  0  0
   26.8249  -20.0707   -6.0136 C   0  0  0  0  0  0  0  0  0  0  0  0
   27.7086  -20.5248   -5.0420 C   0  0  0  0  0  0  0  0  0  0  0  0
   27.2104  -21.6192   -4.4561 N   0  0  0  0  0  0  0  0  0  0  0  0
   26.0021  -21.8801   -5.0398 C   0  0  0  0  0  0  0  0  0  0  0  0
   25.0835  -22.8901   -4.7661 C   0  0  0  0  0  0  0  0  0  0  0  0
   23.9315  -22.8960   -5.4917 C   0  0  0  0  0  0  0  0  0  0  0  0
   23.6729  -21.9335   -6.4695 C   0  0  0  0  0  0  0  0  0  0  0  0
   24.5817  -20.9469   -6.7301 C   0  0  0  0  0  0  0  0  0  0  0  0
   25.7582  -20.9311   -6.0012 C   0  0  0  0  0  0  0  0  0  0  0  0
   29.3095  -18.6070   -5.7748 C   0  0  0  0  0  0  0  0  0  0  0  0
   30.3962  -17.7820   -5.5377 O   0  0  0  0  0  0  0  0  0  0  0  0
   28.9914  -19.3505   -4.7806 O   0  0  0  0  0  0  0  0  0  0  0  0
  2  1  1  0
  3  2  2  0
  4  3  1  0
  5 11  1  0
  5  4  2  0
  6  5  1  0
  7  9  1  0
  7  6  1  0
  7  8  1  1
  9 13  1  0
 10  9  2  0
 11 12  2  0
 12  2  1  0
 13 17  1  0
 13 14  1  0
 14 15  1  0
 16 15  1  0
 17 16  1  0
 17 18  1  6
 18 19  2  0
 18 20  1  0
 20 21  1  0
 21 32  1  0
 21 22  1  1
 23 22  1  0
 23 31  1  0
 24 25  1  0
 24 23  2  0
 25 26  1  0
 26 27  2  0
 26 31  1  0
 27 28  1  0
 28 29  2  0
 30 29  1  0
 31 30  2  0
 32 34  2  0
 32 33  1  0
M  END
$$$$
