YPW.pdb
     RDKit          3D

 34 37  0  0  1  0  0  0  0  0999 V2000
   26.3988  -13.0471  -17.8629 O   0  0  0  0  0  0  0  0  0  0  0  0
   26.2420  -14.0552  -16.9536 C   0  0  0  0  0  0  0  0  0  0  0  0
   27.2909  -14.8691  -16.5946 C   0  0  0  0  0  0  0  0  0  0  0  0
   27.0998  -15.8815  -15.6700 C   0  0  0  0  0  0  0  0  0  0  0  0
   25.8758  -16.1096  -15.0823 C   0  0  0  0  0  0  0  0  0  0  0  0
   25.6908  -17.1937  -14.0983 C   0  0  0  0  0  0  0  0  0  0  0  0
   25.7183  -18.5404  -14.8372 C   0  0  2  0  0  0  0  0  0  0  0  0
   24.4980  -18.6549  -15.6327 N   0  0  0  0  0  0  0  0  0  0  0  0
   25.8013  -19.6814  -13.8855 C   0  0  0  0  0  0  0  0  0  0  0  0
   24.7385  -20.2900  -13.6012 O   0  0  0  0  0  0  0  0  0  0  0  0
   24.8406  -15.2942  -15.4472 C   0  0  0  0  0  0  0  0  0  0  0  0
   24.9847  -14.2738  -16.3640 C   0  0  0  0  0  0  0  0  0  0  0  0
   27.0096  -20.0843  -13.3146 N   0  0  0  0  0  0  0  0  0  0  0  0
   28.3017  -19.4549  -13.4388 C   0  0  0  0  0  0  0  0  0  0  0  0
   29.2835  -20.6132  -13.4140 C   0  0  0  0  0  0  0  0  0  0  0  0
   28.5100  -21.8048  -12.9208 C   0  0  0  0  0  0  0  0  0  0  0  0
   27.2173  -21.2352  -12.4599 C   0  0  1  0  0  0  0  0  0  0  0  0
   27.1931  -20.8829  -11.0355 C   0  0  0  0  0  0  0  0  0  0  0  0
   28.2864  -20.8990  -10.4068 O   0  0  0  0  0  0  0  0  0  0  0  0
   26.0480  -20.5249  -10.2960 N   0  0  0  0  0  0  0  0  0  0  0  0
   25.4665  -21.4409   -9.3112 C   0  0  1  0  0  0  0  0  0  0  0  0
   26.4488  -21.7273   -8.2349 C   0  0  0  0  0  0  0  0  0  0  0  0
   26.9131  -20.5220   -7.5463 C   0  0  0  0  0  0  0  0  0  0  0  0
   26.5168  -19.2461   -7.9283 C   0  0  0  0  0  0  0  0  0  0  0  0
   27.1182  -18.3367   -7.1533 N   0  0  0  0  0  0  0  0  0  0  0  0
   27.9042  -19.0147   -6.2637 C   0  0  0  0  0  0  0  0  0  0  0  0
   28.7075  -18.5260   -5.2367 C   0  0  0  0  0  0  0  0  0  0  0  0
   29.3682  -19.4411   -4.4752 C   0  0  0  0  0  0  0  0  0  0  0  0
   29.2501  -20.8130   -4.7061 C   0  0  0  0  0  0  0  0  0  0  0  0
   28.4593  -21.2815   -5.7171 C   0  0  0  0  0  0  0  0  0  0  0  0
   27.7841  -20.3615   -6.5003 C   0  0  0  0  0  0  0  0  0  0  0  0
   24.1843  -20.9393   -8.8122 C   0  0  0  0  0  0  0  0  0  0  0  0
   23.5432  -19.8068   -9.2856 O   0  0  0  0  0  0  0  0  0  0  0  0
   23.5581  -21.5376   -7.8676 O   0  0  0  0  0  0  0  0  0  0  0  0
  2  1  1  0
  3  2  2  0
  4  3  1  0
  5 11  1  0
  5  4  2  0
  6  5  1  0
  7  9  1  0
  7  6  1  0
  7  8  1  1
  9 13  1  0
 10  9  2  0
 11 12  2  0
 12  2  1  0
 13 17  1  0
 13 14  1  0
 14 15  1  0
 16 15  1  0
 17 16  1  0
 17 18  1  1
 18 19  2  0
 18 20  1  0
 20 21  1  0
 21 32  1  0
 21 22  1  1
 23 22  1  0
 23 31  1  0
 24 25  1  0
 24 23  2  0
 25 26  1  0
 26 27  2  0
 26 31  1  0
 27 28  1  0
 28 29  2  0
 30 29  1  0
 31 30  2  0
 32 34  2  0
 32 33  1  0
M  END
$$$$
