YPW.pdb
     RDKit          3D

 34 37  0  0  1  0  0  0  0  0999 V2000
   23.8587  -26.0779  -13.8153 O   0  0  0  0  0  0  0  0  0  0  0  0
   24.3444  -25.0800  -14.6128 C   0  0  0  0  0  0  0  0  0  0  0  0
   25.0108  -25.3557  -15.7838 C   0  0  0  0  0  0  0  0  0  0  0  0
   25.4904  -24.3223  -16.5701 C   0  0  0  0  0  0  0  0  0  0  0  0
   25.3218  -23.0017  -16.2194 C   0  0  0  0  0  0  0  0  0  0  0  0
   25.8398  -21.9129  -17.0704 C   0  0  0  0  0  0  0  0  0  0  0  0
   27.3674  -21.8522  -16.9179 C   0  0  2  0  0  0  0  0  0  0  0  0
   27.9339  -23.0874  -17.4550 N   0  0  0  0  0  0  0  0  0  0  0  0
   27.7660  -21.7002  -15.4921 C   0  0  0  0  0  0  0  0  0  0  0  0
   28.3702  -22.6568  -14.9441 O   0  0  0  0  0  0  0  0  0  0  0  0
   24.6578  -22.7399  -15.0531 C   0  0  0  0  0  0  0  0  0  0  0  0
   24.1633  -23.7371  -14.2385 C   0  0  0  0  0  0  0  0  0  0  0  0
   27.4913  -20.5408  -14.7652 N   0  0  0  0  0  0  0  0  0  0  0  0
   26.7141  -19.3983  -15.1795 C   0  0  0  0  0  0  0  0  0  0  0  0
   27.3969  -18.2203  -14.5071 C   0  0  0  0  0  0  0  0  0  0  0  0
   28.3095  -18.8064  -13.4655 C   0  0  0  0  0  0  0  0  0  0  0  0
   27.9337  -20.2433  -13.4183 C   0  0  1  0  0  0  0  0  0  0  0  0
   26.9127  -20.5615  -12.4134 C   0  0  0  0  0  0  0  0  0  0  0  0
   25.7020  -20.4605  -12.7523 O   0  0  0  0  0  0  0  0  0  0  0  0
   27.1624  -20.9737  -11.0890 N   0  0  0  0  0  0  0  0  0  0  0  0
   26.0619  -21.2942  -10.1762 C   0  0  1  0  0  0  0  0  0  0  0  0
   26.5967  -21.7191   -8.8576 C   0  0  0  0  0  0  0  0  0  0  0  0
   27.0678  -20.5990   -8.0415 C   0  0  0  0  0  0  0  0  0  0  0  0
   26.7337  -19.2798   -8.3227 C   0  0  0  0  0  0  0  0  0  0  0  0
   27.3274  -18.4671   -7.4416 N   0  0  0  0  0  0  0  0  0  0  0  0
   28.0463  -19.2516   -6.5833 C   0  0  0  0  0  0  0  0  0  0  0  0
   28.8153  -18.8879   -5.4809 C   0  0  0  0  0  0  0  0  0  0  0  0
   29.4073  -19.8921   -4.7774 C   0  0  0  0  0  0  0  0  0  0  0  0
   29.2542  -21.2323   -5.1378 C   0  0  0  0  0  0  0  0  0  0  0  0
   28.4976  -21.5777   -6.2219 C   0  0  0  0  0  0  0  0  0  0  0  0
   27.8923  -20.5662   -6.9473 C   0  0  0  0  0  0  0  0  0  0  0  0
   25.1058  -20.1883  -10.0888 C   0  0  0  0  0  0  0  0  0  0  0  0
   25.3691  -18.8863  -10.4802 O   0  0  0  0  0  0  0  0  0  0  0  0
   23.9255  -20.3647   -9.6215 O   0  0  0  0  0  0  0  0  0  0  0  0
  2  1  1  0
  3  2  2  0
  4  3  1  0
  5 11  1  0
  5  4  2  0
  6  5  1  0
  7  9  1  0
  7  6  1  0
  7  8  1  1
  9 13  1  0
 10  9  2  0
 11 12  2  0
 12  2  1  0
 13 17  1  0
 13 14  1  0
 14 15  1  0
 16 15  1  0
 17 16  1  0
 17 18  1  1
 18 19  2  0
 18 20  1  0
 20 21  1  0
 21 32  1  0
 21 22  1  1
 23 22  1  0
 23 31  1  0
 24 25  1  0
 24 23  2  0
 25 26  1  0
 26 27  2  0
 26 31  1  0
 27 28  1  0
 28 29  2  0
 30 29  1  0
 31 30  2  0
 32 34  2  0
 32 33  1  0
M  END
$$$$
