YPW.pdb
     RDKit          3D

 34 37  0  0  1  0  0  0  0  0999 V2000
   27.3232  -17.2274  -17.5746 O   0  0  0  0  0  0  0  0  0  0  0  0
   26.8889  -17.6867  -16.3630 C   0  0  0  0  0  0  0  0  0  0  0  0
   27.7502  -17.8414  -15.3021 C   0  0  0  0  0  0  0  0  0  0  0  0
   27.2792  -18.3084  -14.0871 C   0  0  0  0  0  0  0  0  0  0  0  0
   25.9543  -18.6295  -13.8945 C   0  0  0  0  0  0  0  0  0  0  0  0
   25.4699  -19.1259  -12.5918 C   0  0  0  0  0  0  0  0  0  0  0  0
   25.6635  -20.6492  -12.5417 C   0  0  2  0  0  0  0  0  0  0  0  0
   24.3522  -21.2845  -12.6506 N   0  0  0  0  0  0  0  0  0  0  0  0
   26.3184  -21.0728  -11.2743 C   0  0  0  0  0  0  0  0  0  0  0  0
   25.5963  -21.5804  -10.3790 O   0  0  0  0  0  0  0  0  0  0  0  0
   25.1075  -18.4717  -14.9564 C   0  0  0  0  0  0  0  0  0  0  0  0
   25.5325  -18.0101  -16.1847 C   0  0  0  0  0  0  0  0  0  0  0  0
   27.6900  -20.9241  -11.0629 N   0  0  0  0  0  0  0  0  0  0  0  0
   28.6658  -20.3425  -11.9521 C   0  0  0  0  0  0  0  0  0  0  0  0
   29.9286  -21.1458  -11.6950 C   0  0  0  0  0  0  0  0  0  0  0  0
   29.6880  -21.9038  -10.4188 C   0  0  0  0  0  0  0  0  0  0  0  0
   28.4284  -21.3254   -9.8830 C   0  0  1  0  0  0  0  0  0  0  0  0
   28.6317  -20.2129   -8.9478 C   0  0  0  0  0  0  0  0  0  0  0  0
   28.4029  -19.0447   -9.3644 O   0  0  0  0  0  0  0  0  0  0  0  0
   29.0647  -20.3303   -7.6117 N   0  0  0  0  0  0  0  0  0  0  0  0
   28.7977  -19.2719   -6.6342 C   0  0  1  0  0  0  0  0  0  0  0  0
   27.3560  -18.9159   -6.6450 C   0  0  0  0  0  0  0  0  0  0  0  0
   26.5221  -19.8777   -5.9225 C   0  0  0  0  0  0  0  0  0  0  0  0
   26.8683  -20.3715   -4.6706 C   0  0  0  0  0  0  0  0  0  0  0  0
   25.9495  -21.2550   -4.2650 N   0  0  0  0  0  0  0  0  0  0  0  0
   25.0020  -21.3378   -5.2469 C   0  0  0  0  0  0  0  0  0  0  0  0
   23.8340  -22.0945   -5.2920 C   0  0  0  0  0  0  0  0  0  0  0  0
   23.0484  -21.9600   -6.3958 C   0  0  0  0  0  0  0  0  0  0  0  0
   23.3906  -21.1012   -7.4422 C   0  0  0  0  0  0  0  0  0  0  0  0
   24.5395  -20.3636   -7.3875 C   0  0  0  0  0  0  0  0  0  0  0  0
   25.3484  -20.4930   -6.2720 C   0  0  0  0  0  0  0  0  0  0  0  0
   29.2985  -19.6365   -5.3072 C   0  0  0  0  0  0  0  0  0  0  0  0
   29.6663  -20.9166   -4.9282 O   0  0  0  0  0  0  0  0  0  0  0  0
   29.4253  -18.7606   -4.3803 O   0  0  0  0  0  0  0  0  0  0  0  0
  2  1  1  0
  3  2  2  0
  4  3  1  0
  5 11  1  0
  5  4  2  0
  6  5  1  0
  7  9  1  0
  7  6  1  0
  7  8  1  1
  9 13  1  0
 10  9  2  0
 11 12  2  0
 12  2  1  0
 13 17  1  0
 13 14  1  0
 14 15  1  0
 16 15  1  0
 17 16  1  0
 17 18  1  1
 18 19  2  0
 18 20  1  0
 20 21  1  0
 21 32  1  0
 21 22  1  1
 23 22  1  0
 23 31  1  0
 24 25  1  0
 24 23  2  0
 25 26  1  0
 26 27  2  0
 26 31  1  0
 27 28  1  0
 28 29  2  0
 30 29  1  0
 31 30  2  0
 32 34  2  0
 32 33  1  0
M  END
$$$$
