YPW.pdb
     RDKit          3D

 34 37  0  0  1  0  0  0  0  0999 V2000
   29.7833  -15.6641  -19.6125 O   0  0  0  0  0  0  0  0  0  0  0  0
   29.2499  -16.3984  -18.5907 C   0  0  0  0  0  0  0  0  0  0  0  0
   27.9065  -16.6879  -18.5386 C   0  0  0  0  0  0  0  0  0  0  0  0
   27.3968  -17.4346  -17.4903 C   0  0  0  0  0  0  0  0  0  0  0  0
   28.1989  -17.9100  -16.4774 C   0  0  0  0  0  0  0  0  0  0  0  0
   27.6379  -18.7048  -15.3676 C   0  0  0  0  0  0  0  0  0  0  0  0
   28.3084  -20.0872  -15.3632 C   0  0  2  0  0  0  0  0  0  0  0  0
   27.9065  -20.7986  -16.5746 N   0  0  0  0  0  0  0  0  0  0  0  0
   27.9138  -20.8792  -14.1666 C   0  0  0  0  0  0  0  0  0  0  0  0
   26.9845  -21.7162  -14.2943 O   0  0  0  0  0  0  0  0  0  0  0  0
   29.5328  -17.6157  -16.5398 C   0  0  0  0  0  0  0  0  0  0  0  0
   30.0841  -16.8752  -17.5645 C   0  0  0  0  0  0  0  0  0  0  0  0
   28.5420  -20.7178  -12.9307 N   0  0  0  0  0  0  0  0  0  0  0  0
   29.6303  -19.8309  -12.5989 C   0  0  0  0  0  0  0  0  0  0  0  0
   30.4271  -20.5941  -11.5554 C   0  0  0  0  0  0  0  0  0  0  0  0
   29.5436  -21.7221  -11.0990 C   0  0  0  0  0  0  0  0  0  0  0  0
   28.2208  -21.4166  -11.7031 C   0  0  1  0  0  0  0  0  0  0  0  0
   27.3324  -20.6363  -10.8340 C   0  0  0  0  0  0  0  0  0  0  0  0
   27.4953  -19.3862  -10.7963 O   0  0  0  0  0  0  0  0  0  0  0  0
   26.3025  -21.1606  -10.0272 N   0  0  0  0  0  0  0  0  0  0  0  0
   25.4788  -20.2857   -9.1887 C   0  0  1  0  0  0  0  0  0  0  0  0
   24.8246  -19.2447  -10.0216 C   0  0  0  0  0  0  0  0  0  0  0  0
   23.9986  -19.8028  -11.0934 C   0  0  0  0  0  0  0  0  0  0  0  0
   22.9219  -20.6449  -10.8429 C   0  0  0  0  0  0  0  0  0  0  0  0
   22.3731  -21.0309  -12.0000 N   0  0  0  0  0  0  0  0  0  0  0  0
   23.0861  -20.4410  -13.0063 C   0  0  0  0  0  0  0  0  0  0  0  0
   22.8976  -20.5065  -14.3844 C   0  0  0  0  0  0  0  0  0  0  0  0
   23.7506  -19.7860  -15.1634 C   0  0  0  0  0  0  0  0  0  0  0  0
   24.7728  -19.0105  -14.6128 C   0  0  0  0  0  0  0  0  0  0  0  0
   24.9488  -18.9538  -13.2589 C   0  0  0  0  0  0  0  0  0  0  0  0
   24.0899  -19.6837  -12.4557 C   0  0  0  0  0  0  0  0  0  0  0  0
   24.5371  -21.0607   -8.3780 C   0  0  0  0  0  0  0  0  0  0  0  0
   23.7402  -20.5331   -7.3759 O   0  0  0  0  0  0  0  0  0  0  0  0
   24.3933  -22.3226   -8.5498 O   0  0  0  0  0  0  0  0  0  0  0  0
  2  1  1  0
  3  2  2  0
  4  3  1  0
  5 11  1  0
  5  4  2  0
  6  5  1  0
  7  9  1  0
  7  6  1  0
  7  8  1  6
  9 13  1  0
 10  9  2  0
 11 12  2  0
 12  2  1  0
 13 17  1  0
 13 14  1  0
 14 15  1  0
 16 15  1  0
 17 16  1  0
 17 18  1  1
 18 19  2  0
 18 20  1  0
 20 21  1  0
 21 32  1  0
 21 22  1  6
 23 22  1  0
 23 31  1  0
 24 25  1  0
 24 23  2  0
 25 26  1  0
 26 27  2  0
 26 31  1  0
 27 28  1  0
 28 29  2  0
 30 29  1  0
 31 30  2  0
 32 34  2  0
 32 33  1  0
M  END
$$$$
