YPW.pdb
     RDKit          3D

 34 37  0  0  1  0  0  0  0  0999 V2000
   21.6195  -14.0897  -17.7962 O   0  0  0  0  0  0  0  0  0  0  0  0
   22.0750  -15.1273  -17.0323 C   0  0  0  0  0  0  0  0  0  0  0  0
   21.4486  -16.3517  -17.0359 C   0  0  0  0  0  0  0  0  0  0  0  0
   21.9349  -17.3832  -16.2512 C   0  0  0  0  0  0  0  0  0  0  0  0
   23.0450  -17.2288  -15.4516 C   0  0  0  0  0  0  0  0  0  0  0  0
   23.5494  -18.3400  -14.6217 C   0  0  0  0  0  0  0  0  0  0  0  0
   24.5625  -19.1500  -15.4451 C   0  0  2  0  0  0  0  0  0  0  0  0
   23.8618  -19.7478  -16.5795 N   0  0  0  0  0  0  0  0  0  0  0  0
   25.1938  -20.2221  -14.6286 C   0  0  0  0  0  0  0  0  0  0  0  0
   24.6097  -21.3334  -14.5622 O   0  0  0  0  0  0  0  0  0  0  0  0
   23.6592  -16.0072  -15.4563 C   0  0  0  0  0  0  0  0  0  0  0  0
   23.2098  -14.9513  -16.2215 C   0  0  0  0  0  0  0  0  0  0  0  0
   26.3977  -20.0254  -13.9502 N   0  0  0  0  0  0  0  0  0  0  0  0
   27.2229  -18.8423  -13.9342 C   0  0  0  0  0  0  0  0  0  0  0  0
   28.6402  -19.3787  -13.8366 C   0  0  0  0  0  0  0  0  0  0  0  0
   28.5126  -20.8252  -13.4458 C   0  0  0  0  0  0  0  0  0  0  0  0
   27.0756  -20.9847  -13.1025 C   0  0  1  0  0  0  0  0  0  0  0  0
   26.7745  -20.7824  -11.6806 C   0  0  0  0  0  0  0  0  0  0  0  0
   26.8770  -19.6135  -11.2180 O   0  0  0  0  0  0  0  0  0  0  0  0
   26.3776  -21.7850  -10.7731 N   0  0  0  0  0  0  0  0  0  0  0  0
   26.1135  -21.4707   -9.3665 C   0  0  1  0  0  0  0  0  0  0  0  0
   27.3719  -21.0745   -8.6846 C   0  0  0  0  0  0  0  0  0  0  0  0
   27.1711  -20.6941   -7.2855 C   0  0  0  0  0  0  0  0  0  0  0  0
   26.0254  -21.0362   -6.5773 C   0  0  0  0  0  0  0  0  0  0  0  0
   26.0930  -20.5315   -5.3404 N   0  0  0  0  0  0  0  0  0  0  0  0
   27.2810  -19.8630   -5.2370 C   0  0  0  0  0  0  0  0  0  0  0  0
   27.8294  -19.1903   -4.1482 C   0  0  0  0  0  0  0  0  0  0  0  0
   29.0591  -18.6312   -4.3179 C   0  0  0  0  0  0  0  0  0  0  0  0
   29.7491  -18.7247   -5.5282 C   0  0  0  0  0  0  0  0  0  0  0  0
   29.2012  -19.3870   -6.5904 C   0  0  0  0  0  0  0  0  0  0  0  0
   27.9503  -19.9577   -6.4318 C   0  0  0  0  0  0  0  0  0  0  0  0
   25.0427  -20.4802   -9.2362 C   0  0  0  0  0  0  0  0  0  0  0  0
   25.1471  -19.1525   -9.6157 O   0  0  0  0  0  0  0  0  0  0  0  0
   23.9039  -20.7932   -8.7386 O   0  0  0  0  0  0  0  0  0  0  0  0
  2  1  1  0
  3  2  2  0
  4  3  1  0
  5 11  1  0
  5  4  2  0
  6  5  1  0
  7  9  1  0
  7  6  1  0
  7  8  1  6
  9 13  1  0
 10  9  2  0
 11 12  2  0
 12  2  1  0
 13 17  1  0
 13 14  1  0
 14 15  1  0
 16 15  1  0
 17 16  1  0
 17 18  1  1
 18 19  2  0
 18 20  1  0
 20 21  1  0
 21 32  1  0
 21 22  1  6
 23 22  1  0
 23 31  1  0
 24 25  1  0
 24 23  2  0
 25 26  1  0
 26 27  2  0
 26 31  1  0
 27 28  1  0
 28 29  2  0
 30 29  1  0
 31 30  2  0
 32 34  2  0
 32 33  1  0
M  END
$$$$
