DHF.pdb
     RDKit          3D

 30 31  0  0  1  0  0  0  0  0999 V2000
   27.3926  -23.1082  -18.0518 N   0  0  0  0  0  0  0  0  0  0  0  0
   28.1564  -22.4790  -16.9987 C   0  0  1  0  0  0  0  0  0  0  0  0
   29.2688  -21.6115  -17.5353 C   0  0  0  0  0  0  0  0  0  0  0  0
   30.1608  -22.3228  -18.4534 C   0  0  0  0  0  0  0  0  0  0  0  0
   29.9726  -23.4967  -18.8633 O   0  0  0  0  0  0  0  0  0  0  0  0
   27.2790  -21.7319  -16.0596 C   0  0  0  0  0  0  0  0  0  0  0  0
   27.7356  -20.6787  -15.5438 O   0  0  0  0  0  0  0  0  0  0  0  0
   31.2943  -21.6644  -18.9075 O   0  0  0  0  0  0  0  0  0  0  0  0
   25.9804  -22.1277  -15.7158 N   0  0  0  0  0  0  0  0  0  0  0  0
   25.1522  -21.3303  -14.8328 C   0  0  1  0  0  0  0  0  0  0  0  0
   23.6772  -21.6954  -14.9974 C   0  0  0  0  0  0  0  0  0  0  0  0
   22.8010  -20.8924  -14.1429 C   0  0  0  0  0  0  0  0  0  0  0  0
   22.3625  -19.6108  -14.3880 C   0  0  0  0  0  0  0  0  0  0  0  0
   21.5708  -19.2244  -13.3564 N   0  0  0  0  0  0  0  0  0  0  0  0
   21.5083  -20.2378  -12.4767 C   0  0  0  0  0  0  0  0  0  0  0  0
   22.2532  -21.2427  -12.9567 N   0  0  0  0  0  0  0  0  0  0  0  0
   25.4850  -21.5617  -13.4090 C   0  0  0  0  0  0  0  0  0  0  0  0
   25.7126  -22.7330  -13.0350 O   0  0  0  0  0  0  0  0  0  0  0  0
   25.5557  -20.5194  -12.4597 N   0  0  0  0  0  0  0  0  0  0  0  0
   26.0566  -20.8156  -11.1100 C   0  0  1  0  0  0  0  0  0  0  0  0
   27.1167  -19.8486  -10.7022 C   0  0  0  0  0  0  0  0  0  0  0  0
   27.5997  -20.0425   -9.3183 C   0  0  0  0  0  0  0  0  0  0  0  0
   26.9738  -19.4076   -8.2607 C   0  0  0  0  0  0  0  0  0  0  0  0
   27.3826  -19.5574   -6.9453 C   0  0  0  0  0  0  0  0  0  0  0  0
   28.4569  -20.3726   -6.6816 C   0  0  0  0  0  0  0  0  0  0  0  0
   29.0962  -21.0153   -7.7190 C   0  0  0  0  0  0  0  0  0  0  0  0
   28.6810  -20.8589   -9.0222 C   0  0  0  0  0  0  0  0  0  0  0  0
   24.8977  -20.8764  -10.2105 C   0  0  0  0  0  0  0  0  0  0  0  0
   24.7891  -21.7699   -9.1542 O   0  0  0  0  0  0  0  0  0  0  0  0
   23.9404  -20.0866  -10.3871 O   0  0  0  0  0  0  0  0  0  0  0  0
  2  1  1  6
  2  3  1  0
  4  3  1  0
  4  5  2  0
  6  2  1  0
  6  7  2  0
  8  4  1  0
  9  6  1  0
 10  9  1  0
 11 12  1  0
 10 11  1  1
 12 16  1  0
 13 12  2  0
 13 14  1  0
 14 15  1  0
 16 15  2  0
 17 10  1  0
 18 17  2  0
 19 17  1  0
 20 19  1  0
 20 28  1  0
 20 21  1  1
 22 21  1  0
 23 22  2  0
 24 23  1  0
 25 26  1  0
 25 24  2  0
 26 27  2  0
 27 22  1  0
 28 29  1  0
 30 28  2  0
M  END
$$$$
