DHF.pdb
     RDKit          3D

 30 31  0  0  1  0  0  0  0  0999 V2000
   19.9248  -11.8699  -18.6802 N   0  0  0  0  0  0  0  0  0  0  0  0
   20.4874  -11.4112  -17.4307 C   0  0  1  0  0  0  0  0  0  0  0  0
   21.9813  -11.6155  -17.3639 C   0  0  0  0  0  0  0  0  0  0  0  0
   22.3697  -13.0275  -17.3781 C   0  0  0  0  0  0  0  0  0  0  0  0
   23.0792  -13.5624  -18.2680 O   0  0  0  0  0  0  0  0  0  0  0  0
   20.1108  -10.0013  -17.1473 C   0  0  0  0  0  0  0  0  0  0  0  0
   20.3836   -9.1357  -18.0190 O   0  0  0  0  0  0  0  0  0  0  0  0
   21.9293  -13.8387  -16.3424 O   0  0  0  0  0  0  0  0  0  0  0  0
   19.4734   -9.5802  -15.9736 N   0  0  0  0  0  0  0  0  0  0  0  0
   19.0822   -8.1984  -15.7758 C   0  0  1  0  0  0  0  0  0  0  0  0
   17.6311   -8.1086  -15.3041 C   0  0  0  0  0  0  0  0  0  0  0  0
   16.6733   -8.3391  -16.3867 C   0  0  0  0  0  0  0  0  0  0  0  0
   16.9677   -8.5455  -17.7154 C   0  0  0  0  0  0  0  0  0  0  0  0
   15.8038   -8.7186  -18.3902 N   0  0  0  0  0  0  0  0  0  0  0  0
   14.7935   -8.6242  -17.5097 C   0  0  0  0  0  0  0  0  0  0  0  0
   15.3244   -8.3949  -16.3010 N   0  0  0  0  0  0  0  0  0  0  0  0
   19.9027   -7.5382  -14.7354 C   0  0  0  0  0  0  0  0  0  0  0  0
   20.1581   -8.1729  -13.6888 O   0  0  0  0  0  0  0  0  0  0  0  0
   20.4069   -6.2272  -14.8751 N   0  0  0  0  0  0  0  0  0  0  0  0
   21.2932   -5.6882  -13.8339 C   0  0  1  0  0  0  0  0  0  0  0  0
   22.4905   -6.5568  -13.6400 C   0  0  0  0  0  0  0  0  0  0  0  0
   23.3527   -6.6589  -14.8367 C   0  0  0  0  0  0  0  0  0  0  0  0
   23.5816   -7.8851  -15.4347 C   0  0  0  0  0  0  0  0  0  0  0  0
   24.3771   -8.0367  -16.5590 C   0  0  0  0  0  0  0  0  0  0  0  0
   24.9636   -6.9191  -17.1023 C   0  0  0  0  0  0  0  0  0  0  0  0
   24.7501   -5.6872  -16.5238 C   0  0  0  0  0  0  0  0  0  0  0  0
   23.9576   -5.5487  -15.4067 C   0  0  0  0  0  0  0  0  0  0  0  0
   21.5925   -4.2941  -14.1844 C   0  0  0  0  0  0  0  0  0  0  0  0
   22.2471   -3.4109  -13.3375 O   0  0  0  0  0  0  0  0  0  0  0  0
   21.2470   -3.8547  -15.3064 O   0  0  0  0  0  0  0  0  0  0  0  0
  2  1  1  6
  2  3  1  0
  4  3  1  0
  4  5  2  0
  6  2  1  0
  6  7  2  0
  8  4  1  0
  9  6  1  0
 10  9  1  0
 11 12  1  0
 10 11  1  1
 12 16  1  0
 13 12  2  0
 13 14  1  0
 14 15  1  0
 16 15  2  0
 17 10  1  0
 18 17  2  0
 19 17  1  0
 20 19  1  0
 20 28  1  0
 20 21  1  6
 22 21  1  0
 23 22  2  0
 24 23  1  0
 25 26  1  0
 25 24  2  0
 26 27  2  0
 27 22  1  0
 28 29  1  0
 30 28  2  0
M  END
$$$$
