DHF.pdb
     RDKit          3D

 30 31  0  0  1  0  0  0  0  0999 V2000
   16.6516   -8.3296  -15.2117 N   0  0  0  0  0  0  0  0  0  0  0  0
   17.4804   -7.7949  -16.2678 C   0  0  1  0  0  0  0  0  0  0  0  0
   17.5068   -6.2859  -16.2694 C   0  0  0  0  0  0  0  0  0  0  0  0
   16.2905   -5.6901  -16.8267 C   0  0  0  0  0  0  0  0  0  0  0  0
   15.5300   -6.2609  -17.6495 O   0  0  0  0  0  0  0  0  0  0  0  0
   18.8507   -8.3700  -16.2305 C   0  0  0  0  0  0  0  0  0  0  0  0
   19.4774   -8.3200  -15.1403 O   0  0  0  0  0  0  0  0  0  0  0  0
   15.9455   -4.4079  -16.4249 O   0  0  0  0  0  0  0  0  0  0  0  0
   19.4836   -8.9615  -17.3308 N   0  0  0  0  0  0  0  0  0  0  0  0
   20.8153   -9.5252  -17.2283 C   0  0  1  0  0  0  0  0  0  0  0  0
   21.0494  -10.5642  -18.3246 C   0  0  0  0  0  0  0  0  0  0  0  0
   22.3520  -11.2215  -18.2066 C   0  0  0  0  0  0  0  0  0  0  0  0
   23.3001  -10.9996  -17.2337 C   0  0  0  0  0  0  0  0  0  0  0  0
   24.3629  -11.8060  -17.4794 N   0  0  0  0  0  0  0  0  0  0  0  0
   24.0953  -12.5234  -18.5833 C   0  0  0  0  0  0  0  0  0  0  0  0
   22.8794  -12.1664  -19.0184 N   0  0  0  0  0  0  0  0  0  0  0  0
   21.8635   -8.4938  -17.3976 C   0  0  0  0  0  0  0  0  0  0  0  0
   21.6462   -7.5502  -18.1888 O   0  0  0  0  0  0  0  0  0  0  0  0
   23.0934   -8.5308  -16.7058 N   0  0  0  0  0  0  0  0  0  0  0  0
   24.0334   -7.4115  -16.8598 C   0  0  1  0  0  0  0  0  0  0  0  0
   25.0463   -7.4011  -15.7647 C   0  0  0  0  0  0  0  0  0  0  0  0
   25.8415   -8.6444  -15.6768 C   0  0  0  0  0  0  0  0  0  0  0  0
   25.5163   -9.6222  -14.7539 C   0  0  0  0  0  0  0  0  0  0  0  0
   26.2248  -10.8067  -14.6320 C   0  0  0  0  0  0  0  0  0  0  0  0
   27.2972  -11.0176  -15.4649 C   0  0  0  0  0  0  0  0  0  0  0  0
   27.6400  -10.0578  -16.3918 C   0  0  0  0  0  0  0  0  0  0  0  0
   26.9284   -8.8846  -16.5039 C   0  0  0  0  0  0  0  0  0  0  0  0
   24.5915   -7.4846  -18.2160 C   0  0  0  0  0  0  0  0  0  0  0  0
   25.2163   -6.4199  -18.8498 O   0  0  0  0  0  0  0  0  0  0  0  0
   24.5110   -8.5591  -18.8567 O   0  0  0  0  0  0  0  0  0  0  0  0
  2  1  1  1
  2  3  1  0
  4  3  1  0
  4  5  2  0
  6  2  1  0
  6  7  2  0
  8  4  1  0
  9  6  1  0
 10  9  1  0
 11 12  1  0
 10 11  1  6
 12 16  1  0
 13 12  2  0
 13 14  1  0
 14 15  1  0
 16 15  2  0
 17 10  1  0
 18 17  2  0
 19 17  1  0
 20 19  1  0
 20 28  1  0
 20 21  1  1
 22 21  1  0
 23 22  2  0
 24 23  1  0
 25 26  1  0
 25 24  2  0
 26 27  2  0
 27 22  1  0
 28 29  1  0
 30 28  2  0
M  END
$$$$
