DHF.pdb
     RDKit          3D

 30 31  0  0  1  0  0  0  0  0999 V2000
   12.9046  -19.1295    3.3065 N   0  0  0  0  0  0  0  0  0  0  0  0
   14.0679  -19.7204    3.9276 C   0  0  1  0  0  0  0  0  0  0  0  0
   15.1594  -20.0248    2.9306 C   0  0  0  0  0  0  0  0  0  0  0  0
   14.7668  -21.0252    1.9357 C   0  0  0  0  0  0  0  0  0  0  0  0
   13.6431  -21.5885    1.8968 O   0  0  0  0  0  0  0  0  0  0  0  0
   14.5669  -18.8888    5.0542 C   0  0  0  0  0  0  0  0  0  0  0  0
   14.2336  -17.6755    5.0791 O   0  0  0  0  0  0  0  0  0  0  0  0
   15.6916  -21.3824    0.9654 O   0  0  0  0  0  0  0  0  0  0  0  0
   15.3820  -19.3722    6.0853 N   0  0  0  0  0  0  0  0  0  0  0  0
   15.7553  -18.5397    7.2118 C   0  0  1  0  0  0  0  0  0  0  0  0
   16.2762  -19.3938    8.3674 C   0  0  0  0  0  0  0  0  0  0  0  0
   15.2157  -20.1640    9.0191 C   0  0  0  0  0  0  0  0  0  0  0  0
   13.9459  -19.7252    9.3186 C   0  0  0  0  0  0  0  0  0  0  0  0
   13.2726  -20.7390    9.9178 N   0  0  0  0  0  0  0  0  0  0  0  0
   14.0965  -21.7973    9.9968 C   0  0  0  0  0  0  0  0  0  0  0  0
   15.2688  -21.4444    9.4525 N   0  0  0  0  0  0  0  0  0  0  0  0
   16.8432  -17.5981    6.8631 C   0  0  0  0  0  0  0  0  0  0  0  0
   17.7120  -17.9710    6.0448 O   0  0  0  0  0  0  0  0  0  0  0  0
   16.9402  -16.3020    7.4137 N   0  0  0  0  0  0  0  0  0  0  0  0
   18.0645  -15.4412    7.0197 C   0  0  1  0  0  0  0  0  0  0  0  0
   17.6646  -14.0041    7.0008 C   0  0  0  0  0  0  0  0  0  0  0  0
   18.7620  -13.0851    6.6306 C   0  0  0  0  0  0  0  0  0  0  0  0
   19.7458  -12.7608    7.5474 C   0  0  0  0  0  0  0  0  0  0  0  0
   20.7977  -11.9087    7.2520 C   0  0  0  0  0  0  0  0  0  0  0  0
   20.8650  -11.3627    5.9928 C   0  0  0  0  0  0  0  0  0  0  0  0
   19.8963  -11.6711    5.0630 C   0  0  0  0  0  0  0  0  0  0  0  0
   18.8557  -12.5192    5.3680 C   0  0  0  0  0  0  0  0  0  0  0  0
   19.1945  -15.7557    7.9030 C   0  0  0  0  0  0  0  0  0  0  0  0
   19.1155  -15.7427    9.2884 O   0  0  0  0  0  0  0  0  0  0  0  0
   20.3028  -16.0556    7.4000 O   0  0  0  0  0  0  0  0  0  0  0  0
  2  1  1  6
  2  3  1  0
  4  3  1  0
  4  5  2  0
  6  2  1  0
  6  7  2  0
  8  4  1  0
  9  6  1  0
 10  9  1  0
 11 12  1  0
 10 11  1  1
 12 16  1  0
 13 12  2  0
 13 14  1  0
 14 15  1  0
 16 15  2  0
 17 10  1  0
 18 17  2  0
 19 17  1  0
 20 19  1  0
 20 28  1  0
 20 21  1  1
 22 21  1  0
 23 22  2  0
 24 23  1  0
 25 26  1  0
 25 24  2  0
 26 27  2  0
 27 22  1  0
 28 29  1  0
 30 28  2  0
M  END
$$$$
