DHF.pdb
     RDKit          3D

 30 31  0  0  1  0  0  0  0  0999 V2000
   17.3340  -14.7468  -16.6212 N   0  0  0  0  0  0  0  0  0  0  0  0
   17.2184  -13.4130  -16.0775 C   0  0  1  0  0  0  0  0  0  0  0  0
   16.4549  -13.3873  -14.7758 C   0  0  0  0  0  0  0  0  0  0  0  0
   15.0032  -13.3347  -14.9615 C   0  0  0  0  0  0  0  0  0  0  0  0
   14.4170  -13.5376  -16.0555 O   0  0  0  0  0  0  0  0  0  0  0  0
   18.5469  -12.7583  -15.9501 C   0  0  0  0  0  0  0  0  0  0  0  0
   19.3093  -13.1544  -15.0306 O   0  0  0  0  0  0  0  0  0  0  0  0
   14.2119  -13.0415  -13.8605 O   0  0  0  0  0  0  0  0  0  0  0  0
   18.9992  -11.7316  -16.7883 N   0  0  0  0  0  0  0  0  0  0  0  0
   20.3491  -11.2119  -16.6920 C   0  0  1  0  0  0  0  0  0  0  0  0
   21.1063  -11.4253  -18.0025 C   0  0  0  0  0  0  0  0  0  0  0  0
   21.3706  -12.8390  -18.2747 C   0  0  0  0  0  0  0  0  0  0  0  0
   20.7476  -13.6256  -19.2170 C   0  0  0  0  0  0  0  0  0  0  0  0
   21.2776  -14.8727  -19.1521 N   0  0  0  0  0  0  0  0  0  0  0  0
   22.2157  -14.8773  -18.1904 C   0  0  0  0  0  0  0  0  0  0  0  0
   22.2677  -13.6464  -17.6637 N   0  0  0  0  0  0  0  0  0  0  0  0
   20.3601   -9.7542  -16.4342 C   0  0  0  0  0  0  0  0  0  0  0  0
   19.3535   -9.0863  -16.7569 O   0  0  0  0  0  0  0  0  0  0  0  0
   21.4552   -9.0894  -15.8415 N   0  0  0  0  0  0  0  0  0  0  0  0
   21.3769   -7.6379  -15.6242 C   0  0  1  0  0  0  0  0  0  0  0  0
   22.2680   -7.2093  -14.5073 C   0  0  0  0  0  0  0  0  0  0  0  0
   22.3777   -5.7421  -14.3620 C   0  0  0  0  0  0  0  0  0  0  0  0
   21.5505   -5.0590  -13.4886 C   0  0  0  0  0  0  0  0  0  0  0  0
   21.6137   -3.6863  -13.3111 C   0  0  0  0  0  0  0  0  0  0  0  0
   22.5391   -2.9738  -14.0352 C   0  0  0  0  0  0  0  0  0  0  0  0
   23.3736   -3.6326  -14.9113 C   0  0  0  0  0  0  0  0  0  0  0  0
   23.3016   -4.9970  -15.0794 C   0  0  0  0  0  0  0  0  0  0  0  0
   21.6414   -6.9820  -16.9110 C   0  0  0  0  0  0  0  0  0  0  0  0
   20.9483   -5.8685  -17.3644 O   0  0  0  0  0  0  0  0  0  0  0  0
   22.5391   -7.4357  -17.6591 O   0  0  0  0  0  0  0  0  0  0  0  0
  2  1  1  1
  2  3  1  0
  4  3  1  0
  4  5  2  0
  6  2  1  0
  6  7  2  0
  8  4  1  0
  9  6  1  0
 10  9  1  0
 11 12  1  0
 10 11  1  6
 12 16  1  0
 13 12  2  0
 13 14  1  0
 14 15  1  0
 16 15  2  0
 17 10  1  0
 18 17  2  0
 19 17  1  0
 20 19  1  0
 20 28  1  0
 20 21  1  1
 22 21  1  0
 23 22  2  0
 24 23  1  0
 25 26  1  0
 25 24  2  0
 26 27  2  0
 27 22  1  0
 28 29  1  0
 30 28  2  0
M  END
$$$$
