DHF.pdb
     RDKit          3D

 30 31  0  0  1  0  0  0  0  0999 V2000
   27.3827  -22.1996  -20.9653 N   0  0  0  0  0  0  0  0  0  0  0  0
   26.9209  -21.7806  -19.6618 C   0  0  1  0  0  0  0  0  0  0  0  0
   26.3376  -20.3887  -19.6788 C   0  0  0  0  0  0  0  0  0  0  0  0
   27.3434  -19.3463  -19.8946 C   0  0  0  0  0  0  0  0  0  0  0  0
   28.5859  -19.5379  -19.8643 O   0  0  0  0  0  0  0  0  0  0  0  0
   25.9764  -22.7667  -19.0742 C   0  0  0  0  0  0  0  0  0  0  0  0
   25.0435  -23.1912  -19.8045 O   0  0  0  0  0  0  0  0  0  0  0  0
   26.9047  -18.0554  -20.1509 O   0  0  0  0  0  0  0  0  0  0  0  0
   26.0619  -23.2498  -17.7625 N   0  0  0  0  0  0  0  0  0  0  0  0
   25.0955  -24.1937  -17.2365 C   0  0  1  0  0  0  0  0  0  0  0  0
   25.6816  -24.9678  -16.0560 C   0  0  0  0  0  0  0  0  0  0  0  0
   26.4503  -26.1395  -16.4787 C   0  0  0  0  0  0  0  0  0  0  0  0
   26.4852  -26.6890  -17.7403 C   0  0  0  0  0  0  0  0  0  0  0  0
   27.3147  -27.7621  -17.7174 N   0  0  0  0  0  0  0  0  0  0  0  0
   27.7953  -27.8908  -16.4694 C   0  0  0  0  0  0  0  0  0  0  0  0
   27.2699  -26.9081  -15.7255 N   0  0  0  0  0  0  0  0  0  0  0  0
   23.8818  -23.5136  -16.7306 C   0  0  0  0  0  0  0  0  0  0  0  0
   24.0186  -22.4320  -16.1184 O   0  0  0  0  0  0  0  0  0  0  0  0
   22.5816  -24.0333  -16.9097 N   0  0  0  0  0  0  0  0  0  0  0  0
   21.4280  -23.2421  -16.4587 C   0  0  1  0  0  0  0  0  0  0  0  0
   20.5274  -22.9009  -17.5979 C   0  0  0  0  0  0  0  0  0  0  0  0
   21.1039  -21.9174  -18.5393 C   0  0  0  0  0  0  0  0  0  0  0  0
   21.0784  -20.5658  -18.2456 C   0  0  0  0  0  0  0  0  0  0  0  0
   21.6074  -19.6027  -19.0897 C   0  0  0  0  0  0  0  0  0  0  0  0
   22.1818  -20.0097  -20.2698 C   0  0  0  0  0  0  0  0  0  0  0  0
   22.2186  -21.3506  -20.5837 C   0  0  0  0  0  0  0  0  0  0  0  0
   21.6898  -22.2986  -19.7370 C   0  0  0  0  0  0  0  0  0  0  0  0
   20.7855  -23.9798  -15.3637 C   0  0  0  0  0  0  0  0  0  0  0  0
   19.9124  -23.4007  -14.4536 O   0  0  0  0  0  0  0  0  0  0  0  0
   21.0238  -25.2024  -15.2232 O   0  0  0  0  0  0  0  0  0  0  0  0
  2  1  1  6
  2  3  1  0
  4  3  1  0
  4  5  2  0
  6  2  1  0
  6  7  2  0
  8  4  1  0
  9  6  1  0
 10  9  1  0
 11 12  1  0
 10 11  1  1
 12 16  1  0
 13 12  2  0
 13 14  1  0
 14 15  1  0
 16 15  2  0
 17 10  1  0
 18 17  2  0
 19 17  1  0
 20 19  1  0
 20 28  1  0
 20 21  1  6
 22 21  1  0
 23 22  2  0
 24 23  1  0
 25 26  1  0
 25 24  2  0
 26 27  2  0
 27 22  1  0
 28 29  1  0
 30 28  2  0
M  END
$$$$
