DHF.pdb
     RDKit          3D

 30 31  0  0  1  0  0  0  0  0999 V2000
   25.2357  -38.0608   -5.9077 N   0  0  0  0  0  0  0  0  0  0  0  0
   24.3545  -36.9384   -6.1355 C   0  0  1  0  0  0  0  0  0  0  0  0
   23.3787  -37.1925   -7.2586 C   0  0  0  0  0  0  0  0  0  0  0  0
   24.0297  -37.3516   -8.5608 C   0  0  0  0  0  0  0  0  0  0  0  0
   24.3300  -38.4584   -9.0767 O   0  0  0  0  0  0  0  0  0  0  0  0
   23.6618  -36.5259   -4.8865 C   0  0  0  0  0  0  0  0  0  0  0  0
   22.6861  -35.7379   -4.9907 O   0  0  0  0  0  0  0  0  0  0  0  0
   24.3402  -36.2081   -9.2822 O   0  0  0  0  0  0  0  0  0  0  0  0
   24.0281  -36.9595   -3.6063 N   0  0  0  0  0  0  0  0  0  0  0  0
   23.4162  -36.4075   -2.4136 C   0  0  1  0  0  0  0  0  0  0  0  0
   23.7464  -37.2623   -1.1903 C   0  0  0  0  0  0  0  0  0  0  0  0
   22.9939  -38.5175   -1.1625 C   0  0  0  0  0  0  0  0  0  0  0  0
   21.9711  -38.8824   -2.0084 C   0  0  0  0  0  0  0  0  0  0  0  0
   21.5403  -40.1182   -1.6516 N   0  0  0  0  0  0  0  0  0  0  0  0
   22.2731  -40.5284   -0.6030 C   0  0  0  0  0  0  0  0  0  0  0  0
   23.1496  -39.5577   -0.3117 N   0  0  0  0  0  0  0  0  0  0  0  0
   23.9151  -35.0451   -2.1199 C   0  0  0  0  0  0  0  0  0  0  0  0
   25.0967  -34.7675   -2.4204 O   0  0  0  0  0  0  0  0  0  0  0  0
   23.1157  -34.0501   -1.5170 N   0  0  0  0  0  0  0  0  0  0  0  0
   23.6589  -32.6929   -1.3646 C   0  0  1  0  0  0  0  0  0  0  0  0
   23.2246  -31.8076   -2.4839 C   0  0  0  0  0  0  0  0  0  0  0  0
   23.6069  -30.3905   -2.3056 C   0  0  0  0  0  0  0  0  0  0  0  0
   22.6845  -29.4665   -1.8486 C   0  0  0  0  0  0  0  0  0  0  0  0
   22.9906  -28.1283   -1.6601 C   0  0  0  0  0  0  0  0  0  0  0  0
   24.2667  -27.7022   -1.9398 C   0  0  0  0  0  0  0  0  0  0  0  0
   25.2023  -28.6045   -2.3963 C   0  0  0  0  0  0  0  0  0  0  0  0
   24.8866  -29.9319   -2.5798 C   0  0  0  0  0  0  0  0  0  0  0  0
   23.2939  -32.2172   -0.0243 C   0  0  0  0  0  0  0  0  0  0  0  0
   24.1207  -31.4301    0.7648 O   0  0  0  0  0  0  0  0  0  0  0  0
   22.1778  -32.5267    0.4550 O   0  0  0  0  0  0  0  0  0  0  0  0
  2  1  1  1
  2  3  1  0
  4  3  1  0
  4  5  2  0
  6  2  1  0
  6  7  2  0
  8  4  1  0
  9  6  1  0
 10  9  1  0
 11 12  1  0
 10 11  1  1
 12 16  1  0
 13 12  2  0
 13 14  1  0
 14 15  1  0
 16 15  2  0
 17 10  1  0
 18 17  2  0
 19 17  1  0
 20 19  1  0
 20 28  1  0
 20 21  1  6
 22 21  1  0
 23 22  2  0
 24 23  1  0
 25 26  1  0
 25 24  2  0
 26 27  2  0
 27 22  1  0
 28 29  1  0
 30 28  2  0
M  END
$$$$
