DHF.pdb
     RDKit          3D

 30 31  0  0  1  0  0  0  0  0999 V2000
   23.4408  -24.9358  -14.5118 N   0  0  0  0  0  0  0  0  0  0  0  0
   24.6868  -24.4662  -15.0731 C   0  0  1  0  0  0  0  0  0  0  0  0
   24.9924  -25.1031  -16.4069 C   0  0  0  0  0  0  0  0  0  0  0  0
   23.8415  -25.1218  -17.3123 C   0  0  0  0  0  0  0  0  0  0  0  0
   23.9212  -25.2101  -18.5642 O   0  0  0  0  0  0  0  0  0  0  0  0
   24.7264  -22.9821  -15.1491 C   0  0  0  0  0  0  0  0  0  0  0  0
   25.8307  -22.4383  -15.4105 O   0  0  0  0  0  0  0  0  0  0  0  0
   22.5718  -25.0366  -16.7600 O   0  0  0  0  0  0  0  0  0  0  0  0
   23.6134  -22.1562  -14.9481 N   0  0  0  0  0  0  0  0  0  0  0  0
   23.7218  -20.7113  -14.9947 C   0  0  1  0  0  0  0  0  0  0  0  0
   22.3394  -20.0623  -14.9325 C   0  0  0  0  0  0  0  0  0  0  0  0
   22.3884  -18.6149  -15.1451 C   0  0  0  0  0  0  0  0  0  0  0  0
   23.3821  -17.9109  -15.7866 C   0  0  0  0  0  0  0  0  0  0  0  0
   23.0526  -16.5951  -15.7723 N   0  0  0  0  0  0  0  0  0  0  0  0
   21.8763  -16.4669  -15.1360 C   0  0  0  0  0  0  0  0  0  0  0  0
   21.4797  -17.6900  -14.7593 N   0  0  0  0  0  0  0  0  0  0  0  0
   24.4865  -20.1799  -13.8440 C   0  0  0  0  0  0  0  0  0  0  0  0
   24.0054  -19.2198  -13.2035 O   0  0  0  0  0  0  0  0  0  0  0  0
   25.7313  -20.7097  -13.4412 N   0  0  0  0  0  0  0  0  0  0  0  0
   26.3267  -20.2527  -12.1775 C   0  0  1  0  0  0  0  0  0  0  0  0
   25.4068  -20.4932  -11.0280 C   0  0  0  0  0  0  0  0  0  0  0  0
   26.0139  -20.2109   -9.7098 C   0  0  0  0  0  0  0  0  0  0  0  0
   26.1392  -18.9092   -9.2587 C   0  0  0  0  0  0  0  0  0  0  0  0
   26.6962  -18.5891   -8.0311 C   0  0  0  0  0  0  0  0  0  0  0  0
   27.1434  -19.6105   -7.2279 C   0  0  0  0  0  0  0  0  0  0  0  0
   27.0291  -20.9149   -7.6563 C   0  0  0  0  0  0  0  0  0  0  0  0
   26.4737  -21.2209   -8.8782 C   0  0  0  0  0  0  0  0  0  0  0  0
   27.6461  -20.8851  -12.0547 C   0  0  0  0  0  0  0  0  0  0  0  0
   27.8723  -22.2395  -12.2551 O   0  0  0  0  0  0  0  0  0  0  0  0
   28.6390  -20.1820  -11.7527 O   0  0  0  0  0  0  0  0  0  0  0  0
  2  1  1  6
  2  3  1  0
  4  3  1  0
  4  5  2  0
  6  2  1  0
  6  7  2  0
  8  4  1  0
  9  6  1  0
 10  9  1  0
 11 12  1  0
 10 11  1  1
 12 16  1  0
 13 12  2  0
 13 14  1  0
 14 15  1  0
 16 15  2  0
 17 10  1  0
 18 17  2  0
 19 17  1  0
 20 19  1  0
 20 28  1  0
 20 21  1  1
 22 21  1  0
 23 22  2  0
 24 23  1  0
 25 26  1  0
 25 24  2  0
 26 27  2  0
 27 22  1  0
 28 29  1  0
 30 28  2  0
M  END
$$$$
