DHF.pdb
     RDKit          3D

 30 31  0  0  1  0  0  0  0  0999 V2000
   21.9458  -20.0213  -13.6926 N   0  0  0  0  0  0  0  0  0  0  0  0
   22.1464  -19.8391  -12.2732 C   0  0  1  0  0  0  0  0  0  0  0  0
   20.9635  -20.3067  -11.4609 C   0  0  0  0  0  0  0  0  0  0  0  0
   19.7131  -19.6392  -11.8293 C   0  0  0  0  0  0  0  0  0  0  0  0
   18.6222  -19.7836  -11.2206 O   0  0  0  0  0  0  0  0  0  0  0  0
   23.4128  -20.4690  -11.8155 C   0  0  0  0  0  0  0  0  0  0  0  0
   23.3409  -21.3326  -10.9029 O   0  0  0  0  0  0  0  0  0  0  0  0
   19.7230  -18.7870  -12.9239 O   0  0  0  0  0  0  0  0  0  0  0  0
   24.6756  -20.1606  -12.3365 N   0  0  0  0  0  0  0  0  0  0  0  0
   25.8726  -20.8368  -11.8766 C   0  0  1  0  0  0  0  0  0  0  0  0
   27.0406  -20.5772  -12.8276 C   0  0  0  0  0  0  0  0  0  0  0  0
   26.8720  -21.2446  -14.1194 C   0  0  0  0  0  0  0  0  0  0  0  0
   25.8000  -22.0120  -14.5152 C   0  0  0  0  0  0  0  0  0  0  0  0
   26.0286  -22.4480  -15.7792 N   0  0  0  0  0  0  0  0  0  0  0  0
   27.2189  -21.9682  -16.1767 C   0  0  0  0  0  0  0  0  0  0  0  0
   27.7239  -21.2420  -15.1703 N   0  0  0  0  0  0  0  0  0  0  0  0
   26.3007  -20.3521  -10.5449 C   0  0  0  0  0  0  0  0  0  0  0  0
   26.1708  -19.1357  -10.2856 O   0  0  0  0  0  0  0  0  0  0  0  0
   26.8473  -21.2023   -9.5596 N   0  0  0  0  0  0  0  0  0  0  0  0
   27.5444  -20.6078   -8.4104 C   0  0  1  0  0  0  0  0  0  0  0  0
   26.6060  -19.8265   -7.5535 C   0  0  0  0  0  0  0  0  0  0  0  0
   27.2146  -19.3329   -6.2997 C   0  0  0  0  0  0  0  0  0  0  0  0
   27.1246  -20.0750   -5.1358 C   0  0  0  0  0  0  0  0  0  0  0  0
   27.6797  -19.6616   -3.9355 C   0  0  0  0  0  0  0  0  0  0  0  0
   28.3482  -18.4615   -3.9015 C   0  0  0  0  0  0  0  0  0  0  0  0
   28.4505  -17.7051   -5.0483 C   0  0  0  0  0  0  0  0  0  0  0  0
   27.8950  -18.1262   -6.2355 C   0  0  0  0  0  0  0  0  0  0  0  0
   28.2585  -21.6878   -7.7178 C   0  0  0  0  0  0  0  0  0  0  0  0
   28.0148  -23.0362   -7.9373 O   0  0  0  0  0  0  0  0  0  0  0  0
   29.1422  -21.3999   -6.8767 O   0  0  0  0  0  0  0  0  0  0  0  0
  2  1  1  6
  2  3  1  0
  4  3  1  0
  4  5  2  0
  6  2  1  0
  6  7  2  0
  8  4  1  0
  9  6  1  0
 10  9  1  0
 11 12  1  0
 10 11  1  6
 12 16  1  0
 13 12  2  0
 13 14  1  0
 14 15  1  0
 16 15  2  0
 17 10  1  0
 18 17  2  0
 19 17  1  0
 20 19  1  0
 20 28  1  0
 20 21  1  1
 22 21  1  0
 23 22  2  0
 24 23  1  0
 25 26  1  0
 25 24  2  0
 26 27  2  0
 27 22  1  0
 28 29  1  0
 30 28  2  0
M  END
$$$$
