DHF.pdb
     RDKit          3D

 30 31  0  0  1  0  0  0  0  0999 V2000
   28.4653  -36.3158    0.5079 N   0  0  0  0  0  0  0  0  0  0  0  0
   28.3594  -35.8382    1.8676 C   0  0  1  0  0  0  0  0  0  0  0  0
   29.6843  -35.8629    2.5901 C   0  0  0  0  0  0  0  0  0  0  0  0
   30.1785  -37.2189    2.8387 C   0  0  0  0  0  0  0  0  0  0  0  0
   31.3520  -37.4951    3.1965 O   0  0  0  0  0  0  0  0  0  0  0  0
   27.7244  -34.4955    1.9267 C   0  0  0  0  0  0  0  0  0  0  0  0
   28.2064  -33.6545    2.7293 O   0  0  0  0  0  0  0  0  0  0  0  0
   29.2986  -38.2781    2.6705 O   0  0  0  0  0  0  0  0  0  0  0  0
   26.6267  -34.1115    1.1463 N   0  0  0  0  0  0  0  0  0  0  0  0
   26.0950  -32.7638    1.1947 C   0  0  1  0  0  0  0  0  0  0  0  0
   25.0700  -32.5457    0.0819 C   0  0  0  0  0  0  0  0  0  0  0  0
   25.6479  -32.7062   -1.2533 C   0  0  0  0  0  0  0  0  0  0  0  0
   26.9666  -32.5284   -1.6056 C   0  0  0  0  0  0  0  0  0  0  0  0
   27.0918  -32.7729   -2.9341 N   0  0  0  0  0  0  0  0  0  0  0  0
   25.8799  -33.0985   -3.4139 C   0  0  0  0  0  0  0  0  0  0  0  0
   25.0115  -33.0566   -2.3944 N   0  0  0  0  0  0  0  0  0  0  0  0
   25.3927  -32.4952    2.4699 C   0  0  0  0  0  0  0  0  0  0  0  0
   24.7316  -33.4202    2.9902 O   0  0  0  0  0  0  0  0  0  0  0  0
   25.4379  -31.2433    3.1203 N   0  0  0  0  0  0  0  0  0  0  0  0
   24.7498  -31.0828    4.4091 C   0  0  1  0  0  0  0  0  0  0  0  0
   25.2246  -32.0873    5.4046 C   0  0  0  0  0  0  0  0  0  0  0  0
   26.5033  -31.7255    6.0527 C   0  0  0  0  0  0  0  0  0  0  0  0
   27.7009  -32.2193    5.5675 C   0  0  0  0  0  0  0  0  0  0  0  0
   28.9268  -31.9093    6.1339 C   0  0  0  0  0  0  0  0  0  0  0  0
   28.9523  -31.0749    7.2254 C   0  0  0  0  0  0  0  0  0  0  0  0
   27.7720  -30.5709    7.7263 C   0  0  0  0  0  0  0  0  0  0  0  0
   26.5596  -30.8859    7.1550 C   0  0  0  0  0  0  0  0  0  0  0  0
   24.9049  -29.6827    4.8233 C   0  0  0  0  0  0  0  0  0  0  0  0
   25.7159  -28.7701    4.1636 O   0  0  0  0  0  0  0  0  0  0  0  0
   24.2794  -29.2655    5.8263 O   0  0  0  0  0  0  0  0  0  0  0  0
  2  1  1  6
  2  3  1  0
  4  3  1  0
  4  5  2  0
  6  2  1  0
  6  7  2  0
  8  4  1  0
  9  6  1  0
 10  9  1  0
 11 12  1  0
 10 11  1  6
 12 16  1  0
 13 12  2  0
 13 14  1  0
 14 15  1  0
 16 15  2  0
 17 10  1  0
 18 17  2  0
 19 17  1  0
 20 19  1  0
 20 28  1  0
 20 21  1  1
 22 21  1  0
 23 22  2  0
 24 23  1  0
 25 26  1  0
 25 24  2  0
 26 27  2  0
 27 22  1  0
 28 29  1  0
 30 28  2  0
M  END
$$$$
