VQH.pdb
     RDKit          3D

 27 27  0  0  1  0  0  0  0  0999 V2000
   16.7729  -13.5983  -11.1122 C   0  0  0  0  0  0  0  0  0  0  0  0
   16.7032  -12.1203  -11.4148 C   0  0  1  0  0  0  0  0  0  0  0  0
   16.5145  -11.8742  -12.8831 C   0  0  0  0  0  0  0  0  0  0  0  0
   15.7993  -11.3562  -10.5185 C   0  0  2  0  0  0  0  0  0  0  0  0
   14.4610  -11.9342  -10.6582 N   0  0  0  0  0  0  0  0  0  0  0  0
   15.6738   -9.9170  -10.7844 C   0  0  0  0  0  0  0  0  0  0  0  0
   14.9200   -9.4942  -11.7317 O   0  0  0  0  0  0  0  0  0  0  0  0
   14.8646   -5.1911   -7.2883 N   0  0  0  0  0  0  0  0  0  0  0  0
   13.9268   -6.1756   -7.7146 C   0  0  0  0  0  0  0  0  0  0  0  0
   12.8450   -6.2594   -7.1007 O   0  0  0  0  0  0  0  0  0  0  0  0
   14.2741   -7.0669   -8.8770 C   0  0  0  0  0  0  0  0  0  0  0  0
   15.6844   -6.7509   -9.2467 C   0  0  0  0  0  0  0  0  0  0  0  0
   16.2065   -7.4727  -10.4569 C   0  0  2  0  0  0  0  0  0  0  0  0
   16.3262   -8.8744  -10.0735 N   0  0  0  0  0  0  0  0  0  0  0  0
   17.4659   -6.8715  -10.8923 C   0  0  0  0  0  0  0  0  0  0  0  0
   18.6015   -7.3372  -10.6449 O   0  0  0  0  0  0  0  0  0  0  0  0
   17.4402   -5.6692  -11.6547 N   0  0  0  0  0  0  0  0  0  0  0  0
   18.6029   -5.1743  -12.3643 C   0  0  1  0  0  0  0  0  0  0  0  0
   18.8986   -6.1757  -13.4631 C   0  0  0  0  0  0  0  0  0  0  0  0
   19.9259   -7.1750  -13.0345 C   0  0  0  0  0  0  0  0  0  0  0  0
   20.9762   -6.9753  -12.1724 C   0  0  0  0  0  0  0  0  0  0  0  0
   21.6409   -8.1341  -12.0729 N   0  0  0  0  0  0  0  0  0  0  0  0
   21.0295   -9.0425  -12.8495 C   0  0  0  0  0  0  0  0  0  0  0  0
   19.9855   -8.4521  -13.4326 N   0  0  0  0  0  0  0  0  0  0  0  0
   18.3261   -3.8320  -12.8861 C   0  0  0  0  0  0  0  0  0  0  0  0
   17.1463   -3.4756  -13.1147 O   0  0  0  0  0  0  0  0  0  0  0  0
   19.3383   -2.9221  -13.1422 O   0  0  0  0  0  0  0  0  0  0  0  0
  2  4  1  0
  2  1  1  6
  3  2  1  0
  4  5  1  6
  6  4  1  0
  6  7  2  0
  9  8  1  0
  9 10  2  0
 11 12  1  0
 11  9  1  0
 13 12  1  1
 13 15  1  0
 13 14  1  0
 14  6  1  0
 15 17  1  0
 16 15  2  0
 17 18  1  0
 18 25  1  0
 18 19  1  6
 20 19  1  0
 21 20  2  0
 22 23  1  0
 22 21  1  0
 23 24  2  0
 24 20  1  0
 25 26  2  0
 25 27  1  0
M  END
$$$$
