VQH.pdb
     RDKit          3D

 27 27  0  0  1  0  0  0  0  0999 V2000
   22.0848  -12.0002  -19.3198 C   0  0  0  0  0  0  0  0  0  0  0  0
   21.3213  -10.8811  -18.6522 C   0  0  1  0  0  0  0  0  0  0  0  0
   20.1202  -11.4034  -17.9198 C   0  0  0  0  0  0  0  0  0  0  0  0
   22.1718   -9.9334  -17.8888 C   0  0  2  0  0  0  0  0  0  0  0  0
   22.8986  -10.7150  -16.8861 N   0  0  0  0  0  0  0  0  0  0  0  0
   21.4750   -8.8581  -17.1705 C   0  0  0  0  0  0  0  0  0  0  0  0
   20.9004   -7.9108  -17.8164 O   0  0  0  0  0  0  0  0  0  0  0  0
   18.4524   -9.0528  -11.9345 N   0  0  0  0  0  0  0  0  0  0  0  0
   17.8705   -9.3499  -13.2007 C   0  0  0  0  0  0  0  0  0  0  0  0
   16.8125  -10.0091  -13.2195 O   0  0  0  0  0  0  0  0  0  0  0  0
   18.5477   -8.8620  -14.4536 C   0  0  0  0  0  0  0  0  0  0  0  0
   19.8269   -8.2262  -14.0237 C   0  0  0  0  0  0  0  0  0  0  0  0
   20.6474   -7.6259  -15.1303 C   0  0  2  0  0  0  0  0  0  0  0  0
   21.3530   -8.7354  -15.7605 N   0  0  0  0  0  0  0  0  0  0  0  0
   21.5328   -6.5944  -14.5924 C   0  0  0  0  0  0  0  0  0  0  0  0
   22.7074   -6.7929  -14.2072 O   0  0  0  0  0  0  0  0  0  0  0  0
   21.0610   -5.2554  -14.4831 N   0  0  0  0  0  0  0  0  0  0  0  0
   21.8663   -4.1919  -13.9167 C   0  0  1  0  0  0  0  0  0  0  0  0
   23.1473   -4.1406  -14.7255 C   0  0  0  0  0  0  0  0  0  0  0  0
   22.9181   -3.5525  -16.0817 C   0  0  0  0  0  0  0  0  0  0  0  0
   21.7269   -3.1277  -16.6171 C   0  0  0  0  0  0  0  0  0  0  0  0
   21.9800   -2.6731  -17.8516 N   0  0  0  0  0  0  0  0  0  0  0  0
   23.2940   -2.8060  -18.0919 C   0  0  0  0  0  0  0  0  0  0  0  0
   23.8600   -3.3422  -17.0099 N   0  0  0  0  0  0  0  0  0  0  0  0
   21.1196   -2.9307  -13.9649 C   0  0  0  0  0  0  0  0  0  0  0  0
   21.5969   -1.8953  -13.4440 O   0  0  0  0  0  0  0  0  0  0  0  0
   19.8807   -2.8353  -14.5765 O   0  0  0  0  0  0  0  0  0  0  0  0
  2  4  1  0
  2  1  1  1
  3  2  1  0
  4  5  1  1
  6  4  1  0
  6  7  2  0
  9  8  1  0
  9 10  2  0
 11 12  1  0
 11  9  1  0
 13 12  1  1
 13 15  1  0
 13 14  1  0
 14  6  1  0
 15 17  1  0
 16 15  2  0
 17 18  1  0
 18 25  1  0
 18 19  1  6
 20 19  1  0
 21 20  2  0
 22 23  1  0
 22 21  1  0
 23 24  2  0
 24 20  1  0
 25 26  2  0
 25 27  1  0
M  END
$$$$
