VQH.pdb
     RDKit          3D

 27 27  0  0  1  0  0  0  0  0999 V2000
   16.2352   -9.3079  -16.8321 C   0  0  0  0  0  0  0  0  0  0  0  0
   16.0355  -10.6807  -16.2349 C   0  0  1  0  0  0  0  0  0  0  0  0
   14.8380  -11.3629  -16.8285 C   0  0  0  0  0  0  0  0  0  0  0  0
   17.2703  -11.5023  -16.1687 C   0  0  2  0  0  0  0  0  0  0  0  0
   16.9521  -12.7000  -15.3884 N   0  0  0  0  0  0  0  0  0  0  0  0
   18.4409  -10.8787  -15.5373 C   0  0  0  0  0  0  0  0  0  0  0  0
   18.5077  -10.7642  -14.2618 O   0  0  0  0  0  0  0  0  0  0  0  0
   23.9594  -11.5246  -17.1945 N   0  0  0  0  0  0  0  0  0  0  0  0
   23.3793  -12.2776  -16.1330 C   0  0  0  0  0  0  0  0  0  0  0  0
   23.8717  -13.3916  -15.8673 O   0  0  0  0  0  0  0  0  0  0  0  0
   22.2070  -11.7058  -15.3813 C   0  0  0  0  0  0  0  0  0  0  0  0
   21.9330  -10.3666  -15.9788 C   0  0  0  0  0  0  0  0  0  0  0  0
   20.6716   -9.7004  -15.5065 C   0  0  2  0  0  0  0  0  0  0  0  0
   19.5771  -10.3569  -16.2116 N   0  0  0  0  0  0  0  0  0  0  0  0
   20.7472   -8.2603  -15.7468 C   0  0  0  0  0  0  0  0  0  0  0  0
   20.2934   -7.6817  -16.7601 O   0  0  0  0  0  0  0  0  0  0  0  0
   21.3748   -7.4223  -14.7818 N   0  0  0  0  0  0  0  0  0  0  0  0
   21.3073   -5.9762  -14.8475 C   0  0  1  0  0  0  0  0  0  0  0  0
   19.8361   -5.6109  -14.8528 C   0  0  0  0  0  0  0  0  0  0  0  0
   19.6374   -4.1287  -14.8206 C   0  0  0  0  0  0  0  0  0  0  0  0
   20.6073   -3.1565  -14.7985 C   0  0  0  0  0  0  0  0  0  0  0  0
   19.9867   -1.9696  -14.7731 N   0  0  0  0  0  0  0  0  0  0  0  0
   18.6614   -2.1831  -14.7790 C   0  0  0  0  0  0  0  0  0  0  0  0
   18.4551   -3.5003  -14.8080 N   0  0  0  0  0  0  0  0  0  0  0  0
   22.0264   -5.3979  -13.7078 C   0  0  0  0  0  0  0  0  0  0  0  0
   21.9285   -5.9177  -12.5714 O   0  0  0  0  0  0  0  0  0  0  0  0
   22.8273   -4.2757  -13.8394 O   0  0  0  0  0  0  0  0  0  0  0  0
  2  4  1  0
  2  1  1  6
  3  2  1  0
  4  5  1  1
  6  4  1  0
  6  7  2  0
  9  8  1  0
  9 10  2  0
 11 12  1  0
 11  9  1  0
 13 12  1  6
 13 15  1  0
 13 14  1  0
 14  6  1  0
 15 17  1  0
 16 15  2  0
 17 18  1  0
 18 25  1  0
 18 19  1  1
 20 19  1  0
 21 20  2  0
 22 23  1  0
 22 21  1  0
 23 24  2  0
 24 20  1  0
 25 26  2  0
 25 27  1  0
M  END
$$$$
