VQH.pdb
     RDKit          3D

 27 27  0  0  1  0  0  0  0  0999 V2000
   27.0319  -18.2868  -16.2132 C   0  0  0  0  0  0  0  0  0  0  0  0
   27.6477  -19.5197  -16.8311 C   0  0  1  0  0  0  0  0  0  0  0  0
   28.7933  -19.1622  -17.7320 C   0  0  0  0  0  0  0  0  0  0  0  0
   27.9125  -20.6175  -15.8673 C   0  0  2  0  0  0  0  0  0  0  0  0
   28.2487  -21.8089  -16.6496 N   0  0  0  0  0  0  0  0  0  0  0  0
   26.8061  -20.9894  -14.9754 C   0  0  0  0  0  0  0  0  0  0  0  0
   25.7791  -21.6045  -15.4351 O   0  0  0  0  0  0  0  0  0  0  0  0
   26.7324  -20.1800   -8.9266 N   0  0  0  0  0  0  0  0  0  0  0  0
   25.4115  -20.7077   -9.0114 C   0  0  0  0  0  0  0  0  0  0  0  0
   24.7791  -20.8780   -7.9506 O   0  0  0  0  0  0  0  0  0  0  0  0
   24.8363  -21.0359  -10.3633 C   0  0  0  0  0  0  0  0  0  0  0  0
   25.9190  -20.7810  -11.3576 C   0  0  0  0  0  0  0  0  0  0  0  0
   25.5443  -21.0319  -12.7910 C   0  0  2  0  0  0  0  0  0  0  0  0
   26.7341  -20.7346  -13.5798 N   0  0  0  0  0  0  0  0  0  0  0  0
   24.3811  -20.2232  -13.1520 C   0  0  0  0  0  0  0  0  0  0  0  0
   24.4234  -19.0100  -13.4583 O   0  0  0  0  0  0  0  0  0  0  0  0
   23.0900  -20.8233  -13.1677 N   0  0  0  0  0  0  0  0  0  0  0  0
   21.9163  -20.1283  -13.6574 C   0  0  1  0  0  0  0  0  0  0  0  0
   22.1917  -19.7812  -15.1071 C   0  0  0  0  0  0  0  0  0  0  0  0
   21.0016  -19.1495  -15.7569 C   0  0  0  0  0  0  0  0  0  0  0  0
   19.7859  -18.8711  -15.1818 C   0  0  0  0  0  0  0  0  0  0  0  0
   19.0155  -18.3083  -16.1222 N   0  0  0  0  0  0  0  0  0  0  0  0
   19.7225  -18.2321  -17.2608 C   0  0  0  0  0  0  0  0  0  0  0  0
   20.9315  -18.7461  -17.0318 N   0  0  0  0  0  0  0  0  0  0  0  0
   20.7360  -20.9838  -13.4982 C   0  0  0  0  0  0  0  0  0  0  0  0
   19.6001  -20.5550  -13.8096 O   0  0  0  0  0  0  0  0  0  0  0  0
   20.8278  -22.2754  -13.0067 O   0  0  0  0  0  0  0  0  0  0  0  0
  2  4  1  0
  2  1  1  1
  3  2  1  0
  4  5  1  6
  6  4  1  0
  6  7  2  0
  9  8  1  0
  9 10  2  0
 11 12  1  0
 11  9  1  0
 13 12  1  1
 13 15  1  0
 13 14  1  0
 14  6  1  0
 15 17  1  0
 16 15  2  0
 17 18  1  0
 18 25  1  0
 18 19  1  6
 20 19  1  0
 21 20  2  0
 22 23  1  0
 22 21  1  0
 23 24  2  0
 24 20  1  0
 25 26  2  0
 25 27  1  0
M  END
$$$$
