VQH.pdb
     RDKit          3D

 27 27  0  0  1  0  0  0  0  0999 V2000
   29.0213  -18.6315  -17.2325 C   0  0  0  0  0  0  0  0  0  0  0  0
   27.7988  -19.2072  -16.5579 C   0  0  1  0  0  0  0  0  0  0  0  0
   26.6400  -19.2865  -17.5080 C   0  0  0  0  0  0  0  0  0  0  0  0
   28.0606  -20.4361  -15.7670 C   0  0  2  0  0  0  0  0  0  0  0  0
   28.4200  -21.4928  -16.7151 N   0  0  0  0  0  0  0  0  0  0  0  0
   26.9452  -20.9471  -14.9592 C   0  0  0  0  0  0  0  0  0  0  0  0
   26.1495  -21.8326  -15.4359 O   0  0  0  0  0  0  0  0  0  0  0  0
   26.1734  -20.1143   -8.9944 N   0  0  0  0  0  0  0  0  0  0  0  0
   24.8979  -20.7133   -9.2059 C   0  0  0  0  0  0  0  0  0  0  0  0
   24.1638  -20.8946   -8.2146 O   0  0  0  0  0  0  0  0  0  0  0  0
   24.4899  -21.1002  -10.6024 C   0  0  0  0  0  0  0  0  0  0  0  0
   25.6439  -20.7693  -11.4879 C   0  0  0  0  0  0  0  0  0  0  0  0
   25.4152  -21.0073  -12.9539 C   0  0  2  0  0  0  0  0  0  0  0  0
   26.6240  -20.5547  -13.6323 N   0  0  0  0  0  0  0  0  0  0  0  0
   24.2022  -20.3168  -13.3887 C   0  0  0  0  0  0  0  0  0  0  0  0
   24.0930  -19.0755  -13.5104 O   0  0  0  0  0  0  0  0  0  0  0  0
   23.0404  -21.0767  -13.7054 N   0  0  0  0  0  0  0  0  0  0  0  0
   21.7895  -20.4573  -14.0951 C   0  0  1  0  0  0  0  0  0  0  0  0
   21.3121  -21.1875  -15.3347 C   0  0  0  0  0  0  0  0  0  0  0  0
   20.0143  -20.6352  -15.8328 C   0  0  0  0  0  0  0  0  0  0  0  0
   19.3754  -19.4949  -15.4111 C   0  0  0  0  0  0  0  0  0  0  0  0
   18.2471  -19.3789  -16.1238 N   0  0  0  0  0  0  0  0  0  0  0  0
   18.1727  -20.4159  -16.9729 C   0  0  0  0  0  0  0  0  0  0  0  0
   19.2521  -21.1776  -16.7908 N   0  0  0  0  0  0  0  0  0  0  0  0
   20.8320  -20.5434  -12.9877 C   0  0  0  0  0  0  0  0  0  0  0  0
   20.8063  -21.5596  -12.2543 O   0  0  0  0  0  0  0  0  0  0  0  0
   19.9350  -19.5244  -12.7134 O   0  0  0  0  0  0  0  0  0  0  0  0
  2  4  1  0
  2  1  1  6
  3  2  1  0
  4  5  1  6
  6  4  1  0
  6  7  2  0
  9  8  1  0
  9 10  2  0
 11 12  1  0
 11  9  1  0
 13 12  1  1
 13 15  1  0
 13 14  1  0
 14  6  1  0
 15 17  1  0
 16 15  2  0
 17 18  1  0
 18 25  1  0
 18 19  1  6
 20 19  1  0
 21 20  2  0
 22 23  1  0
 22 21  1  0
 23 24  2  0
 24 20  1  0
 25 26  2  0
 25 27  1  0
M  END
$$$$
