VQH.pdb
     RDKit          3D

 27 27  0  0  1  0  0  0  0  0999 V2000
   14.6896  -11.5376  -15.9856 C   0  0  0  0  0  0  0  0  0  0  0  0
   15.3720  -12.8848  -15.9978 C   0  0  1  0  0  0  0  0  0  0  0  0
   14.8331  -13.7575  -17.0933 C   0  0  0  0  0  0  0  0  0  0  0  0
   16.8523  -12.8195  -15.9040 C   0  0  2  0  0  0  0  0  0  0  0  0
   17.3296  -14.1781  -15.6373 N   0  0  0  0  0  0  0  0  0  0  0  0
   17.4061  -11.9571  -14.8517 C   0  0  0  0  0  0  0  0  0  0  0  0
   17.3414  -12.3102  -13.6207 O   0  0  0  0  0  0  0  0  0  0  0  0
   21.6157   -7.7245  -15.6237 N   0  0  0  0  0  0  0  0  0  0  0  0
   21.4747   -7.5141  -14.2215 C   0  0  0  0  0  0  0  0  0  0  0  0
   22.2760   -6.7406  -13.6612 O   0  0  0  0  0  0  0  0  0  0  0  0
   20.3759   -8.2259  -13.4783 C   0  0  0  0  0  0  0  0  0  0  0  0
   19.6796   -9.0891  -14.4761 C   0  0  0  0  0  0  0  0  0  0  0  0
   18.5290   -9.8912  -13.9369 C   0  0  2  0  0  0  0  0  0  0  0  0
   18.0446  -10.7032  -15.0469 N   0  0  0  0  0  0  0  0  0  0  0  0
   17.5173   -8.9979  -13.3752 C   0  0  0  0  0  0  0  0  0  0  0  0
   16.7407   -8.2854  -14.0511 O   0  0  0  0  0  0  0  0  0  0  0  0
   17.3745   -8.9041  -11.9616 N   0  0  0  0  0  0  0  0  0  0  0  0
   16.3926   -8.0414  -11.3356 C   0  0  1  0  0  0  0  0  0  0  0  0
   16.3222   -8.4514   -9.8779 C   0  0  0  0  0  0  0  0  0  0  0  0
   15.3726   -7.5884   -9.1091 C   0  0  0  0  0  0  0  0  0  0  0  0
   14.6380   -6.5286   -9.5817 C   0  0  0  0  0  0  0  0  0  0  0  0
   13.9245   -6.0446   -8.5564 N   0  0  0  0  0  0  0  0  0  0  0  0
   14.1990   -6.7766   -7.4651 C   0  0  0  0  0  0  0  0  0  0  0  0
   15.0817   -7.7154   -7.8083 N   0  0  0  0  0  0  0  0  0  0  0  0
   16.7885   -6.6399  -11.5072 C   0  0  0  0  0  0  0  0  0  0  0  0
   17.9874   -6.3020  -11.3670 O   0  0  0  0  0  0  0  0  0  0  0  0
   15.8708   -5.6525  -11.8250 O   0  0  0  0  0  0  0  0  0  0  0  0
  2  4  1  0
  2  1  1  6
  3  2  1  0
  4  5  1  1
  6  4  1  0
  6  7  2  0
  9  8  1  0
  9 10  2  0
 11 12  1  0
 11  9  1  0
 13 12  1  6
 13 15  1  0
 13 14  1  0
 14  6  1  0
 15 17  1  0
 16 15  2  0
 17 18  1  0
 18 25  1  0
 18 19  1  1
 20 19  1  0
 21 20  2  0
 22 23  1  0
 22 21  1  0
 23 24  2  0
 24 20  1  0
 25 26  2  0
 25 27  1  0
M  END
$$$$
