VQH.pdb
     RDKit          3D

 27 27  0  0  1  0  0  0  0  0999 V2000
   15.3723  -14.6364  -13.5802 C   0  0  0  0  0  0  0  0  0  0  0  0
   15.5692  -13.1396  -13.6221 C   0  0  1  0  0  0  0  0  0  0  0  0
   15.4629  -12.6162  -15.0245 C   0  0  0  0  0  0  0  0  0  0  0  0
   14.7905  -12.3933  -12.6019 C   0  0  2  0  0  0  0  0  0  0  0  0
   13.3740  -12.6677  -12.8522 N   0  0  0  0  0  0  0  0  0  0  0  0
   14.9486  -10.9329  -12.5940 C   0  0  0  0  0  0  0  0  0  0  0  0
   14.3485  -10.2093  -13.4662 O   0  0  0  0  0  0  0  0  0  0  0  0
   15.5421   -6.6605   -8.3841 N   0  0  0  0  0  0  0  0  0  0  0  0
   14.3194   -6.9260   -9.0660 C   0  0  0  0  0  0  0  0  0  0  0  0
   13.2634   -6.4895   -8.5674 O   0  0  0  0  0  0  0  0  0  0  0  0
   14.3490   -7.7145  -10.3481 C   0  0  0  0  0  0  0  0  0  0  0  0
   15.7753   -8.0807  -10.5874 C   0  0  0  0  0  0  0  0  0  0  0  0
   16.0484   -8.7732  -11.8928 C   0  0  2  0  0  0  0  0  0  0  0  0
   15.7334  -10.1808  -11.6795 N   0  0  0  0  0  0  0  0  0  0  0  0
   17.4306   -8.5347  -12.3050 C   0  0  0  0  0  0  0  0  0  0  0  0
   18.4376   -8.7957  -11.6082 O   0  0  0  0  0  0  0  0  0  0  0  0
   17.6907   -7.9660  -13.5841 N   0  0  0  0  0  0  0  0  0  0  0  0
   19.0352   -7.7694  -14.0881 C   0  0  1  0  0  0  0  0  0  0  0  0
   18.9738   -7.9944  -15.5858 C   0  0  0  0  0  0  0  0  0  0  0  0
   20.2855   -7.6978  -16.2407 C   0  0  0  0  0  0  0  0  0  0  0  0
   21.4684   -7.3648  -15.6275 C   0  0  0  0  0  0  0  0  0  0  0  0
   22.3836   -7.1853  -16.5893 N   0  0  0  0  0  0  0  0  0  0  0  0
   21.7976   -7.3985  -17.7781 C   0  0  0  0  0  0  0  0  0  0  0  0
   20.5196   -7.7103  -17.5591 N   0  0  0  0  0  0  0  0  0  0  0  0
   19.4988   -6.4224  -13.7401 C   0  0  0  0  0  0  0  0  0  0  0  0
   20.7171   -6.2077  -13.5381 O   0  0  0  0  0  0  0  0  0  0  0  0
   18.6252   -5.3540  -13.6230 O   0  0  0  0  0  0  0  0  0  0  0  0
  2  4  1  0
  2  1  1  6
  3  2  1  0
  4  5  1  6
  6  4  1  0
  6  7  2  0
  9  8  1  0
  9 10  2  0
 11 12  1  0
 11  9  1  0
 13 12  1  1
 13 15  1  0
 13 14  1  0
 14  6  1  0
 15 17  1  0
 16 15  2  0
 17 18  1  0
 18 25  1  0
 18 19  1  6
 20 19  1  0
 21 20  2  0
 22 23  1  0
 22 21  1  0
 23 24  2  0
 24 20  1  0
 25 26  2  0
 25 27  1  0
M  END
$$$$
