VQH.pdb
     RDKit          3D

 27 27  0  0  1  0  0  0  0  0999 V2000
   23.6116  -11.3698  -15.9085 C   0  0  0  0  0  0  0  0  0  0  0  0
   23.5133  -12.1964  -17.1686 C   0  0  1  0  0  0  0  0  0  0  0  0
   24.7495  -13.0217  -17.3755 C   0  0  0  0  0  0  0  0  0  0  0  0
   22.2279  -12.9232  -17.3224 C   0  0  2  0  0  0  0  0  0  0  0  0
   22.2431  -13.5551  -18.6435 N   0  0  0  0  0  0  0  0  0  0  0  0
   21.0036  -12.1148  -17.2488 C   0  0  0  0  0  0  0  0  0  0  0  0
   20.6382  -11.3960  -18.2459 O   0  0  0  0  0  0  0  0  0  0  0  0
   15.8519  -13.4398  -14.8306 N   0  0  0  0  0  0  0  0  0  0  0  0
   15.4818  -12.0911  -15.1033 C   0  0  0  0  0  0  0  0  0  0  0  0
   14.2847  -11.7721  -14.9640 O   0  0  0  0  0  0  0  0  0  0  0  0
   16.5384  -11.1137  -15.5444 C   0  0  0  0  0  0  0  0  0  0  0  0
   17.8191  -11.8759  -15.6113 C   0  0  0  0  0  0  0  0  0  0  0  0
   19.0064  -11.0921  -16.0952 C   0  0  2  0  0  0  0  0  0  0  0  0
   20.1220  -12.0300  -16.1382 N   0  0  0  0  0  0  0  0  0  0  0  0
   19.2362   -9.9430  -15.2211 C   0  0  0  0  0  0  0  0  0  0  0  0
   19.8948   -9.9771  -14.1569 O   0  0  0  0  0  0  0  0  0  0  0  0
   18.6874   -8.6769  -15.5718 N   0  0  0  0  0  0  0  0  0  0  0  0
   19.1852   -7.4339  -15.0172 C   0  0  1  0  0  0  0  0  0  0  0  0
   20.6428   -7.3325  -15.4206 C   0  0  0  0  0  0  0  0  0  0  0  0
   21.2725   -6.0807  -14.8972 C   0  0  0  0  0  0  0  0  0  0  0  0
   21.8750   -5.8963  -13.6769 C   0  0  0  0  0  0  0  0  0  0  0  0
   22.2997   -4.6268  -13.6256 N   0  0  0  0  0  0  0  0  0  0  0  0
   21.9757   -4.0237  -14.7803 C   0  0  0  0  0  0  0  0  0  0  0  0
   21.3502   -4.9145  -15.5507 N   0  0  0  0  0  0  0  0  0  0  0  0
   18.3829   -6.3144  -15.5208 C   0  0  0  0  0  0  0  0  0  0  0  0
   17.8319   -6.3890  -16.6442 O   0  0  0  0  0  0  0  0  0  0  0  0
   18.2056   -5.1521  -14.7889 O   0  0  0  0  0  0  0  0  0  0  0  0
  2  4  1  0
  2  1  1  1
  3  2  1  0
  4  5  1  6
  6  4  1  0
  6  7  2  0
  9  8  1  0
  9 10  2  0
 11 12  1  0
 11  9  1  0
 13 12  1  1
 13 15  1  0
 13 14  1  0
 14  6  1  0
 15 17  1  0
 16 15  2  0
 17 18  1  0
 18 25  1  0
 18 19  1  6
 20 19  1  0
 21 20  2  0
 22 23  1  0
 22 21  1  0
 23 24  2  0
 24 20  1  0
 25 26  2  0
 25 27  1  0
M  END
$$$$
