VQH.pdb
     RDKit          3D

 27 27  0  0  1  0  0  0  0  0999 V2000
   14.6709  -11.9110  -14.2485 C   0  0  0  0  0  0  0  0  0  0  0  0
   15.4249  -11.7273  -15.5441 C   0  0  1  0  0  0  0  0  0  0  0  0
   14.9642  -10.4985  -16.2720 C   0  0  0  0  0  0  0  0  0  0  0  0
   16.8964  -11.8815  -15.4204 C   0  0  2  0  0  0  0  0  0  0  0  0
   17.1514  -13.2483  -14.9607 N   0  0  0  0  0  0  0  0  0  0  0  0
   17.5742  -10.9799  -14.4794 C   0  0  0  0  0  0  0  0  0  0  0  0
   17.6385  -11.2709  -13.2321 O   0  0  0  0  0  0  0  0  0  0  0  0
   20.9740   -6.1648  -15.9904 N   0  0  0  0  0  0  0  0  0  0  0  0
   21.1187   -6.0012  -14.5823 C   0  0  0  0  0  0  0  0  0  0  0  0
   21.7873   -5.0330  -14.1703 O   0  0  0  0  0  0  0  0  0  0  0  0
   20.4661   -6.9925  -13.6562 C   0  0  0  0  0  0  0  0  0  0  0  0
   19.7187   -7.9515  -14.5206 C   0  0  0  0  0  0  0  0  0  0  0  0
   18.7818   -8.8738  -13.7928 C   0  0  2  0  0  0  0  0  0  0  0  0
   18.2064   -9.7504  -14.8059 N   0  0  0  0  0  0  0  0  0  0  0  0
   17.7887   -8.0958  -13.0542 C   0  0  0  0  0  0  0  0  0  0  0  0
   16.6540   -7.7927  -13.4879 O   0  0  0  0  0  0  0  0  0  0  0  0
   18.0974   -7.6316  -11.7440 N   0  0  0  0  0  0  0  0  0  0  0  0
   17.1208   -6.9653  -10.9057 C   0  0  1  0  0  0  0  0  0  0  0  0
   15.9799   -7.9437  -10.7082 C   0  0  0  0  0  0  0  0  0  0  0  0
   14.9609   -7.4140   -9.7499 C   0  0  0  0  0  0  0  0  0  0  0  0
   14.3079   -6.2072   -9.8081 C   0  0  0  0  0  0  0  0  0  0  0  0
   13.4855   -6.1434   -8.7526 N   0  0  0  0  0  0  0  0  0  0  0  0
   13.6134   -7.2772   -8.0454 C   0  0  0  0  0  0  0  0  0  0  0  0
   14.5136   -8.0471   -8.6580 N   0  0  0  0  0  0  0  0  0  0  0  0
   17.7474   -6.5689   -9.6405 C   0  0  0  0  0  0  0  0  0  0  0  0
   18.8299   -7.0899   -9.2829 O   0  0  0  0  0  0  0  0  0  0  0  0
   17.1785   -5.6210   -8.8062 O   0  0  0  0  0  0  0  0  0  0  0  0
  2  4  1  0
  2  1  1  1
  3  2  1  0
  4  5  1  1
  6  4  1  0
  6  7  2  0
  9  8  1  0
  9 10  2  0
 11 12  1  0
 11  9  1  0
 13 12  1  6
 13 15  1  0
 13 14  1  0
 14  6  1  0
 15 17  1  0
 16 15  2  0
 17 18  1  0
 18 25  1  0
 18 19  1  1
 20 19  1  0
 21 20  2  0
 22 23  1  0
 22 21  1  0
 23 24  2  0
 24 20  1  0
 25 26  2  0
 25 27  1  0
M  END
$$$$
