AAC.pdb
     RDKit          3D

 17 16  0  0  1  0  0  0  0  0999 V2000
   22.8483  -33.6601   -8.0283 C   0  0  0  0  0  0  0  0  0  0  0  0
   23.8574  -32.5939   -8.2975 C   0  0  2  0  0  0  0  0  0  0  0  0
   24.2228  -32.4429   -9.6680 N   0  0  0  0  0  0  0  0  0  0  0  0
   25.0612  -32.7970   -7.4155 C   0  0  0  0  0  0  0  0  0  0  0  0
   26.0613  -33.3981   -7.8855 O   0  0  0  0  0  0  0  0  0  0  0  0
   26.2363  -31.7952   -3.9781 C   0  0  0  0  0  0  0  0  0  0  0  0
   26.2537  -32.6252   -5.2372 C   0  0  2  0  0  0  0  0  0  0  0  0
   25.1207  -32.3464   -6.0908 N   0  0  0  0  0  0  0  0  0  0  0  0
   26.3109  -34.0747   -4.9586 C   0  0  0  0  0  0  0  0  0  0  0  0
   25.2305  -34.7223   -5.0192 O   0  0  0  0  0  0  0  0  0  0  0  0
   27.4736  -34.7833   -4.6325 N   0  0  0  0  0  0  0  0  0  0  0  0
   27.3660  -36.1702   -4.2470 C   0  0  1  0  0  0  0  0  0  0  0  0
   28.7388  -36.7946   -4.4825 C   0  0  0  0  0  0  0  0  0  0  0  0
   29.3074  -36.4792   -6.1594 S   0  0  0  0  0  0  0  0  0  0  0  0
   26.9413  -36.3329   -2.8365 C   0  0  0  0  0  0  0  0  0  0  0  0
   26.7918  -35.3776   -2.0329 O   0  0  0  0  0  0  0  0  0  0  0  0
   26.6901  -37.6114   -2.3601 O   0  0  0  0  0  0  0  0  0  0  0  0
  2  1  1  6
  2  3  1  0
  4  5  2  0
  4  2  1  0
  7  6  1  1
  7  8  1  0
  8  4  1  0
  9  7  1  0
 10  9  2  0
 11  9  1  0
 12 15  1  0
 12 11  1  0
 12 13  1  1
 14 13  1  0
 15 17  1  0
 16 15  2  0
M  END
$$$$
