AAC.pdb
     RDKit          3D

 17 16  0  0  1  0  0  0  0  0999 V2000
   28.7764  -22.7892  -16.2173 C   0  0  0  0  0  0  0  0  0  0  0  0
   27.3445  -22.9180  -16.6182 C   0  0  2  0  0  0  0  0  0  0  0  0
   27.1181  -23.0021  -18.0241 N   0  0  0  0  0  0  0  0  0  0  0  0
   26.5369  -21.8155  -15.9853 C   0  0  0  0  0  0  0  0  0  0  0  0
   26.5312  -21.7128  -14.7316 O   0  0  0  0  0  0  0  0  0  0  0  0
   24.6930  -18.7181  -17.0003 C   0  0  0  0  0  0  0  0  0  0  0  0
   24.9539  -19.8977  -16.0975 C   0  0  2  0  0  0  0  0  0  0  0  0
   25.7884  -20.8949  -16.7294 N   0  0  0  0  0  0  0  0  0  0  0  0
   23.7079  -20.5329  -15.6221 C   0  0  0  0  0  0  0  0  0  0  0  0
   23.2560  -21.5013  -16.2917 O   0  0  0  0  0  0  0  0  0  0  0  0
   22.9914  -20.1409  -14.4848 N   0  0  0  0  0  0  0  0  0  0  0  0
   21.7868  -20.8544  -14.1334 C   0  0  1  0  0  0  0  0  0  0  0  0
   21.8284  -21.0592  -12.6213 C   0  0  0  0  0  0  0  0  0  0  0  0
   20.3609  -21.9291  -12.0516 S   0  0  0  0  0  0  0  0  0  0  0  0
   20.5609  -20.1271  -14.5391 C   0  0  0  0  0  0  0  0  0  0  0  0
   20.4902  -18.8769  -14.6515 O   0  0  0  0  0  0  0  0  0  0  0  0
   19.4139  -20.8573  -14.8147 O   0  0  0  0  0  0  0  0  0  0  0  0
  2  1  1  6
  2  3  1  0
  4  5  2  0
  4  2  1  0
  7  6  1  6
  7  8  1  0
  8  4  1  0
  9  7  1  0
 10  9  2  0
 11  9  1  0
 12 15  1  0
 12 11  1  0
 12 13  1  1
 14 13  1  0
 15 17  1  0
 16 15  2  0
M  END
$$$$
