AAC.pdb
     RDKit          3D

 17 16  0  0  1  0  0  0  0  0999 V2000
   19.3282  -14.5784  -17.1143 C   0  0  0  0  0  0  0  0  0  0  0  0
   19.8386  -13.3566  -17.8031 C   0  0  2  0  0  0  0  0  0  0  0  0
   20.8448  -13.5952  -18.7856 N   0  0  0  0  0  0  0  0  0  0  0  0
   20.2821  -12.3431  -16.7812 C   0  0  0  0  0  0  0  0  0  0  0  0
   19.4761  -12.0025  -15.8774 O   0  0  0  0  0  0  0  0  0  0  0  0
   23.4454  -10.6539  -15.6858 C   0  0  0  0  0  0  0  0  0  0  0  0
   21.9468  -10.7638  -15.8164 C   0  0  2  0  0  0  0  0  0  0  0  0
   21.5549  -11.7589  -16.7890 N   0  0  0  0  0  0  0  0  0  0  0  0
   21.3121   -9.4734  -16.1542 C   0  0  0  0  0  0  0  0  0  0  0  0
   21.2233   -9.1704  -17.3751 O   0  0  0  0  0  0  0  0  0  0  0  0
   20.8021   -8.5622  -15.2216 N   0  0  0  0  0  0  0  0  0  0  0  0
   20.1792   -7.3487  -15.6937 C   0  0  1  0  0  0  0  0  0  0  0  0
   18.7366   -7.3784  -15.1957 C   0  0  0  0  0  0  0  0  0  0  0  0
   17.8716   -8.8252  -15.8227 S   0  0  0  0  0  0  0  0  0  0  0  0
   20.8813   -6.1324  -15.2205 C   0  0  0  0  0  0  0  0  0  0  0  0
   21.8655   -6.1485  -14.4384 O   0  0  0  0  0  0  0  0  0  0  0  0
   20.4366   -4.8936  -15.6592 O   0  0  0  0  0  0  0  0  0  0  0  0
  2  1  1  1
  2  3  1  0
  4  5  2  0
  4  2  1  0
  7  6  1  6
  7  8  1  0
  8  4  1  0
  9  7  1  0
 10  9  2  0
 11  9  1  0
 12 15  1  0
 12 11  1  0
 12 13  1  1
 14 13  1  0
 15 17  1  0
 16 15  2  0
M  END
$$$$
