AAC.pdb
     RDKit          3D

 17 16  0  0  1  0  0  0  0  0999 V2000
   17.1134  -10.7987  -14.3152 C   0  0  0  0  0  0  0  0  0  0  0  0
   17.1516  -10.6964  -15.8037 C   0  0  2  0  0  0  0  0  0  0  0  0
   17.3189  -11.9365  -16.4883 N   0  0  0  0  0  0  0  0  0  0  0  0
   18.1857   -9.6830  -16.2186 C   0  0  0  0  0  0  0  0  0  0  0  0
   19.4027   -9.9881  -16.1273 O   0  0  0  0  0  0  0  0  0  0  0  0
   18.3599   -6.5642  -18.2350 C   0  0  0  0  0  0  0  0  0  0  0  0
   18.8644   -7.4735  -17.1425 C   0  0  2  0  0  0  0  0  0  0  0  0
   17.8556   -8.4113  -16.7034 N   0  0  0  0  0  0  0  0  0  0  0  0
   19.3780   -6.7262  -15.9765 C   0  0  0  0  0  0  0  0  0  0  0  0
   18.5505   -6.4048  -15.0806 O   0  0  0  0  0  0  0  0  0  0  0  0
   20.7133   -6.3482  -15.7910 N   0  0  0  0  0  0  0  0  0  0  0  0
   21.0812   -5.6358  -14.5908 C   0  0  1  0  0  0  0  0  0  0  0  0
   22.3735   -6.2726  -14.0862 C   0  0  0  0  0  0  0  0  0  0  0  0
   22.0682   -7.9292  -13.4560 S   0  0  0  0  0  0  0  0  0  0  0  0
   21.2598   -4.1839  -14.8281 C   0  0  0  0  0  0  0  0  0  0  0  0
   21.3913   -3.3330  -13.9119 O   0  0  0  0  0  0  0  0  0  0  0  0
   21.2855   -3.7211  -16.1357 O   0  0  0  0  0  0  0  0  0  0  0  0
  2  1  1  1
  2  3  1  0
  4  5  2  0
  4  2  1  0
  7  6  1  6
  7  8  1  0
  8  4  1  0
  9  7  1  0
 10  9  2  0
 11  9  1  0
 12 15  1  0
 12 11  1  0
 12 13  1  6
 14 13  1  0
 15 17  1  0
 16 15  2  0
M  END
$$$$
