AAC.pdb
     RDKit          3D

 17 16  0  0  1  0  0  0  0  0999 V2000
   18.7754  -10.7903  -19.0293 C   0  0  0  0  0  0  0  0  0  0  0  0
   18.2520  -11.0482  -17.6556 C   0  0  2  0  0  0  0  0  0  0  0  0
   16.8980  -10.6531  -17.4431 N   0  0  0  0  0  0  0  0  0  0  0  0
   19.1794  -10.4429  -16.6348 C   0  0  0  0  0  0  0  0  0  0  0  0
   18.7695  -10.3004  -15.4541 O   0  0  0  0  0  0  0  0  0  0  0  0
   22.8190   -9.5547  -16.3672 C   0  0  0  0  0  0  0  0  0  0  0  0
   21.3768   -9.5111  -15.9280 C   0  0  2  0  0  0  0  0  0  0  0  0
   20.4824  -10.0290  -16.9388 N   0  0  0  0  0  0  0  0  0  0  0  0
   20.9438   -8.1528  -15.5415 C   0  0  0  0  0  0  0  0  0  0  0  0
   20.3094   -7.4784  -16.3978 O   0  0  0  0  0  0  0  0  0  0  0  0
   21.1844   -7.5582  -14.2970 N   0  0  0  0  0  0  0  0  0  0  0  0
   20.7986   -6.1828  -14.0896 C   0  0  1  0  0  0  0  0  0  0  0  0
   19.4117   -6.2117  -13.4527 C   0  0  0  0  0  0  0  0  0  0  0  0
   19.4466   -7.0830  -11.8797 S   0  0  0  0  0  0  0  0  0  0  0  0
   21.7619   -5.4486  -13.2356 C   0  0  0  0  0  0  0  0  0  0  0  0
   22.7941   -5.9648  -12.7367 O   0  0  0  0  0  0  0  0  0  0  0  0
   21.5232   -4.1097  -12.9617 O   0  0  0  0  0  0  0  0  0  0  0  0
  2  1  1  6
  2  3  1  0
  4  5  2  0
  4  2  1  0
  7  6  1  6
  7  8  1  0
  8  4  1  0
  9  7  1  0
 10  9  2  0
 11  9  1  0
 12 15  1  0
 12 11  1  0
 12 13  1  1
 14 13  1  0
 15 17  1  0
 16 15  2  0
M  END
$$$$
