AAC.pdb
     RDKit          3D

 17 16  0  0  1  0  0  0  0  0999 V2000
   16.2434  -13.3801  -16.2054 C   0  0  0  0  0  0  0  0  0  0  0  0
   17.7050  -13.6716  -16.2855 C   0  0  2  0  0  0  0  0  0  0  0  0
   18.1289  -14.8272  -15.5646 N   0  0  0  0  0  0  0  0  0  0  0  0
   18.4911  -12.4478  -15.8951 C   0  0  0  0  0  0  0  0  0  0  0  0
   18.2568  -11.9071  -14.7837 O   0  0  0  0  0  0  0  0  0  0  0  0
   21.5100  -10.5565  -17.0596 C   0  0  0  0  0  0  0  0  0  0  0  0
   20.1961  -10.6872  -16.3306 C   0  0  2  0  0  0  0  0  0  0  0  0
   19.4751  -11.8801  -16.7142 N   0  0  0  0  0  0  0  0  0  0  0  0
   19.3256   -9.5085  -16.5175 C   0  0  0  0  0  0  0  0  0  0  0  0
   18.4811   -9.5511  -17.4531 O   0  0  0  0  0  0  0  0  0  0  0  0
   19.3676   -8.3484  -15.7348 N   0  0  0  0  0  0  0  0  0  0  0  0
   18.5153   -7.2362  -16.0813 C   0  0  1  0  0  0  0  0  0  0  0  0
   17.9851   -6.6690  -14.7670 C   0  0  0  0  0  0  0  0  0  0  0  0
   16.8634   -7.8298  -13.9739 S   0  0  0  0  0  0  0  0  0  0  0  0
   19.2303   -6.1978  -16.8600 C   0  0  0  0  0  0  0  0  0  0  0  0
   20.4595   -6.2372  -17.1212 O   0  0  0  0  0  0  0  0  0  0  0  0
   18.5125   -5.1102  -17.3360 O   0  0  0  0  0  0  0  0  0  0  0  0
  2  1  1  1
  2  3  1  0
  4  5  2  0
  4  2  1  0
  7  6  1  6
  7  8  1  0
  8  4  1  0
  9  7  1  0
 10  9  2  0
 11  9  1  0
 12 15  1  0
 12 11  1  0
 12 13  1  1
 14 13  1  0
 15 17  1  0
 16 15  2  0
M  END
$$$$
