AAC.pdb
     RDKit          3D

 17 16  0  0  1  0  0  0  0  0999 V2000
   19.7167  -14.1097  -16.9680 C   0  0  0  0  0  0  0  0  0  0  0  0
   19.5605  -13.0772  -15.9017 C   0  0  2  0  0  0  0  0  0  0  0  0
   18.3187  -13.1184  -15.2010 N   0  0  0  0  0  0  0  0  0  0  0  0
   19.8380  -11.7106  -16.4707 C   0  0  0  0  0  0  0  0  0  0  0  0
   20.9731  -11.4783  -16.9608 O   0  0  0  0  0  0  0  0  0  0  0  0
   17.9432   -8.7268  -17.6199 C   0  0  0  0  0  0  0  0  0  0  0  0
   19.1741   -9.3810  -17.0438 C   0  0  2  0  0  0  0  0  0  0  0  0
   18.8883  -10.6814  -16.4804 N   0  0  0  0  0  0  0  0  0  0  0  0
   19.8368   -8.5416  -16.0250 C   0  0  0  0  0  0  0  0  0  0  0  0
   19.6141   -8.8119  -14.8135 O   0  0  0  0  0  0  0  0  0  0  0  0
   20.6929   -7.4691  -16.3028 N   0  0  0  0  0  0  0  0  0  0  0  0
   21.2797   -6.7367  -15.2062 C   0  0  1  0  0  0  0  0  0  0  0  0
   22.5918   -6.1542  -15.7252 C   0  0  0  0  0  0  0  0  0  0  0  0
   23.3480   -5.0817  -14.4952 S   0  0  0  0  0  0  0  0  0  0  0  0
   20.3866   -5.6687  -14.6982 C   0  0  0  0  0  0  0  0  0  0  0  0
   19.6555   -4.9560  -15.4318 O   0  0  0  0  0  0  0  0  0  0  0  0
   20.3444   -5.4297  -13.3323 O   0  0  0  0  0  0  0  0  0  0  0  0
  2  1  1  6
  2  3  1  0
  4  5  2  0
  4  2  1  0
  7  6  1  1
  7  8  1  0
  8  4  1  0
  9  7  1  0
 10  9  2  0
 11  9  1  0
 12 15  1  0
 12 11  1  0
 12 13  1  6
 14 13  1  0
 15 17  1  0
 16 15  2  0
M  END
$$$$
