AAC.pdb
     RDKit          3D

 17 16  0  0  1  0  0  0  0  0999 V2000
   13.9943  -14.3995  -14.0179 C   0  0  0  0  0  0  0  0  0  0  0  0
   15.3213  -14.6181  -14.6649 C   0  0  2  0  0  0  0  0  0  0  0  0
   15.9657  -15.8427  -14.3185 N   0  0  0  0  0  0  0  0  0  0  0  0
   16.2106  -13.4277  -14.4192 C   0  0  0  0  0  0  0  0  0  0  0  0
   16.6563  -13.2346  -13.2588 O   0  0  0  0  0  0  0  0  0  0  0  0
   18.1227  -10.9363  -16.4643 C   0  0  0  0  0  0  0  0  0  0  0  0
   17.4960  -11.4395  -15.1881 C   0  0  2  0  0  0  0  0  0  0  0  0
   16.5667  -12.5212  -15.4256 N   0  0  0  0  0  0  0  0  0  0  0  0
   16.8165  -10.3686  -14.4309 C   0  0  0  0  0  0  0  0  0  0  0  0
   15.5571  -10.4042  -14.3751 O   0  0  0  0  0  0  0  0  0  0  0  0
   17.4649   -9.3177  -13.7710 N   0  0  0  0  0  0  0  0  0  0  0  0
   16.6724   -8.2995  -13.1238 C   0  0  1  0  0  0  0  0  0  0  0  0
   16.2113   -8.8880  -11.7930 C   0  0  0  0  0  0  0  0  0  0  0  0
   17.5899   -9.0416  -10.6481 S   0  0  0  0  0  0  0  0  0  0  0  0
   17.4284   -7.0418  -12.9170 C   0  0  0  0  0  0  0  0  0  0  0  0
   16.9303   -5.9939  -12.4328 O   0  0  0  0  0  0  0  0  0  0  0  0
   18.7683   -7.0038  -13.2748 O   0  0  0  0  0  0  0  0  0  0  0  0
  2  1  1  1
  2  3  1  0
  4  5  2  0
  4  2  1  0
  7  6  1  6
  7  8  1  0
  8  4  1  0
  9  7  1  0
 10  9  2  0
 11  9  1  0
 12 15  1  0
 12 11  1  0
 12 13  1  1
 14 13  1  0
 15 17  1  0
 16 15  2  0
M  END
$$$$
