AAC.pdb
     RDKit          3D

 17 16  0  0  1  0  0  0  0  0999 V2000
   27.9031  -34.8717  -10.3459 C   0  0  0  0  0  0  0  0  0  0  0  0
   26.5484  -34.2664  -10.1845 C   0  0  2  0  0  0  0  0  0  0  0  0
   26.0197  -33.6522  -11.3584 N   0  0  0  0  0  0  0  0  0  0  0  0
   26.5478  -33.3239   -9.0098 C   0  0  0  0  0  0  0  0  0  0  0  0
   27.5328  -32.5584   -8.8477 O   0  0  0  0  0  0  0  0  0  0  0  0
   24.1598  -31.7641   -6.6755 C   0  0  0  0  0  0  0  0  0  0  0  0
   25.5209  -32.3462   -6.9639 C   0  0  2  0  0  0  0  0  0  0  0  0
   25.4982  -33.2587   -8.0850 N   0  0  0  0  0  0  0  0  0  0  0  0
   26.1051  -33.0276   -5.7907 C   0  0  0  0  0  0  0  0  0  0  0  0
   26.2584  -32.3481   -4.7394 O   0  0  0  0  0  0  0  0  0  0  0  0
   26.5010  -34.3702   -5.7580 N   0  0  0  0  0  0  0  0  0  0  0  0
   27.0762  -34.9033   -4.5462 C   0  0  1  0  0  0  0  0  0  0  0  0
   25.9728  -35.7004   -3.8553 C   0  0  0  0  0  0  0  0  0  0  0  0
   26.6080  -36.5468   -2.4011 S   0  0  0  0  0  0  0  0  0  0  0  0
   28.2618  -35.7525   -4.8098 C   0  0  0  0  0  0  0  0  0  0  0  0
   29.1009  -36.0798   -3.9326 O   0  0  0  0  0  0  0  0  0  0  0  0
   28.4712  -36.2222   -6.0983 O   0  0  0  0  0  0  0  0  0  0  0  0
  2  1  1  6
  2  3  1  0
  4  5  2  0
  4  2  1  0
  7  6  1  1
  7  8  1  0
  8  4  1  0
  9  7  1  0
 10  9  2  0
 11  9  1  0
 12 15  1  0
 12 11  1  0
 12 13  1  6
 14 13  1  0
 15 17  1  0
 16 15  2  0
M  END
$$$$
