AAC.pdb
     RDKit          3D

 17 16  0  0  1  0  0  0  0  0999 V2000
   17.7620  -11.5026  -17.5519 C   0  0  0  0  0  0  0  0  0  0  0  0
   18.2705  -10.9942  -16.2440 C   0  0  2  0  0  0  0  0  0  0  0  0
   17.4850  -11.3577  -15.1102 N   0  0  0  0  0  0  0  0  0  0  0  0
   18.4841   -9.5055  -16.3241 C   0  0  0  0  0  0  0  0  0  0  0  0
   19.4196   -9.0660  -17.0412 O   0  0  0  0  0  0  0  0  0  0  0  0
   16.5508   -6.4133  -15.5157 C   0  0  0  0  0  0  0  0  0  0  0  0
   17.8251   -7.1567  -15.8289 C   0  0  2  0  0  0  0  0  0  0  0  0
   17.6872   -8.5826  -15.6350 N   0  0  0  0  0  0  0  0  0  0  0  0
   18.9748   -6.6652  -15.0422 C   0  0  0  0  0  0  0  0  0  0  0  0
   19.1015   -7.0975  -13.8643 O   0  0  0  0  0  0  0  0  0  0  0  0
   19.9337   -5.7563  -15.5056 N   0  0  0  0  0  0  0  0  0  0  0  0
   21.0118   -5.3651  -14.6292 C   0  0  1  0  0  0  0  0  0  0  0  0
   22.3093   -5.7078  -15.3565 C   0  0  0  0  0  0  0  0  0  0  0  0
   23.7274   -5.0027  -14.5041 S   0  0  0  0  0  0  0  0  0  0  0  0
   20.9611   -3.9260  -14.2791 C   0  0  0  0  0  0  0  0  0  0  0  0
   21.3946   -3.4497  -13.1993 O   0  0  0  0  0  0  0  0  0  0  0  0
   20.4043   -3.0386  -15.1886 O   0  0  0  0  0  0  0  0  0  0  0  0
  2  1  1  6
  2  3  1  0
  4  5  2  0
  4  2  1  0
  7  6  1  1
  7  8  1  0
  8  4  1  0
  9  7  1  0
 10  9  2  0
 11  9  1  0
 12 15  1  0
 12 11  1  0
 12 13  1  6
 14 13  1  0
 15 17  1  0
 16 15  2  0
M  END
$$$$
