AAC.pdb
     RDKit          3D

 17 16  0  0  1  0  0  0  0  0999 V2000
   19.9130  -12.8670  -18.6725 C   0  0  0  0  0  0  0  0  0  0  0  0
   19.2094  -11.8069  -17.8925 C   0  0  2  0  0  0  0  0  0  0  0  0
   18.0322  -11.2875  -18.5082 N   0  0  0  0  0  0  0  0  0  0  0  0
   20.1794  -10.7144  -17.5268 C   0  0  0  0  0  0  0  0  0  0  0  0
   21.1976  -11.0108  -16.8501 O   0  0  0  0  0  0  0  0  0  0  0  0
   21.0718   -7.2935  -18.6274 C   0  0  0  0  0  0  0  0  0  0  0  0
   20.9550   -8.3493  -17.5567 C   0  0  2  0  0  0  0  0  0  0  0  0
   20.0013   -9.3780  -17.9060 N   0  0  0  0  0  0  0  0  0  0  0  0
   20.6019   -7.7823  -16.2392 C   0  0  0  0  0  0  0  0  0  0  0  0
   19.3765   -7.6699  -15.9632 O   0  0  0  0  0  0  0  0  0  0  0  0
   21.5247   -7.3607  -15.2743 N   0  0  0  0  0  0  0  0  0  0  0  0
   21.0392   -6.8070  -14.0328 C   0  0  1  0  0  0  0  0  0  0  0  0
   21.2796   -7.8667  -12.9608 C   0  0  0  0  0  0  0  0  0  0  0  0
   20.8288   -7.2466  -11.3338 S   0  0  0  0  0  0  0  0  0  0  0  0
   21.7095   -5.5327  -13.6822 C   0  0  0  0  0  0  0  0  0  0  0  0
   22.9182   -5.2849  -13.9236 O   0  0  0  0  0  0  0  0  0  0  0  0
   20.9707   -4.5439  -13.0489 O   0  0  0  0  0  0  0  0  0  0  0  0
  2  1  1  6
  2  3  1  0
  4  5  2  0
  4  2  1  0
  7  6  1  6
  7  8  1  0
  8  4  1  0
  9  7  1  0
 10  9  2  0
 11  9  1  0
 12 15  1  0
 12 11  1  0
 12 13  1  1
 14 13  1  0
 15 17  1  0
 16 15  2  0
M  END
$$$$
