AAC.pdb
     RDKit          3D

 17 16  0  0  1  0  0  0  0  0999 V2000
   18.2404  -12.4733  -16.5904 C   0  0  0  0  0  0  0  0  0  0  0  0
   18.0648  -11.4550  -15.5135 C   0  0  2  0  0  0  0  0  0  0  0  0
   16.7703  -11.4288  -14.9149 N   0  0  0  0  0  0  0  0  0  0  0  0
   18.4743  -10.0982  -16.0231 C   0  0  0  0  0  0  0  0  0  0  0  0
   19.6578   -9.9311  -16.4153 O   0  0  0  0  0  0  0  0  0  0  0  0
   16.8273   -6.9359  -17.1417 C   0  0  0  0  0  0  0  0  0  0  0  0
   17.9992   -7.7286  -16.6192 C   0  0  2  0  0  0  0  0  0  0  0  0
   17.5964   -9.0087  -16.0815 N   0  0  0  0  0  0  0  0  0  0  0  0
   18.7715   -6.9908  -15.5988 C   0  0  0  0  0  0  0  0  0  0  0  0
   18.4081   -7.1075  -14.3968 O   0  0  0  0  0  0  0  0  0  0  0  0
   19.8757   -6.1724  -15.8655 N   0  0  0  0  0  0  0  0  0  0  0  0
   20.4677   -5.4182  -14.7865 C   0  0  1  0  0  0  0  0  0  0  0  0
   21.8408   -6.0332  -14.5285 C   0  0  0  0  0  0  0  0  0  0  0  0
   22.7393   -5.0961  -13.2838 S   0  0  0  0  0  0  0  0  0  0  0  0
   20.5811   -3.9747  -15.1020 C   0  0  0  0  0  0  0  0  0  0  0  0
   20.9057   -3.5254  -16.2305 O   0  0  0  0  0  0  0  0  0  0  0  0
   20.3160   -3.0514  -14.1011 O   0  0  0  0  0  0  0  0  0  0  0  0
  2  1  1  6
  2  3  1  0
  4  5  2  0
  4  2  1  0
  7  6  1  1
  7  8  1  0
  8  4  1  0
  9  7  1  0
 10  9  2  0
 11  9  1  0
 12 15  1  0
 12 11  1  0
 12 13  1  6
 14 13  1  0
 15 17  1  0
 16 15  2  0
M  END
$$$$
