AAC.pdb
     RDKit          3D

 17 16  0  0  1  0  0  0  0  0999 V2000
   18.6679  -11.7188  -14.6199 C   0  0  0  0  0  0  0  0  0  0  0  0
   18.0615  -11.3101  -15.9210 C   0  0  2  0  0  0  0  0  0  0  0  0
   18.3700  -12.1617  -17.0230 N   0  0  0  0  0  0  0  0  0  0  0  0
   18.4004   -9.8718  -16.2119 C   0  0  0  0  0  0  0  0  0  0  0  0
   19.5767   -9.5844  -16.5530 O   0  0  0  0  0  0  0  0  0  0  0  0
   16.5382   -6.6643  -16.7882 C   0  0  0  0  0  0  0  0  0  0  0  0
   17.7778   -7.4821  -16.5247 C   0  0  2  0  0  0  0  0  0  0  0  0
   17.4643   -8.8342  -16.1204 N   0  0  0  0  0  0  0  0  0  0  0  0
   18.6607   -6.8623  -15.5156 C   0  0  0  0  0  0  0  0  0  0  0  0
   18.4626   -7.1614  -14.3066 O   0  0  0  0  0  0  0  0  0  0  0  0
   19.7000   -5.9684  -15.8001 N   0  0  0  0  0  0  0  0  0  0  0  0
   20.4356   -5.3763  -14.7083 C   0  0  1  0  0  0  0  0  0  0  0  0
   21.8415   -5.9686  -14.7596 C   0  0  0  0  0  0  0  0  0  0  0  0
   22.9290   -5.1406  -13.5906 S   0  0  0  0  0  0  0  0  0  0  0  0
   20.4771   -3.8972  -14.7916 C   0  0  0  0  0  0  0  0  0  0  0  0
   20.5330   -3.2555  -15.8713 O   0  0  0  0  0  0  0  0  0  0  0  0
   20.4533   -3.1630  -13.6147 O   0  0  0  0  0  0  0  0  0  0  0  0
  2  1  1  1
  2  3  1  0
  4  5  2  0
  4  2  1  0
  7  6  1  1
  7  8  1  0
  8  4  1  0
  9  7  1  0
 10  9  2  0
 11  9  1  0
 12 15  1  0
 12 11  1  0
 12 13  1  6
 14 13  1  0
 15 17  1  0
 16 15  2  0
M  END
$$$$
