AAC.pdb
     RDKit          3D

 17 16  0  0  1  0  0  0  0  0999 V2000
   24.4269  -25.1809  -14.9957 C   0  0  0  0  0  0  0  0  0  0  0  0
   23.0637  -24.7517  -14.5657 C   0  0  2  0  0  0  0  0  0  0  0  0
   21.9926  -25.2748  -15.3492 N   0  0  0  0  0  0  0  0  0  0  0  0
   23.0081  -23.2496  -14.4719 C   0  0  0  0  0  0  0  0  0  0  0  0
   23.4146  -22.5669  -15.4471 O   0  0  0  0  0  0  0  0  0  0  0  0
   21.3697  -20.6574  -12.3401 C   0  0  0  0  0  0  0  0  0  0  0  0
   22.4347  -21.1311  -13.2972 C   0  0  2  0  0  0  0  0  0  0  0  0
   22.5232  -22.5733  -13.3454 N   0  0  0  0  0  0  0  0  0  0  0  0
   23.7652  -20.5698  -12.9863 C   0  0  0  0  0  0  0  0  0  0  0  0
   23.8959  -19.3167  -13.0423 O   0  0  0  0  0  0  0  0  0  0  0  0
   24.8913  -21.3237  -12.6344 N   0  0  0  0  0  0  0  0  0  0  0  0
   26.1573  -20.6536  -12.4560 C   0  0  1  0  0  0  0  0  0  0  0  0
   26.6801  -21.0703  -11.0838 C   0  0  0  0  0  0  0  0  0  0  0  0
   25.3850  -20.9524   -9.8414 S   0  0  0  0  0  0  0  0  0  0  0  0
   27.1300  -20.9910  -13.5219 C   0  0  0  0  0  0  0  0  0  0  0  0
   26.8834  -21.7698  -14.4775 O   0  0  0  0  0  0  0  0  0  0  0  0
   28.3936  -20.4201  -13.4752 O   0  0  0  0  0  0  0  0  0  0  0  0
  2  1  1  6
  2  3  1  0
  4  5  2  0
  4  2  1  0
  7  6  1  1
  7  8  1  0
  8  4  1  0
  9  7  1  0
 10  9  2  0
 11  9  1  0
 12 15  1  0
 12 11  1  0
 12 13  1  1
 14 13  1  0
 15 17  1  0
 16 15  2  0
M  END
$$$$
