YDP.pdb
     RDKit          3D

 28 29  0  0  1  0  0  0  0  0999 V2000
   22.8758  -21.3675   -7.2327 O   0  0  0  0  0  0  0  0  0  0  0  0
   23.5839  -21.1835   -8.4009 C   0  0  0  0  0  0  0  0  0  0  0  0
   24.9735  -21.2664   -8.3892 C   0  0  0  0  0  0  0  0  0  0  0  0
   25.6762  -21.0831   -9.5523 C   0  0  0  0  0  0  0  0  0  0  0  0
   24.9686  -20.8175  -10.7179 C   0  0  0  0  0  0  0  0  0  0  0  0
   25.7246  -20.6193  -11.9749 C   0  0  0  0  0  0  0  0  0  0  0  0
   25.2375  -21.5540  -13.0583 C   0  0  2  0  0  0  0  0  0  0  0  0
   25.4884  -22.9039  -12.6422 N   0  0  0  0  0  0  0  0  0  0  0  0
   25.9780  -21.2076  -14.3050 C   0  0  0  0  0  0  0  0  0  0  0  0
   27.1728  -21.5630  -14.4488 O   0  0  0  0  0  0  0  0  0  0  0  0
   23.6011  -20.7350  -10.7346 C   0  0  0  0  0  0  0  0  0  0  0  0
   22.9119  -20.9198   -9.5680 C   0  0  0  0  0  0  0  0  0  0  0  0
   25.3458  -20.4820  -15.3274 N   0  0  0  0  0  0  0  0  0  0  0  0
   25.9750  -20.1961  -16.6170 C   0  0  1  0  0  0  0  0  0  0  0  0
   25.2130  -20.9050  -17.7113 C   0  0  0  0  0  0  0  0  0  0  0  0
   25.7275  -20.6554  -19.0613 C   0  0  0  0  0  0  0  0  0  0  0  0
   26.9855  -20.7972  -19.2056 O   0  0  0  0  0  0  0  0  0  0  0  0
   26.0458  -18.7384  -16.7787 C   0  0  0  0  0  0  0  0  0  0  0  0
   25.0420  -18.0939  -16.2764 O   0  0  0  0  0  0  0  0  0  0  0  0
   25.0245  -20.2918  -20.1731 O   0  0  0  0  0  0  0  0  0  0  0  0
   27.0429  -17.9781  -17.3930 N   0  0  0  0  0  0  0  0  0  0  0  0
   28.2337  -18.5063  -18.0080 C   0  0  0  0  0  0  0  0  0  0  0  0
   29.2691  -17.4404  -17.6529 C   0  0  0  0  0  0  0  0  0  0  0  0
   28.4984  -16.2744  -17.0691 C   0  0  0  0  0  0  0  0  0  0  0  0
   27.0993  -16.5693  -17.5845 C   0  0  1  0  0  0  0  0  0  0  0  0
   26.9466  -16.1634  -19.0017 C   0  0  0  0  0  0  0  0  0  0  0  0
   26.9517  -14.8526  -19.3626 O   0  0  0  0  0  0  0  0  0  0  0  0
   26.8123  -17.0508  -19.8692 O   0  0  0  0  0  0  0  0  0  0  0  0
  1  2  1  0
  2  3  2  0
  3  4  1  0
  5  4  2  0
  5  6  1  0
  7  6  1  0
  7  8  1  1
  9  7  1  0
  9 13  1  0
 10  9  2  0
 11  5  1  0
 12  2  1  0
 12 11  2  0
 14 13  1  0
 14 18  1  0
 14 15  1  6
 15 16  1  0
 16 17  2  0
 16 20  1  0
 18 19  2  0
 21 18  1  0
 21 22  1  0
 22 23  1  0
 24 23  1  0
 25 24  1  0
 25 21  1  0
 25 26  1  6
 27 26  1  0
 28 26  2  0
M  END
$$$$
