YDP.pdb
     RDKit          3D

 28 29  0  0  1  0  0  0  0  0999 V2000
   22.2870  -21.3804   -7.6668 O   0  0  0  0  0  0  0  0  0  0  0  0
   23.1855  -21.0526   -8.6594 C   0  0  0  0  0  0  0  0  0  0  0  0
   22.7540  -20.9522   -9.9791 C   0  0  0  0  0  0  0  0  0  0  0  0
   23.6492  -20.6260  -10.9652 C   0  0  0  0  0  0  0  0  0  0  0  0
   24.9736  -20.4039  -10.6093 C   0  0  0  0  0  0  0  0  0  0  0  0
   25.9421  -20.0516  -11.6717 C   0  0  0  0  0  0  0  0  0  0  0  0
   26.1265  -21.1946  -12.6434 C   0  0  2  0  0  0  0  0  0  0  0  0
   26.8084  -22.2611  -11.9683 N   0  0  0  0  0  0  0  0  0  0  0  0
   26.9133  -20.6706  -13.7962 C   0  0  0  0  0  0  0  0  0  0  0  0
   28.1551  -20.5209  -13.6968 O   0  0  0  0  0  0  0  0  0  0  0  0
   25.4033  -20.5015   -9.3120 C   0  0  0  0  0  0  0  0  0  0  0  0
   24.5005  -20.8275   -8.3378 C   0  0  0  0  0  0  0  0  0  0  0  0
   26.2725  -20.3404  -15.0011 N   0  0  0  0  0  0  0  0  0  0  0  0
   26.9844  -19.8503  -16.1817 C   0  0  1  0  0  0  0  0  0  0  0  0
   26.8244  -20.8434  -17.3081 C   0  0  0  0  0  0  0  0  0  0  0  0
   27.5325  -20.4767  -18.5384 C   0  0  0  0  0  0  0  0  0  0  0  0
   28.7887  -20.6899  -18.5346 O   0  0  0  0  0  0  0  0  0  0  0  0
   26.4867  -18.5037  -16.4900 C   0  0  0  0  0  0  0  0  0  0  0  0
   25.2903  -18.2625  -16.0591 O   0  0  0  0  0  0  0  0  0  0  0  0
   27.0101  -19.9379  -19.6783 O   0  0  0  0  0  0  0  0  0  0  0  0
   27.1328  -17.4725  -17.1748 N   0  0  0  0  0  0  0  0  0  0  0  0
   28.4806  -17.5245  -17.6808 C   0  0  0  0  0  0  0  0  0  0  0  0
   28.9590  -16.0927  -17.4457 C   0  0  0  0  0  0  0  0  0  0  0  0
   27.7358  -15.2940  -17.0458 C   0  0  0  0  0  0  0  0  0  0  0  0
   26.6248  -16.1985  -17.5536 C   0  0  1  0  0  0  0  0  0  0  0  0
   26.4340  -16.0544  -19.0163 C   0  0  0  0  0  0  0  0  0  0  0  0
   25.9340  -14.9088  -19.5511 O   0  0  0  0  0  0  0  0  0  0  0  0
   26.7425  -17.0091  -19.7589 O   0  0  0  0  0  0  0  0  0  0  0  0
  1  2  1  0
  2  3  2  0
  3  4  1  0
  5  4  2  0
  5  6  1  0
  7  6  1  0
  7  8  1  1
  9  7  1  0
  9 13  1  0
 10  9  2  0
 11  5  1  0
 12  2  1  0
 12 11  2  0
 14 13  1  0
 14 18  1  0
 14 15  1  6
 15 16  1  0
 16 17  2  0
 16 20  1  0
 18 19  2  0
 21 18  1  0
 21 22  1  0
 22 23  1  0
 24 23  1  0
 25 24  1  0
 25 21  1  0
 25 26  1  6
 27 26  1  0
 28 26  2  0
M  END
$$$$
