YDP.pdb
     RDKit          3D

 28 29  0  0  1  0  0  0  0  0999 V2000
   20.9097  -21.7855   -8.6790 O   0  0  0  0  0  0  0  0  0  0  0  0
   21.9880  -21.3365   -9.4109 C   0  0  0  0  0  0  0  0  0  0  0  0
   23.0965  -20.8058   -8.7571 C   0  0  0  0  0  0  0  0  0  0  0  0
   24.1683  -20.3596   -9.4868 C   0  0  0  0  0  0  0  0  0  0  0  0
   24.1108  -20.4535  -10.8717 C   0  0  0  0  0  0  0  0  0  0  0  0
   25.2664  -19.9727  -11.6619 C   0  0  0  0  0  0  0  0  0  0  0  0
   26.2104  -21.1056  -11.9935 C   0  0  2  0  0  0  0  0  0  0  0  0
   27.0089  -21.3874  -10.8353 N   0  0  0  0  0  0  0  0  0  0  0  0
   27.0410  -20.6631  -13.1497 C   0  0  0  0  0  0  0  0  0  0  0  0
   28.0815  -19.9885  -12.9579 O   0  0  0  0  0  0  0  0  0  0  0  0
   23.0223  -20.9751  -11.5198 C   0  0  0  0  0  0  0  0  0  0  0  0
   21.9598  -21.4166  -10.7806 C   0  0  0  0  0  0  0  0  0  0  0  0
   26.6668  -20.9968  -14.4612 N   0  0  0  0  0  0  0  0  0  0  0  0
   27.4618  -20.6445  -15.6379 C   0  0  1  0  0  0  0  0  0  0  0  0
   27.6172  -21.8624  -16.5173 C   0  0  0  0  0  0  0  0  0  0  0  0
   28.4310  -21.6388  -17.7161 C   0  0  0  0  0  0  0  0  0  0  0  0
   27.8368  -21.0631  -18.6850 O   0  0  0  0  0  0  0  0  0  0  0  0
   26.8192  -19.5016  -16.2991 C   0  0  0  0  0  0  0  0  0  0  0  0
   25.5374  -19.4368  -16.1320 O   0  0  0  0  0  0  0  0  0  0  0  0
   29.7393  -21.9718  -17.9161 O   0  0  0  0  0  0  0  0  0  0  0  0
   27.4091  -18.4963  -17.0679 N   0  0  0  0  0  0  0  0  0  0  0  0
   28.8070  -18.4185  -17.4073 C   0  0  0  0  0  0  0  0  0  0  0  0
   29.0581  -16.9123  -17.3581 C   0  0  0  0  0  0  0  0  0  0  0  0
   27.6986  -16.2567  -17.2310 C   0  0  0  0  0  0  0  0  0  0  0  0
   26.7928  -17.3822  -17.7032 C   0  0  1  0  0  0  0  0  0  0  0  0
   26.7796  -17.4836  -19.1818 C   0  0  0  0  0  0  0  0  0  0  0  0
   27.3574  -18.5359  -19.8199 O   0  0  0  0  0  0  0  0  0  0  0  0
   26.2243  -16.5804  -19.8406 O   0  0  0  0  0  0  0  0  0  0  0  0
  1  2  1  0
  2  3  2  0
  3  4  1  0
  5  4  2  0
  5  6  1  0
  7  6  1  0
  7  8  1  1
  9  7  1  0
  9 13  1  0
 10  9  2  0
 11  5  1  0
 12  2  1  0
 12 11  2  0
 14 13  1  0
 14 18  1  0
 14 15  1  6
 15 16  1  0
 16 17  2  0
 16 20  1  0
 18 19  2  0
 21 18  1  0
 21 22  1  0
 22 23  1  0
 24 23  1  0
 25 24  1  0
 25 21  1  0
 25 26  1  6
 27 26  1  0
 28 26  2  0
M  END
$$$$
