YDP.pdb
     RDKit          3D

 28 29  0  0  1  0  0  0  0  0999 V2000
   23.1662   -9.5474    7.6862 O   0  0  0  0  0  0  0  0  0  0  0  0
   22.1889  -10.5187    7.6504 C   0  0  0  0  0  0  0  0  0  0  0  0
   21.3635  -10.7121    8.7546 C   0  0  0  0  0  0  0  0  0  0  0  0
   20.3917  -11.6789    8.7172 C   0  0  0  0  0  0  0  0  0  0  0  0
   20.2622  -12.4423    7.5638 C   0  0  0  0  0  0  0  0  0  0  0  0
   19.2140  -13.4865    7.5207 C   0  0  0  0  0  0  0  0  0  0  0  0
   18.0979  -13.1013    6.5770 C   0  0  2  0  0  0  0  0  0  0  0  0
   17.3841  -11.9933    7.1437 N   0  0  0  0  0  0  0  0  0  0  0  0
   17.2273  -14.3000    6.4113 C   0  0  0  0  0  0  0  0  0  0  0  0
   16.3229  -14.5436    7.2463 O   0  0  0  0  0  0  0  0  0  0  0  0
   21.0719  -12.2559    6.4745 C   0  0  0  0  0  0  0  0  0  0  0  0
   22.0373  -11.2884    6.5245 C   0  0  0  0  0  0  0  0  0  0  0  0
   17.4114  -15.1655    5.3211 N   0  0  0  0  0  0  0  0  0  0  0  0
   16.6626  -16.4106    5.1482 C   0  0  1  0  0  0  0  0  0  0  0  0
   16.5743  -16.7389    3.6768 C   0  0  0  0  0  0  0  0  0  0  0  0
   15.8027  -17.9486    3.3757 C   0  0  0  0  0  0  0  0  0  0  0  0
   16.4259  -18.8516    2.7278 O   0  0  0  0  0  0  0  0  0  0  0  0
   17.3087  -17.4497    5.9601 C   0  0  0  0  0  0  0  0  0  0  0  0
   18.5827  -17.2888    6.1218 O   0  0  0  0  0  0  0  0  0  0  0  0
   14.5063  -18.2203    3.7041 O   0  0  0  0  0  0  0  0  0  0  0  0
   16.7291  -18.5653    6.5677 N   0  0  0  0  0  0  0  0  0  0  0  0
   15.3403  -18.9369    6.4761 C   0  0  0  0  0  0  0  0  0  0  0  0
   15.0716  -19.4921    7.8738 C   0  0  0  0  0  0  0  0  0  0  0  0
   16.4198  -19.6060    8.5545 C   0  0  0  0  0  0  0  0  0  0  0  0
   17.3504  -19.5761    7.3532 C   0  0  1  0  0  0  0  0  0  0  0  0
   17.4053  -20.8937    6.6766 C   0  0  0  0  0  0  0  0  0  0  0  0
   18.0682  -21.9427    7.2321 O   0  0  0  0  0  0  0  0  0  0  0  0
   16.8280  -21.0291    5.5782 O   0  0  0  0  0  0  0  0  0  0  0  0
  1  2  1  0
  2  3  2  0
  3  4  1  0
  5  4  2  0
  5  6  1  0
  7  6  1  0
  7  8  1  1
  9  7  1  0
  9 13  1  0
 10  9  2  0
 11  5  1  0
 12  2  1  0
 12 11  2  0
 14 13  1  0
 14 18  1  0
 14 15  1  6
 15 16  1  0
 16 17  2  0
 16 20  1  0
 18 19  2  0
 21 18  1  0
 21 22  1  0
 22 23  1  0
 24 23  1  0
 25 24  1  0
 25 21  1  0
 25 26  1  6
 27 26  1  0
 28 26  2  0
M  END
$$$$
