YDP.pdb
     RDKit          3D

 28 29  0  0  1  0  0  0  0  0999 V2000
   11.7255  -14.7204  -17.5812 O   0  0  0  0  0  0  0  0  0  0  0  0
   12.9976  -14.3686  -17.1836 C   0  0  0  0  0  0  0  0  0  0  0  0
   13.5851  -15.0079  -16.0955 C   0  0  0  0  0  0  0  0  0  0  0  0
   14.8506  -14.6567  -15.7014 C   0  0  0  0  0  0  0  0  0  0  0  0
   15.5121  -13.6619  -16.4105 C   0  0  0  0  0  0  0  0  0  0  0  0
   16.8784  -13.2808  -15.9874 C   0  0  0  0  0  0  0  0  0  0  0  0
   17.9167  -14.1758  -16.6240 C   0  0  2  0  0  0  0  0  0  0  0  0
   17.7974  -15.4879  -16.0561 N   0  0  0  0  0  0  0  0  0  0  0  0
   19.2502  -13.5683  -16.3496 C   0  0  0  0  0  0  0  0  0  0  0  0
   19.8178  -13.7629  -15.2477 O   0  0  0  0  0  0  0  0  0  0  0  0
   14.9383  -13.0297  -17.4820 C   0  0  0  0  0  0  0  0  0  0  0  0
   13.6756  -13.3892  -17.8650 C   0  0  0  0  0  0  0  0  0  0  0  0
   19.8815  -12.7742  -17.3204 N   0  0  0  0  0  0  0  0  0  0  0  0
   21.1378  -12.0626  -17.0836 C   0  0  1  0  0  0  0  0  0  0  0  0
   21.7650  -11.7039  -18.4097 C   0  0  0  0  0  0  0  0  0  0  0  0
   22.2542  -12.8549  -19.1748 C   0  0  0  0  0  0  0  0  0  0  0  0
   21.5648  -13.1674  -20.1997 O   0  0  0  0  0  0  0  0  0  0  0  0
   20.8550  -10.9100  -16.2190 C   0  0  0  0  0  0  0  0  0  0  0  0
   19.6191  -10.5258  -16.2248 O   0  0  0  0  0  0  0  0  0  0  0  0
   23.3516  -13.6255  -18.9213 O   0  0  0  0  0  0  0  0  0  0  0  0
   21.7368  -10.1939  -15.4069 N   0  0  0  0  0  0  0  0  0  0  0  0
   23.1567  -10.4196  -15.3167 C   0  0  0  0  0  0  0  0  0  0  0  0
   23.4222  -10.1581  -13.8350 C   0  0  0  0  0  0  0  0  0  0  0  0
   22.1479   -9.5642  -13.2713 C   0  0  0  0  0  0  0  0  0  0  0  0
   21.4627   -9.0957  -14.5446 C   0  0  1  0  0  0  0  0  0  0  0  0
   22.0317   -7.8150  -15.0270 C   0  0  0  0  0  0  0  0  0  0  0  0
   21.7716   -6.6442  -14.3867 O   0  0  0  0  0  0  0  0  0  0  0  0
   22.7612   -7.8259  -16.0398 O   0  0  0  0  0  0  0  0  0  0  0  0
  1  2  1  0
  2  3  2  0
  3  4  1  0
  5  4  2  0
  5  6  1  0
  7  6  1  0
  7  8  1  1
  9  7  1  0
  9 13  1  0
 10  9  2  0
 11  5  1  0
 12  2  1  0
 12 11  2  0
 14 13  1  0
 14 18  1  0
 14 15  1  6
 15 16  1  0
 16 17  2  0
 16 20  1  0
 18 19  2  0
 21 18  1  0
 21 22  1  0
 22 23  1  0
 24 23  1  0
 25 24  1  0
 25 21  1  0
 25 26  1  6
 27 26  1  0
 28 26  2  0
M  END
$$$$
