YDP.pdb
     RDKit          3D

 28 29  0  0  1  0  0  0  0  0999 V2000
   16.6664  -19.9788  -21.4846 O   0  0  0  0  0  0  0  0  0  0  0  0
   17.6890  -19.5881  -20.6470 C   0  0  0  0  0  0  0  0  0  0  0  0
   18.4940  -20.5488  -20.0414 C   0  0  0  0  0  0  0  0  0  0  0  0
   19.5108  -20.1582  -19.2084 C   0  0  0  0  0  0  0  0  0  0  0  0
   19.7056  -18.7994  -18.9944 C   0  0  0  0  0  0  0  0  0  0  0  0
   20.8026  -18.3750  -18.0958 C   0  0  0  0  0  0  0  0  0  0  0  0
   20.3822  -18.4536  -16.6461 C   0  0  2  0  0  0  0  0  0  0  0  0
   19.5946  -17.2950  -16.3365 N   0  0  0  0  0  0  0  0  0  0  0  0
   21.6275  -18.5164  -15.8288 C   0  0  0  0  0  0  0  0  0  0  0  0
   22.3200  -17.4849  -15.6534 O   0  0  0  0  0  0  0  0  0  0  0  0
   18.9161  -17.8500  -19.5880 C   0  0  0  0  0  0  0  0  0  0  0  0
   17.9054  -18.2526  -20.4166 C   0  0  0  0  0  0  0  0  0  0  0  0
   22.0354  -19.7285  -15.2492 N   0  0  0  0  0  0  0  0  0  0  0  0
   23.2365  -19.8605  -14.4242 C   0  0  1  0  0  0  0  0  0  0  0  0
   23.0923  -21.0637  -13.5229 C   0  0  0  0  0  0  0  0  0  0  0  0
   21.9670  -20.9826  -12.5866 C   0  0  0  0  0  0  0  0  0  0  0  0
   21.7269  -19.8239  -12.1141 O   0  0  0  0  0  0  0  0  0  0  0  0
   24.4015  -19.9119  -15.3165 C   0  0  0  0  0  0  0  0  0  0  0  0
   24.1100  -19.9528  -16.5769 O   0  0  0  0  0  0  0  0  0  0  0  0
   21.1527  -21.9929  -12.1641 O   0  0  0  0  0  0  0  0  0  0  0  0
   25.7565  -19.9198  -14.9794 N   0  0  0  0  0  0  0  0  0  0  0  0
   26.2817  -19.9110  -13.6381 C   0  0  0  0  0  0  0  0  0  0  0  0
   27.5245  -19.0361  -13.7938 C   0  0  0  0  0  0  0  0  0  0  0  0
   27.7183  -18.8308  -15.2819 C   0  0  0  0  0  0  0  0  0  0  0  0
   26.8888  -19.9760  -15.8393 C   0  0  1  0  0  0  0  0  0  0  0  0
   27.6201  -21.2628  -15.7628 C   0  0  0  0  0  0  0  0  0  0  0  0
   27.2478  -22.2325  -14.8855 O   0  0  0  0  0  0  0  0  0  0  0  0
   28.5928  -21.4468  -16.5232 O   0  0  0  0  0  0  0  0  0  0  0  0
  1  2  1  0
  2  3  2  0
  3  4  1  0
  5  4  2  0
  5  6  1  0
  7  6  1  0
  7  8  1  1
  9  7  1  0
  9 13  1  0
 10  9  2  0
 11  5  1  0
 12  2  1  0
 12 11  2  0
 14 13  1  0
 14 18  1  0
 14 15  1  6
 15 16  1  0
 16 17  2  0
 16 20  1  0
 18 19  2  0
 21 18  1  0
 21 22  1  0
 22 23  1  0
 24 23  1  0
 25 24  1  0
 25 21  1  0
 25 26  1  1
 27 26  1  0
 28 26  2  0
M  END
$$$$
