YDP.pdb
     RDKit          3D

 28 29  0  0  1  0  0  0  0  0999 V2000
   29.8359  -15.1635  -19.6056 O   0  0  0  0  0  0  0  0  0  0  0  0
   29.0643  -16.0083  -18.8369 C   0  0  0  0  0  0  0  0  0  0  0  0
   29.5388  -16.4516  -17.6056 C   0  0  0  0  0  0  0  0  0  0  0  0
   28.7698  -17.2920  -16.8421 C   0  0  0  0  0  0  0  0  0  0  0  0
   27.5273  -17.6775  -17.3297 C   0  0  0  0  0  0  0  0  0  0  0  0
   26.6952  -18.5846  -16.5077 C   0  0  0  0  0  0  0  0  0  0  0  0
   27.4672  -19.8206  -16.1068 C   0  0  2  0  0  0  0  0  0  0  0  0
   27.8039  -20.5526  -17.2938 N   0  0  0  0  0  0  0  0  0  0  0  0
   26.5921  -20.6100  -15.1938 C   0  0  0  0  0  0  0  0  0  0  0  0
   25.8553  -21.5160  -15.6528 O   0  0  0  0  0  0  0  0  0  0  0  0
   27.0560  -17.2440  -18.5409 C   0  0  0  0  0  0  0  0  0  0  0  0
   27.8325  -16.4061  -19.2927 C   0  0  0  0  0  0  0  0  0  0  0  0
   26.5849  -20.3469  -13.8146 N   0  0  0  0  0  0  0  0  0  0  0  0
   25.6504  -20.9767  -12.8813 C   0  0  1  0  0  0  0  0  0  0  0  0
   26.1142  -20.7258  -11.4662 C   0  0  0  0  0  0  0  0  0  0  0  0
   25.1738  -21.1773  -10.4361 C   0  0  0  0  0  0  0  0  0  0  0  0
   24.0791  -20.5289  -10.3682 O   0  0  0  0  0  0  0  0  0  0  0  0
   24.3027  -20.4717  -13.1725 C   0  0  0  0  0  0  0  0  0  0  0  0
   24.2514  -19.2081  -13.4478 O   0  0  0  0  0  0  0  0  0  0  0  0
   25.3306  -22.2014   -9.5478 O   0  0  0  0  0  0  0  0  0  0  0  0
   23.0954  -21.1731  -13.1903 N   0  0  0  0  0  0  0  0  0  0  0  0
   22.9381  -22.5697  -12.8740 C   0  0  0  0  0  0  0  0  0  0  0  0
   21.8541  -22.9949  -13.8631 C   0  0  0  0  0  0  0  0  0  0  0  0
   21.3229  -21.7214  -14.4878 C   0  0  0  0  0  0  0  0  0  0  0  0
   21.7874  -20.6894  -13.4732 C   0  0  1  0  0  0  0  0  0  0  0  0
   20.9027  -20.6610  -12.2845 C   0  0  0  0  0  0  0  0  0  0  0  0
   19.6964  -20.0350  -12.3201 O   0  0  0  0  0  0  0  0  0  0  0  0
   21.2839  -21.2262  -11.2388 O   0  0  0  0  0  0  0  0  0  0  0  0
  1  2  1  0
  2  3  2  0
  3  4  1  0
  5  4  2  0
  5  6  1  0
  7  6  1  0
  7  8  1  6
  9  7  1  0
  9 13  1  0
 10  9  2  0
 11  5  1  0
 12  2  1  0
 12 11  2  0
 14 13  1  0
 14 18  1  0
 14 15  1  1
 15 16  1  0
 16 17  2  0
 16 20  1  0
 18 19  2  0
 21 18  1  0
 21 22  1  0
 22 23  1  0
 24 23  1  0
 25 24  1  0
 25 21  1  0
 25 26  1  1
 27 26  1  0
 28 26  2  0
M  END
$$$$
