YDP.pdb
     RDKit          3D

 28 29  0  0  1  0  0  0  0  0999 V2000
   28.7402  -19.6184   -3.3827 O   0  0  0  0  0  0  0  0  0  0  0  0
   28.4915  -19.7172   -4.7349 C   0  0  0  0  0  0  0  0  0  0  0  0
   29.1914  -20.6442   -5.5022 C   0  0  0  0  0  0  0  0  0  0  0  0
   28.9426  -20.7411   -6.8472 C   0  0  0  0  0  0  0  0  0  0  0  0
   27.9883  -19.9000   -7.4057 C   0  0  0  0  0  0  0  0  0  0  0  0
   27.7177  -20.0025   -8.8573 C   0  0  0  0  0  0  0  0  0  0  0  0
   26.2488  -20.2392   -9.1236 C   0  0  2  0  0  0  0  0  0  0  0  0
   25.9066  -21.5515   -8.6556 N   0  0  0  0  0  0  0  0  0  0  0  0
   26.0389  -20.0984  -10.5928 C   0  0  0  0  0  0  0  0  0  0  0  0
   26.1104  -18.9692  -11.1353 O   0  0  0  0  0  0  0  0  0  0  0  0
   27.2969  -18.9861   -6.6548 C   0  0  0  0  0  0  0  0  0  0  0  0
   27.5543  -18.8994   -5.3145 C   0  0  0  0  0  0  0  0  0  0  0  0
   25.7597  -21.2264  -11.3810 N   0  0  0  0  0  0  0  0  0  0  0  0
   25.4451  -21.1516  -12.8079 C   0  0  1  0  0  0  0  0  0  0  0  0
   26.1802  -22.2499  -13.5386 C   0  0  0  0  0  0  0  0  0  0  0  0
   25.9620  -22.2585  -14.9884 C   0  0  0  0  0  0  0  0  0  0  0  0
   25.0814  -23.0786  -15.4074 O   0  0  0  0  0  0  0  0  0  0  0  0
   23.9851  -21.2000  -12.9579 C   0  0  0  0  0  0  0  0  0  0  0  0
   23.3796  -21.9299  -12.0771 O   0  0  0  0  0  0  0  0  0  0  0  0
   26.5854  -21.4986  -15.9352 O   0  0  0  0  0  0  0  0  0  0  0  0
   23.1867  -20.5671  -13.9127 N   0  0  0  0  0  0  0  0  0  0  0  0
   23.6693  -19.7221  -14.9749 C   0  0  0  0  0  0  0  0  0  0  0  0
   22.5713  -18.6627  -15.0560 C   0  0  0  0  0  0  0  0  0  0  0  0
   21.4368  -19.1560  -14.1821 C   0  0  0  0  0  0  0  0  0  0  0  0
   21.7753  -20.6343  -14.0808 C   0  0  1  0  0  0  0  0  0  0  0  0
   21.3643  -21.3697  -15.3002 C   0  0  0  0  0  0  0  0  0  0  0  0
   20.0575  -21.6572  -15.5413 O   0  0  0  0  0  0  0  0  0  0  0  0
   22.2434  -21.7249  -16.1120 O   0  0  0  0  0  0  0  0  0  0  0  0
  1  2  1  0
  2  3  2  0
  3  4  1  0
  5  4  2  0
  5  6  1  0
  7  6  1  0
  7  8  1  6
  9  7  1  0
  9 13  1  0
 10  9  2  0
 11  5  1  0
 12  2  1  0
 12 11  2  0
 14 13  1  0
 14 18  1  0
 14 15  1  6
 15 16  1  0
 16 17  2  0
 16 20  1  0
 18 19  2  0
 21 18  1  0
 21 22  1  0
 22 23  1  0
 24 23  1  0
 25 24  1  0
 25 21  1  0
 25 26  1  6
 27 26  1  0
 28 26  2  0
M  END
$$$$
