YDP.pdb
     RDKit          3D

 28 29  0  0  1  0  0  0  0  0999 V2000
   28.7265  -19.7085   -3.4906 O   0  0  0  0  0  0  0  0  0  0  0  0
   28.2257  -19.7008   -4.7748 C   0  0  0  0  0  0  0  0  0  0  0  0
   28.7031  -18.7759   -5.6992 C   0  0  0  0  0  0  0  0  0  0  0  0
   28.2038  -18.7697   -6.9763 C   0  0  0  0  0  0  0  0  0  0  0  0
   27.2257  -19.6987   -7.3086 C   0  0  0  0  0  0  0  0  0  0  0  0
   26.6850  -19.6943   -8.6865 C   0  0  0  0  0  0  0  0  0  0  0  0
   27.1018  -20.9362   -9.4405 C   0  0  2  0  0  0  0  0  0  0  0  0
   28.5350  -20.9820   -9.4862 N   0  0  0  0  0  0  0  0  0  0  0  0
   26.5027  -20.8466  -10.8028 C   0  0  0  0  0  0  0  0  0  0  0  0
   27.0401  -20.1316  -11.6828 O   0  0  0  0  0  0  0  0  0  0  0  0
   26.7525  -20.6110   -6.4025 C   0  0  0  0  0  0  0  0  0  0  0  0
   27.2587  -20.6067   -5.1321 C   0  0  0  0  0  0  0  0  0  0  0  0
   25.3339  -21.5603  -11.1123 N   0  0  0  0  0  0  0  0  0  0  0  0
   24.7372  -21.5847  -12.4480 C   0  0  1  0  0  0  0  0  0  0  0  0
   24.7572  -22.9990  -12.9771 C   0  0  0  0  0  0  0  0  0  0  0  0
   25.2722  -23.1225  -14.3442 C   0  0  0  0  0  0  0  0  0  0  0  0
   25.5541  -22.0252  -14.9272 O   0  0  0  0  0  0  0  0  0  0  0  0
   23.3964  -20.9924  -12.3612 C   0  0  0  0  0  0  0  0  0  0  0  0
   22.8872  -20.9901  -11.1713 O   0  0  0  0  0  0  0  0  0  0  0  0
   25.4837  -24.2644  -15.0611 O   0  0  0  0  0  0  0  0  0  0  0  0
   22.6205  -20.4412  -13.3829 N   0  0  0  0  0  0  0  0  0  0  0  0
   22.9815  -20.4059  -14.7771 C   0  0  0  0  0  0  0  0  0  0  0  0
   22.4215  -19.0525  -15.2117 C   0  0  0  0  0  0  0  0  0  0  0  0
   21.5722  -18.5526  -14.0615 C   0  0  0  0  0  0  0  0  0  0  0  0
   21.3306  -19.8461  -13.3008 C   0  0  1  0  0  0  0  0  0  0  0  0
   20.2678  -20.6595  -13.9376 C   0  0  0  0  0  0  0  0  0  0  0  0
   20.5669  -21.7924  -14.6271 O   0  0  0  0  0  0  0  0  0  0  0  0
   19.0813  -20.2867  -13.8309 O   0  0  0  0  0  0  0  0  0  0  0  0
  1  2  1  0
  2  3  2  0
  3  4  1  0
  5  4  2  0
  5  6  1  0
  7  6  1  0
  7  8  1  6
  9  7  1  0
  9 13  1  0
 10  9  2  0
 11  5  1  0
 12  2  1  0
 12 11  2  0
 14 13  1  0
 14 18  1  0
 14 15  1  1
 15 16  1  0
 16 17  2  0
 16 20  1  0
 18 19  2  0
 21 18  1  0
 21 22  1  0
 22 23  1  0
 24 23  1  0
 25 24  1  0
 25 21  1  0
 25 26  1  6
 27 26  1  0
 28 26  2  0
M  END
$$$$
