YDP.pdb
     RDKit          3D

 28 29  0  0  1  0  0  0  0  0999 V2000
   31.4585  -21.5133  -10.5797 O   0  0  0  0  0  0  0  0  0  0  0  0
   30.1396  -21.4768  -10.9785 C   0  0  0  0  0  0  0  0  0  0  0  0
   29.7474  -20.6127  -11.9970 C   0  0  0  0  0  0  0  0  0  0  0  0
   28.4348  -20.5778  -12.3924 C   0  0  0  0  0  0  0  0  0  0  0  0
   27.5294  -21.4168  -11.7550 C   0  0  0  0  0  0  0  0  0  0  0  0
   26.1119  -21.3812  -12.1799 C   0  0  0  0  0  0  0  0  0  0  0  0
   25.4051  -20.1670  -11.6226 C   0  0  2  0  0  0  0  0  0  0  0  0
   24.9155  -20.4861  -10.3123 N   0  0  0  0  0  0  0  0  0  0  0  0
   24.2998  -19.8294  -12.5643 C   0  0  0  0  0  0  0  0  0  0  0  0
   23.1130  -20.1130  -12.2722 O   0  0  0  0  0  0  0  0  0  0  0  0
   27.9104  -22.2689  -10.7522 C   0  0  0  0  0  0  0  0  0  0  0  0
   29.2224  -22.2942  -10.3671 C   0  0  0  0  0  0  0  0  0  0  0  0
   24.5770  -19.1922  -13.7844 N   0  0  0  0  0  0  0  0  0  0  0  0
   23.5370  -18.6979  -14.6872 C   0  0  1  0  0  0  0  0  0  0  0  0
   24.1610  -17.7802  -15.7113 C   0  0  0  0  0  0  0  0  0  0  0  0
   25.2524  -18.3885  -16.4784 C   0  0  0  0  0  0  0  0  0  0  0  0
   26.4293  -18.0970  -16.0867 O   0  0  0  0  0  0  0  0  0  0  0  0
   22.8403  -19.8563  -15.2607 C   0  0  0  0  0  0  0  0  0  0  0  0
   23.5608  -20.9282  -15.3437 O   0  0  0  0  0  0  0  0  0  0  0  0
   25.1582  -19.2231  -17.5540 O   0  0  0  0  0  0  0  0  0  0  0  0
   21.5230  -19.9419  -15.7161 N   0  0  0  0  0  0  0  0  0  0  0  0
   20.5810  -18.8527  -15.7515 C   0  0  0  0  0  0  0  0  0  0  0  0
   19.2723  -19.5587  -15.4006 C   0  0  0  0  0  0  0  0  0  0  0  0
   19.5649  -21.0443  -15.4392 C   0  0  0  0  0  0  0  0  0  0  0  0
   20.8407  -21.0634  -16.2652 C   0  0  1  0  0  0  0  0  0  0  0  0
   20.5522  -20.9235  -17.7122 C   0  0  0  0  0  0  0  0  0  0  0  0
   21.0035  -19.8535  -18.4193 O   0  0  0  0  0  0  0  0  0  0  0  0
   19.8824  -21.8111  -18.2794 O   0  0  0  0  0  0  0  0  0  0  0  0
  1  2  1  0
  2  3  2  0
  3  4  1  0
  5  4  2  0
  5  6  1  0
  7  6  1  0
  7  8  1  1
  9  7  1  0
  9 13  1  0
 10  9  2  0
 11  5  1  0
 12  2  1  0
 12 11  2  0
 14 13  1  0
 14 18  1  0
 14 15  1  6
 15 16  1  0
 16 17  2  0
 16 20  1  0
 18 19  2  0
 21 18  1  0
 21 22  1  0
 22 23  1  0
 24 23  1  0
 25 24  1  0
 25 21  1  0
 25 26  1  6
 27 26  1  0
 28 26  2  0
M  END
$$$$
