YDP.pdb
     RDKit          3D

 28 29  0  0  1  0  0  0  0  0999 V2000
   22.3167  -21.4083   -7.8753 O   0  0  0  0  0  0  0  0  0  0  0  0
   23.2909  -21.0202   -8.7698 C   0  0  0  0  0  0  0  0  0  0  0  0
   22.9701  -20.8521  -10.1139 C   0  0  0  0  0  0  0  0  0  0  0  0
   23.9406  -20.4660  -11.0024 C   0  0  0  0  0  0  0  0  0  0  0  0
   25.2277  -20.2529  -10.5248 C   0  0  0  0  0  0  0  0  0  0  0  0
   26.2772  -19.8359  -11.4816 C   0  0  0  0  0  0  0  0  0  0  0  0
   26.8316  -21.0229  -12.2354 C   0  0  2  0  0  0  0  0  0  0  0  0
   27.8682  -21.6214  -11.4444 N   0  0  0  0  0  0  0  0  0  0  0  0
   27.3471  -20.5155  -13.5391 C   0  0  0  0  0  0  0  0  0  0  0  0
   28.4574  -19.9338  -13.5954 O   0  0  0  0  0  0  0  0  0  0  0  0
   25.5484  -20.4169   -9.2030 C   0  0  0  0  0  0  0  0  0  0  0  0
   24.5715  -20.8023   -8.3270 C   0  0  0  0  0  0  0  0  0  0  0  0
   26.5957  -20.6839  -14.7132 N   0  0  0  0  0  0  0  0  0  0  0  0
   27.0666  -20.2694  -16.0349 C   0  0  1  0  0  0  0  0  0  0  0  0
   26.7388  -21.3465  -17.0413 C   0  0  0  0  0  0  0  0  0  0  0  0
   27.3485  -22.6476  -16.7500 C   0  0  0  0  0  0  0  0  0  0  0  0
   28.6168  -22.6982  -16.8612 O   0  0  0  0  0  0  0  0  0  0  0  0
   26.4777  -18.9594  -16.3406 C   0  0  0  0  0  0  0  0  0  0  0  0
   25.3825  -18.7015  -15.7008 O   0  0  0  0  0  0  0  0  0  0  0  0
   26.7238  -23.8022  -16.3770 O   0  0  0  0  0  0  0  0  0  0  0  0
   26.9454  -17.9778  -17.2167 N   0  0  0  0  0  0  0  0  0  0  0  0
   28.1067  -18.0986  -18.0604 C   0  0  0  0  0  0  0  0  0  0  0  0
   28.6700  -16.6789  -18.0234 C   0  0  0  0  0  0  0  0  0  0  0  0
   27.6209  -15.8208  -17.3473 C   0  0  0  0  0  0  0  0  0  0  0  0
   26.3900  -16.6991  -17.5014 C   0  0  1  0  0  0  0  0  0  0  0  0
   25.8189  -16.5981  -18.8653 C   0  0  0  0  0  0  0  0  0  0  0  0
   25.1388  -15.4901  -19.2630 O   0  0  0  0  0  0  0  0  0  0  0  0
   25.9729  -17.5542  -19.6529 O   0  0  0  0  0  0  0  0  0  0  0  0
  1  2  1  0
  2  3  2  0
  3  4  1  0
  5  4  2  0
  5  6  1  0
  7  6  1  0
  7  8  1  1
  9  7  1  0
  9 13  1  0
 10  9  2  0
 11  5  1  0
 12  2  1  0
 12 11  2  0
 14 13  1  0
 14 18  1  0
 14 15  1  6
 15 16  1  0
 16 17  2  0
 16 20  1  0
 18 19  2  0
 21 18  1  0
 21 22  1  0
 22 23  1  0
 24 23  1  0
 25 24  1  0
 25 21  1  0
 25 26  1  6
 27 26  1  0
 28 26  2  0
M  END
$$$$
