NMA.pdb
     RDKit          3D

 22 21  0  0  1  0  0  0  0  0999 V2000
   10.2767  -17.2809   14.2973 N   0  0  0  0  0  0  0  0  0  0  0  0
   11.2751  -17.3565   15.2827 C   0  0  0  0  0  0  0  0  0  0  0  0
   12.3112  -18.0242   15.0735 O   0  0  0  0  0  0  0  0  0  0  0  0
   11.0926  -16.6433   16.5649 C   0  0  0  0  0  0  0  0  0  0  0  0
   11.2449  -17.6173   17.7100 C   0  0  2  0  0  0  0  0  0  0  0  0
   10.0983  -18.4956   17.7174 N   0  0  0  0  0  0  0  0  0  0  0  0
   11.3032  -16.9302   19.0216 C   0  0  0  0  0  0  0  0  0  0  0  0
   12.3698  -16.4082   19.4656 O   0  0  0  0  0  0  0  0  0  0  0  0
    7.1714  -11.8500   19.4962 C   0  0  0  0  0  0  0  0  0  0  0  0
    7.2848  -13.1337   20.8014 S   0  0  0  0  0  0  0  0  0  0  0  0
    8.6955  -14.1621   20.4043 C   0  0  0  0  0  0  0  0  0  0  0  0
    8.9668  -15.2803   21.3307 C   0  0  0  0  0  0  0  0  0  0  0  0
   10.1764  -16.0980   21.1411 C   0  0  2  0  0  0  0  0  0  0  0  0
   10.1612  -16.8075   19.8790 N   0  0  0  0  0  0  0  0  0  0  0  0
   10.5676  -16.9572   22.2661 C   0  0  0  0  0  0  0  0  0  0  0  0
   10.0811  -18.0751   22.5221 O   0  0  0  0  0  0  0  0  0  0  0  0
   13.2611  -16.7409   24.8894 C   0  0  0  0  0  0  0  0  0  0  0  0
   11.9778  -17.2842   24.3378 C   0  0  2  0  0  0  0  0  0  0  0  0
   11.5841  -16.5016   23.1543 N   0  0  0  0  0  0  0  0  0  0  0  0
   10.9342  -17.1382   25.3799 C   0  0  0  0  0  0  0  0  0  0  0  0
   10.9690  -17.8326   26.5707 O   0  0  0  0  0  0  0  0  0  0  0  0
    9.9799  -16.3520   25.1725 O   0  0  0  0  0  0  0  0  0  0  0  0
  1  2  1  0
  2  4  1  0
  3  2  2  0
  4  5  1  0
  5  6  1  1
  7  5  1  0
  8  7  2  0
 10 11  1  0
 10  9  1  0
 11 12  1  0
 13 12  1  1
 13 15  1  0
 13 14  1  0
 14  7  1  0
 15 19  1  0
 16 15  2  0
 18 17  1  1
 18 20  1  0
 19 18  1  0
 20 22  2  0
 20 21  1  0
M  END
$$$$
