NMA.pdb
     RDKit          3D

 22 21  0  0  1  0  0  0  0  0999 V2000
    8.4907  -19.1726   19.9031 N   0  0  0  0  0  0  0  0  0  0  0  0
    9.6930  -18.6153   20.3694 C   0  0  0  0  0  0  0  0  0  0  0  0
   10.7404  -18.7362   19.6977 O   0  0  0  0  0  0  0  0  0  0  0  0
    9.7108  -17.8870   21.6561 C   0  0  0  0  0  0  0  0  0  0  0  0
    9.2691  -16.4592   21.4336 C   0  0  2  0  0  0  0  0  0  0  0  0
   10.2207  -15.8189   20.5557 N   0  0  0  0  0  0  0  0  0  0  0  0
    9.2218  -15.6875   22.6977 C   0  0  0  0  0  0  0  0  0  0  0  0
   10.2574  -15.4653   23.3944 O   0  0  0  0  0  0  0  0  0  0  0  0
    6.3316  -10.4992   26.1106 C   0  0  0  0  0  0  0  0  0  0  0  0
    7.2519  -12.0093   26.5975 S   0  0  0  0  0  0  0  0  0  0  0  0
    6.2509  -13.4125   26.1134 C   0  0  0  0  0  0  0  0  0  0  0  0
    6.5552  -14.0046   24.7946 C   0  0  0  0  0  0  0  0  0  0  0  0
    7.8658  -14.6375   24.5721 C   0  0  2  0  0  0  0  0  0  0  0  0
    8.0054  -15.1391   23.2210 N   0  0  0  0  0  0  0  0  0  0  0  0
    8.3022  -15.6099   25.5824 C   0  0  0  0  0  0  0  0  0  0  0  0
    8.7258  -15.3270   26.7192 O   0  0  0  0  0  0  0  0  0  0  0  0
    8.0477  -19.3527   25.8077 C   0  0  0  0  0  0  0  0  0  0  0  0
    8.5803  -18.0279   26.2633 C   0  0  2  0  0  0  0  0  0  0  0  0
    8.2478  -16.9978   25.2651 N   0  0  0  0  0  0  0  0  0  0  0  0
   10.0545  -18.1390   26.3671 C   0  0  0  0  0  0  0  0  0  0  0  0
   10.6761  -18.9995   27.2473 O   0  0  0  0  0  0  0  0  0  0  0  0
   10.7676  -17.4225   25.6255 O   0  0  0  0  0  0  0  0  0  0  0  0
  1  2  1  0
  2  4  1  0
  3  2  2  0
  4  5  1  0
  5  6  1  6
  7  5  1  0
  8  7  2  0
 10 11  1  0
 10  9  1  0
 11 12  1  0
 13 12  1  1
 13 15  1  0
 13 14  1  0
 14  7  1  0
 15 19  1  0
 16 15  2  0
 18 17  1  6
 18 20  1  0
 19 18  1  0
 20 22  2  0
 20 21  1  0
M  END
$$$$
