NMA.pdb
     RDKit          3D

 22 21  0  0  1  0  0  0  0  0999 V2000
    9.4994  -18.5095   18.4209 N   0  0  0  0  0  0  0  0  0  0  0  0
   10.1420  -17.2637   18.3300 C   0  0  0  0  0  0  0  0  0  0  0  0
   10.7950  -16.9700   17.3051 O   0  0  0  0  0  0  0  0  0  0  0  0
   10.0412  -16.3052   19.4513 C   0  0  0  0  0  0  0  0  0  0  0  0
    9.2833  -16.9422   20.5927 C   0  0  2  0  0  0  0  0  0  0  0  0
    7.8719  -16.8857   20.2910 N   0  0  0  0  0  0  0  0  0  0  0  0
    9.5058  -16.2321   21.8741 C   0  0  0  0  0  0  0  0  0  0  0  0
   10.6670  -15.9738   22.3122 O   0  0  0  0  0  0  0  0  0  0  0  0
    6.9731  -11.8146   27.8428 C   0  0  0  0  0  0  0  0  0  0  0  0
    6.9041  -12.1900   26.0487 S   0  0  0  0  0  0  0  0  0  0  0  0
    7.4709  -13.8757   25.8434 C   0  0  0  0  0  0  0  0  0  0  0  0
    7.5166  -14.3824   24.4566 C   0  0  0  0  0  0  0  0  0  0  0  0
    8.6049  -15.2889   24.0543 C   0  0  2  0  0  0  0  0  0  0  0  0
    8.4270  -15.7881   22.7068 N   0  0  0  0  0  0  0  0  0  0  0  0
    8.9577  -16.3498   25.0066 C   0  0  0  0  0  0  0  0  0  0  0  0
    8.1938  -17.2549   25.3924 O   0  0  0  0  0  0  0  0  0  0  0  0
   12.2180  -17.5980   26.3232 C   0  0  0  0  0  0  0  0  0  0  0  0
   10.7281  -17.4684   26.4214 C   0  0  2  0  0  0  0  0  0  0  0  0
   10.2743  -16.3712   25.5505 N   0  0  0  0  0  0  0  0  0  0  0  0
   10.3894  -17.1391   27.8261 C   0  0  0  0  0  0  0  0  0  0  0  0
   10.6017  -18.0165   28.8684 O   0  0  0  0  0  0  0  0  0  0  0  0
    9.8893  -16.0176   28.0795 O   0  0  0  0  0  0  0  0  0  0  0  0
  1  2  1  0
  2  4  1  0
  3  2  2  0
  4  5  1  0
  5  6  1  6
  7  5  1  0
  8  7  2  0
 10 11  1  0
 10  9  1  0
 11 12  1  0
 13 12  1  1
 13 15  1  0
 13 14  1  0
 14  7  1  0
 15 19  1  0
 16 15  2  0
 18 17  1  1
 18 20  1  0
 19 18  1  0
 20 22  2  0
 20 21  1  0
M  END
$$$$
