NMA.pdb
     RDKit          3D

 22 21  0  0  1  0  0  0  0  0999 V2000
    7.2533  -12.4645   18.2772 N   0  0  0  0  0  0  0  0  0  0  0  0
    7.9964  -13.5321   18.8077 C   0  0  0  0  0  0  0  0  0  0  0  0
    8.1336  -14.5865   18.1500 O   0  0  0  0  0  0  0  0  0  0  0  0
    8.6133  -13.4005   20.1450 C   0  0  0  0  0  0  0  0  0  0  0  0
    8.6433  -14.7512   20.8217 C   0  0  2  0  0  0  0  0  0  0  0  0
    7.3603  -15.3863   20.6295 N   0  0  0  0  0  0  0  0  0  0  0  0
    8.8840  -14.6386   22.2795 C   0  0  0  0  0  0  0  0  0  0  0  0
    9.8765  -14.0094   22.7551 O   0  0  0  0  0  0  0  0  0  0  0  0
    6.6994  -10.6774   26.6697 C   0  0  0  0  0  0  0  0  0  0  0  0
    7.2862  -12.4031   26.8748 S   0  0  0  0  0  0  0  0  0  0  0  0
    6.6885  -13.3312   25.4654 C   0  0  0  0  0  0  0  0  0  0  0  0
    7.0542  -14.7619   25.4260 C   0  0  0  0  0  0  0  0  0  0  0  0
    8.2524  -15.1808   24.6798 C   0  0  2  0  0  0  0  0  0  0  0  0
    8.0144  -15.2313   23.2524 N   0  0  0  0  0  0  0  0  0  0  0  0
    8.9487  -16.3741   25.1779 C   0  0  0  0  0  0  0  0  0  0  0  0
    9.0560  -16.6982   26.3759 O   0  0  0  0  0  0  0  0  0  0  0  0
   10.4712  -19.3840   23.5268 C   0  0  0  0  0  0  0  0  0  0  0  0
   10.3309  -18.4288   24.6732 C   0  0  2  0  0  0  0  0  0  0  0  0
    9.5612  -17.2516   24.2374 N   0  0  0  0  0  0  0  0  0  0  0  0
   11.6895  -17.9935   25.0746 C   0  0  0  0  0  0  0  0  0  0  0  0
   12.5954  -18.8413   25.6764 O   0  0  0  0  0  0  0  0  0  0  0  0
   12.0314  -16.8067   24.8591 O   0  0  0  0  0  0  0  0  0  0  0  0
  1  2  1  0
  2  4  1  0
  3  2  2  0
  4  5  1  0
  5  6  1  1
  7  5  1  0
  8  7  2  0
 10 11  1  0
 10  9  1  0
 11 12  1  0
 13 12  1  1
 13 15  1  0
 13 14  1  0
 14  7  1  0
 15 19  1  0
 16 15  2  0
 18 17  1  6
 18 20  1  0
 19 18  1  0
 20 22  2  0
 20 21  1  0
M  END
$$$$
