NMA.pdb
     RDKit          3D

 22 21  0  0  1  0  0  0  0  0999 V2000
    7.8578  -19.1263   19.1476 N   0  0  0  0  0  0  0  0  0  0  0  0
    9.1246  -18.6410   19.5127 C   0  0  0  0  0  0  0  0  0  0  0  0
   10.0746  -18.7004   18.7021 O   0  0  0  0  0  0  0  0  0  0  0  0
    9.3259  -18.0613   20.8579 C   0  0  0  0  0  0  0  0  0  0  0  0
    9.0269  -16.5807   20.8189 C   0  0  2  0  0  0  0  0  0  0  0  0
    9.9640  -15.9496   19.9190 N   0  0  0  0  0  0  0  0  0  0  0  0
    9.1743  -15.9475   22.1505 C   0  0  0  0  0  0  0  0  0  0  0  0
   10.3045  -15.7849   22.7015 O   0  0  0  0  0  0  0  0  0  0  0  0
    7.3696  -11.4030   27.8369 C   0  0  0  0  0  0  0  0  0  0  0  0
    7.4942  -11.9258   26.0831 S   0  0  0  0  0  0  0  0  0  0  0  0
    6.8640  -13.5988   25.9886 C   0  0  0  0  0  0  0  0  0  0  0  0
    6.9234  -14.2423   24.6602 C   0  0  0  0  0  0  0  0  0  0  0  0
    8.1591  -14.9257   24.2433 C   0  0  2  0  0  0  0  0  0  0  0  0
    8.0529  -15.4752   22.9079 N   0  0  0  0  0  0  0  0  0  0  0  0
    8.7340  -15.8790   25.2011 C   0  0  0  0  0  0  0  0  0  0  0  0
    8.1996  -16.9429   25.5678 O   0  0  0  0  0  0  0  0  0  0  0  0
   12.1880  -16.3536   26.5069 C   0  0  0  0  0  0  0  0  0  0  0  0
   10.7093  -16.5718   26.6174 C   0  0  2  0  0  0  0  0  0  0  0  0
   10.0059  -15.5904   25.7745 N   0  0  0  0  0  0  0  0  0  0  0  0
   10.3200  -16.3580   28.0314 C   0  0  0  0  0  0  0  0  0  0  0  0
    9.4389  -15.3710   28.4198 O   0  0  0  0  0  0  0  0  0  0  0  0
   10.8105  -17.1036   28.9118 O   0  0  0  0  0  0  0  0  0  0  0  0
  1  2  1  0
  2  4  1  0
  3  2  2  0
  4  5  1  0
  5  6  1  6
  7  5  1  0
  8  7  2  0
 10 11  1  0
 10  9  1  0
 11 12  1  0
 13 12  1  1
 13 15  1  0
 13 14  1  0
 14  7  1  0
 15 19  1  0
 16 15  2  0
 18 17  1  1
 18 20  1  0
 19 18  1  0
 20 22  2  0
 20 21  1  0
M  END
$$$$
