NMA.pdb
     RDKit          3D

 22 21  0  0  1  0  0  0  0  0999 V2000
    7.8270  -15.5483   17.9677 N   0  0  0  0  0  0  0  0  0  0  0  0
    8.0251  -14.1938   18.2834 C   0  0  0  0  0  0  0  0  0  0  0  0
    7.9541  -13.3256   17.3867 O   0  0  0  0  0  0  0  0  0  0  0  0
    8.3174  -13.8035   19.6793 C   0  0  0  0  0  0  0  0  0  0  0  0
    8.4153  -15.0420   20.5394 C   0  0  2  0  0  0  0  0  0  0  0  0
    7.1260  -15.6930   20.5502 N   0  0  0  0  0  0  0  0  0  0  0  0
    8.7770  -14.7203   21.9399 C   0  0  0  0  0  0  0  0  0  0  0  0
    9.8329  -14.0849   22.2375 O   0  0  0  0  0  0  0  0  0  0  0  0
    6.8868  -11.5963   27.2741 C   0  0  0  0  0  0  0  0  0  0  0  0
    5.6528  -12.1632   26.0410 S   0  0  0  0  0  0  0  0  0  0  0  0
    6.5478  -13.0660   24.7804 C   0  0  0  0  0  0  0  0  0  0  0  0
    7.1943  -14.3213   25.2145 C   0  0  0  0  0  0  0  0  0  0  0  0
    8.3215  -14.8601   24.4354 C   0  0  2  0  0  0  0  0  0  0  0  0
    7.9612  -15.1035   23.0542 N   0  0  0  0  0  0  0  0  0  0  0  0
    9.0516  -15.9850   25.0341 C   0  0  0  0  0  0  0  0  0  0  0  0
    9.3123  -16.1116   26.2456 O   0  0  0  0  0  0  0  0  0  0  0  0
   10.2518  -19.3076   23.7914 C   0  0  0  0  0  0  0  0  0  0  0  0
   10.3639  -18.1184   24.6968 C   0  0  2  0  0  0  0  0  0  0  0  0
    9.5118  -17.0321   24.1847 N   0  0  0  0  0  0  0  0  0  0  0  0
   11.7756  -17.6677   24.6869 C   0  0  0  0  0  0  0  0  0  0  0  0
   12.1676  -16.4594   24.1504 O   0  0  0  0  0  0  0  0  0  0  0  0
   12.6509  -18.4136   25.1861 O   0  0  0  0  0  0  0  0  0  0  0  0
  1  2  1  0
  2  4  1  0
  3  2  2  0
  4  5  1  0
  5  6  1  1
  7  5  1  0
  8  7  2  0
 10 11  1  0
 10  9  1  0
 11 12  1  0
 13 12  1  1
 13 15  1  0
 13 14  1  0
 14  7  1  0
 15 19  1  0
 16 15  2  0
 18 17  1  6
 18 20  1  0
 19 18  1  0
 20 22  2  0
 20 21  1  0
M  END
$$$$
