NMA.pdb
     RDKit          3D

 22 21  0  0  1  0  0  0  0  0999 V2000
    7.2533  -13.1635   16.8963 N   0  0  0  0  0  0  0  0  0  0  0  0
    8.2248  -13.9569   17.5288 C   0  0  0  0  0  0  0  0  0  0  0  0
    8.7444  -14.9155   16.9172 O   0  0  0  0  0  0  0  0  0  0  0  0
    8.6272  -13.6514   18.9184 C   0  0  0  0  0  0  0  0  0  0  0  0
    8.4692  -14.8877   19.7727 C   0  0  2  0  0  0  0  0  0  0  0  0
    7.0881  -15.3069   19.7173 N   0  0  0  0  0  0  0  0  0  0  0  0
    8.8131  -14.6322   21.1911 C   0  0  0  0  0  0  0  0  0  0  0  0
    9.9947  -14.3629   21.5633 O   0  0  0  0  0  0  0  0  0  0  0  0
    6.8645  -11.9456   28.2419 C   0  0  0  0  0  0  0  0  0  0  0  0
    6.1972  -12.3652   26.5857 S   0  0  0  0  0  0  0  0  0  0  0  0
    7.3673  -13.4802   25.8159 C   0  0  0  0  0  0  0  0  0  0  0  0
    7.1932  -13.7070   24.3666 C   0  0  0  0  0  0  0  0  0  0  0  0
    8.1627  -14.5485   23.6456 C   0  0  2  0  0  0  0  0  0  0  0  0
    7.8372  -14.6712   22.2401 N   0  0  0  0  0  0  0  0  0  0  0  0
    8.4937  -15.8395   24.2625 C   0  0  0  0  0  0  0  0  0  0  0  0
    7.7198  -16.8108   24.3602 O   0  0  0  0  0  0  0  0  0  0  0  0
   11.7044  -17.5240   24.8753 C   0  0  0  0  0  0  0  0  0  0  0  0
   10.2637  -17.3493   25.2498 C   0  0  2  0  0  0  0  0  0  0  0  0
    9.7991  -16.0258   24.8018 N   0  0  0  0  0  0  0  0  0  0  0  0
   10.1635  -17.4197   26.7268 C   0  0  0  0  0  0  0  0  0  0  0  0
   10.4386  -18.5688   27.4376 O   0  0  0  0  0  0  0  0  0  0  0  0
    9.8146  -16.3940   27.3577 O   0  0  0  0  0  0  0  0  0  0  0  0
  1  2  1  0
  2  4  1  0
  3  2  2  0
  4  5  1  0
  5  6  1  1
  7  5  1  0
  8  7  2  0
 10 11  1  0
 10  9  1  0
 11 12  1  0
 13 12  1  1
 13 15  1  0
 13 14  1  0
 14  7  1  0
 15 19  1  0
 16 15  2  0
 18 17  1  1
 18 20  1  0
 19 18  1  0
 20 22  2  0
 20 21  1  0
M  END
$$$$
