NMA.pdb
     RDKit          3D

 22 21  0  0  1  0  0  0  0  0999 V2000
    7.4283  -12.4531   17.6922 N   0  0  0  0  0  0  0  0  0  0  0  0
    8.1331  -13.5345   18.2467 C   0  0  0  0  0  0  0  0  0  0  0  0
    8.4015  -14.5327   17.5436 O   0  0  0  0  0  0  0  0  0  0  0  0
    8.5538  -13.4839   19.6633 C   0  0  0  0  0  0  0  0  0  0  0  0
    8.3586  -14.8420   20.2962 C   0  0  2  0  0  0  0  0  0  0  0  0
    6.9583  -15.1865   20.2141 N   0  0  0  0  0  0  0  0  0  0  0  0
    8.7488  -14.8516   21.7256 C   0  0  0  0  0  0  0  0  0  0  0  0
    9.9536  -14.7253   22.0993 O   0  0  0  0  0  0  0  0  0  0  0  0
    6.6638  -10.7486   26.6991 C   0  0  0  0  0  0  0  0  0  0  0  0
    7.0152  -12.5433   26.8399 S   0  0  0  0  0  0  0  0  0  0  0  0
    6.8276  -13.2444   25.2033 C   0  0  0  0  0  0  0  0  0  0  0  0
    7.0929  -14.6924   25.0815 C   0  0  0  0  0  0  0  0  0  0  0  0
    8.1577  -15.1581   24.1774 C   0  0  2  0  0  0  0  0  0  0  0  0
    7.7947  -15.0039   22.7842 N   0  0  0  0  0  0  0  0  0  0  0  0
    8.7307  -16.4788   24.4678 C   0  0  0  0  0  0  0  0  0  0  0  0
    8.1092  -17.5578   24.4308 O   0  0  0  0  0  0  0  0  0  0  0  0
   12.1708  -17.8384   24.8339 C   0  0  0  0  0  0  0  0  0  0  0  0
   10.7216  -17.8439   25.2162 C   0  0  2  0  0  0  0  0  0  0  0  0
   10.1075  -16.5644   24.8237 N   0  0  0  0  0  0  0  0  0  0  0  0
   10.6379  -17.9859   26.6890 C   0  0  0  0  0  0  0  0  0  0  0  0
   11.0853  -19.1071   27.3554 O   0  0  0  0  0  0  0  0  0  0  0  0
   10.1404  -17.0498   27.3584 O   0  0  0  0  0  0  0  0  0  0  0  0
  1  2  1  0
  2  4  1  0
  3  2  2  0
  4  5  1  0
  5  6  1  1
  7  5  1  0
  8  7  2  0
 10 11  1  0
 10  9  1  0
 11 12  1  0
 13 12  1  1
 13 15  1  0
 13 14  1  0
 14  7  1  0
 15 19  1  0
 16 15  2  0
 18 17  1  1
 18 20  1  0
 19 18  1  0
 20 22  2  0
 20 21  1  0
M  END
$$$$
