NMA.pdb
     RDKit          3D

 22 21  0  0  1  0  0  0  0  0999 V2000
    7.4261  -19.5783   19.1644 N   0  0  0  0  0  0  0  0  0  0  0  0
    8.4074  -18.5893   18.9846 C   0  0  0  0  0  0  0  0  0  0  0  0
    8.7081  -18.2088   17.8322 O   0  0  0  0  0  0  0  0  0  0  0  0
    9.0800  -18.0034   20.1637 C   0  0  0  0  0  0  0  0  0  0  0  0
    8.5834  -16.5925   20.3784 C   0  0  2  0  0  0  0  0  0  0  0  0
    9.1709  -15.7436   19.3682 N   0  0  0  0  0  0  0  0  0  0  0  0
    8.9728  -16.0609   21.7056 C   0  0  0  0  0  0  0  0  0  0  0  0
   10.1756  -16.0546   22.1060 O   0  0  0  0  0  0  0  0  0  0  0  0
    7.1164  -11.6144   27.9635 C   0  0  0  0  0  0  0  0  0  0  0  0
    6.7216  -12.0276   26.2205 S   0  0  0  0  0  0  0  0  0  0  0  0
    7.5118  -13.5932   25.8608 C   0  0  0  0  0  0  0  0  0  0  0  0
    7.3839  -14.0829   24.4730 C   0  0  0  0  0  0  0  0  0  0  0  0
    8.3612  -15.0559   23.9573 C   0  0  2  0  0  0  0  0  0  0  0  0
    8.0199  -15.5177   22.6282 N   0  0  0  0  0  0  0  0  0  0  0  0
    8.7273  -16.1555   24.8595 C   0  0  0  0  0  0  0  0  0  0  0  0
    7.9739  -17.0855   25.2046 O   0  0  0  0  0  0  0  0  0  0  0  0
   11.9776  -17.5526   25.9317 C   0  0  0  0  0  0  0  0  0  0  0  0
   10.5200  -17.3291   26.1997 C   0  0  2  0  0  0  0  0  0  0  0  0
   10.0452  -16.1877   25.3997 N   0  0  0  0  0  0  0  0  0  0  0  0
   10.3637  -17.0068   27.6378 C   0  0  0  0  0  0  0  0  0  0  0  0
   10.6917  -17.8955   28.6398 O   0  0  0  0  0  0  0  0  0  0  0  0
    9.9152  -15.8809   27.9587 O   0  0  0  0  0  0  0  0  0  0  0  0
  1  2  1  0
  2  4  1  0
  3  2  2  0
  4  5  1  0
  5  6  1  6
  7  5  1  0
  8  7  2  0
 10 11  1  0
 10  9  1  0
 11 12  1  0
 13 12  1  1
 13 15  1  0
 13 14  1  0
 14  7  1  0
 15 19  1  0
 16 15  2  0
 18 17  1  1
 18 20  1  0
 19 18  1  0
 20 22  2  0
 20 21  1  0
M  END
$$$$
