NMA.pdb
     RDKit          3D

 22 21  0  0  1  0  0  0  0  0999 V2000
    8.9694  -18.8909   18.2566 N   0  0  0  0  0  0  0  0  0  0  0  0
    8.0127  -17.9867   18.7470 C   0  0  0  0  0  0  0  0  0  0  0  0
    7.1089  -17.5630   17.9942 O   0  0  0  0  0  0  0  0  0  0  0  0
    8.0819  -17.5409   20.1551 C   0  0  0  0  0  0  0  0  0  0  0  0
    8.1937  -16.0347   20.2024 C   0  0  2  0  0  0  0  0  0  0  0  0
    9.1435  -15.6161   19.1980 N   0  0  0  0  0  0  0  0  0  0  0  0
    8.6768  -15.5532   21.5178 C   0  0  0  0  0  0  0  0  0  0  0  0
    9.9044  -15.5656   21.8340 O   0  0  0  0  0  0  0  0  0  0  0  0
    7.0737  -10.6839   26.3910 C   0  0  0  0  0  0  0  0  0  0  0  0
    6.3739  -12.3469   26.7215 S   0  0  0  0  0  0  0  0  0  0  0  0
    7.4958  -13.5408   25.9996 C   0  0  0  0  0  0  0  0  0  0  0  0
    7.2628  -13.8772   24.5802 C   0  0  0  0  0  0  0  0  0  0  0  0
    8.1935  -14.7866   23.8912 C   0  0  2  0  0  0  0  0  0  0  0  0
    7.7932  -15.0406   22.5231 N   0  0  0  0  0  0  0  0  0  0  0  0
    8.5590  -16.0147   24.6089 C   0  0  0  0  0  0  0  0  0  0  0  0
    7.7885  -16.9621   24.8545 O   0  0  0  0  0  0  0  0  0  0  0  0
   11.7828  -17.6610   25.3589 C   0  0  0  0  0  0  0  0  0  0  0  0
   10.3520  -17.4037   25.7239 C   0  0  2  0  0  0  0  0  0  0  0  0
    9.8974  -16.1629   25.0744 N   0  0  0  0  0  0  0  0  0  0  0  0
   10.2790  -17.2318   27.1940 C   0  0  0  0  0  0  0  0  0  0  0  0
   10.5626  -18.2516   28.0778 O   0  0  0  0  0  0  0  0  0  0  0  0
    9.9460  -16.1146   27.6553 O   0  0  0  0  0  0  0  0  0  0  0  0
  1  2  1  0
  2  4  1  0
  3  2  2  0
  4  5  1  0
  5  6  1  6
  7  5  1  0
  8  7  2  0
 10 11  1  0
 10  9  1  0
 11 12  1  0
 13 12  1  1
 13 15  1  0
 13 14  1  0
 14  7  1  0
 15 19  1  0
 16 15  2  0
 18 17  1  1
 18 20  1  0
 19 18  1  0
 20 22  2  0
 20 21  1  0
M  END
$$$$
