YQT.pdb
     RDKit          3D

 29 29  0  0  1  0  0  0  0  0999 V2000
   30.0627  -26.6206  -17.4835 O   0  0  0  0  0  0  0  0  0  0  0  0
   29.4275  -25.4555  -17.0934 C   0  0  0  0  0  0  0  0  0  0  0  0
   28.0489  -25.3987  -16.9390 C   0  0  0  0  0  0  0  0  0  0  0  0
   27.4359  -24.2456  -16.5539 C   0  0  0  0  0  0  0  0  0  0  0  0
   28.1661  -23.0889  -16.3034 C   0  0  0  0  0  0  0  0  0  0  0  0
   27.4188  -21.8696  -15.8880 C   0  0  0  0  0  0  0  0  0  0  0  0
   26.9808  -21.0524  -17.0697 C   0  0  2  0  0  0  0  0  0  0  0  0
   28.1482  -20.3592  -17.6208 N   0  0  0  0  0  0  0  0  0  0  0  0
   25.9757  -20.0394  -16.6418 C   0  0  0  0  0  0  0  0  0  0  0  0
   26.3162  -18.9603  -16.0806 O   0  0  0  0  0  0  0  0  0  0  0  0
   29.5128  -23.1412  -16.4533 C   0  0  0  0  0  0  0  0  0  0  0  0
   30.1467  -24.3205  -16.8471 C   0  0  0  0  0  0  0  0  0  0  0  0
   23.1171  -16.9763  -19.8855 N   0  0  0  0  0  0  0  0  0  0  0  0
   22.2393  -16.5835  -18.8463 C   0  0  0  0  0  0  0  0  0  0  0  0
   21.4115  -15.6713  -18.9623 O   0  0  0  0  0  0  0  0  0  0  0  0
   22.3360  -17.3253  -17.5479 C   0  0  0  0  0  0  0  0  0  0  0  0
   23.3845  -18.3850  -17.6655 C   0  0  0  0  0  0  0  0  0  0  0  0
   23.6027  -19.2109  -16.4492 C   0  0  2  0  0  0  0  0  0  0  0  0
   24.5930  -20.2387  -16.8440 N   0  0  0  0  0  0  0  0  0  0  0  0
   22.4609  -19.9155  -15.8879 C   0  0  0  0  0  0  0  0  0  0  0  0
   21.9084  -20.9011  -16.4921 O   0  0  0  0  0  0  0  0  0  0  0  0
   21.8493  -20.7384  -11.8931 C   0  0  0  0  0  0  0  0  0  0  0  0
   20.6896  -20.0937  -12.6025 C   0  0  1  0  0  0  0  0  0  0  0  0
   20.6419  -18.7688  -12.1579 O   0  0  0  0  0  0  0  0  0  0  0  0
   20.7183  -20.1955  -14.0841 C   0  0  2  0  0  0  0  0  0  0  0  0
   21.9102  -19.5462  -14.6374 N   0  0  0  0  0  0  0  0  0  0  0  0
   19.4887  -19.5793  -14.7039 C   0  0  0  0  0  0  0  0  0  0  0  0
   19.5362  -18.5986  -15.4579 O   0  0  0  0  0  0  0  0  0  0  0  0
   18.2781  -20.1714  -14.3897 O   0  0  0  0  0  0  0  0  0  0  0  0
  2  3  2  0
  2  1  1  0
  4  3  1  0
  5  4  2  0
  6  5  1  0
  7  6  1  0
  7  8  1  1
  9  7  1  0
  9 10  2  0
 11  5  1  0
 11 12  2  0
 12  2  1  0
 14 13  1  0
 15 14  2  0
 16 14  1  0
 18 17  1  6
 17 16  1  0
 18 19  1  0
 19  9  1  0
 20 18  1  0
 21 20  2  0
 23 22  1  1
 23 25  1  0
 24 23  1  0
 25 27  1  0
 25 26  1  6
 26 20  1  0
 27 29  1  0
 28 27  2  0
M  END
$$$$
