YQT.pdb
     RDKit          3D

 29 29  0  0  1  0  0  0  0  0999 V2000
   22.6705   -2.1979  -13.9665 O   0  0  0  0  0  0  0  0  0  0  0  0
   22.6101   -3.5434  -14.2808 C   0  0  0  0  0  0  0  0  0  0  0  0
   23.4756   -4.1109  -15.2063 C   0  0  0  0  0  0  0  0  0  0  0  0
   23.4061   -5.4371  -15.5064 C   0  0  0  0  0  0  0  0  0  0  0  0
   22.4692   -6.2662  -14.8993 C   0  0  0  0  0  0  0  0  0  0  0  0
   22.4585   -7.7047  -15.2847 C   0  0  0  0  0  0  0  0  0  0  0  0
   21.7558   -7.9278  -16.5933 C   0  0  2  0  0  0  0  0  0  0  0  0
   20.3346   -7.6145  -16.4233 N   0  0  0  0  0  0  0  0  0  0  0  0
   21.8896   -9.3534  -17.0047 C   0  0  0  0  0  0  0  0  0  0  0  0
   20.9745  -10.1968  -16.7889 O   0  0  0  0  0  0  0  0  0  0  0  0
   21.6224   -5.7150  -13.9949 C   0  0  0  0  0  0  0  0  0  0  0  0
   21.6895   -4.3564  -13.6828 C   0  0  0  0  0  0  0  0  0  0  0  0
   21.5002  -13.8938  -18.9406 N   0  0  0  0  0  0  0  0  0  0  0  0
   20.4274  -13.0337  -18.6025 C   0  0  0  0  0  0  0  0  0  0  0  0
   19.3114  -13.4405  -18.2564 O   0  0  0  0  0  0  0  0  0  0  0  0
   20.6803  -11.5585  -18.6749 C   0  0  0  0  0  0  0  0  0  0  0  0
   22.0622  -11.3229  -19.1954 C   0  0  0  0  0  0  0  0  0  0  0  0
   23.1279  -11.2178  -18.1646 C   0  0  2  0  0  0  0  0  0  0  0  0
   23.0479   -9.8293  -17.6561 N   0  0  0  0  0  0  0  0  0  0  0  0
   24.5041  -11.4388  -18.5798 C   0  0  0  0  0  0  0  0  0  0  0  0
   25.1423  -10.5870  -19.2931 O   0  0  0  0  0  0  0  0  0  0  0  0
   27.5997  -12.1404  -16.3793 C   0  0  0  0  0  0  0  0  0  0  0  0
   27.4278  -13.2186  -17.4144 C   0  0  1  0  0  0  0  0  0  0  0  0
   26.9223  -14.3352  -16.7414 O   0  0  0  0  0  0  0  0  0  0  0  0
   26.6021  -12.8414  -18.5901 C   0  0  2  0  0  0  0  0  0  0  0  0
   25.2069  -12.6091  -18.2057 N   0  0  0  0  0  0  0  0  0  0  0  0
   26.6483  -13.9029  -19.6609 C   0  0  0  0  0  0  0  0  0  0  0  0
   25.6724  -14.6075  -19.9507 O   0  0  0  0  0  0  0  0  0  0  0  0
   27.8535  -14.0578  -20.3230 O   0  0  0  0  0  0  0  0  0  0  0  0
  2  3  2  0
  2  1  1  0
  4  3  1  0
  5  4  2  0
  6  5  1  0
  7  6  1  0
  7  8  1  1
  9  7  1  0
  9 10  2  0
 11  5  1  0
 11 12  2  0
 12  2  1  0
 14 13  1  0
 15 14  2  0
 16 14  1  0
 18 17  1  6
 17 16  1  0
 18 19  1  0
 19  9  1  0
 20 18  1  0
 21 20  2  0
 23 22  1  1
 23 25  1  0
 24 23  1  0
 25 27  1  0
 25 26  1  1
 26 20  1  0
 27 29  1  0
 28 27  2  0
M  END
$$$$
