YQT.pdb
     RDKit          3D

 29 29  0  0  1  0  0  0  0  0999 V2000
   14.8487  -17.2228  -14.4017 O   0  0  0  0  0  0  0  0  0  0  0  0
   15.9863  -17.9748  -14.1709 C   0  0  0  0  0  0  0  0  0  0  0  0
   15.9481  -19.1284  -13.3994 C   0  0  0  0  0  0  0  0  0  0  0  0
   17.0751  -19.8601  -13.1803 C   0  0  0  0  0  0  0  0  0  0  0  0
   18.2992  -19.4788  -13.7189 C   0  0  0  0  0  0  0  0  0  0  0  0
   19.4841  -20.3335  -13.4300 C   0  0  0  0  0  0  0  0  0  0  0  0
   19.8341  -21.2159  -14.5940 C   0  0  2  0  0  0  0  0  0  0  0  0
   18.8345  -22.2827  -14.6927 N   0  0  0  0  0  0  0  0  0  0  0  0
   21.1749  -21.8294  -14.3806 C   0  0  0  0  0  0  0  0  0  0  0  0
   21.3293  -22.8584  -13.6646 O   0  0  0  0  0  0  0  0  0  0  0  0
   18.3398  -18.3525  -14.4729 C   0  0  0  0  0  0  0  0  0  0  0  0
   17.1876  -17.5989  -14.7015 C   0  0  0  0  0  0  0  0  0  0  0  0
   23.9750  -25.1564  -15.5606 N   0  0  0  0  0  0  0  0  0  0  0  0
   25.2774  -24.6372  -15.7590 C   0  0  0  0  0  0  0  0  0  0  0  0
   26.3022  -25.3278  -15.6997 O   0  0  0  0  0  0  0  0  0  0  0  0
   25.3957  -23.1730  -16.0547 C   0  0  0  0  0  0  0  0  0  0  0  0
   24.0357  -22.5529  -16.0135 C   0  0  0  0  0  0  0  0  0  0  0  0
   23.6701  -21.8901  -14.7342 C   0  0  2  0  0  0  0  0  0  0  0  0
   22.3378  -21.2881  -14.9697 N   0  0  0  0  0  0  0  0  0  0  0  0
   24.5345  -20.8286  -14.2434 C   0  0  0  0  0  0  0  0  0  0  0  0
   24.4448  -19.6261  -14.6769 O   0  0  0  0  0  0  0  0  0  0  0  0
   26.3809  -20.6636  -10.4085 C   0  0  0  0  0  0  0  0  0  0  0  0
   27.2341  -20.4814  -11.6342 C   0  0  1  0  0  0  0  0  0  0  0  0
   27.9356  -21.6783  -11.8087 O   0  0  0  0  0  0  0  0  0  0  0  0
   26.5024  -20.0675  -12.8588 C   0  0  2  0  0  0  0  0  0  0  0  0
   25.5149  -21.0763  -13.2529 N   0  0  0  0  0  0  0  0  0  0  0  0
   27.4460  -19.8249  -14.0105 C   0  0  0  0  0  0  0  0  0  0  0  0
   27.4542  -20.5256  -15.0311 O   0  0  0  0  0  0  0  0  0  0  0  0
   28.3200  -18.7604  -13.8769 O   0  0  0  0  0  0  0  0  0  0  0  0
  2  3  2  0
  2  1  1  0
  4  3  1  0
  5  4  2  0
  6  5  1  0
  7  6  1  0
  7  8  1  1
  9  7  1  0
  9 10  2  0
 11  5  1  0
 11 12  2  0
 12  2  1  0
 14 13  1  0
 15 14  2  0
 16 14  1  0
 18 17  1  6
 17 16  1  0
 18 19  1  0
 19  9  1  0
 20 18  1  0
 21 20  2  0
 23 22  1  1
 23 25  1  0
 24 23  1  0
 25 27  1  0
 25 26  1  6
 26 20  1  0
 27 29  1  0
 28 27  2  0
M  END
$$$$
