YQT.pdb
     RDKit          3D

 29 29  0  0  1  0  0  0  0  0999 V2000
   15.9660  -15.9963  -20.8178 O   0  0  0  0  0  0  0  0  0  0  0  0
   17.0847  -16.1358  -20.0165 C   0  0  0  0  0  0  0  0  0  0  0  0
   17.3045  -15.3029  -18.9277 C   0  0  0  0  0  0  0  0  0  0  0  0
   18.4097  -15.4511  -18.1465 C   0  0  0  0  0  0  0  0  0  0  0  0
   19.3534  -16.4376  -18.4110 C   0  0  0  0  0  0  0  0  0  0  0  0
   20.5347  -16.5316  -17.5089 C   0  0  0  0  0  0  0  0  0  0  0  0
   20.3307  -17.5511  -16.4249 C   0  0  2  0  0  0  0  0  0  0  0  0
   19.3733  -17.0180  -15.4521 N   0  0  0  0  0  0  0  0  0  0  0  0
   21.6220  -17.8211  -15.7326 C   0  0  0  0  0  0  0  0  0  0  0  0
   21.9856  -17.1585  -14.7206 O   0  0  0  0  0  0  0  0  0  0  0  0
   19.1415  -17.2528  -19.4737 C   0  0  0  0  0  0  0  0  0  0  0  0
   18.0102  -17.1060  -20.2776 C   0  0  0  0  0  0  0  0  0  0  0  0
   23.1808  -20.4152  -11.6340 N   0  0  0  0  0  0  0  0  0  0  0  0
   22.2528  -20.9673  -12.5500 C   0  0  0  0  0  0  0  0  0  0  0  0
   21.4119  -21.8193  -12.2374 O   0  0  0  0  0  0  0  0  0  0  0  0
   22.3111  -20.4792  -13.9655 C   0  0  0  0  0  0  0  0  0  0  0  0
   23.4060  -19.4685  -14.0910 C   0  0  0  0  0  0  0  0  0  0  0  0
   23.7814  -19.0970  -15.4804 C   0  0  2  0  0  0  0  0  0  0  0  0
   22.5014  -18.8321  -16.1763 N   0  0  0  0  0  0  0  0  0  0  0  0
   24.5032  -20.0757  -16.2780 C   0  0  0  0  0  0  0  0  0  0  0  0
   24.2174  -21.3242  -16.2410 O   0  0  0  0  0  0  0  0  0  0  0  0
   28.2664  -18.5685  -16.6960 C   0  0  0  0  0  0  0  0  0  0  0  0
   27.9304  -19.6560  -17.6800 C   0  0  1  0  0  0  0  0  0  0  0  0
   29.0986  -20.4040  -17.8559 O   0  0  0  0  0  0  0  0  0  0  0  0
   26.7639  -20.5005  -17.3161 C   0  0  2  0  0  0  0  0  0  0  0  0
   25.5557  -19.6893  -17.1420 N   0  0  0  0  0  0  0  0  0  0  0  0
   27.0204  -21.2809  -16.0509 C   0  0  0  0  0  0  0  0  0  0  0  0
   26.6892  -20.8715  -14.9304 O   0  0  0  0  0  0  0  0  0  0  0  0
   27.6531  -22.5027  -16.1985 O   0  0  0  0  0  0  0  0  0  0  0  0
  2  3  2  0
  2  1  1  0
  4  3  1  0
  5  4  2  0
  6  5  1  0
  7  6  1  0
  7  8  1  1
  9  7  1  0
  9 10  2  0
 11  5  1  0
 11 12  2  0
 12  2  1  0
 14 13  1  0
 15 14  2  0
 16 14  1  0
 18 17  1  1
 17 16  1  0
 18 19  1  0
 19  9  1  0
 20 18  1  0
 21 20  2  0
 23 22  1  1
 23 25  1  0
 24 23  1  0
 25 27  1  0
 25 26  1  1
 26 20  1  0
 27 29  1  0
 28 27  2  0
M  END
$$$$
