YQT.pdb
     RDKit          3D

 29 29  0  0  1  0  0  0  0  0999 V2000
   32.7904  -10.7256  -19.4565 O   0  0  0  0  0  0  0  0  0  0  0  0
   31.6623  -10.0517  -19.0248 C   0  0  0  0  0  0  0  0  0  0  0  0
   30.9371  -10.4843  -17.9229 C   0  0  0  0  0  0  0  0  0  0  0  0
   29.8286   -9.8114  -17.5078 C   0  0  0  0  0  0  0  0  0  0  0  0
   29.3856   -8.6721  -18.1708 C   0  0  0  0  0  0  0  0  0  0  0  0
   28.1636   -7.9960  -17.6536 C   0  0  0  0  0  0  0  0  0  0  0  0
   26.9304   -8.8247  -17.8738 C   0  0  2  0  0  0  0  0  0  0  0  0
   26.7374   -9.0068  -19.3149 N   0  0  0  0  0  0  0  0  0  0  0  0
   25.7413   -8.1242  -17.3126 C   0  0  0  0  0  0  0  0  0  0  0  0
   25.6653   -7.8184  -16.0895 O   0  0  0  0  0  0  0  0  0  0  0  0
   30.0919   -8.2469  -19.2475 C   0  0  0  0  0  0  0  0  0  0  0  0
   31.2292   -8.9322  -19.6770 C   0  0  0  0  0  0  0  0  0  0  0  0
   22.2656   -4.4844  -20.5080 N   0  0  0  0  0  0  0  0  0  0  0  0
   21.2899   -4.6451  -19.4944 C   0  0  0  0  0  0  0  0  0  0  0  0
   20.1919   -4.0751  -19.5095 O   0  0  0  0  0  0  0  0  0  0  0  0
   21.6271   -5.5575  -18.3546 C   0  0  0  0  0  0  0  0  0  0  0  0
   22.9638   -6.1797  -18.6034 C   0  0  0  0  0  0  0  0  0  0  0  0
   23.4451   -7.1113  -17.5499 C   0  0  2  0  0  0  0  0  0  0  0  0
   24.6417   -7.7691  -18.1232 N   0  0  0  0  0  0  0  0  0  0  0  0
   22.5484   -8.1692  -17.1119 C   0  0  0  0  0  0  0  0  0  0  0  0
   22.1231   -9.0732  -17.9142 O   0  0  0  0  0  0  0  0  0  0  0  0
   22.6911   -9.6166  -13.2323 C   0  0  0  0  0  0  0  0  0  0  0  0
   22.0088  -10.2672  -14.4050 C   0  0  1  0  0  0  0  0  0  0  0  0
   21.2029  -11.2820  -13.8797 O   0  0  0  0  0  0  0  0  0  0  0  0
   21.2548   -9.3434  -15.2907 C   0  0  2  0  0  0  0  0  0  0  0  0
   22.1086   -8.2524  -15.7691 N   0  0  0  0  0  0  0  0  0  0  0  0
   20.0558   -8.7587  -14.5864 C   0  0  0  0  0  0  0  0  0  0  0  0
   19.9895   -7.5696  -14.2480 O   0  0  0  0  0  0  0  0  0  0  0  0
   19.0080   -9.6258  -14.3310 O   0  0  0  0  0  0  0  0  0  0  0  0
  2  3  2  0
  2  1  1  0
  4  3  1  0
  5  4  2  0
  6  5  1  0
  7  6  1  0
  7  8  1  6
  9  7  1  0
  9 10  2  0
 11  5  1  0
 11 12  2  0
 12  2  1  0
 14 13  1  0
 15 14  2  0
 16 14  1  0
 18 17  1  6
 17 16  1  0
 18 19  1  0
 19  9  1  0
 20 18  1  0
 21 20  2  0
 23 22  1  1
 23 25  1  0
 24 23  1  0
 25 27  1  0
 25 26  1  1
 26 20  1  0
 27 29  1  0
 28 27  2  0
M  END
$$$$
