YQT.pdb
     RDKit          3D

 29 29  0  0  1  0  0  0  0  0999 V2000
   17.1190  -15.1535  -19.0627 O   0  0  0  0  0  0  0  0  0  0  0  0
   17.4133  -13.9806  -18.3915 C   0  0  0  0  0  0  0  0  0  0  0  0
   17.4174  -13.9209  -17.0045 C   0  0  0  0  0  0  0  0  0  0  0  0
   17.7094  -12.7600  -16.3558 C   0  0  0  0  0  0  0  0  0  0  0  0
   18.0119  -11.5979  -17.0571 C   0  0  0  0  0  0  0  0  0  0  0  0
   18.3182  -10.3701  -16.2719 C   0  0  0  0  0  0  0  0  0  0  0  0
   19.7884  -10.0623  -16.2662 C   0  0  2  0  0  0  0  0  0  0  0  0
   20.4892  -11.1278  -15.5448 N   0  0  0  0  0  0  0  0  0  0  0  0
   20.0331   -8.7674  -15.5712 C   0  0  0  0  0  0  0  0  0  0  0  0
   20.0674   -8.6847  -14.3113 O   0  0  0  0  0  0  0  0  0  0  0  0
   18.0089  -11.6529  -18.4120 C   0  0  0  0  0  0  0  0  0  0  0  0
   17.7110  -12.8402  -19.0823 C   0  0  0  0  0  0  0  0  0  0  0  0
   21.8111   -5.8038  -13.0248 N   0  0  0  0  0  0  0  0  0  0  0  0
   22.3923   -4.7037  -13.7007 C   0  0  0  0  0  0  0  0  0  0  0  0
   22.8051   -3.6903  -13.1232 O   0  0  0  0  0  0  0  0  0  0  0  0
   22.5027   -4.7940  -15.1924 C   0  0  0  0  0  0  0  0  0  0  0  0
   21.9883   -6.1240  -15.6425 C   0  0  0  0  0  0  0  0  0  0  0  0
   20.5124   -6.2926  -15.5924 C   0  0  2  0  0  0  0  0  0  0  0  0
   20.2385   -7.5700  -16.2898 N   0  0  0  0  0  0  0  0  0  0  0  0
   19.6868   -5.2774  -16.2271 C   0  0  0  0  0  0  0  0  0  0  0  0
   19.8301   -4.9604  -17.4603 O   0  0  0  0  0  0  0  0  0  0  0  0
   15.7119   -4.9335  -16.1612 C   0  0  0  0  0  0  0  0  0  0  0  0
   16.4211   -3.6943  -15.6866 C   0  0  1  0  0  0  0  0  0  0  0  0
   16.2889   -3.6723  -14.2947 O   0  0  0  0  0  0  0  0  0  0  0  0
   17.8343   -3.5666  -16.1255 C   0  0  2  0  0  0  0  0  0  0  0  0
   18.6765   -4.5949  -15.5080 N   0  0  0  0  0  0  0  0  0  0  0  0
   18.3947   -2.2058  -15.7940 C   0  0  0  0  0  0  0  0  0  0  0  0
   19.3442   -2.0416  -15.0166 O   0  0  0  0  0  0  0  0  0  0  0  0
   17.7915   -1.1242  -16.4114 O   0  0  0  0  0  0  0  0  0  0  0  0
  2  3  2  0
  2  1  1  0
  4  3  1  0
  5  4  2  0
  6  5  1  0
  7  6  1  0
  7  8  1  1
  9  7  1  0
  9 10  2  0
 11  5  1  0
 11 12  2  0
 12  2  1  0
 14 13  1  0
 15 14  2  0
 16 14  1  0
 18 17  1  6
 17 16  1  0
 18 19  1  0
 19  9  1  0
 20 18  1  0
 21 20  2  0
 23 22  1  1
 23 25  1  0
 24 23  1  0
 25 27  1  0
 25 26  1  1
 26 20  1  0
 27 29  1  0
 28 27  2  0
M  END
$$$$
