YQT.pdb
     RDKit          3D

 29 29  0  0  1  0  0  0  0  0999 V2000
   28.8416  -18.9090   -5.3310 O   0  0  0  0  0  0  0  0  0  0  0  0
   28.3513  -19.2320   -6.5833 C   0  0  0  0  0  0  0  0  0  0  0  0
   28.8729  -20.2904   -7.3148 C   0  0  0  0  0  0  0  0  0  0  0  0
   28.3808  -20.5984   -8.5463 C   0  0  0  0  0  0  0  0  0  0  0  0
   27.3430  -19.8661   -9.1125 C   0  0  0  0  0  0  0  0  0  0  0  0
   26.8639  -20.2673  -10.4644 C   0  0  0  0  0  0  0  0  0  0  0  0
   25.5608  -21.0113  -10.3978 C   0  0  2  0  0  0  0  0  0  0  0  0
   25.7773  -22.2765   -9.6910 N   0  0  0  0  0  0  0  0  0  0  0  0
   25.0732  -21.3051  -11.7745 C   0  0  0  0  0  0  0  0  0  0  0  0
   25.1061  -22.4719  -12.2571 O   0  0  0  0  0  0  0  0  0  0  0  0
   26.8312  -18.8317   -8.4005 C   0  0  0  0  0  0  0  0  0  0  0  0
   27.3312  -18.5119   -7.1374 C   0  0  0  0  0  0  0  0  0  0  0  0
   20.7349  -23.1457  -13.0818 N   0  0  0  0  0  0  0  0  0  0  0  0
   20.7084  -21.9662  -12.2987 C   0  0  0  0  0  0  0  0  0  0  0  0
   19.8210  -21.7164  -11.4735 O   0  0  0  0  0  0  0  0  0  0  0  0
   21.8231  -20.9846  -12.4969 C   0  0  0  0  0  0  0  0  0  0  0  0
   22.7568  -21.5073  -13.5413 C   0  0  0  0  0  0  0  0  0  0  0  0
   23.8927  -20.6151  -13.8923 C   0  0  2  0  0  0  0  0  0  0  0  0
   24.5506  -20.2911  -12.6058 N   0  0  0  0  0  0  0  0  0  0  0  0
   23.5919  -19.3508  -14.5452 C   0  0  0  0  0  0  0  0  0  0  0  0
   23.3113  -18.2932  -13.8784 O   0  0  0  0  0  0  0  0  0  0  0  0
   24.7620  -18.7263  -18.6362 C   0  0  0  0  0  0  0  0  0  0  0  0
   24.5661  -17.6823  -17.5706 C   0  0  1  0  0  0  0  0  0  0  0  0
   24.4385  -16.4587  -18.2352 O   0  0  0  0  0  0  0  0  0  0  0  0
   23.4440  -17.9391  -16.6318 C   0  0  2  0  0  0  0  0  0  0  0  0
   23.6032  -19.2296  -15.9554 N   0  0  0  0  0  0  0  0  0  0  0  0
   22.1133  -17.9156  -17.3421 C   0  0  0  0  0  0  0  0  0  0  0  0
   21.3551  -18.8935  -17.3805 O   0  0  0  0  0  0  0  0  0  0  0  0
   21.7662  -16.7273  -17.9605 O   0  0  0  0  0  0  0  0  0  0  0  0
  2  3  2  0
  2  1  1  0
  4  3  1  0
  5  4  2  0
  6  5  1  0
  7  6  1  0
  7  8  1  1
  9  7  1  0
  9 10  2  0
 11  5  1  0
 11 12  2  0
 12  2  1  0
 14 13  1  0
 15 14  2  0
 16 14  1  0
 18 17  1  1
 17 16  1  0
 18 19  1  0
 19  9  1  0
 20 18  1  0
 21 20  2  0
 23 22  1  6
 23 25  1  0
 24 23  1  0
 25 27  1  0
 25 26  1  6
 26 20  1  0
 27 29  1  0
 28 27  2  0
M  END
$$$$
