YQT.pdb
     RDKit          3D

 29 29  0  0  1  0  0  0  0  0999 V2000
   22.9624  -18.1952  -14.9182 O   0  0  0  0  0  0  0  0  0  0  0  0
   22.9875  -16.8303  -15.1402 C   0  0  0  0  0  0  0  0  0  0  0  0
   21.9307  -16.1775  -15.7604 C   0  0  0  0  0  0  0  0  0  0  0  0
   21.9676  -14.8331  -15.9725 C   0  0  0  0  0  0  0  0  0  0  0  0
   23.0610  -14.0699  -15.5776 C   0  0  0  0  0  0  0  0  0  0  0  0
   23.0230  -12.6059  -15.8481 C   0  0  0  0  0  0  0  0  0  0  0  0
   23.1222  -12.3059  -17.3165 C   0  0  2  0  0  0  0  0  0  0  0  0
   24.4165  -12.7857  -17.8081 N   0  0  0  0  0  0  0  0  0  0  0  0
   23.0359  -10.8356  -17.5411 C   0  0  0  0  0  0  0  0  0  0  0  0
   24.0687  -10.1227  -17.6839 O   0  0  0  0  0  0  0  0  0  0  0  0
   24.0948  -14.7046  -14.9715 C   0  0  0  0  0  0  0  0  0  0  0  0
   24.0621  -16.0822  -14.7508 C   0  0  0  0  0  0  0  0  0  0  0  0
   21.2157   -8.8709  -21.9448 N   0  0  0  0  0  0  0  0  0  0  0  0
   20.1307   -9.4479  -21.2414 C   0  0  0  0  0  0  0  0  0  0  0  0
   19.2007  -10.0466  -21.7959 O   0  0  0  0  0  0  0  0  0  0  0  0
   20.1303   -9.3139  -19.7489 C   0  0  0  0  0  0  0  0  0  0  0  0
   21.3738   -8.6028  -19.3201 C   0  0  0  0  0  0  0  0  0  0  0  0
   21.7137   -8.7159  -17.8775 C   0  0  2  0  0  0  0  0  0  0  0  0
   21.7932  -10.1692  -17.6048 N   0  0  0  0  0  0  0  0  0  0  0  0
   20.7845   -8.1531  -16.9106 C   0  0  0  0  0  0  0  0  0  0  0  0
   19.6520   -8.6983  -16.6615 O   0  0  0  0  0  0  0  0  0  0  0  0
   21.2427   -7.9539  -13.3543 C   0  0  0  0  0  0  0  0  0  0  0  0
   20.9038   -6.5573  -13.7996 C   0  0  1  0  0  0  0  0  0  0  0  0
   22.0945   -5.8261  -13.7471 O   0  0  0  0  0  0  0  0  0  0  0  0
   20.2345   -6.4596  -15.1221 C   0  0  2  0  0  0  0  0  0  0  0  0
   21.0950   -6.9743  -16.1912 N   0  0  0  0  0  0  0  0  0  0  0  0
   19.8483   -5.0369  -15.4418 C   0  0  0  0  0  0  0  0  0  0  0  0
   20.3590   -4.3944  -16.3687 O   0  0  0  0  0  0  0  0  0  0  0  0
   18.8749   -4.4678  -14.6396 O   0  0  0  0  0  0  0  0  0  0  0  0
  2  3  2  0
  2  1  1  0
  4  3  1  0
  5  4  2  0
  6  5  1  0
  7  6  1  0
  7  8  1  1
  9  7  1  0
  9 10  2  0
 11  5  1  0
 11 12  2  0
 12  2  1  0
 14 13  1  0
 15 14  2  0
 16 14  1  0
 18 17  1  6
 17 16  1  0
 18 19  1  0
 19  9  1  0
 20 18  1  0
 21 20  2  0
 23 22  1  6
 23 25  1  0
 24 23  1  0
 25 27  1  0
 25 26  1  6
 26 20  1  0
 27 29  1  0
 28 27  2  0
M  END
$$$$
