YQT.pdb
     RDKit          3D

 29 29  0  0  1  0  0  0  0  0999 V2000
   12.3886  -11.9144  -18.7647 O   0  0  0  0  0  0  0  0  0  0  0  0
   13.4235  -11.3361  -18.0523 C   0  0  0  0  0  0  0  0  0  0  0  0
   14.6561  -11.0853  -18.6398 C   0  0  0  0  0  0  0  0  0  0  0  0
   15.6665  -10.5148  -17.9276 C   0  0  0  0  0  0  0  0  0  0  0  0
   15.5001  -10.1654  -16.5919 C   0  0  0  0  0  0  0  0  0  0  0  0
   16.6557   -9.5476  -15.8842 C   0  0  0  0  0  0  0  0  0  0  0  0
   17.7099  -10.5618  -15.5433 C   0  0  2  0  0  0  0  0  0  0  0  0
   17.1978  -11.4343  -14.4835 N   0  0  0  0  0  0  0  0  0  0  0  0
   18.9361   -9.8736  -15.0512 C   0  0  0  0  0  0  0  0  0  0  0  0
   19.1004   -9.6002  -13.8290 O   0  0  0  0  0  0  0  0  0  0  0  0
   14.2973  -10.4090  -16.0151 C   0  0  0  0  0  0  0  0  0  0  0  0
   13.2577  -10.9928  -16.7405 C   0  0  0  0  0  0  0  0  0  0  0  0
   23.7437  -10.8519  -14.9710 N   0  0  0  0  0  0  0  0  0  0  0  0
   24.3727   -9.6065  -15.2129 C   0  0  0  0  0  0  0  0  0  0  0  0
   25.4977   -9.3176  -14.7868 O   0  0  0  0  0  0  0  0  0  0  0  0
   23.6176   -8.6025  -16.0297 C   0  0  0  0  0  0  0  0  0  0  0  0
   22.2693   -9.1562  -16.3634 C   0  0  0  0  0  0  0  0  0  0  0  0
   21.1703   -8.7723  -15.4391 C   0  0  2  0  0  0  0  0  0  0  0  0
   19.9737   -9.4939  -15.9296 N   0  0  0  0  0  0  0  0  0  0  0  0
   20.8112   -7.3658  -15.3515 C   0  0  0  0  0  0  0  0  0  0  0  0
   21.5318   -6.5205  -14.7127 O   0  0  0  0  0  0  0  0  0  0  0  0
   19.9325   -4.9519  -18.3523 C   0  0  0  0  0  0  0  0  0  0  0  0
   18.8589   -4.9742  -17.2985 C   0  0  1  0  0  0  0  0  0  0  0  0
   17.8130   -5.7443  -17.8165 O   0  0  0  0  0  0  0  0  0  0  0  0
   19.2976   -5.4396  -15.9579 C   0  0  2  0  0  0  0  0  0  0  0  0
   19.6460   -6.8631  -15.9784 N   0  0  0  0  0  0  0  0  0  0  0  0
   18.2311   -5.2080  -14.9165 C   0  0  0  0  0  0  0  0  0  0  0  0
   17.8495   -4.0777  -14.5857 O   0  0  0  0  0  0  0  0  0  0  0  0
   17.6822   -6.3376  -14.3352 O   0  0  0  0  0  0  0  0  0  0  0  0
  2  3  2  0
  2  1  1  0
  4  3  1  0
  5  4  2  0
  6  5  1  0
  7  6  1  0
  7  8  1  1
  9  7  1  0
  9 10  2  0
 11  5  1  0
 11 12  2  0
 12  2  1  0
 14 13  1  0
 15 14  2  0
 16 14  1  0
 18 17  1  6
 17 16  1  0
 18 19  1  0
 19  9  1  0
 20 18  1  0
 21 20  2  0
 23 22  1  6
 23 25  1  0
 24 23  1  0
 25 27  1  0
 25 26  1  6
 26 20  1  0
 27 29  1  0
 28 27  2  0
M  END
$$$$
