YQT.pdb
     RDKit          3D

 29 29  0  0  1  0  0  0  0  0999 V2000
   30.7421  -11.7573  -16.1873 O   0  0  0  0  0  0  0  0  0  0  0  0
   29.5219  -11.1177  -16.3103 C   0  0  0  0  0  0  0  0  0  0  0  0
   29.3413  -10.0662  -17.1987 C   0  0  0  0  0  0  0  0  0  0  0  0
   28.1348   -9.4454  -17.3106 C   0  0  0  0  0  0  0  0  0  0  0  0
   27.0456   -9.8408  -16.5416 C   0  0  0  0  0  0  0  0  0  0  0  0
   25.7617   -9.1085  -16.7235 C   0  0  0  0  0  0  0  0  0  0  0  0
   24.7271   -9.9553  -17.4081 C   0  0  2  0  0  0  0  0  0  0  0  0
   25.2699  -10.4175  -18.6883 N   0  0  0  0  0  0  0  0  0  0  0  0
   23.5014   -9.1489  -17.6668 C   0  0  0  0  0  0  0  0  0  0  0  0
   23.3291   -8.5306  -18.7546 O   0  0  0  0  0  0  0  0  0  0  0  0
   27.2188  -10.8676  -15.6730 C   0  0  0  0  0  0  0  0  0  0  0  0
   28.4531  -11.5082  -15.5545 C   0  0  0  0  0  0  0  0  0  0  0  0
   17.8008  -10.2450  -15.7946 N   0  0  0  0  0  0  0  0  0  0  0  0
   18.8309  -10.2970  -14.8246 C   0  0  0  0  0  0  0  0  0  0  0  0
   18.6533  -10.6825  -13.6624 O   0  0  0  0  0  0  0  0  0  0  0  0
   20.1987   -9.8575  -15.2505 C   0  0  0  0  0  0  0  0  0  0  0  0
   20.1322   -9.3350  -16.6499 C   0  0  0  0  0  0  0  0  0  0  0  0
   21.1935   -8.3641  -17.0245 C   0  0  2  0  0  0  0  0  0  0  0  0
   22.4732   -9.0378  -16.7061 N   0  0  0  0  0  0  0  0  0  0  0  0
   21.2118   -7.0771  -16.3475 C   0  0  0  0  0  0  0  0  0  0  0  0
   21.9038   -6.8781  -15.2876 O   0  0  0  0  0  0  0  0  0  0  0  0
   19.8511   -3.4689  -18.3072 C   0  0  0  0  0  0  0  0  0  0  0  0
   20.7914   -3.5828  -17.1383 C   0  0  1  0  0  0  0  0  0  0  0  0
   20.8224   -2.3231  -16.5321 O   0  0  0  0  0  0  0  0  0  0  0  0
   20.4759   -4.6692  -16.1758 C   0  0  2  0  0  0  0  0  0  0  0  0
   20.4670   -5.9773  -16.8368 N   0  0  0  0  0  0  0  0  0  0  0  0
   19.1419   -4.4452  -15.5080 C   0  0  0  0  0  0  0  0  0  0  0  0
   18.1713   -5.1945  -15.6783 O   0  0  0  0  0  0  0  0  0  0  0  0
   19.0470   -3.3437  -14.6757 O   0  0  0  0  0  0  0  0  0  0  0  0
  2  3  2  0
  2  1  1  0
  4  3  1  0
  5  4  2  0
  6  5  1  0
  7  6  1  0
  7  8  1  6
  9  7  1  0
  9 10  2  0
 11  5  1  0
 11 12  2  0
 12  2  1  0
 14 13  1  0
 15 14  2  0
 16 14  1  0
 18 17  1  1
 17 16  1  0
 18 19  1  0
 19  9  1  0
 20 18  1  0
 21 20  2  0
 23 22  1  6
 23 25  1  0
 24 23  1  0
 25 27  1  0
 25 26  1  6
 26 20  1  0
 27 29  1  0
 28 27  2  0
M  END
$$$$
