YQT.pdb
     RDKit          3D

 29 29  0  0  1  0  0  0  0  0999 V2000
   15.4042   -0.3862   -8.1661 O   0  0  0  0  0  0  0  0  0  0  0  0
   16.2579   -1.2791   -8.7882 C   0  0  0  0  0  0  0  0  0  0  0  0
   16.0288   -1.7164  -10.0858 C   0  0  0  0  0  0  0  0  0  0  0  0
   16.8773   -2.5951  -10.6871 C   0  0  0  0  0  0  0  0  0  0  0  0
   17.9982   -3.0839  -10.0251 C   0  0  0  0  0  0  0  0  0  0  0  0
   18.8744   -4.0430  -10.7533 C   0  0  0  0  0  0  0  0  0  0  0  0
   18.2096   -5.3770  -10.9396 C   0  0  2  0  0  0  0  0  0  0  0  0
   18.2036   -6.0828   -9.6556 N   0  0  0  0  0  0  0  0  0  0  0  0
   18.9686   -6.1881  -11.9324 C   0  0  0  0  0  0  0  0  0  0  0  0
   19.7843   -7.0840  -11.5752 O   0  0  0  0  0  0  0  0  0  0  0  0
   18.2248   -2.6586   -8.7575 C   0  0  0  0  0  0  0  0  0  0  0  0
   17.3590   -1.7575   -8.1364 C   0  0  0  0  0  0  0  0  0  0  0  0
   19.4315  -10.0990  -14.1370 N   0  0  0  0  0  0  0  0  0  0  0  0
   19.4309   -9.8854  -15.5368 C   0  0  0  0  0  0  0  0  0  0  0  0
   19.8501  -10.7157  -16.3526 O   0  0  0  0  0  0  0  0  0  0  0  0
   18.8897   -8.5789  -16.0323 C   0  0  0  0  0  0  0  0  0  0  0  0
   18.4690   -7.7473  -14.8629 C   0  0  0  0  0  0  0  0  0  0  0  0
   19.5141   -6.8511  -14.3025 C   0  0  2  0  0  0  0  0  0  0  0  0
   18.8115   -5.9928  -13.3214 N   0  0  0  0  0  0  0  0  0  0  0  0
   20.2153   -5.9639  -15.2169 C   0  0  0  0  0  0  0  0  0  0  0  0
   19.6317   -4.9724  -15.7809 O   0  0  0  0  0  0  0  0  0  0  0  0
   24.4220   -6.6350  -16.2942 C   0  0  0  0  0  0  0  0  0  0  0  0
   23.7997   -5.2878  -16.0462 C   0  0  1  0  0  0  0  0  0  0  0  0
   24.5481   -4.3652  -16.7837 O   0  0  0  0  0  0  0  0  0  0  0  0
   22.3452   -5.1998  -16.3344 C   0  0  2  0  0  0  0  0  0  0  0  0
   21.5848   -6.1528  -15.5208 N   0  0  0  0  0  0  0  0  0  0  0  0
   22.0547   -5.4546  -17.7926 C   0  0  0  0  0  0  0  0  0  0  0  0
   21.6799   -6.5541  -18.2206 O   0  0  0  0  0  0  0  0  0  0  0  0
   22.2258   -4.3828  -18.6510 O   0  0  0  0  0  0  0  0  0  0  0  0
  2  3  2  0
  2  1  1  0
  4  3  1  0
  5  4  2  0
  6  5  1  0
  7  6  1  0
  7  8  1  1
  9  7  1  0
  9 10  2  0
 11  5  1  0
 11 12  2  0
 12  2  1  0
 14 13  1  0
 15 14  2  0
 16 14  1  0
 18 17  1  6
 17 16  1  0
 18 19  1  0
 19  9  1  0
 20 18  1  0
 21 20  2  0
 23 22  1  6
 23 25  1  0
 24 23  1  0
 25 27  1  0
 25 26  1  1
 26 20  1  0
 27 29  1  0
 28 27  2  0
M  END
$$$$
