YQT.pdb
     RDKit          3D

 29 29  0  0  1  0  0  0  0  0999 V2000
   28.7397  -19.8765   -3.5681 O   0  0  0  0  0  0  0  0  0  0  0  0
   28.2985  -19.8372   -4.8783 C   0  0  0  0  0  0  0  0  0  0  0  0
   28.9003  -19.0148   -5.8212 C   0  0  0  0  0  0  0  0  0  0  0  0
   28.4566  -18.9859   -7.1080 C   0  0  0  0  0  0  0  0  0  0  0  0
   27.3891  -19.7754   -7.5213 C   0  0  0  0  0  0  0  0  0  0  0  0
   26.9648  -19.6833   -8.9459 C   0  0  0  0  0  0  0  0  0  0  0  0
   27.1311  -20.9918   -9.6645 C   0  0  2  0  0  0  0  0  0  0  0  0
   28.5621  -21.2555   -9.8362 N   0  0  0  0  0  0  0  0  0  0  0  0
   26.4896  -20.9185  -11.0071 C   0  0  0  0  0  0  0  0  0  0  0  0
   27.0765  -20.3987  -11.9974 O   0  0  0  0  0  0  0  0  0  0  0  0
   26.7991  -20.5799   -6.6027 C   0  0  0  0  0  0  0  0  0  0  0  0
   27.2501  -20.6142   -5.2825 C   0  0  0  0  0  0  0  0  0  0  0  0
   24.6969  -25.3483  -13.7747 N   0  0  0  0  0  0  0  0  0  0  0  0
   24.1593  -24.4915  -14.7656 C   0  0  0  0  0  0  0  0  0  0  0  0
   23.7668  -24.8890  -15.8695 O   0  0  0  0  0  0  0  0  0  0  0  0
   24.0711  -23.0320  -14.4377 C   0  0  0  0  0  0  0  0  0  0  0  0
   24.6024  -22.8063  -13.0584 C   0  0  0  0  0  0  0  0  0  0  0  0
   24.5825  -21.3976  -12.5846 C   0  0  2  0  0  0  0  0  0  0  0  0
   25.1930  -21.4275  -11.2358 N   0  0  0  0  0  0  0  0  0  0  0  0
   23.2923  -20.7397  -12.4517 C   0  0  0  0  0  0  0  0  0  0  0  0
   22.8652  -20.3060  -11.3242 O   0  0  0  0  0  0  0  0  0  0  0  0
   22.1686  -18.1516  -15.3228 C   0  0  0  0  0  0  0  0  0  0  0  0
   21.6055  -18.2857  -13.9340 C   0  0  1  0  0  0  0  0  0  0  0  0
   20.5045  -17.4261  -13.8696 O   0  0  0  0  0  0  0  0  0  0  0  0
   21.2698  -19.6716  -13.5183 C   0  0  2  0  0  0  0  0  0  0  0  0
   22.4485  -20.5412  -13.5707 N   0  0  0  0  0  0  0  0  0  0  0  0
   20.1840  -20.2603  -14.3844 C   0  0  0  0  0  0  0  0  0  0  0  0
   20.3922  -21.1718  -15.1959 O   0  0  0  0  0  0  0  0  0  0  0  0
   18.9158  -19.7289  -14.2284 O   0  0  0  0  0  0  0  0  0  0  0  0
  2  3  2  0
  2  1  1  0
  4  3  1  0
  5  4  2  0
  6  5  1  0
  7  6  1  0
  7  8  1  6
  9  7  1  0
  9 10  2  0
 11  5  1  0
 11 12  2  0
 12  2  1  0
 14 13  1  0
 15 14  2  0
 16 14  1  0
 18 17  1  1
 17 16  1  0
 18 19  1  0
 19  9  1  0
 20 18  1  0
 21 20  2  0
 23 22  1  6
 23 25  1  0
 24 23  1  0
 25 27  1  0
 25 26  1  6
 26 20  1  0
 27 29  1  0
 28 27  2  0
M  END
$$$$
