VGS.pdb
     RDKit          3D

 18 17  0  0  1  0  0  0  0  0999 V2000
    9.1936  -12.1032   19.7231 C   0  0  0  0  0  0  0  0  0  0  0  0
    8.3192  -13.3130   19.5122 C   0  0  1  0  0  0  0  0  0  0  0  0
    6.9249  -12.9847   19.0954 C   0  0  0  0  0  0  0  0  0  0  0  0
    8.9731  -14.3433   18.6247 C   0  0  2  0  0  0  0  0  0  0  0  0
    8.0532  -15.4042   18.3024 N   0  0  0  0  0  0  0  0  0  0  0  0
   10.2220  -14.8809   19.1452 C   0  0  0  0  0  0  0  0  0  0  0  0
   10.2059  -15.8656   19.9262 O   0  0  0  0  0  0  0  0  0  0  0  0
   11.4590  -14.2975   18.7743 N   0  0  0  0  0  0  0  0  0  0  0  0
   12.7306  -14.7001   19.2797 C   0  0  0  0  0  0  0  0  0  0  0  0
   12.8570  -14.7371   20.7374 C   0  0  0  0  0  0  0  0  0  0  0  0
   11.9590  -14.1393   21.4021 O   0  0  0  0  0  0  0  0  0  0  0  0
   12.4765  -16.8129   24.5220 O   0  0  0  0  0  0  0  0  0  0  0  0
   12.5020  -16.5230   23.1603 C   0  0  0  0  0  0  0  0  0  0  0  0
   13.7301  -15.7125   22.8879 C   0  0  2  0  0  0  0  0  0  0  0  0
   13.8748  -15.3712   21.4849 N   0  0  0  0  0  0  0  0  0  0  0  0
   14.9490  -16.4138   23.3949 C   0  0  0  0  0  0  0  0  0  0  0  0
   15.0896  -16.5642   24.7673 O   0  0  0  0  0  0  0  0  0  0  0  0
   15.8263  -16.8591   22.6359 O   0  0  0  0  0  0  0  0  0  0  0  0
  2  1  1  6
  2  3  1  0
  4  2  1  0
  4  5  1  1
  6  8  1  0
  6  4  1  0
  7  6  2  0
  9  8  1  0
 10 15  1  0
 10  9  1  0
 11 10  2  0
 13 12  1  0
 14 13  1  6
 14 15  1  0
 16 17  1  0
 16 14  1  0
 18 16  2  0
M  END
$$$$
