VGS.pdb
     RDKit          3D

 18 17  0  0  1  0  0  0  0  0999 V2000
    8.2496  -13.1664   18.9123 C   0  0  0  0  0  0  0  0  0  0  0  0
    8.0357  -13.3131   20.3973 C   0  0  1  0  0  0  0  0  0  0  0  0
    6.6031  -13.2539   20.8094 C   0  0  0  0  0  0  0  0  0  0  0  0
    8.7638  -14.5067   20.9647 C   0  0  2  0  0  0  0  0  0  0  0  0
    8.2903  -15.7301   20.3693 N   0  0  0  0  0  0  0  0  0  0  0  0
    8.7369  -14.5936   22.4179 C   0  0  0  0  0  0  0  0  0  0  0  0
    9.3002  -13.7094   23.1114 O   0  0  0  0  0  0  0  0  0  0  0  0
    8.0770  -15.6732   23.0557 N   0  0  0  0  0  0  0  0  0  0  0  0
    7.8258  -15.7576   24.4572 C   0  0  0  0  0  0  0  0  0  0  0  0
    9.0035  -15.6862   25.3235 C   0  0  0  0  0  0  0  0  0  0  0  0
   10.0390  -16.3006   24.9285 O   0  0  0  0  0  0  0  0  0  0  0  0
    9.1391  -13.8492   29.0014 O   0  0  0  0  0  0  0  0  0  0  0  0
   10.3498  -13.8240   28.3141 C   0  0  0  0  0  0  0  0  0  0  0  0
   10.3386  -14.9478   27.3261 C   0  0  2  0  0  0  0  0  0  0  0  0
    9.1103  -15.0022   26.5553 N   0  0  0  0  0  0  0  0  0  0  0  0
   10.5992  -16.2526   28.0074 C   0  0  0  0  0  0  0  0  0  0  0  0
   11.8087  -16.4109   28.6692 O   0  0  0  0  0  0  0  0  0  0  0  0
    9.7779  -17.1851   27.9988 O   0  0  0  0  0  0  0  0  0  0  0  0
  2  1  1  6
  2  3  1  0
  4  2  1  0
  4  5  1  6
  6  8  1  0
  6  4  1  0
  7  6  2  0
  9  8  1  0
 10 15  1  0
 10  9  1  0
 11 10  2  0
 13 12  1  0
 14 13  1  1
 14 15  1  0
 16 17  1  0
 16 14  1  0
 18 16  2  0
M  END
$$$$
