VGS.pdb
     RDKit          3D

 18 17  0  0  1  0  0  0  0  0999 V2000
    6.4624  -13.2225   18.8150 C   0  0  0  0  0  0  0  0  0  0  0  0
    7.8273  -13.5246   19.3791 C   0  0  1  0  0  0  0  0  0  0  0  0
    8.4280  -12.3935   20.1443 C   0  0  0  0  0  0  0  0  0  0  0  0
    7.8574  -14.8301   20.1352 C   0  0  2  0  0  0  0  0  0  0  0  0
    6.8904  -14.8295   21.2031 N   0  0  0  0  0  0  0  0  0  0  0  0
    9.1735  -15.2101   20.6283 C   0  0  0  0  0  0  0  0  0  0  0  0
   10.0348  -15.6669   19.8349 O   0  0  0  0  0  0  0  0  0  0  0  0
    9.4888  -15.0672   22.0024 N   0  0  0  0  0  0  0  0  0  0  0  0
   10.7887  -15.2498   22.5606 C   0  0  0  0  0  0  0  0  0  0  0  0
   10.9239  -16.3456   23.5216 C   0  0  0  0  0  0  0  0  0  0  0  0
   10.0570  -16.4043   24.4439 O   0  0  0  0  0  0  0  0  0  0  0  0
   10.3324  -20.6073   23.8725 O   0  0  0  0  0  0  0  0  0  0  0  0
   10.5147  -19.3477   23.3076 C   0  0  0  0  0  0  0  0  0  0  0  0
   11.6754  -18.7011   23.9961 C   0  0  2  0  0  0  0  0  0  0  0  0
   11.9191  -17.3486   23.5299 N   0  0  0  0  0  0  0  0  0  0  0  0
   12.9043  -19.5415   23.8616 C   0  0  0  0  0  0  0  0  0  0  0  0
   13.0380  -20.6377   24.7020 O   0  0  0  0  0  0  0  0  0  0  0  0
   13.7956  -19.2916   23.0326 O   0  0  0  0  0  0  0  0  0  0  0  0
  2  1  1  1
  2  3  1  0
  4  2  1  0
  4  5  1  1
  6  8  1  0
  6  4  1  0
  7  6  2  0
  9  8  1  0
 10 15  1  0
 10  9  1  0
 11 10  2  0
 13 12  1  0
 14 13  1  6
 14 15  1  0
 16 17  1  0
 16 14  1  0
 18 16  2  0
M  END
$$$$
