VGS.pdb
     RDKit          3D

 18 17  0  0  1  0  0  0  0  0999 V2000
    9.5623  -13.2522   18.7755 C   0  0  0  0  0  0  0  0  0  0  0  0
    8.6415  -13.2972   19.9683 C   0  0  1  0  0  0  0  0  0  0  0  0
    7.8153  -12.0669   20.1397 C   0  0  0  0  0  0  0  0  0  0  0  0
    7.8265  -14.5662   20.0139 C   0  0  2  0  0  0  0  0  0  0  0  0
    6.7802  -14.4715   20.9997 N   0  0  0  0  0  0  0  0  0  0  0  0
    8.6098  -15.7785   20.2047 C   0  0  0  0  0  0  0  0  0  0  0  0
    8.8549  -16.1928   21.3658 O   0  0  0  0  0  0  0  0  0  0  0  0
    9.0986  -16.4955   19.0844 N   0  0  0  0  0  0  0  0  0  0  0  0
    9.9134  -17.6637   19.1603 C   0  0  0  0  0  0  0  0  0  0  0  0
   11.2978  -17.4514   19.5854 C   0  0  0  0  0  0  0  0  0  0  0  0
   11.9813  -18.4881   19.8380 O   0  0  0  0  0  0  0  0  0  0  0  0
   13.2521  -13.8403   19.4858 O   0  0  0  0  0  0  0  0  0  0  0  0
   14.0383  -14.9796   19.3347 C   0  0  0  0  0  0  0  0  0  0  0  0
   13.3665  -16.0993   20.0658 C   0  0  2  0  0  0  0  0  0  0  0  0
   11.9562  -16.2110   19.7428 N   0  0  0  0  0  0  0  0  0  0  0  0
   13.5670  -15.9624   21.5408 C   0  0  0  0  0  0  0  0  0  0  0  0
   14.8688  -15.9364   22.0208 O   0  0  0  0  0  0  0  0  0  0  0  0
   12.6174  -15.8726   22.3373 O   0  0  0  0  0  0  0  0  0  0  0  0
  2  1  1  6
  2  3  1  0
  4  2  1  0
  4  5  1  1
  6  8  1  0
  6  4  1  0
  7  6  2  0
  9  8  1  0
 10 15  1  0
 10  9  1  0
 11 10  2  0
 13 12  1  0
 14 13  1  6
 14 15  1  0
 16 17  1  0
 16 14  1  0
 18 16  2  0
M  END
$$$$
