VGS.pdb
     RDKit          3D

 18 17  0  0  1  0  0  0  0  0999 V2000
   10.4686  -13.8773   18.2248 C   0  0  0  0  0  0  0  0  0  0  0  0
    9.6191  -13.7360   19.4621 C   0  0  1  0  0  0  0  0  0  0  0  0
    9.0152  -12.3820   19.6282 C   0  0  0  0  0  0  0  0  0  0  0  0
    8.6116  -14.8515   19.5945 C   0  0  2  0  0  0  0  0  0  0  0  0
    7.7810  -14.9377   18.4205 N   0  0  0  0  0  0  0  0  0  0  0  0
    7.7987  -14.7887   20.8007 C   0  0  0  0  0  0  0  0  0  0  0  0
    6.7696  -14.0675   20.8289 O   0  0  0  0  0  0  0  0  0  0  0  0
    8.1632  -15.5390   21.9462 N   0  0  0  0  0  0  0  0  0  0  0  0
    7.4373  -15.5509   23.1740 C   0  0  0  0  0  0  0  0  0  0  0  0
    7.8008  -14.5149   24.1420 C   0  0  0  0  0  0  0  0  0  0  0  0
    8.9275  -13.9573   23.9831 O   0  0  0  0  0  0  0  0  0  0  0  0
    5.3617  -12.9892   27.1501 O   0  0  0  0  0  0  0  0  0  0  0  0
    6.3436  -12.1581   26.6169 C   0  0  0  0  0  0  0  0  0  0  0  0
    7.4684  -13.0242   26.1434 C   0  0  2  0  0  0  0  0  0  0  0  0
    7.0270  -14.0674   25.2364 N   0  0  0  0  0  0  0  0  0  0  0  0
    8.2121  -13.6048   27.3029 C   0  0  0  0  0  0  0  0  0  0  0  0
    8.2985  -14.9868   27.3942 O   0  0  0  0  0  0  0  0  0  0  0  0
    8.7468  -12.8977   28.1737 O   0  0  0  0  0  0  0  0  0  0  0  0
  2  1  1  6
  2  3  1  0
  4  2  1  0
  4  5  1  6
  6  8  1  0
  6  4  1  0
  7  6  2  0
  9  8  1  0
 10 15  1  0
 10  9  1  0
 11 10  2  0
 13 12  1  0
 14 13  1  1
 14 15  1  0
 16 17  1  0
 16 14  1  0
 18 16  2  0
M  END
$$$$
