VGS.pdb
     RDKit          3D

 18 17  0  0  1  0  0  0  0  0999 V2000
    7.1646  -11.4708   24.9318 C   0  0  0  0  0  0  0  0  0  0  0  0
    6.6561  -12.3837   26.0184 C   0  0  1  0  0  0  0  0  0  0  0  0
    5.3177  -11.9985   26.5531 C   0  0  0  0  0  0  0  0  0  0  0  0
    6.7388  -13.8388   25.6279 C   0  0  2  0  0  0  0  0  0  0  0  0
    6.1290  -14.6765   26.6289 N   0  0  0  0  0  0  0  0  0  0  0  0
    8.0826  -14.3024   25.3130 C   0  0  0  0  0  0  0  0  0  0  0  0
    9.0045  -14.1800   26.1588 O   0  0  0  0  0  0  0  0  0  0  0  0
    8.3568  -14.8924   24.0542 N   0  0  0  0  0  0  0  0  0  0  0  0
    9.6588  -15.2402   23.5867 C   0  0  0  0  0  0  0  0  0  0  0  0
   10.5006  -15.9788   24.5291 C   0  0  0  0  0  0  0  0  0  0  0  0
   11.5298  -16.5433   24.0516 O   0  0  0  0  0  0  0  0  0  0  0  0
   10.1725  -15.8467   28.6004 O   0  0  0  0  0  0  0  0  0  0  0  0
   11.4056  -16.2549   28.0988 C   0  0  0  0  0  0  0  0  0  0  0  0
   11.1674  -16.9061   26.7727 C   0  0  2  0  0  0  0  0  0  0  0  0
   10.2891  -16.1288   25.9181 N   0  0  0  0  0  0  0  0  0  0  0  0
   10.6447  -18.2950   26.9527 C   0  0  0  0  0  0  0  0  0  0  0  0
   11.4255  -19.1972   27.6613 O   0  0  0  0  0  0  0  0  0  0  0  0
    9.5491  -18.6598   26.4937 O   0  0  0  0  0  0  0  0  0  0  0  0
  2  1  1  6
  2  3  1  0
  4  2  1  0
  4  5  1  1
  6  8  1  0
  6  4  1  0
  7  6  2  0
  9  8  1  0
 10 15  1  0
 10  9  1  0
 11 10  2  0
 13 12  1  0
 14 13  1  1
 14 15  1  0
 16 17  1  0
 16 14  1  0
 18 16  2  0
M  END
$$$$
