VGS.pdb
     RDKit          3D

 18 17  0  0  1  0  0  0  0  0999 V2000
    9.5527  -12.5378   20.0309 C   0  0  0  0  0  0  0  0  0  0  0  0
    8.3879  -13.1762   19.3178 C   0  0  1  0  0  0  0  0  0  0  0  0
    7.5975  -12.2260   18.4824 C   0  0  0  0  0  0  0  0  0  0  0  0
    8.7892  -14.4248   18.5715 C   0  0  2  0  0  0  0  0  0  0  0  0
    7.7288  -14.8694   17.7034 N   0  0  0  0  0  0  0  0  0  0  0  0
    9.2526  -15.5119   19.4219 C   0  0  0  0  0  0  0  0  0  0  0  0
    8.4229  -16.2151   20.0521 O   0  0  0  0  0  0  0  0  0  0  0  0
   10.6385  -15.7816   19.5428 N   0  0  0  0  0  0  0  0  0  0  0  0
   11.1923  -16.8758   20.2713 C   0  0  0  0  0  0  0  0  0  0  0  0
   11.6254  -16.5806   21.6379 C   0  0  0  0  0  0  0  0  0  0  0  0
   12.0151  -15.3971   21.8686 O   0  0  0  0  0  0  0  0  0  0  0  0
   10.2375  -18.0315   25.0309 O   0  0  0  0  0  0  0  0  0  0  0  0
   11.0341  -16.8893   25.0309 C   0  0  0  0  0  0  0  0  0  0  0  0
   12.1404  -17.1031   24.0462 C   0  0  2  0  0  0  0  0  0  0  0  0
   11.6537  -17.4757   22.7309 N   0  0  0  0  0  0  0  0  0  0  0  0
   13.1167  -18.1121   24.5595 C   0  0  0  0  0  0  0  0  0  0  0  0
   13.7850  -17.8277   25.7420 O   0  0  0  0  0  0  0  0  0  0  0  0
   13.3439  -19.1810   23.9680 O   0  0  0  0  0  0  0  0  0  0  0  0
  2  1  1  6
  2  3  1  0
  4  2  1  0
  4  5  1  1
  6  8  1  0
  6  4  1  0
  7  6  2  0
  9  8  1  0
 10 15  1  0
 10  9  1  0
 11 10  2  0
 13 12  1  0
 14 13  1  1
 14 15  1  0
 16 17  1  0
 16 14  1  0
 18 16  2  0
M  END
$$$$
