VGS.pdb
     RDKit          3D

 18 17  0  0  1  0  0  0  0  0999 V2000
    8.8616  -11.9108   19.5626 C   0  0  0  0  0  0  0  0  0  0  0  0
    8.3134  -13.1783   20.1672 C   0  0  1  0  0  0  0  0  0  0  0  0
    6.8264  -13.1963   20.2859 C   0  0  0  0  0  0  0  0  0  0  0  0
    8.8671  -14.4147   19.5027 C   0  0  2  0  0  0  0  0  0  0  0  0
    8.5600  -14.4247   18.0952 N   0  0  0  0  0  0  0  0  0  0  0  0
    8.4658  -15.6661   20.1294 C   0  0  0  0  0  0  0  0  0  0  0  0
    7.4404  -16.2711   19.7261 O   0  0  0  0  0  0  0  0  0  0  0  0
    9.2278  -16.2067   21.1948 N   0  0  0  0  0  0  0  0  0  0  0  0
    8.8481  -17.3418   21.9706 C   0  0  0  0  0  0  0  0  0  0  0  0
    9.7843  -17.7395   23.0231 C   0  0  0  0  0  0  0  0  0  0  0  0
    9.4369  -18.7129   23.7562 O   0  0  0  0  0  0  0  0  0  0  0  0
   13.3706  -16.3805   22.9582 O   0  0  0  0  0  0  0  0  0  0  0  0
   13.3808  -17.2731   24.0269 C   0  0  0  0  0  0  0  0  0  0  0  0
   11.9709  -17.7111   24.2707 C   0  0  2  0  0  0  0  0  0  0  0  0
   11.0381  -17.1538   23.3088 N   0  0  0  0  0  0  0  0  0  0  0  0
   11.5519  -17.3885   25.6690 C   0  0  0  0  0  0  0  0  0  0  0  0
   12.2933  -17.9273   26.7110 O   0  0  0  0  0  0  0  0  0  0  0  0
   10.5749  -16.6635   25.9218 O   0  0  0  0  0  0  0  0  0  0  0  0
  2  1  1  6
  2  3  1  0
  4  2  1  0
  4  5  1  6
  6  8  1  0
  6  4  1  0
  7  6  2  0
  9  8  1  0
 10 15  1  0
 10  9  1  0
 11 10  2  0
 13 12  1  0
 14 13  1  6
 14 15  1  0
 16 17  1  0
 16 14  1  0
 18 16  2  0
M  END
$$$$
