VGS.pdb
     RDKit          3D

 18 17  0  0  1  0  0  0  0  0999 V2000
    7.3551  -12.7548   18.9253 C   0  0  0  0  0  0  0  0  0  0  0  0
    8.0782  -13.5062   20.0140 C   0  0  1  0  0  0  0  0  0  0  0  0
    7.5154  -13.2831   21.3775 C   0  0  0  0  0  0  0  0  0  0  0  0
    8.2545  -14.9671   19.6804 C   0  0  2  0  0  0  0  0  0  0  0  0
    6.9785  -15.6186   19.5281 N   0  0  0  0  0  0  0  0  0  0  0  0
    9.1021  -15.6992   20.6107 C   0  0  0  0  0  0  0  0  0  0  0  0
    8.5878  -16.4908   21.4408 O   0  0  0  0  0  0  0  0  0  0  0  0
   10.5079  -15.5231   20.5845 N   0  0  0  0  0  0  0  0  0  0  0  0
   11.4298  -16.2248   21.4165 C   0  0  0  0  0  0  0  0  0  0  0  0
   11.1799  -16.1457   22.8566 C   0  0  0  0  0  0  0  0  0  0  0  0
   12.0506  -16.6676   23.6150 O   0  0  0  0  0  0  0  0  0  0  0  0
    7.6696  -15.0288   24.8417 O   0  0  0  0  0  0  0  0  0  0  0  0
    8.8512  -14.4850   25.3388 C   0  0  0  0  0  0  0  0  0  0  0  0
    9.9756  -15.3850   24.9324 C   0  0  2  0  0  0  0  0  0  0  0  0
   10.0699  -15.5466   23.4933 N   0  0  0  0  0  0  0  0  0  0  0  0
    9.8624  -16.7115   25.6121 C   0  0  0  0  0  0  0  0  0  0  0  0
    9.6924  -17.8369   24.8182 O   0  0  0  0  0  0  0  0  0  0  0  0
    9.9153  -16.8344   26.8475 O   0  0  0  0  0  0  0  0  0  0  0  0
  2  1  1  6
  2  3  1  0
  4  2  1  0
  4  5  1  1
  6  8  1  0
  6  4  1  0
  7  6  2  0
  9  8  1  0
 10 15  1  0
 10  9  1  0
 11 10  2  0
 13 12  1  0
 14 13  1  6
 14 15  1  0
 16 17  1  0
 16 14  1  0
 18 16  2  0
M  END
$$$$
