VGS.pdb
     RDKit          3D

 18 17  0  0  1  0  0  0  0  0999 V2000
    7.5253  -12.6740   20.2654 C   0  0  0  0  0  0  0  0  0  0  0  0
    7.8024  -13.4085   18.9784 C   0  0  1  0  0  0  0  0  0  0  0  0
    7.6008  -12.5793   17.7547 C   0  0  0  0  0  0  0  0  0  0  0  0
    9.1353  -14.1153   18.9990 C   0  0  2  0  0  0  0  0  0  0  0  0
    9.3135  -14.9140   17.8133 N   0  0  0  0  0  0  0  0  0  0  0  0
    9.3795  -14.9054   20.1974 C   0  0  0  0  0  0  0  0  0  0  0  0
    9.3853  -14.3514   21.3257 O   0  0  0  0  0  0  0  0  0  0  0  0
    9.6112  -16.2998   20.0973 N   0  0  0  0  0  0  0  0  0  0  0  0
    9.7656  -17.1792   21.2096 C   0  0  0  0  0  0  0  0  0  0  0  0
   10.8968  -16.8982   22.0950 C   0  0  0  0  0  0  0  0  0  0  0  0
   11.8223  -16.1723   21.6235 O   0  0  0  0  0  0  0  0  0  0  0  0
   11.2293  -18.2603   25.9356 O   0  0  0  0  0  0  0  0  0  0  0  0
   11.9378  -17.0847   25.7013 C   0  0  0  0  0  0  0  0  0  0  0  0
   12.2203  -17.0054   24.2339 C   0  0  2  0  0  0  0  0  0  0  0  0
   11.0668  -17.3492   23.4233 N   0  0  0  0  0  0  0  0  0  0  0  0
   13.3966  -17.8556   23.8759 C   0  0  0  0  0  0  0  0  0  0  0  0
   14.6202  -17.5505   24.4551 O   0  0  0  0  0  0  0  0  0  0  0  0
   13.3126  -18.8123   23.0874 O   0  0  0  0  0  0  0  0  0  0  0  0
  2  1  1  1
  2  3  1  0
  4  2  1  0
  4  5  1  6
  6  8  1  0
  6  4  1  0
  7  6  2  0
  9  8  1  0
 10 15  1  0
 10  9  1  0
 11 10  2  0
 13 12  1  0
 14 13  1  1
 14 15  1  0
 16 17  1  0
 16 14  1  0
 18 16  2  0
M  END
$$$$
