VGS.pdb
     RDKit          3D

 18 17  0  0  1  0  0  0  0  0999 V2000
    6.5630  -13.3644   19.6617 C   0  0  0  0  0  0  0  0  0  0  0  0
    7.6640  -14.1800   20.2904 C   0  0  1  0  0  0  0  0  0  0  0  0
    7.8078  -15.5475   19.7117 C   0  0  0  0  0  0  0  0  0  0  0  0
    8.9695  -13.4259   20.3535 C   0  0  2  0  0  0  0  0  0  0  0  0
    9.4398  -13.0984   19.0318 N   0  0  0  0  0  0  0  0  0  0  0  0
   10.0113  -14.0892   21.1245 C   0  0  0  0  0  0  0  0  0  0  0  0
   10.9931  -14.6103   20.5374 O   0  0  0  0  0  0  0  0  0  0  0  0
    9.9235  -14.1503   22.5375 N   0  0  0  0  0  0  0  0  0  0  0  0
   10.8769  -14.7905   23.3835 C   0  0  0  0  0  0  0  0  0  0  0  0
   10.8695  -16.2540   23.3625 C   0  0  0  0  0  0  0  0  0  0  0  0
    9.8368  -16.8115   22.8844 O   0  0  0  0  0  0  0  0  0  0  0  0
   13.9792  -18.7415   24.5575 O   0  0  0  0  0  0  0  0  0  0  0  0
   13.0889  -19.2469   23.6136 C   0  0  0  0  0  0  0  0  0  0  0  0
   11.7740  -18.5603   23.8112 C   0  0  2  0  0  0  0  0  0  0  0  0
   11.8940  -17.1141   23.8177 N   0  0  0  0  0  0  0  0  0  0  0  0
   11.1067  -19.0460   25.0576 C   0  0  0  0  0  0  0  0  0  0  0  0
   10.8969  -20.4110   25.1936 O   0  0  0  0  0  0  0  0  0  0  0  0
   10.7399  -18.2758   25.9611 O   0  0  0  0  0  0  0  0  0  0  0  0
  2  1  1  6
  2  3  1  0
  4  2  1  0
  4  5  1  6
  6  8  1  0
  6  4  1  0
  7  6  2  0
  9  8  1  0
 10 15  1  0
 10  9  1  0
 11 10  2  0
 13 12  1  0
 14 13  1  1
 14 15  1  0
 16 17  1  0
 16 14  1  0
 18 16  2  0
M  END
$$$$
