VGS.pdb
     RDKit          3D

 18 17  0  0  1  0  0  0  0  0999 V2000
    5.9530  -15.9410   19.7714 C   0  0  0  0  0  0  0  0  0  0  0  0
    5.8250  -16.6876   21.0748 C   0  0  1  0  0  0  0  0  0  0  0  0
    4.8262  -16.0974   22.0128 C   0  0  0  0  0  0  0  0  0  0  0  0
    5.6360  -18.1703   20.8682 C   0  0  2  0  0  0  0  0  0  0  0  0
    4.4872  -18.4328   20.0395 N   0  0  0  0  0  0  0  0  0  0  0  0
    5.5757  -18.9468   22.0984 C   0  0  0  0  0  0  0  0  0  0  0  0
    4.4744  -19.1214   22.6786 O   0  0  0  0  0  0  0  0  0  0  0  0
    6.7559  -19.5080   22.6460 N   0  0  0  0  0  0  0  0  0  0  0  0
    6.8390  -20.1370   23.9236 C   0  0  0  0  0  0  0  0  0  0  0  0
    7.5206  -19.3729   24.9695 C   0  0  0  0  0  0  0  0  0  0  0  0
    8.0638  -18.2837   24.6167 O   0  0  0  0  0  0  0  0  0  0  0  0
    7.3382  -20.0290   29.0652 O   0  0  0  0  0  0  0  0  0  0  0  0
    7.6576  -18.7591   28.5917 C   0  0  0  0  0  0  0  0  0  0  0  0
    8.3815  -18.9238   27.2924 C   0  0  2  0  0  0  0  0  0  0  0  0
    7.6365  -19.7196   26.3344 N   0  0  0  0  0  0  0  0  0  0  0  0
    9.7444  -19.4958   27.5159 C   0  0  0  0  0  0  0  0  0  0  0  0
   10.6297  -18.7774   28.3070 O   0  0  0  0  0  0  0  0  0  0  0  0
   10.1024  -20.5785   27.0222 O   0  0  0  0  0  0  0  0  0  0  0  0
  2  1  1  6
  2  3  1  0
  4  2  1  0
  4  5  1  1
  6  8  1  0
  6  4  1  0
  7  6  2  0
  9  8  1  0
 10 15  1  0
 10  9  1  0
 11 10  2  0
 13 12  1  0
 14 13  1  1
 14 15  1  0
 16 17  1  0
 16 14  1  0
 18 16  2  0
M  END
$$$$
