VGS.pdb
     RDKit          3D

 18 17  0  0  1  0  0  0  0  0999 V2000
    8.4505  -12.3103   18.8476 C   0  0  0  0  0  0  0  0  0  0  0  0
    8.0343  -12.9865   20.1291 C   0  0  1  0  0  0  0  0  0  0  0  0
    6.5564  -13.0833   20.3079 C   0  0  0  0  0  0  0  0  0  0  0  0
    8.7411  -14.3033   20.3364 C   0  0  2  0  0  0  0  0  0  0  0  0
    8.4795  -15.2061   19.2445 N   0  0  0  0  0  0  0  0  0  0  0  0
    8.4620  -14.9419   21.6147 C   0  0  0  0  0  0  0  0  0  0  0  0
    7.6940  -15.9356   21.6671 O   0  0  0  0  0  0  0  0  0  0  0  0
    9.0537  -14.4469   22.8034 N   0  0  0  0  0  0  0  0  0  0  0  0
    8.8990  -15.0354   24.0935 C   0  0  0  0  0  0  0  0  0  0  0  0
    9.8119  -16.1354   24.4083 C   0  0  0  0  0  0  0  0  0  0  0  0
    9.6952  -16.6617   25.5551 O   0  0  0  0  0  0  0  0  0  0  0  0
   11.3533  -18.6673   21.8504 O   0  0  0  0  0  0  0  0  0  0  0  0
   11.4539  -19.0139   23.1953 C   0  0  0  0  0  0  0  0  0  0  0  0
   11.6873  -17.7582   23.9752 C   0  0  2  0  0  0  0  0  0  0  0  0
   10.8107  -16.6760   23.5676 N   0  0  0  0  0  0  0  0  0  0  0  0
   13.1211  -17.3437   23.8921 C   0  0  0  0  0  0  0  0  0  0  0  0
   13.4135  -16.1307   23.2847 O   0  0  0  0  0  0  0  0  0  0  0  0
   14.0444  -18.0421   24.3436 O   0  0  0  0  0  0  0  0  0  0  0  0
  2  1  1  6
  2  3  1  0
  4  2  1  0
  4  5  1  6
  6  8  1  0
  6  4  1  0
  7  6  2  0
  9  8  1  0
 10 15  1  0
 10  9  1  0
 11 10  2  0
 13 12  1  0
 14 13  1  6
 14 15  1  0
 16 17  1  0
 16 14  1  0
 18 16  2  0
M  END
$$$$
