VGS.pdb
     RDKit          3D

 18 17  0  0  1  0  0  0  0  0999 V2000
    8.7289  -12.9707   18.7003 C   0  0  0  0  0  0  0  0  0  0  0  0
    8.4852  -13.2588   20.1598 C   0  0  1  0  0  0  0  0  0  0  0  0
    7.3150  -12.5310   20.7314 C   0  0  0  0  0  0  0  0  0  0  0  0
    8.4608  -14.7385   20.4543 C   0  0  2  0  0  0  0  0  0  0  0  0
    7.5150  -15.4173   19.6057 N   0  0  0  0  0  0  0  0  0  0  0  0
    8.2327  -15.0703   21.8534 C   0  0  0  0  0  0  0  0  0  0  0  0
    7.0954  -15.4477   22.2331 O   0  0  0  0  0  0  0  0  0  0  0  0
    9.2898  -14.9696   22.7918 N   0  0  0  0  0  0  0  0  0  0  0  0
    9.2095  -15.3867   24.1534 C   0  0  0  0  0  0  0  0  0  0  0  0
   10.2195  -16.3533   24.5869 C   0  0  0  0  0  0  0  0  0  0  0  0
   11.0561  -16.7328   23.7140 O   0  0  0  0  0  0  0  0  0  0  0  0
   10.4990  -17.6044   28.3570 O   0  0  0  0  0  0  0  0  0  0  0  0
   11.6875  -17.8954   27.6923 C   0  0  0  0  0  0  0  0  0  0  0  0
   11.4123  -17.8506   26.2220 C   0  0  2  0  0  0  0  0  0  0  0  0
   10.3633  -16.9087   25.8782 N   0  0  0  0  0  0  0  0  0  0  0  0
   11.0949  -19.2158   25.7023 C   0  0  0  0  0  0  0  0  0  0  0  0
   12.0875  -20.1835   25.7668 O   0  0  0  0  0  0  0  0  0  0  0  0
    9.9861  -19.5053   25.2218 O   0  0  0  0  0  0  0  0  0  0  0  0
  2  1  1  6
  2  3  1  0
  4  2  1  0
  4  5  1  6
  6  8  1  0
  6  4  1  0
  7  6  2  0
  9  8  1  0
 10 15  1  0
 10  9  1  0
 11 10  2  0
 13 12  1  0
 14 13  1  1
 14 15  1  0
 16 17  1  0
 16 14  1  0
 18 16  2  0
M  END
$$$$
