RCP.pdb
     RDKit          3D

 25 25  0  0  1  0  0  0  0  0999 V2000
    7.5410  -21.6786   22.8441 N   0  0  0  0  0  0  0  0  0  0  0  0
    7.6633  -20.5720   21.9457 C   0  0  0  0  0  0  0  0  0  0  0  0
    8.1446  -20.7748   20.7718 N   0  0  0  0  0  0  0  0  0  0  0  0
    7.2637  -19.2863   22.3420 N   0  0  0  0  0  0  0  0  0  0  0  0
    7.6193  -18.1292   21.4948 C   0  0  0  0  0  0  0  0  0  0  0  0
    8.8573  -17.5409   22.0618 C   0  0  0  0  0  0  0  0  0  0  0  0
    9.4119  -16.3387   21.4094 C   0  0  0  0  0  0  0  0  0  0  0  0
    8.4734  -15.1792   21.4131 C   0  0  2  0  0  0  0  0  0  0  0  0
    8.8175  -14.2496   20.3692 N   0  0  0  0  0  0  0  0  0  0  0  0
    8.6298  -14.5105   22.7554 C   0  0  0  0  0  0  0  0  0  0  0  0
    9.6777  -13.8741   23.0381 O   0  0  0  0  0  0  0  0  0  0  0  0
    8.3520  -20.0399   20.0720 N   0  0  0  0  0  0  0  0  0  0  0  0
    7.5901  -14.5945   23.7162 C   0  0  2  0  0  0  0  0  0  0  0  0
    7.8180  -13.9474   25.0163 C   0  0  0  0  0  0  0  0  0  0  0  0
    6.4462  -13.5561   25.5593 S   0  0  0  0  0  0  0  0  0  0  0  0
    6.6213  -13.0507   27.2861 C   0  0  0  0  0  0  0  0  0  0  0  0
    8.4320  -14.9188   25.9414 O   0  0  0  0  0  0  0  0  0  0  0  0
    8.0187  -16.1397   25.8546 N   0  0  0  0  0  0  0  0  0  0  0  0
    9.4141  -14.5679   26.8727 C   0  0  0  0  0  0  0  0  0  0  0  0
    9.8405  -13.2369   27.2292 C   0  0  0  0  0  0  0  0  0  0  0  0
   10.0699  -13.4523   28.7381 C   0  0  0  0  0  0  0  0  0  0  0  0
   10.9948  -14.6743   28.6326 C   0  0  2  0  0  0  0  0  0  0  0  0
   10.2371  -15.5298   27.6401 C   0  0  0  0  0  0  0  0  0  0  0  0
    9.3732  -16.4425   28.4435 O   0  0  0  0  0  0  0  0  0  0  0  0
    9.9511  -17.3461   29.0956 O   0  0  0  0  0  0  0  0  0  0  0  0
  1  2  1  0
  2  3  2  0
  4  2  1  0
  5  4  1  0
  6  5  1  0
  7  6  1  0
  8  9  1  6
  8 10  1  0
  8  7  1  0
 10 12  1  0
 11 10  2  0
 12 13  1  0
 13 14  1  6
 14 15  1  0
 16 18  1  0
 16 13  1  0
 17 16  2  0
 18 22  1  0
 19 18  1  0
 20 21  1  0
 20 19  1  0
 21 22  1  0
 22 23  1  1
 23 25  1  0
 24 23  2  0
M  END
$$$$
