RCP.pdb
     RDKit          3D

 25 25  0  0  1  0  0  0  0  0999 V2000
    9.3828  -15.4852   16.5255 N   0  0  0  0  0  0  0  0  0  0  0  0
    8.5753  -14.3946   16.0726 C   0  0  0  0  0  0  0  0  0  0  0  0
    8.5196  -14.1435   14.8137 N   0  0  0  0  0  0  0  0  0  0  0  0
    7.8564  -13.6125   16.9898 N   0  0  0  0  0  0  0  0  0  0  0  0
    7.3480  -14.2399   18.2272 C   0  0  0  0  0  0  0  0  0  0  0  0
    7.8094  -13.4007   19.3600 C   0  0  0  0  0  0  0  0  0  0  0  0
    7.5008  -13.8586   20.7288 C   0  0  0  0  0  0  0  0  0  0  0  0
    8.5839  -14.6886   21.3316 C   0  0  2  0  0  0  0  0  0  0  0  0
    8.5606  -16.0204   20.7857 N   0  0  0  0  0  0  0  0  0  0  0  0
    8.3016  -14.7453   22.8116 C   0  0  0  0  0  0  0  0  0  0  0  0
    8.2793  -13.6939   23.5024 O   0  0  0  0  0  0  0  0  0  0  0  0
    8.0519  -13.3252   14.3841 N   0  0  0  0  0  0  0  0  0  0  0  0
    8.0575  -15.9926   23.4408 C   0  0  1  0  0  0  0  0  0  0  0  0
    7.8048  -15.9805   24.8889 C   0  0  0  0  0  0  0  0  0  0  0  0
    7.0105  -17.2444   25.2073 S   0  0  0  0  0  0  0  0  0  0  0  0
    7.0114  -17.5026   26.9965 C   0  0  0  0  0  0  0  0  0  0  0  0
    9.0921  -16.0390   25.6071 O   0  0  0  0  0  0  0  0  0  0  0  0
    9.8557  -17.0469   25.3426 N   0  0  0  0  0  0  0  0  0  0  0  0
    9.4944  -15.0683   26.5296 C   0  0  0  0  0  0  0  0  0  0  0  0
    8.8443  -13.8119   26.8112 C   0  0  0  0  0  0  0  0  0  0  0  0
    9.0790  -13.7539   28.3335 C   0  0  0  0  0  0  0  0  0  0  0  0
   10.5992  -13.9738   28.3152 C   0  0  1  0  0  0  0  0  0  0  0  0
   10.7137  -15.1467   27.3653 C   0  0  0  0  0  0  0  0  0  0  0  0
   10.6984  -16.3761   28.2098 O   0  0  0  0  0  0  0  0  0  0  0  0
    9.6205  -17.0173   28.2628 O   0  0  0  0  0  0  0  0  0  0  0  0
  1  2  1  0
  2  3  2  0
  4  2  1  0
  5  4  1  0
  6  5  1  0
  7  6  1  0
  8  9  1  6
  8 10  1  0
  8  7  1  0
 10 12  1  0
 11 10  2  0
 12 13  1  0
 13 14  1  1
 14 15  1  0
 16 18  1  0
 16 13  1  0
 17 16  2  0
 18 22  1  0
 19 18  1  0
 20 21  1  0
 20 19  1  0
 21 22  1  0
 22 23  1  1
 23 25  1  0
 24 23  2  0
M  END
$$$$
