RCP.pdb
     RDKit          3D

 25 25  0  0  1  0  0  0  0  0999 V2000
   11.9767  -17.8961   19.9266 N   0  0  0  0  0  0  0  0  0  0  0  0
   11.3254  -18.1480   21.1752 C   0  0  0  0  0  0  0  0  0  0  0  0
   12.0435  -18.3366   22.2238 N   0  0  0  0  0  0  0  0  0  0  0  0
    9.9246  -18.1882   21.2517 N   0  0  0  0  0  0  0  0  0  0  0  0
    9.1968  -17.0029   21.7501 C   0  0  0  0  0  0  0  0  0  0  0  0
    8.9049  -16.1471   20.5742 C   0  0  0  0  0  0  0  0  0  0  0  0
    9.0911  -14.6900   20.7176 C   0  0  0  0  0  0  0  0  0  0  0  0
    7.8436  -13.9713   21.1081 C   0  0  2  0  0  0  0  0  0  0  0  0
    7.6311  -12.8316   20.2547 N   0  0  0  0  0  0  0  0  0  0  0  0
    8.0479  -13.5068   22.5280 C   0  0  0  0  0  0  0  0  0  0  0  0
    8.8167  -12.5444   22.7850 O   0  0  0  0  0  0  0  0  0  0  0  0
   11.6802  -18.5163   23.1769 N   0  0  0  0  0  0  0  0  0  0  0  0
    7.3707  -14.1555   23.5918 C   0  0  2  0  0  0  0  0  0  0  0  0
    7.6354  -13.6727   24.9549 C   0  0  0  0  0  0  0  0  0  0  0  0
    6.2769  -13.4391   25.6102 S   0  0  0  0  0  0  0  0  0  0  0  0
    6.5278  -13.0500   27.3577 C   0  0  0  0  0  0  0  0  0  0  0  0
    8.3500  -14.7191   25.7105 O   0  0  0  0  0  0  0  0  0  0  0  0
    8.0794  -15.9432   25.3988 N   0  0  0  0  0  0  0  0  0  0  0  0
    9.2792  -14.4328   26.7153 C   0  0  0  0  0  0  0  0  0  0  0  0
    9.5418  -13.1493   27.3188 C   0  0  0  0  0  0  0  0  0  0  0  0
    9.7891  -13.6098   28.7688 C   0  0  0  0  0  0  0  0  0  0  0  0
   10.8541  -14.6750   28.4669 C   0  0  2  0  0  0  0  0  0  0  0  0
   10.2083  -15.4163   27.3161 C   0  0  0  0  0  0  0  0  0  0  0  0
    9.4566  -16.5557   27.9174 O   0  0  0  0  0  0  0  0  0  0  0  0
    8.2034  -16.4850   27.8975 O   0  0  0  0  0  0  0  0  0  0  0  0
  1  2  1  0
  2  3  2  0
  4  2  1  0
  5  4  1  0
  6  5  1  0
  7  6  1  0
  8  9  1  6
  8 10  1  0
  8  7  1  0
 10 12  1  0
 11 10  2  0
 12 13  1  0
 13 14  1  1
 14 15  1  0
 16 18  1  0
 16 13  1  0
 17 16  2  0
 18 22  1  0
 19 18  1  0
 20 21  1  0
 20 19  1  0
 21 22  1  0
 22 23  1  1
 23 25  1  0
 24 23  2  0
M  END
$$$$
