RCP.pdb
     RDKit          3D

 25 25  0  0  1  0  0  0  0  0999 V2000
    8.8093  -12.4238   17.5792 N   0  0  0  0  0  0  0  0  0  0  0  0
    9.4502  -13.0575   18.6902 C   0  0  0  0  0  0  0  0  0  0  0  0
   10.7301  -12.9976   18.7863 N   0  0  0  0  0  0  0  0  0  0  0  0
    8.6917  -13.7333   19.6585 N   0  0  0  0  0  0  0  0  0  0  0  0
    7.2658  -14.0121   19.3898 C   0  0  0  0  0  0  0  0  0  0  0  0
    6.7314  -14.7219   20.5777 C   0  0  0  0  0  0  0  0  0  0  0  0
    6.2822  -16.1171   20.4041 C   0  0  0  0  0  0  0  0  0  0  0  0
    7.0237  -17.0868   21.2615 C   0  0  2  0  0  0  0  0  0  0  0  0
    6.6568  -18.4380   20.9266 N   0  0  0  0  0  0  0  0  0  0  0  0
    6.6188  -16.7922   22.6837 C   0  0  0  0  0  0  0  0  0  0  0  0
    5.4520  -17.0400   23.0842 O   0  0  0  0  0  0  0  0  0  0  0  0
   11.2993  -13.4494   19.5244 N   0  0  0  0  0  0  0  0  0  0  0  0
    7.5562  -16.2295   23.5869 C   0  0  2  0  0  0  0  0  0  0  0  0
    7.2755  -16.3660   25.0235 C   0  0  0  0  0  0  0  0  0  0  0  0
    7.3957  -17.8508   25.3560 S   0  0  0  0  0  0  0  0  0  0  0  0
    7.2462  -18.0652   27.1447 C   0  0  0  0  0  0  0  0  0  0  0  0
    8.2964  -15.6267   25.7902 O   0  0  0  0  0  0  0  0  0  0  0  0
    9.4848  -16.1329   25.8071 N   0  0  0  0  0  0  0  0  0  0  0  0
    8.0237  -14.4363   26.4711 C   0  0  0  0  0  0  0  0  0  0  0  0
    6.7789  -13.7079   26.4877 C   0  0  0  0  0  0  0  0  0  0  0  0
    6.7929  -13.2382   27.9557 C   0  0  0  0  0  0  0  0  0  0  0  0
    8.1885  -12.5962   27.9523 C   0  0  1  0  0  0  0  0  0  0  0  0
    9.0058  -13.6766   27.2772 C   0  0  0  0  0  0  0  0  0  0  0  0
    9.5650  -14.5260   28.3683 O   0  0  0  0  0  0  0  0  0  0  0  0
    9.0322  -15.6486   28.5461 O   0  0  0  0  0  0  0  0  0  0  0  0
  1  2  1  0
  2  3  2  0
  4  2  1  0
  5  4  1  0
  6  5  1  0
  7  6  1  0
  8  9  1  6
  8 10  1  0
  8  7  1  0
 10 12  1  0
 11 10  2  0
 12 13  1  0
 13 14  1  6
 14 15  1  0
 16 18  1  0
 16 13  1  0
 17 16  2  0
 18 22  1  0
 19 18  1  0
 20 21  1  0
 20 19  1  0
 21 22  1  0
 22 23  1  1
 23 25  1  0
 24 23  2  0
M  END
$$$$
