RCP.pdb
     RDKit          3D

 25 25  0  0  1  0  0  0  0  0999 V2000
    9.6011  -14.6600   16.0999 N   0  0  0  0  0  0  0  0  0  0  0  0
    8.2393  -14.2597   15.9212 C   0  0  0  0  0  0  0  0  0  0  0  0
    7.5861  -14.7113   14.9111 N   0  0  0  0  0  0  0  0  0  0  0  0
    7.6283  -13.3876   16.8355 N   0  0  0  0  0  0  0  0  0  0  0  0
    8.4208  -12.8574   17.9641 C   0  0  0  0  0  0  0  0  0  0  0  0
    8.5189  -13.9414   18.9720 C   0  0  0  0  0  0  0  0  0  0  0  0
    8.1147  -13.6340   20.3579 C   0  0  0  0  0  0  0  0  0  0  0  0
    8.2470  -14.7970   21.2828 C   0  0  2  0  0  0  0  0  0  0  0  0
    7.1816  -15.7396   21.0619 N   0  0  0  0  0  0  0  0  0  0  0  0
    8.1467  -14.2412   22.6808 C   0  0  0  0  0  0  0  0  0  0  0  0
    8.1854  -12.9999   22.8832 O   0  0  0  0  0  0  0  0  0  0  0  0
    6.5923  -14.5108   14.6995 N   0  0  0  0  0  0  0  0  0  0  0  0
    8.0072  -15.1191   23.7858 C   0  0  1  0  0  0  0  0  0  0  0  0
    7.9770  -14.5174   25.1268 C   0  0  0  0  0  0  0  0  0  0  0  0
    6.5250  -14.5596   25.5952 S   0  0  0  0  0  0  0  0  0  0  0  0
    6.4140  -13.7983   27.2311 C   0  0  0  0  0  0  0  0  0  0  0  0
    8.7927  -15.3353   26.0445 O   0  0  0  0  0  0  0  0  0  0  0  0
    8.6874  -16.6172   25.9241 N   0  0  0  0  0  0  0  0  0  0  0  0
    9.6466  -14.7817   27.0033 C   0  0  0  0  0  0  0  0  0  0  0  0
    9.7684  -13.3898   27.3614 C   0  0  0  0  0  0  0  0  0  0  0  0
    9.9886  -13.5486   28.8786 C   0  0  0  0  0  0  0  0  0  0  0  0
   11.1552  -14.5459   28.8132 C   0  0  1  0  0  0  0  0  0  0  0  0
   10.6297  -15.5449   27.8048 C   0  0  0  0  0  0  0  0  0  0  0  0
    9.9538  -16.6191   28.5884 O   0  0  0  0  0  0  0  0  0  0  0  0
    8.6986  -16.6271   28.5789 O   0  0  0  0  0  0  0  0  0  0  0  0
  1  2  1  0
  2  3  2  0
  4  2  1  0
  5  4  1  0
  6  5  1  0
  7  6  1  0
  8  9  1  6
  8 10  1  0
  8  7  1  0
 10 12  1  0
 11 10  2  0
 12 13  1  0
 13 14  1  6
 14 15  1  0
 16 18  1  0
 16 13  1  0
 17 16  2  0
 18 22  1  0
 19 18  1  0
 20 21  1  0
 20 19  1  0
 21 22  1  0
 22 23  1  1
 23 25  1  0
 24 23  2  0
M  END
$$$$
