RCP.pdb
     RDKit          3D

 25 25  0  0  1  0  0  0  0  0999 V2000
    9.2651  -15.2326   16.3436 N   0  0  0  0  0  0  0  0  0  0  0  0
    8.3196  -14.2371   15.9414 C   0  0  0  0  0  0  0  0  0  0  0  0
    8.2518  -13.9098   14.7008 N   0  0  0  0  0  0  0  0  0  0  0  0
    7.4807  -13.6289   16.8879 N   0  0  0  0  0  0  0  0  0  0  0  0
    7.3153  -14.2598   18.2137 C   0  0  0  0  0  0  0  0  0  0  0  0
    8.4694  -13.8348   19.0431 C   0  0  0  0  0  0  0  0  0  0  0  0
    8.2559  -13.6794   20.4952 C   0  0  0  0  0  0  0  0  0  0  0  0
    9.0170  -14.6682   21.3127 C   0  0  2  0  0  0  0  0  0  0  0  0
    8.6686  -16.0117   20.9307 N   0  0  0  0  0  0  0  0  0  0  0  0
    8.6159  -14.4318   22.7469 C   0  0  0  0  0  0  0  0  0  0  0  0
    8.5225  -13.2631   23.2038 O   0  0  0  0  0  0  0  0  0  0  0  0
    7.5453  -13.2775   14.2837 N   0  0  0  0  0  0  0  0  0  0  0  0
    8.3390  -15.5321   23.5975 C   0  0  1  0  0  0  0  0  0  0  0  0
    7.9891  -15.2349   24.9941 C   0  0  0  0  0  0  0  0  0  0  0  0
    6.7678  -16.0856   25.3321 S   0  0  0  0  0  0  0  0  0  0  0  0
    7.3186  -17.6125   26.1279 C   0  0  0  0  0  0  0  0  0  0  0  0
    9.1039  -15.6406   25.8710 O   0  0  0  0  0  0  0  0  0  0  0  0
    9.6881  -16.7564   25.5838 N   0  0  0  0  0  0  0  0  0  0  0  0
    9.5313  -14.8776   26.9620 C   0  0  0  0  0  0  0  0  0  0  0  0
    9.0326  -13.5876   27.3715 C   0  0  0  0  0  0  0  0  0  0  0  0
    9.1035  -13.7747   28.8998 C   0  0  0  0  0  0  0  0  0  0  0  0
   10.5719  -14.2181   28.9842 C   0  0  1  0  0  0  0  0  0  0  0  0
   10.6286  -15.2536   27.8817 C   0  0  0  0  0  0  0  0  0  0  0  0
   10.3517  -16.5703   28.5255 O   0  0  0  0  0  0  0  0  0  0  0  0
    9.1856  -17.0226   28.4186 O   0  0  0  0  0  0  0  0  0  0  0  0
  1  2  1  0
  2  3  2  0
  4  2  1  0
  5  4  1  0
  6  5  1  0
  7  6  1  0
  8  9  1  6
  8 10  1  0
  8  7  1  0
 10 12  1  0
 11 10  2  0
 12 13  1  0
 13 14  1  1
 14 15  1  0
 16 18  1  0
 16 13  1  0
 17 16  2  0
 18 22  1  0
 19 18  1  0
 20 21  1  0
 20 19  1  0
 21 22  1  0
 22 23  1  1
 23 25  1  0
 24 23  2  0
M  END
$$$$
