RCP.pdb
     RDKit          3D

 25 25  0  0  1  0  0  0  0  0999 V2000
    8.1861  -13.6570   15.1703 N   0  0  0  0  0  0  0  0  0  0  0  0
    8.6538  -13.7959   16.5152 C   0  0  0  0  0  0  0  0  0  0  0  0
    9.6798  -14.5349   16.7431 N   0  0  0  0  0  0  0  0  0  0  0  0
    8.0011  -13.1349   17.5672 N   0  0  0  0  0  0  0  0  0  0  0  0
    8.5076  -13.3004   18.9453 C   0  0  0  0  0  0  0  0  0  0  0  0
    8.2385  -14.7046   19.3405 C   0  0  0  0  0  0  0  0  0  0  0  0
    7.3291  -14.9392   20.4791 C   0  0  0  0  0  0  0  0  0  0  0  0
    7.9091  -15.8333   21.5230 C   0  0  2  0  0  0  0  0  0  0  0  0
    7.0269  -16.9404   21.7843 N   0  0  0  0  0  0  0  0  0  0  0  0
    8.0498  -14.9957   22.7689 C   0  0  0  0  0  0  0  0  0  0  0  0
    8.8501  -14.0255   22.8040 O   0  0  0  0  0  0  0  0  0  0  0  0
   10.0911  -14.7214   17.6753 N   0  0  0  0  0  0  0  0  0  0  0  0
    7.2761  -15.2973   23.9185 C   0  0  1  0  0  0  0  0  0  0  0  0
    7.5603  -14.5349   25.1428 C   0  0  0  0  0  0  0  0  0  0  0  0
    6.2345  -14.3825   25.8837 S   0  0  0  0  0  0  0  0  0  0  0  0
    6.4933  -13.3461   27.3420 C   0  0  0  0  0  0  0  0  0  0  0  0
    8.4886  -15.3065   25.9910 O   0  0  0  0  0  0  0  0  0  0  0  0
    8.4213  -16.5932   25.8987 N   0  0  0  0  0  0  0  0  0  0  0  0
    9.4067  -14.7055   26.8576 C   0  0  0  0  0  0  0  0  0  0  0  0
    9.5676  -13.2954   27.1146 C   0  0  0  0  0  0  0  0  0  0  0  0
    9.8787  -13.3582   28.6229 C   0  0  0  0  0  0  0  0  0  0  0  0
   11.0265  -14.3768   28.5533 C   0  0  1  0  0  0  0  0  0  0  0  0
   10.4276  -15.4308   27.6469 C   0  0  0  0  0  0  0  0  0  0  0  0
    9.7877  -16.4402   28.5395 O   0  0  0  0  0  0  0  0  0  0  0  0
    8.5333  -16.4462   28.5852 O   0  0  0  0  0  0  0  0  0  0  0  0
  1  2  1  0
  2  3  2  0
  4  2  1  0
  5  4  1  0
  6  5  1  0
  7  6  1  0
  8  9  1  1
  8 10  1  0
  8  7  1  0
 10 12  1  0
 11 10  2  0
 12 13  1  0
 13 14  1  1
 14 15  1  0
 16 18  1  0
 16 13  1  0
 17 16  2  0
 18 22  1  0
 19 18  1  0
 20 21  1  0
 20 19  1  0
 21 22  1  0
 22 23  1  1
 23 25  1  0
 24 23  2  0
M  END
$$$$
