RCP.pdb
     RDKit          3D

 25 25  0  0  1  0  0  0  0  0999 V2000
    7.6437  -13.1873   14.8331 N   0  0  0  0  0  0  0  0  0  0  0  0
    7.9846  -14.1392   15.8453 C   0  0  0  0  0  0  0  0  0  0  0  0
    8.8851  -15.0200   15.5921 N   0  0  0  0  0  0  0  0  0  0  0  0
    7.3447  -14.1098   17.0940 N   0  0  0  0  0  0  0  0  0  0  0  0
    7.7024  -13.0517   18.0612 C   0  0  0  0  0  0  0  0  0  0  0  0
    8.5846  -13.6741   19.0784 C   0  0  0  0  0  0  0  0  0  0  0  0
    8.0392  -13.8756   20.4349 C   0  0  0  0  0  0  0  0  0  0  0  0
    8.1222  -15.2905   20.9002 C   0  0  2  0  0  0  0  0  0  0  0  0
    7.2326  -16.1249   20.1355 N   0  0  0  0  0  0  0  0  0  0  0  0
    7.6933  -15.2880   22.3457 C   0  0  0  0  0  0  0  0  0  0  0  0
    6.4866  -15.1157   22.6577 O   0  0  0  0  0  0  0  0  0  0  0  0
    9.3338  -15.1735   14.6712 N   0  0  0  0  0  0  0  0  0  0  0  0
    8.6531  -15.4811   23.3716 C   0  0  1  0  0  0  0  0  0  0  0  0
    8.1494  -15.6986   24.7355 C   0  0  0  0  0  0  0  0  0  0  0  0
    7.3518  -16.9996   24.7075 S   0  0  0  0  0  0  0  0  0  0  0  0
    7.0398  -17.5330   26.4064 C   0  0  0  0  0  0  0  0  0  0  0  0
    9.2915  -15.8651   25.6543 O   0  0  0  0  0  0  0  0  0  0  0  0
   10.0403  -16.9003   25.4632 N   0  0  0  0  0  0  0  0  0  0  0  0
    9.5766  -14.9654   26.6859 C   0  0  0  0  0  0  0  0  0  0  0  0
    8.9031  -13.7214   26.9676 C   0  0  0  0  0  0  0  0  0  0  0  0
    8.9385  -13.7704   28.5078 C   0  0  0  0  0  0  0  0  0  0  0  0
   10.4469  -14.0112   28.6707 C   0  0  1  0  0  0  0  0  0  0  0  0
   10.6766  -15.1185   27.6646 C   0  0  0  0  0  0  0  0  0  0  0  0
   10.5444  -16.4020   28.4129 O   0  0  0  0  0  0  0  0  0  0  0  0
    9.4669  -17.0316   28.2779 O   0  0  0  0  0  0  0  0  0  0  0  0
  1  2  1  0
  2  3  2  0
  4  2  1  0
  5  4  1  0
  6  5  1  0
  7  6  1  0
  8  9  1  6
  8 10  1  0
  8  7  1  0
 10 12  1  0
 11 10  2  0
 12 13  1  0
 13 14  1  6
 14 15  1  0
 16 18  1  0
 16 13  1  0
 17 16  2  0
 18 22  1  0
 19 18  1  0
 20 21  1  0
 20 19  1  0
 21 22  1  0
 22 23  1  1
 23 25  1  0
 24 23  2  0
M  END
$$$$
