RCP.pdb
     RDKit          3D

 25 25  0  0  1  0  0  0  0  0999 V2000
    5.9726  -21.1189   20.1834 N   0  0  0  0  0  0  0  0  0  0  0  0
    7.2806  -20.9258   20.7299 C   0  0  0  0  0  0  0  0  0  0  0  0
    8.2690  -21.5672   20.2177 N   0  0  0  0  0  0  0  0  0  0  0  0
    7.4789  -20.0496   21.8082 N   0  0  0  0  0  0  0  0  0  0  0  0
    7.3045  -18.5977   21.5971 C   0  0  0  0  0  0  0  0  0  0  0  0
    8.6063  -18.0693   21.1211 C   0  0  0  0  0  0  0  0  0  0  0  0
    9.2341  -16.9807   21.8951 C   0  0  0  0  0  0  0  0  0  0  0  0
    8.6383  -15.6411   21.6195 C   0  0  2  0  0  0  0  0  0  0  0  0
    9.3361  -14.9921   20.5405 N   0  0  0  0  0  0  0  0  0  0  0  0
    8.8026  -14.8352   22.8832 C   0  0  0  0  0  0  0  0  0  0  0  0
    9.9234  -14.3598   23.2011 O   0  0  0  0  0  0  0  0  0  0  0  0
    9.2513  -21.5169   20.5425 N   0  0  0  0  0  0  0  0  0  0  0  0
    7.6877  -14.6053   23.7290 C   0  0  2  0  0  0  0  0  0  0  0  0
    7.9448  -13.9612   25.0252 C   0  0  0  0  0  0  0  0  0  0  0  0
    6.5963  -13.4758   25.5502 S   0  0  0  0  0  0  0  0  0  0  0  0
    6.7973  -12.9212   27.2589 C   0  0  0  0  0  0  0  0  0  0  0  0
    8.4849  -14.9612   25.9658 O   0  0  0  0  0  0  0  0  0  0  0  0
    8.0067  -16.1577   25.8742 N   0  0  0  0  0  0  0  0  0  0  0  0
    9.4655  -14.6611   26.9163 C   0  0  0  0  0  0  0  0  0  0  0  0
    9.9697  -13.3556   27.2653 C   0  0  0  0  0  0  0  0  0  0  0  0
   10.1485  -13.5627   28.7822 C   0  0  0  0  0  0  0  0  0  0  0  0
   10.9936  -14.8439   28.7160 C   0  0  2  0  0  0  0  0  0  0  0  0
   10.2053  -15.6630   27.7166 C   0  0  0  0  0  0  0  0  0  0  0  0
    9.2645  -16.5053   28.5106 O   0  0  0  0  0  0  0  0  0  0  0  0
    8.0493  -16.1928   28.4723 O   0  0  0  0  0  0  0  0  0  0  0  0
  1  2  1  0
  2  3  2  0
  4  2  1  0
  5  4  1  0
  6  5  1  0
  7  6  1  0
  8  9  1  6
  8 10  1  0
  8  7  1  0
 10 12  1  0
 11 10  2  0
 12 13  1  0
 13 14  1  6
 14 15  1  0
 16 18  1  0
 16 13  1  0
 17 16  2  0
 18 22  1  0
 19 18  1  0
 20 21  1  0
 20 19  1  0
 21 22  1  0
 22 23  1  1
 23 25  1  0
 24 23  2  0
M  END
$$$$
