RCP.pdb
     RDKit          3D

 25 25  0  0  1  0  0  0  0  0999 V2000
    8.0680  -12.8860   18.0026 N   0  0  0  0  0  0  0  0  0  0  0  0
    8.5255  -13.9093   17.1137 C   0  0  0  0  0  0  0  0  0  0  0  0
    8.1500  -13.8790   15.8853 N   0  0  0  0  0  0  0  0  0  0  0  0
    9.3706  -14.9293   17.5777 N   0  0  0  0  0  0  0  0  0  0  0  0
    9.5593  -15.1010   19.0330 C   0  0  0  0  0  0  0  0  0  0  0  0
    8.3943  -15.8707   19.5335 C   0  0  0  0  0  0  0  0  0  0  0  0
    8.3268  -16.1587   20.9795 C   0  0  0  0  0  0  0  0  0  0  0  0
    7.0831  -15.6477   21.6256 C   0  0  2  0  0  0  0  0  0  0  0  0
    6.3057  -14.8824   20.6863 N   0  0  0  0  0  0  0  0  0  0  0  0
    7.5279  -14.7557   22.7570 C   0  0  0  0  0  0  0  0  0  0  0  0
    7.4905  -13.5034   22.6408 O   0  0  0  0  0  0  0  0  0  0  0  0
    8.4428  -14.5477   15.1505 N   0  0  0  0  0  0  0  0  0  0  0  0
    7.9951  -15.3252   23.9688 C   0  0  1  0  0  0  0  0  0  0  0  0
    8.1927  -14.4186   25.1090 C   0  0  0  0  0  0  0  0  0  0  0  0
    6.8127  -13.8974   25.5008 S   0  0  0  0  0  0  0  0  0  0  0  0
    5.9621  -15.1626   26.4723 C   0  0  0  0  0  0  0  0  0  0  0  0
    8.7493  -15.1795   26.2437 O   0  0  0  0  0  0  0  0  0  0  0  0
    8.4710  -16.4403   26.2857 N   0  0  0  0  0  0  0  0  0  0  0  0
    9.5424  -14.5957   27.2364 C   0  0  0  0  0  0  0  0  0  0  0  0
    9.5106  -13.2243   27.6822 C   0  0  0  0  0  0  0  0  0  0  0  0
    9.7568  -13.4530   29.1864 C   0  0  0  0  0  0  0  0  0  0  0  0
   11.0267  -14.3079   29.0588 C   0  0  2  0  0  0  0  0  0  0  0  0
   10.6094  -15.2936   27.9886 C   0  0  0  0  0  0  0  0  0  0  0  0
   10.0622  -16.4838   28.7020 O   0  0  0  0  0  0  0  0  0  0  0  0
    8.8136  -16.6111   28.7227 O   0  0  0  0  0  0  0  0  0  0  0  0
  1  2  1  0
  2  3  2  0
  4  2  1  0
  5  4  1  0
  6  5  1  0
  7  6  1  0
  8  9  1  6
  8 10  1  0
  8  7  1  0
 10 12  1  0
 11 10  2  0
 12 13  1  0
 13 14  1  1
 14 15  1  0
 16 18  1  0
 16 13  1  0
 17 16  2  0
 18 22  1  0
 19 18  1  0
 20 21  1  0
 20 19  1  0
 21 22  1  0
 22 23  1  1
 23 25  1  0
 24 23  2  0
M  END
$$$$
