CHN.pdb
     RDKit          3D

 25 25  0  0  1  0  0  0  0  0999 V2000
   28.9022  -11.2257  -17.7621 N   0  0  0  0  0  0  0  0  0  0  0  0
   27.6804  -11.2912  -17.0206 C   0  0  1  0  0  0  0  0  0  0  0  0
   27.8432  -11.5849  -15.5596 C   0  0  0  0  0  0  0  0  0  0  0  0
   28.5755  -13.1821  -15.2126 S   0  0  0  0  0  0  0  0  0  0  0  0
   26.8933  -10.0307  -17.2681 C   0  0  0  0  0  0  0  0  0  0  0  0
   27.4556   -8.9092  -17.3063 O   0  0  0  0  0  0  0  0  0  0  0  0
   25.4933  -10.0592  -17.4662 N   0  0  0  0  0  0  0  0  0  0  0  0
   24.7747   -8.8845  -17.8290 C   0  0  1  0  0  0  0  0  0  0  0  0
   24.0603   -9.0667  -19.1275 C   0  0  0  0  0  0  0  0  0  0  0  0
   23.2924   -7.8802  -19.5711 C   0  0  0  0  0  0  0  0  0  0  0  0
   21.9274   -7.7056  -19.6366 C   0  0  0  0  0  0  0  0  0  0  0  0
   21.6281   -6.4799  -20.0960 N   0  0  0  0  0  0  0  0  0  0  0  0
   22.8022   -5.8594  -20.3286 C   0  0  0  0  0  0  0  0  0  0  0  0
   23.7988   -6.7048  -20.0117 N   0  0  0  0  0  0  0  0  0  0  0  0
   23.9366   -8.3415  -16.7553 C   0  0  0  0  0  0  0  0  0  0  0  0
   23.3575   -9.1211  -15.9753 O   0  0  0  0  0  0  0  0  0  0  0  0
   21.4612   -4.9991  -13.5217 N   0  0  0  0  0  0  0  0  0  0  0  0
   22.2622   -4.2582  -14.4366 C   0  0  0  0  0  0  0  0  0  0  0  0
   22.3061   -3.0126  -14.2807 O   0  0  0  0  0  0  0  0  0  0  0  0
   23.0223   -4.8864  -15.5319 C   0  0  0  0  0  0  0  0  0  0  0  0
   22.9339   -6.3859  -15.5194 C   0  0  2  0  0  0  0  0  0  0  0  0
   23.7778   -6.9513  -16.5943 N   0  0  0  0  0  0  0  0  0  0  0  0
   21.5296   -6.8490  -15.7211 C   0  0  0  0  0  0  0  0  0  0  0  0
   20.7353   -7.3803  -14.7243 O   0  0  0  0  0  0  0  0  0  0  0  0
   20.9773   -6.7729  -16.8711 O   0  0  0  0  0  0  0  0  0  0  0  0
  2  1  1  1
  3  2  1  0
  4  3  1  0
  5  2  1  0
  5  6  2  0
  7  5  1  0
  8  7  1  0
  8  9  1  6
 10  9  1  0
 10 14  1  0
 11 12  1  0
 11 10  2  0
 12 13  1  0
 13 14  2  0
 15  8  1  0
 16 15  2  0
 18 17  1  0
 19 18  2  0
 20 18  1  0
 21 20  1  6
 21 22  1  0
 22 15  1  0
 23 24  1  0
 23 21  1  0
 25 23  2  0
M  END
$$$$
