CHN.pdb
     RDKit          3D

 25 25  0  0  1  0  0  0  0  0999 V2000
   20.7184  -17.2020  -16.7212 N   0  0  0  0  0  0  0  0  0  0  0  0
   20.6492  -15.9369  -17.3859 C   0  0  1  0  0  0  0  0  0  0  0  0
   19.2764  -15.3401  -17.4665 C   0  0  0  0  0  0  0  0  0  0  0  0
   18.0358  -16.4482  -18.1304 S   0  0  0  0  0  0  0  0  0  0  0  0
   21.6456  -15.0003  -16.7538 C   0  0  0  0  0  0  0  0  0  0  0  0
   21.9002  -15.0531  -15.5258 O   0  0  0  0  0  0  0  0  0  0  0  0
   22.3323  -14.0264  -17.5153 N   0  0  0  0  0  0  0  0  0  0  0  0
   23.2968  -13.1663  -16.9170 C   0  0  1  0  0  0  0  0  0  0  0  0
   24.6609  -13.4149  -17.4711 C   0  0  0  0  0  0  0  0  0  0  0  0
   25.7340  -12.6262  -16.8226 C   0  0  0  0  0  0  0  0  0  0  0  0
   26.4928  -12.9396  -15.7162 C   0  0  0  0  0  0  0  0  0  0  0  0
   27.3638  -11.9545  -15.4446 N   0  0  0  0  0  0  0  0  0  0  0  0
   27.1686  -11.0008  -16.3774 C   0  0  0  0  0  0  0  0  0  0  0  0
   26.1885  -11.4092  -17.2028 N   0  0  0  0  0  0  0  0  0  0  0  0
   22.9066  -11.7530  -16.8978 C   0  0  0  0  0  0  0  0  0  0  0  0
   22.3566  -11.2548  -17.8983 O   0  0  0  0  0  0  0  0  0  0  0  0
   21.8563   -6.8661  -15.2442 N   0  0  0  0  0  0  0  0  0  0  0  0
   21.8854   -7.7838  -14.1557 C   0  0  0  0  0  0  0  0  0  0  0  0
   21.4805   -7.3652  -13.0428 O   0  0  0  0  0  0  0  0  0  0  0  0
   22.3617   -9.1723  -14.2867 C   0  0  0  0  0  0  0  0  0  0  0  0
   22.7011   -9.5426  -15.7025 C   0  0  2  0  0  0  0  0  0  0  0  0
   23.1450  -10.9519  -15.7642 N   0  0  0  0  0  0  0  0  0  0  0  0
   23.7876   -8.6753  -16.2453 C   0  0  0  0  0  0  0  0  0  0  0  0
   25.0199   -9.1405  -16.6597 O   0  0  0  0  0  0  0  0  0  0  0  0
   23.6204   -7.4130  -16.3543 O   0  0  0  0  0  0  0  0  0  0  0  0
  2  1  1  1
  3  2  1  0
  4  3  1  0
  5  2  1  0
  5  6  2  0
  7  5  1  0
  8  7  1  0
  8  9  1  6
 10  9  1  0
 10 14  1  0
 11 12  1  0
 11 10  2  0
 12 13  1  0
 13 14  2  0
 15  8  1  0
 16 15  2  0
 18 17  1  0
 19 18  2  0
 20 18  1  0
 21 20  1  1
 21 22  1  0
 22 15  1  0
 23 24  1  0
 23 21  1  0
 25 23  2  0
M  END
$$$$
