CHN.pdb
     RDKit          3D

 25 25  0  0  1  0  0  0  0  0999 V2000
   24.9775  -14.3264  -17.7210 N   0  0  0  0  0  0  0  0  0  0  0  0
   24.8009  -13.5527  -16.5305 C   0  0  1  0  0  0  0  0  0  0  0  0
   26.0581  -12.9569  -15.9721 C   0  0  0  0  0  0  0  0  0  0  0  0
   27.2124  -14.1628  -15.3229 S   0  0  0  0  0  0  0  0  0  0  0  0
   23.7357  -12.5164  -16.7777 C   0  0  0  0  0  0  0  0  0  0  0  0
   23.7473  -11.8049  -17.8116 O   0  0  0  0  0  0  0  0  0  0  0  0
   22.6828  -12.3033  -15.8579 N   0  0  0  0  0  0  0  0  0  0  0  0
   21.6505  -11.3588  -16.1230 C   0  0  1  0  0  0  0  0  0  0  0  0
   20.3011  -11.9904  -16.0248 C   0  0  0  0  0  0  0  0  0  0  0  0
   19.1821  -11.0970  -16.4043 C   0  0  0  0  0  0  0  0  0  0  0  0
   18.7518  -10.7322  -17.6612 C   0  0  0  0  0  0  0  0  0  0  0  0
   17.7010   -9.9003  -17.5792 N   0  0  0  0  0  0  0  0  0  0  0  0
   17.4504   -9.7260  -16.2660 C   0  0  0  0  0  0  0  0  0  0  0  0
   18.3429  -10.4470  -15.5645 N   0  0  0  0  0  0  0  0  0  0  0  0
   21.7810  -10.1052  -15.3735 C   0  0  0  0  0  0  0  0  0  0  0  0
   22.1780  -10.1347  -14.1932 O   0  0  0  0  0  0  0  0  0  0  0  0
   21.9744   -4.9640  -14.2126 N   0  0  0  0  0  0  0  0  0  0  0  0
   22.4067   -5.2453  -15.5400 C   0  0  0  0  0  0  0  0  0  0  0  0
   22.9472   -4.3073  -16.1770 O   0  0  0  0  0  0  0  0  0  0  0  0
   22.2463   -6.5652  -16.1756 C   0  0  0  0  0  0  0  0  0  0  0  0
   21.6520   -7.5901  -15.2520 C   0  0  2  0  0  0  0  0  0  0  0  0
   21.4638   -8.8693  -15.9699 N   0  0  0  0  0  0  0  0  0  0  0  0
   20.3314   -7.1418  -14.7207 C   0  0  0  0  0  0  0  0  0  0  0  0
   20.1514   -6.5421  -13.4899 O   0  0  0  0  0  0  0  0  0  0  0  0
   19.2652   -7.3001  -15.4074 O   0  0  0  0  0  0  0  0  0  0  0  0
  2  1  1  6
  3  2  1  0
  4  3  1  0
  5  2  1  0
  5  6  2  0
  7  5  1  0
  8  7  1  0
  8  9  1  1
 10  9  1  0
 10 14  1  0
 11 12  1  0
 11 10  2  0
 12 13  1  0
 13 14  2  0
 15  8  1  0
 16 15  2  0
 18 17  1  0
 19 18  2  0
 20 18  1  0
 21 20  1  6
 21 22  1  0
 22 15  1  0
 23 24  1  0
 23 21  1  0
 25 23  2  0
M  END
$$$$
