CHN.pdb
     RDKit          3D

 25 25  0  0  1  0  0  0  0  0999 V2000
   17.3617  -12.8097  -15.1650 N   0  0  0  0  0  0  0  0  0  0  0  0
   16.5773  -11.6158  -15.0844 C   0  0  1  0  0  0  0  0  0  0  0  0
   15.1084  -11.8374  -14.8837 C   0  0  0  0  0  0  0  0  0  0  0  0
   14.3070  -12.6937  -16.2374 S   0  0  0  0  0  0  0  0  0  0  0  0
   17.1704  -10.7146  -14.0329 C   0  0  0  0  0  0  0  0  0  0  0  0
   17.5445  -11.1671  -12.9235 O   0  0  0  0  0  0  0  0  0  0  0  0
   17.3290   -9.3264  -14.2517 N   0  0  0  0  0  0  0  0  0  0  0  0
   17.7422   -8.4560  -13.2031 C   0  0  1  0  0  0  0  0  0  0  0  0
   18.7648   -7.4791  -13.6823 C   0  0  0  0  0  0  0  0  0  0  0  0
   20.0771   -8.0833  -14.0093 C   0  0  0  0  0  0  0  0  0  0  0  0
   20.4827   -9.3943  -13.8872 C   0  0  0  0  0  0  0  0  0  0  0  0
   21.7553   -9.5360  -14.2914 N   0  0  0  0  0  0  0  0  0  0  0  0
   22.1747   -8.3138  -14.6760 C   0  0  0  0  0  0  0  0  0  0  0  0
   21.1629   -7.4447  -14.5046 N   0  0  0  0  0  0  0  0  0  0  0  0
   16.6339   -7.8472  -12.4606 C   0  0  0  0  0  0  0  0  0  0  0  0
   15.6031   -7.5034  -13.0696 O   0  0  0  0  0  0  0  0  0  0  0  0
   14.5112   -6.8373   -6.8718 N   0  0  0  0  0  0  0  0  0  0  0  0
   14.3295   -7.4086   -8.1635 C   0  0  0  0  0  0  0  0  0  0  0  0
   13.1510   -7.5006   -8.5883 O   0  0  0  0  0  0  0  0  0  0  0  0
   15.4479   -7.8830   -8.9978 C   0  0  0  0  0  0  0  0  0  0  0  0
   15.5762   -7.1254  -10.2887 C   0  0  2  0  0  0  0  0  0  0  0  0
   16.7193   -7.6460  -11.0692 N   0  0  0  0  0  0  0  0  0  0  0  0
   15.7883   -5.6684  -10.0448 C   0  0  0  0  0  0  0  0  0  0  0  0
   14.7713   -4.7609   -9.8238 O   0  0  0  0  0  0  0  0  0  0  0  0
   16.9673   -5.1753  -10.0299 O   0  0  0  0  0  0  0  0  0  0  0  0
  2  1  1  1
  3  2  1  0
  4  3  1  0
  5  2  1  0
  5  6  2  0
  7  5  1  0
  8  7  1  0
  8  9  1  6
 10  9  1  0
 10 14  1  0
 11 12  1  0
 11 10  2  0
 12 13  1  0
 13 14  2  0
 15  8  1  0
 16 15  2  0
 18 17  1  0
 19 18  2  0
 20 18  1  0
 21 20  1  1
 21 22  1  0
 22 15  1  0
 23 24  1  0
 23 21  1  0
 25 23  2  0
M  END
$$$$
