CHN.pdb
     RDKit          3D

 25 25  0  0  1  0  0  0  0  0999 V2000
   24.2661  -36.3348  -13.5549 N   0  0  0  0  0  0  0  0  0  0  0  0
   23.6248  -35.9227  -12.3441 C   0  0  1  0  0  0  0  0  0  0  0  0
   22.9232  -37.0167  -11.5970 C   0  0  0  0  0  0  0  0  0  0  0  0
   23.9576  -38.4330  -11.2334 S   0  0  0  0  0  0  0  0  0  0  0  0
   24.6269  -35.1940  -11.4869 C   0  0  0  0  0  0  0  0  0  0  0  0
   25.8560  -35.2457  -11.7359 O   0  0  0  0  0  0  0  0  0  0  0  0
   24.2251  -34.4249  -10.3702 N   0  0  0  0  0  0  0  0  0  0  0  0
   25.1826  -33.8132   -9.5118 C   0  0  1  0  0  0  0  0  0  0  0  0
   25.1493  -32.3257   -9.6374 C   0  0  0  0  0  0  0  0  0  0  0  0
   23.8209  -31.7230   -9.3803 C   0  0  0  0  0  0  0  0  0  0  0  0
   22.6325  -32.3453   -9.0662 C   0  0  0  0  0  0  0  0  0  0  0  0
   21.6514  -31.4418   -8.9107 N   0  0  0  0  0  0  0  0  0  0  0  0
   22.2058  -30.2317   -9.1246 C   0  0  0  0  0  0  0  0  0  0  0  0
   23.5092  -30.4061   -9.4063 N   0  0  0  0  0  0  0  0  0  0  0  0
   25.1412  -34.2986   -8.1288 C   0  0  0  0  0  0  0  0  0  0  0  0
   24.1277  -34.8950   -7.7180 O   0  0  0  0  0  0  0  0  0  0  0  0
   28.7050  -35.4980   -3.3496 N   0  0  0  0  0  0  0  0  0  0  0  0
   27.5763  -34.7589   -3.8052 C   0  0  0  0  0  0  0  0  0  0  0  0
   26.6327  -34.5956   -2.9924 O   0  0  0  0  0  0  0  0  0  0  0  0
   27.4797  -34.1932   -5.1626 C   0  0  0  0  0  0  0  0  0  0  0  0
   26.1844  -34.5296   -5.8451 C   0  0  2  0  0  0  0  0  0  0  0  0
   26.2312  -34.0997   -7.2593 N   0  0  0  0  0  0  0  0  0  0  0  0
   25.0295  -33.8582   -5.1797 C   0  0  0  0  0  0  0  0  0  0  0  0
   24.1474  -34.4921   -4.3271 O   0  0  0  0  0  0  0  0  0  0  0  0
   24.7947  -32.6176   -5.3777 O   0  0  0  0  0  0  0  0  0  0  0  0
  2  1  1  6
  3  2  1  0
  4  3  1  0
  5  2  1  0
  5  6  2  0
  7  5  1  0
  8  7  1  0
  8  9  1  1
 10  9  1  0
 10 14  1  0
 11 12  1  0
 11 10  2  0
 12 13  1  0
 13 14  2  0
 15  8  1  0
 16 15  2  0
 18 17  1  0
 19 18  2  0
 20 18  1  0
 21 20  1  1
 21 22  1  0
 22 15  1  0
 23 24  1  0
 23 21  1  0
 25 23  2  0
M  END
$$$$
