CHN.pdb
     RDKit          3D

 25 25  0  0  1  0  0  0  0  0999 V2000
   22.9997  -12.8233  -17.9036 N   0  0  0  0  0  0  0  0  0  0  0  0
   23.3596  -12.1394  -16.6994 C   0  0  1  0  0  0  0  0  0  0  0  0
   24.7776  -11.6560  -16.6472 C   0  0  0  0  0  0  0  0  0  0  0  0
   25.9973  -12.9676  -16.6556 S   0  0  0  0  0  0  0  0  0  0  0  0
   22.3670  -11.0330  -16.4534 C   0  0  0  0  0  0  0  0  0  0  0  0
   21.9660  -10.2985  -17.3889 O   0  0  0  0  0  0  0  0  0  0  0  0
   21.8486  -10.7773  -15.1627 N   0  0  0  0  0  0  0  0  0  0  0  0
   20.8403   -9.7936  -14.9535 C   0  0  1  0  0  0  0  0  0  0  0  0
   19.7074  -10.3425  -14.1507 C   0  0  0  0  0  0  0  0  0  0  0  0
   18.7983  -11.2319  -14.9101 C   0  0  0  0  0  0  0  0  0  0  0  0
   18.7855  -11.5111  -16.2592 C   0  0  0  0  0  0  0  0  0  0  0  0
   17.7976  -12.3708  -16.5557 N   0  0  0  0  0  0  0  0  0  0  0  0
   17.1692  -12.6490  -15.3958 C   0  0  0  0  0  0  0  0  0  0  0  0
   17.7742  -11.9623  -14.4104 N   0  0  0  0  0  0  0  0  0  0  0  0
   21.3517   -8.5083  -14.4671 C   0  0  0  0  0  0  0  0  0  0  0  0
   22.1307   -8.4861  -13.4953 O   0  0  0  0  0  0  0  0  0  0  0  0
   22.9692   -2.9184  -16.1104 N   0  0  0  0  0  0  0  0  0  0  0  0
   22.7738   -3.9895  -15.1925 C   0  0  0  0  0  0  0  0  0  0  0  0
   23.0060   -3.7545  -13.9806 O   0  0  0  0  0  0  0  0  0  0  0  0
   22.3199   -5.3296  -15.6048 C   0  0  0  0  0  0  0  0  0  0  0  0
   21.4443   -5.9912  -14.5790 C   0  0  2  0  0  0  0  0  0  0  0  0
   20.9742   -7.2995  -15.0834 N   0  0  0  0  0  0  0  0  0  0  0  0
   20.2557   -5.1490  -14.2548 C   0  0  0  0  0  0  0  0  0  0  0  0
   20.1947   -4.2647  -13.1960 O   0  0  0  0  0  0  0  0  0  0  0  0
   19.1984   -5.2115  -14.9701 O   0  0  0  0  0  0  0  0  0  0  0  0
  2  1  1  6
  3  2  1  0
  4  3  1  0
  5  2  1  0
  5  6  2  0
  7  5  1  0
  8  7  1  0
  8  9  1  1
 10  9  1  0
 10 14  1  0
 11 12  1  0
 11 10  2  0
 12 13  1  0
 13 14  2  0
 15  8  1  0
 16 15  2  0
 18 17  1  0
 19 18  2  0
 20 18  1  0
 21 20  1  6
 21 22  1  0
 22 15  1  0
 23 24  1  0
 23 21  1  0
 25 23  2  0
M  END
$$$$
