CHN.pdb
     RDKit          3D

 25 25  0  0  1  0  0  0  0  0999 V2000
   25.0588  -21.1005   -8.0519 N   0  0  0  0  0  0  0  0  0  0  0  0
   25.8910  -20.0101   -8.4590 C   0  0  1  0  0  0  0  0  0  0  0  0
   27.2374  -19.9635   -7.8015 C   0  0  0  0  0  0  0  0  0  0  0  0
   27.1750  -19.8884   -6.0131 S   0  0  0  0  0  0  0  0  0  0  0  0
   25.9864  -20.0063   -9.9625 C   0  0  0  0  0  0  0  0  0  0  0  0
   26.7929  -19.2540  -10.5616 O   0  0  0  0  0  0  0  0  0  0  0  0
   25.1736  -20.8471  -10.7578 N   0  0  0  0  0  0  0  0  0  0  0  0
   25.2256  -20.7943  -12.1799 C   0  0  1  0  0  0  0  0  0  0  0  0
   25.9949  -21.9468  -12.7362 C   0  0  0  0  0  0  0  0  0  0  0  0
   26.1062  -21.9478  -14.2133 C   0  0  0  0  0  0  0  0  0  0  0  0
   25.5986  -21.0449  -15.1217 C   0  0  0  0  0  0  0  0  0  0  0  0
   25.9195  -21.4030  -16.3754 N   0  0  0  0  0  0  0  0  0  0  0  0
   26.6367  -22.5405  -16.2785 C   0  0  0  0  0  0  0  0  0  0  0  0
   26.7459  -22.8635  -14.9776 N   0  0  0  0  0  0  0  0  0  0  0  0
   23.9228  -20.5801  -12.8177 C   0  0  0  0  0  0  0  0  0  0  0  0
   22.9766  -21.3456  -12.5525 O   0  0  0  0  0  0  0  0  0  0  0  0
   21.0991  -16.8658  -16.8738 N   0  0  0  0  0  0  0  0  0  0  0  0
   21.2953  -18.1274  -16.2433 C   0  0  0  0  0  0  0  0  0  0  0  0
   20.3141  -18.9111  -16.2131 O   0  0  0  0  0  0  0  0  0  0  0  0
   22.5770  -18.5350  -15.6408 C   0  0  0  0  0  0  0  0  0  0  0  0
   22.4054  -19.2538  -14.3329 C   0  0  2  0  0  0  0  0  0  0  0  0
   23.7270  -19.5211  -13.7255 N   0  0  0  0  0  0  0  0  0  0  0  0
   21.6924  -20.5520  -14.5159 C   0  0  0  0  0  0  0  0  0  0  0  0
   20.4173  -20.8108  -14.0533 O   0  0  0  0  0  0  0  0  0  0  0  0
   22.2523  -21.5215  -15.1323 O   0  0  0  0  0  0  0  0  0  0  0  0
  2  1  1  6
  3  2  1  0
  4  3  1  0
  5  2  1  0
  5  6  2  0
  7  5  1  0
  8  7  1  0
  8  9  1  6
 10  9  1  0
 10 14  1  0
 11 12  1  0
 11 10  2  0
 12 13  1  0
 13 14  2  0
 15  8  1  0
 16 15  2  0
 18 17  1  0
 19 18  2  0
 20 18  1  0
 21 20  1  6
 21 22  1  0
 22 15  1  0
 23 24  1  0
 23 21  1  0
 25 23  2  0
M  END
$$$$
