CHN.pdb
     RDKit          3D

 25 25  0  0  1  0  0  0  0  0999 V2000
   24.0949  -12.8898  -17.2476 N   0  0  0  0  0  0  0  0  0  0  0  0
   24.0390  -12.0388  -16.0987 C   0  0  1  0  0  0  0  0  0  0  0  0
   25.3152  -11.3180  -15.7840 C   0  0  0  0  0  0  0  0  0  0  0  0
   26.6828  -12.3992  -15.3734 S   0  0  0  0  0  0  0  0  0  0  0  0
   22.8708  -11.0990  -16.2462 C   0  0  0  0  0  0  0  0  0  0  0  0
   22.6260  -10.5313  -17.3385 O   0  0  0  0  0  0  0  0  0  0  0  0
   22.0053  -10.8185  -15.1634 N   0  0  0  0  0  0  0  0  0  0  0  0
   20.8823   -9.9570  -15.3198 C   0  0  1  0  0  0  0  0  0  0  0  0
   19.6027  -10.6864  -15.0744 C   0  0  0  0  0  0  0  0  0  0  0  0
   19.3569  -11.8134  -16.0037 C   0  0  0  0  0  0  0  0  0  0  0  0
   18.7825  -11.7953  -17.2558 C   0  0  0  0  0  0  0  0  0  0  0  0
   18.7400  -13.0328  -17.7753 N   0  0  0  0  0  0  0  0  0  0  0  0
   19.2882  -13.8541  -16.8574 C   0  0  0  0  0  0  0  0  0  0  0  0
   19.6571  -13.1166  -15.7950 N   0  0  0  0  0  0  0  0  0  0  0  0
   20.9972   -8.6882  -14.5938 C   0  0  0  0  0  0  0  0  0  0  0  0
   21.7404   -8.6170  -13.5967 O   0  0  0  0  0  0  0  0  0  0  0  0
   22.7374   -3.4364  -15.1960 N   0  0  0  0  0  0  0  0  0  0  0  0
   22.3725   -4.4929  -14.3137 C   0  0  0  0  0  0  0  0  0  0  0  0
   22.3664   -4.2358  -13.0842 O   0  0  0  0  0  0  0  0  0  0  0  0
   22.0106   -5.8428  -14.7814 C   0  0  0  0  0  0  0  0  0  0  0  0
   20.5843   -6.2036  -14.4778 C   0  0  2  0  0  0  0  0  0  0  0  0
   20.2790   -7.5497  -15.0086 N   0  0  0  0  0  0  0  0  0  0  0  0
   19.6353   -5.2244  -15.0845 C   0  0  0  0  0  0  0  0  0  0  0  0
   19.0411   -4.1870  -14.3934 O   0  0  0  0  0  0  0  0  0  0  0  0
   19.3163   -5.3058  -16.3193 O   0  0  0  0  0  0  0  0  0  0  0  0
  2  1  1  6
  3  2  1  0
  4  3  1  0
  5  2  1  0
  5  6  2  0
  7  5  1  0
  8  7  1  0
  8  9  1  1
 10  9  1  0
 10 14  1  0
 11 12  1  0
 11 10  2  0
 12 13  1  0
 13 14  2  0
 15  8  1  0
 16 15  2  0
 18 17  1  0
 19 18  2  0
 20 18  1  0
 21 20  1  6
 21 22  1  0
 22 15  1  0
 23 24  1  0
 23 21  1  0
 25 23  2  0
M  END
$$$$
