CHN.pdb
     RDKit          3D

 25 25  0  0  1  0  0  0  0  0999 V2000
   25.9996  -25.5918  -16.0626 N   0  0  0  0  0  0  0  0  0  0  0  0
   26.1482  -24.2072  -15.7338 C   0  0  1  0  0  0  0  0  0  0  0  0
   26.5662  -23.3286  -16.8742 C   0  0  0  0  0  0  0  0  0  0  0  0
   28.2567  -23.5807  -17.4093 S   0  0  0  0  0  0  0  0  0  0  0  0
   24.8829  -23.7260  -15.0728 C   0  0  0  0  0  0  0  0  0  0  0  0
   23.7696  -24.2352  -15.3498 O   0  0  0  0  0  0  0  0  0  0  0  0
   24.8975  -22.6841  -14.1166 N   0  0  0  0  0  0  0  0  0  0  0  0
   23.6878  -22.1482  -13.5899 C   0  0  1  0  0  0  0  0  0  0  0  0
   23.9556  -21.2444  -12.4319 C   0  0  0  0  0  0  0  0  0  0  0  0
   22.7365  -20.6969  -11.7928 C   0  0  0  0  0  0  0  0  0  0  0  0
   21.4147  -20.9505  -12.0871 C   0  0  0  0  0  0  0  0  0  0  0  0
   20.6060  -20.2519  -11.2742 N   0  0  0  0  0  0  0  0  0  0  0  0
   21.4061  -19.5442  -10.4515 C   0  0  0  0  0  0  0  0  0  0  0  0
   22.6850  -19.8151  -10.7672 N   0  0  0  0  0  0  0  0  0  0  0  0
   22.7972  -21.5747  -14.6038 C   0  0  0  0  0  0  0  0  0  0  0  0
   23.2538  -20.7676  -15.4356 O   0  0  0  0  0  0  0  0  0  0  0  0
   22.2204  -22.2740  -17.7086 N   0  0  0  0  0  0  0  0  0  0  0  0
   20.9289  -22.8534  -17.5526 C   0  0  0  0  0  0  0  0  0  0  0  0
   20.6260  -23.7943  -18.3277 O   0  0  0  0  0  0  0  0  0  0  0  0
   19.9605  -22.3990  -16.5388 C   0  0  0  0  0  0  0  0  0  0  0  0
   20.5128  -21.3280  -15.6419 C   0  0  2  0  0  0  0  0  0  0  0  0
   21.4335  -21.9240  -14.6499 N   0  0  0  0  0  0  0  0  0  0  0  0
   19.4232  -20.6140  -14.9137 C   0  0  0  0  0  0  0  0  0  0  0  0
   18.9688  -19.3511  -15.2382 O   0  0  0  0  0  0  0  0  0  0  0  0
   18.8392  -21.1603  -13.9168 O   0  0  0  0  0  0  0  0  0  0  0  0
  2  1  1  6
  3  2  1  0
  4  3  1  0
  5  2  1  0
  5  6  2  0
  7  5  1  0
  8  7  1  0
  8  9  1  1
 10  9  1  0
 10 14  1  0
 11 12  1  0
 11 10  2  0
 12 13  1  0
 13 14  2  0
 15  8  1  0
 16 15  2  0
 18 17  1  0
 19 18  2  0
 20 18  1  0
 21 20  1  1
 21 22  1  0
 22 15  1  0
 23 24  1  0
 23 21  1  0
 25 23  2  0
M  END
$$$$
