CHN.pdb
     RDKit          3D

 25 25  0  0  1  0  0  0  0  0999 V2000
   26.1985  -14.0264  -16.0155 N   0  0  0  0  0  0  0  0  0  0  0  0
   24.9666  -13.8014  -16.7076 C   0  0  1  0  0  0  0  0  0  0  0  0
   23.7809  -14.5188  -16.1361 C   0  0  0  0  0  0  0  0  0  0  0  0
   24.0760  -16.2489  -15.7789 S   0  0  0  0  0  0  0  0  0  0  0  0
   24.7380  -12.3168  -16.8230 C   0  0  0  0  0  0  0  0  0  0  0  0
   24.9970  -11.5423  -15.8699 O   0  0  0  0  0  0  0  0  0  0  0  0
   24.2233  -11.7370  -18.0058 N   0  0  0  0  0  0  0  0  0  0  0  0
   24.0642  -10.3271  -18.1284 C   0  0  1  0  0  0  0  0  0  0  0  0
   24.2972   -9.8765  -19.5327 C   0  0  0  0  0  0  0  0  0  0  0  0
   24.2602   -8.4069  -19.7142 C   0  0  0  0  0  0  0  0  0  0  0  0
   24.1663   -7.4175  -18.7601 C   0  0  0  0  0  0  0  0  0  0  0  0
   24.1620   -6.2040  -19.3349 N   0  0  0  0  0  0  0  0  0  0  0  0
   24.2533   -6.4081  -20.6644 C   0  0  0  0  0  0  0  0  0  0  0  0
   24.3121   -7.7331  -20.8870 N   0  0  0  0  0  0  0  0  0  0  0  0
   22.8284   -9.8114  -17.5311 C   0  0  0  0  0  0  0  0  0  0  0  0
   21.7770  -10.4721  -17.6299 O   0  0  0  0  0  0  0  0  0  0  0  0
   19.4345   -7.3407  -14.4705 N   0  0  0  0  0  0  0  0  0  0  0  0
   20.0315   -8.6230  -14.3054 C   0  0  0  0  0  0  0  0  0  0  0  0
   19.5157   -9.3894  -13.4543 O   0  0  0  0  0  0  0  0  0  0  0  0
   21.2034   -9.0704  -15.0789 C   0  0  0  0  0  0  0  0  0  0  0  0
   21.6051   -8.0945  -16.1480 C   0  0  2  0  0  0  0  0  0  0  0  0
   22.8142   -8.5800  -16.8477 N   0  0  0  0  0  0  0  0  0  0  0  0
   21.8940   -6.7477  -15.5735 C   0  0  0  0  0  0  0  0  0  0  0  0
   20.9446   -5.9297  -14.9937 O   0  0  0  0  0  0  0  0  0  0  0  0
   23.0798   -6.2715  -15.5940 O   0  0  0  0  0  0  0  0  0  0  0  0
  2  1  1  1
  3  2  1  0
  4  3  1  0
  5  2  1  0
  5  6  2  0
  7  5  1  0
  8  7  1  0
  8  9  1  6
 10  9  1  0
 10 14  1  0
 11 12  1  0
 11 10  2  0
 12 13  1  0
 13 14  2  0
 15  8  1  0
 16 15  2  0
 18 17  1  0
 19 18  2  0
 20 18  1  0
 21 20  1  1
 21 22  1  0
 22 15  1  0
 23 24  1  0
 23 21  1  0
 25 23  2  0
M  END
$$$$
