CHN.pdb
     RDKit          3D

 25 25  0  0  1  0  0  0  0  0999 V2000
   27.2525  -20.2404  -10.0899 N   0  0  0  0  0  0  0  0  0  0  0  0
   25.9738  -20.8469  -10.3001 C   0  0  1  0  0  0  0  0  0  0  0  0
   24.9200  -20.4594   -9.3068 C   0  0  0  0  0  0  0  0  0  0  0  0
   25.4179  -20.6594   -7.5980 S   0  0  0  0  0  0  0  0  0  0  0  0
   25.5432  -20.5935  -11.7214 C   0  0  0  0  0  0  0  0  0  0  0  0
   25.4578  -19.4273  -12.1775 O   0  0  0  0  0  0  0  0  0  0  0  0
   25.2183  -21.6556  -12.5969 N   0  0  0  0  0  0  0  0  0  0  0  0
   24.8192  -21.4086  -13.9413 C   0  0  1  0  0  0  0  0  0  0  0  0
   25.2694  -22.5050  -14.8494 C   0  0  0  0  0  0  0  0  0  0  0  0
   24.9263  -22.2939  -16.2749 C   0  0  0  0  0  0  0  0  0  0  0  0
   24.1644  -21.2976  -16.8450 C   0  0  0  0  0  0  0  0  0  0  0  0
   24.0898  -21.4611  -18.1756 N   0  0  0  0  0  0  0  0  0  0  0  0
   24.8049  -22.5660  -18.4678 C   0  0  0  0  0  0  0  0  0  0  0  0
   25.3054  -23.0624  -17.3226 N   0  0  0  0  0  0  0  0  0  0  0  0
   23.4045  -21.0521  -14.0884 C   0  0  0  0  0  0  0  0  0  0  0  0
   22.5462  -21.6587  -13.4197 O   0  0  0  0  0  0  0  0  0  0  0  0
   18.9971  -18.5033  -15.4415 N   0  0  0  0  0  0  0  0  0  0  0  0
   20.1214  -17.8308  -15.9999 C   0  0  0  0  0  0  0  0  0  0  0  0
   19.8952  -16.7801  -16.6500 O   0  0  0  0  0  0  0  0  0  0  0  0
   21.5055  -18.3125  -15.8450 C   0  0  0  0  0  0  0  0  0  0  0  0
   21.5947  -19.5925  -15.0638 C   0  0  2  0  0  0  0  0  0  0  0  0
   23.0034  -20.0338  -14.9749 N   0  0  0  0  0  0  0  0  0  0  0  0
   20.7940  -20.6769  -15.7044 C   0  0  0  0  0  0  0  0  0  0  0  0
   21.2081  -21.4039  -16.8029 O   0  0  0  0  0  0  0  0  0  0  0  0
   19.6429  -20.9933  -15.2479 O   0  0  0  0  0  0  0  0  0  0  0  0
  2  1  1  1
  3  2  1  0
  4  3  1  0
  5  2  1  0
  5  6  2  0
  7  5  1  0
  8  7  1  0
  8  9  1  6
 10  9  1  0
 10 14  1  0
 11 12  1  0
 11 10  2  0
 12 13  1  0
 13 14  2  0
 15  8  1  0
 16 15  2  0
 18 17  1  0
 19 18  2  0
 20 18  1  0
 21 20  1  6
 21 22  1  0
 22 15  1  0
 23 24  1  0
 23 21  1  0
 25 23  2  0
M  END
$$$$
