CHN.pdb
     RDKit          3D

 25 25  0  0  1  0  0  0  0  0999 V2000
   20.7944  -12.2295  -18.4937 N   0  0  0  0  0  0  0  0  0  0  0  0
   21.2180  -11.6853  -17.2402 C   0  0  1  0  0  0  0  0  0  0  0  0
   22.6391  -11.2091  -17.2062 C   0  0  0  0  0  0  0  0  0  0  0  0
   23.1948  -10.6829  -15.5869 S   0  0  0  0  0  0  0  0  0  0  0  0
   20.2443  -10.6148  -16.8209 C   0  0  0  0  0  0  0  0  0  0  0  0
   19.9451   -9.6696  -17.5905 O   0  0  0  0  0  0  0  0  0  0  0  0
   19.6300  -10.6309  -15.5472 N   0  0  0  0  0  0  0  0  0  0  0  0
   18.7648   -9.5790  -15.1313 C   0  0  1  0  0  0  0  0  0  0  0  0
   17.5876  -10.1110  -14.3826 C   0  0  0  0  0  0  0  0  0  0  0  0
   16.5788  -10.7837  -15.2334 C   0  0  0  0  0  0  0  0  0  0  0  0
   16.5368  -10.8940  -16.6061 C   0  0  0  0  0  0  0  0  0  0  0  0
   15.4517  -11.5838  -16.9929 N   0  0  0  0  0  0  0  0  0  0  0  0
   14.7895  -11.9211  -15.8680 C   0  0  0  0  0  0  0  0  0  0  0  0
   15.4707  -11.4381  -14.8139 N   0  0  0  0  0  0  0  0  0  0  0  0
   19.4515   -8.4715  -14.4591 C   0  0  0  0  0  0  0  0  0  0  0  0
   20.0913   -8.6908  -13.4130 O   0  0  0  0  0  0  0  0  0  0  0  0
   21.7988   -3.9007  -13.5057 N   0  0  0  0  0  0  0  0  0  0  0  0
   22.3397   -4.8875  -14.3784 C   0  0  0  0  0  0  0  0  0  0  0  0
   23.5398   -4.7512  -14.7230 O   0  0  0  0  0  0  0  0  0  0  0  0
   21.5599   -6.0339  -14.8780 C   0  0  0  0  0  0  0  0  0  0  0  0
   20.1493   -6.0506  -14.3617 C   0  0  2  0  0  0  0  0  0  0  0  0
   19.3975   -7.1640  -14.9799 N   0  0  0  0  0  0  0  0  0  0  0  0
   19.4442   -4.7710  -14.6662 C   0  0  0  0  0  0  0  0  0  0  0  0
   19.5592   -3.6209  -13.9107 O   0  0  0  0  0  0  0  0  0  0  0  0
   18.6706   -4.6785  -15.6793 O   0  0  0  0  0  0  0  0  0  0  0  0
  2  1  1  6
  3  2  1  0
  4  3  1  0
  5  2  1  0
  5  6  2  0
  7  5  1  0
  8  7  1  0
  8  9  1  1
 10  9  1  0
 10 14  1  0
 11 12  1  0
 11 10  2  0
 12 13  1  0
 13 14  2  0
 15  8  1  0
 16 15  2  0
 18 17  1  0
 19 18  2  0
 20 18  1  0
 21 20  1  6
 21 22  1  0
 22 15  1  0
 23 24  1  0
 23 21  1  0
 25 23  2  0
M  END
$$$$
