SPI.pdb
     RDKit          3D

 22 22  0  0  1  0  0  0  0  0999 V2000
   15.8123  -14.9320  -15.4332 O   0  0  0  0  0  0  0  0  0  0  0  0
   16.6328  -13.8501  -15.5149 C   0  0  0  0  0  0  0  0  0  0  0  0
   17.1583  -13.7244  -16.9514 C   0  0  2  0  0  0  0  0  0  0  0  0
   18.0093  -14.9230  -17.1705 N   0  0  0  0  0  0  0  0  0  0  0  0
   18.0253  -12.5345  -17.0520 C   0  0  0  0  0  0  0  0  0  0  0  0
   19.2641  -12.7274  -16.8682 O   0  0  0  0  0  0  0  0  0  0  0  0
   17.6011  -11.2133  -17.3362 N   0  0  0  0  0  0  0  0  0  0  0  0
   16.2377  -10.8400  -17.6257 C   0  0  0  0  0  0  0  0  0  0  0  0
   16.3996   -9.6069  -18.5328 C   0  0  0  0  0  0  0  0  0  0  0  0
   17.5231   -8.9223  -17.7787 C   0  0  0  0  0  0  0  0  0  0  0  0
   18.4129  -10.0600  -17.4079 C   0  0  1  0  0  0  0  0  0  0  0  0
   19.2128   -9.8021  -16.1854 C   0  0  0  0  0  0  0  0  0  0  0  0
   18.7196  -10.1881  -15.1012 O   0  0  0  0  0  0  0  0  0  0  0  0
   23.8881  -11.6908  -15.6119 C   0  0  0  0  0  0  0  0  0  0  0  0
   22.5667  -11.0176  -15.5226 C   0  0  0  0  0  0  0  0  0  0  0  0
   22.5602   -9.6065  -15.0339 C   0  0  2  0  0  0  0  0  0  0  0  0
   23.4937   -9.3680  -13.8648 C   0  0  0  0  0  0  0  0  0  0  0  0
   21.2781   -8.8914  -14.9987 C   0  0  2  0  0  0  0  0  0  0  0  0
   20.4627   -9.1622  -16.1929 N   0  0  0  0  0  0  0  0  0  0  0  0
   21.2499   -7.4772  -14.6488 C   0  0  0  0  0  0  0  0  0  0  0  0
   21.3922   -7.0092  -13.4871 O   0  0  0  0  0  0  0  0  0  0  0  0
   21.0494   -6.4577  -15.6147 O   0  0  0  0  0  0  0  0  0  0  0  0
  1  2  1  0
  2  3  1  0
  3  4  1  1
  3  5  1  0
  5  7  1  0
  5  6  2  0
  7  8  1  0
  9  8  1  0
 10 11  1  0
 10  9  1  0
 11  7  1  0
 11 12  1  1
 12 19  1  0
 13 12  2  0
 15 14  1  0
 16 17  1  1
 16 15  1  0
 18 20  1  0
 18 16  1  0
 18 19  1  6
 20 22  1  0
 21 20  2  0
M  END
$$$$
