SPI.pdb
     RDKit          3D

 22 22  0  0  1  0  0  0  0  0999 V2000
   19.9156  -11.7254  -19.4930 O   0  0  0  0  0  0  0  0  0  0  0  0
   19.5126  -10.9962  -18.4177 C   0  0  0  0  0  0  0  0  0  0  0  0
   19.7569  -11.8085  -17.1387 C   0  0  2  0  0  0  0  0  0  0  0  0
   18.4259  -12.3383  -16.7429 N   0  0  0  0  0  0  0  0  0  0  0  0
   20.2167  -10.9048  -16.0665 C   0  0  0  0  0  0  0  0  0  0  0  0
   19.3314  -10.1691  -15.5367 O   0  0  0  0  0  0  0  0  0  0  0  0
   21.5423  -10.7915  -15.5806 N   0  0  0  0  0  0  0  0  0  0  0  0
   22.6165  -11.6907  -15.9266 C   0  0  0  0  0  0  0  0  0  0  0  0
   23.5295  -11.6349  -14.6885 C   0  0  0  0  0  0  0  0  0  0  0  0
   23.4703  -10.1408  -14.4359 C   0  0  0  0  0  0  0  0  0  0  0  0
   22.0342   -9.8216  -14.6796 C   0  0  1  0  0  0  0  0  0  0  0  0
   21.8124   -8.4203  -15.1134 C   0  0  0  0  0  0  0  0  0  0  0  0
   21.9170   -8.1900  -16.3396 O   0  0  0  0  0  0  0  0  0  0  0  0
   17.5818   -5.9725  -15.4167 C   0  0  0  0  0  0  0  0  0  0  0  0
   19.0218   -6.3260  -15.5113 C   0  0  0  0  0  0  0  0  0  0  0  0
   19.9684   -5.5285  -14.6758 C   0  0  2  0  0  0  0  0  0  0  0  0
   19.7267   -4.0347  -14.7485 C   0  0  0  0  0  0  0  0  0  0  0  0
   21.3714   -5.9583  -14.6169 C   0  0  2  0  0  0  0  0  0  0  0  0
   21.4992   -7.3725  -14.2325 N   0  0  0  0  0  0  0  0  0  0  0  0
   22.3509   -5.1314  -13.9240 C   0  0  0  0  0  0  0  0  0  0  0  0
   22.5861   -5.1602  -12.6859 O   0  0  0  0  0  0  0  0  0  0  0  0
   23.1582   -4.1802  -14.5992 O   0  0  0  0  0  0  0  0  0  0  0  0
  1  2  1  0
  2  3  1  0
  3  4  1  1
  3  5  1  0
  5  7  1  0
  5  6  2  0
  7  8  1  0
  9  8  1  0
 10 11  1  0
 10  9  1  0
 11  7  1  0
 11 12  1  6
 12 19  1  0
 13 12  2  0
 15 14  1  0
 16 17  1  6
 16 15  1  0
 18 20  1  0
 18 16  1  0
 18 19  1  1
 20 22  1  0
 21 20  2  0
M  END
$$$$
