SPI.pdb
     RDKit          3D

 22 22  0  0  1  0  0  0  0  0999 V2000
   25.7125  -19.0613  -13.0500 O   0  0  0  0  0  0  0  0  0  0  0  0
   25.8190  -19.5960  -11.8038 C   0  0  0  0  0  0  0  0  0  0  0  0
   26.4570  -20.9881  -11.9062 C   0  0  2  0  0  0  0  0  0  0  0  0
   25.3207  -21.9400  -12.0144 N   0  0  0  0  0  0  0  0  0  0  0  0
   27.1764  -21.2892  -10.6535 C   0  0  0  0  0  0  0  0  0  0  0  0
   26.4591  -21.6092   -9.6592 O   0  0  0  0  0  0  0  0  0  0  0  0
   28.5802  -21.2564  -10.4676 N   0  0  0  0  0  0  0  0  0  0  0  0
   29.5373  -21.0427  -11.5261 C   0  0  0  0  0  0  0  0  0  0  0  0
   30.7838  -21.7943  -11.0253 C   0  0  0  0  0  0  0  0  0  0  0  0
   30.7335  -21.3643   -9.5719 C   0  0  0  0  0  0  0  0  0  0  0  0
   29.2787  -21.4433   -9.2545 C   0  0  1  0  0  0  0  0  0  0  0  0
   28.8667  -20.5219   -8.1672 C   0  0  0  0  0  0  0  0  0  0  0  0
   28.4001  -19.4143   -8.5180 O   0  0  0  0  0  0  0  0  0  0  0  0
   24.9251  -20.7358   -5.3351 C   0  0  0  0  0  0  0  0  0  0  0  0
   26.1944  -20.2997   -5.9722 C   0  0  0  0  0  0  0  0  0  0  0  0
   27.3843  -20.1621   -5.0804 C   0  0  2  0  0  0  0  0  0  0  0  0
   27.0912  -19.4199   -3.7926 C   0  0  0  0  0  0  0  0  0  0  0  0
   28.6885  -19.8974   -5.7013 C   0  0  2  0  0  0  0  0  0  0  0  0
   28.9750  -20.8308   -6.8016 N   0  0  0  0  0  0  0  0  0  0  0  0
   29.8609  -19.6964   -4.8596 C   0  0  0  0  0  0  0  0  0  0  0  0
   30.2107  -18.6007   -4.3439 O   0  0  0  0  0  0  0  0  0  0  0  0
   30.7526  -20.7499   -4.5320 O   0  0  0  0  0  0  0  0  0  0  0  0
  1  2  1  0
  2  3  1  0
  3  4  1  1
  3  5  1  0
  5  7  1  0
  5  6  2  0
  7  8  1  0
  9  8  1  0
 10 11  1  0
 10  9  1  0
 11  7  1  0
 11 12  1  1
 12 19  1  0
 13 12  2  0
 15 14  1  0
 16 17  1  1
 16 15  1  0
 18 20  1  0
 18 16  1  0
 18 19  1  6
 20 22  1  0
 21 20  2  0
M  END
$$$$
