SPI.pdb
     RDKit          3D

 22 22  0  0  1  0  0  0  0  0999 V2000
   20.1796  -12.0633  -20.0311 O   0  0  0  0  0  0  0  0  0  0  0  0
   20.1784  -11.1987  -18.9810 C   0  0  0  0  0  0  0  0  0  0  0  0
   20.2400  -11.9970  -17.6717 C   0  0  2  0  0  0  0  0  0  0  0  0
   18.8379  -12.3954  -17.3816 N   0  0  0  0  0  0  0  0  0  0  0  0
   20.6894  -11.1114  -16.5803 C   0  0  0  0  0  0  0  0  0  0  0  0
   19.7996  -10.3825  -16.0486 O   0  0  0  0  0  0  0  0  0  0  0  0
   22.0098  -11.0081  -16.0781 N   0  0  0  0  0  0  0  0  0  0  0  0
   23.0771  -11.9250  -16.3981 C   0  0  0  0  0  0  0  0  0  0  0  0
   23.9743  -11.8645  -15.1487 C   0  0  0  0  0  0  0  0  0  0  0  0
   23.9305  -10.3667  -14.9160 C   0  0  0  0  0  0  0  0  0  0  0  0
   22.5018  -10.0329  -15.1830 C   0  0  1  0  0  0  0  0  0  0  0  0
   22.3034   -8.6347  -15.6376 C   0  0  0  0  0  0  0  0  0  0  0  0
   22.4042   -8.4257  -16.8679 O   0  0  0  0  0  0  0  0  0  0  0  0
   20.1378   -4.2799  -17.6678 C   0  0  0  0  0  0  0  0  0  0  0  0
   20.1825   -4.5358  -16.2050 C   0  0  0  0  0  0  0  0  0  0  0  0
   20.5192   -5.9252  -15.7732 C   0  0  2  0  0  0  0  0  0  0  0  0
   19.3582   -6.6558  -15.1301 C   0  0  0  0  0  0  0  0  0  0  0  0
   21.8441   -6.1669  -15.1880 C   0  0  2  0  0  0  0  0  0  0  0  0
   22.0158   -7.5674  -14.7715 N   0  0  0  0  0  0  0  0  0  0  0  0
   22.3684   -5.2490  -14.1851 C   0  0  0  0  0  0  0  0  0  0  0  0
   22.8760   -4.1199  -14.4226 O   0  0  0  0  0  0  0  0  0  0  0  0
   22.3606   -5.5504  -12.7989 O   0  0  0  0  0  0  0  0  0  0  0  0
  1  2  1  0
  2  3  1  0
  3  4  1  1
  3  5  1  0
  5  7  1  0
  5  6  2  0
  7  8  1  0
  9  8  1  0
 10 11  1  0
 10  9  1  0
 11  7  1  0
 11 12  1  6
 12 19  1  0
 13 12  2  0
 15 14  1  0
 16 17  1  1
 16 15  1  0
 18 20  1  0
 18 16  1  0
 18 19  1  1
 20 22  1  0
 21 20  2  0
M  END
$$$$
