SPI.pdb
     RDKit          3D

 22 22  0  0  1  0  0  0  0  0999 V2000
   24.2623  -22.2091  -15.3997 O   0  0  0  0  0  0  0  0  0  0  0  0
   25.3856  -22.8984  -15.7363 C   0  0  0  0  0  0  0  0  0  0  0  0
   26.5353  -21.9074  -15.9633 C   0  0  2  0  0  0  0  0  0  0  0  0
   27.6846  -22.7293  -16.4241 N   0  0  0  0  0  0  0  0  0  0  0  0
   26.9115  -21.2924  -14.6758 C   0  0  0  0  0  0  0  0  0  0  0  0
   27.6167  -22.0044  -13.9003 O   0  0  0  0  0  0  0  0  0  0  0  0
   26.5620  -19.9917  -14.2374 N   0  0  0  0  0  0  0  0  0  0  0  0
   25.8294  -19.0342  -15.0302 C   0  0  0  0  0  0  0  0  0  0  0  0
   26.3326  -17.6815  -14.4950 C   0  0  0  0  0  0  0  0  0  0  0  0
   26.3357  -18.0150  -13.0157 C   0  0  0  0  0  0  0  0  0  0  0  0
   26.8761  -19.4046  -12.9919 C   0  0  1  0  0  0  0  0  0  0  0  0
   26.4208  -20.1888  -11.8177 C   0  0  0  0  0  0  0  0  0  0  0  0
   25.8905  -21.2977  -12.0557 O   0  0  0  0  0  0  0  0  0  0  0  0
   27.2800  -20.3015   -5.6144 C   0  0  0  0  0  0  0  0  0  0  0  0
   26.5510  -20.7825   -6.8163 C   0  0  0  0  0  0  0  0  0  0  0  0
   26.7173  -19.9872   -8.0693 C   0  0  2  0  0  0  0  0  0  0  0  0
   26.6118  -18.4913   -7.8537 C   0  0  0  0  0  0  0  0  0  0  0  0
   26.1216  -20.5097   -9.3057 C   0  0  2  0  0  0  0  0  0  0  0  0
   26.5556  -19.7523  -10.4898 N   0  0  0  0  0  0  0  0  0  0  0  0
   24.6933  -20.7943   -9.3544 C   0  0  0  0  0  0  0  0  0  0  0  0
   24.1278  -21.7873   -8.8224 O   0  0  0  0  0  0  0  0  0  0  0  0
   23.7722  -19.9540  -10.0311 O   0  0  0  0  0  0  0  0  0  0  0  0
  1  2  1  0
  2  3  1  0
  3  4  1  1
  3  5  1  0
  5  7  1  0
  5  6  2  0
  7  8  1  0
  9  8  1  0
 10 11  1  0
 10  9  1  0
 11  7  1  0
 11 12  1  1
 12 19  1  0
 13 12  2  0
 15 14  1  0
 16 17  1  1
 16 15  1  0
 18 20  1  0
 18 16  1  0
 18 19  1  6
 20 22  1  0
 21 20  2  0
M  END
$$$$
