SPI.pdb
     RDKit          3D

 22 22  0  0  1  0  0  0  0  0999 V2000
   18.9242  -30.2912  -11.7617 O   0  0  0  0  0  0  0  0  0  0  0  0
   19.5590  -29.9387  -12.9119 C   0  0  0  0  0  0  0  0  0  0  0  0
   20.8214  -29.1379  -12.5651 C   0  0  2  0  0  0  0  0  0  0  0  0
   21.4603  -29.8689  -11.4398 N   0  0  0  0  0  0  0  0  0  0  0  0
   20.4326  -27.8034  -12.0696 C   0  0  0  0  0  0  0  0  0  0  0  0
   20.3758  -27.6684  -10.8109 O   0  0  0  0  0  0  0  0  0  0  0  0
   20.1250  -26.6734  -12.8662 N   0  0  0  0  0  0  0  0  0  0  0  0
   20.1509  -26.6623  -14.3089 C   0  0  0  0  0  0  0  0  0  0  0  0
   20.4831  -25.1961  -14.6398 C   0  0  0  0  0  0  0  0  0  0  0  0
   19.5871  -24.5283  -13.6148 C   0  0  0  0  0  0  0  0  0  0  0  0
   19.7700  -25.3854  -12.4083 C   0  0  1  0  0  0  0  0  0  0  0  0
   18.6014  -25.3655  -11.4945 C   0  0  0  0  0  0  0  0  0  0  0  0
   17.7919  -26.3149  -11.5991 O   0  0  0  0  0  0  0  0  0  0  0  0
   19.0175  -25.0849   -6.3221 C   0  0  0  0  0  0  0  0  0  0  0  0
   18.5770  -25.2287   -7.7337 C   0  0  0  0  0  0  0  0  0  0  0  0
   17.5942  -24.2244   -8.2393 C   0  0  2  0  0  0  0  0  0  0  0  0
   16.4890  -23.9107   -7.2517 C   0  0  0  0  0  0  0  0  0  0  0  0
   17.2039  -24.2881   -9.6535 C   0  0  2  0  0  0  0  0  0  0  0  0
   18.3719  -24.3563  -10.5454 N   0  0  0  0  0  0  0  0  0  0  0  0
   16.1996  -23.3657  -10.1673 C   0  0  0  0  0  0  0  0  0  0  0  0
   14.9520  -23.5330  -10.1006 O   0  0  0  0  0  0  0  0  0  0  0  0
   16.5420  -22.1517  -10.8166 O   0  0  0  0  0  0  0  0  0  0  0  0
  1  2  1  0
  2  3  1  0
  3  4  1  1
  3  5  1  0
  5  7  1  0
  5  6  2  0
  7  8  1  0
  9  8  1  0
 10 11  1  0
 10  9  1  0
 11  7  1  0
 11 12  1  6
 12 19  1  0
 13 12  2  0
 15 14  1  0
 16 17  1  1
 16 15  1  0
 18 20  1  0
 18 16  1  0
 18 19  1  6
 20 22  1  0
 21 20  2  0
M  END
$$$$
