SPI.pdb
     RDKit          3D

 22 22  0  0  1  0  0  0  0  0999 V2000
   27.7199  -16.0450  -15.5192 O   0  0  0  0  0  0  0  0  0  0  0  0
   26.4692  -16.3482  -15.0785 C   0  0  0  0  0  0  0  0  0  0  0  0
   26.0374  -17.6942  -15.6764 C   0  0  2  0  0  0  0  0  0  0  0  0
   24.6627  -17.4759  -16.1975 N   0  0  0  0  0  0  0  0  0  0  0  0
   25.9547  -18.7020  -14.6017 C   0  0  0  0  0  0  0  0  0  0  0  0
   25.0047  -18.5620  -13.7750 O   0  0  0  0  0  0  0  0  0  0  0  0
   26.8299  -19.8003  -14.4172 N   0  0  0  0  0  0  0  0  0  0  0  0
   27.9038  -20.1463  -15.3167 C   0  0  0  0  0  0  0  0  0  0  0  0
   28.0316  -21.6697  -15.1365 C   0  0  0  0  0  0  0  0  0  0  0  0
   27.8843  -21.7282  -13.6283 C   0  0  0  0  0  0  0  0  0  0  0  0
   26.7983  -20.7410  -13.3643 C   0  0  1  0  0  0  0  0  0  0  0  0
   26.8711  -20.1404  -12.0096 C   0  0  0  0  0  0  0  0  0  0  0  0
   27.9745  -19.6563  -11.6697 O   0  0  0  0  0  0  0  0  0  0  0  0
   27.6117  -17.9270   -8.0938 C   0  0  0  0  0  0  0  0  0  0  0  0
   27.4512  -19.1564   -8.9124 C   0  0  0  0  0  0  0  0  0  0  0  0
   26.1909  -19.9344   -8.7210 C   0  0  2  0  0  0  0  0  0  0  0  0
   26.0370  -20.5007   -7.3242 C   0  0  0  0  0  0  0  0  0  0  0  0
   25.7293  -20.7877   -9.8233 C   0  0  2  0  0  0  0  0  0  0  0  0
   25.7863  -20.0936  -11.1191 N   0  0  0  0  0  0  0  0  0  0  0  0
   24.4909  -21.5424   -9.6818 C   0  0  0  0  0  0  0  0  0  0  0  0
   23.4694  -21.4130  -10.4090 O   0  0  0  0  0  0  0  0  0  0  0  0
   24.3093  -22.5259   -8.6756 O   0  0  0  0  0  0  0  0  0  0  0  0
  1  2  1  0
  2  3  1  0
  3  4  1  1
  3  5  1  0
  5  7  1  0
  5  6  2  0
  7  8  1  0
  9  8  1  0
 10 11  1  0
 10  9  1  0
 11  7  1  0
 11 12  1  1
 12 19  1  0
 13 12  2  0
 15 14  1  0
 16 17  1  1
 16 15  1  0
 18 20  1  0
 18 16  1  0
 18 19  1  6
 20 22  1  0
 21 20  2  0
M  END
$$$$
