SPI.pdb
     RDKit          3D

 22 22  0  0  1  0  0  0  0  0999 V2000
   23.4827  -18.9105  -13.7095 O   0  0  0  0  0  0  0  0  0  0  0  0
   23.9785  -19.2505  -12.4893 C   0  0  0  0  0  0  0  0  0  0  0  0
   24.3841  -20.7306  -12.5054 C   0  0  2  0  0  0  0  0  0  0  0  0
   23.1273  -21.4905  -12.2777 N   0  0  0  0  0  0  0  0  0  0  0  0
   25.2848  -21.0027  -11.3687 C   0  0  0  0  0  0  0  0  0  0  0  0
   24.7260  -21.2578  -10.2604 O   0  0  0  0  0  0  0  0  0  0  0  0
   26.7006  -21.0077  -11.4072 N   0  0  0  0  0  0  0  0  0  0  0  0
   27.4843  -20.7585  -12.5929 C   0  0  0  0  0  0  0  0  0  0  0  0
   28.7726  -21.5599  -12.3335 C   0  0  0  0  0  0  0  0  0  0  0  0
   28.9645  -21.2052  -10.8717 C   0  0  0  0  0  0  0  0  0  0  0  0
   27.5764  -21.2714  -10.3310 C   0  0  1  0  0  0  0  0  0  0  0  0
   27.3673  -20.3997   -9.1490 C   0  0  0  0  0  0  0  0  0  0  0  0
   26.8265  -19.2903   -9.3594 O   0  0  0  0  0  0  0  0  0  0  0  0
   25.7572  -22.1843   -4.2930 C   0  0  0  0  0  0  0  0  0  0  0  0
   26.0551  -21.3595   -5.4923 C   0  0  0  0  0  0  0  0  0  0  0  0
   27.3033  -20.5404   -5.4546 C   0  0  2  0  0  0  0  0  0  0  0  0
   27.4825  -19.7721   -4.1612 C   0  0  0  0  0  0  0  0  0  0  0  0
   27.7169  -19.8509   -6.6833 C   0  0  2  0  0  0  0  0  0  0  0  0
   27.7395  -20.7562   -7.8427 N   0  0  0  0  0  0  0  0  0  0  0  0
   28.8889  -18.9852   -6.6655 C   0  0  0  0  0  0  0  0  0  0  0  0
   30.0471  -19.3161   -7.0368 O   0  0  0  0  0  0  0  0  0  0  0  0
   28.8370  -17.6428   -6.2096 O   0  0  0  0  0  0  0  0  0  0  0  0
  1  2  1  0
  2  3  1  0
  3  4  1  1
  3  5  1  0
  5  7  1  0
  5  6  2  0
  7  8  1  0
  9  8  1  0
 10 11  1  0
 10  9  1  0
 11  7  1  0
 11 12  1  1
 12 19  1  0
 13 12  2  0
 15 14  1  0
 16 17  1  1
 16 15  1  0
 18 20  1  0
 18 16  1  0
 18 19  1  6
 20 22  1  0
 21 20  2  0
M  END
$$$$
