SPI.pdb
     RDKit          3D

 22 22  0  0  1  0  0  0  0  0999 V2000
   25.6274  -18.5641  -11.9015 O   0  0  0  0  0  0  0  0  0  0  0  0
   24.7623  -19.5753  -12.1832 C   0  0  0  0  0  0  0  0  0  0  0  0
   25.5597  -20.8563  -12.4639 C   0  0  2  0  0  0  0  0  0  0  0  0
   24.5432  -21.9141  -12.7019 N   0  0  0  0  0  0  0  0  0  0  0  0
   26.3227  -21.2309  -11.2577 C   0  0  0  0  0  0  0  0  0  0  0  0
   25.6416  -21.6241  -10.2642 O   0  0  0  0  0  0  0  0  0  0  0  0
   27.7315  -21.1941  -11.1154 N   0  0  0  0  0  0  0  0  0  0  0  0
   28.6527  -20.9300  -12.1942 C   0  0  0  0  0  0  0  0  0  0  0  0
   29.9197  -21.6909  -11.7641 C   0  0  0  0  0  0  0  0  0  0  0  0
   29.9131  -21.3204  -10.2936 C   0  0  0  0  0  0  0  0  0  0  0  0
   28.4698  -21.4242   -9.9336 C   0  0  1  0  0  0  0  0  0  0  0  0
   28.0865  -20.5508   -8.7973 C   0  0  0  0  0  0  0  0  0  0  0  0
   27.5262  -19.4690   -9.0859 O   0  0  0  0  0  0  0  0  0  0  0  0
   26.5307  -22.6226   -3.9704 C   0  0  0  0  0  0  0  0  0  0  0  0
   26.6847  -21.7367   -5.1531 C   0  0  0  0  0  0  0  0  0  0  0  0
   27.7595  -20.7021   -5.0856 C   0  0  2  0  0  0  0  0  0  0  0  0
   27.7371  -19.8905   -3.8065 C   0  0  0  0  0  0  0  0  0  0  0  0
   28.0955  -19.9710   -6.3140 C   0  0  2  0  0  0  0  0  0  0  0  0
   28.3191  -20.8769   -7.4513 N   0  0  0  0  0  0  0  0  0  0  0  0
   29.0991  -18.9152   -6.2738 C   0  0  0  0  0  0  0  0  0  0  0  0
   30.3252  -19.0629   -6.5261 O   0  0  0  0  0  0  0  0  0  0  0  0
   28.7816  -17.5755   -5.9318 O   0  0  0  0  0  0  0  0  0  0  0  0
  1  2  1  0
  2  3  1  0
  3  4  1  1
  3  5  1  0
  5  7  1  0
  5  6  2  0
  7  8  1  0
  9  8  1  0
 10 11  1  0
 10  9  1  0
 11  7  1  0
 11 12  1  1
 12 19  1  0
 13 12  2  0
 15 14  1  0
 16 17  1  1
 16 15  1  0
 18 20  1  0
 18 16  1  0
 18 19  1  6
 20 22  1  0
 21 20  2  0
M  END
$$$$
