SPI.pdb
     RDKit          3D

 22 22  0  0  1  0  0  0  0  0999 V2000
   19.6356  -10.1341  -18.5188 O   0  0  0  0  0  0  0  0  0  0  0  0
   18.6706  -10.8328  -17.8624 C   0  0  0  0  0  0  0  0  0  0  0  0
   19.3270  -11.7077  -16.7858 C   0  0  2  0  0  0  0  0  0  0  0  0
   18.2092  -12.4273  -16.1212 N   0  0  0  0  0  0  0  0  0  0  0  0
   19.9665  -10.8423  -15.7760 C   0  0  0  0  0  0  0  0  0  0  0  0
   19.1851  -10.1644  -15.0443 O   0  0  0  0  0  0  0  0  0  0  0  0
   21.3586  -10.7073  -15.5524 N   0  0  0  0  0  0  0  0  0  0  0  0
   22.3620  -11.5809  -16.1111 C   0  0  0  0  0  0  0  0  0  0  0  0
   23.4951  -11.5196  -15.0710 C   0  0  0  0  0  0  0  0  0  0  0  0
   23.4589  -10.0297  -14.7905 C   0  0  0  0  0  0  0  0  0  0  0  0
   21.9973   -9.7371  -14.7490 C   0  0  1  0  0  0  0  0  0  0  0  0
   21.6711   -8.3362  -15.1122 C   0  0  0  0  0  0  0  0  0  0  0  0
   21.4136   -8.1150  -16.3173 O   0  0  0  0  0  0  0  0  0  0  0  0
   17.5125   -6.2319  -15.2142 C   0  0  0  0  0  0  0  0  0  0  0  0
   18.9758   -6.4536  -15.3440 C   0  0  0  0  0  0  0  0  0  0  0  0
   19.8628   -5.6345  -14.4651 C   0  0  2  0  0  0  0  0  0  0  0  0
   19.4348   -4.1852  -14.3578 C   0  0  0  0  0  0  0  0  0  0  0  0
   21.3091   -5.8835  -14.5154 C   0  0  2  0  0  0  0  0  0  0  0  0
   21.6401   -7.2791  -14.1883 N   0  0  0  0  0  0  0  0  0  0  0  0
   22.2242   -4.9561  -13.8628 C   0  0  0  0  0  0  0  0  0  0  0  0
   22.5601   -4.9944  -12.6484 O   0  0  0  0  0  0  0  0  0  0  0  0
   22.8425   -3.8830  -14.5546 O   0  0  0  0  0  0  0  0  0  0  0  0
  1  2  1  0
  2  3  1  0
  3  4  1  1
  3  5  1  0
  5  7  1  0
  5  6  2  0
  7  8  1  0
  9  8  1  0
 10 11  1  0
 10  9  1  0
 11  7  1  0
 11 12  1  6
 12 19  1  0
 13 12  2  0
 15 14  1  0
 16 17  1  6
 16 15  1  0
 18 20  1  0
 18 16  1  0
 18 19  1  1
 20 22  1  0
 21 20  2  0
M  END
$$$$
