SPI.pdb
     RDKit          3D

 22 22  0  0  1  0  0  0  0  0999 V2000
   24.6229  -19.2674  -13.3493 O   0  0  0  0  0  0  0  0  0  0  0  0
   25.0155  -19.7474  -12.1386 C   0  0  0  0  0  0  0  0  0  0  0  0
   25.7976  -21.0518  -12.3439 C   0  0  2  0  0  0  0  0  0  0  0  0
   24.7689  -22.1064  -12.5399 N   0  0  0  0  0  0  0  0  0  0  0  0
   26.5414  -21.3746  -11.1109 C   0  0  0  0  0  0  0  0  0  0  0  0
   25.8577  -21.8378  -10.1499 O   0  0  0  0  0  0  0  0  0  0  0  0
   27.9348  -21.2182  -10.9106 N   0  0  0  0  0  0  0  0  0  0  0  0
   28.8644  -20.8096  -11.9358 C   0  0  0  0  0  0  0  0  0  0  0  0
   30.1810  -21.4758  -11.4974 C   0  0  0  0  0  0  0  0  0  0  0  0
   30.0889  -21.1930  -10.0104 C   0  0  0  0  0  0  0  0  0  0  0  0
   28.6497  -21.4481   -9.7145 C   0  0  1  0  0  0  0  0  0  0  0  0
   28.1477  -20.6803   -8.5486 C   0  0  0  0  0  0  0  0  0  0  0  0
   27.1238  -19.9841   -8.7348 O   0  0  0  0  0  0  0  0  0  0  0  0
   28.5424  -20.6456   -2.3146 C   0  0  0  0  0  0  0  0  0  0  0  0
   28.1767  -19.9560   -3.5787 C   0  0  0  0  0  0  0  0  0  0  0  0
   28.6114  -20.6053   -4.8514 C   0  0  2  0  0  0  0  0  0  0  0  0
   29.9744  -21.2605   -4.7603 C   0  0  0  0  0  0  0  0  0  0  0  0
   28.2983  -19.9287   -6.1165 C   0  0  2  0  0  0  0  0  0  0  0  0
   28.7546  -20.7010   -7.2825 N   0  0  0  0  0  0  0  0  0  0  0  0
   28.5990  -18.5113   -6.2705 C   0  0  0  0  0  0  0  0  0  0  0  0
   27.9974  -17.5694   -5.6875 O   0  0  0  0  0  0  0  0  0  0  0  0
   29.6304  -18.0400   -7.1229 O   0  0  0  0  0  0  0  0  0  0  0  0
  1  2  1  0
  2  3  1  0
  3  4  1  1
  3  5  1  0
  5  7  1  0
  5  6  2  0
  7  8  1  0
  9  8  1  0
 10 11  1  0
 10  9  1  0
 11  7  1  0
 11 12  1  1
 12 19  1  0
 13 12  2  0
 15 14  1  0
 16 17  1  1
 16 15  1  0
 18 20  1  0
 18 16  1  0
 18 19  1  6
 20 22  1  0
 21 20  2  0
M  END
$$$$
