SPI.pdb
     RDKit          3D

 22 22  0  0  1  0  0  0  0  0999 V2000
   23.0157  -19.6024  -17.8007 O   0  0  0  0  0  0  0  0  0  0  0  0
   22.3272  -20.0586  -16.7199 C   0  0  0  0  0  0  0  0  0  0  0  0
   23.1481  -19.7918  -15.4509 C   0  0  2  0  0  0  0  0  0  0  0  0
   22.3355  -20.3322  -14.3299 N   0  0  0  0  0  0  0  0  0  0  0  0
   23.2773  -18.3357  -15.2498 C   0  0  0  0  0  0  0  0  0  0  0  0
   22.2032  -17.7057  -15.0150 O   0  0  0  0  0  0  0  0  0  0  0  0
   24.4808  -17.5900  -15.2915 N   0  0  0  0  0  0  0  0  0  0  0  0
   25.7954  -18.1714  -15.4176 C   0  0  0  0  0  0  0  0  0  0  0  0
   26.6979  -17.1497  -14.7027 C   0  0  0  0  0  0  0  0  0  0  0  0
   26.0702  -15.8805  -15.2458 C   0  0  0  0  0  0  0  0  0  0  0  0
   24.6117  -16.1869  -15.1977 C   0  0  1  0  0  0  0  0  0  0  0  0
   23.8227  -15.4338  -16.2033 C   0  0  0  0  0  0  0  0  0  0  0  0
   23.5502  -16.0355  -17.2669 O   0  0  0  0  0  0  0  0  0  0  0  0
   19.2808  -13.1194  -15.1508 C   0  0  0  0  0  0  0  0  0  0  0  0
   20.4265  -13.7177  -15.8833 C   0  0  0  0  0  0  0  0  0  0  0  0
   21.4052  -12.7699  -16.4949 C   0  0  2  0  0  0  0  0  0  0  0  0
   20.7538  -11.6740  -17.3134 C   0  0  0  0  0  0  0  0  0  0  0  0
   22.6617  -13.3165  -17.0229 C   0  0  2  0  0  0  0  0  0  0  0  0
   23.3818  -14.1135  -16.0178 N   0  0  0  0  0  0  0  0  0  0  0  0
   23.5714  -12.4504  -17.7617 C   0  0  0  0  0  0  0  0  0  0  0  0
   24.4604  -11.7182  -17.2494 O   0  0  0  0  0  0  0  0  0  0  0  0
   23.5397  -12.3424  -19.1758 O   0  0  0  0  0  0  0  0  0  0  0  0
  1  2  1  0
  2  3  1  0
  3  4  1  1
  3  5  1  0
  5  7  1  0
  5  6  2  0
  7  8  1  0
  9  8  1  0
 10 11  1  0
 10  9  1  0
 11  7  1  0
 11 12  1  6
 12 19  1  0
 13 12  2  0
 15 14  1  0
 16 17  1  6
 16 15  1  0
 18 20  1  0
 18 16  1  0
 18 19  1  1
 20 22  1  0
 21 20  2  0
M  END
$$$$
