SPI.pdb
     RDKit          3D

 22 22  0  0  1  0  0  0  0  0999 V2000
   25.6529  -22.2340  -19.8848 O   0  0  0  0  0  0  0  0  0  0  0  0
   25.8626  -22.3700  -18.5477 C   0  0  0  0  0  0  0  0  0  0  0  0
   27.2936  -21.9264  -18.2150 C   0  0  2  0  0  0  0  0  0  0  0  0
   28.1044  -23.1719  -18.2038 N   0  0  0  0  0  0  0  0  0  0  0  0
   27.3249  -21.3589  -16.8532 C   0  0  0  0  0  0  0  0  0  0  0  0
   27.5732  -22.1719  -15.9135 O   0  0  0  0  0  0  0  0  0  0  0  0
   27.1086  -20.0023  -16.5082 N   0  0  0  0  0  0  0  0  0  0  0  0
   26.9353  -18.9360  -17.4650 C   0  0  0  0  0  0  0  0  0  0  0  0
   27.4655  -17.7028  -16.7117 C   0  0  0  0  0  0  0  0  0  0  0  0
   26.8488  -17.9883  -15.3560 C   0  0  0  0  0  0  0  0  0  0  0  0
   27.0474  -19.4586  -15.2062 C   0  0  1  0  0  0  0  0  0  0  0  0
   26.0381  -20.0981  -14.3269 C   0  0  0  0  0  0  0  0  0  0  0  0
   25.0616  -20.6381  -14.8948 O   0  0  0  0  0  0  0  0  0  0  0  0
   27.6456  -21.0095   -9.2019 C   0  0  0  0  0  0  0  0  0  0  0  0
   26.8974  -21.4126  -10.4205 C   0  0  0  0  0  0  0  0  0  0  0  0
   25.5702  -20.7649  -10.6422 C   0  0  2  0  0  0  0  0  0  0  0  0
   24.5348  -21.1377   -9.6009 C   0  0  0  0  0  0  0  0  0  0  0  0
   25.0861  -20.6318  -12.0221 C   0  0  2  0  0  0  0  0  0  0  0  0
   26.1293  -20.1225  -12.9258 N   0  0  0  0  0  0  0  0  0  0  0  0
   23.8043  -19.9878  -12.2783 C   0  0  0  0  0  0  0  0  0  0  0  0
   23.6256  -18.7486  -12.4244 O   0  0  0  0  0  0  0  0  0  0  0  0
   22.5934  -20.7187  -12.3879 O   0  0  0  0  0  0  0  0  0  0  0  0
  1  2  1  0
  2  3  1  0
  3  4  1  1
  3  5  1  0
  5  7  1  0
  5  6  2  0
  7  8  1  0
  9  8  1  0
 10 11  1  0
 10  9  1  0
 11  7  1  0
 11 12  1  1
 12 19  1  0
 13 12  2  0
 15 14  1  0
 16 17  1  1
 16 15  1  0
 18 20  1  0
 18 16  1  0
 18 19  1  6
 20 22  1  0
 21 20  2  0
M  END
$$$$
