FNE.pdb
     RDKit          3D

 29 29  0  0  1  0  0  0  0  0999 V2000
   26.5735  -22.1715   -8.8002 N   0  0  0  0  0  0  0  0  0  0  0  0
   26.4328  -21.1014   -9.7437 C   0  0  1  0  0  0  0  0  0  0  0  0
   27.7688  -20.5304  -10.1741 C   0  0  0  0  0  0  0  0  0  0  0  0
   28.7130  -20.4049   -9.0491 C   0  0  0  0  0  0  0  0  0  0  0  0
   28.3526  -19.6292   -7.9806 C   0  0  0  0  0  0  0  0  0  0  0  0
   29.2197  -19.5003   -6.9228 C   0  0  0  0  0  0  0  0  0  0  0  0
   30.4511  -20.1239   -6.8876 C   0  0  0  0  0  0  0  0  0  0  0  0
   30.7663  -20.8913   -7.9838 C   0  0  0  0  0  0  0  0  0  0  0  0
   29.9228  -21.0435   -9.0616 C   0  0  0  0  0  0  0  0  0  0  0  0
   25.7640  -21.5750  -11.0074 C   0  0  0  0  0  0  0  0  0  0  0  0
   25.5854  -22.8029  -11.2178 O   0  0  0  0  0  0  0  0  0  0  0  0
   20.4225  -20.4638  -12.0511 N   0  0  0  0  0  0  0  0  0  0  0  0
   21.6038  -21.1768  -12.3596 C   0  0  0  0  0  0  0  0  0  0  0  0
   21.5221  -22.0542  -13.2459 O   0  0  0  0  0  0  0  0  0  0  0  0
   22.8914  -20.9224  -11.6857 C   0  0  0  0  0  0  0  0  0  0  0  0
   24.0342  -20.7449  -12.6459 C   0  0  2  0  0  0  0  0  0  0  0  0
   25.3194  -20.6474  -11.9904 N   0  0  0  0  0  0  0  0  0  0  0  0
   23.8061  -19.6677  -13.6168 C   0  0  0  0  0  0  0  0  0  0  0  0
   23.1829  -18.6393  -13.2850 O   0  0  0  0  0  0  0  0  0  0  0  0
   24.3004  -19.8072  -14.9336 N   0  0  0  0  0  0  0  0  0  0  0  0
   23.9418  -18.8728  -16.0134 C   0  0  1  0  0  0  0  0  0  0  0  0
   24.4058  -19.5009  -17.2895 C   0  0  0  0  0  0  0  0  0  0  0  0
   24.0676  -18.7427  -18.5305 C   0  0  0  0  0  0  0  0  0  0  0  0
   24.9305  -19.2086  -19.6709 C   0  0  0  0  0  0  0  0  0  0  0  0
   24.8648  -18.6485  -20.7915 O   0  0  0  0  0  0  0  0  0  0  0  0
   22.4869  -18.6518  -15.9909 C   0  0  0  0  0  0  0  0  0  0  0  0
   21.7201  -19.5889  -15.6659 O   0  0  0  0  0  0  0  0  0  0  0  0
   25.8240  -20.2655  -19.5301 O   0  0  0  0  0  0  0  0  0  0  0  0
   21.9227  -17.4320  -16.3188 O   0  0  0  0  0  0  0  0  0  0  0  0
  2  1  1  1
  2  3  1  0
  3  4  1  0
  4  5  2  0
  4  9  1  0
  5  6  1  0
  6  7  2  0
  8  7  1  0
  9  8  2  0
 10  2  1  0
 11 10  2  0
 12 13  1  0
 13 14  2  0
 16 15  1  1
 15 13  1  0
 16 17  1  0
 17 10  1  0
 18 20  1  0
 18 16  1  0
 19 18  2  0
 21 22  1  6
 21 26  1  0
 21 20  1  0
 23 22  1  0
 24 23  1  0
 25 24  2  0
 26 29  1  0
 27 26  2  0
 28 24  1  0
M  END
$$$$
