FNE.pdb
     RDKit          3D

 29 29  0  0  1  0  0  0  0  0999 V2000
   26.9293  -22.6008  -11.6888 N   0  0  0  0  0  0  0  0  0  0  0  0
   26.0816  -21.5015  -11.3306 C   0  0  1  0  0  0  0  0  0  0  0  0
   26.8690  -20.2631  -10.9531 C   0  0  0  0  0  0  0  0  0  0  0  0
   27.4384  -20.3533   -9.5964 C   0  0  0  0  0  0  0  0  0  0  0  0
   28.7226  -20.8063   -9.4585 C   0  0  0  0  0  0  0  0  0  0  0  0
   29.2702  -20.8972   -8.2018 C   0  0  0  0  0  0  0  0  0  0  0  0
   28.5774  -20.5490   -7.0594 C   0  0  0  0  0  0  0  0  0  0  0  0
   27.2921  -20.1002   -7.2508 C   0  0  0  0  0  0  0  0  0  0  0  0
   26.7105  -19.9958   -8.4945 C   0  0  0  0  0  0  0  0  0  0  0  0
   25.2044  -21.0927  -12.4845 C   0  0  0  0  0  0  0  0  0  0  0  0
   25.4654  -21.4728  -13.6556 O   0  0  0  0  0  0  0  0  0  0  0  0
   19.9950  -21.5558  -12.6457 N   0  0  0  0  0  0  0  0  0  0  0  0
   20.5751  -21.3883  -11.3673 C   0  0  0  0  0  0  0  0  0  0  0  0
   19.8523  -21.6383  -10.3788 O   0  0  0  0  0  0  0  0  0  0  0  0
   21.9674  -20.9403  -11.1726 C   0  0  0  0  0  0  0  0  0  0  0  0
   22.7067  -20.7355  -12.4652 C   0  0  2  0  0  0  0  0  0  0  0  0
   24.0626  -20.2691  -12.2783 N   0  0  0  0  0  0  0  0  0  0  0  0
   21.9550  -19.9297  -13.4349 C   0  0  0  0  0  0  0  0  0  0  0  0
   20.7300  -20.1071  -13.5896 O   0  0  0  0  0  0  0  0  0  0  0  0
   22.6339  -18.9489  -14.1932 N   0  0  0  0  0  0  0  0  0  0  0  0
   22.3477  -18.7166  -15.6186 C   0  0  1  0  0  0  0  0  0  0  0  0
   23.5743  -19.1278  -16.3701 C   0  0  0  0  0  0  0  0  0  0  0  0
   24.8688  -18.7777  -15.7137 C   0  0  0  0  0  0  0  0  0  0  0  0
   26.0199  -19.2170  -16.5762 C   0  0  0  0  0  0  0  0  0  0  0  0
   26.0414  -18.9433  -17.8003 O   0  0  0  0  0  0  0  0  0  0  0  0
   21.1629  -19.5009  -16.0023 C   0  0  0  0  0  0  0  0  0  0  0  0
   20.2582  -18.9672  -16.6868 O   0  0  0  0  0  0  0  0  0  0  0  0
   27.0926  -19.9350  -16.0575 O   0  0  0  0  0  0  0  0  0  0  0  0
   21.0052  -20.8246  -15.6324 O   0  0  0  0  0  0  0  0  0  0  0  0
  2  1  1  6
  2  3  1  0
  3  4  1  0
  4  5  2  0
  4  9  1  0
  5  6  1  0
  6  7  2  0
  8  7  1  0
  9  8  2  0
 10  2  1  0
 11 10  2  0
 12 13  1  0
 13 14  2  0
 16 15  1  1
 15 13  1  0
 16 17  1  0
 17 10  1  0
 18 20  1  0
 18 16  1  0
 19 18  2  0
 21 22  1  6
 21 26  1  0
 21 20  1  0
 23 22  1  0
 24 23  1  0
 25 24  2  0
 26 29  1  0
 27 26  2  0
 28 24  1  0
M  END
$$$$
