FNE.pdb
     RDKit          3D

 29 29  0  0  1  0  0  0  0  0999 V2000
   28.4916  -21.6339   -9.1389 N   0  0  0  0  0  0  0  0  0  0  0  0
   27.2830  -20.8659   -9.0718 C   0  0  1  0  0  0  0  0  0  0  0  0
   27.4980  -19.5025   -8.4464 C   0  0  0  0  0  0  0  0  0  0  0  0
   27.8640  -19.5912   -7.0213 C   0  0  0  0  0  0  0  0  0  0  0  0
   28.1713  -18.4357   -6.3552 C   0  0  0  0  0  0  0  0  0  0  0  0
   28.5149  -18.4988   -5.0265 C   0  0  0  0  0  0  0  0  0  0  0  0
   28.5650  -19.6868   -4.3247 C   0  0  0  0  0  0  0  0  0  0  0  0
   28.2480  -20.8185   -5.0380 C   0  0  0  0  0  0  0  0  0  0  0  0
   27.8992  -20.7937   -6.3698 C   0  0  0  0  0  0  0  0  0  0  0  0
   26.7289  -20.6024  -10.4472 C   0  0  0  0  0  0  0  0  0  0  0  0
   27.4894  -20.2677  -11.3925 O   0  0  0  0  0  0  0  0  0  0  0  0
   24.4904  -23.3175  -11.8296 N   0  0  0  0  0  0  0  0  0  0  0  0
   25.2341  -22.7676  -12.8989 C   0  0  0  0  0  0  0  0  0  0  0  0
   25.7687  -23.5725  -13.6915 O   0  0  0  0  0  0  0  0  0  0  0  0
   25.3924  -21.3145  -13.0999 C   0  0  0  0  0  0  0  0  0  0  0  0
   24.7532  -20.4962  -12.0130 C   0  0  2  0  0  0  0  0  0  0  0  0
   25.3359  -20.7256  -10.7096 N   0  0  0  0  0  0  0  0  0  0  0  0
   23.2884  -20.5929  -12.0078 C   0  0  0  0  0  0  0  0  0  0  0  0
   22.6965  -21.1711  -11.0743 O   0  0  0  0  0  0  0  0  0  0  0  0
   22.5539  -20.0236  -13.0727 N   0  0  0  0  0  0  0  0  0  0  0  0
   21.0839  -19.9418  -13.0614 C   0  0  1  0  0  0  0  0  0  0  0  0
   20.6906  -19.2014  -14.3005 C   0  0  0  0  0  0  0  0  0  0  0  0
   21.1253  -17.7740  -14.3527 C   0  0  0  0  0  0  0  0  0  0  0  0
   20.6535  -17.1375  -15.6312 C   0  0  0  0  0  0  0  0  0  0  0  0
   21.3103  -17.2719  -16.6915 O   0  0  0  0  0  0  0  0  0  0  0  0
   20.5296  -21.3045  -13.0198 C   0  0  0  0  0  0  0  0  0  0  0  0
   21.1416  -22.2428  -13.5826 O   0  0  0  0  0  0  0  0  0  0  0  0
   19.4853  -16.3844  -15.6878 O   0  0  0  0  0  0  0  0  0  0  0  0
   19.3416  -21.5963  -12.3737 O   0  0  0  0  0  0  0  0  0  0  0  0
  2  1  1  6
  2  3  1  0
  3  4  1  0
  4  5  2  0
  4  9  1  0
  5  6  1  0
  6  7  2  0
  8  7  1  0
  9  8  2  0
 10  2  1  0
 11 10  2  0
 12 13  1  0
 13 14  2  0
 16 15  1  6
 15 13  1  0
 16 17  1  0
 17 10  1  0
 18 20  1  0
 18 16  1  0
 19 18  2  0
 21 22  1  6
 21 26  1  0
 21 20  1  0
 23 22  1  0
 24 23  1  0
 25 24  2  0
 26 29  1  0
 27 26  2  0
 28 24  1  0
M  END
$$$$
