FNE.pdb
     RDKit          3D

 29 29  0  0  1  0  0  0  0  0999 V2000
   18.2627   -9.9311  -13.3465 N   0  0  0  0  0  0  0  0  0  0  0  0
   18.4688   -9.1466  -12.1644 C   0  0  1  0  0  0  0  0  0  0  0  0
   19.4165   -7.9875  -12.3974 C   0  0  0  0  0  0  0  0  0  0  0  0
   20.7554   -8.4352  -12.8213 C   0  0  0  0  0  0  0  0  0  0  0  0
   21.1406   -8.2020  -14.1139 C   0  0  0  0  0  0  0  0  0  0  0  0
   22.3850   -8.6122  -14.5271 C   0  0  0  0  0  0  0  0  0  0  0  0
   23.2743   -9.2557  -13.6897 C   0  0  0  0  0  0  0  0  0  0  0  0
   22.8407   -9.4664  -12.4023 C   0  0  0  0  0  0  0  0  0  0  0  0
   21.6012   -9.0694  -11.9528 C   0  0  0  0  0  0  0  0  0  0  0  0
   17.1791   -8.5313  -11.6884 C   0  0  0  0  0  0  0  0  0  0  0  0
   16.2186   -8.3583  -12.4831 O   0  0  0  0  0  0  0  0  0  0  0  0
   12.5705   -8.4114   -8.9770 N   0  0  0  0  0  0  0  0  0  0  0  0
   13.7817   -7.9646   -8.4005 C   0  0  0  0  0  0  0  0  0  0  0  0
   13.6973   -7.1039   -7.4983 O   0  0  0  0  0  0  0  0  0  0  0  0
   15.1025   -8.4701   -8.8209 C   0  0  0  0  0  0  0  0  0  0  0  0
   15.7878   -7.5737   -9.8140 C   0  0  2  0  0  0  0  0  0  0  0  0
   17.0168   -8.1322  -10.3324 N   0  0  0  0  0  0  0  0  0  0  0  0
   15.9466   -6.1968   -9.3303 C   0  0  0  0  0  0  0  0  0  0  0  0
   16.9966   -5.8460   -8.7555 O   0  0  0  0  0  0  0  0  0  0  0  0
   14.8963   -5.2707   -9.5227 N   0  0  0  0  0  0  0  0  0  0  0  0
   15.0649   -3.8272   -9.2869 C   0  0  1  0  0  0  0  0  0  0  0  0
   15.9577   -3.3210  -10.3754 C   0  0  0  0  0  0  0  0  0  0  0  0
   16.0460   -1.8346  -10.4849 C   0  0  0  0  0  0  0  0  0  0  0  0
   16.9969   -1.2968   -9.4511 C   0  0  0  0  0  0  0  0  0  0  0  0
   17.1856   -0.0617   -9.3384 O   0  0  0  0  0  0  0  0  0  0  0  0
   13.7417   -3.1831   -9.2988 C   0  0  0  0  0  0  0  0  0  0  0  0
   12.8876   -3.5313  -10.1480 O   0  0  0  0  0  0  0  0  0  0  0  0
   17.6959   -2.1367   -8.5903 O   0  0  0  0  0  0  0  0  0  0  0  0
   13.3968   -2.1935   -8.3958 O   0  0  0  0  0  0  0  0  0  0  0  0
  2  1  1  6
  2  3  1  0
  3  4  1  0
  4  5  2  0
  4  9  1  0
  5  6  1  0
  6  7  2  0
  8  7  1  0
  9  8  2  0
 10  2  1  0
 11 10  2  0
 12 13  1  0
 13 14  2  0
 16 15  1  1
 15 13  1  0
 16 17  1  0
 17 10  1  0
 18 20  1  0
 18 16  1  0
 19 18  2  0
 21 22  1  6
 21 26  1  0
 21 20  1  0
 23 22  1  0
 24 23  1  0
 25 24  2  0
 26 29  1  0
 27 26  2  0
 28 24  1  0
M  END
$$$$
