FNE.pdb
     RDKit          3D

 29 29  0  0  1  0  0  0  0  0999 V2000
   30.1687  -24.5855  -16.4088 N   0  0  0  0  0  0  0  0  0  0  0  0
   29.4989  -23.5000  -17.0633 C   0  0  1  0  0  0  0  0  0  0  0  0
   28.6773  -23.9590  -18.2508 C   0  0  0  0  0  0  0  0  0  0  0  0
   29.4924  -24.1159  -19.4690 C   0  0  0  0  0  0  0  0  0  0  0  0
   29.9000  -25.3741  -19.8217 C   0  0  0  0  0  0  0  0  0  0  0  0
   30.6605  -25.5398  -20.9538 C   0  0  0  0  0  0  0  0  0  0  0  0
   31.0365  -24.4844  -21.7607 C   0  0  0  0  0  0  0  0  0  0  0  0
   30.6024  -23.2418  -21.3640 C   0  0  0  0  0  0  0  0  0  0  0  0
   29.8392  -23.0376  -20.2362 C   0  0  0  0  0  0  0  0  0  0  0  0
   28.5293  -22.8193  -16.1334 C   0  0  0  0  0  0  0  0  0  0  0  0
   28.0379  -23.4376  -15.1535 O   0  0  0  0  0  0  0  0  0  0  0  0
   25.5906  -18.5973  -16.0890 N   0  0  0  0  0  0  0  0  0  0  0  0
   26.8425  -18.2836  -15.5116 C   0  0  0  0  0  0  0  0  0  0  0  0
   27.0729  -17.0780  -15.2762 O   0  0  0  0  0  0  0  0  0  0  0  0
   27.8543  -19.3078  -15.1888 C   0  0  0  0  0  0  0  0  0  0  0  0
   27.3570  -20.7118  -15.3916 C   0  0  2  0  0  0  0  0  0  0  0  0
   28.1470  -21.4645  -16.3404 N   0  0  0  0  0  0  0  0  0  0  0  0
   25.9172  -20.7761  -15.6703 C   0  0  0  0  0  0  0  0  0  0  0  0
   25.4784  -20.4817  -16.8002 O   0  0  0  0  0  0  0  0  0  0  0  0
   25.0312  -21.1757  -14.6441 N   0  0  0  0  0  0  0  0  0  0  0  0
   23.5797  -21.2967  -14.8585 C   0  0  1  0  0  0  0  0  0  0  0  0
   23.0841  -22.2904  -13.8560 C   0  0  0  0  0  0  0  0  0  0  0  0
   23.1531  -23.7178  -14.2886 C   0  0  0  0  0  0  0  0  0  0  0  0
   21.7761  -24.2232  -14.6212 C   0  0  0  0  0  0  0  0  0  0  0  0
   20.7650  -23.5147  -14.3988 O   0  0  0  0  0  0  0  0  0  0  0  0
   22.9599  -19.9722  -14.6923 C   0  0  0  0  0  0  0  0  0  0  0  0
   21.8032  -19.7670  -15.1303 O   0  0  0  0  0  0  0  0  0  0  0  0
   21.5718  -25.4800  -15.1813 O   0  0  0  0  0  0  0  0  0  0  0  0
   23.6127  -18.9281  -14.0618 O   0  0  0  0  0  0  0  0  0  0  0  0
  2  1  1  1
  2  3  1  0
  3  4  1  0
  4  5  2  0
  4  9  1  0
  5  6  1  0
  6  7  2  0
  8  7  1  0
  9  8  2  0
 10  2  1  0
 11 10  2  0
 12 13  1  0
 13 14  2  0
 16 15  1  6
 15 13  1  0
 16 17  1  0
 17 10  1  0
 18 20  1  0
 18 16  1  0
 19 18  2  0
 21 22  1  1
 21 26  1  0
 21 20  1  0
 23 22  1  0
 24 23  1  0
 25 24  2  0
 26 29  1  0
 27 26  2  0
 28 24  1  0
M  END
$$$$
