FNE.pdb
     RDKit          3D

 29 29  0  0  1  0  0  0  0  0999 V2000
   28.2227  -20.0166  -16.0195 N   0  0  0  0  0  0  0  0  0  0  0  0
   27.4009  -19.5353  -14.9479 C   0  0  1  0  0  0  0  0  0  0  0  0
   26.3596  -18.5406  -15.4194 C   0  0  0  0  0  0  0  0  0  0  0  0
   26.9612  -17.2779  -15.8844 C   0  0  0  0  0  0  0  0  0  0  0  0
   26.9954  -16.2165  -15.0207 C   0  0  0  0  0  0  0  0  0  0  0  0
   27.5522  -15.0314  -15.4365 C   0  0  0  0  0  0  0  0  0  0  0  0
   28.0845  -14.8598  -16.6989 C   0  0  0  0  0  0  0  0  0  0  0  0
   28.0261  -15.9546  -17.5283 C   0  0  0  0  0  0  0  0  0  0  0  0
   27.4759  -17.1577  -17.1463 C   0  0  0  0  0  0  0  0  0  0  0  0
   26.6316  -20.6595  -14.3054 C   0  0  0  0  0  0  0  0  0  0  0  0
   26.2620  -21.6538  -14.9827 O   0  0  0  0  0  0  0  0  0  0  0  0
   25.8032  -19.4075  -10.4312 N   0  0  0  0  0  0  0  0  0  0  0  0
   25.8494  -20.7569  -10.0117 C   0  0  0  0  0  0  0  0  0  0  0  0
   26.1093  -20.9684   -8.8077 O   0  0  0  0  0  0  0  0  0  0  0  0
   25.6069  -21.8885  -10.9270 C   0  0  0  0  0  0  0  0  0  0  0  0
   25.2801  -21.4534  -12.3282 C   0  0  2  0  0  0  0  0  0  0  0  0
   26.3055  -20.6238  -12.9209 N   0  0  0  0  0  0  0  0  0  0  0  0
   23.9367  -20.8746  -12.4509 C   0  0  0  0  0  0  0  0  0  0  0  0
   23.6920  -19.7417  -11.9896 O   0  0  0  0  0  0  0  0  0  0  0  0
   22.9211  -21.6147  -13.0979 N   0  0  0  0  0  0  0  0  0  0  0  0
   21.5633  -21.0820  -13.2982 C   0  0  1  0  0  0  0  0  0  0  0  0
   21.4229  -20.8184  -14.7641 C   0  0  0  0  0  0  0  0  0  0  0  0
   22.1230  -19.5963  -15.2598 C   0  0  0  0  0  0  0  0  0  0  0  0
   21.1180  -18.5828  -15.7341 C   0  0  0  0  0  0  0  0  0  0  0  0
   20.1473  -18.2584  -15.0087 O   0  0  0  0  0  0  0  0  0  0  0  0
   20.5862  -22.0669  -12.8071 C   0  0  0  0  0  0  0  0  0  0  0  0
   20.9576  -23.2358  -12.5470 O   0  0  0  0  0  0  0  0  0  0  0  0
   21.2237  -17.9728  -16.9799 O   0  0  0  0  0  0  0  0  0  0  0  0
   19.2531  -21.7495  -12.6175 O   0  0  0  0  0  0  0  0  0  0  0  0
  2  1  1  6
  2  3  1  0
  3  4  1  0
  4  5  2  0
  4  9  1  0
  5  6  1  0
  6  7  2  0
  8  7  1  0
  9  8  2  0
 10  2  1  0
 11 10  2  0
 12 13  1  0
 13 14  2  0
 16 15  1  1
 15 13  1  0
 16 17  1  0
 17 10  1  0
 18 20  1  0
 18 16  1  0
 19 18  2  0
 21 22  1  6
 21 26  1  0
 21 20  1  0
 23 22  1  0
 24 23  1  0
 25 24  2  0
 26 29  1  0
 27 26  2  0
 28 24  1  0
M  END
$$$$
