FNE.pdb
     RDKit          3D

 29 29  0  0  1  0  0  0  0  0999 V2000
   25.0926  -20.5570   -9.9380 N   0  0  0  0  0  0  0  0  0  0  0  0
   25.7774  -20.2230  -11.1524 C   0  0  1  0  0  0  0  0  0  0  0  0
   26.5827  -21.3837  -11.7003 C   0  0  0  0  0  0  0  0  0  0  0  0
   27.9616  -21.4041  -11.1797 C   0  0  0  0  0  0  0  0  0  0  0  0
   28.9863  -21.1143  -12.0397 C   0  0  0  0  0  0  0  0  0  0  0  0
   30.2781  -21.1284  -11.5724 C   0  0  0  0  0  0  0  0  0  0  0  0
   30.5938  -21.4247  -10.2614 C   0  0  0  0  0  0  0  0  0  0  0  0
   29.5303  -21.7087   -9.4378 C   0  0  0  0  0  0  0  0  0  0  0  0
   28.2231  -21.7041   -9.8707 C   0  0  0  0  0  0  0  0  0  0  0  0
   24.8049  -19.8500  -12.2403 C   0  0  0  0  0  0  0  0  0  0  0  0
   23.6096  -20.2414  -12.1948 O   0  0  0  0  0  0  0  0  0  0  0  0
   23.5007  -15.6591  -15.8442 N   0  0  0  0  0  0  0  0  0  0  0  0
   23.9696  -16.9466  -16.1929 C   0  0  0  0  0  0  0  0  0  0  0  0
   23.5149  -17.4513  -17.2420 O   0  0  0  0  0  0  0  0  0  0  0  0
   24.9507  -17.6889  -15.3785 C   0  0  0  0  0  0  0  0  0  0  0  0
   24.3099  -18.6180  -14.3858 C   0  0  2  0  0  0  0  0  0  0  0  0
   25.2137  -19.0482  -13.3422 N   0  0  0  0  0  0  0  0  0  0  0  0
   23.5991  -19.7346  -15.0206 C   0  0  0  0  0  0  0  0  0  0  0  0
   24.0444  -20.8967  -14.9366 O   0  0  0  0  0  0  0  0  0  0  0  0
   22.4031  -19.4796  -15.7293 N   0  0  0  0  0  0  0  0  0  0  0  0
   21.2194  -20.3479  -15.6163 C   0  0  1  0  0  0  0  0  0  0  0  0
   21.4066  -21.1610  -14.3745 C   0  0  0  0  0  0  0  0  0  0  0  0
   20.5084  -20.8006  -13.2377 C   0  0  0  0  0  0  0  0  0  0  0  0
   19.5567  -21.9303  -12.9540 C   0  0  0  0  0  0  0  0  0  0  0  0
   19.5685  -22.9674  -13.6597 O   0  0  0  0  0  0  0  0  0  0  0  0
   20.0130  -19.5067  -15.5619 C   0  0  0  0  0  0  0  0  0  0  0  0
   20.0850  -18.3444  -15.0974 O   0  0  0  0  0  0  0  0  0  0  0  0
   18.6378  -21.8706  -11.9114 O   0  0  0  0  0  0  0  0  0  0  0  0
   18.7831  -19.9540  -16.0105 O   0  0  0  0  0  0  0  0  0  0  0  0
  2  1  1  1
  2  3  1  0
  3  4  1  0
  4  5  2  0
  4  9  1  0
  5  6  1  0
  6  7  2  0
  8  7  1  0
  9  8  2  0
 10  2  1  0
 11 10  2  0
 12 13  1  0
 13 14  2  0
 16 15  1  6
 15 13  1  0
 16 17  1  0
 17 10  1  0
 18 20  1  0
 18 16  1  0
 19 18  2  0
 21 22  1  1
 21 26  1  0
 21 20  1  0
 23 22  1  0
 24 23  1  0
 25 24  2  0
 26 29  1  0
 27 26  2  0
 28 24  1  0
M  END
$$$$
