FNE.pdb
     RDKit          3D

 29 29  0  0  1  0  0  0  0  0999 V2000
   28.9620  -21.2597   -9.2617 N   0  0  0  0  0  0  0  0  0  0  0  0
   27.5579  -20.9871   -9.1640 C   0  0  1  0  0  0  0  0  0  0  0  0
   27.2585  -19.8136   -8.2533 C   0  0  0  0  0  0  0  0  0  0  0  0
   27.8299  -19.9901   -6.9060 C   0  0  0  0  0  0  0  0  0  0  0  0
   27.1372  -20.7463   -5.9994 C   0  0  0  0  0  0  0  0  0  0  0  0
   27.6541  -20.9218   -4.7386 C   0  0  0  0  0  0  0  0  0  0  0  0
   28.8528  -20.3648   -4.3398 C   0  0  0  0  0  0  0  0  0  0  0  0
   29.5098  -19.6146   -5.2861 C   0  0  0  0  0  0  0  0  0  0  0  0
   29.0226  -19.4169   -6.5587 C   0  0  0  0  0  0  0  0  0  0  0  0
   26.9802  -20.6214  -10.5060 C   0  0  0  0  0  0  0  0  0  0  0  0
   27.7326  -20.3087  -11.4652 O   0  0  0  0  0  0  0  0  0  0  0  0
   24.6803  -24.1943  -14.0433 N   0  0  0  0  0  0  0  0  0  0  0  0
   24.9115  -22.8435  -13.6954 C   0  0  0  0  0  0  0  0  0  0  0  0
   24.6471  -21.9813  -14.5605 O   0  0  0  0  0  0  0  0  0  0  0  0
   25.4402  -22.4351  -12.3798 C   0  0  0  0  0  0  0  0  0  0  0  0
   24.9603  -21.0778  -11.9475 C   0  0  2  0  0  0  0  0  0  0  0  0
   25.5736  -20.6209  -10.7203 N   0  0  0  0  0  0  0  0  0  0  0  0
   23.4968  -20.9652  -11.9299 C   0  0  0  0  0  0  0  0  0  0  0  0
   22.8315  -21.5131  -11.0282 O   0  0  0  0  0  0  0  0  0  0  0  0
   22.8475  -20.2285  -12.9465 N   0  0  0  0  0  0  0  0  0  0  0  0
   21.4224  -19.8667  -12.8703 C   0  0  1  0  0  0  0  0  0  0  0  0
   21.2090  -18.7708  -13.8661 C   0  0  0  0  0  0  0  0  0  0  0  0
   19.8097  -18.2580  -13.9564 C   0  0  0  0  0  0  0  0  0  0  0  0
   19.7002  -17.2506  -15.0678 C   0  0  0  0  0  0  0  0  0  0  0  0
   20.2443  -17.4631  -16.1780 O   0  0  0  0  0  0  0  0  0  0  0  0
   20.6103  -21.0589  -13.1623 C   0  0  0  0  0  0  0  0  0  0  0  0
   21.0534  -21.9393  -13.9370 O   0  0  0  0  0  0  0  0  0  0  0  0
   19.0002  -16.0587  -14.9108 O   0  0  0  0  0  0  0  0  0  0  0  0
   19.3578  -21.2502  -12.6069 O   0  0  0  0  0  0  0  0  0  0  0  0
  2  1  1  6
  2  3  1  0
  3  4  1  0
  4  5  2  0
  4  9  1  0
  5  6  1  0
  6  7  2  0
  8  7  1  0
  9  8  2  0
 10  2  1  0
 11 10  2  0
 12 13  1  0
 13 14  2  0
 16 15  1  1
 15 13  1  0
 16 17  1  0
 17 10  1  0
 18 20  1  0
 18 16  1  0
 19 18  2  0
 21 22  1  6
 21 26  1  0
 21 20  1  0
 23 22  1  0
 24 23  1  0
 25 24  2  0
 26 29  1  0
 27 26  2  0
 28 24  1  0
M  END
$$$$
