FNE.pdb
     RDKit          3D

 29 29  0  0  1  0  0  0  0  0999 V2000
   28.9189  -21.2699   -9.0485 N   0  0  0  0  0  0  0  0  0  0  0  0
   27.5092  -21.0569   -8.8982 C   0  0  1  0  0  0  0  0  0  0  0  0
   27.1935  -19.7631   -8.1753 C   0  0  0  0  0  0  0  0  0  0  0  0
   27.6892  -19.7617   -6.7871 C   0  0  0  0  0  0  0  0  0  0  0  0
   27.0695  -20.5716   -5.8740 C   0  0  0  0  0  0  0  0  0  0  0  0
   27.5176  -20.5836   -4.5754 C   0  0  0  0  0  0  0  0  0  0  0  0
   28.5755  -19.8080   -4.1443 C   0  0  0  0  0  0  0  0  0  0  0  0
   29.1639  -19.0124   -5.0986 C   0  0  0  0  0  0  0  0  0  0  0  0
   28.7421  -18.9744   -6.4088 C   0  0  0  0  0  0  0  0  0  0  0  0
   26.8289  -20.9536  -10.2379 C   0  0  0  0  0  0  0  0  0  0  0  0
   27.3705  -20.3282  -11.1864 O   0  0  0  0  0  0  0  0  0  0  0  0
   25.0813  -23.3259  -14.7285 N   0  0  0  0  0  0  0  0  0  0  0  0
   24.2485  -23.2081  -13.5920 C   0  0  0  0  0  0  0  0  0  0  0  0
   23.0146  -23.2015  -13.7908 O   0  0  0  0  0  0  0  0  0  0  0  0
   24.7783  -23.0961  -12.2195 C   0  0  0  0  0  0  0  0  0  0  0  0
   24.9592  -21.6725  -11.7721 C   0  0  2  0  0  0  0  0  0  0  0  0
   25.5611  -21.5592  -10.4622 N   0  0  0  0  0  0  0  0  0  0  0  0
   23.7393  -20.8678  -11.9107 C   0  0  0  0  0  0  0  0  0  0  0  0
   23.0049  -20.6583  -10.9245 O   0  0  0  0  0  0  0  0  0  0  0  0
   23.4044  -20.3316  -13.1749 N   0  0  0  0  0  0  0  0  0  0  0  0
   22.2165  -19.4872  -13.3835 C   0  0  1  0  0  0  0  0  0  0  0  0
   22.3857  -18.8399  -14.7216 C   0  0  0  0  0  0  0  0  0  0  0  0
   21.3573  -17.8136  -15.0654 C   0  0  0  0  0  0  0  0  0  0  0  0
   21.4344  -17.4763  -16.5292 C   0  0  0  0  0  0  0  0  0  0  0  0
   22.4132  -17.8493  -17.2196 O   0  0  0  0  0  0  0  0  0  0  0  0
   21.0123  -20.3307  -13.3142 C   0  0  0  0  0  0  0  0  0  0  0  0
   21.0106  -21.4591  -13.8604 O   0  0  0  0  0  0  0  0  0  0  0  0
   20.4364  -16.7468  -17.1671 O   0  0  0  0  0  0  0  0  0  0  0  0
   19.8642  -19.9219  -12.6596 O   0  0  0  0  0  0  0  0  0  0  0  0
  2  1  1  6
  2  3  1  0
  3  4  1  0
  4  5  2  0
  4  9  1  0
  5  6  1  0
  6  7  2  0
  8  7  1  0
  9  8  2  0
 10  2  1  0
 11 10  2  0
 12 13  1  0
 13 14  2  0
 16 15  1  1
 15 13  1  0
 16 17  1  0
 17 10  1  0
 18 20  1  0
 18 16  1  0
 19 18  2  0
 21 22  1  6
 21 26  1  0
 21 20  1  0
 23 22  1  0
 24 23  1  0
 25 24  2  0
 26 29  1  0
 27 26  2  0
 28 24  1  0
M  END
$$$$
