FNE.pdb
     RDKit          3D

 29 29  0  0  1  0  0  0  0  0999 V2000
   25.3144  -11.5100  -18.1613 N   0  0  0  0  0  0  0  0  0  0  0  0
   24.7402  -11.3332  -16.8597 C   0  0  1  0  0  0  0  0  0  0  0  0
   25.6781  -10.6222  -15.9054 C   0  0  0  0  0  0  0  0  0  0  0  0
   26.9393  -11.3589  -15.7066 C   0  0  0  0  0  0  0  0  0  0  0  0
   26.9095  -12.5138  -14.9725 C   0  0  0  0  0  0  0  0  0  0  0  0
   28.0752  -13.2140  -14.7766 C   0  0  0  0  0  0  0  0  0  0  0  0
   29.2883  -12.8019  -15.2915 C   0  0  0  0  0  0  0  0  0  0  0  0
   29.2655  -11.6369  -16.0210 C   0  0  0  0  0  0  0  0  0  0  0  0
   28.1170  -10.9090  -16.2380 C   0  0  0  0  0  0  0  0  0  0  0  0
   23.4992  -10.4822  -16.9237 C   0  0  0  0  0  0  0  0  0  0  0  0
   23.3371   -9.6526  -17.8562 O   0  0  0  0  0  0  0  0  0  0  0  0
   18.6573   -8.6777  -16.0754 N   0  0  0  0  0  0  0  0  0  0  0  0
   18.7750   -9.9936  -15.5718 C   0  0  0  0  0  0  0  0  0  0  0  0
   17.7241  -10.5508  -15.1885 O   0  0  0  0  0  0  0  0  0  0  0  0
   20.0642  -10.7064  -15.4885 C   0  0  0  0  0  0  0  0  0  0  0  0
   21.2183   -9.9003  -16.0153 C   0  0  2  0  0  0  0  0  0  0  0  0
   22.4834  -10.5959  -15.9340 N   0  0  0  0  0  0  0  0  0  0  0  0
   21.2757   -8.5451  -15.4538 C   0  0  0  0  0  0  0  0  0  0  0  0
   21.5081   -8.3731  -14.2404 O   0  0  0  0  0  0  0  0  0  0  0  0
   21.0646   -7.4351  -16.3029 N   0  0  0  0  0  0  0  0  0  0  0  0
   21.2352   -6.0469  -15.8429 C   0  0  1  0  0  0  0  0  0  0  0  0
   21.6893   -5.2591  -17.0309 C   0  0  0  0  0  0  0  0  0  0  0  0
   20.6218   -4.9321  -18.0222 C   0  0  0  0  0  0  0  0  0  0  0  0
   21.2060   -4.1610  -19.1739 C   0  0  0  0  0  0  0  0  0  0  0  0
   22.4213   -3.8501  -19.1830 O   0  0  0  0  0  0  0  0  0  0  0  0
   19.9554   -5.5621  -15.3015 C   0  0  0  0  0  0  0  0  0  0  0  0
   18.8835   -6.1082  -15.6544 O   0  0  0  0  0  0  0  0  0  0  0  0
   20.4318   -3.7671  -20.2604 O   0  0  0  0  0  0  0  0  0  0  0  0
   19.8868   -4.5115  -14.4041 O   0  0  0  0  0  0  0  0  0  0  0  0
  2  1  1  6
  2  3  1  0
  3  4  1  0
  4  5  2  0
  4  9  1  0
  5  6  1  0
  6  7  2  0
  8  7  1  0
  9  8  2  0
 10  2  1  0
 11 10  2  0
 12 13  1  0
 13 14  2  0
 16 15  1  1
 15 13  1  0
 16 17  1  0
 17 10  1  0
 18 20  1  0
 18 16  1  0
 19 18  2  0
 21 22  1  6
 21 26  1  0
 21 20  1  0
 23 22  1  0
 24 23  1  0
 25 24  2  0
 26 29  1  0
 27 26  2  0
 28 24  1  0
M  END
$$$$
