SRV.pdb
     RDKit          3D

 25 24  0  0  1  0  0  0  0  0999 V2000
    9.3277  -15.2022   18.7256 O   0  0  0  0  0  0  0  0  0  0  0  0
    8.6379  -14.9474   19.9047 C   0  0  0  0  0  0  0  0  0  0  0  0
    7.8493  -16.1701   20.2508 C   0  0  2  0  0  0  0  0  0  0  0  0
    6.7143  -16.3223   19.3593 N   0  0  0  0  0  0  0  0  0  0  0  0
    7.3148  -16.1169   21.6461 C   0  0  0  0  0  0  0  0  0  0  0  0
    6.2772  -15.4630   21.9298 O   0  0  0  0  0  0  0  0  0  0  0  0
    6.3474  -21.6616   23.2167 N   0  0  0  0  0  0  0  0  0  0  0  0
    5.9444  -22.0254   24.5225 C   0  0  0  0  0  0  0  0  0  0  0  0
    4.9865  -22.8677   24.7579 N   0  0  0  0  0  0  0  0  0  0  0  0
    6.6357  -21.4270   25.6397 N   0  0  0  0  0  0  0  0  0  0  0  0
    7.6403  -20.4180   25.3973 C   0  0  0  0  0  0  0  0  0  0  0  0
    6.9200  -19.1743   24.8510 C   0  0  0  0  0  0  0  0  0  0  0  0
    7.9495  -18.1277   24.6452 C   0  0  0  0  0  0  0  0  0  0  0  0
    7.4433  -16.8050   24.0920 C   0  0  2  0  0  0  0  0  0  0  0  0
    7.9468  -16.7965   22.7113 N   0  0  0  0  0  0  0  0  0  0  0  0
    7.9683  -15.6188   24.7696 C   0  0  0  0  0  0  0  0  0  0  0  0
    9.1594  -15.2394   24.5623 O   0  0  0  0  0  0  0  0  0  0  0  0
    4.6988  -22.9742   25.7542 C   0  0  0  0  0  0  0  0  0  0  0  0
    7.3401  -11.4309   27.3866 C   0  0  1  0  0  0  0  0  0  0  0  0
    6.7617  -12.6249   26.6937 C   0  0  0  0  0  0  0  0  0  0  0  0
    5.9860  -12.1411   25.4893 C   0  0  1  0  0  0  0  0  0  0  0  0
    7.8166  -13.6350   26.2979 N   0  0  0  0  0  0  0  0  0  0  0  0
    7.2389  -14.8055   25.6829 C   0  0  0  0  0  0  0  0  0  0  0  0
    8.6883  -13.9910   27.4443 O   0  0  0  0  0  0  0  0  0  0  0  0
    9.7699  -13.2018   27.8015 O   0  0  0  0  0  0  0  0  0  0  0  0
  2  3  1  0
  2  1  1  0
  3  4  1  6
  5  6  2  0
  5  3  1  0
  7  8  1  0
  8 10  1  0
  8  9  2  0
 10 11  1  0
 12 11  1  0
 12 13  1  0
 14 13  1  1
 14 15  1  0
 15  5  1  0
 16 17  2  0
 16 14  1  0
 19 18  1  1
 20 19  1  0
 21 19  1  0
 21 22  1  1
 22 16  1  0
 23 21  1  0
 24 23  1  0
 25 23  2  0
M  END
$$$$
