SRV.pdb
     RDKit          3D

 25 24  0  0  1  0  0  0  0  0999 V2000
    4.0735  -19.4955   24.4592 O   0  0  0  0  0  0  0  0  0  0  0  0
    5.2498  -18.7573   24.4102 C   0  0  0  0  0  0  0  0  0  0  0  0
    5.7460  -18.7740   22.9995 C   0  0  2  0  0  0  0  0  0  0  0  0
    6.1402  -20.1142   22.6062 N   0  0  0  0  0  0  0  0  0  0  0  0
    6.9355  -17.8878   22.8124 C   0  0  0  0  0  0  0  0  0  0  0  0
    8.0789  -18.2254   23.2164 O   0  0  0  0  0  0  0  0  0  0  0  0
    8.7486  -12.8313   16.9260 N   0  0  0  0  0  0  0  0  0  0  0  0
    8.0803  -13.9055   17.5582 C   0  0  0  0  0  0  0  0  0  0  0  0
    7.7495  -14.9956   16.9379 N   0  0  0  0  0  0  0  0  0  0  0  0
    7.7544  -13.7747   18.9585 N   0  0  0  0  0  0  0  0  0  0  0  0
    8.6230  -13.0103   19.8230 C   0  0  0  0  0  0  0  0  0  0  0  0
    8.1753  -13.2704   21.2707 C   0  0  0  0  0  0  0  0  0  0  0  0
    7.4162  -14.5437   21.2717 C   0  0  0  0  0  0  0  0  0  0  0  0
    7.8036  -15.5411   22.3520 C   0  0  2  0  0  0  0  0  0  0  0  0
    6.8341  -16.6312   22.1746 N   0  0  0  0  0  0  0  0  0  0  0  0
    7.6722  -15.0404   23.7208 C   0  0  0  0  0  0  0  0  0  0  0  0
    6.7568  -14.2148   24.0138 O   0  0  0  0  0  0  0  0  0  0  0  0
    7.3580  -15.7618   17.5264 C   0  0  0  0  0  0  0  0  0  0  0  0
    7.7045  -13.1382   27.7280 C   0  0  2  0  0  0  0  0  0  0  0  0
    7.4696  -13.9926   26.5218 C   0  0  0  0  0  0  0  0  0  0  0  0
    6.6869  -13.1810   25.5143 C   0  0  1  0  0  0  0  0  0  0  0  0
    8.7556  -14.5190   25.9227 N   0  0  0  0  0  0  0  0  0  0  0  0
    8.5097  -15.4072   24.8125 C   0  0  0  0  0  0  0  0  0  0  0  0
    9.6177  -15.1515   26.9511 O   0  0  0  0  0  0  0  0  0  0  0  0
   10.1372  -14.4202   28.0072 O   0  0  0  0  0  0  0  0  0  0  0  0
  2  3  1  0
  2  1  1  0
  3  4  1  1
  5  6  2  0
  5  3  1  0
  7  8  1  0
  8 10  1  0
  8  9  2  0
 10 11  1  0
 12 11  1  0
 12 13  1  0
 14 13  1  6
 14 15  1  0
 15  5  1  0
 16 17  2  0
 16 14  1  0
 19 18  1  1
 20 19  1  0
 21 19  1  0
 21 22  1  1
 22 16  1  0
 23 21  1  0
 24 23  1  0
 25 23  2  0
M  END
$$$$
