SRV.pdb
     RDKit          3D

 25 24  0  0  1  0  0  0  0  0999 V2000
   10.5753  -16.0820   19.1050 O   0  0  0  0  0  0  0  0  0  0  0  0
    9.5600  -15.4622   19.8234 C   0  0  0  0  0  0  0  0  0  0  0  0
    8.4986  -16.4806   20.0934 C   0  0  2  0  0  0  0  0  0  0  0  0
    7.4847  -16.4578   19.0553 N   0  0  0  0  0  0  0  0  0  0  0  0
    7.8064  -16.2379   21.3962 C   0  0  0  0  0  0  0  0  0  0  0  0
    6.6523  -15.7380   21.4463 O   0  0  0  0  0  0  0  0  0  0  0  0
    8.1983  -20.3199   28.0745 N   0  0  0  0  0  0  0  0  0  0  0  0
    7.2614  -20.8613   27.1638 C   0  0  0  0  0  0  0  0  0  0  0  0
    6.8569  -22.0926   27.2140 N   0  0  0  0  0  0  0  0  0  0  0  0
    6.7361  -19.9972   26.1335 N   0  0  0  0  0  0  0  0  0  0  0  0
    6.5931  -18.5838   26.3946 C   0  0  0  0  0  0  0  0  0  0  0  0
    7.9248  -17.9108   26.0236 C   0  0  0  0  0  0  0  0  0  0  0  0
    7.9876  -17.8517   24.5437 C   0  0  0  0  0  0  0  0  0  0  0  0
    7.7215  -16.4877   23.9266 C   0  0  2  0  0  0  0  0  0  0  0  0
    8.4129  -16.5574   22.6317 N   0  0  0  0  0  0  0  0  0  0  0  0
    8.2792  -15.3601   24.6743 C   0  0  0  0  0  0  0  0  0  0  0  0
    9.5343  -15.2073   24.7581 O   0  0  0  0  0  0  0  0  0  0  0  0
    6.1207  -22.3659   26.5284 C   0  0  0  0  0  0  0  0  0  0  0  0
    6.7609  -11.5331   25.0203 C   0  0  2  0  0  0  0  0  0  0  0  0
    7.2082  -12.1348   26.3157 C   0  0  0  0  0  0  0  0  0  0  0  0
    5.9783  -12.5288   27.1021 C   0  0  2  0  0  0  0  0  0  0  0  0
    8.1357  -13.3142   26.1194 N   0  0  0  0  0  0  0  0  0  0  0  0
    7.5159  -14.3656   25.3496 C   0  0  0  0  0  0  0  0  0  0  0  0
    8.6601  -13.8170   27.4128 O   0  0  0  0  0  0  0  0  0  0  0  0
    9.5371  -13.0650   28.1779 O   0  0  0  0  0  0  0  0  0  0  0  0
  2  3  1  0
  2  1  1  0
  3  4  1  6
  5  6  2  0
  5  3  1  0
  7  8  1  0
  8 10  1  0
  8  9  2  0
 10 11  1  0
 12 11  1  0
 12 13  1  0
 14 13  1  1
 14 15  1  0
 15  5  1  0
 16 17  2  0
 16 14  1  0
 19 18  1  1
 20 19  1  0
 21 19  1  0
 21 22  1  1
 22 16  1  0
 23 21  1  0
 24 23  1  0
 25 23  2  0
M  END
$$$$
