SRV.pdb
     RDKit          3D

 25 24  0  0  1  0  0  0  0  0999 V2000
   13.9488  -18.7097   24.8205 O   0  0  0  0  0  0  0  0  0  0  0  0
   12.6184  -18.5876   24.4382 C   0  0  0  0  0  0  0  0  0  0  0  0
   12.5842  -17.9521   23.0848 C   0  0  2  0  0  0  0  0  0  0  0  0
   13.9249  -17.6326   22.6300 N   0  0  0  0  0  0  0  0  0  0  0  0
   11.7987  -16.6800   23.0818 C   0  0  0  0  0  0  0  0  0  0  0  0
   12.3618  -15.5580   22.9899 O   0  0  0  0  0  0  0  0  0  0  0  0
    8.2496  -14.3300   17.1034 N   0  0  0  0  0  0  0  0  0  0  0  0
    7.8632  -13.5065   18.1862 C   0  0  0  0  0  0  0  0  0  0  0  0
    8.3161  -12.3029   18.3559 N   0  0  0  0  0  0  0  0  0  0  0  0
    6.9213  -14.0374   19.1428 N   0  0  0  0  0  0  0  0  0  0  0  0
    7.3014  -15.1604   19.9678 C   0  0  0  0  0  0  0  0  0  0  0  0
    8.1798  -14.6174   21.1069 C   0  0  0  0  0  0  0  0  0  0  0  0
    8.6354  -15.7830   21.9015 C   0  0  0  0  0  0  0  0  0  0  0  0
    9.5629  -15.4662   23.0640 C   0  0  2  0  0  0  0  0  0  0  0  0
   10.3894  -16.6757   23.1816 N   0  0  0  0  0  0  0  0  0  0  0  0
    8.8869  -15.2569   24.3450 C   0  0  0  0  0  0  0  0  0  0  0  0
    8.9020  -16.1628   25.2307 O   0  0  0  0  0  0  0  0  0  0  0  0
    7.9855  -11.8001   19.2072 C   0  0  0  0  0  0  0  0  0  0  0  0
    6.0359  -12.5055   27.4051 C   0  0  1  0  0  0  0  0  0  0  0  0
    6.7268  -12.6577   26.0861 C   0  0  0  0  0  0  0  0  0  0  0  0
    7.6723  -11.4906   25.9118 C   0  0  1  0  0  0  0  0  0  0  0  0
    7.4551  -13.9781   25.9602 N   0  0  0  0  0  0  0  0  0  0  0  0
    8.1799  -14.0779   24.7165 C   0  0  0  0  0  0  0  0  0  0  0  0
    6.5379  -15.1277   26.1548 O   0  0  0  0  0  0  0  0  0  0  0  0
    6.4990  -15.8261   27.3510 O   0  0  0  0  0  0  0  0  0  0  0  0
  2  3  1  0
  2  1  1  0
  3  4  1  1
  5  6  2  0
  5  3  1  0
  7  8  1  0
  8 10  1  0
  8  9  2  0
 10 11  1  0
 12 11  1  0
 12 13  1  0
 14 13  1  6
 14 15  1  0
 15  5  1  0
 16 17  2  0
 16 14  1  0
 19 18  1  6
 20 19  1  0
 21 19  1  0
 21 22  1  6
 22 16  1  0
 23 21  1  0
 24 23  1  0
 25 23  2  0
M  END
$$$$
