SRV.pdb
     RDKit          3D

 25 24  0  0  1  0  0  0  0  0999 V2000
   11.0899  -18.6152   23.9816 O   0  0  0  0  0  0  0  0  0  0  0  0
   10.3979  -18.8328   22.7964 C   0  0  0  0  0  0  0  0  0  0  0  0
   10.8535  -17.8123   21.8027 C   0  0  2  0  0  0  0  0  0  0  0  0
   12.2971  -17.8427   21.6556 N   0  0  0  0  0  0  0  0  0  0  0  0
   10.4774  -16.4241   22.2111 C   0  0  0  0  0  0  0  0  0  0  0  0
   11.2938  -15.6652   22.7960 O   0  0  0  0  0  0  0  0  0  0  0  0
    8.3219  -12.5279   17.3050 N   0  0  0  0  0  0  0  0  0  0  0  0
    8.1811  -13.9347   17.2718 C   0  0  0  0  0  0  0  0  0  0  0  0
    8.7692  -14.6835   16.3910 N   0  0  0  0  0  0  0  0  0  0  0  0
    7.3421  -14.5584   18.2674 N   0  0  0  0  0  0  0  0  0  0  0  0
    6.7474  -13.7490   19.3054 C   0  0  0  0  0  0  0  0  0  0  0  0
    7.8437  -13.4527   20.3419 C   0  0  0  0  0  0  0  0  0  0  0  0
    7.5472  -14.2749   21.5393 C   0  0  0  0  0  0  0  0  0  0  0  0
    8.7347  -14.5843   22.4370 C   0  0  2  0  0  0  0  0  0  0  0  0
    9.1902  -15.8980   21.9610 N   0  0  0  0  0  0  0  0  0  0  0  0
    8.4096  -14.7088   23.8584 C   0  0  0  0  0  0  0  0  0  0  0  0
    7.8157  -15.7416   24.2898 O   0  0  0  0  0  0  0  0  0  0  0  0
    8.6356  -15.7121   16.4953 C   0  0  0  0  0  0  0  0  0  0  0  0
    6.3306  -12.4904   27.5014 C   0  0  1  0  0  0  0  0  0  0  0  0
    6.8574  -12.7591   26.1265 C   0  0  0  0  0  0  0  0  0  0  0  0
    7.2277  -11.4354   25.4965 C   0  0  1  0  0  0  0  0  0  0  0  0
    8.0318  -13.7132   26.1301 N   0  0  0  0  0  0  0  0  0  0  0  0
    8.7101  -13.7388   24.8567 C   0  0  0  0  0  0  0  0  0  0  0  0
    7.6286  -15.0732   26.5646 O   0  0  0  0  0  0  0  0  0  0  0  0
    8.1802  -15.6652   27.6894 O   0  0  0  0  0  0  0  0  0  0  0  0
  2  3  1  0
  2  1  1  0
  3  4  1  1
  5  6  2  0
  5  3  1  0
  7  8  1  0
  8 10  1  0
  8  9  2  0
 10 11  1  0
 12 11  1  0
 12 13  1  0
 14 13  1  6
 14 15  1  0
 15  5  1  0
 16 17  2  0
 16 14  1  0
 19 18  1  6
 20 19  1  0
 21 19  1  0
 21 22  1  6
 22 16  1  0
 23 21  1  0
 24 23  1  0
 25 23  2  0
M  END
$$$$
