SRV.pdb
     RDKit          3D

 25 24  0  0  1  0  0  0  0  0999 V2000
   12.7397  -20.7751   22.1261 O   0  0  0  0  0  0  0  0  0  0  0  0
   12.0631  -19.6854   22.6604 C   0  0  0  0  0  0  0  0  0  0  0  0
   12.0640  -18.5951   21.6368 C   0  0  2  0  0  0  0  0  0  0  0  0
   13.3567  -18.5007   20.9837 N   0  0  0  0  0  0  0  0  0  0  0  0
   11.7721  -17.2586   22.2400 C   0  0  0  0  0  0  0  0  0  0  0  0
   12.6858  -16.4213   22.4607 O   0  0  0  0  0  0  0  0  0  0  0  0
    7.9527  -15.1907   18.9062 N   0  0  0  0  0  0  0  0  0  0  0  0
    7.4179  -13.8853   19.0048 C   0  0  0  0  0  0  0  0  0  0  0  0
    7.4008  -13.0513   18.0114 N   0  0  0  0  0  0  0  0  0  0  0  0
    6.8679  -13.4690   20.2730 N   0  0  0  0  0  0  0  0  0  0  0  0
    7.0294  -14.3166   21.4313 C   0  0  0  0  0  0  0  0  0  0  0  0
    8.5371  -14.4331   21.7090 C   0  0  0  0  0  0  0  0  0  0  0  0
    8.6994  -15.3426   22.8683 C   0  0  0  0  0  0  0  0  0  0  0  0
   10.1329  -15.6217   23.2916 C   0  0  2  0  0  0  0  0  0  0  0  0
   10.4594  -16.8715   22.5908 N   0  0  0  0  0  0  0  0  0  0  0  0
   10.3125  -15.8500   24.7259 C   0  0  0  0  0  0  0  0  0  0  0  0
   11.1027  -16.7520   25.1351 O   0  0  0  0  0  0  0  0  0  0  0  0
    6.9936  -12.1112   18.2038 C   0  0  0  0  0  0  0  0  0  0  0  0
   10.2610  -13.8933   29.2818 C   0  0  2  0  0  0  0  0  0  0  0  0
    9.6593  -13.9508   27.9125 C   0  0  0  0  0  0  0  0  0  0  0  0
   10.0137  -12.6718   27.1878 C   0  0  1  0  0  0  0  0  0  0  0  0
   10.1071  -15.1668   27.1312 N   0  0  0  0  0  0  0  0  0  0  0  0
    9.6579  -15.1230   25.7607 C   0  0  0  0  0  0  0  0  0  0  0  0
    9.7009  -16.4261   27.8020 O   0  0  0  0  0  0  0  0  0  0  0  0
   10.5423  -17.0743   28.6919 O   0  0  0  0  0  0  0  0  0  0  0  0
  2  3  1  0
  2  1  1  0
  3  4  1  1
  5  6  2  0
  5  3  1  0
  7  8  1  0
  8 10  1  0
  8  9  2  0
 10 11  1  0
 12 11  1  0
 12 13  1  0
 14 13  1  1
 14 15  1  0
 15  5  1  0
 16 17  2  0
 16 14  1  0
 19 18  1  1
 20 19  1  0
 21 19  1  0
 21 22  1  1
 22 16  1  0
 23 21  1  0
 24 23  1  0
 25 23  2  0
M  END
$$$$
