SRV.pdb
     RDKit          3D

 25 24  0  0  1  0  0  0  0  0999 V2000
   10.6468  -12.7535   19.9250 O   0  0  0  0  0  0  0  0  0  0  0  0
   10.2478  -13.8627   19.1890 C   0  0  0  0  0  0  0  0  0  0  0  0
    8.7529  -13.9046   19.1924 C   0  0  2  0  0  0  0  0  0  0  0  0
    8.1990  -12.6186   18.8106 N   0  0  0  0  0  0  0  0  0  0  0  0
    8.2038  -14.2423   20.5414 C   0  0  0  0  0  0  0  0  0  0  0  0
    7.5430  -13.4068   21.2120 O   0  0  0  0  0  0  0  0  0  0  0  0
    8.4836  -22.4370   21.0481 N   0  0  0  0  0  0  0  0  0  0  0  0
    7.4465  -21.9051   20.2471 C   0  0  0  0  0  0  0  0  0  0  0  0
    6.7945  -22.6099   19.3750 N   0  0  0  0  0  0  0  0  0  0  0  0
    7.1041  -20.5126   20.4135 N   0  0  0  0  0  0  0  0  0  0  0  0
    7.8071  -19.7191   21.3945 C   0  0  0  0  0  0  0  0  0  0  0  0
    7.2398  -18.2919   21.3233 C   0  0  0  0  0  0  0  0  0  0  0  0
    7.9660  -17.4818   22.3303 C   0  0  0  0  0  0  0  0  0  0  0  0
    7.6726  -15.9900   22.3122 C   0  0  2  0  0  0  0  0  0  0  0  0
    8.3997  -15.5128   21.1275 N   0  0  0  0  0  0  0  0  0  0  0  0
    8.1740  -15.2550   23.4741 C   0  0  0  0  0  0  0  0  0  0  0  0
    9.4037  -14.9628   23.5632 O   0  0  0  0  0  0  0  0  0  0  0  0
    6.1290  -22.0896   18.7643 C   0  0  0  0  0  0  0  0  0  0  0  0
    7.4668  -12.2331   27.3355 C   0  0  2  0  0  0  0  0  0  0  0  0
    6.9157  -13.0495   26.2086 C   0  0  0  0  0  0  0  0  0  0  0  0
    6.4123  -12.1025   25.1427 C   0  0  1  0  0  0  0  0  0  0  0  0
    7.9290  -14.0218   25.6452 N   0  0  0  0  0  0  0  0  0  0  0  0
    7.3795  -14.8106   24.5691 C   0  0  0  0  0  0  0  0  0  0  0  0
    8.5152  -14.8754   26.7075 O   0  0  0  0  0  0  0  0  0  0  0  0
    9.5590  -14.4266   27.5007 O   0  0  0  0  0  0  0  0  0  0  0  0
  2  3  1  0
  2  1  1  0
  3  4  1  1
  5  6  2  0
  5  3  1  0
  7  8  1  0
  8 10  1  0
  8  9  2  0
 10 11  1  0
 12 11  1  0
 12 13  1  0
 14 13  1  1
 14 15  1  0
 15  5  1  0
 16 17  2  0
 16 14  1  0
 19 18  1  1
 20 19  1  0
 21 19  1  0
 21 22  1  1
 22 16  1  0
 23 21  1  0
 24 23  1  0
 25 23  2  0
M  END
$$$$
