SRV.pdb
     RDKit          3D

 25 24  0  0  1  0  0  0  0  0999 V2000
    6.8755  -12.3598   18.8991 O   0  0  0  0  0  0  0  0  0  0  0  0
    8.2639  -12.4170   18.9046 C   0  0  0  0  0  0  0  0  0  0  0  0
    8.6667  -13.8507   18.7681 C   0  0  2  0  0  0  0  0  0  0  0  0
    8.0597  -14.4484   17.5931 N   0  0  0  0  0  0  0  0  0  0  0  0
    8.2474  -14.6664   19.9488 C   0  0  0  0  0  0  0  0  0  0  0  0
    7.2193  -15.3922   19.9168 O   0  0  0  0  0  0  0  0  0  0  0  0
   12.3928  -21.0579   22.7208 N   0  0  0  0  0  0  0  0  0  0  0  0
   11.2190  -21.1439   23.5049 C   0  0  0  0  0  0  0  0  0  0  0  0
   10.8389  -22.2366   24.0913 N   0  0  0  0  0  0  0  0  0  0  0  0
   10.4117  -19.9564   23.6543 N   0  0  0  0  0  0  0  0  0  0  0  0
   10.5126  -18.8995   22.6750 C   0  0  0  0  0  0  0  0  0  0  0  0
    9.6567  -17.7248   23.1768 C   0  0  0  0  0  0  0  0  0  0  0  0
    9.6901  -16.6793   22.1263 C   0  0  0  0  0  0  0  0  0  0  0  0
    8.6934  -15.5435   22.2950 C   0  0  2  0  0  0  0  0  0  0  0  0
    8.9830  -14.6623   21.1551 N   0  0  0  0  0  0  0  0  0  0  0  0
    8.8598  -14.7623   23.5212 C   0  0  0  0  0  0  0  0  0  0  0  0
    9.8900  -14.0431   23.6856 O   0  0  0  0  0  0  0  0  0  0  0  0
    9.9424  -22.1894   24.6211 C   0  0  0  0  0  0  0  0  0  0  0  0
    7.0603  -12.1630   27.2438 C   0  0  2  0  0  0  0  0  0  0  0  0
    6.8865  -13.0461   26.0479 C   0  0  0  0  0  0  0  0  0  0  0  0
    6.5021  -12.1769   24.8719 C   0  0  1  0  0  0  0  0  0  0  0  0
    8.1227  -13.8645   25.7450 N   0  0  0  0  0  0  0  0  0  0  0  0
    7.9335  -14.7248   24.6021 C   0  0  0  0  0  0  0  0  0  0  0  0
    8.5788  -14.6246   26.9345 O   0  0  0  0  0  0  0  0  0  0  0  0
    9.3971  -14.0458   27.8913 O   0  0  0  0  0  0  0  0  0  0  0  0
  2  3  1  0
  2  1  1  0
  3  4  1  6
  5  6  2  0
  5  3  1  0
  7  8  1  0
  8 10  1  0
  8  9  2  0
 10 11  1  0
 12 11  1  0
 12 13  1  0
 14 13  1  1
 14 15  1  0
 15  5  1  0
 16 17  2  0
 16 14  1  0
 19 18  1  1
 20 19  1  0
 21 19  1  0
 21 22  1  1
 22 16  1  0
 23 21  1  0
 24 23  1  0
 25 23  2  0
M  END
$$$$
