SRV.pdb
     RDKit          3D

 25 24  0  0  1  0  0  0  0  0999 V2000
    9.7526  -13.4418   18.6395 O   0  0  0  0  0  0  0  0  0  0  0  0
    8.6612  -13.4412   19.4996 C   0  0  0  0  0  0  0  0  0  0  0  0
    8.1567  -14.8450   19.6052 C   0  0  2  0  0  0  0  0  0  0  0  0
    7.2014  -15.1315   18.5508 N   0  0  0  0  0  0  0  0  0  0  0  0
    7.4694  -15.0979   20.9086 C   0  0  0  0  0  0  0  0  0  0  0  0
    6.2497  -14.8336   21.0727 O   0  0  0  0  0  0  0  0  0  0  0  0
    7.4822  -21.5125   25.8281 N   0  0  0  0  0  0  0  0  0  0  0  0
    7.3563  -20.5322   26.8396 C   0  0  0  0  0  0  0  0  0  0  0  0
    6.6003  -20.6854   27.8824 N   0  0  0  0  0  0  0  0  0  0  0  0
    8.1067  -19.3071   26.6974 N   0  0  0  0  0  0  0  0  0  0  0  0
    8.5066  -18.8662   25.3814 C   0  0  0  0  0  0  0  0  0  0  0  0
    7.3887  -17.9592   24.8412 C   0  0  0  0  0  0  0  0  0  0  0  0
    7.8670  -17.3929   23.5575 C   0  0  0  0  0  0  0  0  0  0  0  0
    7.5205  -15.9330   23.3113 C   0  0  2  0  0  0  0  0  0  0  0  0
    8.1542  -15.6447   22.0170 N   0  0  0  0  0  0  0  0  0  0  0  0
    8.0679  -15.0008   24.2978 C   0  0  0  0  0  0  0  0  0  0  0  0
    9.3145  -14.7788   24.3438 O   0  0  0  0  0  0  0  0  0  0  0  0
    6.6277  -19.9203   28.5899 C   0  0  0  0  0  0  0  0  0  0  0  0
    7.0792  -11.3107   25.3270 C   0  0  2  0  0  0  0  0  0  0  0  0
    7.1466  -12.1936   26.5338 C   0  0  0  0  0  0  0  0  0  0  0  0
    5.7328  -12.4900   26.9806 C   0  0  2  0  0  0  0  0  0  0  0  0
    7.9207  -13.4686   26.2789 N   0  0  0  0  0  0  0  0  0  0  0  0
    7.3026  -14.2800   25.2582 C   0  0  0  0  0  0  0  0  0  0  0  0
    8.1391  -14.2337   27.5309 O   0  0  0  0  0  0  0  0  0  0  0  0
    7.6192  -15.5071   27.6991 O   0  0  0  0  0  0  0  0  0  0  0  0
  2  3  1  0
  2  1  1  0
  3  4  1  6
  5  6  2  0
  5  3  1  0
  7  8  1  0
  8 10  1  0
  8  9  2  0
 10 11  1  0
 12 11  1  0
 12 13  1  0
 14 13  1  1
 14 15  1  0
 15  5  1  0
 16 17  2  0
 16 14  1  0
 19 18  1  1
 20 19  1  0
 21 19  1  0
 21 22  1  1
 22 16  1  0
 23 21  1  0
 24 23  1  0
 25 23  2  0
M  END
$$$$
