SRV.pdb
     RDKit          3D

 25 24  0  0  1  0  0  0  0  0999 V2000
    9.1679  -11.8246   18.2012 O   0  0  0  0  0  0  0  0  0  0  0  0
    8.3852  -12.4702   19.1508 C   0  0  0  0  0  0  0  0  0  0  0  0
    8.6184  -13.9413   19.0173 C   0  0  2  0  0  0  0  0  0  0  0  0
    8.1076  -14.4327   17.7508 N   0  0  0  0  0  0  0  0  0  0  0  0
    7.9412  -14.7175   20.1010 C   0  0  0  0  0  0  0  0  0  0  0  0
    6.9032  -15.3936   19.8773 O   0  0  0  0  0  0  0  0  0  0  0  0
   13.4893  -18.9858   23.4082 N   0  0  0  0  0  0  0  0  0  0  0  0
   12.0799  -19.0566   23.3159 C   0  0  0  0  0  0  0  0  0  0  0  0
   11.3163  -19.3062   24.3343 N   0  0  0  0  0  0  0  0  0  0  0  0
   11.4706  -18.8404   22.0251 N   0  0  0  0  0  0  0  0  0  0  0  0
   10.0451  -18.6241   21.9383 C   0  0  0  0  0  0  0  0  0  0  0  0
    9.7757  -17.1665   22.3466 C   0  0  0  0  0  0  0  0  0  0  0  0
    8.3170  -16.9379   22.2149 C   0  0  0  0  0  0  0  0  0  0  0  0
    7.8419  -15.5243   22.5117 C   0  0  2  0  0  0  0  0  0  0  0  0
    8.4325  -14.7298   21.4256 N   0  0  0  0  0  0  0  0  0  0  0  0
    8.3177  -14.9743   23.7817 C   0  0  0  0  0  0  0  0  0  0  0  0
    9.5024  -14.5367   23.8843 O   0  0  0  0  0  0  0  0  0  0  0  0
   10.2906  -19.3265   24.1493 C   0  0  0  0  0  0  0  0  0  0  0  0
    7.2812  -12.3004   27.7322 C   0  0  2  0  0  0  0  0  0  0  0  0
    6.8678  -13.1324   26.5587 C   0  0  0  0  0  0  0  0  0  0  0  0
    6.4337  -12.2007   25.4497 C   0  0  1  0  0  0  0  0  0  0  0  0
    7.9634  -14.0668   26.0936 N   0  0  0  0  0  0  0  0  0  0  0  0
    7.5446  -14.8739   24.9733 C   0  0  0  0  0  0  0  0  0  0  0  0
    8.4795  -14.8996   27.2076 O   0  0  0  0  0  0  0  0  0  0  0  0
    9.2609  -14.3553   28.2143 O   0  0  0  0  0  0  0  0  0  0  0  0
  2  3  1  0
  2  1  1  0
  3  4  1  6
  5  6  2  0
  5  3  1  0
  7  8  1  0
  8 10  1  0
  8  9  2  0
 10 11  1  0
 12 11  1  0
 12 13  1  0
 14 13  1  6
 14 15  1  0
 15  5  1  0
 16 17  2  0
 16 14  1  0
 19 18  1  1
 20 19  1  0
 21 19  1  0
 21 22  1  1
 22 16  1  0
 23 21  1  0
 24 23  1  0
 25 23  2  0
M  END
$$$$
