TND.pdb
     RDKit          3D

 24 23  0  0  1  0  0  0  0  0999 V2000
    7.4077  -11.9926   19.2481 C   0  0  0  0  0  0  0  0  0  0  0  0
    8.4876  -13.0106   19.5188 C   0  0  1  0  0  0  0  0  0  0  0  0
    7.8635  -14.0910   20.1539 O   0  0  0  0  0  0  0  0  0  0  0  0
    9.1108  -13.5293   18.2310 C   0  0  2  0  0  0  0  0  0  0  0  0
    8.1253  -14.1880   17.4127 N   0  0  0  0  0  0  0  0  0  0  0  0
   10.2110  -14.4832   18.5177 C   0  0  0  0  0  0  0  0  0  0  0  0
    9.9522  -15.7082   18.2934 O   0  0  0  0  0  0  0  0  0  0  0  0
   15.2027  -16.2796   17.7683 N   0  0  0  0  0  0  0  0  0  0  0  0
   15.0152  -15.2450   18.7443 C   0  0  0  0  0  0  0  0  0  0  0  0
   15.9276  -15.1380   19.5851 O   0  0  0  0  0  0  0  0  0  0  0  0
   13.7930  -14.4500   18.6389 C   0  0  0  0  0  0  0  0  0  0  0  0
   12.5310  -15.0958   19.1324 C   0  0  2  0  0  0  0  0  0  0  0  0
   11.4600  -14.0889   19.0028 N   0  0  0  0  0  0  0  0  0  0  0  0
   12.6633  -15.4546   20.5756 C   0  0  0  0  0  0  0  0  0  0  0  0
   12.7995  -14.5297   21.4071 O   0  0  0  0  0  0  0  0  0  0  0  0
   12.6380  -16.8037   21.0159 N   0  0  0  0  0  0  0  0  0  0  0  0
   12.7553  -17.0458   22.4659 C   0  0  1  0  0  0  0  0  0  0  0  0
   11.8454  -18.1805   22.8496 C   0  0  0  0  0  0  0  0  0  0  0  0
   10.4177  -17.8424   22.8494 C   0  0  0  0  0  0  0  0  0  0  0  0
    9.9750  -16.6929   22.6536 O   0  0  0  0  0  0  0  0  0  0  0  0
   14.1657  -17.3570   22.7812 C   0  0  0  0  0  0  0  0  0  0  0  0
   15.1179  -17.4705   21.8173 O   0  0  0  0  0  0  0  0  0  0  0  0
    9.4415  -18.8226   23.0765 O   0  0  0  0  0  0  0  0  0  0  0  0
   14.4946  -17.5228   23.9782 O   0  0  0  0  0  0  0  0  0  0  0  0
  2  1  1  6
  2  4  1  0
  3  2  1  0
  4  5  1  6
  6  7  2  0
  6  4  1  0
  9  8  1  0
  9 10  2  0
 12 11  1  1
 11  9  1  0
 12 13  1  0
 13  6  1  0
 14 12  1  0
 15 14  2  0
 16 14  1  0
 17 21  1  0
 17 16  1  0
 17 18  1  6
 19 18  1  0
 20 19  2  0
 21 22  1  0
 23 19  1  0
 24 21  2  0
M  END
$$$$
