TND.pdb
     RDKit          3D

 24 23  0  0  1  0  0  0  0  0999 V2000
    9.6652  -15.6325   17.7496 C   0  0  0  0  0  0  0  0  0  0  0  0
    9.2747  -14.1860   17.9247 C   0  0  1  0  0  0  0  0  0  0  0  0
    9.0554  -13.6763   16.6393 O   0  0  0  0  0  0  0  0  0  0  0  0
    7.9769  -14.0417   18.7062 C   0  0  2  0  0  0  0  0  0  0  0  0
    7.5954  -12.6573   18.8169 N   0  0  0  0  0  0  0  0  0  0  0  0
    8.1093  -14.6129   20.0696 C   0  0  0  0  0  0  0  0  0  0  0  0
    8.4467  -13.7929   20.9814 O   0  0  0  0  0  0  0  0  0  0  0  0
    4.8556  -17.8699   20.8389 N   0  0  0  0  0  0  0  0  0  0  0  0
    5.6350  -17.2907   21.8950 C   0  0  0  0  0  0  0  0  0  0  0  0
    4.9969  -16.5861   22.6994 O   0  0  0  0  0  0  0  0  0  0  0  0
    7.0656  -17.5913   21.9025 C   0  0  0  0  0  0  0  0  0  0  0  0
    7.9950  -16.4213   21.7585 C   0  0  2  0  0  0  0  0  0  0  0  0
    7.8837  -15.9601   20.3612 N   0  0  0  0  0  0  0  0  0  0  0  0
    9.4053  -16.8479   21.9992 C   0  0  0  0  0  0  0  0  0  0  0  0
    9.8439  -17.8330   21.3647 O   0  0  0  0  0  0  0  0  0  0  0  0
   10.2452  -16.1682   22.9195 N   0  0  0  0  0  0  0  0  0  0  0  0
   11.6314  -16.6523   23.0574 C   0  0  1  0  0  0  0  0  0  0  0  0
   12.5555  -15.4707   23.1699 C   0  0  0  0  0  0  0  0  0  0  0  0
   13.9787  -15.8170   23.2539 C   0  0  0  0  0  0  0  0  0  0  0  0
   14.6896  -16.0828   22.2640 O   0  0  0  0  0  0  0  0  0  0  0  0
   11.7143  -17.5160   24.2543 C   0  0  0  0  0  0  0  0  0  0  0  0
   12.6309  -18.5137   24.3685 O   0  0  0  0  0  0  0  0  0  0  0  0
   14.6392  -15.8704   24.4893 O   0  0  0  0  0  0  0  0  0  0  0  0
   10.9112  -17.3225   25.1956 O   0  0  0  0  0  0  0  0  0  0  0  0
  2  1  1  6
  2  4  1  0
  3  2  1  0
  4  5  1  1
  6  7  2  0
  6  4  1  0
  9  8  1  0
  9 10  2  0
 12 11  1  6
 11  9  1  0
 12 13  1  0
 13  6  1  0
 14 12  1  0
 15 14  2  0
 16 14  1  0
 17 21  1  0
 17 16  1  0
 17 18  1  1
 19 18  1  0
 20 19  2  0
 21 22  1  0
 23 19  1  0
 24 21  2  0
M  END
$$$$
