TND.pdb
     RDKit          3D

 24 23  0  0  1  0  0  0  0  0999 V2000
    9.6441  -16.3704   17.8748 C   0  0  0  0  0  0  0  0  0  0  0  0
    9.4174  -14.9260   17.5035 C   0  0  1  0  0  0  0  0  0  0  0  0
    8.8393  -14.9306   16.2283 O   0  0  0  0  0  0  0  0  0  0  0  0
    8.4399  -14.2457   18.4510 C   0  0  2  0  0  0  0  0  0  0  0  0
    8.1714  -12.8951   18.0289 N   0  0  0  0  0  0  0  0  0  0  0  0
    8.9719  -14.2182   19.8362 C   0  0  0  0  0  0  0  0  0  0  0  0
    9.8010  -13.2879   20.0910 O   0  0  0  0  0  0  0  0  0  0  0  0
    7.2126  -13.1059   22.3929 N   0  0  0  0  0  0  0  0  0  0  0  0
    7.0571  -14.2575   23.2343 C   0  0  0  0  0  0  0  0  0  0  0  0
    6.0428  -14.2528   23.9568 O   0  0  0  0  0  0  0  0  0  0  0  0
    8.0924  -15.2857   23.1461 C   0  0  0  0  0  0  0  0  0  0  0  0
    9.1992  -15.0369   22.1630 C   0  0  2  0  0  0  0  0  0  0  0  0
    8.6031  -15.1417   20.8171 N   0  0  0  0  0  0  0  0  0  0  0  0
   10.2515  -16.0881   22.2913 C   0  0  0  0  0  0  0  0  0  0  0  0
   10.0485  -17.1999   21.7544 O   0  0  0  0  0  0  0  0  0  0  0  0
   11.4591  -15.8546   22.9998 N   0  0  0  0  0  0  0  0  0  0  0  0
   12.3942  -16.9866   23.1370 C   0  0  1  0  0  0  0  0  0  0  0  0
   13.8047  -16.4735   23.0364 C   0  0  0  0  0  0  0  0  0  0  0  0
   14.1095  -15.7732   21.7837 C   0  0  0  0  0  0  0  0  0  0  0  0
   14.1830  -16.3351   20.6726 O   0  0  0  0  0  0  0  0  0  0  0  0
   12.1528  -17.6449   24.4384 C   0  0  0  0  0  0  0  0  0  0  0  0
   11.2066  -17.2057   25.3105 O   0  0  0  0  0  0  0  0  0  0  0  0
   14.3425  -14.3908   21.7652 O   0  0  0  0  0  0  0  0  0  0  0  0
   12.8449  -18.6414   24.7489 O   0  0  0  0  0  0  0  0  0  0  0  0
  2  1  1  1
  2  4  1  0
  3  2  1  0
  4  5  1  6
  6  7  2  0
  6  4  1  0
  9  8  1  0
  9 10  2  0
 12 11  1  1
 11  9  1  0
 12 13  1  0
 13  6  1  0
 14 12  1  0
 15 14  2  0
 16 14  1  0
 17 21  1  0
 17 16  1  0
 17 18  1  1
 19 18  1  0
 20 19  2  0
 21 22  1  0
 23 19  1  0
 24 21  2  0
M  END
$$$$
