TND.pdb
     RDKit          3D

 24 23  0  0  1  0  0  0  0  0999 V2000
    7.2311  -16.1457   20.3293 C   0  0  0  0  0  0  0  0  0  0  0  0
    7.9466  -14.9366   19.7801 C   0  0  1  0  0  0  0  0  0  0  0  0
    7.4924  -14.7701   18.4662 O   0  0  0  0  0  0  0  0  0  0  0  0
    7.5964  -13.6734   20.5531 C   0  0  2  0  0  0  0  0  0  0  0  0
    8.1183  -12.5053   19.8915 N   0  0  0  0  0  0  0  0  0  0  0  0
    8.1394  -13.7253   21.9334 C   0  0  0  0  0  0  0  0  0  0  0  0
    9.3551  -13.3743   22.0620 O   0  0  0  0  0  0  0  0  0  0  0  0
    5.3721  -12.3278   25.8476 N   0  0  0  0  0  0  0  0  0  0  0  0
    6.7376  -12.7678   25.8559 C   0  0  0  0  0  0  0  0  0  0  0  0
    7.5627  -11.9274   26.2605 O   0  0  0  0  0  0  0  0  0  0  0  0
    6.9961  -14.1307   25.3949 C   0  0  0  0  0  0  0  0  0  0  0  0
    8.0557  -14.2909   24.3435 C   0  0  2  0  0  0  0  0  0  0  0  0
    7.3864  -14.1292   23.0383 N   0  0  0  0  0  0  0  0  0  0  0  0
    8.6401  -15.6634   24.4025 C   0  0  0  0  0  0  0  0  0  0  0  0
    7.9082  -16.6335   24.1047 O   0  0  0  0  0  0  0  0  0  0  0  0
    9.9890  -15.8858   24.7842 N   0  0  0  0  0  0  0  0  0  0  0  0
   10.4601  -17.2826   24.8259 C   0  0  1  0  0  0  0  0  0  0  0  0
   11.9217  -17.3187   24.4718 C   0  0  0  0  0  0  0  0  0  0  0  0
   12.2652  -16.6125   23.2326 C   0  0  0  0  0  0  0  0  0  0  0  0
   11.7216  -16.8340   22.1320 O   0  0  0  0  0  0  0  0  0  0  0  0
   10.2214  -17.8223   26.1813 C   0  0  0  0  0  0  0  0  0  0  0  0
   10.5111  -19.1087   26.5127 O   0  0  0  0  0  0  0  0  0  0  0  0
   13.2542  -15.6190   23.2157 O   0  0  0  0  0  0  0  0  0  0  0  0
    9.7341  -17.0683   27.0545 O   0  0  0  0  0  0  0  0  0  0  0  0
  2  1  1  1
  2  4  1  0
  3  2  1  0
  4  5  1  6
  6  7  2  0
  6  4  1  0
  9  8  1  0
  9 10  2  0
 12 11  1  1
 11  9  1  0
 12 13  1  0
 13  6  1  0
 14 12  1  0
 15 14  2  0
 16 14  1  0
 17 21  1  0
 17 16  1  0
 17 18  1  1
 19 18  1  0
 20 19  2  0
 21 22  1  0
 23 19  1  0
 24 21  2  0
M  END
$$$$
