TND.pdb
     RDKit          3D

 24 23  0  0  1  0  0  0  0  0999 V2000
    7.5895  -12.1750   19.5660 C   0  0  0  0  0  0  0  0  0  0  0  0
    8.1898  -13.4883   20.0025 C   0  0  1  0  0  0  0  0  0  0  0  0
    7.6858  -13.7485   21.2825 O   0  0  0  0  0  0  0  0  0  0  0  0
    7.7625  -14.6339   19.0964 C   0  0  2  0  0  0  0  0  0  0  0  0
    6.3286  -14.6800   18.9688 N   0  0  0  0  0  0  0  0  0  0  0  0
    8.2390  -15.9368   19.6236 C   0  0  0  0  0  0  0  0  0  0  0  0
    7.3427  -16.8212   19.8024 O   0  0  0  0  0  0  0  0  0  0  0  0
    7.9032  -19.3929   19.6266 N   0  0  0  0  0  0  0  0  0  0  0  0
    8.9229  -19.3275   18.6195 C   0  0  0  0  0  0  0  0  0  0  0  0
    8.8484  -20.1984   17.7326 O   0  0  0  0  0  0  0  0  0  0  0  0
    9.9149  -18.2619   18.7510 C   0  0  0  0  0  0  0  0  0  0  0  0
   10.0118  -17.6012   20.0955 C   0  0  2  0  0  0  0  0  0  0  0  0
    9.5795  -16.2021   19.9132 N   0  0  0  0  0  0  0  0  0  0  0  0
   11.4278  -17.5953   20.5684 C   0  0  0  0  0  0  0  0  0  0  0  0
   12.2748  -16.9638   19.8981 O   0  0  0  0  0  0  0  0  0  0  0  0
   11.8258  -18.2814   21.7454 N   0  0  0  0  0  0  0  0  0  0  0  0
   13.1884  -18.0284   22.2496 C   0  0  1  0  0  0  0  0  0  0  0  0
   13.2025  -18.2159   23.7421 C   0  0  0  0  0  0  0  0  0  0  0  0
   12.6200  -17.1034   24.5007 C   0  0  0  0  0  0  0  0  0  0  0  0
   12.2054  -16.0483   23.9805 O   0  0  0  0  0  0  0  0  0  0  0  0
   14.1210  -18.9606   21.5813 C   0  0  0  0  0  0  0  0  0  0  0  0
   13.6923  -19.9387   20.7399 O   0  0  0  0  0  0  0  0  0  0  0  0
   12.4932  -17.1661   25.8955 O   0  0  0  0  0  0  0  0  0  0  0  0
   15.3490  -18.8459   21.7990 O   0  0  0  0  0  0  0  0  0  0  0  0
  2  1  1  6
  2  4  1  0
  3  2  1  0
  4  5  1  1
  6  7  2  0
  6  4  1  0
  9  8  1  0
  9 10  2  0
 12 11  1  6
 11  9  1  0
 12 13  1  0
 13  6  1  0
 14 12  1  0
 15 14  2  0
 16 14  1  0
 17 21  1  0
 17 16  1  0
 17 18  1  1
 19 18  1  0
 20 19  2  0
 21 22  1  0
 23 19  1  0
 24 21  2  0
M  END
$$$$
