TND.pdb
     RDKit          3D

 24 23  0  0  1  0  0  0  0  0999 V2000
    7.2639  -10.9786   26.5073 C   0  0  0  0  0  0  0  0  0  0  0  0
    7.6996  -12.3151   25.9598 C   0  0  1  0  0  0  0  0  0  0  0  0
    8.0743  -13.0920   27.0626 O   0  0  0  0  0  0  0  0  0  0  0  0
    6.5600  -13.0351   25.2535 C   0  0  2  0  0  0  0  0  0  0  0  0
    5.5023  -13.3529   26.1780 N   0  0  0  0  0  0  0  0  0  0  0  0
    7.0345  -14.2896   24.6183 C   0  0  0  0  0  0  0  0  0  0  0  0
    6.7143  -15.3661   25.2151 O   0  0  0  0  0  0  0  0  0  0  0  0
    6.2766  -16.2992   20.8057 N   0  0  0  0  0  0  0  0  0  0  0  0
    7.3135  -15.3348   20.5752 C   0  0  0  0  0  0  0  0  0  0  0  0
    7.0920  -14.5292   19.6518 O   0  0  0  0  0  0  0  0  0  0  0  0
    8.4908  -15.4104   21.4384 C   0  0  0  0  0  0  0  0  0  0  0  0
    8.2335  -15.6149   22.9031 C   0  0  2  0  0  0  0  0  0  0  0  0
    7.7856  -14.3157   23.4409 N   0  0  0  0  0  0  0  0  0  0  0  0
    9.4955  -16.0001   23.6015 C   0  0  0  0  0  0  0  0  0  0  0  0
   10.4516  -15.1931   23.5878 O   0  0  0  0  0  0  0  0  0  0  0  0
    9.6299  -17.2447   24.2703 N   0  0  0  0  0  0  0  0  0  0  0  0
   10.9160  -17.5205   24.9371 C   0  0  1  0  0  0  0  0  0  0  0  0
   10.7587  -18.7205   25.8306 C   0  0  0  0  0  0  0  0  0  0  0  0
   11.5140  -18.6474   27.0862 C   0  0  0  0  0  0  0  0  0  0  0  0
   12.3137  -17.7317   27.3647 O   0  0  0  0  0  0  0  0  0  0  0  0
   11.9457  -17.7519   23.9020 C   0  0  0  0  0  0  0  0  0  0  0  0
   13.2068  -17.2548   24.0075 O   0  0  0  0  0  0  0  0  0  0  0  0
   11.3749  -19.6332   28.0733 O   0  0  0  0  0  0  0  0  0  0  0  0
   11.6454  -18.4286   22.8919 O   0  0  0  0  0  0  0  0  0  0  0  0
  2  1  1  1
  2  4  1  0
  3  2  1  0
  4  5  1  1
  6  7  2  0
  6  4  1  0
  9  8  1  0
  9 10  2  0
 12 11  1  6
 11  9  1  0
 12 13  1  0
 13  6  1  0
 14 12  1  0
 15 14  2  0
 16 14  1  0
 17 21  1  0
 17 16  1  0
 17 18  1  1
 19 18  1  0
 20 19  2  0
 21 22  1  0
 23 19  1  0
 24 21  2  0
M  END
$$$$
