TND.pdb
     RDKit          3D

 24 23  0  0  1  0  0  0  0  0999 V2000
    7.7914  -16.3372   18.3850 C   0  0  0  0  0  0  0  0  0  0  0  0
    8.3767  -15.0608   17.8337 C   0  0  1  0  0  0  0  0  0  0  0  0
    7.9008  -14.9404   16.5225 O   0  0  0  0  0  0  0  0  0  0  0  0
    7.9036  -13.8406   18.6104 C   0  0  2  0  0  0  0  0  0  0  0  0
    8.3696  -12.6261   17.9922 N   0  0  0  0  0  0  0  0  0  0  0  0
    8.3876  -13.8809   20.0128 C   0  0  0  0  0  0  0  0  0  0  0  0
    9.6007  -13.5414   20.1883 O   0  0  0  0  0  0  0  0  0  0  0  0
    7.6828  -13.3410   25.5770 N   0  0  0  0  0  0  0  0  0  0  0  0
    7.3771  -14.5214   24.8210 C   0  0  0  0  0  0  0  0  0  0  0  0
    7.4404  -15.5897   25.4578 O   0  0  0  0  0  0  0  0  0  0  0  0
    7.0324  -14.3341   23.4128 C   0  0  0  0  0  0  0  0  0  0  0  0
    8.1760  -14.3261   22.4403 C   0  0  2  0  0  0  0  0  0  0  0  0
    7.5844  -14.2627   21.0899 N   0  0  0  0  0  0  0  0  0  0  0  0
    8.9571  -15.5937   22.5495 C   0  0  0  0  0  0  0  0  0  0  0  0
    8.4704  -16.6352   22.0557 O   0  0  0  0  0  0  0  0  0  0  0  0
   10.2216  -15.6395   23.1926 N   0  0  0  0  0  0  0  0  0  0  0  0
   10.9179  -16.9391   23.2268 C   0  0  1  0  0  0  0  0  0  0  0  0
   12.2637  -16.7926   22.5709 C   0  0  0  0  0  0  0  0  0  0  0  0
   13.0979  -17.9986   22.6176 C   0  0  0  0  0  0  0  0  0  0  0  0
   12.6832  -19.1424   22.3428 O   0  0  0  0  0  0  0  0  0  0  0  0
   11.0497  -17.3685   24.6352 C   0  0  0  0  0  0  0  0  0  0  0  0
   11.4242  -18.6297   24.9784 O   0  0  0  0  0  0  0  0  0  0  0  0
   14.4491  -17.9306   22.9851 O   0  0  0  0  0  0  0  0  0  0  0  0
   10.8067  -16.5418   25.5440 O   0  0  0  0  0  0  0  0  0  0  0  0
  2  1  1  1
  2  4  1  0
  3  2  1  0
  4  5  1  6
  6  7  2  0
  6  4  1  0
  9  8  1  0
  9 10  2  0
 12 11  1  1
 11  9  1  0
 12 13  1  0
 13  6  1  0
 14 12  1  0
 15 14  2  0
 16 14  1  0
 17 21  1  0
 17 16  1  0
 17 18  1  1
 19 18  1  0
 20 19  2  0
 21 22  1  0
 23 19  1  0
 24 21  2  0
M  END
$$$$
