TND.pdb
     RDKit          3D

 24 23  0  0  1  0  0  0  0  0999 V2000
    7.8711  -13.9333   27.0155 C   0  0  0  0  0  0  0  0  0  0  0  0
    8.1771  -14.4038   25.6152 C   0  0  1  0  0  0  0  0  0  0  0  0
    8.8436  -15.6282   25.7453 O   0  0  0  0  0  0  0  0  0  0  0  0
    6.9083  -14.6519   24.8126 C   0  0  2  0  0  0  0  0  0  0  0  0
    6.1384  -15.7247   25.3878 N   0  0  0  0  0  0  0  0  0  0  0  0
    7.2268  -14.9923   23.4036 C   0  0  0  0  0  0  0  0  0  0  0  0
    6.8935  -16.1612   23.0291 O   0  0  0  0  0  0  0  0  0  0  0  0
    8.8321  -12.3936   18.1200 N   0  0  0  0  0  0  0  0  0  0  0  0
    8.1300  -13.4072   18.8536 C   0  0  0  0  0  0  0  0  0  0  0  0
    7.6492  -14.3246   18.1623 O   0  0  0  0  0  0  0  0  0  0  0  0
    8.0624  -13.2460   20.3049 C   0  0  0  0  0  0  0  0  0  0  0  0
    8.0484  -14.5081   21.1175 C   0  0  2  0  0  0  0  0  0  0  0  0
    7.8515  -14.1056   22.5235 N   0  0  0  0  0  0  0  0  0  0  0  0
    9.3633  -15.2070   21.0109 C   0  0  0  0  0  0  0  0  0  0  0  0
    9.6630  -15.7450   19.9218 O   0  0  0  0  0  0  0  0  0  0  0  0
   10.2661  -15.2720   22.1041 N   0  0  0  0  0  0  0  0  0  0  0  0
   11.4492  -16.1398   21.9555 C   0  0  1  0  0  0  0  0  0  0  0  0
   12.6817  -15.2809   21.8770 C   0  0  0  0  0  0  0  0  0  0  0  0
   13.0328  -14.8430   20.5214 C   0  0  0  0  0  0  0  0  0  0  0  0
   12.3593  -15.1128   19.5068 O   0  0  0  0  0  0  0  0  0  0  0  0
   11.5084  -17.0612   23.1100 C   0  0  0  0  0  0  0  0  0  0  0  0
   12.4585  -18.0275   23.2208 O   0  0  0  0  0  0  0  0  0  0  0  0
   14.1802  -14.0734   20.2836 O   0  0  0  0  0  0  0  0  0  0  0  0
   10.6525  -16.9484   24.0174 O   0  0  0  0  0  0  0  0  0  0  0  0
  2  1  1  1
  2  4  1  0
  3  2  1  0
  4  5  1  1
  6  7  2  0
  6  4  1  0
  9  8  1  0
  9 10  2  0
 12 11  1  6
 11  9  1  0
 12 13  1  0
 13  6  1  0
 14 12  1  0
 15 14  2  0
 16 14  1  0
 17 21  1  0
 17 16  1  0
 17 18  1  1
 19 18  1  0
 20 19  2  0
 21 22  1  0
 23 19  1  0
 24 21  2  0
M  END
$$$$
