TND.pdb
     RDKit          3D

 24 23  0  0  1  0  0  0  0  0999 V2000
   10.2742  -14.9740   17.4328 C   0  0  0  0  0  0  0  0  0  0  0  0
    9.5636  -13.6461   17.5186 C   0  0  1  0  0  0  0  0  0  0  0  0
    9.2374  -13.2857   16.2056 O   0  0  0  0  0  0  0  0  0  0  0  0
    8.2650  -13.7498   18.3051 C   0  0  2  0  0  0  0  0  0  0  0  0
    7.5318  -12.5113   18.2512 N   0  0  0  0  0  0  0  0  0  0  0  0
    8.5278  -14.0899   19.7256 C   0  0  0  0  0  0  0  0  0  0  0  0
    8.9876  -13.1460   20.4434 O   0  0  0  0  0  0  0  0  0  0  0  0
    5.8548  -15.2317   21.3358 N   0  0  0  0  0  0  0  0  0  0  0  0
    6.2404  -16.4716   21.9459 C   0  0  0  0  0  0  0  0  0  0  0  0
    5.2994  -17.2313   22.2428 O   0  0  0  0  0  0  0  0  0  0  0  0
    7.6715  -16.6941   22.1446 C   0  0  0  0  0  0  0  0  0  0  0  0
    8.5878  -15.5942   21.6926 C   0  0  2  0  0  0  0  0  0  0  0  0
    8.2943  -15.3566   20.2661 N   0  0  0  0  0  0  0  0  0  0  0  0
   10.0121  -16.0256   21.8114 C   0  0  0  0  0  0  0  0  0  0  0  0
   10.7948  -15.7538   20.8738 O   0  0  0  0  0  0  0  0  0  0  0  0
   10.4883  -16.7271   22.9497 N   0  0  0  0  0  0  0  0  0  0  0  0
   11.9419  -16.9564   23.0455 C   0  0  1  0  0  0  0  0  0  0  0  0
   12.6503  -15.6294   23.0333 C   0  0  0  0  0  0  0  0  0  0  0  0
   14.1076  -15.7162   23.1788 C   0  0  0  0  0  0  0  0  0  0  0  0
   14.6820  -16.0801   24.2245 O   0  0  0  0  0  0  0  0  0  0  0  0
   12.2222  -17.7044   24.2894 C   0  0  0  0  0  0  0  0  0  0  0  0
   11.7609  -17.2972   25.5018 O   0  0  0  0  0  0  0  0  0  0  0  0
   14.9622  -15.3846   22.1180 O   0  0  0  0  0  0  0  0  0  0  0  0
   12.9095  -18.7493   24.2240 O   0  0  0  0  0  0  0  0  0  0  0  0
  2  1  1  6
  2  4  1  0
  3  2  1  0
  4  5  1  1
  6  7  2  0
  6  4  1  0
  9  8  1  0
  9 10  2  0
 12 11  1  6
 11  9  1  0
 12 13  1  0
 13  6  1  0
 14 12  1  0
 15 14  2  0
 16 14  1  0
 17 21  1  0
 17 16  1  0
 17 18  1  1
 19 18  1  0
 20 19  2  0
 21 22  1  0
 23 19  1  0
 24 21  2  0
M  END
$$$$
