TND.pdb
     RDKit          3D

 24 23  0  0  1  0  0  0  0  0999 V2000
    7.5723  -16.5285   19.2561 C   0  0  0  0  0  0  0  0  0  0  0  0
    8.1364  -15.2011   18.8139 C   0  0  1  0  0  0  0  0  0  0  0  0
    7.6713  -14.9871   17.5108 O   0  0  0  0  0  0  0  0  0  0  0  0
    7.6302  -14.0558   19.6787 C   0  0  2  0  0  0  0  0  0  0  0  0
    7.9236  -12.7840   19.0695 N   0  0  0  0  0  0  0  0  0  0  0  0
    8.2463  -14.0943   21.0284 C   0  0  0  0  0  0  0  0  0  0  0  0
    9.4130  -13.5957   21.1172 O   0  0  0  0  0  0  0  0  0  0  0  0
    6.8249  -17.2099   25.2302 N   0  0  0  0  0  0  0  0  0  0  0  0
    6.4827  -16.1096   24.3754 C   0  0  0  0  0  0  0  0  0  0  0  0
    5.5201  -16.3114   23.6116 O   0  0  0  0  0  0  0  0  0  0  0  0
    7.2925  -14.8990   24.4996 C   0  0  0  0  0  0  0  0  0  0  0  0
    8.3269  -14.6748   23.4351 C   0  0  2  0  0  0  0  0  0  0  0  0
    7.6087  -14.6367   22.1465 N   0  0  0  0  0  0  0  0  0  0  0  0
    9.2895  -15.8154   23.4003 C   0  0  0  0  0  0  0  0  0  0  0  0
    9.0943  -16.7318   22.5711 O   0  0  0  0  0  0  0  0  0  0  0  0
   10.4045  -15.8797   24.2763 N   0  0  0  0  0  0  0  0  0  0  0  0
   11.3426  -17.0035   24.0981 C   0  0  1  0  0  0  0  0  0  0  0  0
   12.6824  -16.4632   23.6790 C   0  0  0  0  0  0  0  0  0  0  0  0
   13.7473  -17.4695   23.6019 C   0  0  0  0  0  0  0  0  0  0  0  0
   14.8798  -17.3238   24.1040 O   0  0  0  0  0  0  0  0  0  0  0  0
   11.4371  -17.7476   25.3720 C   0  0  0  0  0  0  0  0  0  0  0  0
   11.9012  -19.0240   25.4353 O   0  0  0  0  0  0  0  0  0  0  0  0
   13.5452  -18.6883   22.9393 O   0  0  0  0  0  0  0  0  0  0  0  0
   11.0761  -17.1826   26.4298 O   0  0  0  0  0  0  0  0  0  0  0  0
  2  1  1  1
  2  4  1  0
  3  2  1  0
  4  5  1  6
  6  7  2  0
  6  4  1  0
  9  8  1  0
  9 10  2  0
 12 11  1  1
 11  9  1  0
 12 13  1  0
 13  6  1  0
 14 12  1  0
 15 14  2  0
 16 14  1  0
 17 21  1  0
 17 16  1  0
 17 18  1  1
 19 18  1  0
 20 19  2  0
 21 22  1  0
 23 19  1  0
 24 21  2  0
M  END
$$$$
