TND.pdb
     RDKit          3D

 24 23  0  0  1  0  0  0  0  0999 V2000
    9.6536  -18.7056   17.5550 C   0  0  0  0  0  0  0  0  0  0  0  0
    9.4438  -19.0127   19.0170 C   0  0  1  0  0  0  0  0  0  0  0  0
    9.6805  -17.8196   19.7105 O   0  0  0  0  0  0  0  0  0  0  0  0
    8.0114  -19.4378   19.3052 C   0  0  2  0  0  0  0  0  0  0  0  0
    7.0813  -18.4138   18.9042 N   0  0  0  0  0  0  0  0  0  0  0  0
    7.8196  -19.7207   20.7494 C   0  0  0  0  0  0  0  0  0  0  0  0
    7.6162  -18.7059   21.4886 O   0  0  0  0  0  0  0  0  0  0  0  0
    5.0194  -21.4372   21.9201 N   0  0  0  0  0  0  0  0  0  0  0  0
    5.6100  -22.6194   22.4788 C   0  0  0  0  0  0  0  0  0  0  0  0
    4.8654  -23.6167   22.5165 O   0  0  0  0  0  0  0  0  0  0  0  0
    6.9961  -22.5155   22.9315 C   0  0  0  0  0  0  0  0  0  0  0  0
    7.6631  -21.1841   22.7418 C   0  0  2  0  0  0  0  0  0  0  0  0
    7.8549  -21.0085   21.2893 N   0  0  0  0  0  0  0  0  0  0  0  0
    9.0057  -21.1801   23.3946 C   0  0  0  0  0  0  0  0  0  0  0  0
    9.9156  -21.8712   22.8847 O   0  0  0  0  0  0  0  0  0  0  0  0
    9.2660  -20.4195   24.5643 N   0  0  0  0  0  0  0  0  0  0  0  0
   10.6421  -20.4408   25.0944 C   0  0  1  0  0  0  0  0  0  0  0  0
   11.3981  -19.2618   24.5455 C   0  0  0  0  0  0  0  0  0  0  0  0
   12.4407  -19.6068   23.5727 C   0  0  0  0  0  0  0  0  0  0  0  0
   13.5544  -20.0748   23.8831 O   0  0  0  0  0  0  0  0  0  0  0  0
   10.5811  -20.4008   26.5709 C   0  0  0  0  0  0  0  0  0  0  0  0
   11.6316  -20.7687   27.3518 O   0  0  0  0  0  0  0  0  0  0  0  0
   12.2371  -19.4240   22.1977 O   0  0  0  0  0  0  0  0  0  0  0  0
    9.5244  -20.0155   27.1216 O   0  0  0  0  0  0  0  0  0  0  0  0
  2  1  1  6
  2  4  1  0
  3  2  1  0
  4  5  1  1
  6  7  2  0
  6  4  1  0
  9  8  1  0
  9 10  2  0
 12 11  1  6
 11  9  1  0
 12 13  1  0
 13  6  1  0
 14 12  1  0
 15 14  2  0
 16 14  1  0
 17 21  1  0
 17 16  1  0
 17 18  1  6
 19 18  1  0
 20 19  2  0
 21 22  1  0
 23 19  1  0
 24 21  2  0
M  END
$$$$
