TND.pdb
     RDKit          3D

 24 23  0  0  1  0  0  0  0  0999 V2000
    6.8784  -14.1196   17.3289 C   0  0  0  0  0  0  0  0  0  0  0  0
    7.8444  -14.4860   18.4282 C   0  0  1  0  0  0  0  0  0  0  0  0
    9.1236  -14.4486   17.8603 O   0  0  0  0  0  0  0  0  0  0  0  0
    7.8148  -13.4761   19.5662 C   0  0  2  0  0  0  0  0  0  0  0  0
    8.0606  -12.1439   19.0770 N   0  0  0  0  0  0  0  0  0  0  0  0
    8.8317  -13.8038   20.5962 C   0  0  0  0  0  0  0  0  0  0  0  0
    9.8537  -13.0471   20.6235 O   0  0  0  0  0  0  0  0  0  0  0  0
   10.7253  -17.9665   24.2823 N   0  0  0  0  0  0  0  0  0  0  0  0
   10.1941  -16.6425   24.4344 C   0  0  0  0  0  0  0  0  0  0  0  0
   10.5902  -16.0250   25.4407 O   0  0  0  0  0  0  0  0  0  0  0  0
    9.2639  -16.1808   23.4056 C   0  0  0  0  0  0  0  0  0  0  0  0
    9.7662  -15.1081   22.4833 C   0  0  2  0  0  0  0  0  0  0  0  0
    8.7006  -14.8683   21.4910 N   0  0  0  0  0  0  0  0  0  0  0  0
   10.9837  -15.5775   21.7579 C   0  0  0  0  0  0  0  0  0  0  0  0
   10.8910  -16.5998   21.0425 O   0  0  0  0  0  0  0  0  0  0  0  0
   12.2250  -14.8972   21.8624 N   0  0  0  0  0  0  0  0  0  0  0  0
   13.3691  -15.4564   21.1187 C   0  0  1  0  0  0  0  0  0  0  0  0
   13.9879  -14.3711   20.2808 C   0  0  0  0  0  0  0  0  0  0  0  0
   15.1891  -14.7809   19.5447 C   0  0  0  0  0  0  0  0  0  0  0  0
   15.3777  -15.9339   19.1077 O   0  0  0  0  0  0  0  0  0  0  0  0
   14.3398  -16.0074   22.0879 C   0  0  0  0  0  0  0  0  0  0  0  0
   15.4187  -16.7384   21.7002 O   0  0  0  0  0  0  0  0  0  0  0  0
   16.2237  -13.8716   19.2836 O   0  0  0  0  0  0  0  0  0  0  0  0
   14.1614  -15.7943   23.3090 O   0  0  0  0  0  0  0  0  0  0  0  0
  2  1  1  6
  2  4  1  0
  3  2  1  0
  4  5  1  6
  6  7  2  0
  6  4  1  0
  9  8  1  0
  9 10  2  0
 12 11  1  1
 11  9  1  0
 12 13  1  0
 13  6  1  0
 14 12  1  0
 15 14  2  0
 16 14  1  0
 17 21  1  0
 17 16  1  0
 17 18  1  1
 19 18  1  0
 20 19  2  0
 21 22  1  0
 23 19  1  0
 24 21  2  0
M  END
$$$$
