TND.pdb
     RDKit          3D

 24 23  0  0  1  0  0  0  0  0999 V2000
    8.2332  -20.0491   17.5437 C   0  0  0  0  0  0  0  0  0  0  0  0
    8.6904  -18.9067   18.4164 C   0  0  1  0  0  0  0  0  0  0  0  0
    9.7413  -19.4012   19.1982 O   0  0  0  0  0  0  0  0  0  0  0  0
    9.2334  -17.7484   17.5923 C   0  0  2  0  0  0  0  0  0  0  0  0
   10.3530  -18.1695   16.7900 N   0  0  0  0  0  0  0  0  0  0  0  0
    9.6640  -16.6285   18.4659 C   0  0  0  0  0  0  0  0  0  0  0  0
   10.8918  -16.3063   18.3857 O   0  0  0  0  0  0  0  0  0  0  0  0
    6.4972  -12.4001   19.2024 N   0  0  0  0  0  0  0  0  0  0  0  0
    7.7121  -13.1553   19.0925 C   0  0  0  0  0  0  0  0  0  0  0  0
    8.2555  -13.1248   17.9724 O   0  0  0  0  0  0  0  0  0  0  0  0
    8.1626  -13.8614   20.2906 C   0  0  0  0  0  0  0  0  0  0  0  0
    9.3098  -14.8132   20.1136 C   0  0  2  0  0  0  0  0  0  0  0  0
    8.7980  -15.9538   19.3295 N   0  0  0  0  0  0  0  0  0  0  0  0
    9.7671  -15.3249   21.4395 C   0  0  0  0  0  0  0  0  0  0  0  0
   10.1034  -14.4941   22.3125 O   0  0  0  0  0  0  0  0  0  0  0  0
    9.8270  -16.7140   21.7245 N   0  0  0  0  0  0  0  0  0  0  0  0
   10.3508  -17.1133   23.0440 C   0  0  1  0  0  0  0  0  0  0  0  0
   10.1212  -18.5872   23.2382 C   0  0  0  0  0  0  0  0  0  0  0  0
    8.7301  -19.0157   23.0545 C   0  0  0  0  0  0  0  0  0  0  0  0
    7.7561  -18.4769   23.6175 O   0  0  0  0  0  0  0  0  0  0  0  0
   11.7901  -16.7808   23.1021 C   0  0  0  0  0  0  0  0  0  0  0  0
   12.4859  -16.7658   24.2701 O   0  0  0  0  0  0  0  0  0  0  0  0
    8.4080  -20.0875   22.2102 O   0  0  0  0  0  0  0  0  0  0  0  0
   12.3892  -16.5023   22.0381 O   0  0  0  0  0  0  0  0  0  0  0  0
  2  1  1  6
  2  4  1  0
  3  2  1  0
  4  5  1  1
  6  7  2  0
  6  4  1  0
  9  8  1  0
  9 10  2  0
 12 11  1  1
 11  9  1  0
 12 13  1  0
 13  6  1  0
 14 12  1  0
 15 14  2  0
 16 14  1  0
 17 21  1  0
 17 16  1  0
 17 18  1  6
 19 18  1  0
 20 19  2  0
 21 22  1  0
 23 19  1  0
 24 21  2  0
M  END
$$$$
