TND.pdb
     RDKit          3D

 24 23  0  0  1  0  0  0  0  0999 V2000
    6.9009  -12.4822   18.5655 C   0  0  0  0  0  0  0  0  0  0  0  0
    7.7173  -13.7013   18.2150 C   0  0  1  0  0  0  0  0  0  0  0  0
    7.8023  -13.7331   16.8179 O   0  0  0  0  0  0  0  0  0  0  0  0
    9.1345  -13.6086   18.7618 C   0  0  2  0  0  0  0  0  0  0  0  0
    9.9708  -14.6365   18.1974 N   0  0  0  0  0  0  0  0  0  0  0  0
    9.1451  -13.7398   20.2401 C   0  0  0  0  0  0  0  0  0  0  0  0
    8.5224  -12.8336   20.8793 O   0  0  0  0  0  0  0  0  0  0  0  0
    7.1848  -14.3901   24.6813 N   0  0  0  0  0  0  0  0  0  0  0  0
    7.6611  -15.5027   23.9108 C   0  0  0  0  0  0  0  0  0  0  0  0
    7.6445  -16.6003   24.4988 O   0  0  0  0  0  0  0  0  0  0  0  0
    8.1035  -15.2212   22.5463 C   0  0  0  0  0  0  0  0  0  0  0  0
    9.5676  -14.9462   22.3618 C   0  0  2  0  0  0  0  0  0  0  0  0
    9.7892  -14.7811   20.9122 N   0  0  0  0  0  0  0  0  0  0  0  0
   10.3760  -16.1113   22.8287 C   0  0  0  0  0  0  0  0  0  0  0  0
   10.2323  -17.2068   22.2416 O   0  0  0  0  0  0  0  0  0  0  0  0
   11.2901  -16.0022   23.9090 N   0  0  0  0  0  0  0  0  0  0  0  0
   12.5358  -16.7870   23.8247 C   0  0  1  0  0  0  0  0  0  0  0  0
   12.8388  -17.3741   25.1762 C   0  0  0  0  0  0  0  0  0  0  0  0
   14.2649  -17.6009   25.4352 C   0  0  0  0  0  0  0  0  0  0  0  0
   15.1728  -17.3122   24.6301 O   0  0  0  0  0  0  0  0  0  0  0  0
   12.3613  -17.8439   22.8059 C   0  0  0  0  0  0  0  0  0  0  0  0
   12.0300  -19.1213   23.1333 O   0  0  0  0  0  0  0  0  0  0  0  0
   14.7002  -18.1725   26.6391 O   0  0  0  0  0  0  0  0  0  0  0  0
   12.5255  -17.5525   21.5990 O   0  0  0  0  0  0  0  0  0  0  0  0
  2  1  1  6
  2  4  1  0
  3  2  1  0
  4  5  1  6
  6  7  2  0
  6  4  1  0
  9  8  1  0
  9 10  2  0
 12 11  1  6
 11  9  1  0
 12 13  1  0
 13  6  1  0
 14 12  1  0
 15 14  2  0
 16 14  1  0
 17 21  1  0
 17 16  1  0
 17 18  1  1
 19 18  1  0
 20 19  2  0
 21 22  1  0
 23 19  1  0
 24 21  2  0
M  END
$$$$
