TND.pdb
     RDKit          3D

 24 23  0  0  1  0  0  0  0  0999 V2000
    6.7360  -20.4504   17.4174 C   0  0  0  0  0  0  0  0  0  0  0  0
    7.3896  -19.3635   18.2342 C   0  0  1  0  0  0  0  0  0  0  0  0
    8.7033  -19.7840   18.4745 O   0  0  0  0  0  0  0  0  0  0  0  0
    7.4581  -18.0479   17.4724 C   0  0  2  0  0  0  0  0  0  0  0  0
    8.2062  -18.2002   16.2511 N   0  0  0  0  0  0  0  0  0  0  0  0
    8.0932  -16.9882   18.2946 C   0  0  0  0  0  0  0  0  0  0  0  0
    9.2853  -16.6810   17.9746 O   0  0  0  0  0  0  0  0  0  0  0  0
    7.6978  -11.9722   21.0134 N   0  0  0  0  0  0  0  0  0  0  0  0
    7.6132  -13.3075   21.5312 C   0  0  0  0  0  0  0  0  0  0  0  0
    7.9553  -13.4369   22.7215 O   0  0  0  0  0  0  0  0  0  0  0  0
    7.1424  -14.3439   20.6141 C   0  0  0  0  0  0  0  0  0  0  0  0
    8.1716  -15.3215   20.1254 C   0  0  2  0  0  0  0  0  0  0  0  0
    7.4469  -16.3521   19.3570 N   0  0  0  0  0  0  0  0  0  0  0  0
    8.8439  -15.9861   21.2808 C   0  0  0  0  0  0  0  0  0  0  0  0
    8.2773  -16.9661   21.8137 O   0  0  0  0  0  0  0  0  0  0  0  0
   10.0941  -15.5349   21.7788 N   0  0  0  0  0  0  0  0  0  0  0  0
   10.7643  -16.3746   22.7890 C   0  0  1  0  0  0  0  0  0  0  0  0
   12.2477  -16.1345   22.7215 C   0  0  0  0  0  0  0  0  0  0  0  0
   13.0363  -16.9270   23.6716 C   0  0  0  0  0  0  0  0  0  0  0  0
   12.8186  -16.9597   24.8993 O   0  0  0  0  0  0  0  0  0  0  0  0
   10.2242  -16.0332   24.1221 C   0  0  0  0  0  0  0  0  0  0  0  0
    9.5378  -14.8829   24.3553 O   0  0  0  0  0  0  0  0  0  0  0  0
   14.1116  -17.7158   23.2392 O   0  0  0  0  0  0  0  0  0  0  0  0
   10.4063  -16.8311   25.0701 O   0  0  0  0  0  0  0  0  0  0  0  0
  2  1  1  6
  2  4  1  0
  3  2  1  0
  4  5  1  6
  6  7  2  0
  6  4  1  0
  9  8  1  0
  9 10  2  0
 12 11  1  1
 11  9  1  0
 12 13  1  0
 13  6  1  0
 14 12  1  0
 15 14  2  0
 16 14  1  0
 17 21  1  0
 17 16  1  0
 17 18  1  1
 19 18  1  0
 20 19  2  0
 21 22  1  0
 23 19  1  0
 24 21  2  0
M  END
$$$$
