VMA.pdb
     RDKit          3D

 21 20  0  0  1  0  0  0  0  0999 V2000
   15.4794  -13.7625  -19.1376 C   0  0  0  0  0  0  0  0  0  0  0  0
   16.6834  -14.1786  -18.3162 C   0  0  2  0  0  0  0  0  0  0  0  0
   16.5423  -15.5856  -17.7886 C   0  0  0  0  0  0  0  0  0  0  0  0
   16.8600  -13.2607  -17.1222 C   0  0  2  0  0  0  0  0  0  0  0  0
   15.7034  -12.4301  -16.9070 N   0  0  0  0  0  0  0  0  0  0  0  0
   18.0406  -12.3784  -17.2917 C   0  0  0  0  0  0  0  0  0  0  0  0
   19.1850  -12.8614  -17.4678 O   0  0  0  0  0  0  0  0  0  0  0  0
   18.5521   -9.1243  -22.8142 C   0  0  0  0  0  0  0  0  0  0  0  0
   18.4562   -8.3559  -21.1772 S   0  0  0  0  0  0  0  0  0  0  0  0
   18.8607   -9.5323  -19.8901 C   0  0  0  0  0  0  0  0  0  0  0  0
   18.6816   -9.0191  -18.5027 C   0  0  0  0  0  0  0  0  0  0  0  0
   19.0117  -10.0493  -17.4461 C   0  0  2  0  0  0  0  0  0  0  0  0
   17.9012  -10.9676  -17.2582 N   0  0  0  0  0  0  0  0  0  0  0  0
   19.4968   -9.4660  -16.1885 C   0  0  0  0  0  0  0  0  0  0  0  0
   18.6739   -8.8986  -15.4076 O   0  0  0  0  0  0  0  0  0  0  0  0
   22.7436   -9.4237  -14.3092 C   0  0  0  0  0  0  0  0  0  0  0  0
   21.3245   -8.8481  -14.5723 C   0  0  2  0  0  0  0  0  0  0  0  0
   20.8530   -9.4990  -15.7747 N   0  0  0  0  0  0  0  0  0  0  0  0
   21.5023   -7.4052  -14.6694 C   0  0  0  0  0  0  0  0  0  0  0  0
   21.7046   -6.7016  -13.4836 O   0  0  0  0  0  0  0  0  0  0  0  0
   21.4893   -6.7391  -15.7277 O   0  0  0  0  0  0  0  0  0  0  0  0
  2  1  1  1
  3  2  1  0
  4  2  1  0
  4  6  1  0
  4  5  1  6
  6  7  2  0
  9 10  1  0
  9  8  1  0
 10 11  1  0
 12 11  1  6
 13  6  1  0
 13 12  1  0
 14 12  1  0
 14 18  1  0
 15 14  2  0
 17 18  1  0
 17 16  1  6
 19 17  1  0
 20 19  1  0
 21 19  2  0
M  END
$$$$
