VMA.pdb
     RDKit          3D

 21 20  0  0  1  0  0  0  0  0999 V2000
   19.9376  -10.4036  -19.7278 C   0  0  0  0  0  0  0  0  0  0  0  0
   20.7058  -11.2580  -18.7393 C   0  0  2  0  0  0  0  0  0  0  0  0
   21.0882  -12.5927  -19.3314 C   0  0  0  0  0  0  0  0  0  0  0  0
   19.8694  -11.5312  -17.5044 C   0  0  2  0  0  0  0  0  0  0  0  0
   18.7086  -12.3281  -17.8069 N   0  0  0  0  0  0  0  0  0  0  0  0
   19.4143  -10.2684  -16.8726 C   0  0  0  0  0  0  0  0  0  0  0  0
   18.5329   -9.5588  -17.4145 O   0  0  0  0  0  0  0  0  0  0  0  0
   17.6316   -9.5613  -10.8990 C   0  0  0  0  0  0  0  0  0  0  0  0
   16.7653  -10.1972  -12.3565 S   0  0  0  0  0  0  0  0  0  0  0  0
   17.5538   -9.6440  -13.8652 C   0  0  0  0  0  0  0  0  0  0  0  0
   18.8508   -8.9384  -13.6641 C   0  0  0  0  0  0  0  0  0  0  0  0
   19.5543   -8.6170  -14.9634 C   0  0  2  0  0  0  0  0  0  0  0  0
   19.9665   -9.8350  -15.6404 N   0  0  0  0  0  0  0  0  0  0  0  0
   20.6433   -7.6425  -14.8160 C   0  0  0  0  0  0  0  0  0  0  0  0
   21.7907   -8.0420  -14.4518 O   0  0  0  0  0  0  0  0  0  0  0  0
   21.0196   -3.9366  -15.3600 C   0  0  0  0  0  0  0  0  0  0  0  0
   21.5705   -5.3033  -14.8671 C   0  0  2  0  0  0  0  0  0  0  0  0
   20.4982   -6.2535  -15.0640 N   0  0  0  0  0  0  0  0  0  0  0  0
   21.9683   -5.0853  -13.4824 C   0  0  0  0  0  0  0  0  0  0  0  0
   23.1918   -4.4574  -13.2566 O   0  0  0  0  0  0  0  0  0  0  0  0
   21.3056   -5.4132  -12.4738 O   0  0  0  0  0  0  0  0  0  0  0  0
  2  1  1  6
  3  2  1  0
  4  2  1  0
  4  6  1  0
  4  5  1  6
  6  7  2  0
  9 10  1  0
  9  8  1  0
 10 11  1  0
 12 11  1  1
 13  6  1  0
 13 12  1  0
 14 12  1  0
 14 18  1  0
 15 14  2  0
 17 18  1  0
 17 16  1  1
 19 17  1  0
 20 19  1  0
 21 19  2  0
M  END
$$$$
