VMA.pdb
     RDKit          3D

 21 20  0  0  1  0  0  0  0  0999 V2000
   18.7584  -13.0480  -17.5330 C   0  0  0  0  0  0  0  0  0  0  0  0
   17.5698  -12.1451  -17.2698 C   0  0  2  0  0  0  0  0  0  0  0  0
   16.4677  -12.3619  -18.2779 C   0  0  0  0  0  0  0  0  0  0  0  0
   17.9776  -10.6867  -17.3484 C   0  0  2  0  0  0  0  0  0  0  0  0
   18.3095  -10.2931  -18.6934 N   0  0  0  0  0  0  0  0  0  0  0  0
   19.1478  -10.4075  -16.4804 C   0  0  0  0  0  0  0  0  0  0  0  0
   19.1100  -10.6529  -15.2506 O   0  0  0  0  0  0  0  0  0  0  0  0
   26.6636  -10.2831  -14.8131 C   0  0  0  0  0  0  0  0  0  0  0  0
   25.3438  -10.7660  -15.9553 S   0  0  0  0  0  0  0  0  0  0  0  0
   23.8412   -9.8510  -15.6252 C   0  0  0  0  0  0  0  0  0  0  0  0
   22.7072  -10.1716  -16.5372 C   0  0  0  0  0  0  0  0  0  0  0  0
   21.4500   -9.3985  -16.2084 C   0  0  2  0  0  0  0  0  0  0  0  0
   20.3367   -9.8564  -17.0226 N   0  0  0  0  0  0  0  0  0  0  0  0
   21.6301   -7.9413  -16.2450 C   0  0  0  0  0  0  0  0  0  0  0  0
   22.0846   -7.3969  -17.2966 O   0  0  0  0  0  0  0  0  0  0  0  0
   20.3382   -4.9023  -15.3145 C   0  0  0  0  0  0  0  0  0  0  0  0
   21.6736   -5.6783  -15.1445 C   0  0  2  0  0  0  0  0  0  0  0  0
   21.3185   -7.0802  -15.1620 N   0  0  0  0  0  0  0  0  0  0  0  0
   22.2489   -5.1931  -13.8970 C   0  0  0  0  0  0  0  0  0  0  0  0
   22.1655   -6.0271  -12.7837 O   0  0  0  0  0  0  0  0  0  0  0  0
   22.8138   -4.0889  -13.7361 O   0  0  0  0  0  0  0  0  0  0  0  0
  2  1  1  6
  3  2  1  0
  4  2  1  0
  4  6  1  0
  4  5  1  6
  6  7  2  0
  9 10  1  0
  9  8  1  0
 10 11  1  0
 12 11  1  6
 13  6  1  0
 13 12  1  0
 14 12  1  0
 14 18  1  0
 15 14  2  0
 17 18  1  0
 17 16  1  1
 19 17  1  0
 20 19  1  0
 21 19  2  0
M  END
$$$$
