VMA.pdb
     RDKit          3D

 21 20  0  0  1  0  0  0  0  0999 V2000
   13.9348  -23.3799    1.9674 C   0  0  0  0  0  0  0  0  0  0  0  0
   13.6117  -21.9140    1.7568 C   0  0  2  0  0  0  0  0  0  0  0  0
   12.2824  -21.7271    1.0669 C   0  0  0  0  0  0  0  0  0  0  0  0
   14.6687  -21.2513    0.8949 C   0  0  2  0  0  0  0  0  0  0  0  0
   14.6645  -21.7646   -0.4506 N   0  0  0  0  0  0  0  0  0  0  0  0
   16.0255  -21.4459    1.4624 C   0  0  0  0  0  0  0  0  0  0  0  0
   16.8966  -22.0984    0.8382 O   0  0  0  0  0  0  0  0  0  0  0  0
   21.5374  -18.9863    6.5670 C   0  0  0  0  0  0  0  0  0  0  0  0
   19.9615  -18.6496    5.7408 S   0  0  0  0  0  0  0  0  0  0  0  0
   19.3820  -20.0899    4.8500 C   0  0  0  0  0  0  0  0  0  0  0  0
   18.1105  -19.8851    4.1004 C   0  0  0  0  0  0  0  0  0  0  0  0
   17.6462  -21.1289    3.3767 C   0  0  2  0  0  0  0  0  0  0  0  0
   16.3681  -20.8980    2.7247 N   0  0  0  0  0  0  0  0  0  0  0  0
   17.6560  -22.3345    4.2156 C   0  0  0  0  0  0  0  0  0  0  0  0
   16.7678  -22.4776    5.1097 O   0  0  0  0  0  0  0  0  0  0  0  0
   19.7211  -25.4755    4.3830 C   0  0  0  0  0  0  0  0  0  0  0  0
   18.6501  -24.5183    4.9753 C   0  0  2  0  0  0  0  0  0  0  0  0
   18.6095  -23.3768    4.0882 N   0  0  0  0  0  0  0  0  0  0  0  0
   19.0888  -24.2389    6.3364 C   0  0  0  0  0  0  0  0  0  0  0  0
   18.7175  -25.1432    7.3295 O   0  0  0  0  0  0  0  0  0  0  0  0
   19.7723  -23.2545    6.6939 O   0  0  0  0  0  0  0  0  0  0  0  0
  2  1  1  6
  3  2  1  0
  4  2  1  0
  4  6  1  0
  4  5  1  6
  6  7  2  0
  9 10  1  0
  9  8  1  0
 10 11  1  0
 12 11  1  1
 13  6  1  0
 13 12  1  0
 14 12  1  0
 14 18  1  0
 15 14  2  0
 17 18  1  0
 17 16  1  6
 19 17  1  0
 20 19  1  0
 21 19  2  0
M  END
$$$$
