VMA.pdb
     RDKit          3D

 21 20  0  0  1  0  0  0  0  0999 V2000
   21.3381  -13.0544  -18.1957 C   0  0  0  0  0  0  0  0  0  0  0  0
   20.0164  -12.5636  -18.7520 C   0  0  2  0  0  0  0  0  0  0  0  0
   19.7973  -13.0312  -20.1703 C   0  0  0  0  0  0  0  0  0  0  0  0
   19.9687  -11.0480  -18.7604 C   0  0  2  0  0  0  0  0  0  0  0  0
   20.9661  -10.4837  -19.6327 N   0  0  0  0  0  0  0  0  0  0  0  0
   20.1756  -10.4955  -17.3993 C   0  0  0  0  0  0  0  0  0  0  0  0
   19.4633  -10.8710  -16.4372 O   0  0  0  0  0  0  0  0  0  0  0  0
   26.6082  -10.5489  -15.7086 C   0  0  0  0  0  0  0  0  0  0  0  0
   25.0418  -10.5358  -14.7999 S   0  0  0  0  0  0  0  0  0  0  0  0
   23.7657   -9.6935  -15.7305 C   0  0  0  0  0  0  0  0  0  0  0  0
   22.4339   -9.6565  -15.0630 C   0  0  0  0  0  0  0  0  0  0  0  0
   21.3953   -8.9016  -15.8618 C   0  0  2  0  0  0  0  0  0  0  0  0
   21.1847   -9.5294  -17.1554 N   0  0  0  0  0  0  0  0  0  0  0  0
   21.6610   -7.4602  -15.9568 C   0  0  0  0  0  0  0  0  0  0  0  0
   22.5904   -7.0475  -16.7149 O   0  0  0  0  0  0  0  0  0  0  0  0
   19.9993   -4.3295  -14.7347 C   0  0  0  0  0  0  0  0  0  0  0  0
   21.2403   -5.0637  -15.3136 C   0  0  2  0  0  0  0  0  0  0  0  0
   20.9291   -6.4744  -15.2466 N   0  0  0  0  0  0  0  0  0  0  0  0
   22.3650   -4.6305  -14.4948 C   0  0  0  0  0  0  0  0  0  0  0  0
   23.0746   -3.5088  -14.9196 O   0  0  0  0  0  0  0  0  0  0  0  0
   22.7517   -5.1787  -13.4394 O   0  0  0  0  0  0  0  0  0  0  0  0
  2  1  1  6
  3  2  1  0
  4  2  1  0
  4  6  1  0
  4  5  1  6
  6  7  2  0
  9 10  1  0
  9  8  1  0
 10 11  1  0
 12 11  1  6
 13  6  1  0
 13 12  1  0
 14 12  1  0
 14 18  1  0
 15 14  2  0
 17 18  1  0
 17 16  1  1
 19 17  1  0
 20 19  1  0
 21 19  2  0
M  END
$$$$
