VMA.pdb
     RDKit          3D

 21 20  0  0  1  0  0  0  0  0999 V2000
   28.0253  -21.4645  -16.4535 C   0  0  0  0  0  0  0  0  0  0  0  0
   28.3883  -20.4213  -15.4155 C   0  0  2  0  0  0  0  0  0  0  0  0
   28.9173  -21.0509  -14.1499 C   0  0  0  0  0  0  0  0  0  0  0  0
   27.1737  -19.5952  -15.0392 C   0  0  2  0  0  0  0  0  0  0  0  0
   27.5211  -18.4836  -14.1920 N   0  0  0  0  0  0  0  0  0  0  0  0
   26.1607  -20.4181  -14.3340 C   0  0  0  0  0  0  0  0  0  0  0  0
   25.6270  -21.4041  -14.8971 O   0  0  0  0  0  0  0  0  0  0  0  0
   25.8792  -19.7762   -7.8979 C   0  0  0  0  0  0  0  0  0  0  0  0
   26.7904  -21.1682   -8.6131 S   0  0  0  0  0  0  0  0  0  0  0  0
   26.3908  -21.3761  -10.3455 C   0  0  0  0  0  0  0  0  0  0  0  0
   25.0922  -20.7733  -10.7588 C   0  0  0  0  0  0  0  0  0  0  0  0
   24.8272  -20.9043  -12.2417 C   0  0  2  0  0  0  0  0  0  0  0  0
   25.7726  -20.1078  -13.0057 N   0  0  0  0  0  0  0  0  0  0  0  0
   23.4287  -20.6523  -12.6128 C   0  0  0  0  0  0  0  0  0  0  0  0
   22.9366  -19.4967  -12.4360 O   0  0  0  0  0  0  0  0  0  0  0  0
   20.7367  -22.5721  -14.3895 C   0  0  0  0  0  0  0  0  0  0  0  0
   21.1925  -21.3691  -13.5182 C   0  0  2  0  0  0  0  0  0  0  0  0
   22.5719  -21.6337  -13.1734 N   0  0  0  0  0  0  0  0  0  0  0  0
   20.2632  -21.3273  -12.3968 C   0  0  0  0  0  0  0  0  0  0  0  0
   20.7340  -21.7524  -11.1559 O   0  0  0  0  0  0  0  0  0  0  0  0
   19.0746  -20.9419  -12.4495 O   0  0  0  0  0  0  0  0  0  0  0  0
  2  1  1  6
  3  2  1  0
  4  2  1  0
  4  6  1  0
  4  5  1  1
  6  7  2  0
  9 10  1  0
  9  8  1  0
 10 11  1  0
 12 11  1  1
 13  6  1  0
 13 12  1  0
 14 12  1  0
 14 18  1  0
 15 14  2  0
 17 18  1  0
 17 16  1  6
 19 17  1  0
 20 19  1  0
 21 19  2  0
M  END
$$$$
