VMA.pdb
     RDKit          3D

 21 20  0  0  1  0  0  0  0  0999 V2000
   20.9590  -13.6074  -17.3422 C   0  0  0  0  0  0  0  0  0  0  0  0
   19.5974  -12.9724  -17.5428 C   0  0  2  0  0  0  0  0  0  0  0  0
   18.8720  -13.5650  -18.7264 C   0  0  0  0  0  0  0  0  0  0  0  0
   19.7328  -11.4828  -17.7916 C   0  0  2  0  0  0  0  0  0  0  0  0
   20.3436  -11.2040  -19.0657 N   0  0  0  0  0  0  0  0  0  0  0  0
   20.5452  -10.8323  -16.7345 C   0  0  0  0  0  0  0  0  0  0  0  0
   20.2350  -10.9442  -15.5240 O   0  0  0  0  0  0  0  0  0  0  0  0
   27.0551   -9.8288  -15.6922 C   0  0  0  0  0  0  0  0  0  0  0  0
   26.0143  -11.2664  -15.3327 S   0  0  0  0  0  0  0  0  0  0  0  0
   24.2832  -10.8130  -15.2929 C   0  0  0  0  0  0  0  0  0  0  0  0
   23.9234   -9.6625  -16.1690 C   0  0  0  0  0  0  0  0  0  0  0  0
   22.4561   -9.3041  -16.0980 C   0  0  2  0  0  0  0  0  0  0  0  0
   21.6921  -10.0684  -17.0696 N   0  0  0  0  0  0  0  0  0  0  0  0
   22.2003   -7.8596  -16.1707 C   0  0  0  0  0  0  0  0  0  0  0  0
   22.4928   -7.2286  -17.2314 O   0  0  0  0  0  0  0  0  0  0  0  0
   19.9574   -5.4053  -14.9132 C   0  0  0  0  0  0  0  0  0  0  0  0
   21.4667   -5.6692  -15.1718 C   0  0  2  0  0  0  0  0  0  0  0  0
   21.6303   -7.1050  -15.1137 N   0  0  0  0  0  0  0  0  0  0  0  0
   22.1743   -4.9158  -14.1448 C   0  0  0  0  0  0  0  0  0  0  0  0
   22.7649   -5.6385  -13.1099 O   0  0  0  0  0  0  0  0  0  0  0  0
   22.2993   -3.6719  -14.1098 O   0  0  0  0  0  0  0  0  0  0  0  0
  2  1  1  6
  3  2  1  0
  4  2  1  0
  4  6  1  0
  4  5  1  6
  6  7  2  0
  9 10  1  0
  9  8  1  0
 10 11  1  0
 12 11  1  6
 13  6  1  0
 13 12  1  0
 14 12  1  0
 14 18  1  0
 15 14  2  0
 17 18  1  0
 17 16  1  1
 19 17  1  0
 20 19  1  0
 21 19  2  0
M  END
$$$$
