VMA.pdb
     RDKit          3D

 21 20  0  0  1  0  0  0  0  0999 V2000
   19.2272  -23.0207   -9.9121 C   0  0  0  0  0  0  0  0  0  0  0  0
   20.1270  -23.7813   -8.9586 C   0  0  2  0  0  0  0  0  0  0  0  0
   19.4440  -25.0062   -8.4008 C   0  0  0  0  0  0  0  0  0  0  0  0
   20.5234  -22.9074   -7.7846 C   0  0  2  0  0  0  0  0  0  0  0  0
   19.3743  -22.3898   -7.0876 N   0  0  0  0  0  0  0  0  0  0  0  0
   21.3557  -21.7606   -8.2241 C   0  0  0  0  0  0  0  0  0  0  0  0
   20.8267  -20.7224   -8.6891 O   0  0  0  0  0  0  0  0  0  0  0  0
   27.3556  -19.7700   -6.0985 C   0  0  0  0  0  0  0  0  0  0  0  0
   26.6850  -18.7835   -7.4609 S   0  0  0  0  0  0  0  0  0  0  0  0
   25.9284  -19.8298   -8.7006 C   0  0  0  0  0  0  0  0  0  0  0  0
   25.0252  -20.8825   -8.1559 C   0  0  0  0  0  0  0  0  0  0  0  0
   23.6518  -20.8655   -8.7883 C   0  0  2  0  0  0  0  0  0  0  0  0
   22.7696  -21.8130   -8.1282 N   0  0  0  0  0  0  0  0  0  0  0  0
   23.6757  -21.0207  -10.2486 C   0  0  0  0  0  0  0  0  0  0  0  0
   24.1030  -22.1036  -10.7523 O   0  0  0  0  0  0  0  0  0  0  0  0
   22.0605  -19.3329  -13.1216 C   0  0  0  0  0  0  0  0  0  0  0  0
   23.2254  -20.2126  -12.5892 C   0  0  2  0  0  0  0  0  0  0  0  0
   23.2387  -20.0218  -11.1557 N   0  0  0  0  0  0  0  0  0  0  0  0
   24.4143  -19.7512  -13.2939 C   0  0  0  0  0  0  0  0  0  0  0  0
   24.5028  -20.0311  -14.6562 O   0  0  0  0  0  0  0  0  0  0  0  0
   25.3669  -19.1231  -12.7819 O   0  0  0  0  0  0  0  0  0  0  0  0
  2  1  1  6
  3  2  1  0
  4  2  1  0
  4  6  1  0
  4  5  1  6
  6  7  2  0
  9 10  1  0
  9  8  1  0
 10 11  1  0
 12 11  1  1
 13  6  1  0
 13 12  1  0
 14 12  1  0
 14 18  1  0
 15 14  2  0
 17 18  1  0
 17 16  1  6
 19 17  1  0
 20 19  1  0
 21 19  2  0
M  END
$$$$
