VMA.pdb
     RDKit          3D

 21 20  0  0  1  0  0  0  0  0999 V2000
   20.7995  -11.3782  -18.9076 C   0  0  0  0  0  0  0  0  0  0  0  0
   20.1942  -10.3512  -19.8437 C   0  0  2  0  0  0  0  0  0  0  0  0
   20.5423  -10.6332  -21.2850 C   0  0  0  0  0  0  0  0  0  0  0  0
   20.7048   -8.9615  -19.5160 C   0  0  2  0  0  0  0  0  0  0  0  0
   22.1063   -8.8193  -19.8153 N   0  0  0  0  0  0  0  0  0  0  0  0
   20.5004   -8.6371  -18.0829 C   0  0  0  0  0  0  0  0  0  0  0  0
   19.3575   -8.6889  -17.5679 O   0  0  0  0  0  0  0  0  0  0  0  0
   24.3069  -11.7497  -14.8901 C   0  0  0  0  0  0  0  0  0  0  0  0
   22.8106  -11.3276  -13.9614 S   0  0  0  0  0  0  0  0  0  0  0  0
   21.7767  -10.1972  -14.8873 C   0  0  0  0  0  0  0  0  0  0  0  0
   22.3162   -8.8126  -14.9978 C   0  0  0  0  0  0  0  0  0  0  0  0
   21.4580   -7.9127  -15.8580 C   0  0  2  0  0  0  0  0  0  0  0  0
   21.5941   -8.2607  -17.2624 N   0  0  0  0  0  0  0  0  0  0  0  0
   21.6615   -6.4818  -15.5963 C   0  0  0  0  0  0  0  0  0  0  0  0
   22.7167   -5.9165  -16.0154 O   0  0  0  0  0  0  0  0  0  0  0  0
   19.6221   -3.7212  -14.0598 C   0  0  0  0  0  0  0  0  0  0  0  0
   20.9573   -4.2618  -14.6423 C   0  0  2  0  0  0  0  0  0  0  0  0
   20.7349   -5.6683  -14.8953 N   0  0  0  0  0  0  0  0  0  0  0  0
   21.9699   -3.9580  -13.6396 C   0  0  0  0  0  0  0  0  0  0  0  0
   22.5449   -2.6890  -13.6712 O   0  0  0  0  0  0  0  0  0  0  0  0
   22.3706   -4.7390  -12.7489 O   0  0  0  0  0  0  0  0  0  0  0  0
  2  1  1  1
  3  2  1  0
  4  2  1  0
  4  6  1  0
  4  5  1  1
  6  7  2  0
  9 10  1  0
  9  8  1  0
 10 11  1  0
 12 11  1  1
 13  6  1  0
 13 12  1  0
 14 12  1  0
 14 18  1  0
 15 14  2  0
 17 18  1  0
 17 16  1  1
 19 17  1  0
 20 19  1  0
 21 19  2  0
M  END
$$$$
