VMA.pdb
     RDKit          3D

 21 20  0  0  1  0  0  0  0  0999 V2000
   18.6773  -13.2368  -16.9183 C   0  0  0  0  0  0  0  0  0  0  0  0
   17.4034  -12.4229  -16.8077 C   0  0  2  0  0  0  0  0  0  0  0  0
   16.3859  -12.8315  -17.8450 C   0  0  0  0  0  0  0  0  0  0  0  0
   17.6913  -10.9479  -17.0094 C   0  0  2  0  0  0  0  0  0  0  0  0
   18.0411  -10.6502  -18.3744 N   0  0  0  0  0  0  0  0  0  0  0  0
   18.7999  -10.4915  -16.1356 C   0  0  0  0  0  0  0  0  0  0  0  0
   18.7387  -10.6347  -14.8906 O   0  0  0  0  0  0  0  0  0  0  0  0
   26.3946  -10.2495  -14.8096 C   0  0  0  0  0  0  0  0  0  0  0  0
   25.0169  -10.7588  -15.8688 S   0  0  0  0  0  0  0  0  0  0  0  0
   23.5217   -9.8675  -15.4519 C   0  0  0  0  0  0  0  0  0  0  0  0
   22.3383  -10.2171  -16.2872 C   0  0  0  0  0  0  0  0  0  0  0  0
   21.0931   -9.4550  -15.8933 C   0  0  2  0  0  0  0  0  0  0  0  0
   19.9548   -9.8825  -16.6891 N   0  0  0  0  0  0  0  0  0  0  0  0
   21.2751   -7.9976  -15.8835 C   0  0  0  0  0  0  0  0  0  0  0  0
   21.6989   -7.4165  -16.9282 O   0  0  0  0  0  0  0  0  0  0  0  0
   19.8960   -5.1295  -14.1883 C   0  0  0  0  0  0  0  0  0  0  0  0
   21.2010   -5.7434  -14.7667 C   0  0  2  0  0  0  0  0  0  0  0  0
   20.9978   -7.1753  -14.7617 N   0  0  0  0  0  0  0  0  0  0  0  0
   22.2727   -5.2595  -13.9063 C   0  0  0  0  0  0  0  0  0  0  0  0
   22.7904   -6.1464  -12.9643 O   0  0  0  0  0  0  0  0  0  0  0  0
   22.7714   -4.1131  -13.9385 O   0  0  0  0  0  0  0  0  0  0  0  0
  2  1  1  6
  3  2  1  0
  4  2  1  0
  4  6  1  0
  4  5  1  6
  6  7  2  0
  9 10  1  0
  9  8  1  0
 10 11  1  0
 12 11  1  6
 13  6  1  0
 13 12  1  0
 14 12  1  0
 14 18  1  0
 15 14  2  0
 17 18  1  0
 17 16  1  1
 19 17  1  0
 20 19  1  0
 21 19  2  0
M  END
$$$$
