VMA.pdb
     RDKit          3D

 21 20  0  0  1  0  0  0  0  0999 V2000
   19.8653  -12.0317  -19.9962 C   0  0  0  0  0  0  0  0  0  0  0  0
   21.2525  -12.4391  -20.4513 C   0  0  2  0  0  0  0  0  0  0  0  0
   21.2004  -13.4583  -21.5632 C   0  0  0  0  0  0  0  0  0  0  0  0
   22.0323  -13.0550  -19.3059 C   0  0  2  0  0  0  0  0  0  0  0  0
   21.4315  -14.2796  -18.8438 N   0  0  0  0  0  0  0  0  0  0  0  0
   22.1280  -12.1218  -18.1567 C   0  0  0  0  0  0  0  0  0  0  0  0
   21.3486  -12.2230  -17.1788 O   0  0  0  0  0  0  0  0  0  0  0  0
   27.8854  -12.2982  -15.1012 C   0  0  0  0  0  0  0  0  0  0  0  0
   27.1310  -10.7993  -15.7821 S   0  0  0  0  0  0  0  0  0  0  0  0
   25.4014  -11.0643  -16.1592 C   0  0  0  0  0  0  0  0  0  0  0  0
   24.7085   -9.8857  -16.7519 C   0  0  0  0  0  0  0  0  0  0  0  0
   23.2483  -10.1466  -17.0451 C   0  0  2  0  0  0  0  0  0  0  0  0
   23.1040  -11.0931  -18.1383 N   0  0  0  0  0  0  0  0  0  0  0  0
   22.4595   -8.9222  -17.2347 C   0  0  0  0  0  0  0  0  0  0  0  0
   22.5673   -8.2744  -18.3199 O   0  0  0  0  0  0  0  0  0  0  0  0
   19.3661   -7.4568  -16.3828 C   0  0  0  0  0  0  0  0  0  0  0  0
   20.8857   -7.1350  -16.4203 C   0  0  2  0  0  0  0  0  0  0  0  0
   21.5604   -8.4051  -16.2673 N   0  0  0  0  0  0  0  0  0  0  0  0
   21.1062   -6.1750  -15.3466 C   0  0  0  0  0  0  0  0  0  0  0  0
   20.6652   -4.8690  -15.5519 O   0  0  0  0  0  0  0  0  0  0  0  0
   21.6587   -6.4205  -14.2519 O   0  0  0  0  0  0  0  0  0  0  0  0
  2  1  1  1
  3  2  1  0
  4  2  1  0
  4  6  1  0
  4  5  1  1
  6  7  2  0
  9 10  1  0
  9  8  1  0
 10 11  1  0
 12 11  1  6
 13  6  1  0
 13 12  1  0
 14 12  1  0
 14 18  1  0
 15 14  2  0
 17 18  1  0
 17 16  1  1
 19 17  1  0
 20 19  1  0
 21 19  2  0
M  END
$$$$
