VMA.pdb
     RDKit          3D

 21 20  0  0  1  0  0  0  0  0999 V2000
   16.6228  -21.5687    0.2192 C   0  0  0  0  0  0  0  0  0  0  0  0
   15.6166  -22.1946    1.1643 C   0  0  2  0  0  0  0  0  0  0  0  0
   14.3324  -22.5537    0.4573 C   0  0  0  0  0  0  0  0  0  0  0  0
   15.2660  -21.2352    2.2850 C   0  0  2  0  0  0  0  0  0  0  0  0
   14.5181  -20.1010    1.8073 N   0  0  0  0  0  0  0  0  0  0  0  0
   16.4851  -20.7345    2.9660 C   0  0  0  0  0  0  0  0  0  0  0  0
   17.3360  -21.5311    3.4305 O   0  0  0  0  0  0  0  0  0  0  0  0
   21.3745  -16.5179    1.6183 C   0  0  0  0  0  0  0  0  0  0  0  0
   20.2735  -17.5740    0.6428 S   0  0  0  0  0  0  0  0  0  0  0  0
   19.2543  -18.5937    1.7036 C   0  0  0  0  0  0  0  0  0  0  0  0
   18.6494  -17.8743    2.8599 C   0  0  0  0  0  0  0  0  0  0  0  0
   17.8766  -18.7885    3.7838 C   0  0  2  0  0  0  0  0  0  0  0  0
   16.7160  -19.3425    3.1071 N   0  0  0  0  0  0  0  0  0  0  0  0
   17.5514  -18.1763    5.0786 C   0  0  0  0  0  0  0  0  0  0  0  0
   16.4620  -17.5401    5.2100 O   0  0  0  0  0  0  0  0  0  0  0  0
   17.5146  -16.2482    7.1901 C   0  0  0  0  0  0  0  0  0  0  0  0
   18.0302  -17.6809    7.4993 C   0  0  2  0  0  0  0  0  0  0  0  0
   18.3888  -18.2540    6.2207 N   0  0  0  0  0  0  0  0  0  0  0  0
   16.9380  -18.3444    8.1992 C   0  0  0  0  0  0  0  0  0  0  0  0
   16.3526  -19.4464    7.5788 O   0  0  0  0  0  0  0  0  0  0  0  0
   16.4772  -18.0107    9.3129 O   0  0  0  0  0  0  0  0  0  0  0  0
  2  1  1  6
  3  2  1  0
  4  2  1  0
  4  6  1  0
  4  5  1  6
  6  7  2  0
  9 10  1  0
  9  8  1  0
 10 11  1  0
 12 11  1  6
 13  6  1  0
 13 12  1  0
 14 12  1  0
 14 18  1  0
 15 14  2  0
 17 18  1  0
 17 16  1  6
 19 17  1  0
 20 19  1  0
 21 19  2  0
M  END
$$$$
