VMA.pdb
     RDKit          3D

 21 20  0  0  1  0  0  0  0  0999 V2000
   21.6347  -13.7870  -18.4810 C   0  0  0  0  0  0  0  0  0  0  0  0
   20.1740  -13.4331  -18.2841 C   0  0  2  0  0  0  0  0  0  0  0  0
   19.3063  -14.0078  -19.3773 C   0  0  0  0  0  0  0  0  0  0  0  0
   19.9815  -11.9291  -18.2941 C   0  0  2  0  0  0  0  0  0  0  0  0
   20.3510  -11.3482  -19.5591 N   0  0  0  0  0  0  0  0  0  0  0  0
   20.7846  -11.2767  -17.2310 C   0  0  0  0  0  0  0  0  0  0  0  0
   20.6340  -11.5916  -16.0259 O   0  0  0  0  0  0  0  0  0  0  0  0
   26.6337  -11.2481  -14.7721 C   0  0  0  0  0  0  0  0  0  0  0  0
   26.4435   -9.5775  -15.4444 S   0  0  0  0  0  0  0  0  0  0  0  0
   24.7166   -9.1164  -15.5416 C   0  0  0  0  0  0  0  0  0  0  0  0
   23.9346   -9.8559  -16.5722 C   0  0  0  0  0  0  0  0  0  0  0  0
   22.4626   -9.5105  -16.5550 C   0  0  2  0  0  0  0  0  0  0  0  0
   21.7415  -10.2812  -17.5540 N   0  0  0  0  0  0  0  0  0  0  0  0
   22.1967   -8.0684  -16.6369 C   0  0  0  0  0  0  0  0  0  0  0  0
   22.6478   -7.4075  -17.6210 O   0  0  0  0  0  0  0  0  0  0  0  0
   19.9043   -5.6654  -14.9550 C   0  0  0  0  0  0  0  0  0  0  0  0
   21.2030   -5.9258  -15.7673 C   0  0  2  0  0  0  0  0  0  0  0  0
   21.4482   -7.3479  -15.6713 N   0  0  0  0  0  0  0  0  0  0  0  0
   22.2174   -5.0728  -15.1622 C   0  0  0  0  0  0  0  0  0  0  0  0
   22.1353   -3.7034  -15.4078 O   0  0  0  0  0  0  0  0  0  0  0  0
   23.1598   -5.4625  -14.4383 O   0  0  0  0  0  0  0  0  0  0  0  0
  2  1  1  6
  3  2  1  0
  4  2  1  0
  4  6  1  0
  4  5  1  6
  6  7  2  0
  9 10  1  0
  9  8  1  0
 10 11  1  0
 12 11  1  6
 13  6  1  0
 13 12  1  0
 14 12  1  0
 14 18  1  0
 15 14  2  0
 17 18  1  0
 17 16  1  1
 19 17  1  0
 20 19  1  0
 21 19  2  0
M  END
$$$$
