VMA.pdb
     RDKit          3D

 21 20  0  0  1  0  0  0  0  0999 V2000
   28.5973  -22.0545  -14.6422 C   0  0  0  0  0  0  0  0  0  0  0  0
   28.0761  -21.5767  -15.9828 C   0  0  2  0  0  0  0  0  0  0  0  0
   29.1611  -20.9261  -16.8060 C   0  0  0  0  0  0  0  0  0  0  0  0
   26.9728  -20.5536  -15.7946 C   0  0  2  0  0  0  0  0  0  0  0  0
   27.4616  -19.3410  -15.1904 N   0  0  0  0  0  0  0  0  0  0  0  0
   25.8815  -21.0892  -14.9443 C   0  0  0  0  0  0  0  0  0  0  0  0
   25.2650  -22.1323  -15.2698 O   0  0  0  0  0  0  0  0  0  0  0  0
   25.5366  -20.0060   -8.4633 C   0  0  0  0  0  0  0  0  0  0  0  0
   26.5661  -21.2594   -9.2685 S   0  0  0  0  0  0  0  0  0  0  0  0
   26.0823  -21.4884  -10.9765 C   0  0  0  0  0  0  0  0  0  0  0  0
   24.8945  -20.6926  -11.3964 C   0  0  0  0  0  0  0  0  0  0  0  0
   24.4971  -20.9409  -12.8340 C   0  0  2  0  0  0  0  0  0  0  0  0
   25.5106  -20.4329  -13.7432 N   0  0  0  0  0  0  0  0  0  0  0  0
   23.1438  -20.4714  -13.1587 C   0  0  0  0  0  0  0  0  0  0  0  0
   22.8645  -19.2409  -13.0295 O   0  0  0  0  0  0  0  0  0  0  0  0
   20.2353  -21.8628  -15.0139 C   0  0  0  0  0  0  0  0  0  0  0  0
   20.8000  -20.8252  -14.0045 C   0  0  2  0  0  0  0  0  0  0  0  0
   22.1049  -21.3182  -13.6227 N   0  0  0  0  0  0  0  0  0  0  0  0
   19.8181  -20.7540  -12.9304 C   0  0  0  0  0  0  0  0  0  0  0  0
   18.6420  -20.0495  -13.1806 O   0  0  0  0  0  0  0  0  0  0  0  0
   19.9379  -21.2716  -11.7983 O   0  0  0  0  0  0  0  0  0  0  0  0
  2  1  1  1
  3  2  1  0
  4  2  1  0
  4  6  1  0
  4  5  1  1
  6  7  2  0
  9 10  1  0
  9  8  1  0
 10 11  1  0
 12 11  1  1
 13  6  1  0
 13 12  1  0
 14 12  1  0
 14 18  1  0
 15 14  2  0
 17 18  1  0
 17 16  1  6
 19 17  1  0
 20 19  1  0
 21 19  2  0
M  END
$$$$
