QAS.pdb
     RDKit          3D

 21 20  0  0  1  0  0  0  0  0999 V2000
   -1.0016  -27.8783   27.9078 N   0  0  0  0  0  0  0  0  0  0  0  0
   -0.6919  -27.6262   26.5286 C   0  0  0  0  0  0  0  0  0  0  0  0
    0.5144  -27.7542   26.2274 O   0  0  0  0  0  0  0  0  0  0  0  0
   -1.7690  -27.2587   25.6248 C   0  0  0  0  0  0  0  0  0  0  0  0
   -3.1304  -27.1683   26.2065 C   0  0  0  0  0  0  0  0  0  0  0  0
   -3.9884  -26.0463   25.7332 C   0  0  2  0  0  0  0  0  0  0  0  0
   -3.3834  -25.3454   24.6611 N   0  0  0  0  0  0  0  0  0  0  0  0
   -4.2516  -25.1554   26.9028 C   0  0  0  0  0  0  0  0  0  0  0  0
   -4.7202  -25.5574   27.9880 O   0  0  0  0  0  0  0  0  0  0  0  0
   -3.5513  -21.5058   27.5753 C   0  0  0  0  0  0  0  0  0  0  0  0
   -4.1669  -22.8593   27.8540 C   0  0  2  0  0  0  0  0  0  0  0  0
   -3.9474  -23.7779   26.7596 N   0  0  0  0  0  0  0  0  0  0  0  0
   -5.6163  -22.7645   28.1133 C   0  0  0  0  0  0  0  0  0  0  0  0
   -6.4044  -22.6488   27.1640 O   0  0  0  0  0  0  0  0  0  0  0  0
   -7.7910  -25.0085   29.8941 O   0  0  0  0  0  0  0  0  0  0  0  0
   -7.9608  -23.8197   30.6356 C   0  0  0  0  0  0  0  0  0  0  0  0
   -7.4613  -22.6983   29.7437 C   0  0  2  0  0  0  0  0  0  0  0  0
   -6.0531  -22.8112   29.4734 N   0  0  0  0  0  0  0  0  0  0  0  0
   -7.7604  -21.3726   30.3267 C   0  0  0  0  0  0  0  0  0  0  0  0
   -6.8126  -20.6636   30.7434 O   0  0  0  0  0  0  0  0  0  0  0  0
   -9.0459  -20.8674   30.4378 O   0  0  0  0  0  0  0  0  0  0  0  0
  2  1  1  0
  3  2  2  0
  4  2  1  0
  5  6  1  0
  5  4  1  0
  6  7  1  6
  8  6  1  0
  9  8  2  0
 11 10  1  6
 11 13  1  0
 11 12  1  0
 12  8  1  0
 13 18  1  0
 14 13  2  0
 16 15  1  0
 17 16  1  1
 17 19  1  0
 18 17  1  0
 19 20  2  0
 19 21  1  0
M  END
$$$$
