QAS.pdb
     RDKit          3D

 21 20  0  0  1  0  0  0  0  0999 V2000
    6.7774  -19.7609   20.8608 N   0  0  0  0  0  0  0  0  0  0  0  0
    7.1797  -19.0405   19.6857 C   0  0  0  0  0  0  0  0  0  0  0  0
    8.1088  -19.5677   19.0367 O   0  0  0  0  0  0  0  0  0  0  0  0
    6.4957  -17.8015   19.3552 C   0  0  0  0  0  0  0  0  0  0  0  0
    6.4554  -16.7572   20.4077 C   0  0  0  0  0  0  0  0  0  0  0  0
    7.3604  -15.5879   20.2266 C   0  0  2  0  0  0  0  0  0  0  0  0
    8.2487  -15.7811   19.1402 N   0  0  0  0  0  0  0  0  0  0  0  0
    8.0907  -15.3794   21.5127 C   0  0  0  0  0  0  0  0  0  0  0  0
    9.2333  -15.8275   21.7409 O   0  0  0  0  0  0  0  0  0  0  0  0
    7.3368  -13.3434   24.6024 C   0  0  0  0  0  0  0  0  0  0  0  0
    8.0975  -14.3613   23.7816 C   0  0  2  0  0  0  0  0  0  0  0  0
    7.4383  -14.6281   22.5230 N   0  0  0  0  0  0  0  0  0  0  0  0
    8.2747  -15.6345   24.5060 C   0  0  0  0  0  0  0  0  0  0  0  0
    7.3987  -16.5081   24.4370 O   0  0  0  0  0  0  0  0  0  0  0  0
   11.8303  -17.3601   24.7738 O   0  0  0  0  0  0  0  0  0  0  0  0
   10.5575  -17.9635   24.8598 C   0  0  0  0  0  0  0  0  0  0  0  0
    9.7536  -17.1039   25.8175 C   0  0  2  0  0  0  0  0  0  0  0  0
    9.4715  -15.8047   25.2686 N   0  0  0  0  0  0  0  0  0  0  0  0
   10.4381  -16.9651   27.1211 C   0  0  0  0  0  0  0  0  0  0  0  0
   10.7136  -17.9992   27.7763 O   0  0  0  0  0  0  0  0  0  0  0  0
   10.7948  -15.7402   27.6619 O   0  0  0  0  0  0  0  0  0  0  0  0
  2  1  1  0
  3  2  2  0
  4  2  1  0
  5  6  1  0
  5  4  1  0
  6  7  1  6
  8  6  1  0
  9  8  2  0
 11 10  1  1
 11 13  1  0
 11 12  1  0
 12  8  1  0
 13 18  1  0
 14 13  2  0
 16 15  1  0
 17 16  1  6
 17 19  1  0
 18 17  1  0
 19 20  2  0
 19 21  1  0
M  END
$$$$
