QAS.pdb
     RDKit          3D

 21 20  0  0  1  0  0  0  0  0999 V2000
   12.1759  -19.2388   17.2799 N   0  0  0  0  0  0  0  0  0  0  0  0
   12.6226  -17.8760   17.2126 C   0  0  0  0  0  0  0  0  0  0  0  0
   13.8558  -17.7185   17.3429 O   0  0  0  0  0  0  0  0  0  0  0  0
   11.6398  -16.8262   17.0024 C   0  0  0  0  0  0  0  0  0  0  0  0
   10.2359  -17.2554   16.7908 C   0  0  0  0  0  0  0  0  0  0  0  0
    9.2238  -16.1761   16.6181 C   0  0  2  0  0  0  0  0  0  0  0  0
    9.5575  -15.3177   15.5418 N   0  0  0  0  0  0  0  0  0  0  0  0
    9.1287  -15.4358   17.9119 C   0  0  0  0  0  0  0  0  0  0  0  0
   10.0387  -14.7099   18.3631 O   0  0  0  0  0  0  0  0  0  0  0  0
    6.3185  -14.8673   20.3577 C   0  0  0  0  0  0  0  0  0  0  0  0
    7.7648  -14.8746   19.9141 C   0  0  2  0  0  0  0  0  0  0  0  0
    7.9320  -15.5736   18.6599 N   0  0  0  0  0  0  0  0  0  0  0  0
    8.6493  -15.4882   20.9233 C   0  0  0  0  0  0  0  0  0  0  0  0
    9.2018  -16.5703   20.6799 O   0  0  0  0  0  0  0  0  0  0  0  0
    8.6677  -14.0214   24.7684 O   0  0  0  0  0  0  0  0  0  0  0  0
    9.9371  -14.4425   24.3178 C   0  0  0  0  0  0  0  0  0  0  0  0
    9.6748  -15.3881   23.1604 C   0  0  2  0  0  0  0  0  0  0  0  0
    8.8316  -14.7929   22.1586 N   0  0  0  0  0  0  0  0  0  0  0  0
    9.0849  -16.6611   23.6278 C   0  0  0  0  0  0  0  0  0  0  0  0
    9.7840  -17.4356   24.3248 O   0  0  0  0  0  0  0  0  0  0  0  0
    7.7870  -17.0469   23.3331 O   0  0  0  0  0  0  0  0  0  0  0  0
  2  1  1  0
  3  2  2  0
  4  2  1  0
  5  6  1  0
  5  4  1  0
  6  7  1  6
  8  6  1  0
  9  8  2  0
 11 10  1  1
 11 13  1  0
 11 12  1  0
 12  8  1  0
 13 18  1  0
 14 13  2  0
 16 15  1  0
 17 16  1  1
 17 19  1  0
 18 17  1  0
 19 20  2  0
 19 21  1  0
M  END
$$$$
