QAS.pdb
     RDKit          3D

 21 20  0  0  1  0  0  0  0  0999 V2000
   15.8348  -15.2545   19.5651 N   0  0  0  0  0  0  0  0  0  0  0  0
   15.3568  -14.3330   18.5731 C   0  0  0  0  0  0  0  0  0  0  0  0
   16.2276  -13.5738   18.0960 O   0  0  0  0  0  0  0  0  0  0  0  0
   13.9488  -14.3586   18.2138 C   0  0  0  0  0  0  0  0  0  0  0  0
   13.4075  -15.6471   17.7171 C   0  0  0  0  0  0  0  0  0  0  0  0
   12.0162  -15.6289   17.1849 C   0  0  2  0  0  0  0  0  0  0  0  0
   11.8251  -14.5689   16.2650 N   0  0  0  0  0  0  0  0  0  0  0  0
   11.0885  -15.5282   18.3512 C   0  0  0  0  0  0  0  0  0  0  0  0
   10.7707  -14.4489   18.8922 O   0  0  0  0  0  0  0  0  0  0  0  0
    8.7055  -17.9712   19.8972 C   0  0  0  0  0  0  0  0  0  0  0  0
    9.5312  -16.7037   19.8930 C   0  0  2  0  0  0  0  0  0  0  0  0
   10.5449  -16.7337   18.8629 N   0  0  0  0  0  0  0  0  0  0  0  0
   10.1822  -16.4638   21.1953 C   0  0  0  0  0  0  0  0  0  0  0  0
   11.3924  -16.6935   21.3292 O   0  0  0  0  0  0  0  0  0  0  0  0
    9.7938  -14.8959   25.7064 O   0  0  0  0  0  0  0  0  0  0  0  0
    9.0340  -15.1260   24.5396 C   0  0  0  0  0  0  0  0  0  0  0  0
    9.9727  -15.8040   23.5590 C   0  0  2  0  0  0  0  0  0  0  0  0
    9.3713  -15.9681   22.2628 N   0  0  0  0  0  0  0  0  0  0  0  0
   10.4348  -17.1118   24.0721 C   0  0  0  0  0  0  0  0  0  0  0  0
    9.7813  -18.1435   23.7838 O   0  0  0  0  0  0  0  0  0  0  0  0
   11.5632  -17.2585   24.8628 O   0  0  0  0  0  0  0  0  0  0  0  0
  2  1  1  0
  3  2  2  0
  4  2  1  0
  5  6  1  0
  5  4  1  0
  6  7  1  6
  8  6  1  0
  9  8  2  0
 11 10  1  1
 11 13  1  0
 11 12  1  0
 12  8  1  0
 13 18  1  0
 14 13  2  0
 16 15  1  0
 17 16  1  1
 17 19  1  0
 18 17  1  0
 19 20  2  0
 19 21  1  0
M  END
$$$$
