QAS.pdb
     RDKit          3D

 21 20  0  0  1  0  0  0  0  0999 V2000
    2.5299  -18.7326   22.2873 N   0  0  0  0  0  0  0  0  0  0  0  0
    3.7249  -19.4962   22.0626 C   0  0  0  0  0  0  0  0  0  0  0  0
    3.7462  -20.6167   22.6159 O   0  0  0  0  0  0  0  0  0  0  0  0
    4.7753  -18.9260   21.2357 C   0  0  0  0  0  0  0  0  0  0  0  0
    4.5783  -17.5319   20.7693 C   0  0  0  0  0  0  0  0  0  0  0  0
    5.5885  -16.9954   19.8148 C   0  0  2  0  0  0  0  0  0  0  0  0
    5.8959  -17.9351   18.8004 N   0  0  0  0  0  0  0  0  0  0  0  0
    6.7971  -16.6134   20.6049 C   0  0  0  0  0  0  0  0  0  0  0  0
    7.8451  -17.2912   20.6389 O   0  0  0  0  0  0  0  0  0  0  0  0
    7.6428  -13.5985   22.7255 C   0  0  0  0  0  0  0  0  0  0  0  0
    7.8835  -14.9600   22.1115 C   0  0  2  0  0  0  0  0  0  0  0  0
    6.7380  -15.4108   21.3537 N   0  0  0  0  0  0  0  0  0  0  0  0
    8.2107  -15.9758   23.1305 C   0  0  0  0  0  0  0  0  0  0  0  0
    7.3000  -16.6154   23.6753 O   0  0  0  0  0  0  0  0  0  0  0  0
   10.8906  -19.0595   23.3583 O   0  0  0  0  0  0  0  0  0  0  0  0
   11.2384  -17.8857   24.0603 C   0  0  0  0  0  0  0  0  0  0  0  0
    9.9278  -17.2014   24.4016 C   0  0  2  0  0  0  0  0  0  0  0  0
    9.5893  -16.1791   23.4482 N   0  0  0  0  0  0  0  0  0  0  0  0
    9.9568  -16.6319   25.7661 C   0  0  0  0  0  0  0  0  0  0  0  0
    9.8274  -15.3921   25.9104 O   0  0  0  0  0  0  0  0  0  0  0  0
   10.1210  -17.4039   26.9050 O   0  0  0  0  0  0  0  0  0  0  0  0
  2  1  1  0
  3  2  2  0
  4  2  1  0
  5  6  1  0
  5  4  1  0
  6  7  1  6
  8  6  1  0
  9  8  2  0
 11 10  1  1
 11 13  1  0
 11 12  1  0
 12  8  1  0
 13 18  1  0
 14 13  2  0
 16 15  1  0
 17 16  1  6
 17 19  1  0
 18 17  1  0
 19 20  2  0
 19 21  1  0
M  END
$$$$
