QAS.pdb
     RDKit          3D

 21 20  0  0  1  0  0  0  0  0999 V2000
    8.0288  -14.6826   11.4789 N   0  0  0  0  0  0  0  0  0  0  0  0
    6.9769  -14.3744   12.4062 C   0  0  0  0  0  0  0  0  0  0  0  0
    6.1154  -13.5756   11.9795 O   0  0  0  0  0  0  0  0  0  0  0  0
    6.9959  -14.9971   13.7193 C   0  0  0  0  0  0  0  0  0  0  0  0
    8.1086  -15.9370   13.9990 C   0  0  0  0  0  0  0  0  0  0  0  0
    8.1911  -16.4856   15.3815 C   0  0  2  0  0  0  0  0  0  0  0  0
    6.9090  -16.8069   15.8909 N   0  0  0  0  0  0  0  0  0  0  0  0
    8.8886  -15.4718   16.2282 C   0  0  0  0  0  0  0  0  0  0  0  0
   10.0372  -15.0437   15.9912 O   0  0  0  0  0  0  0  0  0  0  0  0
    7.8311  -13.4136   19.2087 C   0  0  0  0  0  0  0  0  0  0  0  0
    8.8293  -14.0312   18.2543 C   0  0  2  0  0  0  0  0  0  0  0  0
    8.1960  -14.9755   17.3615 N   0  0  0  0  0  0  0  0  0  0  0  0
    9.9273  -14.7120   18.9671 C   0  0  0  0  0  0  0  0  0  0  0  0
    9.8825  -15.9386   19.1372 O   0  0  0  0  0  0  0  0  0  0  0  0
   14.3331  -14.4693   20.8047 O   0  0  0  0  0  0  0  0  0  0  0  0
   13.3428  -13.6926   20.1660 C   0  0  0  0  0  0  0  0  0  0  0  0
   12.0997  -14.5615   20.1179 C   0  0  2  0  0  0  0  0  0  0  0  0
   11.0128  -13.9100   19.4376 N   0  0  0  0  0  0  0  0  0  0  0  0
   11.6757  -14.9707   21.4743 C   0  0  0  0  0  0  0  0  0  0  0  0
   10.6521  -14.4458   21.9756 O   0  0  0  0  0  0  0  0  0  0  0  0
   12.3568  -15.9131   22.2280 O   0  0  0  0  0  0  0  0  0  0  0  0
  2  1  1  0
  3  2  2  0
  4  2  1  0
  5  6  1  0
  5  4  1  0
  6  7  1  1
  8  6  1  0
  9  8  2  0
 11 10  1  1
 11 13  1  0
 11 12  1  0
 12  8  1  0
 13 18  1  0
 14 13  2  0
 16 15  1  0
 17 16  1  1
 17 19  1  0
 18 17  1  0
 19 20  2  0
 19 21  1  0
M  END
$$$$
