QAS.pdb
     RDKit          3D

 21 20  0  0  1  0  0  0  0  0999 V2000
    9.1890  -12.9692   18.7544 N   0  0  0  0  0  0  0  0  0  0  0  0
    7.8066  -13.3027   18.5562 C   0  0  0  0  0  0  0  0  0  0  0  0
    7.1904  -12.5506   17.7707 O   0  0  0  0  0  0  0  0  0  0  0  0
    7.2553  -14.4499   19.2578 C   0  0  0  0  0  0  0  0  0  0  0  0
    8.1567  -15.1547   20.2015 C   0  0  0  0  0  0  0  0  0  0  0  0
    9.1776  -16.0600   19.6037 C   0  0  2  0  0  0  0  0  0  0  0  0
    8.5798  -17.0486   18.7840 N   0  0  0  0  0  0  0  0  0  0  0  0
    9.9572  -16.6637   20.7257 C   0  0  0  0  0  0  0  0  0  0  0  0
    9.6652  -17.7508   21.2657 O   0  0  0  0  0  0  0  0  0  0  0  0
   13.2923  -15.8192   22.2525 C   0  0  0  0  0  0  0  0  0  0  0  0
   11.9571  -16.5285   22.1974 C   0  0  2  0  0  0  0  0  0  0  0  0
   11.0907  -15.9521   21.1941 N   0  0  0  0  0  0  0  0  0  0  0  0
   11.2628  -16.5015   23.4991 C   0  0  0  0  0  0  0  0  0  0  0  0
   10.2616  -15.7866   23.6471 O   0  0  0  0  0  0  0  0  0  0  0  0
    8.9178  -19.0680   25.9277 O   0  0  0  0  0  0  0  0  0  0  0  0
    9.7924  -18.7014   24.8824 C   0  0  0  0  0  0  0  0  0  0  0  0
   10.8722  -17.8494   25.5232 C   0  0  2  0  0  0  0  0  0  0  0  0
   11.7870  -17.3167   24.5495 N   0  0  0  0  0  0  0  0  0  0  0  0
   11.6142  -18.6061   26.5546 C   0  0  0  0  0  0  0  0  0  0  0  0
   12.5173  -19.3995   26.1947 O   0  0  0  0  0  0  0  0  0  0  0  0
   11.3614  -18.4834   27.9115 O   0  0  0  0  0  0  0  0  0  0  0  0
  2  1  1  0
  3  2  2  0
  4  2  1  0
  5  6  1  0
  5  4  1  0
  6  7  1  1
  8  6  1  0
  9  8  2  0
 11 10  1  1
 11 13  1  0
 11 12  1  0
 12  8  1  0
 13 18  1  0
 14 13  2  0
 16 15  1  0
 17 16  1  6
 17 19  1  0
 18 17  1  0
 19 20  2  0
 19 21  1  0
M  END
$$$$
