QAS.pdb
     RDKit          3D

 21 20  0  0  1  0  0  0  0  0999 V2000
   17.2211  -16.6075   18.0855 N   0  0  0  0  0  0  0  0  0  0  0  0
   16.7391  -15.5050   17.3021 C   0  0  0  0  0  0  0  0  0  0  0  0
   16.7295  -15.7001   16.0675 O   0  0  0  0  0  0  0  0  0  0  0  0
   16.3128  -14.2945   17.9842 C   0  0  0  0  0  0  0  0  0  0  0  0
   15.0060  -14.3447   18.6841 C   0  0  0  0  0  0  0  0  0  0  0  0
   13.8587  -14.9115   17.9216 C   0  0  2  0  0  0  0  0  0  0  0  0
   13.4293  -14.0319   16.8977 N   0  0  0  0  0  0  0  0  0  0  0  0
   12.7676  -15.2031   18.8991 C   0  0  0  0  0  0  0  0  0  0  0  0
   11.9900  -14.3357   19.3482 O   0  0  0  0  0  0  0  0  0  0  0  0
   11.2246  -18.4010   20.1075 C   0  0  0  0  0  0  0  0  0  0  0  0
   11.5179  -16.9194   20.1939 C   0  0  2  0  0  0  0  0  0  0  0  0
   12.6170  -16.5446   19.3330 N   0  0  0  0  0  0  0  0  0  0  0  0
   11.8274  -16.4968   21.5733 C   0  0  0  0  0  0  0  0  0  0  0  0
   13.0063  -16.3231   21.9131 O   0  0  0  0  0  0  0  0  0  0  0  0
    8.7317  -16.1516   24.2563 O   0  0  0  0  0  0  0  0  0  0  0  0
    9.8211  -15.2906   24.5086 C   0  0  0  0  0  0  0  0  0  0  0  0
   11.0197  -15.9265   23.8292 C   0  0  2  0  0  0  0  0  0  0  0  0
   10.7323  -16.3034   22.4712 N   0  0  0  0  0  0  0  0  0  0  0  0
   11.5097  -17.0980   24.5871 C   0  0  0  0  0  0  0  0  0  0  0  0
   11.3709  -18.2432   24.0932 O   0  0  0  0  0  0  0  0  0  0  0  0
   12.1204  -16.9959   25.8267 O   0  0  0  0  0  0  0  0  0  0  0  0
  2  1  1  0
  3  2  2  0
  4  2  1  0
  5  6  1  0
  5  4  1  0
  6  7  1  6
  8  6  1  0
  9  8  2  0
 11 10  1  1
 11 13  1  0
 11 12  1  0
 12  8  1  0
 13 18  1  0
 14 13  2  0
 16 15  1  0
 17 16  1  1
 17 19  1  0
 18 17  1  0
 19 20  2  0
 19 21  1  0
M  END
$$$$
