QAS.pdb
     RDKit          3D

 21 20  0  0  1  0  0  0  0  0999 V2000
   10.0151  -13.1853   18.9624 N   0  0  0  0  0  0  0  0  0  0  0  0
    8.6593  -13.1266   18.4935 C   0  0  0  0  0  0  0  0  0  0  0  0
    8.5342  -12.9133   17.2682 O   0  0  0  0  0  0  0  0  0  0  0  0
    7.5794  -13.3169   19.4473 C   0  0  0  0  0  0  0  0  0  0  0  0
    7.9657  -13.6703   20.8350 C   0  0  0  0  0  0  0  0  0  0  0  0
    8.7436  -14.9280   21.0145 C   0  0  2  0  0  0  0  0  0  0  0  0
    8.3017  -15.9434   20.1312 N   0  0  0  0  0  0  0  0  0  0  0  0
    8.6132  -15.3386   22.4447 C   0  0  0  0  0  0  0  0  0  0  0  0
    7.6847  -14.9646   23.1908 O   0  0  0  0  0  0  0  0  0  0  0  0
   10.1131  -18.0554   24.4869 C   0  0  0  0  0  0  0  0  0  0  0  0
    9.5234  -16.6703   24.3374 C   0  0  2  0  0  0  0  0  0  0  0  0
    9.6064  -16.2023   22.9722 N   0  0  0  0  0  0  0  0  0  0  0  0
   10.1858  -15.6895   25.2185 C   0  0  0  0  0  0  0  0  0  0  0  0
   11.1241  -15.0073   24.7831 O   0  0  0  0  0  0  0  0  0  0  0  0
    8.2762  -13.7481   27.9477 O   0  0  0  0  0  0  0  0  0  0  0  0
    9.5940  -13.3629   27.6210 C   0  0  0  0  0  0  0  0  0  0  0  0
   10.3729  -14.6533   27.4451 C   0  0  2  0  0  0  0  0  0  0  0  0
    9.7056  -15.5691   26.5593 N   0  0  0  0  0  0  0  0  0  0  0  0
   10.6342  -15.3064   28.7460 C   0  0  0  0  0  0  0  0  0  0  0  0
   10.2419  -16.4848   28.9244 O   0  0  0  0  0  0  0  0  0  0  0  0
   11.2963  -14.6782   29.7886 O   0  0  0  0  0  0  0  0  0  0  0  0
  2  1  1  0
  3  2  2  0
  4  2  1  0
  5  6  1  0
  5  4  1  0
  6  7  1  6
  8  6  1  0
  9  8  2  0
 11 10  1  6
 11 13  1  0
 11 12  1  0
 12  8  1  0
 13 18  1  0
 14 13  2  0
 16 15  1  0
 17 16  1  1
 17 19  1  0
 18 17  1  0
 19 20  2  0
 19 21  1  0
M  END
$$$$
