QAS.pdb
     RDKit          3D

 21 20  0  0  1  0  0  0  0  0999 V2000
    8.2656  -13.2608   16.8530 N   0  0  0  0  0  0  0  0  0  0  0  0
    8.0140  -13.8649   15.5750 C   0  0  0  0  0  0  0  0  0  0  0  0
    7.1733  -13.2698   14.8670 O   0  0  0  0  0  0  0  0  0  0  0  0
    8.7347  -15.0757   15.2186 C   0  0  0  0  0  0  0  0  0  0  0  0
    9.7589  -15.5531   16.1793 C   0  0  0  0  0  0  0  0  0  0  0  0
    9.9305  -17.0280   16.2981 C   0  0  2  0  0  0  0  0  0  0  0  0
    8.9954  -17.7268   15.4956 N   0  0  0  0  0  0  0  0  0  0  0  0
    9.7989  -17.3824   17.7431 C   0  0  0  0  0  0  0  0  0  0  0  0
    8.7327  -17.2861   18.3855 O   0  0  0  0  0  0  0  0  0  0  0  0
   11.7688  -19.5022   20.0265 C   0  0  0  0  0  0  0  0  0  0  0  0
   10.8839  -18.2993   19.7843 C   0  0  2  0  0  0  0  0  0  0  0  0
   10.9574  -17.8539   18.4110 N   0  0  0  0  0  0  0  0  0  0  0  0
   11.2298  -17.1713   20.6703 C   0  0  0  0  0  0  0  0  0  0  0  0
   12.0623  -16.3315   20.2999 O   0  0  0  0  0  0  0  0  0  0  0  0
    8.9794  -16.5726   24.0217 O   0  0  0  0  0  0  0  0  0  0  0  0
    9.6642  -15.4505   23.5082 C   0  0  0  0  0  0  0  0  0  0  0  0
   10.8950  -15.9981   22.8099 C   0  0  2  0  0  0  0  0  0  0  0  0
   10.5762  -17.0977   21.9393 N   0  0  0  0  0  0  0  0  0  0  0  0
   11.9299  -16.4069   23.7840 C   0  0  0  0  0  0  0  0  0  0  0  0
   12.4820  -15.5282   24.4894 O   0  0  0  0  0  0  0  0  0  0  0  0
   12.3256  -17.7232   23.9601 O   0  0  0  0  0  0  0  0  0  0  0  0
  2  1  1  0
  3  2  2  0
  4  2  1  0
  5  6  1  0
  5  4  1  0
  6  7  1  6
  8  6  1  0
  9  8  2  0
 11 10  1  6
 11 13  1  0
 11 12  1  0
 12  8  1  0
 13 18  1  0
 14 13  2  0
 16 15  1  0
 17 16  1  1
 17 19  1  0
 18 17  1  0
 19 20  2  0
 19 21  1  0
M  END
$$$$
