NPP.pdb
     RDKit          3D

 23 24  0  0  1  0  0  0  0  0999 V2000
   21.1306  -21.9393   -9.3589 N   0  0  0  0  0  0  0  0  0  0  0  0
   21.0902  -21.1293  -10.5150 C   0  0  0  0  0  0  0  0  0  0  0  0
   19.9948  -21.1125  -11.1764 O   0  0  0  0  0  0  0  0  0  0  0  0
   22.2836  -20.3553  -10.9105 C   0  0  0  0  0  0  0  0  0  0  0  0
   22.7450  -20.7378  -12.3207 C   0  0  2  0  0  0  0  0  0  0  0  0
   22.9130  -22.1327  -12.4595 N   0  0  0  0  0  0  0  0  0  0  0  0
   23.8749  -19.8970  -12.7453 C   0  0  0  0  0  0  0  0  0  0  0  0
   23.4824  -18.7480  -13.1921 O   0  0  0  0  0  0  0  0  0  0  0  0
   25.2514  -20.1674  -12.7266 N   0  0  0  0  0  0  0  0  0  0  0  0
   26.0300  -20.4457  -11.5011 C   0  0  0  0  0  0  0  0  0  0  0  0
   27.0072  -21.5474  -11.9496 C   0  0  0  0  0  0  0  0  0  0  0  0
   26.7089  -21.7287  -13.4461 C   0  0  0  0  0  0  0  0  0  0  0  0
   26.2703  -20.2700  -13.7262 C   0  0  1  0  0  0  0  0  0  0  0  0
   26.0148  -20.0116  -15.1013 C   0  0  0  0  0  0  0  0  0  0  0  0
   25.0768  -20.4150  -15.8518 O   0  0  0  0  0  0  0  0  0  0  0  0
   26.9641  -19.1460  -15.7865 N   0  0  0  0  0  0  0  0  0  0  0  0
   28.1759  -18.5594  -15.2637 C   0  0  0  0  0  0  0  0  0  0  0  0
   28.3108  -17.2129  -15.9565 C   0  0  0  0  0  0  0  0  0  0  0  0
   27.2628  -17.2165  -17.0414 C   0  0  0  0  0  0  0  0  0  0  0  0
   26.8948  -18.6746  -17.1602 C   0  0  1  0  0  0  0  0  0  0  0  0
   27.9074  -19.3394  -18.0138 C   0  0  0  0  0  0  0  0  0  0  0  0
   28.7645  -20.0945  -17.4987 O   0  0  0  0  0  0  0  0  0  0  0  0
   27.9539  -19.1629  -19.3884 O   0  0  0  0  0  0  0  0  0  0  0  0
  2  1  1  0
  3  2  2  0
  4  5  1  0
  4  2  1  0
  5  6  1  1
  7  9  1  0
  7  5  1  0
  8  7  2  0
  9 13  1  0
 10 11  1  0
 10  9  1  0
 11 12  1  0
 12 13  1  0
 13 14  1  6
 14 16  1  0
 15 14  2  0
 16 20  1  0
 16 17  1  0
 17 18  1  0
 19 18  1  0
 20 19  1  0
 21 23  1  0
 20 21  1  6
 22 21  2  0
M  END
$$$$
