NPP.pdb
     RDKit          3D

 23 24  0  0  1  0  0  0  0  0999 V2000
   24.9645  -21.5094  -20.1136 N   0  0  0  0  0  0  0  0  0  0  0  0
   24.0798  -21.3095  -19.0312 C   0  0  0  0  0  0  0  0  0  0  0  0
   22.8984  -20.9054  -19.3117 O   0  0  0  0  0  0  0  0  0  0  0  0
   24.5396  -21.5632  -17.6515 C   0  0  0  0  0  0  0  0  0  0  0  0
   26.0165  -21.9706  -17.6297 C   0  0  2  0  0  0  0  0  0  0  0  0
   26.2460  -23.1576  -18.3589 N   0  0  0  0  0  0  0  0  0  0  0  0
   26.5478  -21.9317  -16.2586 C   0  0  0  0  0  0  0  0  0  0  0  0
   26.4492  -23.0789  -15.6684 O   0  0  0  0  0  0  0  0  0  0  0  0
   27.1195  -20.8660  -15.5477 N   0  0  0  0  0  0  0  0  0  0  0  0
   28.2397  -20.0384  -16.0436 C   0  0  0  0  0  0  0  0  0  0  0  0
   27.8673  -18.6229  -15.5668 C   0  0  0  0  0  0  0  0  0  0  0  0
   26.5690  -18.8236  -14.7697 C   0  0  0  0  0  0  0  0  0  0  0  0
   26.8746  -20.2590  -14.2750 C   0  0  1  0  0  0  0  0  0  0  0  0
   25.9020  -20.7624  -13.3674 C   0  0  0  0  0  0  0  0  0  0  0  0
   24.7845  -21.3180  -13.5869 O   0  0  0  0  0  0  0  0  0  0  0  0
   26.2101  -20.6363  -11.9501 N   0  0  0  0  0  0  0  0  0  0  0  0
   27.3998  -20.0898  -11.3401 C   0  0  0  0  0  0  0  0  0  0  0  0
   27.6135  -20.8935  -10.0675 C   0  0  0  0  0  0  0  0  0  0  0  0
   26.3606  -21.7171   -9.9016 C   0  0  0  0  0  0  0  0  0  0  0  0
   25.3796  -21.0424  -10.8278 C   0  0  1  0  0  0  0  0  0  0  0  0
   24.8085  -19.8705  -10.1233 C   0  0  0  0  0  0  0  0  0  0  0  0
   25.3122  -18.7345  -10.2841 O   0  0  0  0  0  0  0  0  0  0  0  0
   23.7169  -19.9718   -9.2740 O   0  0  0  0  0  0  0  0  0  0  0  0
  2  1  1  0
  3  2  2  0
  4  5  1  0
  4  2  1  0
  5  6  1  1
  7  9  1  0
  7  5  1  0
  8  7  2  0
  9 13  1  0
 10 11  1  0
 10  9  1  0
 11 12  1  0
 12 13  1  0
 13 14  1  6
 14 16  1  0
 15 14  2  0
 16 20  1  0
 16 17  1  0
 17 18  1  0
 19 18  1  0
 20 19  1  0
 21 23  1  0
 20 21  1  1
 22 21  2  0
M  END
$$$$
