NPP.pdb
     RDKit          3D

 23 24  0  0  1  0  0  0  0  0999 V2000
   26.1752  -21.7237  -19.1050 N   0  0  0  0  0  0  0  0  0  0  0  0
   25.4742  -20.5063  -19.2489 C   0  0  0  0  0  0  0  0  0  0  0  0
   24.2601  -20.5769  -19.6473 O   0  0  0  0  0  0  0  0  0  0  0  0
   26.1514  -19.2297  -18.9468 C   0  0  0  0  0  0  0  0  0  0  0  0
   27.5464  -19.4719  -18.3613 C   0  0  2  0  0  0  0  0  0  0  0  0
   28.3163  -20.3324  -19.1738 N   0  0  0  0  0  0  0  0  0  0  0  0
   27.4597  -19.8221  -16.9353 C   0  0  0  0  0  0  0  0  0  0  0  0
   27.4794  -21.1023  -16.7490 O   0  0  0  0  0  0  0  0  0  0  0  0
   27.3654  -18.9888  -15.8107 N   0  0  0  0  0  0  0  0  0  0  0  0
   28.1935  -17.7834  -15.5942 C   0  0  0  0  0  0  0  0  0  0  0  0
   27.2044  -16.7879  -14.9614 C   0  0  0  0  0  0  0  0  0  0  0  0
   25.9005  -17.5891  -14.8234 C   0  0  0  0  0  0  0  0  0  0  0  0
   26.5559  -18.9790  -14.6306 C   0  0  1  0  0  0  0  0  0  0  0  0
   25.6191  -20.0099  -14.3430 C   0  0  0  0  0  0  0  0  0  0  0  0
   24.8958  -20.7018  -15.1200 O   0  0  0  0  0  0  0  0  0  0  0  0
   25.4399  -20.3509  -12.9389 N   0  0  0  0  0  0  0  0  0  0  0  0
   26.1105  -19.7873  -11.7906 C   0  0  0  0  0  0  0  0  0  0  0  0
   26.2381  -20.9260  -10.7914 C   0  0  0  0  0  0  0  0  0  0  0  0
   25.3948  -22.0440  -11.3520 C   0  0  0  0  0  0  0  0  0  0  0  0
   24.5401  -21.3479  -12.3818 C   0  0  1  0  0  0  0  0  0  0  0  0
   23.3959  -20.7164  -11.6832 C   0  0  0  0  0  0  0  0  0  0  0  0
   23.4520  -19.5095  -11.3508 O   0  0  0  0  0  0  0  0  0  0  0  0
   22.2376  -21.4124  -11.3720 O   0  0  0  0  0  0  0  0  0  0  0  0
  2  1  1  0
  3  2  2  0
  4  5  1  0
  4  2  1  0
  5  6  1  6
  7  9  1  0
  7  5  1  0
  8  7  2  0
  9 13  1  0
 10 11  1  0
 10  9  1  0
 11 12  1  0
 12 13  1  0
 13 14  1  6
 14 16  1  0
 15 14  2  0
 16 20  1  0
 16 17  1  0
 17 18  1  0
 19 18  1  0
 20 19  1  0
 21 23  1  0
 20 21  1  1
 22 21  2  0
M  END
$$$$
