NPP.pdb
     RDKit          3D

 23 24  0  0  1  0  0  0  0  0999 V2000
   14.4602  -11.5689  -17.0962 N   0  0  0  0  0  0  0  0  0  0  0  0
   14.3381  -10.6203  -16.0572 C   0  0  0  0  0  0  0  0  0  0  0  0
   13.1525  -10.3026  -15.6951 O   0  0  0  0  0  0  0  0  0  0  0  0
   15.5509  -10.0417  -15.4459 C   0  0  0  0  0  0  0  0  0  0  0  0
   16.8182  -10.6140  -16.0893 C   0  0  2  0  0  0  0  0  0  0  0  0
   16.9923  -11.9814  -15.7841 N   0  0  0  0  0  0  0  0  0  0  0  0
   17.9716   -9.7358  -15.8400 C   0  0  0  0  0  0  0  0  0  0  0  0
   18.1758   -9.5518  -14.5757 O   0  0  0  0  0  0  0  0  0  0  0  0
   18.8342   -9.1071  -16.7503 N   0  0  0  0  0  0  0  0  0  0  0  0
   19.2927   -9.7123  -18.0189 C   0  0  0  0  0  0  0  0  0  0  0  0
   19.2895   -8.5226  -18.9958 C   0  0  0  0  0  0  0  0  0  0  0  0
   18.8808   -7.3230  -18.1269 C   0  0  0  0  0  0  0  0  0  0  0  0
   19.4926   -7.8374  -16.8003 C   0  0  1  0  0  0  0  0  0  0  0  0
   19.4092   -6.8957  -15.7377 C   0  0  0  0  0  0  0  0  0  0  0  0
   18.4127   -6.5173  -15.0525 O   0  0  0  0  0  0  0  0  0  0  0  0
   20.6520   -6.2448  -15.3482 N   0  0  0  0  0  0  0  0  0  0  0  0
   21.9724   -6.4384  -15.9004 C   0  0  0  0  0  0  0  0  0  0  0  0
   22.9337   -6.2528  -14.7372 C   0  0  0  0  0  0  0  0  0  0  0  0
   22.0922   -5.7135  -13.6074 C   0  0  0  0  0  0  0  0  0  0  0  0
   20.8366   -5.2504  -14.3036 C   0  0  1  0  0  0  0  0  0  0  0  0
   21.0918   -3.9062  -14.8727 C   0  0  0  0  0  0  0  0  0  0  0  0
   21.5526   -3.7927  -16.0324 O   0  0  0  0  0  0  0  0  0  0  0  0
   20.8391   -2.7392  -14.1677 O   0  0  0  0  0  0  0  0  0  0  0  0
  2  1  1  0
  3  2  2  0
  4  5  1  0
  4  2  1  0
  5  6  1  1
  7  9  1  0
  7  5  1  0
  8  7  2  0
  9 13  1  0
 10 11  1  0
 10  9  1  0
 11 12  1  0
 12 13  1  0
 13 14  1  1
 14 16  1  0
 15 14  2  0
 16 20  1  0
 16 17  1  0
 17 18  1  0
 19 18  1  0
 20 19  1  0
 21 23  1  0
 20 21  1  6
 22 21  2  0
M  END
$$$$
