NPP.pdb
     RDKit          3D

 23 24  0  0  1  0  0  0  0  0999 V2000
   13.5603  -11.1740  -15.9361 N   0  0  0  0  0  0  0  0  0  0  0  0
   13.8814  -10.4548  -14.7641 C   0  0  0  0  0  0  0  0  0  0  0  0
   12.9106  -10.1283  -13.9967 O   0  0  0  0  0  0  0  0  0  0  0  0
   15.2880  -10.1108  -14.4766 C   0  0  0  0  0  0  0  0  0  0  0  0
   16.2170  -10.6248  -15.5814 C   0  0  2  0  0  0  0  0  0  0  0  0
   16.3069  -12.0338  -15.5805 N   0  0  0  0  0  0  0  0  0  0  0  0
   17.4900   -9.8878  -15.5768 C   0  0  0  0  0  0  0  0  0  0  0  0
   18.2077  -10.1674  -14.5372 O   0  0  0  0  0  0  0  0  0  0  0  0
   17.9990   -8.9702  -16.5079 N   0  0  0  0  0  0  0  0  0  0  0  0
   17.7728   -9.0501  -17.9667 C   0  0  0  0  0  0  0  0  0  0  0  0
   17.5852   -7.5772  -18.3733 C   0  0  0  0  0  0  0  0  0  0  0  0
   17.8002   -6.7960  -17.0676 C   0  0  0  0  0  0  0  0  0  0  0  0
   18.7992   -7.7869  -16.4205 C   0  0  1  0  0  0  0  0  0  0  0  0
   19.3369   -7.3224  -15.1884 C   0  0  0  0  0  0  0  0  0  0  0  0
   18.7809   -7.1513  -14.0626 O   0  0  0  0  0  0  0  0  0  0  0  0
   20.7524   -6.9815  -15.1853 N   0  0  0  0  0  0  0  0  0  0  0  0
   21.6724   -6.9784  -16.2987 C   0  0  0  0  0  0  0  0  0  0  0  0
   23.0180   -7.3838  -15.7188 C   0  0  0  0  0  0  0  0  0  0  0  0
   22.8296   -7.3620  -14.2223 C   0  0  0  0  0  0  0  0  0  0  0  0
   21.5577   -6.5702  -14.0467 C   0  0  1  0  0  0  0  0  0  0  0  0
   21.8964   -5.1292  -14.1138 C   0  0  0  0  0  0  0  0  0  0  0  0
   22.3171   -4.5350  -13.0939 O   0  0  0  0  0  0  0  0  0  0  0  0
   21.7679   -4.3877  -15.2786 O   0  0  0  0  0  0  0  0  0  0  0  0
  2  1  1  0
  3  2  2  0
  4  5  1  0
  4  2  1  0
  5  6  1  1
  7  9  1  0
  7  5  1  0
  8  7  2  0
  9 13  1  0
 10 11  1  0
 10  9  1  0
 11 12  1  0
 12 13  1  0
 13 14  1  1
 14 16  1  0
 15 14  2  0
 16 20  1  0
 16 17  1  0
 17 18  1  0
 19 18  1  0
 20 19  1  0
 21 23  1  0
 20 21  1  6
 22 21  2  0
M  END
$$$$
