NPP.pdb
     RDKit          3D

 23 24  0  0  1  0  0  0  0  0999 V2000
   22.7205  -16.6115  -17.8073 N   0  0  0  0  0  0  0  0  0  0  0  0
   21.9774  -17.7940  -17.5983 C   0  0  0  0  0  0  0  0  0  0  0  0
   20.7202  -17.6640  -17.3975 O   0  0  0  0  0  0  0  0  0  0  0  0
   22.6610  -19.1024  -17.6142 C   0  0  0  0  0  0  0  0  0  0  0  0
   24.1705  -18.9323  -17.8146 C   0  0  2  0  0  0  0  0  0  0  0  0
   24.5882  -19.3902  -19.0831 N   0  0  0  0  0  0  0  0  0  0  0  0
   24.9119  -19.4509  -16.6548 C   0  0  0  0  0  0  0  0  0  0  0  0
   24.5738  -20.6663  -16.3680 O   0  0  0  0  0  0  0  0  0  0  0  0
   25.8889  -18.8289  -15.8632 N   0  0  0  0  0  0  0  0  0  0  0  0
   27.0008  -18.0143  -16.3977 C   0  0  0  0  0  0  0  0  0  0  0  0
   27.1170  -16.8676  -15.3772 C   0  0  0  0  0  0  0  0  0  0  0  0
   26.0682  -17.2084  -14.3071 C   0  0  0  0  0  0  0  0  0  0  0  0
   26.1430  -18.7480  -14.4571 C   0  0  1  0  0  0  0  0  0  0  0  0
   25.3557  -19.4473  -13.5010 C   0  0  0  0  0  0  0  0  0  0  0  0
   24.0974  -19.5471  -13.3892 O   0  0  0  0  0  0  0  0  0  0  0  0
   26.0816  -20.1783  -12.4723 N   0  0  0  0  0  0  0  0  0  0  0  0
   27.5097  -20.2536  -12.2699 C   0  0  0  0  0  0  0  0  0  0  0  0
   27.7734  -21.6499  -11.7293 C   0  0  0  0  0  0  0  0  0  0  0  0
   26.4118  -22.2219  -11.4225 C   0  0  0  0  0  0  0  0  0  0  0  0
   25.5203  -21.0050  -11.4160 C   0  0  1  0  0  0  0  0  0  0  0  0
   25.6409  -20.3499  -10.0922 C   0  0  0  0  0  0  0  0  0  0  0  0
   24.9310  -20.7352   -9.1342 O   0  0  0  0  0  0  0  0  0  0  0  0
   26.5226  -19.3061   -9.8558 O   0  0  0  0  0  0  0  0  0  0  0  0
  2  1  1  0
  3  2  2  0
  4  5  1  0
  4  2  1  0
  5  6  1  6
  7  9  1  0
  7  5  1  0
  8  7  2  0
  9 13  1  0
 10 11  1  0
 10  9  1  0
 11 12  1  0
 12 13  1  0
 13 14  1  1
 14 16  1  0
 15 14  2  0
 16 20  1  0
 16 17  1  0
 17 18  1  0
 19 18  1  0
 20 19  1  0
 21 23  1  0
 20 21  1  1
 22 21  2  0
M  END
$$$$
