NPP.pdb
     RDKit          3D

 23 24  0  0  1  0  0  0  0  0999 V2000
   23.3597  -21.1720  -12.7658 N   0  0  0  0  0  0  0  0  0  0  0  0
   23.7629  -19.9575  -12.1685 C   0  0  0  0  0  0  0  0  0  0  0  0
   22.8923  -19.0215  -12.1071 O   0  0  0  0  0  0  0  0  0  0  0  0
   25.1393  -19.8143  -11.6544 C   0  0  0  0  0  0  0  0  0  0  0  0
   25.9053  -21.1374  -11.7563 C   0  0  2  0  0  0  0  0  0  0  0  0
   25.1435  -22.1389  -12.3968 N   0  0  0  0  0  0  0  0  0  0  0  0
   26.5002  -21.4965  -10.4599 C   0  0  0  0  0  0  0  0  0  0  0  0
   25.5999  -21.7939   -9.5796 O   0  0  0  0  0  0  0  0  0  0  0  0
   27.8485  -21.5564  -10.0770 N   0  0  0  0  0  0  0  0  0  0  0  0
   28.8844  -22.3331  -10.7909 C   0  0  0  0  0  0  0  0  0  0  0  0
   30.1185  -21.4153  -10.7241 C   0  0  0  0  0  0  0  0  0  0  0  0
   29.6475  -20.2110   -9.8941 C   0  0  0  0  0  0  0  0  0  0  0  0
   28.6217  -20.9761   -9.0218 C   0  0  1  0  0  0  0  0  0  0  0  0
   28.0366  -20.1736   -8.0037 C   0  0  0  0  0  0  0  0  0  0  0  0
   27.0632  -19.3639   -8.0546 O   0  0  0  0  0  0  0  0  0  0  0  0
   28.6263  -20.2769   -6.6765 N   0  0  0  0  0  0  0  0  0  0  0  0
   29.7152  -21.1228   -6.2467 C   0  0  0  0  0  0  0  0  0  0  0  0
   29.4039  -21.4897   -4.8046 C   0  0  0  0  0  0  0  0  0  0  0  0
   28.2424  -20.6109   -4.4120 C   0  0  0  0  0  0  0  0  0  0  0  0
   28.2393  -19.5461   -5.4805 C   0  0  1  0  0  0  0  0  0  0  0  0
   29.2493  -18.5240   -5.1185 C   0  0  0  0  0  0  0  0  0  0  0  0
   30.3754  -18.5319   -5.6681 O   0  0  0  0  0  0  0  0  0  0  0  0
   29.0033  -17.5347   -4.1784 O   0  0  0  0  0  0  0  0  0  0  0  0
  2  1  1  0
  3  2  2  0
  4  5  1  0
  4  2  1  0
  5  6  1  1
  7  9  1  0
  7  5  1  0
  8  7  2  0
  9 13  1  0
 10 11  1  0
 10  9  1  0
 11 12  1  0
 12 13  1  0
 13 14  1  6
 14 16  1  0
 15 14  2  0
 16 20  1  0
 16 17  1  0
 17 18  1  0
 19 18  1  0
 20 19  1  0
 21 23  1  0
 20 21  1  1
 22 21  2  0
M  END
$$$$
