NPP.pdb
     RDKit          3D

 23 24  0  0  1  0  0  0  0  0999 V2000
   23.4029  -22.2615  -18.1671 N   0  0  0  0  0  0  0  0  0  0  0  0
   22.8789  -21.5356  -17.0750 C   0  0  0  0  0  0  0  0  0  0  0  0
   21.6623  -21.1485  -17.1630 O   0  0  0  0  0  0  0  0  0  0  0  0
   23.7329  -21.2533  -15.9043 C   0  0  0  0  0  0  0  0  0  0  0  0
   25.1002  -21.9303  -16.0445 C   0  0  2  0  0  0  0  0  0  0  0  0
   25.0163  -23.1429  -16.7628 N   0  0  0  0  0  0  0  0  0  0  0  0
   25.7904  -21.9848  -14.7467 C   0  0  0  0  0  0  0  0  0  0  0  0
   25.4716  -23.0422  -14.0727 O   0  0  0  0  0  0  0  0  0  0  0  0
   26.7037  -21.0848  -14.1774 N   0  0  0  0  0  0  0  0  0  0  0  0
   27.8458  -20.4864  -14.9007 C   0  0  0  0  0  0  0  0  0  0  0  0
   27.8805  -19.0427  -14.3676 C   0  0  0  0  0  0  0  0  0  0  0  0
   26.7596  -19.0023  -13.3173 C   0  0  0  0  0  0  0  0  0  0  0  0
   26.8552  -20.4868  -12.8862 C   0  0  1  0  0  0  0  0  0  0  0  0
   26.0056  -20.8129  -11.7931 C   0  0  0  0  0  0  0  0  0  0  0  0
   24.8238  -21.2701  -11.7800 O   0  0  0  0  0  0  0  0  0  0  0  0
   26.5522  -20.6009  -10.4604 N   0  0  0  0  0  0  0  0  0  0  0  0
   27.8540  -20.0896  -10.1002 C   0  0  0  0  0  0  0  0  0  0  0  0
   28.2345  -20.8075   -8.8152 C   0  0  0  0  0  0  0  0  0  0  0  0
   26.9853  -21.5317   -8.3788 C   0  0  0  0  0  0  0  0  0  0  0  0
   25.9004  -20.8655   -9.1879 C   0  0  1  0  0  0  0  0  0  0  0  0
   25.5174  -19.6087   -8.5026 C   0  0  0  0  0  0  0  0  0  0  0  0
   26.0795  -18.5310   -8.8074 O   0  0  0  0  0  0  0  0  0  0  0  0
   24.5434  -19.5654   -7.5165 O   0  0  0  0  0  0  0  0  0  0  0  0
  2  1  1  0
  3  2  2  0
  4  5  1  0
  4  2  1  0
  5  6  1  1
  7  9  1  0
  7  5  1  0
  8  7  2  0
  9 13  1  0
 10 11  1  0
 10  9  1  0
 11 12  1  0
 12 13  1  0
 13 14  1  1
 14 16  1  0
 15 14  2  0
 16 20  1  0
 16 17  1  0
 17 18  1  0
 19 18  1  0
 20 19  1  0
 21 23  1  0
 20 21  1  1
 22 21  2  0
M  END
$$$$
