NPP.pdb
     RDKit          3D

 23 24  0  0  1  0  0  0  0  0999 V2000
   26.1517  -24.2265  -13.8522 N   0  0  0  0  0  0  0  0  0  0  0  0
   26.7169  -22.9459  -14.0389 C   0  0  0  0  0  0  0  0  0  0  0  0
   26.7363  -22.4864  -15.2331 O   0  0  0  0  0  0  0  0  0  0  0  0
   27.2548  -22.2055  -12.8805 C   0  0  0  0  0  0  0  0  0  0  0  0
   26.1438  -21.4440  -12.1500 C   0  0  2  0  0  0  0  0  0  0  0  0
   25.4703  -20.5458  -13.0062 N   0  0  0  0  0  0  0  0  0  0  0  0
   26.6389  -20.8910  -10.8800 C   0  0  0  0  0  0  0  0  0  0  0  0
   27.8847  -21.1775  -10.6801 O   0  0  0  0  0  0  0  0  0  0  0  0
   25.9683  -20.1310   -9.9101 N   0  0  0  0  0  0  0  0  0  0  0  0
   24.8885  -19.1658  -10.2069 C   0  0  0  0  0  0  0  0  0  0  0  0
   23.9048  -19.3713   -9.0407 C   0  0  0  0  0  0  0  0  0  0  0  0
   24.5922  -20.4163   -8.1482 C   0  0  0  0  0  0  0  0  0  0  0  0
   26.0505  -20.0188   -8.4858 C   0  0  1  0  0  0  0  0  0  0  0  0
   27.0196  -20.7265   -7.7223 C   0  0  0  0  0  0  0  0  0  0  0  0
   27.4201  -21.9253   -7.8127 O   0  0  0  0  0  0  0  0  0  0  0  0
   27.6781  -19.9817   -6.6586 N   0  0  0  0  0  0  0  0  0  0  0  0
   27.5442  -18.5805   -6.3346 C   0  0  0  0  0  0  0  0  0  0  0  0
   28.9073  -18.1475   -5.8193 C   0  0  0  0  0  0  0  0  0  0  0  0
   29.6936  -19.4238   -5.6518 C   0  0  0  0  0  0  0  0  0  0  0  0
   28.6283  -20.4914   -5.6832 C   0  0  1  0  0  0  0  0  0  0  0  0
   28.0241  -20.5824   -4.3332 C   0  0  0  0  0  0  0  0  0  0  0  0
   26.8947  -20.0849   -4.1160 O   0  0  0  0  0  0  0  0  0  0  0  0
   28.6628  -21.2065   -3.2723 O   0  0  0  0  0  0  0  0  0  0  0  0
  2  1  1  0
  3  2  2  0
  4  5  1  0
  4  2  1  0
  5  6  1  6
  7  9  1  0
  7  5  1  0
  8  7  2  0
  9 13  1  0
 10 11  1  0
 10  9  1  0
 11 12  1  0
 12 13  1  0
 13 14  1  1
 14 16  1  0
 15 14  2  0
 16 20  1  0
 16 17  1  0
 17 18  1  0
 19 18  1  0
 20 19  1  0
 21 23  1  0
 20 21  1  1
 22 21  2  0
M  END
$$$$
