NPP.pdb
     RDKit          3D

 23 24  0  0  1  0  0  0  0  0999 V2000
   21.5591  -21.0436  -13.5858 N   0  0  0  0  0  0  0  0  0  0  0  0
   22.8490  -20.4722  -13.5246 C   0  0  0  0  0  0  0  0  0  0  0  0
   23.2213  -19.7661  -14.5249 O   0  0  0  0  0  0  0  0  0  0  0  0
   23.7004  -20.7080  -12.3418 C   0  0  0  0  0  0  0  0  0  0  0  0
   24.9223  -21.5587  -12.7040 C   0  0  2  0  0  0  0  0  0  0  0  0
   24.5568  -22.7477  -13.3719 N   0  0  0  0  0  0  0  0  0  0  0  0
   25.8160  -21.7072  -11.5452 C   0  0  0  0  0  0  0  0  0  0  0  0
   25.3189  -22.4959  -10.6481 O   0  0  0  0  0  0  0  0  0  0  0  0
   27.0734  -21.1343  -11.3025 N   0  0  0  0  0  0  0  0  0  0  0  0
   28.1705  -21.0810  -12.2920 C   0  0  0  0  0  0  0  0  0  0  0  0
   28.7919  -19.6932  -12.0516 C   0  0  0  0  0  0  0  0  0  0  0  0
   27.9942  -19.1235  -10.8683 C   0  0  0  0  0  0  0  0  0  0  0  0
   27.6815  -20.4780  -10.1855 C   0  0  1  0  0  0  0  0  0  0  0  0
   27.0212  -20.3399   -8.9334 C   0  0  0  0  0  0  0  0  0  0  0  0
   25.7885  -20.2232   -8.6639 O   0  0  0  0  0  0  0  0  0  0  0  0
   27.8693  -20.3292   -7.7500 N   0  0  0  0  0  0  0  0  0  0  0  0
   29.3046  -20.4739   -7.6788 C   0  0  0  0  0  0  0  0  0  0  0  0
   29.5781  -21.2045   -6.3739 C   0  0  0  0  0  0  0  0  0  0  0  0
   28.2585  -21.2221   -5.6433 C   0  0  0  0  0  0  0  0  0  0  0  0
   27.4503  -20.1736   -6.3664 C   0  0  1  0  0  0  0  0  0  0  0  0
   27.8299  -18.8452   -5.8305 C   0  0  0  0  0  0  0  0  0  0  0  0
   27.3040  -18.4203   -4.7755 O   0  0  0  0  0  0  0  0  0  0  0  0
   28.7618  -18.0295   -6.4543 O   0  0  0  0  0  0  0  0  0  0  0  0
  2  1  1  0
  3  2  2  0
  4  5  1  0
  4  2  1  0
  5  6  1  1
  7  9  1  0
  7  5  1  0
  8  7  2  0
  9 13  1  0
 10 11  1  0
 10  9  1  0
 11 12  1  0
 12 13  1  0
 13 14  1  1
 14 16  1  0
 15 14  2  0
 16 20  1  0
 16 17  1  0
 17 18  1  0
 19 18  1  0
 20 19  1  0
 21 23  1  0
 20 21  1  1
 22 21  2  0
M  END
$$$$
