NPP.pdb
     RDKit          3D

 23 24  0  0  1  0  0  0  0  0999 V2000
   22.8295  -19.6749  -13.1951 N   0  0  0  0  0  0  0  0  0  0  0  0
   24.2082  -19.5401  -12.9210 C   0  0  0  0  0  0  0  0  0  0  0  0
   24.9604  -19.1679  -13.8871 O   0  0  0  0  0  0  0  0  0  0  0  0
   24.7187  -19.8302  -11.5664 C   0  0  0  0  0  0  0  0  0  0  0  0
   25.7052  -21.0024  -11.5895 C   0  0  2  0  0  0  0  0  0  0  0  0
   25.1668  -22.1310  -12.2451 N   0  0  0  0  0  0  0  0  0  0  0  0
   26.2737  -21.2316  -10.2523 C   0  0  0  0  0  0  0  0  0  0  0  0
   25.3610  -21.2537   -9.3354 O   0  0  0  0  0  0  0  0  0  0  0  0
   27.6087  -21.4213   -9.8652 N   0  0  0  0  0  0  0  0  0  0  0  0
   28.5837  -22.2463  -10.6098 C   0  0  0  0  0  0  0  0  0  0  0  0
   29.8886  -21.4382  -10.4918 C   0  0  0  0  0  0  0  0  0  0  0  0
   29.5107  -20.2399   -9.6073 C   0  0  0  0  0  0  0  0  0  0  0  0
   28.4169  -20.9580   -8.7788 C   0  0  1  0  0  0  0  0  0  0  0  0
   27.8902  -20.1592   -7.7264 C   0  0  0  0  0  0  0  0  0  0  0  0
   26.9321  -19.3298   -7.7261 O   0  0  0  0  0  0  0  0  0  0  0  0
   28.5315  -20.2935   -6.4262 N   0  0  0  0  0  0  0  0  0  0  0  0
   29.6346  -21.1503   -6.0590 C   0  0  0  0  0  0  0  0  0  0  0  0
   29.3795  -21.5495   -4.6144 C   0  0  0  0  0  0  0  0  0  0  0  0
   28.2363  -20.6784   -4.1565 C   0  0  0  0  0  0  0  0  0  0  0  0
   28.1935  -19.5896   -5.1997 C   0  0  1  0  0  0  0  0  0  0  0  0
   29.2192  -18.5773   -4.8546 C   0  0  0  0  0  0  0  0  0  0  0  0
   30.2955  -18.5307   -5.4947 O   0  0  0  0  0  0  0  0  0  0  0  0
   29.0421  -17.6563   -3.8332 O   0  0  0  0  0  0  0  0  0  0  0  0
  2  1  1  0
  3  2  2  0
  4  5  1  0
  4  2  1  0
  5  6  1  1
  7  9  1  0
  7  5  1  0
  8  7  2  0
  9 13  1  0
 10 11  1  0
 10  9  1  0
 11 12  1  0
 12 13  1  0
 13 14  1  1
 14 16  1  0
 15 14  2  0
 16 20  1  0
 16 17  1  0
 17 18  1  0
 19 18  1  0
 20 19  1  0
 21 23  1  0
 20 21  1  1
 22 21  2  0
M  END
$$$$
