NPP.pdb
     RDKit          3D

 23 24  0  0  1  0  0  0  0  0999 V2000
   26.3725  -20.7350  -19.7870 N   0  0  0  0  0  0  0  0  0  0  0  0
   25.2022  -21.1156  -19.0943 C   0  0  0  0  0  0  0  0  0  0  0  0
   24.0831  -20.8825  -19.6698 O   0  0  0  0  0  0  0  0  0  0  0  0
   25.3095  -21.7477  -17.7645 C   0  0  0  0  0  0  0  0  0  0  0  0
   26.7746  -21.8866  -17.3379 C   0  0  2  0  0  0  0  0  0  0  0  0
   27.4270  -22.9317  -18.0274 N   0  0  0  0  0  0  0  0  0  0  0  0
   26.8918  -21.8966  -15.8717 C   0  0  0  0  0  0  0  0  0  0  0  0
   26.5940  -23.0514  -15.3700 O   0  0  0  0  0  0  0  0  0  0  0  0
   27.2675  -20.8684  -14.9944 N   0  0  0  0  0  0  0  0  0  0  0  0
   28.4599  -20.0131  -15.1740 C   0  0  0  0  0  0  0  0  0  0  0  0
   27.9664  -18.6255  -14.7258 C   0  0  0  0  0  0  0  0  0  0  0  0
   26.5218  -18.8711  -14.2632 C   0  0  0  0  0  0  0  0  0  0  0  0
   26.7254  -20.3298  -13.7843 C   0  0  1  0  0  0  0  0  0  0  0  0
   25.5764  -20.8826  -13.1541 C   0  0  0  0  0  0  0  0  0  0  0  0
   24.6688  -21.6360  -13.6172 O   0  0  0  0  0  0  0  0  0  0  0  0
   25.3834  -20.5505  -11.7498 N   0  0  0  0  0  0  0  0  0  0  0  0
   26.2377  -19.7615  -10.8933 C   0  0  0  0  0  0  0  0  0  0  0  0
   26.1055  -20.3730   -9.5077 C   0  0  0  0  0  0  0  0  0  0  0  0
   24.9660  -21.3558   -9.6133 C   0  0  0  0  0  0  0  0  0  0  0  0
   24.2784  -20.9499  -10.8932 C   0  0  1  0  0  0  0  0  0  0  0  0
   23.3824  -19.8079  -10.5954 C   0  0  0  0  0  0  0  0  0  0  0  0
   22.2270  -20.0143  -10.1563 O   0  0  0  0  0  0  0  0  0  0  0  0
   23.7693  -18.4895  -10.7830 O   0  0  0  0  0  0  0  0  0  0  0  0
  2  1  1  0
  3  2  2  0
  4  5  1  0
  4  2  1  0
  5  6  1  1
  7  9  1  0
  7  5  1  0
  8  7  2  0
  9 13  1  0
 10 11  1  0
 10  9  1  0
 11 12  1  0
 12 13  1  0
 13 14  1  6
 14 16  1  0
 15 14  2  0
 16 20  1  0
 16 17  1  0
 17 18  1  0
 19 18  1  0
 20 19  1  0
 21 23  1  0
 20 21  1  1
 22 21  2  0
M  END
$$$$
