HDV.pdb
     RDKit          3D

 26 26  0  0  1  0  0  0  0  0999 V2000
   15.0233   -9.3748  -10.9255 N   0  0  0  0  0  0  0  0  0  0  0  0
   15.7972   -8.1766  -11.2879 C   0  0  1  0  0  0  0  0  0  0  0  0
   16.5465   -7.7678  -10.0645 C   0  0  0  0  0  0  0  0  0  0  0  0
   15.5869   -7.1294   -9.1156 C   0  0  0  0  0  0  0  0  0  0  0  0
   15.0333   -7.6267   -7.9560 C   0  0  0  0  0  0  0  0  0  0  0  0
   14.2081   -6.7275   -7.3927 N   0  0  0  0  0  0  0  0  0  0  0  0
   14.2323   -5.6504   -8.1932 C   0  0  0  0  0  0  0  0  0  0  0  0
   15.0551   -5.8754   -9.2319 N   0  0  0  0  0  0  0  0  0  0  0  0
   16.6835   -8.4824  -12.4344 C   0  0  0  0  0  0  0  0  0  0  0  0
   17.3108   -9.5662  -12.4566 O   0  0  0  0  0  0  0  0  0  0  0  0
   16.8505   -7.5858  -13.5187 N   0  0  0  0  0  0  0  0  0  0  0  0
   17.6079   -7.9191  -14.7083 C   0  0  1  0  0  0  0  0  0  0  0  0
   17.1635   -7.1206  -15.9003 C   0  0  0  0  0  0  0  0  0  0  0  0
   17.8779   -7.6571  -17.0878 C   0  0  0  0  0  0  0  0  0  0  0  0
   17.8257   -8.8972  -17.2852 O   0  0  0  0  0  0  0  0  0  0  0  0
   19.0422   -7.8645  -14.4411 C   0  0  0  0  0  0  0  0  0  0  0  0
   19.4757   -7.0370  -13.5981 O   0  0  0  0  0  0  0  0  0  0  0  0
   18.5924   -6.8749  -17.9824 O   0  0  0  0  0  0  0  0  0  0  0  0
   23.5150   -9.9604  -14.7538 C   0  0  0  0  0  0  0  0  0  0  0  0
   22.0521   -9.9471  -15.1041 C   0  0  1  0  0  0  0  0  0  0  0  0
   21.3058  -11.1200  -14.5263 C   0  0  0  0  0  0  0  0  0  0  0  0
   21.4004   -8.6246  -14.7288 C   0  0  2  0  0  0  0  0  0  0  0  0
   20.0038   -8.6991  -15.0811 N   0  0  0  0  0  0  0  0  0  0  0  0
   22.0797   -7.4727  -15.3619 C   0  0  0  0  0  0  0  0  0  0  0  0
   21.7803   -7.1470  -16.5403 O   0  0  0  0  0  0  0  0  0  0  0  0
   23.0496   -6.7009  -14.7388 O   0  0  0  0  0  0  0  0  0  0  0  0
  2  1  1  1
  2  3  1  0
  4  8  1  0
  4  3  1  0
  5  4  2  0
  6  5  1  0
  6  7  1  0
  7  8  2  0
  9  2  1  0
  9 11  1  0
 10  9  2  0
 12 11  1  0
 12 13  1  6
 14 13  1  0
 14 15  2  0
 16 12  1  0
 16 17  2  0
 18 14  1  0
 20 19  1  1
 20 21  1  0
 20 22  1  0
 22 23  1  6
 22 24  1  0
 23 16  1  0
 24 25  2  0
 24 26  1  0
M  END
$$$$
