HDV.pdb
     RDKit          3D

 26 26  0  0  1  0  0  0  0  0999 V2000
   28.7976  -21.8206  -17.7007 N   0  0  0  0  0  0  0  0  0  0  0  0
   27.9029  -22.4582  -16.7216 C   0  0  1  0  0  0  0  0  0  0  0  0
   28.7790  -23.1462  -15.7294 C   0  0  0  0  0  0  0  0  0  0  0  0
   29.4227  -24.3147  -16.3995 C   0  0  0  0  0  0  0  0  0  0  0  0
   28.8822  -25.5291  -16.7619 C   0  0  0  0  0  0  0  0  0  0  0  0
   29.8063  -26.3125  -17.3442 N   0  0  0  0  0  0  0  0  0  0  0  0
   30.9429  -25.5985  -17.3554 C   0  0  0  0  0  0  0  0  0  0  0  0
   30.7296  -24.3970  -16.7920 N   0  0  0  0  0  0  0  0  0  0  0  0
   27.0247  -21.4358  -16.1075 C   0  0  0  0  0  0  0  0  0  0  0  0
   27.5285  -20.5403  -15.3914 O   0  0  0  0  0  0  0  0  0  0  0  0
   25.6211  -21.4322  -16.3016 N   0  0  0  0  0  0  0  0  0  0  0  0
   24.7322  -20.5168  -15.6147 C   0  0  1  0  0  0  0  0  0  0  0  0
   23.6911  -19.9468  -16.5349 C   0  0  0  0  0  0  0  0  0  0  0  0
   22.9532  -18.9010  -15.7799 C   0  0  0  0  0  0  0  0  0  0  0  0
   22.6707  -19.1425  -14.5793 O   0  0  0  0  0  0  0  0  0  0  0  0
   24.2005  -21.1257  -14.3990 C   0  0  0  0  0  0  0  0  0  0  0  0
   23.4725  -22.1475  -14.4953 O   0  0  0  0  0  0  0  0  0  0  0  0
   22.5618  -17.6850  -16.3193 O   0  0  0  0  0  0  0  0  0  0  0  0
   26.1812  -21.4971  -10.9585 C   0  0  0  0  0  0  0  0  0  0  0  0
   24.7829  -20.9889  -10.7364 C   0  0  1  0  0  0  0  0  0  0  0  0
   24.7475  -19.5320  -10.3585 C   0  0  0  0  0  0  0  0  0  0  0  0
   23.8861  -21.2832  -11.9296 C   0  0  2  0  0  0  0  0  0  0  0  0
   24.4535  -20.6339  -13.0857 N   0  0  0  0  0  0  0  0  0  0  0  0
   22.4857  -20.8733  -11.6847 C   0  0  0  0  0  0  0  0  0  0  0  0
   21.7956  -21.4983  -10.8375 O   0  0  0  0  0  0  0  0  0  0  0  0
   21.8558  -19.8225  -12.3353 O   0  0  0  0  0  0  0  0  0  0  0  0
  2  1  1  6
  2  3  1  0
  4  8  1  0
  4  3  1  0
  5  4  2  0
  6  5  1  0
  6  7  1  0
  7  8  2  0
  9  2  1  0
  9 11  1  0
 10  9  2  0
 12 11  1  0
 12 13  1  6
 14 13  1  0
 14 15  2  0
 16 12  1  0
 16 17  2  0
 18 14  1  0
 20 19  1  6
 20 21  1  0
 20 22  1  0
 22 23  1  6
 22 24  1  0
 23 16  1  0
 24 25  2  0
 24 26  1  0
M  END
$$$$
