HDV.pdb
     RDKit          3D

 26 26  0  0  1  0  0  0  0  0999 V2000
   17.3942  -11.2525  -17.7438 N   0  0  0  0  0  0  0  0  0  0  0  0
   17.6122  -11.2217  -16.2887 C   0  0  1  0  0  0  0  0  0  0  0  0
   18.8742  -11.9744  -16.0314 C   0  0  0  0  0  0  0  0  0  0  0  0
   18.6316  -13.4170  -16.3295 C   0  0  0  0  0  0  0  0  0  0  0  0
   17.8241  -14.3259  -15.6814 C   0  0  0  0  0  0  0  0  0  0  0  0
   17.8899  -15.5328  -16.2694 N   0  0  0  0  0  0  0  0  0  0  0  0
   18.7420  -15.3977  -17.2976 C   0  0  0  0  0  0  0  0  0  0  0  0
   19.1962  -14.1337  -17.3475 N   0  0  0  0  0  0  0  0  0  0  0  0
   17.6704   -9.8173  -15.8220 C   0  0  0  0  0  0  0  0  0  0  0  0
   18.4393   -9.0096  -16.3922 O   0  0  0  0  0  0  0  0  0  0  0  0
   16.8808   -9.3476  -14.7434 N   0  0  0  0  0  0  0  0  0  0  0  0
   16.9287   -7.9796  -14.2678 C   0  0  1  0  0  0  0  0  0  0  0  0
   15.6302   -7.2596  -14.4938 C   0  0  0  0  0  0  0  0  0  0  0  0
   15.7836   -5.8835  -13.9543 C   0  0  0  0  0  0  0  0  0  0  0  0
   16.6584   -5.1489  -14.4783 O   0  0  0  0  0  0  0  0  0  0  0  0
   17.4222   -7.9257  -12.8949 C   0  0  0  0  0  0  0  0  0  0  0  0
   17.0671   -8.8186  -12.0824 O   0  0  0  0  0  0  0  0  0  0  0  0
   15.0238   -5.3682  -12.9151 O   0  0  0  0  0  0  0  0  0  0  0  0
   20.6745   -8.4090  -11.5505 C   0  0  0  0  0  0  0  0  0  0  0  0
   20.2487   -7.0678  -11.0188 C   0  0  1  0  0  0  0  0  0  0  0  0
   20.9255   -5.9222  -11.7232 C   0  0  0  0  0  0  0  0  0  0  0  0
   18.7346   -6.9190  -11.0279 C   0  0  2  0  0  0  0  0  0  0  0  0
   18.2947   -6.9128  -12.4014 N   0  0  0  0  0  0  0  0  0  0  0  0
   18.2917   -5.7156  -10.2898 C   0  0  0  0  0  0  0  0  0  0  0  0
   17.9282   -4.6943  -10.9295 O   0  0  0  0  0  0  0  0  0  0  0  0
   18.2443   -5.6230   -8.9065 O   0  0  0  0  0  0  0  0  0  0  0  0
  2  1  1  6
  2  3  1  0
  4  8  1  0
  4  3  1  0
  5  4  2  0
  6  5  1  0
  6  7  1  0
  7  8  2  0
  9  2  1  0
  9 11  1  0
 10  9  2  0
 12 11  1  0
 12 13  1  1
 14 13  1  0
 14 15  2  0
 16 12  1  0
 16 17  2  0
 18 14  1  0
 20 19  1  6
 20 21  1  0
 20 22  1  0
 22 23  1  6
 22 24  1  0
 23 16  1  0
 24 25  2  0
 24 26  1  0
M  END
$$$$
