HDV.pdb
     RDKit          3D

 26 26  0  0  1  0  0  0  0  0999 V2000
   19.2038  -12.1059  -15.6438 N   0  0  0  0  0  0  0  0  0  0  0  0
   18.1699  -11.1265  -16.0150 C   0  0  1  0  0  0  0  0  0  0  0  0
   16.8651  -11.6952  -15.5686 C   0  0  0  0  0  0  0  0  0  0  0  0
   16.5859  -12.9217  -16.3727 C   0  0  0  0  0  0  0  0  0  0  0  0
   16.2710  -13.0458  -17.7083 C   0  0  0  0  0  0  0  0  0  0  0  0
   16.0916  -14.3353  -18.0425 N   0  0  0  0  0  0  0  0  0  0  0  0
   16.2919  -15.0405  -16.9181 C   0  0  0  0  0  0  0  0  0  0  0  0
   16.5895  -14.2068  -15.9066 N   0  0  0  0  0  0  0  0  0  0  0  0
   18.4747   -9.8180  -15.3916 C   0  0  0  0  0  0  0  0  0  0  0  0
   18.2895   -9.6627  -14.1627 O   0  0  0  0  0  0  0  0  0  0  0  0
   18.9733   -8.7235  -16.1407 N   0  0  0  0  0  0  0  0  0  0  0  0
   19.3789   -7.4717  -15.5337 C   0  0  1  0  0  0  0  0  0  0  0  0
   20.8728   -7.3198  -15.5023 C   0  0  0  0  0  0  0  0  0  0  0  0
   21.3887   -8.2069  -14.4276 C   0  0  0  0  0  0  0  0  0  0  0  0
   21.9621   -9.2692  -14.7773 O   0  0  0  0  0  0  0  0  0  0  0  0
   18.6667   -6.3491  -16.1369 C   0  0  0  0  0  0  0  0  0  0  0  0
   18.5177   -6.3201  -17.3860 O   0  0  0  0  0  0  0  0  0  0  0  0
   21.2748   -7.9324  -13.0732 O   0  0  0  0  0  0  0  0  0  0  0  0
   15.3017   -5.5170  -16.2574 C   0  0  0  0  0  0  0  0  0  0  0  0
   15.9450   -4.2873  -15.6769 C   0  0  1  0  0  0  0  0  0  0  0  0
   15.7480   -4.1763  -14.1885 C   0  0  0  0  0  0  0  0  0  0  0  0
   17.4146   -4.1932  -16.0591 C   0  0  2  0  0  0  0  0  0  0  0  0
   18.1182   -5.2629  -15.3952 N   0  0  0  0  0  0  0  0  0  0  0  0
   17.9848   -2.8645  -15.7449 C   0  0  0  0  0  0  0  0  0  0  0  0
   18.6730   -2.7159  -14.7014 O   0  0  0  0  0  0  0  0  0  0  0  0
   17.8149   -1.7367  -16.5346 O   0  0  0  0  0  0  0  0  0  0  0  0
  2  1  1  1
  2  3  1  0
  4  8  1  0
  4  3  1  0
  5  4  2  0
  6  5  1  0
  6  7  1  0
  7  8  2  0
  9  2  1  0
  9 11  1  0
 10  9  2  0
 12 11  1  0
 12 13  1  6
 14 13  1  0
 14 15  2  0
 16 12  1  0
 16 17  2  0
 18 14  1  0
 20 19  1  1
 20 21  1  0
 20 22  1  0
 22 23  1  1
 22 24  1  0
 23 16  1  0
 24 25  2  0
 24 26  1  0
M  END
$$$$
