HDV.pdb
     RDKit          3D

 26 26  0  0  1  0  0  0  0  0999 V2000
   32.0692  -28.9592  -19.9185 N   0  0  0  0  0  0  0  0  0  0  0  0
   32.3408  -30.1024  -19.0324 C   0  0  1  0  0  0  0  0  0  0  0  0
   32.5882  -29.5385  -17.6737 C   0  0  0  0  0  0  0  0  0  0  0  0
   33.9475  -28.9213  -17.6601 C   0  0  0  0  0  0  0  0  0  0  0  0
   34.3110  -27.5947  -17.5809 C   0  0  0  0  0  0  0  0  0  0  0  0
   35.6483  -27.4603  -17.6010 N   0  0  0  0  0  0  0  0  0  0  0  0
   36.1440  -28.7042  -17.6933 C   0  0  0  0  0  0  0  0  0  0  0  0
   35.1362  -29.5928  -17.7298 N   0  0  0  0  0  0  0  0  0  0  0  0
   31.1988  -31.0449  -19.0688 C   0  0  0  0  0  0  0  0  0  0  0  0
   30.0295  -30.5964  -19.0751 O   0  0  0  0  0  0  0  0  0  0  0  0
   31.3809  -32.4497  -19.0972 N   0  0  0  0  0  0  0  0  0  0  0  0
   30.2770  -33.3875  -19.1392 C   0  0  1  0  0  0  0  0  0  0  0  0
   30.7036  -34.7365  -19.6431 C   0  0  0  0  0  0  0  0  0  0  0  0
   29.4757  -35.4721  -20.0423 C   0  0  0  0  0  0  0  0  0  0  0  0
   28.3731  -34.8903  -19.8833 O   0  0  0  0  0  0  0  0  0  0  0  0
   29.5696  -33.4120  -17.8622 C   0  0  0  0  0  0  0  0  0  0  0  0
   30.2357  -33.4501  -16.7953 O   0  0  0  0  0  0  0  0  0  0  0  0
   29.4767  -36.7521  -20.5754 O   0  0  0  0  0  0  0  0  0  0  0  0
   25.7894  -32.1265  -15.1333 C   0  0  0  0  0  0  0  0  0  0  0  0
   26.6712  -32.1126  -16.3518 C   0  0  1  0  0  0  0  0  0  0  0  0
   27.5105  -30.8663  -16.4473 C   0  0  0  0  0  0  0  0  0  0  0  0
   27.5207  -33.3717  -16.4403 C   0  0  2  0  0  0  0  0  0  0  0  0
   28.1501  -33.3955  -17.7378 N   0  0  0  0  0  0  0  0  0  0  0  0
   26.7293  -34.5937  -16.1763 C   0  0  0  0  0  0  0  0  0  0  0  0
   26.3992  -34.8756  -14.9948 O   0  0  0  0  0  0  0  0  0  0  0  0
   26.3105  -35.4787  -17.1590 O   0  0  0  0  0  0  0  0  0  0  0  0
  2  1  1  6
  2  3  1  0
  4  8  1  0
  4  3  1  0
  5  4  2  0
  6  5  1  0
  6  7  1  0
  7  8  2  0
  9  2  1  0
  9 11  1  0
 10  9  2  0
 12 11  1  0
 12 13  1  1
 14 13  1  0
 14 15  2  0
 16 12  1  0
 16 17  2  0
 18 14  1  0
 20 19  1  1
 20 21  1  0
 20 22  1  0
 22 23  1  6
 22 24  1  0
 23 16  1  0
 24 25  2  0
 24 26  1  0
M  END
$$$$
