HDV.pdb
     RDKit          3D

 26 26  0  0  1  0  0  0  0  0999 V2000
   26.0838  -17.8514  -17.7816 N   0  0  0  0  0  0  0  0  0  0  0  0
   26.7343  -17.8805  -16.4619 C   0  0  1  0  0  0  0  0  0  0  0  0
   27.2939  -16.5168  -16.2330 C   0  0  0  0  0  0  0  0  0  0  0  0
   28.5764  -16.4009  -16.9883 C   0  0  0  0  0  0  0  0  0  0  0  0
   29.5280  -17.3597  -17.2593 C   0  0  0  0  0  0  0  0  0  0  0  0
   30.5433  -16.8420  -17.9720 N   0  0  0  0  0  0  0  0  0  0  0  0
   30.2422  -15.5474  -18.1588 C   0  0  0  0  0  0  0  0  0  0  0  0
   29.0647  -15.2665  -17.5744 N   0  0  0  0  0  0  0  0  0  0  0  0
   25.7517  -18.2838  -15.4296 C   0  0  0  0  0  0  0  0  0  0  0  0
   24.8782  -17.4670  -15.0576 O   0  0  0  0  0  0  0  0  0  0  0  0
   25.7626  -19.5724  -14.8406 N   0  0  0  0  0  0  0  0  0  0  0  0
   24.8144  -19.9833  -13.8246 C   0  0  1  0  0  0  0  0  0  0  0  0
   23.6176  -20.6705  -14.4171 C   0  0  0  0  0  0  0  0  0  0  0  0
   22.6920  -20.9954  -13.3009 C   0  0  0  0  0  0  0  0  0  0  0  0
   22.1855  -22.1455  -13.2830 O   0  0  0  0  0  0  0  0  0  0  0  0
   25.4830  -20.7334  -12.7655 C   0  0  0  0  0  0  0  0  0  0  0  0
   25.9744  -21.8608  -13.0317 O   0  0  0  0  0  0  0  0  0  0  0  0
   22.3581  -20.1104  -12.2870 O   0  0  0  0  0  0  0  0  0  0  0  0
   28.4117  -20.5982  -10.7257 C   0  0  0  0  0  0  0  0  0  0  0  0
   27.2812  -20.6361   -9.7342 C   0  0  1  0  0  0  0  0  0  0  0  0
   27.0581  -19.3102   -9.0567 C   0  0  0  0  0  0  0  0  0  0  0  0
   26.0032  -21.1683  -10.3651 C   0  0  2  0  0  0  0  0  0  0  0  0
   25.6202  -20.2687  -11.4253 N   0  0  0  0  0  0  0  0  0  0  0  0
   24.9269  -21.3516   -9.3665 C   0  0  0  0  0  0  0  0  0  0  0  0
   23.9490  -20.5591   -9.3559 O   0  0  0  0  0  0  0  0  0  0  0  0
   24.9115  -22.3591   -8.4129 O   0  0  0  0  0  0  0  0  0  0  0  0
  2  1  1  6
  2  3  1  0
  4  8  1  0
  4  3  1  0
  5  4  2  0
  6  5  1  0
  6  7  1  0
  7  8  2  0
  9  2  1  0
  9 11  1  0
 10  9  2  0
 12 11  1  0
 12 13  1  6
 14 13  1  0
 14 15  2  0
 16 12  1  0
 16 17  2  0
 18 14  1  0
 20 19  1  6
 20 21  1  0
 20 22  1  0
 22 23  1  6
 22 24  1  0
 23 16  1  0
 24 25  2  0
 24 26  1  0
M  END
$$$$
