HDV.pdb
     RDKit          3D

 26 26  0  0  1  0  0  0  0  0999 V2000
   25.1588  -11.8478  -18.8607 N   0  0  0  0  0  0  0  0  0  0  0  0
   24.7800  -11.4339  -17.5002 C   0  0  1  0  0  0  0  0  0  0  0  0
   26.0298  -10.9646  -16.8346 C   0  0  0  0  0  0  0  0  0  0  0  0
   26.8516  -12.1593  -16.4794 C   0  0  0  0  0  0  0  0  0  0  0  0
   26.5960  -13.4970  -16.6879 C   0  0  0  0  0  0  0  0  0  0  0  0
   27.5968  -14.2579  -16.2124 N   0  0  0  0  0  0  0  0  0  0  0  0
   28.4971  -13.4059  -15.6974 C   0  0  0  0  0  0  0  0  0  0  0  0
   28.0648  -12.1423  -15.8496 N   0  0  0  0  0  0  0  0  0  0  0  0
   23.7334  -10.3882  -17.5695 C   0  0  0  0  0  0  0  0  0  0  0  0
   23.9658   -9.3234  -18.1866 O   0  0  0  0  0  0  0  0  0  0  0  0
   22.4655  -10.5485  -16.9577 N   0  0  0  0  0  0  0  0  0  0  0  0
   21.4162   -9.5527  -17.0447 C   0  0  1  0  0  0  0  0  0  0  0  0
   20.0486  -10.1730  -17.0212 C   0  0  0  0  0  0  0  0  0  0  0  0
   19.0623   -9.0870  -17.2582 C   0  0  0  0  0  0  0  0  0  0  0  0
   19.3907   -8.1674  -18.0494 O   0  0  0  0  0  0  0  0  0  0  0  0
   21.6214   -8.4969  -16.0575 C   0  0  0  0  0  0  0  0  0  0  0  0
   22.0315   -8.8057  -14.9086 O   0  0  0  0  0  0  0  0  0  0  0  0
   17.8118   -9.0307  -16.6618 O   0  0  0  0  0  0  0  0  0  0  0  0
   22.8009   -3.8569  -15.1246 C   0  0  0  0  0  0  0  0  0  0  0  0
   22.4623   -4.9860  -16.0590 C   0  0  1  0  0  0  0  0  0  0  0  0
   23.6601   -5.4897  -16.8194 C   0  0  0  0  0  0  0  0  0  0  0  0
   21.7407   -6.1126  -15.3346 C   0  0  2  0  0  0  0  0  0  0  0  0
   21.3846   -7.1143  -16.3092 N   0  0  0  0  0  0  0  0  0  0  0  0
   20.5680   -5.6226  -14.5771 C   0  0  0  0  0  0  0  0  0  0  0  0
   19.4668   -5.4717  -15.1680 O   0  0  0  0  0  0  0  0  0  0  0  0
   20.5885   -5.3074  -13.2264 O   0  0  0  0  0  0  0  0  0  0  0  0
  2  1  1  6
  2  3  1  0
  4  8  1  0
  4  3  1  0
  5  4  2  0
  6  5  1  0
  6  7  1  0
  7  8  2  0
  9  2  1  0
  9 11  1  0
 10  9  2  0
 12 11  1  0
 12 13  1  1
 14 13  1  0
 14 15  2  0
 16 12  1  0
 16 17  2  0
 18 14  1  0
 20 19  1  1
 20 21  1  0
 20 22  1  0
 22 23  1  6
 22 24  1  0
 23 16  1  0
 24 25  2  0
 24 26  1  0
M  END
$$$$
