HDV.pdb
     RDKit          3D

 26 26  0  0  1  0  0  0  0  0999 V2000
   16.3773  -10.3252  -17.1476 N   0  0  0  0  0  0  0  0  0  0  0  0
   16.7012   -9.9049  -15.7749 C   0  0  1  0  0  0  0  0  0  0  0  0
   17.6304  -10.9332  -15.2229 C   0  0  0  0  0  0  0  0  0  0  0  0
   16.8743  -12.2094  -15.0543 C   0  0  0  0  0  0  0  0  0  0  0  0
   16.9626  -13.3854  -15.7667 C   0  0  0  0  0  0  0  0  0  0  0  0
   16.0986  -14.3003  -15.2940 N   0  0  0  0  0  0  0  0  0  0  0  0
   15.4542  -13.7094  -14.2756 C   0  0  0  0  0  0  0  0  0  0  0  0
   15.9081  -12.4540  -14.1187 N   0  0  0  0  0  0  0  0  0  0  0  0
   17.2881   -8.5452  -15.7943 C   0  0  0  0  0  0  0  0  0  0  0  0
   18.2514   -8.3004  -16.5563 O   0  0  0  0  0  0  0  0  0  0  0  0
   16.7958   -7.4995  -14.9746 N   0  0  0  0  0  0  0  0  0  0  0  0
   17.3852   -6.1760  -14.9457 C   0  0  1  0  0  0  0  0  0  0  0  0
   16.3818   -5.1213  -14.5759 C   0  0  0  0  0  0  0  0  0  0  0  0
   15.3507   -5.0924  -15.6456 C   0  0  0  0  0  0  0  0  0  0  0  0
   15.6461   -4.5129  -16.7210 O   0  0  0  0  0  0  0  0  0  0  0  0
   18.6007   -6.1681  -14.1370 C   0  0  0  0  0  0  0  0  0  0  0  0
   18.5793   -6.6990  -12.9963 O   0  0  0  0  0  0  0  0  0  0  0  0
   14.0926   -5.6630  -15.5264 O   0  0  0  0  0  0  0  0  0  0  0  0
   22.3024   -6.4320  -15.7467 C   0  0  0  0  0  0  0  0  0  0  0  0
   21.9155   -6.7586  -14.3303 C   0  0  1  0  0  0  0  0  0  0  0  0
   23.1066   -7.0355  -13.4519 C   0  0  0  0  0  0  0  0  0  0  0  0
   21.0149   -5.6859  -13.7362 C   0  0  2  0  0  0  0  0  0  0  0  0
   19.8333   -5.5897  -14.5576 N   0  0  0  0  0  0  0  0  0  0  0  0
   21.7134   -4.3886  -13.6011 C   0  0  0  0  0  0  0  0  0  0  0  0
   21.4806   -3.4696  -14.4291 O   0  0  0  0  0  0  0  0  0  0  0  0
   22.6318   -4.0979  -12.6029 O   0  0  0  0  0  0  0  0  0  0  0  0
  2  1  1  6
  2  3  1  0
  4  8  1  0
  4  3  1  0
  5  4  2  0
  6  5  1  0
  6  7  1  0
  7  8  2  0
  9  2  1  0
  9 11  1  0
 10  9  2  0
 12 11  1  0
 12 13  1  1
 14 13  1  0
 14 15  2  0
 16 12  1  0
 16 17  2  0
 18 14  1  0
 20 19  1  6
 20 21  1  0
 20 22  1  0
 22 23  1  6
 22 24  1  0
 23 16  1  0
 24 25  2  0
 24 26  1  0
M  END
$$$$
