HDV.pdb
     RDKit          3D

 26 26  0  0  1  0  0  0  0  0999 V2000
   23.8927  -17.8646  -18.7140 N   0  0  0  0  0  0  0  0  0  0  0  0
   24.1280  -16.9369  -17.5960 C   0  0  1  0  0  0  0  0  0  0  0  0
   23.3312  -15.7097  -17.8864 C   0  0  0  0  0  0  0  0  0  0  0  0
   22.9397  -15.7320  -19.3269 C   0  0  0  0  0  0  0  0  0  0  0  0
   23.5366  -15.1258  -20.4107 C   0  0  0  0  0  0  0  0  0  0  0  0
   22.8642  -15.3948  -21.5431 N   0  0  0  0  0  0  0  0  0  0  0  0
   21.8331  -16.1757  -21.1847 C   0  0  0  0  0  0  0  0  0  0  0  0
   21.8640  -16.3875  -19.8577 N   0  0  0  0  0  0  0  0  0  0  0  0
   23.7475  -17.5857  -16.3201 C   0  0  0  0  0  0  0  0  0  0  0  0
   23.8875  -16.9596  -15.2445 O   0  0  0  0  0  0  0  0  0  0  0  0
   23.2254  -18.9019  -16.2696 N   0  0  0  0  0  0  0  0  0  0  0  0
   22.8463  -19.5532  -15.0318 C   0  0  1  0  0  0  0  0  0  0  0  0
   21.4444  -20.0894  -15.0848 C   0  0  0  0  0  0  0  0  0  0  0  0
   20.8189  -19.8337  -13.7613 C   0  0  0  0  0  0  0  0  0  0  0  0
   21.5383  -19.3172  -12.8695 O   0  0  0  0  0  0  0  0  0  0  0  0
   23.8551  -20.5290  -14.6301 C   0  0  0  0  0  0  0  0  0  0  0  0
   24.1161  -21.4901  -15.3993 O   0  0  0  0  0  0  0  0  0  0  0  0
   19.4990  -20.1297  -13.4565 O   0  0  0  0  0  0  0  0  0  0  0  0
   27.1383  -19.7627  -12.3240 C   0  0  0  0  0  0  0  0  0  0  0  0
   26.3782  -20.9921  -11.9071 C   0  0  1  0  0  0  0  0  0  0  0  0
   25.5938  -20.7876  -10.6384 C   0  0  0  0  0  0  0  0  0  0  0  0
   25.4999  -21.5140  -13.0344 C   0  0  2  0  0  0  0  0  0  0  0  0
   24.5786  -20.4677  -13.4039 N   0  0  0  0  0  0  0  0  0  0  0  0
   24.8077  -22.7676  -12.6624 C   0  0  0  0  0  0  0  0  0  0  0  0
   23.5964  -22.7299  -12.3218 O   0  0  0  0  0  0  0  0  0  0  0  0
   25.4077  -24.0184  -12.6600 O   0  0  0  0  0  0  0  0  0  0  0  0
  2  1  1  6
  2  3  1  0
  4  8  1  0
  4  3  1  0
  5  4  2  0
  6  5  1  0
  6  7  1  0
  7  8  2  0
  9  2  1  0
  9 11  1  0
 10  9  2  0
 12 11  1  0
 12 13  1  6
 14 13  1  0
 14 15  2  0
 16 12  1  0
 16 17  2  0
 18 14  1  0
 20 19  1  6
 20 21  1  0
 20 22  1  0
 22 23  1  1
 22 24  1  0
 23 16  1  0
 24 25  2  0
 24 26  1  0
M  END
$$$$
