HDV.pdb
     RDKit          3D

 26 26  0  0  1  0  0  0  0  0999 V2000
   19.3431  -13.2693  -18.3394 N   0  0  0  0  0  0  0  0  0  0  0  0
   18.8065  -12.3527  -17.3206 C   0  0  1  0  0  0  0  0  0  0  0  0
   18.9319  -13.0532  -16.0095 C   0  0  0  0  0  0  0  0  0  0  0  0
   17.8246  -14.0485  -15.8993 C   0  0  0  0  0  0  0  0  0  0  0  0
   16.7980  -14.3236  -16.7760 C   0  0  0  0  0  0  0  0  0  0  0  0
   16.0045  -15.2973  -16.2975 N   0  0  0  0  0  0  0  0  0  0  0  0
   16.5235  -15.6478  -15.1103 C   0  0  0  0  0  0  0  0  0  0  0  0
   17.6164  -14.9076  -14.8566 N   0  0  0  0  0  0  0  0  0  0  0  0
   19.5453  -11.0698  -17.3643 C   0  0  0  0  0  0  0  0  0  0  0  0
   20.7976  -11.0797  -17.3766 O   0  0  0  0  0  0  0  0  0  0  0  0
   18.8819   -9.8181  -17.3932 N   0  0  0  0  0  0  0  0  0  0  0  0
   19.5862   -8.5517  -17.3824 C   0  0  1  0  0  0  0  0  0  0  0  0
   18.7488   -7.4374  -17.9417 C   0  0  0  0  0  0  0  0  0  0  0  0
   19.5843   -6.2085  -17.9417 C   0  0  0  0  0  0  0  0  0  0  0  0
   20.7220   -6.2802  -18.4710 O   0  0  0  0  0  0  0  0  0  0  0  0
   20.1501   -8.2841  -16.0626 C   0  0  0  0  0  0  0  0  0  0  0  0
   19.4382   -8.4779  -15.0432 O   0  0  0  0  0  0  0  0  0  0  0  0
   19.1843   -4.9982  -17.3961 O   0  0  0  0  0  0  0  0  0  0  0  0
   22.8204   -9.8887  -14.3124 C   0  0  0  0  0  0  0  0  0  0  0  0
   23.1773   -8.4280  -14.2706 C   0  0  1  0  0  0  0  0  0  0  0  0
   24.3081   -8.0796  -15.2014 C   0  0  0  0  0  0  0  0  0  0  0  0
   21.9591   -7.5488  -14.5106 C   0  0  2  0  0  0  0  0  0  0  0  0
   21.4759   -7.8095  -15.8443 N   0  0  0  0  0  0  0  0  0  0  0  0
   22.2574   -6.1165  -14.2901 C   0  0  0  0  0  0  0  0  0  0  0  0
   22.3438   -5.3416  -15.2783 O   0  0  0  0  0  0  0  0  0  0  0  0
   22.4548   -5.5445  -13.0418 O   0  0  0  0  0  0  0  0  0  0  0  0
  2  1  1  6
  2  3  1  0
  4  8  1  0
  4  3  1  0
  5  4  2  0
  6  5  1  0
  6  7  1  0
  7  8  2  0
  9  2  1  0
  9 11  1  0
 10  9  2  0
 12 11  1  0
 12 13  1  1
 14 13  1  0
 14 15  2  0
 16 12  1  0
 16 17  2  0
 18 14  1  0
 20 19  1  6
 20 21  1  0
 20 22  1  0
 22 23  1  6
 22 24  1  0
 23 16  1  0
 24 25  2  0
 24 26  1  0
M  END
$$$$
