HDV.pdb
     RDKit          3D

 26 26  0  0  1  0  0  0  0  0999 V2000
   24.1497  -34.8474   -5.6789 N   0  0  0  0  0  0  0  0  0  0  0  0
   24.9221  -34.0291   -4.7304 C   0  0  1  0  0  0  0  0  0  0  0  0
   24.7742  -32.6120   -5.1720 C   0  0  0  0  0  0  0  0  0  0  0  0
   25.4862  -32.4474   -6.4739 C   0  0  0  0  0  0  0  0  0  0  0  0
   26.7539  -32.8437   -6.8399 C   0  0  0  0  0  0  0  0  0  0  0  0
   27.0167  -32.5001   -8.1126 N   0  0  0  0  0  0  0  0  0  0  0  0
   25.9144  -31.8816   -8.5642 C   0  0  0  0  0  0  0  0  0  0  0  0
   24.9863  -31.8416   -7.5928 N   0  0  0  0  0  0  0  0  0  0  0  0
   24.4283  -34.2608   -3.3534 C   0  0  0  0  0  0  0  0  0  0  0  0
   23.3696  -34.9068   -3.1788 O   0  0  0  0  0  0  0  0  0  0  0  0
   25.1155  -33.7743   -2.2138 N   0  0  0  0  0  0  0  0  0  0  0  0
   24.9926  -34.3770   -0.9017 C   0  0  1  0  0  0  0  0  0  0  0  0
   25.2128  -35.8621   -0.9419 C   0  0  0  0  0  0  0  0  0  0  0  0
   24.7893  -36.4113    0.3724 C   0  0  0  0  0  0  0  0  0  0  0  0
   23.7006  -36.0023    0.8488 O   0  0  0  0  0  0  0  0  0  0  0  0
   25.8154  -33.6671    0.0732 C   0  0  0  0  0  0  0  0  0  0  0  0
   27.0471  -33.5345   -0.1477 O   0  0  0  0  0  0  0  0  0  0  0  0
   25.5201  -37.3407    1.0969 O   0  0  0  0  0  0  0  0  0  0  0  0
   24.4906  -30.4179    2.1168 C   0  0  0  0  0  0  0  0  0  0  0  0
   25.2490  -31.3992    2.9680 C   0  0  1  0  0  0  0  0  0  0  0  0
   24.3491  -32.2071    3.8648 C   0  0  0  0  0  0  0  0  0  0  0  0
   26.1504  -32.2891    2.1252 C   0  0  2  0  0  0  0  0  0  0  0  0
   25.3111  -33.1032    1.2809 N   0  0  0  0  0  0  0  0  0  0  0  0
   27.0648  -33.0999    2.9592 C   0  0  0  0  0  0  0  0  0  0  0  0
   26.8035  -34.3138    3.1660 O   0  0  0  0  0  0  0  0  0  0  0  0
   28.2222  -32.6118    3.5479 O   0  0  0  0  0  0  0  0  0  0  0  0
  2  1  1  6
  2  3  1  0
  4  8  1  0
  4  3  1  0
  5  4  2  0
  6  5  1  0
  6  7  1  0
  7  8  2  0
  9  2  1  0
  9 11  1  0
 10  9  2  0
 12 11  1  0
 12 13  1  6
 14 13  1  0
 14 15  2  0
 16 12  1  0
 16 17  2  0
 18 14  1  0
 20 19  1  6
 20 21  1  0
 20 22  1  0
 22 23  1  1
 22 24  1  0
 23 16  1  0
 24 25  2  0
 24 26  1  0
M  END
$$$$
