HDV.pdb
     RDKit          3D

 26 26  0  0  1  0  0  0  0  0999 V2000
   19.4669  -11.6526  -17.6198 N   0  0  0  0  0  0  0  0  0  0  0  0
   18.6296  -11.3764  -16.4415 C   0  0  1  0  0  0  0  0  0  0  0  0
   18.8065  -12.5310  -15.5135 C   0  0  0  0  0  0  0  0  0  0  0  0
   18.3164  -13.7644  -16.1972 C   0  0  0  0  0  0  0  0  0  0  0  0
   17.0262  -14.1932  -16.4206 C   0  0  0  0  0  0  0  0  0  0  0  0
   17.0161  -15.3676  -17.0744 N   0  0  0  0  0  0  0  0  0  0  0  0
   18.3033  -15.6931  -17.2709 C   0  0  0  0  0  0  0  0  0  0  0  0
   19.0966  -14.7411  -16.7502 N   0  0  0  0  0  0  0  0  0  0  0  0
   19.0267  -10.0832  -15.8386 C   0  0  0  0  0  0  0  0  0  0  0  0
   18.4901   -9.7105  -14.7702 O   0  0  0  0  0  0  0  0  0  0  0  0
   20.0013   -9.2425  -16.4313 N   0  0  0  0  0  0  0  0  0  0  0  0
   20.4028   -7.9739  -15.8572 C   0  0  1  0  0  0  0  0  0  0  0  0
   21.8885   -7.8945  -15.6519 C   0  0  0  0  0  0  0  0  0  0  0  0
   22.2482   -8.8893  -14.6083 C   0  0  0  0  0  0  0  0  0  0  0  0
   21.8307   -8.6826  -13.4410 O   0  0  0  0  0  0  0  0  0  0  0  0
   19.8335   -6.8610  -16.6113 C   0  0  0  0  0  0  0  0  0  0  0  0
   19.8325   -6.9118  -17.8686 O   0  0  0  0  0  0  0  0  0  0  0  0
   23.0113  -10.0223  -14.8462 O   0  0  0  0  0  0  0  0  0  0  0  0
   16.7666   -3.3102  -17.4363 C   0  0  0  0  0  0  0  0  0  0  0  0
   17.3059   -4.5445  -16.7667 C   0  0  1  0  0  0  0  0  0  0  0  0
   16.6929   -5.8109  -17.3027 C   0  0  0  0  0  0  0  0  0  0  0  0
   18.8257   -4.5887  -16.8185 C   0  0  2  0  0  0  0  0  0  0  0  0
   19.2681   -5.6988  -16.0109 N   0  0  0  0  0  0  0  0  0  0  0  0
   19.4321   -3.3075  -16.3944 C   0  0  0  0  0  0  0  0  0  0  0  0
   19.6382   -3.0937  -15.1711 O   0  0  0  0  0  0  0  0  0  0  0  0
   19.8023   -2.2939  -17.2660 O   0  0  0  0  0  0  0  0  0  0  0  0
  2  1  1  6
  2  3  1  0
  4  8  1  0
  4  3  1  0
  5  4  2  0
  6  5  1  0
  6  7  1  0
  7  8  2  0
  9  2  1  0
  9 11  1  0
 10  9  2  0
 12 11  1  0
 12 13  1  6
 14 13  1  0
 14 15  2  0
 16 12  1  0
 16 17  2  0
 18 14  1  0
 20 19  1  6
 20 21  1  0
 20 22  1  0
 22 23  1  1
 22 24  1  0
 23 16  1  0
 24 25  2  0
 24 26  1  0
M  END
$$$$
