HDV.pdb
     RDKit          3D

 26 26  0  0  1  0  0  0  0  0999 V2000
   41.8480  -10.7400   -9.1581 N   0  0  0  0  0  0  0  0  0  0  0  0
   42.0102   -9.2911   -9.3588 C   0  0  1  0  0  0  0  0  0  0  0  0
   42.8017   -9.1209  -10.6117 C   0  0  0  0  0  0  0  0  0  0  0  0
   44.1956   -9.5906  -10.3560 C   0  0  0  0  0  0  0  0  0  0  0  0
   44.9619  -10.4958  -11.0571 C   0  0  0  0  0  0  0  0  0  0  0  0
   46.1720  -10.6424  -10.4906 N   0  0  0  0  0  0  0  0  0  0  0  0
   46.1820   -9.8290   -9.4230 C   0  0  0  0  0  0  0  0  0  0  0  0
   45.0030   -9.1904   -9.3280 N   0  0  0  0  0  0  0  0  0  0  0  0
   40.6796   -8.6437   -9.4222 C   0  0  0  0  0  0  0  0  0  0  0  0
   39.7963   -9.1224  -10.1700 O   0  0  0  0  0  0  0  0  0  0  0  0
   40.3646   -7.4910   -8.6608 N   0  0  0  0  0  0  0  0  0  0  0  0
   39.0706   -6.8408   -8.7127 C   0  0  1  0  0  0  0  0  0  0  0  0
   38.4317   -6.7504   -7.3565 C   0  0  0  0  0  0  0  0  0  0  0  0
   37.1037   -6.1068   -7.5313 C   0  0  0  0  0  0  0  0  0  0  0  0
   36.5631   -6.1896   -8.6628 O   0  0  0  0  0  0  0  0  0  0  0  0
   39.1573   -5.5717   -9.4291 C   0  0  0  0  0  0  0  0  0  0  0  0
   40.0999   -4.7821   -9.1617 O   0  0  0  0  0  0  0  0  0  0  0  0
   36.4330   -5.4261   -6.5265 O   0  0  0  0  0  0  0  0  0  0  0  0
   36.6651   -4.6136  -12.7672 C   0  0  0  0  0  0  0  0  0  0  0  0
   38.0636   -4.0946  -12.5734 C   0  0  1  0  0  0  0  0  0  0  0  0
   38.3404   -2.8550  -13.3817 C   0  0  0  0  0  0  0  0  0  0  0  0
   38.3835   -3.8894  -11.1002 C   0  0  2  0  0  0  0  0  0  0  0  0
   38.2308   -5.1569  -10.4292 N   0  0  0  0  0  0  0  0  0  0  0  0
   37.5492   -2.8281  -10.4947 C   0  0  0  0  0  0  0  0  0  0  0  0
   37.7898   -1.6218  -10.7619 O   0  0  0  0  0  0  0  0  0  0  0  0
   36.4910   -3.0665   -9.6300 O   0  0  0  0  0  0  0  0  0  0  0  0
  2  1  1  6
  2  3  1  0
  4  8  1  0
  4  3  1  0
  5  4  2  0
  6  5  1  0
  6  7  1  0
  7  8  2  0
  9  2  1  0
  9 11  1  0
 10  9  2  0
 12 11  1  0
 12 13  1  1
 14 13  1  0
 14 15  2  0
 16 12  1  0
 16 17  2  0
 18 14  1  0
 20 19  1  1
 20 21  1  0
 20 22  1  0
 22 23  1  1
 22 24  1  0
 23 16  1  0
 24 25  2  0
 24 26  1  0
M  END
$$$$
