HDV.pdb
     RDKit          3D

 26 26  0  0  1  0  0  0  0  0999 V2000
   21.6288   -6.0173  -14.1657 N   0  0  0  0  0  0  0  0  0  0  0  0
   22.1693   -6.5816  -15.4128 C   0  0  1  0  0  0  0  0  0  0  0  0
   23.4559   -5.8746  -15.6774 C   0  0  0  0  0  0  0  0  0  0  0  0
   23.1456   -4.5202  -16.2236 C   0  0  0  0  0  0  0  0  0  0  0  0
   21.9278   -3.9507  -16.5254 C   0  0  0  0  0  0  0  0  0  0  0  0
   22.0847   -2.7037  -17.0018 N   0  0  0  0  0  0  0  0  0  0  0  0
   23.4069   -2.4726  -17.0058 C   0  0  0  0  0  0  0  0  0  0  0  0
   24.0578   -3.5531  -16.5416 N   0  0  0  0  0  0  0  0  0  0  0  0
   22.3329   -8.0466  -15.2683 C   0  0  0  0  0  0  0  0  0  0  0  0
   22.4053   -8.5487  -14.1232 O   0  0  0  0  0  0  0  0  0  0  0  0
   22.4115   -8.9108  -16.3884 N   0  0  0  0  0  0  0  0  0  0  0  0
   22.4479  -10.3546  -16.2696 C   0  0  1  0  0  0  0  0  0  0  0  0
   21.1235  -10.9799  -16.6022 C   0  0  0  0  0  0  0  0  0  0  0  0
   21.2580  -12.4454  -16.3961 C   0  0  0  0  0  0  0  0  0  0  0  0
   21.7933  -12.8344  -15.3276 O   0  0  0  0  0  0  0  0  0  0  0  0
   23.5819  -10.9062  -17.0052 C   0  0  0  0  0  0  0  0  0  0  0  0
   23.8666  -10.4313  -18.1352 O   0  0  0  0  0  0  0  0  0  0  0  0
   20.8307  -13.3996  -17.3069 O   0  0  0  0  0  0  0  0  0  0  0  0
   27.1172  -11.1052  -15.8000 C   0  0  0  0  0  0  0  0  0  0  0  0
   26.7395  -12.4700  -16.3074 C   0  0  1  0  0  0  0  0  0  0  0  0
   26.4975  -13.4564  -15.1960 C   0  0  0  0  0  0  0  0  0  0  0  0
   25.5606  -12.4022  -17.2668 C   0  0  2  0  0  0  0  0  0  0  0  0
   24.4044  -11.9655  -16.5234 N   0  0  0  0  0  0  0  0  0  0  0  0
   25.3324  -13.6912  -17.9562 C   0  0  0  0  0  0  0  0  0  0  0  0
   24.4260  -14.4622  -17.5458 O   0  0  0  0  0  0  0  0  0  0  0  0
   26.0613  -14.1288  -19.0524 O   0  0  0  0  0  0  0  0  0  0  0  0
  2  1  1  1
  2  3  1  0
  4  8  1  0
  4  3  1  0
  5  4  2  0
  6  5  1  0
  6  7  1  0
  7  8  2  0
  9  2  1  0
  9 11  1  0
 10  9  2  0
 12 11  1  0
 12 13  1  6
 14 13  1  0
 14 15  2  0
 16 12  1  0
 16 17  2  0
 18 14  1  0
 20 19  1  1
 20 21  1  0
 20 22  1  0
 22 23  1  1
 22 24  1  0
 23 16  1  0
 24 25  2  0
 24 26  1  0
M  END
$$$$
