HDV.pdb
     RDKit          3D

 26 26  0  0  1  0  0  0  0  0999 V2000
   19.5093  -15.7620  -18.1568 N   0  0  0  0  0  0  0  0  0  0  0  0
   18.6313  -14.7374  -17.5694 C   0  0  1  0  0  0  0  0  0  0  0  0
   18.2756  -15.2149  -16.2016 C   0  0  0  0  0  0  0  0  0  0  0  0
   17.2160  -16.2591  -16.3278 C   0  0  0  0  0  0  0  0  0  0  0  0
   16.5911  -16.7472  -17.4545 C   0  0  0  0  0  0  0  0  0  0  0  0
   15.6859  -17.6875  -17.1334 N   0  0  0  0  0  0  0  0  0  0  0  0
   15.7302  -17.8029  -15.7969 C   0  0  0  0  0  0  0  0  0  0  0  0
   16.6436  -16.9523  -15.2980 N   0  0  0  0  0  0  0  0  0  0  0  0
   19.3251  -13.4289  -17.5634 C   0  0  0  0  0  0  0  0  0  0  0  0
   20.5761  -13.3948  -17.5141 O   0  0  0  0  0  0  0  0  0  0  0  0
   18.6197  -12.2010  -17.6121 N   0  0  0  0  0  0  0  0  0  0  0  0
   19.2813  -10.9134  -17.6785 C   0  0  1  0  0  0  0  0  0  0  0  0
   18.4389   -9.8833  -18.3749 C   0  0  0  0  0  0  0  0  0  0  0  0
   19.2284   -8.6256  -18.4311 C   0  0  0  0  0  0  0  0  0  0  0  0
   18.7063   -7.5905  -17.9459 O   0  0  0  0  0  0  0  0  0  0  0  0
   19.7662  -10.5120  -16.3612 C   0  0  0  0  0  0  0  0  0  0  0  0
   19.0604  -10.7582  -15.3491 O   0  0  0  0  0  0  0  0  0  0  0  0
   20.4967   -8.5295  -18.9832 O   0  0  0  0  0  0  0  0  0  0  0  0
   23.8156   -9.6529  -15.5929 C   0  0  0  0  0  0  0  0  0  0  0  0
   22.8142  -10.1601  -14.5916 C   0  0  1  0  0  0  0  0  0  0  0  0
   23.2860  -10.0079  -13.1701 C   0  0  0  0  0  0  0  0  0  0  0  0
   21.4461   -9.5284  -14.8016 C   0  0  2  0  0  0  0  0  0  0  0  0
   21.0071   -9.8477  -16.1378 N   0  0  0  0  0  0  0  0  0  0  0  0
   21.4641   -8.0708  -14.5485 C   0  0  0  0  0  0  0  0  0  0  0  0
   21.6078   -7.2754  -15.5135 O   0  0  0  0  0  0  0  0  0  0  0  0
   21.3307   -7.4958  -13.2931 O   0  0  0  0  0  0  0  0  0  0  0  0
  2  1  1  1
  2  3  1  0
  4  8  1  0
  4  3  1  0
  5  4  2  0
  6  5  1  0
  6  7  1  0
  7  8  2  0
  9  2  1  0
  9 11  1  0
 10  9  2  0
 12 11  1  0
 12 13  1  1
 14 13  1  0
 14 15  2  0
 16 12  1  0
 16 17  2  0
 18 14  1  0
 20 19  1  6
 20 21  1  0
 20 22  1  0
 22 23  1  6
 22 24  1  0
 23 16  1  0
 24 25  2  0
 24 26  1  0
M  END
$$$$
