EEE.pdb
     RDKit          3D

 28 27  0  0  1  0  0  0  0  0999 V2000
   12.9865  -16.8388   15.3883 N   0  0  0  0  0  0  0  0  0  0  0  0
   14.0169  -16.6726   16.3527 C   0  0  1  0  0  0  0  0  0  0  0  0
   15.3134  -16.1115   15.8718 C   0  0  0  0  0  0  0  0  0  0  0  0
   15.2129  -15.0709   14.8216 C   0  0  0  0  0  0  0  0  0  0  0  0
   16.5030  -14.5901   14.3084 C   0  0  0  0  0  0  0  0  0  0  0  0
   17.1817  -15.3779   13.5939 O   0  0  0  0  0  0  0  0  0  0  0  0
   13.5361  -15.8786   17.5059 C   0  0  0  0  0  0  0  0  0  0  0  0
   14.3112  -15.4887   18.4300 O   0  0  0  0  0  0  0  0  0  0  0  0
   17.0187  -13.3405   14.5586 O   0  0  0  0  0  0  0  0  0  0  0  0
   12.1935  -15.5241   17.6196 N   0  0  0  0  0  0  0  0  0  0  0  0
   11.6605  -14.7798   18.7666 C   0  0  1  0  0  0  0  0  0  0  0  0
   10.3175  -14.2313   18.4982 C   0  0  0  0  0  0  0  0  0  0  0  0
    9.8017  -13.4558   19.6819 C   0  0  0  0  0  0  0  0  0  0  0  0
    8.4539  -12.9017   19.4013 C   0  0  0  0  0  0  0  0  0  0  0  0
    7.8523  -13.1404   18.3367 O   0  0  0  0  0  0  0  0  0  0  0  0
   11.7558  -15.7251   19.9039 C   0  0  0  0  0  0  0  0  0  0  0  0
   11.6737  -16.9726   19.7903 O   0  0  0  0  0  0  0  0  0  0  0  0
    7.7957  -12.0769   20.3335 O   0  0  0  0  0  0  0  0  0  0  0  0
   11.9516  -15.2684   21.2282 N   0  0  0  0  0  0  0  0  0  0  0  0
   12.6627  -16.0397   22.2364 C   0  0  1  0  0  0  0  0  0  0  0  0
   14.0468  -15.5543   22.4602 C   0  0  0  0  0  0  0  0  0  0  0  0
   14.7278  -16.3743   23.5187 C   0  0  0  0  0  0  0  0  0  0  0  0
   16.1409  -15.8866   23.6912 C   0  0  0  0  0  0  0  0  0  0  0  0
   16.9436  -16.5385   24.4179 O   0  0  0  0  0  0  0  0  0  0  0  0
   11.9021  -15.9173   23.4988 C   0  0  0  0  0  0  0  0  0  0  0  0
   12.0525  -16.6005   24.5326 O   0  0  0  0  0  0  0  0  0  0  0  0
   16.6145  -14.7343   23.0815 O   0  0  0  0  0  0  0  0  0  0  0  0
   10.8956  -14.9201   23.5439 O   0  0  0  0  0  0  0  0  0  0  0  0
  2  1  1  6
  2  7  1  0
  2  3  1  0
  3  4  1  0
  4  5  1  0
  5  6  2  0
  7  8  2  0
  9  5  1  0
 10 11  1  0
 10  7  1  0
 12 13  1  0
 11 12  1  6
 13 14  1  0
 14 15  2  0
 14 18  1  0
 16 17  2  0
 16 11  1  0
 19 16  1  0
 20 19  1  0
 20 25  1  0
 20 21  1  1
 22 21  1  0
 23 22  1  0
 24 23  2  0
 25 28  1  0
 26 25  2  0
 27 23  1  0
M  END
$$$$
