EEE.pdb
     RDKit          3D

 28 27  0  0  1  0  0  0  0  0999 V2000
    8.8584  -16.5934   18.6675 N   0  0  0  0  0  0  0  0  0  0  0  0
    8.6563  -17.9997   18.6378 C   0  0  1  0  0  0  0  0  0  0  0  0
    7.7179  -18.5296   17.6055 C   0  0  0  0  0  0  0  0  0  0  0  0
    7.9500  -18.0534   16.2215 C   0  0  0  0  0  0  0  0  0  0  0  0
    7.0967  -18.6829   15.2046 C   0  0  0  0  0  0  0  0  0  0  0  0
    7.0030  -19.9410   15.2129 O   0  0  0  0  0  0  0  0  0  0  0  0
    9.9482  -18.7158   18.5405 C   0  0  0  0  0  0  0  0  0  0  0  0
   10.0251  -19.9808   18.5666 O   0  0  0  0  0  0  0  0  0  0  0  0
    6.3975  -17.9909   14.2441 O   0  0  0  0  0  0  0  0  0  0  0  0
   11.1458  -18.0153   18.4137 N   0  0  0  0  0  0  0  0  0  0  0  0
   12.4515  -18.6793   18.3235 C   0  0  1  0  0  0  0  0  0  0  0  0
   13.1147  -18.4288   17.0298 C   0  0  0  0  0  0  0  0  0  0  0  0
   14.4441  -19.1329   16.9563 C   0  0  0  0  0  0  0  0  0  0  0  0
   15.1449  -18.8036   15.6903 C   0  0  0  0  0  0  0  0  0  0  0  0
   15.1740  -19.5950   14.7285 O   0  0  0  0  0  0  0  0  0  0  0  0
   13.1883  -18.2224   19.5254 C   0  0  0  0  0  0  0  0  0  0  0  0
   13.4801  -17.0237   19.7579 O   0  0  0  0  0  0  0  0  0  0  0  0
   15.8109  -17.5742   15.5237 O   0  0  0  0  0  0  0  0  0  0  0  0
   13.6215  -19.1343   20.5159 N   0  0  0  0  0  0  0  0  0  0  0  0
   14.2660  -18.7164   21.7517 C   0  0  1  0  0  0  0  0  0  0  0  0
   13.9382  -19.6000   22.8976 C   0  0  0  0  0  0  0  0  0  0  0  0
   12.5234  -19.3739   23.3490 C   0  0  0  0  0  0  0  0  0  0  0  0
   12.1978  -20.3349   24.4602 C   0  0  0  0  0  0  0  0  0  0  0  0
   12.9144  -21.3622   24.6292 O   0  0  0  0  0  0  0  0  0  0  0  0
   15.7260  -18.7551   21.5191 C   0  0  0  0  0  0  0  0  0  0  0  0
   16.3118  -19.1998   20.5105 O   0  0  0  0  0  0  0  0  0  0  0  0
   11.1288  -20.1460   25.3236 O   0  0  0  0  0  0  0  0  0  0  0  0
   16.5506  -18.2328   22.5471 O   0  0  0  0  0  0  0  0  0  0  0  0
  2  1  1  6
  2  7  1  0
  2  3  1  0
  3  4  1  0
  4  5  1  0
  5  6  2  0
  7  8  2  0
  9  5  1  0
 10 11  1  0
 10  7  1  0
 12 13  1  0
 11 12  1  6
 13 14  1  0
 14 15  2  0
 14 18  1  0
 16 17  2  0
 16 11  1  0
 19 16  1  0
 20 19  1  0
 20 25  1  0
 20 21  1  1
 22 21  1  0
 23 22  1  0
 24 23  2  0
 25 28  1  0
 26 25  2  0
 27 23  1  0
M  END
$$$$
