EEE.pdb
     RDKit          3D

 28 27  0  0  1  0  0  0  0  0999 V2000
    5.1263  -21.9300   20.6088 N   0  0  0  0  0  0  0  0  0  0  0  0
    4.9149  -21.0803   21.7281 C   0  0  1  0  0  0  0  0  0  0  0  0
    4.0000  -21.5790   22.7965 C   0  0  0  0  0  0  0  0  0  0  0  0
    4.5491  -22.6459   23.6659 C   0  0  0  0  0  0  0  0  0  0  0  0
    3.5736  -23.2558   24.5798 C   0  0  0  0  0  0  0  0  0  0  0  0
    4.0009  -24.0899   25.4243 O   0  0  0  0  0  0  0  0  0  0  0  0
    6.2038  -20.6772   22.3345 C   0  0  0  0  0  0  0  0  0  0  0  0
    7.1089  -21.5166   22.6222 O   0  0  0  0  0  0  0  0  0  0  0  0
    2.2269  -22.9790   24.5719 O   0  0  0  0  0  0  0  0  0  0  0  0
    6.4743  -19.3395   22.6149 N   0  0  0  0  0  0  0  0  0  0  0  0
    7.7627  -18.8823   23.1486 C   0  0  1  0  0  0  0  0  0  0  0  0
    8.1432  -17.5570   22.6240 C   0  0  0  0  0  0  0  0  0  0  0  0
    9.5408  -17.5765   22.0628 C   0  0  0  0  0  0  0  0  0  0  0  0
    9.8786  -16.2698   21.4459 C   0  0  0  0  0  0  0  0  0  0  0  0
    9.6321  -15.1893   22.0152 O   0  0  0  0  0  0  0  0  0  0  0  0
    7.6130  -18.9749   24.6201 C   0  0  0  0  0  0  0  0  0  0  0  0
    6.6642  -18.4640   25.2640 O   0  0  0  0  0  0  0  0  0  0  0  0
   10.4955  -16.1974   20.1822 O   0  0  0  0  0  0  0  0  0  0  0  0
    8.5569  -19.6656   25.4154 N   0  0  0  0  0  0  0  0  0  0  0  0
    8.5258  -19.6577   26.8701 C   0  0  1  0  0  0  0  0  0  0  0  0
    8.7880  -20.9948   27.4573 C   0  0  0  0  0  0  0  0  0  0  0  0
    8.4014  -22.0789   26.4920 C   0  0  0  0  0  0  0  0  0  0  0  0
    8.8765  -23.4056   27.0199 C   0  0  0  0  0  0  0  0  0  0  0  0
    9.4817  -23.4577   28.1281 O   0  0  0  0  0  0  0  0  0  0  0  0
    9.5750  -18.7202   27.3256 C   0  0  0  0  0  0  0  0  0  0  0  0
    9.8131  -18.3774   28.5021 O   0  0  0  0  0  0  0  0  0  0  0  0
    8.6803  -24.5965   26.3364 O   0  0  0  0  0  0  0  0  0  0  0  0
   10.3997  -18.1490   26.3241 O   0  0  0  0  0  0  0  0  0  0  0  0
  2  1  1  6
  2  7  1  0
  2  3  1  0
  3  4  1  0
  4  5  1  0
  5  6  2  0
  7  8  2  0
  9  5  1  0
 10 11  1  0
 10  7  1  0
 12 13  1  0
 11 12  1  1
 13 14  1  0
 14 15  2  0
 14 18  1  0
 16 17  2  0
 16 11  1  0
 19 16  1  0
 20 19  1  0
 20 25  1  0
 20 21  1  1
 22 21  1  0
 23 22  1  0
 24 23  2  0
 25 28  1  0
 26 25  2  0
 27 23  1  0
M  END
$$$$
