EEE.pdb
     RDKit          3D

 28 27  0  0  1  0  0  0  0  0999 V2000
   11.9640  -16.9006   17.2172 N   0  0  0  0  0  0  0  0  0  0  0  0
   12.2466  -17.8215   18.2619 C   0  0  1  0  0  0  0  0  0  0  0  0
   13.2116  -18.9186   17.9580 C   0  0  0  0  0  0  0  0  0  0  0  0
   14.6094  -18.4938   17.7093 C   0  0  0  0  0  0  0  0  0  0  0  0
   15.5284  -19.5842   17.3553 C   0  0  0  0  0  0  0  0  0  0  0  0
   15.9964  -19.6014   16.1838 O   0  0  0  0  0  0  0  0  0  0  0  0
   12.6799  -17.1121   19.4868 C   0  0  0  0  0  0  0  0  0  0  0  0
   13.6433  -16.2882   19.4874 O   0  0  0  0  0  0  0  0  0  0  0  0
   15.9083  -20.5868   18.2159 O   0  0  0  0  0  0  0  0  0  0  0  0
   12.0344  -17.3260   20.7028 N   0  0  0  0  0  0  0  0  0  0  0  0
   12.3750  -16.5898   21.9258 C   0  0  1  0  0  0  0  0  0  0  0  0
   11.2394  -16.5152   22.8646 C   0  0  0  0  0  0  0  0  0  0  0  0
   11.6316  -15.8086   24.1355 C   0  0  0  0  0  0  0  0  0  0  0  0
   10.5154  -15.8259   25.1134 C   0  0  0  0  0  0  0  0  0  0  0  0
    9.4476  -16.4252   24.8834 O   0  0  0  0  0  0  0  0  0  0  0  0
   13.5935  -17.2591   22.4392 C   0  0  0  0  0  0  0  0  0  0  0  0
   13.7470  -18.5043   22.4815 O   0  0  0  0  0  0  0  0  0  0  0  0
   10.6184  -15.1602   26.3499 O   0  0  0  0  0  0  0  0  0  0  0  0
   14.6931  -16.5156   22.9277 N   0  0  0  0  0  0  0  0  0  0  0  0
   15.8436  -17.1310   23.5716 C   0  0  1  0  0  0  0  0  0  0  0  0
   17.1341  -16.6780   22.9962 C   0  0  0  0  0  0  0  0  0  0  0  0
   16.9042  -15.6163   21.9587 C   0  0  0  0  0  0  0  0  0  0  0  0
   18.2203  -15.2412   21.3330 C   0  0  0  0  0  0  0  0  0  0  0  0
   19.2812  -15.8094   21.7188 O   0  0  0  0  0  0  0  0  0  0  0  0
   15.7984  -16.7556   25.0014 C   0  0  0  0  0  0  0  0  0  0  0  0
   15.7418  -17.5315   25.9776 O   0  0  0  0  0  0  0  0  0  0  0  0
   18.3287  -14.2833   20.3357 O   0  0  0  0  0  0  0  0  0  0  0  0
   15.8220  -15.3698   25.2988 O   0  0  0  0  0  0  0  0  0  0  0  0
  2  1  1  6
  2  7  1  0
  2  3  1  0
  3  4  1  0
  4  5  1  0
  5  6  2  0
  7  8  2  0
  9  5  1  0
 10 11  1  0
 10  7  1  0
 12 13  1  0
 11 12  1  1
 13 14  1  0
 14 15  2  0
 14 18  1  0
 16 17  2  0
 16 11  1  0
 19 16  1  0
 20 19  1  0
 20 25  1  0
 20 21  1  6
 22 21  1  0
 23 22  1  0
 24 23  2  0
 25 28  1  0
 26 25  2  0
 27 23  1  0
M  END
$$$$
