EEE.pdb
     RDKit          3D

 28 27  0  0  1  0  0  0  0  0999 V2000
    9.8113  -18.4323   16.5116 N   0  0  0  0  0  0  0  0  0  0  0  0
   10.1624  -19.6247   17.2003 C   0  0  1  0  0  0  0  0  0  0  0  0
   11.5994  -20.0267   17.1736 C   0  0  0  0  0  0  0  0  0  0  0  0
   12.5783  -18.9174   17.2577 C   0  0  0  0  0  0  0  0  0  0  0  0
   13.9840  -19.3292   17.1428 C   0  0  0  0  0  0  0  0  0  0  0  0
   14.5493  -19.7845   18.1747 O   0  0  0  0  0  0  0  0  0  0  0  0
    9.6908  -19.5815   18.6028 C   0  0  0  0  0  0  0  0  0  0  0  0
    9.5816  -18.4955   19.2475 O   0  0  0  0  0  0  0  0  0  0  0  0
   14.7227  -19.2478   15.9861 O   0  0  0  0  0  0  0  0  0  0  0  0
    9.3432  -20.7505   19.2764 N   0  0  0  0  0  0  0  0  0  0  0  0
    8.7605  -20.7507   20.6233 C   0  0  1  0  0  0  0  0  0  0  0  0
    7.6680  -21.7330   20.7565 C   0  0  0  0  0  0  0  0  0  0  0  0
    7.1912  -21.8242   22.1823 C   0  0  0  0  0  0  0  0  0  0  0  0
    6.0653  -22.7838   22.3005 C   0  0  0  0  0  0  0  0  0  0  0  0
    6.2354  -23.9535   22.6943 O   0  0  0  0  0  0  0  0  0  0  0  0
    9.9156  -20.9433   21.5315 C   0  0  0  0  0  0  0  0  0  0  0  0
   10.8134  -21.8027   21.3549 O   0  0  0  0  0  0  0  0  0  0  0  0
    4.7492  -22.4084   21.9695 O   0  0  0  0  0  0  0  0  0  0  0  0
   10.0849  -20.1473   22.6884 N   0  0  0  0  0  0  0  0  0  0  0  0
   11.1830  -20.3324   23.6250 C   0  0  1  0  0  0  0  0  0  0  0  0
   12.1975  -19.2529   23.5409 C   0  0  0  0  0  0  0  0  0  0  0  0
   11.5326  -17.9061   23.5168 C   0  0  0  0  0  0  0  0  0  0  0  0
   12.5752  -16.8421   23.3039 C   0  0  0  0  0  0  0  0  0  0  0  0
   13.7882  -17.1719   23.1724 O   0  0  0  0  0  0  0  0  0  0  0  0
   10.6023  -20.3393   24.9851 C   0  0  0  0  0  0  0  0  0  0  0  0
    9.4422  -20.0079   25.3054 O   0  0  0  0  0  0  0  0  0  0  0  0
   12.2648  -15.4915   23.2451 O   0  0  0  0  0  0  0  0  0  0  0  0
   11.4486  -20.7672   26.0387 O   0  0  0  0  0  0  0  0  0  0  0  0
  2  1  1  1
  2  7  1  0
  2  3  1  0
  3  4  1  0
  4  5  1  0
  5  6  2  0
  7  8  2  0
  9  5  1  0
 10 11  1  0
 10  7  1  0
 12 13  1  0
 11 12  1  6
 13 14  1  0
 14 15  2  0
 14 18  1  0
 16 17  2  0
 16 11  1  0
 19 16  1  0
 20 19  1  0
 20 25  1  0
 20 21  1  1
 22 21  1  0
 23 22  1  0
 24 23  2  0
 25 28  1  0
 26 25  2  0
 27 23  1  0
M  END
$$$$
