EEE.pdb
     RDKit          3D

 28 27  0  0  1  0  0  0  0  0999 V2000
    6.8387  -17.3890   20.0564 N   0  0  0  0  0  0  0  0  0  0  0  0
    7.9015  -16.6484   19.4720 C   0  0  1  0  0  0  0  0  0  0  0  0
    7.9156  -15.1755   19.7122 C   0  0  0  0  0  0  0  0  0  0  0  0
    7.9959  -14.7570   21.1315 C   0  0  0  0  0  0  0  0  0  0  0  0
    7.9317  -13.3052   21.3478 C   0  0  0  0  0  0  0  0  0  0  0  0
    7.7962  -12.5654   20.3349 O   0  0  0  0  0  0  0  0  0  0  0  0
    9.2132  -17.2201   19.8514 C   0  0  0  0  0  0  0  0  0  0  0  0
    9.4081  -17.7847   20.9695 O   0  0  0  0  0  0  0  0  0  0  0  0
    8.0129  -12.7016   22.5804 O   0  0  0  0  0  0  0  0  0  0  0  0
   10.2985  -17.1590   18.9800 N   0  0  0  0  0  0  0  0  0  0  0  0
   11.6041  -17.7528   19.2907 C   0  0  1  0  0  0  0  0  0  0  0  0
   12.4659  -17.8567   18.0979 C   0  0  0  0  0  0  0  0  0  0  0  0
   13.7629  -18.5493   18.4243 C   0  0  0  0  0  0  0  0  0  0  0  0
   14.6418  -18.6111   17.2300 C   0  0  0  0  0  0  0  0  0  0  0  0
   14.7709  -19.6539   16.5607 O   0  0  0  0  0  0  0  0  0  0  0  0
   12.1362  -16.9284   20.4013 C   0  0  0  0  0  0  0  0  0  0  0  0
   12.3348  -15.6911   20.3260 O   0  0  0  0  0  0  0  0  0  0  0  0
   15.3711  -17.4852   16.8020 O   0  0  0  0  0  0  0  0  0  0  0  0
   12.4629  -17.4998   21.6531 N   0  0  0  0  0  0  0  0  0  0  0  0
   13.0343  -16.7335   22.7502 C   0  0  1  0  0  0  0  0  0  0  0  0
   12.9636  -17.4488   24.0482 C   0  0  0  0  0  0  0  0  0  0  0  0
   11.5393  -17.5565   24.5132 C   0  0  0  0  0  0  0  0  0  0  0  0
   11.4987  -18.3065   25.8172 C   0  0  0  0  0  0  0  0  0  0  0  0
   12.2286  -17.9308   26.7781 O   0  0  0  0  0  0  0  0  0  0  0  0
   14.4535  -16.4836   22.4175 C   0  0  0  0  0  0  0  0  0  0  0  0
   15.0797  -16.9231   21.4311 O   0  0  0  0  0  0  0  0  0  0  0  0
   10.6852  -19.4114   26.0198 O   0  0  0  0  0  0  0  0  0  0  0  0
   15.1829  -15.6582   23.3098 O   0  0  0  0  0  0  0  0  0  0  0  0
  2  1  1  1
  2  7  1  0
  2  3  1  0
  3  4  1  0
  4  5  1  0
  5  6  2  0
  7  8  2  0
  9  5  1  0
 10 11  1  0
 10  7  1  0
 12 13  1  0
 11 12  1  6
 13 14  1  0
 14 15  2  0
 14 18  1  0
 16 17  2  0
 16 11  1  0
 19 16  1  0
 20 19  1  0
 20 25  1  0
 20 21  1  1
 22 21  1  0
 23 22  1  0
 24 23  2  0
 25 28  1  0
 26 25  2  0
 27 23  1  0
M  END
$$$$
