EEE.pdb
     RDKit          3D

 28 27  0  0  1  0  0  0  0  0999 V2000
   15.3196  -16.2004   18.4309 N   0  0  0  0  0  0  0  0  0  0  0  0
   14.1591  -17.0152   18.3375 C   0  0  1  0  0  0  0  0  0  0  0  0
   13.4983  -17.1061   17.0024 C   0  0  0  0  0  0  0  0  0  0  0  0
   14.4105  -17.2342   15.8417 C   0  0  0  0  0  0  0  0  0  0  0  0
   13.7364  -17.3852   14.5450 C   0  0  0  0  0  0  0  0  0  0  0  0
   14.4456  -17.3257   13.5033 O   0  0  0  0  0  0  0  0  0  0  0  0
   14.4308  -18.3793   18.8444 C   0  0  0  0  0  0  0  0  0  0  0  0
   13.5120  -19.2377   19.0050 O   0  0  0  0  0  0  0  0  0  0  0  0
   12.3844  -17.5838   14.3936 O   0  0  0  0  0  0  0  0  0  0  0  0
   15.7264  -18.7766   19.1680 N   0  0  0  0  0  0  0  0  0  0  0  0
   16.0379  -20.0952   19.7320 C   0  0  1  0  0  0  0  0  0  0  0  0
   16.5735  -21.0219   18.7168 C   0  0  0  0  0  0  0  0  0  0  0  0
   16.9527  -22.3425   19.3339 C   0  0  0  0  0  0  0  0  0  0  0  0
   17.6328  -23.2113   18.3415 C   0  0  0  0  0  0  0  0  0  0  0  0
   18.8153  -23.5762   18.4865 O   0  0  0  0  0  0  0  0  0  0  0  0
   16.9302  -19.8104   20.8804 C   0  0  0  0  0  0  0  0  0  0  0  0
   17.8191  -20.5956   21.2919 O   0  0  0  0  0  0  0  0  0  0  0  0
   16.9646  -23.6616   17.1868 O   0  0  0  0  0  0  0  0  0  0  0  0
   16.8344  -18.6004   21.6065 N   0  0  0  0  0  0  0  0  0  0  0  0
   17.9660  -17.9949   22.2921 C   0  0  1  0  0  0  0  0  0  0  0  0
   18.2157  -16.5965   21.8636 C   0  0  0  0  0  0  0  0  0  0  0  0
   19.3417  -15.9960   22.6561 C   0  0  0  0  0  0  0  0  0  0  0  0
   19.4974  -14.5479   22.2775 C   0  0  0  0  0  0  0  0  0  0  0  0
   20.3563  -13.8350   22.8703 O   0  0  0  0  0  0  0  0  0  0  0  0
   17.6585  -18.0052   23.7386 C   0  0  0  0  0  0  0  0  0  0  0  0
   18.4255  -17.6832   24.6694 O   0  0  0  0  0  0  0  0  0  0  0  0
   18.7292  -13.9452   21.2924 O   0  0  0  0  0  0  0  0  0  0  0  0
   16.3565  -18.4236   24.1118 O   0  0  0  0  0  0  0  0  0  0  0  0
  2  1  1  6
  2  7  1  0
  2  3  1  0
  3  4  1  0
  4  5  1  0
  5  6  2  0
  7  8  2  0
  9  5  1  0
 10 11  1  0
 10  7  1  0
 12 13  1  0
 11 12  1  6
 13 14  1  0
 14 15  2  0
 14 18  1  0
 16 17  2  0
 16 11  1  0
 19 16  1  0
 20 19  1  0
 20 25  1  0
 20 21  1  6
 22 21  1  0
 23 22  1  0
 24 23  2  0
 25 28  1  0
 26 25  2  0
 27 23  1  0
M  END
$$$$
