EEE.pdb
     RDKit          3D

 28 27  0  0  1  0  0  0  0  0999 V2000
   14.4921  -17.1675   14.4865 N   0  0  0  0  0  0  0  0  0  0  0  0
   14.9921  -18.1822   15.3466 C   0  0  1  0  0  0  0  0  0  0  0  0
   16.2963  -18.8056   14.9755 C   0  0  0  0  0  0  0  0  0  0  0  0
   17.4265  -17.8660   14.7861 C   0  0  0  0  0  0  0  0  0  0  0  0
   18.6824  -18.4955   14.3559 C   0  0  0  0  0  0  0  0  0  0  0  0
   18.8433  -19.7206   14.6105 O   0  0  0  0  0  0  0  0  0  0  0  0
   15.0580  -17.7021   16.7453 C   0  0  0  0  0  0  0  0  0  0  0  0
   15.3764  -16.5106   17.0382 O   0  0  0  0  0  0  0  0  0  0  0  0
   19.6933  -17.8359   13.6976 O   0  0  0  0  0  0  0  0  0  0  0  0
   14.7669  -18.5547   17.8081 N   0  0  0  0  0  0  0  0  0  0  0  0
   14.6484  -18.0880   19.1944 C   0  0  1  0  0  0  0  0  0  0  0  0
   13.6580  -18.8676   19.9610 C   0  0  0  0  0  0  0  0  0  0  0  0
   13.5187  -18.3378   21.3640 C   0  0  0  0  0  0  0  0  0  0  0  0
   12.6213  -19.2048   22.1674 C   0  0  0  0  0  0  0  0  0  0  0  0
   12.0872  -20.2233   21.6881 O   0  0  0  0  0  0  0  0  0  0  0  0
   16.0345  -18.1132   19.7182 C   0  0  0  0  0  0  0  0  0  0  0  0
   16.8605  -19.0277   19.4784 O   0  0  0  0  0  0  0  0  0  0  0  0
   12.3344  -18.9089   23.5138 O   0  0  0  0  0  0  0  0  0  0  0  0
   16.5294  -17.0779   20.5451 N   0  0  0  0  0  0  0  0  0  0  0  0
   17.8711  -17.0850   21.1081 C   0  0  1  0  0  0  0  0  0  0  0  0
   18.3321  -15.7333   21.5104 C   0  0  0  0  0  0  0  0  0  0  0  0
   19.7156  -15.8001   22.0918 C   0  0  0  0  0  0  0  0  0  0  0  0
   20.1369  -14.4231   22.5288 C   0  0  0  0  0  0  0  0  0  0  0  0
   20.5890  -14.2480   23.6960 O   0  0  0  0  0  0  0  0  0  0  0  0
   17.8404  -17.9561   22.3028 C   0  0  0  0  0  0  0  0  0  0  0  0
   16.9959  -17.9365   23.2219 O   0  0  0  0  0  0  0  0  0  0  0  0
   20.0507  -13.3155   21.6984 O   0  0  0  0  0  0  0  0  0  0  0  0
   18.8769  -18.9159   22.4202 O   0  0  0  0  0  0  0  0  0  0  0  0
  2  1  1  6
  2  7  1  0
  2  3  1  0
  3  4  1  0
  4  5  1  0
  5  6  2  0
  7  8  2  0
  9  5  1  0
 10 11  1  0
 10  7  1  0
 12 13  1  0
 11 12  1  1
 13 14  1  0
 14 15  2  0
 14 18  1  0
 16 17  2  0
 16 11  1  0
 19 16  1  0
 20 19  1  0
 20 25  1  0
 20 21  1  1
 22 21  1  0
 23 22  1  0
 24 23  2  0
 25 28  1  0
 26 25  2  0
 27 23  1  0
M  END
$$$$
