EEE.pdb
     RDKit          3D

 28 27  0  0  1  0  0  0  0  0999 V2000
   11.6722  -13.3174   18.7757 N   0  0  0  0  0  0  0  0  0  0  0  0
   11.9679  -14.6939   18.5822 C   0  0  1  0  0  0  0  0  0  0  0  0
   13.3988  -15.1033   18.6920 C   0  0  0  0  0  0  0  0  0  0  0  0
   14.3442  -14.0338   19.0899 C   0  0  0  0  0  0  0  0  0  0  0  0
   15.7517  -14.4507   19.1522 C   0  0  0  0  0  0  0  0  0  0  0  0
   16.5989  -13.7554   18.5273 O   0  0  0  0  0  0  0  0  0  0  0  0
   11.1453  -15.5402   19.4758 C   0  0  0  0  0  0  0  0  0  0  0  0
   10.7983  -15.1634   20.6353 O   0  0  0  0  0  0  0  0  0  0  0  0
   16.2039  -15.5495   19.8439 O   0  0  0  0  0  0  0  0  0  0  0  0
   10.7145  -16.8011   19.0689 N   0  0  0  0  0  0  0  0  0  0  0  0
    9.8620  -17.6585   19.9008 C   0  0  1  0  0  0  0  0  0  0  0  0
    8.9190  -18.4560   19.0938 C   0  0  0  0  0  0  0  0  0  0  0  0
    8.1815  -19.4527   19.9488 C   0  0  0  0  0  0  0  0  0  0  0  0
    7.1791  -20.1956   19.1453 C   0  0  0  0  0  0  0  0  0  0  0  0
    7.4671  -21.2463   18.5410 O   0  0  0  0  0  0  0  0  0  0  0  0
   10.8103  -18.4321   20.7365 C   0  0  0  0  0  0  0  0  0  0  0  0
   11.9846  -18.7120   20.3921 O   0  0  0  0  0  0  0  0  0  0  0  0
    5.8518  -19.7393   19.0320 O   0  0  0  0  0  0  0  0  0  0  0  0
   10.4419  -18.9178   22.0128 N   0  0  0  0  0  0  0  0  0  0  0  0
   11.3071  -19.7653   22.8192 C   0  0  1  0  0  0  0  0  0  0  0  0
   11.9456  -19.0325   23.9403 C   0  0  0  0  0  0  0  0  0  0  0  0
   10.9300  -18.6927   24.9937 C   0  0  0  0  0  0  0  0  0  0  0  0
   11.6275  -18.0693   26.1723 C   0  0  0  0  0  0  0  0  0  0  0  0
   11.2487  -16.9415   26.5989 O   0  0  0  0  0  0  0  0  0  0  0  0
   10.4666  -20.8492   23.3723 C   0  0  0  0  0  0  0  0  0  0  0  0
   10.8611  -21.8698   23.9734 O   0  0  0  0  0  0  0  0  0  0  0  0
   12.6866  -18.6824   26.8252 O   0  0  0  0  0  0  0  0  0  0  0  0
    9.0650  -20.7192   23.2049 O   0  0  0  0  0  0  0  0  0  0  0  0
  2  1  1  1
  2  7  1  0
  2  3  1  0
  3  4  1  0
  4  5  1  0
  5  6  2  0
  7  8  2  0
  9  5  1  0
 10 11  1  0
 10  7  1  0
 12 13  1  0
 11 12  1  6
 13 14  1  0
 14 15  2  0
 14 18  1  0
 16 17  2  0
 16 11  1  0
 19 16  1  0
 20 19  1  0
 20 25  1  0
 20 21  1  1
 22 21  1  0
 23 22  1  0
 24 23  2  0
 25 28  1  0
 26 25  2  0
 27 23  1  0
M  END
$$$$
