EEE.pdb
     RDKit          3D

 28 27  0  0  1  0  0  0  0  0999 V2000
   13.5570  -18.4851   16.4519 N   0  0  0  0  0  0  0  0  0  0  0  0
   14.6953  -18.4640   17.3024 C   0  0  1  0  0  0  0  0  0  0  0  0
   15.9957  -18.0668   16.6874 C   0  0  0  0  0  0  0  0  0  0  0  0
   17.1504  -17.9996   17.6137 C   0  0  0  0  0  0  0  0  0  0  0  0
   18.4131  -17.5794   16.9911 C   0  0  0  0  0  0  0  0  0  0  0  0
   18.3649  -16.6644   16.1239 O   0  0  0  0  0  0  0  0  0  0  0  0
   14.4434  -17.6301   18.4992 C   0  0  0  0  0  0  0  0  0  0  0  0
   14.3642  -16.3664   18.4398 O   0  0  0  0  0  0  0  0  0  0  0  0
   19.6414  -18.1202   17.2899 O   0  0  0  0  0  0  0  0  0  0  0  0
   14.2804  -18.2122   19.7545 N   0  0  0  0  0  0  0  0  0  0  0  0
   13.9599  -17.4350   20.9575 C   0  0  1  0  0  0  0  0  0  0  0  0
   12.5688  -17.6455   21.4014 C   0  0  0  0  0  0  0  0  0  0  0  0
   12.1356  -19.0696   21.1714 C   0  0  0  0  0  0  0  0  0  0  0  0
   10.7269  -19.2661   21.5949 C   0  0  0  0  0  0  0  0  0  0  0  0
    9.8346  -19.5855   20.7863 O   0  0  0  0  0  0  0  0  0  0  0  0
   15.0116  -17.8047   21.9339 C   0  0  0  0  0  0  0  0  0  0  0  0
   15.5283  -18.9461   22.0126 O   0  0  0  0  0  0  0  0  0  0  0  0
   10.3387  -19.0979   22.9379 O   0  0  0  0  0  0  0  0  0  0  0  0
   15.5151  -16.8674   22.8658 N   0  0  0  0  0  0  0  0  0  0  0  0
   16.5039  -17.2074   23.8776 C   0  0  1  0  0  0  0  0  0  0  0  0
   17.5698  -16.1832   24.0058 C   0  0  0  0  0  0  0  0  0  0  0  0
   18.4352  -16.1673   22.7780 C   0  0  0  0  0  0  0  0  0  0  0  0
   19.4904  -15.1051   22.9288 C   0  0  0  0  0  0  0  0  0  0  0  0
   19.6033  -14.4862   24.0250 O   0  0  0  0  0  0  0  0  0  0  0  0
   15.7898  -17.3198   25.1678 C   0  0  0  0  0  0  0  0  0  0  0  0
   14.5864  -17.0666   25.3819 O   0  0  0  0  0  0  0  0  0  0  0  0
   20.3609  -14.7644   21.9041 O   0  0  0  0  0  0  0  0  0  0  0  0
   16.5480  -17.7618   26.2811 O   0  0  0  0  0  0  0  0  0  0  0  0
  2  1  1  6
  2  7  1  0
  2  3  1  0
  3  4  1  0
  4  5  1  0
  5  6  2  0
  7  8  2  0
  9  5  1  0
 10 11  1  0
 10  7  1  0
 12 13  1  0
 11 12  1  1
 13 14  1  0
 14 15  2  0
 14 18  1  0
 16 17  2  0
 16 11  1  0
 19 16  1  0
 20 19  1  0
 20 25  1  0
 20 21  1  1
 22 21  1  0
 23 22  1  0
 24 23  2  0
 25 28  1  0
 26 25  2  0
 27 23  1  0
M  END
$$$$
