EEE.pdb
     RDKit          3D

 28 27  0  0  1  0  0  0  0  0999 V2000
    8.8040  -12.2672   19.4335 N   0  0  0  0  0  0  0  0  0  0  0  0
    8.4560  -13.5600   18.9572 C   0  0  1  0  0  0  0  0  0  0  0  0
    7.7399  -13.6324   17.6499 C   0  0  0  0  0  0  0  0  0  0  0  0
    7.3508  -14.9913   17.2049 C   0  0  0  0  0  0  0  0  0  0  0  0
    7.8977  -15.3902   15.9009 C   0  0  0  0  0  0  0  0  0  0  0  0
    8.9823  -16.0347   15.8907 O   0  0  0  0  0  0  0  0  0  0  0  0
    9.6430  -14.4436   18.9161 C   0  0  0  0  0  0  0  0  0  0  0  0
    9.5671  -15.6650   18.5858 O   0  0  0  0  0  0  0  0  0  0  0  0
    7.3065  -15.1043   14.6930 O   0  0  0  0  0  0  0  0  0  0  0  0
   10.9072  -13.9578   19.2429 N   0  0  0  0  0  0  0  0  0  0  0  0
   12.1016  -14.8097   19.2852 C   0  0  1  0  0  0  0  0  0  0  0  0
   13.0421  -14.5036   18.1906 C   0  0  0  0  0  0  0  0  0  0  0  0
   14.3199  -15.2871   18.3381 C   0  0  0  0  0  0  0  0  0  0  0  0
   15.2946  -14.9076   17.2855 C   0  0  0  0  0  0  0  0  0  0  0  0
   16.1039  -13.9735   17.4432 O   0  0  0  0  0  0  0  0  0  0  0  0
   12.6332  -14.6420   20.6583 C   0  0  0  0  0  0  0  0  0  0  0  0
   13.1374  -13.5774   21.0922 O   0  0  0  0  0  0  0  0  0  0  0  0
   15.3446  -15.5926   16.0563 O   0  0  0  0  0  0  0  0  0  0  0  0
   12.6047  -15.7017   21.5947 N   0  0  0  0  0  0  0  0  0  0  0  0
   13.1107  -15.5741   22.9529 C   0  0  1  0  0  0  0  0  0  0  0  0
   12.2650  -16.2770   23.9491 C   0  0  0  0  0  0  0  0  0  0  0  0
   12.0229  -17.6977   23.5254 C   0  0  0  0  0  0  0  0  0  0  0  0
   11.2037  -18.3960   24.5770 C   0  0  0  0  0  0  0  0  0  0  0  0
   10.9170  -19.6189   24.4369 O   0  0  0  0  0  0  0  0  0  0  0  0
   14.4662  -16.1651   22.9729 C   0  0  0  0  0  0  0  0  0  0  0  0
   15.0057  -16.8314   22.0656 O   0  0  0  0  0  0  0  0  0  0  0  0
   10.7378  -17.7511   25.7131 O   0  0  0  0  0  0  0  0  0  0  0  0
   15.2375  -15.9548   24.1435 O   0  0  0  0  0  0  0  0  0  0  0  0
  2  1  1  6
  2  7  1  0
  2  3  1  0
  3  4  1  0
  4  5  1  0
  5  6  2  0
  7  8  2  0
  9  5  1  0
 10 11  1  0
 10  7  1  0
 12 13  1  0
 11 12  1  6
 13 14  1  0
 14 15  2  0
 14 18  1  0
 16 17  2  0
 16 11  1  0
 19 16  1  0
 20 19  1  0
 20 25  1  0
 20 21  1  1
 22 21  1  0
 23 22  1  0
 24 23  2  0
 25 28  1  0
 26 25  2  0
 27 23  1  0
M  END
$$$$
