EEE.pdb
     RDKit          3D

 28 27  0  0  1  0  0  0  0  0999 V2000
   10.7623  -13.2664   19.3960 N   0  0  0  0  0  0  0  0  0  0  0  0
   11.3729  -14.5258   19.6417 C   0  0  1  0  0  0  0  0  0  0  0  0
   12.8521  -14.5367   19.8396 C   0  0  0  0  0  0  0  0  0  0  0  0
   13.6585  -14.0867   18.6807 C   0  0  0  0  0  0  0  0  0  0  0  0
   15.1117  -14.1165   18.8955 C   0  0  0  0  0  0  0  0  0  0  0  0
   15.8541  -14.2109   17.8798 O   0  0  0  0  0  0  0  0  0  0  0  0
   10.7207  -15.2149   20.7779 C   0  0  0  0  0  0  0  0  0  0  0  0
   10.1514  -14.5822   21.7173 O   0  0  0  0  0  0  0  0  0  0  0  0
   15.7134  -14.0515   20.1299 O   0  0  0  0  0  0  0  0  0  0  0  0
   10.7070  -16.6058   20.8577 N   0  0  0  0  0  0  0  0  0  0  0  0
    9.9604  -17.3374   21.8879 C   0  0  1  0  0  0  0  0  0  0  0  0
    9.7178  -18.7419   21.5070 C   0  0  0  0  0  0  0  0  0  0  0  0
    8.9462  -19.4686   22.5769 C   0  0  0  0  0  0  0  0  0  0  0  0
    8.7411  -20.8904   22.2042 C   0  0  0  0  0  0  0  0  0  0  0  0
    7.6064  -21.3578   21.9893 O   0  0  0  0  0  0  0  0  0  0  0  0
   10.7386  -17.1316   23.1322 C   0  0  0  0  0  0  0  0  0  0  0  0
   11.9811  -16.9551   23.1635 O   0  0  0  0  0  0  0  0  0  0  0  0
    9.8288  -21.7756   22.0779 O   0  0  0  0  0  0  0  0  0  0  0  0
   10.1123  -17.1199   24.4003 N   0  0  0  0  0  0  0  0  0  0  0  0
   10.8221  -16.8133   25.6329 C   0  0  1  0  0  0  0  0  0  0  0  0
   10.0664  -15.8916   26.5166 C   0  0  0  0  0  0  0  0  0  0  0  0
   10.7798  -15.7149   27.8266 C   0  0  0  0  0  0  0  0  0  0  0  0
    9.9660  -14.8155   28.7172 C   0  0  0  0  0  0  0  0  0  0  0  0
    8.8186  -14.4382   28.3450 O   0  0  0  0  0  0  0  0  0  0  0  0
   11.0361  -18.0917   26.3448 C   0  0  0  0  0  0  0  0  0  0  0  0
   12.0226  -18.4035   27.0434 O   0  0  0  0  0  0  0  0  0  0  0  0
   10.4222  -14.3706   29.9492 O   0  0  0  0  0  0  0  0  0  0  0  0
   10.0159  -19.0685   26.2243 O   0  0  0  0  0  0  0  0  0  0  0  0
  2  1  1  1
  2  7  1  0
  2  3  1  0
  3  4  1  0
  4  5  1  0
  5  6  2  0
  7  8  2  0
  9  5  1  0
 10 11  1  0
 10  7  1  0
 12 13  1  0
 11 12  1  6
 13 14  1  0
 14 15  2  0
 14 18  1  0
 16 17  2  0
 16 11  1  0
 19 16  1  0
 20 19  1  0
 20 25  1  0
 20 21  1  1
 22 21  1  0
 23 22  1  0
 24 23  2  0
 25 28  1  0
 26 25  2  0
 27 23  1  0
M  END
$$$$
