SLY.pdb
     RDKit          3D

 27 27  0  0  1  0  0  0  0  0999 V2000
    8.9323  -18.7691   21.9155 O   0  0  0  0  0  0  0  0  0  0  0  0
    7.5847  -18.4113   21.8860 C   0  0  0  0  0  0  0  0  0  0  0  0
    7.3576  -17.1385   21.1128 C   0  0  2  0  0  0  0  0  0  0  0  0
    7.8592  -17.2331   19.7541 N   0  0  0  0  0  0  0  0  0  0  0  0
    8.0156  -16.0259   21.8273 C   0  0  0  0  0  0  0  0  0  0  0  0
    9.0887  -15.5042   21.4277 O   0  0  0  0  0  0  0  0  0  0  0  0
    7.5176  -11.4208   24.9652 C   0  0  0  0  0  0  0  0  0  0  0  0
    7.1973  -12.7570   25.5396 C   0  0  1  0  0  0  0  0  0  0  0  0
    6.0632  -12.6496   26.5698 C   0  0  0  0  0  0  0  0  0  0  0  0
    7.0011  -13.8783   24.6123 C   0  0  0  0  0  0  0  0  0  0  0  0
    8.0759  -14.3668   23.7313 C   0  0  2  0  0  0  0  0  0  0  0  0
    7.4389  -15.5162   22.9983 N   0  0  0  0  0  0  0  0  0  0  0  0
    9.2810  -14.9441   24.3106 C   0  0  0  0  0  0  0  0  0  0  0  0
   10.3073  -14.2508   24.4773 O   0  0  0  0  0  0  0  0  0  0  0  0
   10.9557  -14.5327   31.5864 O   0  0  0  0  0  0  0  0  0  0  0  0
   10.6610  -15.2398   30.4131 C   0  0  0  0  0  0  0  0  0  0  0  0
    9.9035  -14.6819   29.4005 C   0  0  0  0  0  0  0  0  0  0  0  0
    9.5999  -15.3566   28.2369 C   0  0  0  0  0  0  0  0  0  0  0  0
   10.0667  -16.6403   28.0683 C   0  0  0  0  0  0  0  0  0  0  0  0
    9.7395  -17.3556   26.8277 C   0  0  0  0  0  0  0  0  0  0  0  0
   10.4219  -16.8014   25.6007 C   0  0  2  0  0  0  0  0  0  0  0  0
    9.3667  -16.3266   24.7216 N   0  0  0  0  0  0  0  0  0  0  0  0
   11.2796  -17.7601   24.9034 C   0  0  0  0  0  0  0  0  0  0  0  0
   12.5767  -18.0083   25.3294 O   0  0  0  0  0  0  0  0  0  0  0  0
   10.8224  -17.2358   29.0458 C   0  0  0  0  0  0  0  0  0  0  0  0
   11.1041  -16.5272   30.1949 C   0  0  0  0  0  0  0  0  0  0  0  0
   10.8711  -18.3906   23.8961 O   0  0  0  0  0  0  0  0  0  0  0  0
  2  1  1  0
  3  2  1  0
  3  4  1  6
  5  3  1  0
  6  5  2  0
  8  7  1  6
  8  9  1  0
 10  8  1  0
 11 10  1  1
 11 12  1  0
 12  5  1  0
 13 11  1  0
 14 13  2  0
 16 17  2  0
 16 15  1  0
 18 17  1  0
 19 18  2  0
 21 20  1  1
 20 19  1  0
 21 22  1  0
 22 13  1  0
 23 21  1  0
 23 24  1  0
 25 19  1  0
 25 26  2  0
 26 16  1  0
 27 23  2  0
M  END
$$$$
