SLY.pdb
     RDKit          3D

 27 27  0  0  1  0  0  0  0  0999 V2000
    9.1269  -18.4003   21.5401 O   0  0  0  0  0  0  0  0  0  0  0  0
    7.7418  -18.2375   21.5357 C   0  0  0  0  0  0  0  0  0  0  0  0
    7.3286  -16.9532   20.8656 C   0  0  2  0  0  0  0  0  0  0  0  0
    7.7925  -16.8853   19.4920 N   0  0  0  0  0  0  0  0  0  0  0  0
    7.8629  -15.8183   21.6453 C   0  0  0  0  0  0  0  0  0  0  0  0
    8.8110  -15.1001   21.2342 O   0  0  0  0  0  0  0  0  0  0  0  0
    5.6842  -12.9312   26.6416 C   0  0  0  0  0  0  0  0  0  0  0  0
    6.4023  -12.9404   25.3369 C   0  0  1  0  0  0  0  0  0  0  0  0
    7.5266  -11.8941   25.3264 C   0  0  0  0  0  0  0  0  0  0  0  0
    6.8424  -14.2342   24.7999 C   0  0  0  0  0  0  0  0  0  0  0  0
    7.8069  -14.3378   23.6913 C   0  0  2  0  0  0  0  0  0  0  0  0
    7.3066  -15.5120   22.8943 N   0  0  0  0  0  0  0  0  0  0  0  0
    9.1976  -14.6691   23.9698 C   0  0  0  0  0  0  0  0  0  0  0  0
   10.0997  -13.8154   23.8314 O   0  0  0  0  0  0  0  0  0  0  0  0
   12.0659  -16.1312   31.8229 O   0  0  0  0  0  0  0  0  0  0  0  0
   11.4671  -15.9674   30.5666 C   0  0  0  0  0  0  0  0  0  0  0  0
   10.9176  -17.0339   29.8802 C   0  0  0  0  0  0  0  0  0  0  0  0
   10.3230  -16.8989   28.6435 C   0  0  0  0  0  0  0  0  0  0  0  0
   10.2700  -15.6532   28.0606 C   0  0  0  0  0  0  0  0  0  0  0  0
    9.6368  -15.5145   26.7424 C   0  0  0  0  0  0  0  0  0  0  0  0
   10.4088  -16.1623   25.6186 C   0  0  2  0  0  0  0  0  0  0  0  0
    9.6159  -15.9785   24.4148 N   0  0  0  0  0  0  0  0  0  0  0  0
   10.7034  -17.5800   25.8289 C   0  0  0  0  0  0  0  0  0  0  0  0
   10.0917  -18.5636   25.0646 O   0  0  0  0  0  0  0  0  0  0  0  0
   10.8020  -14.5650   28.7038 C   0  0  0  0  0  0  0  0  0  0  0  0
   11.3881  -14.7419   29.9396 C   0  0  0  0  0  0  0  0  0  0  0  0
   11.5196  -17.9547   26.7078 O   0  0  0  0  0  0  0  0  0  0  0  0
  2  1  1  0
  3  2  1  0
  3  4  1  6
  5  3  1  0
  6  5  2  0
  8  7  1  1
  8  9  1  0
 10  8  1  0
 11 10  1  1
 11 12  1  0
 12  5  1  0
 13 11  1  0
 14 13  2  0
 16 17  2  0
 16 15  1  0
 18 17  1  0
 19 18  2  0
 21 20  1  1
 20 19  1  0
 21 22  1  0
 22 13  1  0
 23 21  1  0
 23 24  1  0
 25 19  1  0
 25 26  2  0
 26 16  1  0
 27 23  2  0
M  END
$$$$
