SLY.pdb
     RDKit          3D

 27 27  0  0  1  0  0  0  0  0999 V2000
    9.3662  -18.2105   22.7094 O   0  0  0  0  0  0  0  0  0  0  0  0
    7.9971  -18.2046   22.4436 C   0  0  0  0  0  0  0  0  0  0  0  0
    7.5914  -17.0178   21.6093 C   0  0  2  0  0  0  0  0  0  0  0  0
    8.1355  -17.0887   20.2656 N   0  0  0  0  0  0  0  0  0  0  0  0
    8.0474  -15.7857   22.2841 C   0  0  0  0  0  0  0  0  0  0  0  0
    9.0204  -15.1052   21.8676 O   0  0  0  0  0  0  0  0  0  0  0  0
    6.7711  -11.1391   25.2147 C   0  0  0  0  0  0  0  0  0  0  0  0
    6.4844  -12.5088   25.7245 C   0  0  1  0  0  0  0  0  0  0  0  0
    5.2105  -12.5152   26.5825 C   0  0  0  0  0  0  0  0  0  0  0  0
    6.5156  -13.6223   24.7680 C   0  0  0  0  0  0  0  0  0  0  0  0
    7.7494  -14.0257   24.0715 C   0  0  2  0  0  0  0  0  0  0  0  0
    7.3842  -15.3393   23.4350 N   0  0  0  0  0  0  0  0  0  0  0  0
    8.9488  -14.3291   24.8401 C   0  0  0  0  0  0  0  0  0  0  0  0
    9.5722  -13.4259   25.4379 O   0  0  0  0  0  0  0  0  0  0  0  0
   12.2235  -17.5524   32.0200 O   0  0  0  0  0  0  0  0  0  0  0  0
   11.5665  -17.1179   30.8610 C   0  0  0  0  0  0  0  0  0  0  0  0
   10.9029  -18.0000   30.0292 C   0  0  0  0  0  0  0  0  0  0  0  0
   10.2492  -17.5978   28.8837 C   0  0  0  0  0  0  0  0  0  0  0  0
   10.2526  -16.2633   28.5468 C   0  0  0  0  0  0  0  0  0  0  0  0
    9.5561  -15.8397   27.3249 C   0  0  0  0  0  0  0  0  0  0  0  0
   10.3523  -16.0489   26.0597 C   0  0  2  0  0  0  0  0  0  0  0  0
    9.4847  -15.6656   24.9588 N   0  0  0  0  0  0  0  0  0  0  0  0
   10.8435  -17.4149   25.8757 C   0  0  0  0  0  0  0  0  0  0  0  0
    9.9963  -18.4360   25.4693 O   0  0  0  0  0  0  0  0  0  0  0  0
   10.8979  -15.3506   29.3415 C   0  0  0  0  0  0  0  0  0  0  0  0
   11.5401  -15.7933   30.4789 C   0  0  0  0  0  0  0  0  0  0  0  0
   12.0480  -17.7094   26.0793 O   0  0  0  0  0  0  0  0  0  0  0  0
  2  1  1  0
  3  2  1  0
  3  4  1  6
  5  3  1  0
  6  5  2  0
  8  7  1  6
  8  9  1  0
 10  8  1  0
 11 10  1  1
 11 12  1  0
 12  5  1  0
 13 11  1  0
 14 13  2  0
 16 17  2  0
 16 15  1  0
 18 17  1  0
 19 18  2  0
 21 20  1  1
 20 19  1  0
 21 22  1  0
 22 13  1  0
 23 21  1  0
 23 24  1  0
 25 19  1  0
 25 26  2  0
 26 16  1  0
 27 23  2  0
M  END
$$$$
