SLY.pdb
     RDKit          3D

 27 27  0  0  1  0  0  0  0  0999 V2000
    9.0771  -17.9904   22.0332 O   0  0  0  0  0  0  0  0  0  0  0  0
    7.7038  -18.1576   21.8562 C   0  0  0  0  0  0  0  0  0  0  0  0
    7.0593  -16.9303   21.2668 C   0  0  2  0  0  0  0  0  0  0  0  0
    7.2139  -16.8767   19.8246 N   0  0  0  0  0  0  0  0  0  0  0  0
    7.6574  -15.7337   21.8926 C   0  0  0  0  0  0  0  0  0  0  0  0
    8.5047  -15.0129   21.3044 O   0  0  0  0  0  0  0  0  0  0  0  0
    7.2782  -11.2623   25.1164 C   0  0  0  0  0  0  0  0  0  0  0  0
    7.0281  -12.6000   25.7216 C   0  0  1  0  0  0  0  0  0  0  0  0
    5.9254  -12.5181   26.7876 C   0  0  0  0  0  0  0  0  0  0  0  0
    6.8441  -13.7430   24.8186 C   0  0  0  0  0  0  0  0  0  0  0  0
    7.8774  -14.1564   23.8536 C   0  0  2  0  0  0  0  0  0  0  0  0
    7.2802  -15.3688   23.1920 N   0  0  0  0  0  0  0  0  0  0  0  0
    9.1723  -14.6198   24.3330 C   0  0  0  0  0  0  0  0  0  0  0  0
   10.0307  -13.8098   24.7439 O   0  0  0  0  0  0  0  0  0  0  0  0
   10.5555  -14.5549   31.1210 O   0  0  0  0  0  0  0  0  0  0  0  0
   10.5133  -15.2243   29.8907 C   0  0  0  0  0  0  0  0  0  0  0  0
   10.6609  -16.5960   29.8056 C   0  0  0  0  0  0  0  0  0  0  0  0
   10.6232  -17.2779   28.6078 C   0  0  0  0  0  0  0  0  0  0  0  0
   10.4309  -16.5707   27.4427 C   0  0  0  0  0  0  0  0  0  0  0  0
   10.3929  -17.3013   26.1690 C   0  0  0  0  0  0  0  0  0  0  0  0
   10.7814  -16.4689   24.9712 C   0  0  2  0  0  0  0  0  0  0  0  0
    9.5410  -16.0165   24.3642 N   0  0  0  0  0  0  0  0  0  0  0  0
   11.6070  -17.1734   23.9900 C   0  0  0  0  0  0  0  0  0  0  0  0
   12.9853  -17.2508   24.1316 O   0  0  0  0  0  0  0  0  0  0  0  0
   10.2795  -15.2080   27.4774 C   0  0  0  0  0  0  0  0  0  0  0  0
   10.3234  -14.5632   28.6957 C   0  0  0  0  0  0  0  0  0  0  0  0
   11.0966  -17.7318   22.9866 O   0  0  0  0  0  0  0  0  0  0  0  0
  2  1  1  0
  3  2  1  0
  3  4  1  6
  5  3  1  0
  6  5  2  0
  8  7  1  6
  8  9  1  0
 10  8  1  0
 11 10  1  1
 11 12  1  0
 12  5  1  0
 13 11  1  0
 14 13  2  0
 16 17  2  0
 16 15  1  0
 18 17  1  0
 19 18  2  0
 21 20  1  1
 20 19  1  0
 21 22  1  0
 22 13  1  0
 23 21  1  0
 23 24  1  0
 25 19  1  0
 25 26  2  0
 26 16  1  0
 27 23  2  0
M  END
$$$$
