SLY.pdb
     RDKit          3D

 27 27  0  0  1  0  0  0  0  0999 V2000
    9.4465  -18.0699   21.4185 O   0  0  0  0  0  0  0  0  0  0  0  0
    8.0521  -18.0513   21.4388 C   0  0  0  0  0  0  0  0  0  0  0  0
    7.4994  -16.7511   20.9163 C   0  0  2  0  0  0  0  0  0  0  0  0
    7.8491  -16.5340   19.5245 N   0  0  0  0  0  0  0  0  0  0  0  0
    8.0121  -15.6475   21.7533 C   0  0  0  0  0  0  0  0  0  0  0  0
    8.8872  -14.8393   21.3477 O   0  0  0  0  0  0  0  0  0  0  0  0
    5.8979  -12.8368   26.7854 C   0  0  0  0  0  0  0  0  0  0  0  0
    6.5432  -12.7604   25.4454 C   0  0  1  0  0  0  0  0  0  0  0  0
    7.8402  -11.9405   25.5112 C   0  0  0  0  0  0  0  0  0  0  0  0
    6.7118  -14.0069   24.6880 C   0  0  0  0  0  0  0  0  0  0  0  0
    7.9081  -14.2744   23.8711 C   0  0  2  0  0  0  0  0  0  0  0  0
    7.5179  -15.4756   23.0532 N   0  0  0  0  0  0  0  0  0  0  0  0
    9.1504  -14.6771   24.5162 C   0  0  0  0  0  0  0  0  0  0  0  0
    9.5819  -14.0627   25.5153 O   0  0  0  0  0  0  0  0  0  0  0  0
   11.2190  -14.1581   30.9221 O   0  0  0  0  0  0  0  0  0  0  0  0
   10.9442  -14.8386   29.7284 C   0  0  0  0  0  0  0  0  0  0  0  0
   11.0642  -16.2122   29.6321 C   0  0  0  0  0  0  0  0  0  0  0  0
   10.7998  -16.9050   28.4696 C   0  0  0  0  0  0  0  0  0  0  0  0
   10.3990  -16.2071   27.3530 C   0  0  0  0  0  0  0  0  0  0  0  0
   10.1198  -16.9492   26.1165 C   0  0  0  0  0  0  0  0  0  0  0  0
   10.9000  -16.4636   24.9189 C   0  0  2  0  0  0  0  0  0  0  0  0
    9.9478  -15.7893   24.0528 N   0  0  0  0  0  0  0  0  0  0  0  0
   11.6015  -17.5195   24.1883 C   0  0  0  0  0  0  0  0  0  0  0  0
   10.9727  -18.2385   23.1818 O   0  0  0  0  0  0  0  0  0  0  0  0
   10.2659  -14.8429   27.4005 C   0  0  0  0  0  0  0  0  0  0  0  0
   10.5399  -14.1871   28.5824 C   0  0  0  0  0  0  0  0  0  0  0  0
   12.7962  -17.8108   24.4472 O   0  0  0  0  0  0  0  0  0  0  0  0
  2  1  1  0
  3  2  1  0
  3  4  1  6
  5  3  1  0
  6  5  2  0
  8  7  1  1
  8  9  1  0
 10  8  1  0
 11 10  1  1
 11 12  1  0
 12  5  1  0
 13 11  1  0
 14 13  2  0
 16 17  2  0
 16 15  1  0
 18 17  1  0
 19 18  2  0
 21 20  1  1
 20 19  1  0
 21 22  1  0
 22 13  1  0
 23 21  1  0
 23 24  1  0
 25 19  1  0
 25 26  2  0
 26 16  1  0
 27 23  2  0
M  END
$$$$
