SLY.pdb
     RDKit          3D

 27 27  0  0  1  0  0  0  0  0999 V2000
   10.1706  -20.2896   21.4329 O   0  0  0  0  0  0  0  0  0  0  0  0
    9.2771  -19.2297   21.5859 C   0  0  0  0  0  0  0  0  0  0  0  0
    9.0938  -18.4593   20.3045 C   0  0  2  0  0  0  0  0  0  0  0  0
    9.8577  -19.0344   19.2126 N   0  0  0  0  0  0  0  0  0  0  0  0
    9.4983  -17.0572   20.5322 C   0  0  0  0  0  0  0  0  0  0  0  0
   10.6399  -16.6233   20.2291 O   0  0  0  0  0  0  0  0  0  0  0  0
    6.0889  -13.2204   19.1512 C   0  0  0  0  0  0  0  0  0  0  0  0
    7.4124  -13.8205   19.4774 C   0  0  1  0  0  0  0  0  0  0  0  0
    8.5301  -13.1488   18.6659 C   0  0  0  0  0  0  0  0  0  0  0  0
    7.7702  -13.9761   20.8929 C   0  0  0  0  0  0  0  0  0  0  0  0
    8.9678  -14.7177   21.3238 C   0  0  2  0  0  0  0  0  0  0  0  0
    8.5902  -16.1581   21.1071 N   0  0  0  0  0  0  0  0  0  0  0  0
    9.3864  -14.6701   22.7181 C   0  0  0  0  0  0  0  0  0  0  0  0
    8.9084  -13.8223   23.5020 O   0  0  0  0  0  0  0  0  0  0  0  0
   10.6543  -15.5138   31.0774 O   0  0  0  0  0  0  0  0  0  0  0  0
   10.3881  -15.5151   29.7016 C   0  0  0  0  0  0  0  0  0  0  0  0
   10.2728  -16.6919   28.9859 C   0  0  0  0  0  0  0  0  0  0  0  0
   10.0114  -16.7198   27.6323 C   0  0  0  0  0  0  0  0  0  0  0  0
    9.8574  -15.5302   26.9574 C   0  0  0  0  0  0  0  0  0  0  0  0
    9.5805  -15.5649   25.5153 C   0  0  0  0  0  0  0  0  0  0  0  0
   10.8140  -15.4724   24.6502 C   0  0  2  0  0  0  0  0  0  0  0  0
   10.3609  -15.5806   23.2738 N   0  0  0  0  0  0  0  0  0  0  0  0
   11.8295  -16.4857   24.9385 C   0  0  0  0  0  0  0  0  0  0  0  0
   11.8888  -17.6707   24.2188 O   0  0  0  0  0  0  0  0  0  0  0  0
    9.9633  -14.3370   27.6253 C   0  0  0  0  0  0  0  0  0  0  0  0
   10.2255  -14.3519   28.9792 C   0  0  0  0  0  0  0  0  0  0  0  0
   12.6815  -16.3175   25.8467 O   0  0  0  0  0  0  0  0  0  0  0  0
  2  1  1  0
  3  2  1  0
  3  4  1  6
  5  3  1  0
  6  5  2  0
  8  7  1  1
  8  9  1  0
 10  8  1  0
 11 10  1  1
 11 12  1  0
 12  5  1  0
 13 11  1  0
 14 13  2  0
 16 17  2  0
 16 15  1  0
 18 17  1  0
 19 18  2  0
 21 20  1  1
 20 19  1  0
 21 22  1  0
 22 13  1  0
 23 21  1  0
 23 24  1  0
 25 19  1  0
 25 26  2  0
 26 16  1  0
 27 23  2  0
M  END
$$$$
