SLY.pdb
     RDKit          3D

 27 27  0  0  1  0  0  0  0  0999 V2000
    8.6047  -20.8729   20.0713 O   0  0  0  0  0  0  0  0  0  0  0  0
    8.9016  -19.5853   20.5173 C   0  0  0  0  0  0  0  0  0  0  0  0
    8.9010  -18.5858   19.3903 C   0  0  2  0  0  0  0  0  0  0  0  0
    9.5898  -19.0916   18.2172 N   0  0  0  0  0  0  0  0  0  0  0  0
    9.5370  -17.3390   19.8620 C   0  0  0  0  0  0  0  0  0  0  0  0
   10.7208  -17.0290   19.5688 O   0  0  0  0  0  0  0  0  0  0  0  0
    6.2367  -12.9579   20.4912 C   0  0  0  0  0  0  0  0  0  0  0  0
    7.4916  -13.7004   20.1878 C   0  0  1  0  0  0  0  0  0  0  0  0
    8.3893  -12.8893   19.2416 C   0  0  0  0  0  0  0  0  0  0  0  0
    8.2433  -14.2742   21.3109 C   0  0  0  0  0  0  0  0  0  0  0  0
    9.4136  -15.1459   21.1096 C   0  0  2  0  0  0  0  0  0  0  0  0
    8.8112  -16.4524   20.6687 N   0  0  0  0  0  0  0  0  0  0  0  0
   10.2495  -15.5099   22.2455 C   0  0  0  0  0  0  0  0  0  0  0  0
   11.3080  -14.8909   22.4864 O   0  0  0  0  0  0  0  0  0  0  0  0
   10.6018  -14.7911   30.7292 O   0  0  0  0  0  0  0  0  0  0  0  0
   10.3731  -14.9455   29.3554 C   0  0  0  0  0  0  0  0  0  0  0  0
   10.1439  -13.8598   28.5314 C   0  0  0  0  0  0  0  0  0  0  0  0
    9.9164  -13.9853   27.1772 C   0  0  0  0  0  0  0  0  0  0  0  0
    9.9159  -15.2411   26.6139 C   0  0  0  0  0  0  0  0  0  0  0  0
    9.6718  -15.3699   25.1711 C   0  0  0  0  0  0  0  0  0  0  0  0
   10.3278  -16.5751   24.5421 C   0  0  2  0  0  0  0  0  0  0  0  0
    9.9164  -16.5875   23.1485 N   0  0  0  0  0  0  0  0  0  0  0  0
    9.9976  -17.8462   25.1871 C   0  0  0  0  0  0  0  0  0  0  0  0
   10.8609  -18.4364   26.0993 O   0  0  0  0  0  0  0  0  0  0  0  0
   10.1387  -16.3485   27.3917 C   0  0  0  0  0  0  0  0  0  0  0  0
   10.3622  -16.1805   28.7422 C   0  0  0  0  0  0  0  0  0  0  0  0
    8.9221  -18.4461   24.9372 O   0  0  0  0  0  0  0  0  0  0  0  0
  2  1  1  0
  3  2  1  0
  3  4  1  6
  5  3  1  0
  6  5  2  0
  8  7  1  1
  8  9  1  0
 10  8  1  0
 11 10  1  1
 11 12  1  0
 12  5  1  0
 13 11  1  0
 14 13  2  0
 16 17  2  0
 16 15  1  0
 18 17  1  0
 19 18  2  0
 21 20  1  1
 20 19  1  0
 21 22  1  0
 22 13  1  0
 23 21  1  0
 23 24  1  0
 25 19  1  0
 25 26  2  0
 26 16  1  0
 27 23  2  0
M  END
$$$$
