SLY.pdb
     RDKit          3D

 27 27  0  0  1  0  0  0  0  0999 V2000
    9.7002  -19.1322   22.2034 O   0  0  0  0  0  0  0  0  0  0  0  0
   10.3636  -19.3413   20.9945 C   0  0  0  0  0  0  0  0  0  0  0  0
    9.8755  -18.4090   19.9167 C   0  0  2  0  0  0  0  0  0  0  0  0
   10.5569  -18.6353   18.6553 N   0  0  0  0  0  0  0  0  0  0  0  0
   10.0766  -17.0169   20.3671 C   0  0  0  0  0  0  0  0  0  0  0  0
   11.1484  -16.3882   20.1680 O   0  0  0  0  0  0  0  0  0  0  0  0
    5.9041  -13.4716   19.7191 C   0  0  0  0  0  0  0  0  0  0  0  0
    7.3139  -13.9378   19.8339 C   0  0  1  0  0  0  0  0  0  0  0  0
    8.2741  -12.9372   19.1735 C   0  0  0  0  0  0  0  0  0  0  0  0
    7.7905  -14.3788   21.1508 C   0  0  0  0  0  0  0  0  0  0  0  0
    9.1575  -14.8850   21.3628 C   0  0  2  0  0  0  0  0  0  0  0  0
    9.0462  -16.3514   21.0445 N   0  0  0  0  0  0  0  0  0  0  0  0
    9.7410  -14.8583   22.6970 C   0  0  0  0  0  0  0  0  0  0  0  0
    9.8551  -13.7839   23.3250 O   0  0  0  0  0  0  0  0  0  0  0  0
   10.9726  -15.2674   31.1056 O   0  0  0  0  0  0  0  0  0  0  0  0
   10.6403  -15.3433   29.7464 C   0  0  0  0  0  0  0  0  0  0  0  0
   10.5268  -14.2104   28.9628 C   0  0  0  0  0  0  0  0  0  0  0  0
   10.2012  -14.2584   27.6238 C   0  0  0  0  0  0  0  0  0  0  0  0
    9.9782  -15.4820   27.0345 C   0  0  0  0  0  0  0  0  0  0  0  0
    9.6304  -15.5281   25.6081 C   0  0  0  0  0  0  0  0  0  0  0  0
   10.7520  -16.0039   24.7170 C   0  0  2  0  0  0  0  0  0  0  0  0
   10.2157  -16.0470   23.3672 N   0  0  0  0  0  0  0  0  0  0  0  0
   11.3084  -17.3044   25.0911 C   0  0  0  0  0  0  0  0  0  0  0  0
   12.4733  -17.4010   25.8389 O   0  0  0  0  0  0  0  0  0  0  0  0
   10.0793  -16.6339   27.7719 C   0  0  0  0  0  0  0  0  0  0  0  0
   10.4071  -16.5432   29.1084 C   0  0  0  0  0  0  0  0  0  0  0  0
   10.7508  -18.3771   24.7482 O   0  0  0  0  0  0  0  0  0  0  0  0
  2  1  1  0
  3  2  1  0
  3  4  1  6
  5  3  1  0
  6  5  2  0
  8  7  1  1
  8  9  1  0
 10  8  1  0
 11 10  1  1
 11 12  1  0
 12  5  1  0
 13 11  1  0
 14 13  2  0
 16 17  2  0
 16 15  1  0
 18 17  1  0
 19 18  2  0
 21 20  1  1
 20 19  1  0
 21 22  1  0
 22 13  1  0
 23 21  1  0
 23 24  1  0
 25 19  1  0
 25 26  2  0
 26 16  1  0
 27 23  2  0
M  END
$$$$
