SLY.pdb
     RDKit          3D

 27 27  0  0  1  0  0  0  0  0999 V2000
    9.3747  -18.1075   22.0211 O   0  0  0  0  0  0  0  0  0  0  0  0
    8.0346  -18.1351   21.6361 C   0  0  0  0  0  0  0  0  0  0  0  0
    7.6241  -16.8657   20.9367 C   0  0  2  0  0  0  0  0  0  0  0  0
    8.1175  -16.8148   19.5727 N   0  0  0  0  0  0  0  0  0  0  0  0
    8.1302  -15.7135   21.7097 C   0  0  0  0  0  0  0  0  0  0  0  0
    9.1305  -15.0412   21.3478 O   0  0  0  0  0  0  0  0  0  0  0  0
    7.1060  -11.4201   25.2192 C   0  0  0  0  0  0  0  0  0  0  0  0
    6.8582  -12.8327   25.6207 C   0  0  1  0  0  0  0  0  0  0  0  0
    5.6714  -12.9230   26.5914 C   0  0  0  0  0  0  0  0  0  0  0  0
    6.7900  -13.8494   24.5637 C   0  0  0  0  0  0  0  0  0  0  0  0
    7.9124  -14.1034   23.6440 C   0  0  2  0  0  0  0  0  0  0  0  0
    7.4857  -15.3371   22.8957 N   0  0  0  0  0  0  0  0  0  0  0  0
    9.2219  -14.4519   24.1782 C   0  0  0  0  0  0  0  0  0  0  0  0
   10.0984  -13.5772   24.3470 O   0  0  0  0  0  0  0  0  0  0  0  0
   12.1347  -16.4553   31.8965 O   0  0  0  0  0  0  0  0  0  0  0  0
   11.4976  -16.2675   30.6627 C   0  0  0  0  0  0  0  0  0  0  0  0
   11.5172  -15.0470   30.0143 C   0  0  0  0  0  0  0  0  0  0  0  0
   10.8984  -14.8366   28.8002 C   0  0  0  0  0  0  0  0  0  0  0  0
   10.2306  -15.8807   28.2015 C   0  0  0  0  0  0  0  0  0  0  0  0
    9.5718  -15.6515   26.9088 C   0  0  0  0  0  0  0  0  0  0  0  0
   10.3867  -16.0921   25.7170 C   0  0  2  0  0  0  0  0  0  0  0  0
    9.5850  -15.8027   24.5401 N   0  0  0  0  0  0  0  0  0  0  0  0
   10.7747  -17.5027   25.7407 C   0  0  0  0  0  0  0  0  0  0  0  0
   10.2407  -18.4116   24.8382 O   0  0  0  0  0  0  0  0  0  0  0  0
   10.1839  -17.1103   28.8071 C   0  0  0  0  0  0  0  0  0  0  0  0
   10.8157  -17.2798   30.0212 C   0  0  0  0  0  0  0  0  0  0  0  0
   11.6039  -17.9387   26.5782 O   0  0  0  0  0  0  0  0  0  0  0  0
  2  1  1  0
  3  2  1  0
  3  4  1  6
  5  3  1  0
  6  5  2  0
  8  7  1  6
  8  9  1  0
 10  8  1  0
 11 10  1  1
 11 12  1  0
 12  5  1  0
 13 11  1  0
 14 13  2  0
 16 17  2  0
 16 15  1  0
 18 17  1  0
 19 18  2  0
 21 20  1  1
 20 19  1  0
 21 22  1  0
 22 13  1  0
 23 21  1  0
 23 24  1  0
 25 19  1  0
 25 26  2  0
 26 16  1  0
 27 23  2  0
M  END
$$$$
