SLY.pdb
     RDKit          3D

 27 27  0  0  1  0  0  0  0  0999 V2000
    9.8186  -20.0360   21.9682 O   0  0  0  0  0  0  0  0  0  0  0  0
    8.6173  -19.6150   21.3982 C   0  0  0  0  0  0  0  0  0  0  0  0
    8.8408  -18.8196   20.1387 C   0  0  2  0  0  0  0  0  0  0  0  0
    9.6805  -19.5296   19.1914 N   0  0  0  0  0  0  0  0  0  0  0  0
    9.4530  -17.5245   20.4981 C   0  0  0  0  0  0  0  0  0  0  0  0
   10.6259  -17.2134   20.1648 O   0  0  0  0  0  0  0  0  0  0  0  0
    6.3781  -13.1669   19.8771 C   0  0  0  0  0  0  0  0  0  0  0  0
    7.6084  -14.0006   19.9742 C   0  0  1  0  0  0  0  0  0  0  0  0
    8.7097  -13.4561   19.0525 C   0  0  0  0  0  0  0  0  0  0  0  0
    8.1159  -14.3295   21.3121 C   0  0  0  0  0  0  0  0  0  0  0  0
    9.2711  -15.2203   21.5174 C   0  0  2  0  0  0  0  0  0  0  0  0
    8.7161  -16.5909   21.2390 N   0  0  0  0  0  0  0  0  0  0  0  0
    9.8643  -15.3437   22.8419 C   0  0  0  0  0  0  0  0  0  0  0  0
   10.6679  -14.4859   23.2664 O   0  0  0  0  0  0  0  0  0  0  0  0
    6.1162  -11.4236   26.1124 O   0  0  0  0  0  0  0  0  0  0  0  0
    6.7573  -12.6689   26.0681 C   0  0  0  0  0  0  0  0  0  0  0  0
    7.9723  -12.8821   26.6917 C   0  0  0  0  0  0  0  0  0  0  0  0
    8.6230  -14.0973   26.6628 C   0  0  0  0  0  0  0  0  0  0  0  0
    8.0456  -15.1480   25.9868 C   0  0  0  0  0  0  0  0  0  0  0  0
    8.7432  -16.4403   25.9576 C   0  0  0  0  0  0  0  0  0  0  0  0
    9.9990  -16.4420   25.1202 C   0  0  2  0  0  0  0  0  0  0  0  0
    9.5686  -16.4424   23.7322 N   0  0  0  0  0  0  0  0  0  0  0  0
   10.8956  -17.5685   25.3808 C   0  0  0  0  0  0  0  0  0  0  0  0
   11.2309  -18.4686   24.3793 O   0  0  0  0  0  0  0  0  0  0  0  0
    6.8406  -14.9841   25.3526 C   0  0  0  0  0  0  0  0  0  0  0  0
    6.2218  -13.7527   25.4050 C   0  0  0  0  0  0  0  0  0  0  0  0
   11.3921  -17.7590   26.5194 O   0  0  0  0  0  0  0  0  0  0  0  0
  2  1  1  0
  3  2  1  0
  3  4  1  6
  5  3  1  0
  6  5  2  0
  8  7  1  1
  8  9  1  0
 10  8  1  0
 11 10  1  1
 11 12  1  0
 12  5  1  0
 13 11  1  0
 14 13  2  0
 16 17  2  0
 16 15  1  0
 18 17  1  0
 19 18  2  0
 21 20  1  1
 20 19  1  0
 21 22  1  0
 22 13  1  0
 23 21  1  0
 23 24  1  0
 25 19  1  0
 25 26  2  0
 26 16  1  0
 27 23  2  0
M  END
$$$$
