SLY.pdb
     RDKit          3D

 27 27  0  0  1  0  0  0  0  0999 V2000
    8.4073  -19.3065   22.2599 O   0  0  0  0  0  0  0  0  0  0  0  0
    9.0840  -19.6429   21.0878 C   0  0  0  0  0  0  0  0  0  0  0  0
    8.9911  -18.5528   20.0523 C   0  0  2  0  0  0  0  0  0  0  0  0
    9.6630  -18.9185   18.8189 N   0  0  0  0  0  0  0  0  0  0  0  0
    9.5775  -17.3175   20.6103 C   0  0  0  0  0  0  0  0  0  0  0  0
   10.7861  -17.0073   20.4474 O   0  0  0  0  0  0  0  0  0  0  0  0
    6.6649  -12.8823   19.9926 C   0  0  0  0  0  0  0  0  0  0  0  0
    7.8681  -13.7404   20.1770 C   0  0  1  0  0  0  0  0  0  0  0  0
    9.0803  -13.1432   19.4468 C   0  0  0  0  0  0  0  0  0  0  0  0
    8.2007  -14.1805   21.5377 C   0  0  0  0  0  0  0  0  0  0  0  0
    9.3072  -15.1129   21.8137 C   0  0  2  0  0  0  0  0  0  0  0  0
    8.7739  -16.4426   21.3535 N   0  0  0  0  0  0  0  0  0  0  0  0
    9.7225  -15.3575   23.1881 C   0  0  0  0  0  0  0  0  0  0  0  0
   10.6185  -14.6669   23.7192 O   0  0  0  0  0  0  0  0  0  0  0  0
    5.9844  -11.1417   26.1059 O   0  0  0  0  0  0  0  0  0  0  0  0
    6.5036  -12.4432   26.1136 C   0  0  0  0  0  0  0  0  0  0  0  0
    7.7643  -12.7186   26.6088 C   0  0  0  0  0  0  0  0  0  0  0  0
    8.2976  -13.9900   26.6275 C   0  0  0  0  0  0  0  0  0  0  0  0
    7.5499  -15.0350   26.1342 C   0  0  0  0  0  0  0  0  0  0  0  0
    8.1227  -16.3874   26.1550 C   0  0  0  0  0  0  0  0  0  0  0  0
    9.4392  -16.5084   25.4265 C   0  0  2  0  0  0  0  0  0  0  0  0
    9.1381  -16.3925   24.0096 N   0  0  0  0  0  0  0  0  0  0  0  0
   10.1662  -17.7489   25.6978 C   0  0  0  0  0  0  0  0  0  0  0  0
   10.5673  -18.0818   26.9839 O   0  0  0  0  0  0  0  0  0  0  0  0
    6.2934  -14.8104   25.6323 C   0  0  0  0  0  0  0  0  0  0  0  0
    5.7961  -13.5241   25.6315 C   0  0  0  0  0  0  0  0  0  0  0  0
   10.4519  -18.5541   24.7764 O   0  0  0  0  0  0  0  0  0  0  0  0
  2  1  1  0
  3  2  1  0
  3  4  1  6
  5  3  1  0
  6  5  2  0
  8  7  1  1
  8  9  1  0
 10  8  1  0
 11 10  1  1
 11 12  1  0
 12  5  1  0
 13 11  1  0
 14 13  2  0
 16 17  2  0
 16 15  1  0
 18 17  1  0
 19 18  2  0
 21 20  1  1
 20 19  1  0
 21 22  1  0
 22 13  1  0
 23 21  1  0
 23 24  1  0
 25 19  1  0
 25 26  2  0
 26 16  1  0
 27 23  2  0
M  END
$$$$
