SLY.pdb
     RDKit          3D

 27 27  0  0  1  0  0  0  0  0999 V2000
   11.6836  -18.7174   14.2191 O   0  0  0  0  0  0  0  0  0  0  0  0
   11.1839  -18.0651   15.3460 C   0  0  0  0  0  0  0  0  0  0  0  0
   10.6875  -16.6807   15.0204 C   0  0  2  0  0  0  0  0  0  0  0  0
   11.4415  -16.0753   13.9380 N   0  0  0  0  0  0  0  0  0  0  0  0
   10.7749  -15.8473   16.2366 C   0  0  0  0  0  0  0  0  0  0  0  0
   11.8018  -15.1816   16.5298 O   0  0  0  0  0  0  0  0  0  0  0  0
    8.2656  -12.3208   19.6734 C   0  0  0  0  0  0  0  0  0  0  0  0
    7.8597  -13.7535   19.6995 C   0  0  1  0  0  0  0  0  0  0  0  0
    6.3565  -13.8888   19.9845 C   0  0  0  0  0  0  0  0  0  0  0  0
    8.2951  -14.6150   18.5932 C   0  0  0  0  0  0  0  0  0  0  0  0
    9.7175  -14.8812   18.3174 C   0  0  2  0  0  0  0  0  0  0  0  0
    9.6827  -15.7811   17.1120 N   0  0  0  0  0  0  0  0  0  0  0  0
   10.5169  -15.6204   19.2848 C   0  0  0  0  0  0  0  0  0  0  0  0
   10.5066  -16.8700   19.3032 O   0  0  0  0  0  0  0  0  0  0  0  0
   16.7130  -15.2583   16.5812 O   0  0  0  0  0  0  0  0  0  0  0  0
   15.9167  -15.1754   17.7312 C   0  0  0  0  0  0  0  0  0  0  0  0
   16.0999  -16.0280   18.8036 C   0  0  0  0  0  0  0  0  0  0  0  0
   15.3300  -15.9667   19.9459 C   0  0  0  0  0  0  0  0  0  0  0  0
   14.3348  -15.0197   20.0302 C   0  0  0  0  0  0  0  0  0  0  0  0
   13.5163  -14.9592   21.2485 C   0  0  0  0  0  0  0  0  0  0  0  0
   12.2199  -15.7268   21.1566 C   0  0  2  0  0  0  0  0  0  0  0  0
   11.3560  -14.9710   20.2655 N   0  0  0  0  0  0  0  0  0  0  0  0
   11.5606  -15.9522   22.4432 C   0  0  0  0  0  0  0  0  0  0  0  0
   12.1456  -16.7410   23.4236 O   0  0  0  0  0  0  0  0  0  0  0  0
   14.1156  -14.1518   18.9911 C   0  0  0  0  0  0  0  0  0  0  0  0
   14.9074  -14.2457   17.8659 C   0  0  0  0  0  0  0  0  0  0  0  0
   10.4433  -15.4396   22.7039 O   0  0  0  0  0  0  0  0  0  0  0  0
  2  1  1  0
  3  2  1  0
  3  4  1  6
  5  3  1  0
  6  5  2  0
  8  7  1  6
  8  9  1  0
 10  8  1  0
 11 10  1  1
 11 12  1  0
 12  5  1  0
 13 11  1  0
 14 13  2  0
 16 17  2  0
 16 15  1  0
 18 17  1  0
 19 18  2  0
 21 20  1  1
 20 19  1  0
 21 22  1  0
 22 13  1  0
 23 21  1  0
 23 24  1  0
 25 19  1  0
 25 26  2  0
 26 16  1  0
 27 23  2  0
M  END
$$$$
