SLY.pdb
     RDKit          3D

 27 27  0  0  1  0  0  0  0  0999 V2000
    8.9007  -19.5525   21.1966 O   0  0  0  0  0  0  0  0  0  0  0  0
    9.5396  -19.6807   19.9635 C   0  0  0  0  0  0  0  0  0  0  0  0
    9.2799  -18.4963   19.0697 C   0  0  2  0  0  0  0  0  0  0  0  0
   10.0050  -18.5941   17.8163 N   0  0  0  0  0  0  0  0  0  0  0  0
    9.6630  -17.2654   19.7905 C   0  0  0  0  0  0  0  0  0  0  0  0
   10.8560  -16.8747   19.8781 O   0  0  0  0  0  0  0  0  0  0  0  0
    6.3077  -12.9835   19.4706 C   0  0  0  0  0  0  0  0  0  0  0  0
    7.6370  -13.6218   19.6793 C   0  0  1  0  0  0  0  0  0  0  0  0
    8.7708  -12.6317   19.3741 C   0  0  0  0  0  0  0  0  0  0  0  0
    7.8620  -14.3553   20.9311 C   0  0  0  0  0  0  0  0  0  0  0  0
    9.0367  -15.2205   21.1348 C   0  0  2  0  0  0  0  0  0  0  0  0
    8.6747  -16.4873   20.4080 N   0  0  0  0  0  0  0  0  0  0  0  0
    9.3805  -15.6711   22.4765 C   0  0  0  0  0  0  0  0  0  0  0  0
    8.6011  -16.4000   23.1269 O   0  0  0  0  0  0  0  0  0  0  0  0
   10.3892  -15.1629   30.9143 O   0  0  0  0  0  0  0  0  0  0  0  0
   10.2071  -15.1913   29.5252 C   0  0  0  0  0  0  0  0  0  0  0  0
   10.2276  -14.0358   28.7669 C   0  0  0  0  0  0  0  0  0  0  0  0
   10.0511  -14.0371   27.3994 C   0  0  0  0  0  0  0  0  0  0  0  0
    9.8453  -15.2352   26.7540 C   0  0  0  0  0  0  0  0  0  0  0  0
    9.6565  -15.2315   25.2973 C   0  0  0  0  0  0  0  0  0  0  0  0
   10.8795  -15.6504   24.5180 C   0  0  2  0  0  0  0  0  0  0  0  0
   10.6187  -15.3123   23.1290 N   0  0  0  0  0  0  0  0  0  0  0  0
   11.2200  -17.0676   24.6471 C   0  0  0  0  0  0  0  0  0  0  0  0
   12.1872  -17.4968   25.5448 O   0  0  0  0  0  0  0  0  0  0  0  0
    9.8169  -16.4080   27.4645 C   0  0  0  0  0  0  0  0  0  0  0  0
    9.9976  -16.3641   28.8310 C   0  0  0  0  0  0  0  0  0  0  0  0
   10.6487  -17.9433   23.9500 O   0  0  0  0  0  0  0  0  0  0  0  0
  2  1  1  0
  3  2  1  0
  3  4  1  6
  5  3  1  0
  6  5  2  0
  8  7  1  1
  8  9  1  0
 10  8  1  0
 11 10  1  1
 11 12  1  0
 12  5  1  0
 13 11  1  0
 14 13  2  0
 16 17  2  0
 16 15  1  0
 18 17  1  0
 19 18  2  0
 21 20  1  1
 20 19  1  0
 21 22  1  0
 22 13  1  0
 23 21  1  0
 23 24  1  0
 25 19  1  0
 25 26  2  0
 26 16  1  0
 27 23  2  0
M  END
$$$$
