SLY.pdb
     RDKit          3D

 27 27  0  0  1  0  0  0  0  0999 V2000
   10.1207  -20.7513   20.5773 O   0  0  0  0  0  0  0  0  0  0  0  0
    9.7643  -19.4460   20.9153 C   0  0  0  0  0  0  0  0  0  0  0  0
    9.6093  -18.5723   19.6981 C   0  0  2  0  0  0  0  0  0  0  0  0
   10.4746  -18.9964   18.6129 N   0  0  0  0  0  0  0  0  0  0  0  0
    9.9057  -17.1756   20.0761 C   0  0  0  0  0  0  0  0  0  0  0  0
   10.9840  -16.6045   19.7684 O   0  0  0  0  0  0  0  0  0  0  0  0
    5.9886  -13.4631   19.3114 C   0  0  0  0  0  0  0  0  0  0  0  0
    7.3830  -13.9630   19.4653 C   0  0  1  0  0  0  0  0  0  0  0  0
    8.3834  -12.9959   18.8149 C   0  0  0  0  0  0  0  0  0  0  0  0
    7.8175  -14.3981   20.7986 C   0  0  0  0  0  0  0  0  0  0  0  0
    9.1545  -14.9661   21.0429 C   0  0  2  0  0  0  0  0  0  0  0  0
    8.9628  -16.4396   20.8059 N   0  0  0  0  0  0  0  0  0  0  0  0
    9.7381  -14.8975   22.3757 C   0  0  0  0  0  0  0  0  0  0  0  0
    9.8449  -13.8049   22.9728 O   0  0  0  0  0  0  0  0  0  0  0  0
   10.8194  -15.2719   30.8187 O   0  0  0  0  0  0  0  0  0  0  0  0
   10.5247  -15.2962   29.4490 C   0  0  0  0  0  0  0  0  0  0  0  0
   10.2282  -16.4752   28.7914 C   0  0  0  0  0  0  0  0  0  0  0  0
    9.9350  -16.5256   27.4450 C   0  0  0  0  0  0  0  0  0  0  0  0
    9.9353  -15.3573   26.7175 C   0  0  0  0  0  0  0  0  0  0  0  0
    9.6237  -15.4161   25.2832 C   0  0  0  0  0  0  0  0  0  0  0  0
   10.7370  -15.9817   24.4352 C   0  0  2  0  0  0  0  0  0  0  0  0
   10.2211  -16.0634   23.0791 N   0  0  0  0  0  0  0  0  0  0  0  0
   11.2282  -17.2870   24.8779 C   0  0  0  0  0  0  0  0  0  0  0  0
   10.6117  -18.4629   24.4745 O   0  0  0  0  0  0  0  0  0  0  0  0
   10.2236  -14.1628   27.3267 C   0  0  0  0  0  0  0  0  0  0  0  0
   10.5116  -14.1549   28.6754 C   0  0  0  0  0  0  0  0  0  0  0  0
   12.2239  -17.3873   25.6378 O   0  0  0  0  0  0  0  0  0  0  0  0
  2  1  1  0
  3  2  1  0
  3  4  1  6
  5  3  1  0
  6  5  2  0
  8  7  1  1
  8  9  1  0
 10  8  1  0
 11 10  1  1
 11 12  1  0
 12  5  1  0
 13 11  1  0
 14 13  2  0
 16 17  2  0
 16 15  1  0
 18 17  1  0
 19 18  2  0
 21 20  1  1
 20 19  1  0
 21 22  1  0
 22 13  1  0
 23 21  1  0
 23 24  1  0
 25 19  1  0
 25 26  2  0
 26 16  1  0
 27 23  2  0
M  END
$$$$
