SLY.pdb
     RDKit          3D

 27 27  0  0  1  0  0  0  0  0999 V2000
   10.4252  -19.4320   20.6386 O   0  0  0  0  0  0  0  0  0  0  0  0
   11.5611  -18.8821   20.0450 C   0  0  0  0  0  0  0  0  0  0  0  0
   11.2852  -17.5246   19.4534 C   0  0  2  0  0  0  0  0  0  0  0  0
   12.4528  -16.9759   18.7885 N   0  0  0  0  0  0  0  0  0  0  0  0
   10.8349  -16.6204   20.5309 C   0  0  0  0  0  0  0  0  0  0  0  0
   11.6373  -16.0281   21.2983 O   0  0  0  0  0  0  0  0  0  0  0  0
    6.7018  -13.3294   19.2878 C   0  0  0  0  0  0  0  0  0  0  0  0
    7.9473  -13.8513   19.9157 C   0  0  1  0  0  0  0  0  0  0  0  0
    8.9315  -12.7084   20.2056 C   0  0  0  0  0  0  0  0  0  0  0  0
    7.8146  -14.7718   21.0519 C   0  0  0  0  0  0  0  0  0  0  0  0
    8.9834  -15.3752   21.7151 C   0  0  2  0  0  0  0  0  0  0  0  0
    9.4646  -16.3993   20.7233 N   0  0  0  0  0  0  0  0  0  0  0  0
    8.8062  -16.1339   22.9457 C   0  0  0  0  0  0  0  0  0  0  0  0
    8.6227  -17.3697   22.9157 O   0  0  0  0  0  0  0  0  0  0  0  0
    4.9832  -11.2733   26.9842 O   0  0  0  0  0  0  0  0  0  0  0  0
    5.9458  -12.2871   26.8892 C   0  0  0  0  0  0  0  0  0  0  0  0
    7.2331  -12.1119   27.3610 C   0  0  0  0  0  0  0  0  0  0  0  0
    8.1981  -13.0935   27.2793 C   0  0  0  0  0  0  0  0  0  0  0  0
    7.8744  -14.3018   26.7053 C   0  0  0  0  0  0  0  0  0  0  0  0
    8.9061  -15.3439   26.6193 C   0  0  0  0  0  0  0  0  0  0  0  0
    8.7146  -16.3049   25.4711 C   0  0  2  0  0  0  0  0  0  0  0  0
    8.8306  -15.5202   24.2535 N   0  0  0  0  0  0  0  0  0  0  0  0
    7.4435  -17.0291   25.4970 C   0  0  0  0  0  0  0  0  0  0  0  0
    7.1924  -18.0090   26.4469 O   0  0  0  0  0  0  0  0  0  0  0  0
    6.6096  -14.5220   26.2229 C   0  0  0  0  0  0  0  0  0  0  0  0
    5.6730  -13.5147   26.3235 C   0  0  0  0  0  0  0  0  0  0  0  0
    6.5369  -16.7885   24.6608 O   0  0  0  0  0  0  0  0  0  0  0  0
  2  1  1  0
  3  2  1  0
  3  4  1  1
  5  3  1  0
  6  5  2  0
  8  7  1  1
  8  9  1  0
 10  8  1  0
 11 10  1  6
 11 12  1  0
 12  5  1  0
 13 11  1  0
 14 13  2  0
 16 17  2  0
 16 15  1  0
 18 17  1  0
 19 18  2  0
 21 20  1  1
 20 19  1  0
 21 22  1  0
 22 13  1  0
 23 21  1  0
 23 24  1  0
 25 19  1  0
 25 26  2  0
 26 16  1  0
 27 23  2  0
M  END
$$$$
