SLY.pdb
     RDKit          3D

 27 27  0  0  1  0  0  0  0  0999 V2000
    8.4602  -19.7119   22.6225 O   0  0  0  0  0  0  0  0  0  0  0  0
    7.4685  -18.9833   21.9662 C   0  0  0  0  0  0  0  0  0  0  0  0
    8.0065  -18.2644   20.7567 C   0  0  2  0  0  0  0  0  0  0  0  0
    8.8083  -19.1376   19.9194 N   0  0  0  0  0  0  0  0  0  0  0  0
    8.8072  -17.1088   21.2093 C   0  0  0  0  0  0  0  0  0  0  0  0
   10.0563  -17.0524   21.0674 O   0  0  0  0  0  0  0  0  0  0  0  0
    7.2727  -14.6711   19.7280 C   0  0  0  0  0  0  0  0  0  0  0  0
    7.9736  -13.5442   20.4039 C   0  0  1  0  0  0  0  0  0  0  0  0
    7.2857  -12.2076   20.0891 C   0  0  0  0  0  0  0  0  0  0  0  0
    8.2896  -13.6840   21.8309 C   0  0  0  0  0  0  0  0  0  0  0  0
    8.9715  -14.8723   22.3722 C   0  0  2  0  0  0  0  0  0  0  0  0
    8.1707  -16.0217   21.8231 N   0  0  0  0  0  0  0  0  0  0  0  0
    8.9847  -15.1080   23.8094 C   0  0  0  0  0  0  0  0  0  0  0  0
    8.6347  -14.2132   24.6086 O   0  0  0  0  0  0  0  0  0  0  0  0
    6.5009  -10.9092   26.6807 O   0  0  0  0  0  0  0  0  0  0  0  0
    6.8459  -12.2628   26.5698 C   0  0  0  0  0  0  0  0  0  0  0  0
    7.9083  -12.8007   27.2715 C   0  0  0  0  0  0  0  0  0  0  0  0
    8.2678  -14.1287   27.1796 C   0  0  0  0  0  0  0  0  0  0  0  0
    7.5436  -14.9610   26.3567 C   0  0  0  0  0  0  0  0  0  0  0  0
    7.9312  -16.3746   26.2611 C   0  0  0  0  0  0  0  0  0  0  0  0
    9.3605  -16.5919   25.8272 C   0  0  2  0  0  0  0  0  0  0  0  0
    9.3945  -16.3648   24.3923 N   0  0  0  0  0  0  0  0  0  0  0  0
    9.8940  -17.9153   26.1512 C   0  0  0  0  0  0  0  0  0  0  0  0
   10.3727  -18.7609   25.1605 O   0  0  0  0  0  0  0  0  0  0  0  0
    6.4809  -14.4725   25.6405 C   0  0  0  0  0  0  0  0  0  0  0  0
    6.1535  -13.1381   25.7600 C   0  0  0  0  0  0  0  0  0  0  0  0
    9.9366  -18.3308   27.3363 O   0  0  0  0  0  0  0  0  0  0  0  0
  2  1  1  0
  3  2  1  0
  3  4  1  1
  5  3  1  0
  6  5  2  0
  8  7  1  1
  8  9  1  0
 10  8  1  0
 11 10  1  1
 11 12  1  0
 12  5  1  0
 13 11  1  0
 14 13  2  0
 16 17  2  0
 16 15  1  0
 18 17  1  0
 19 18  2  0
 21 20  1  6
 20 19  1  0
 21 22  1  0
 22 13  1  0
 23 21  1  0
 23 24  1  0
 25 19  1  0
 25 26  2  0
 26 16  1  0
 27 23  2  0
M  END
$$$$
