SLY.pdb
     RDKit          3D

 27 27  0  0  1  0  0  0  0  0999 V2000
    8.6614  -19.2141   22.3069 O   0  0  0  0  0  0  0  0  0  0  0  0
    9.4194  -19.5742   21.1930 C   0  0  0  0  0  0  0  0  0  0  0  0
    9.3359  -18.5425   20.0986 C   0  0  2  0  0  0  0  0  0  0  0  0
   10.1293  -18.9144   18.9416 N   0  0  0  0  0  0  0  0  0  0  0  0
    9.7885  -17.2434   20.6361 C   0  0  0  0  0  0  0  0  0  0  0  0
   10.9813  -16.8522   20.5488 O   0  0  0  0  0  0  0  0  0  0  0  0
    6.6045  -12.9247   19.9891 C   0  0  0  0  0  0  0  0  0  0  0  0
    7.8207  -13.7630   20.1788 C   0  0  1  0  0  0  0  0  0  0  0  0
    9.0214  -13.1568   19.4372 C   0  0  0  0  0  0  0  0  0  0  0  0
    8.1646  -14.1823   21.5433 C   0  0  0  0  0  0  0  0  0  0  0  0
    9.3053  -15.0696   21.8288 C   0  0  2  0  0  0  0  0  0  0  0  0
    8.8696  -16.3979   21.2721 N   0  0  0  0  0  0  0  0  0  0  0  0
    9.6635  -15.3674   23.2088 C   0  0  0  0  0  0  0  0  0  0  0  0
   10.6472  -14.8170   23.7484 O   0  0  0  0  0  0  0  0  0  0  0  0
    6.3982  -10.9138   26.9222 O   0  0  0  0  0  0  0  0  0  0  0  0
    6.7899  -12.2473   26.7436 C   0  0  0  0  0  0  0  0  0  0  0  0
    5.9087  -13.2066   26.2814 C   0  0  0  0  0  0  0  0  0  0  0  0
    6.2694  -14.5247   26.0973 C   0  0  0  0  0  0  0  0  0  0  0  0
    7.5593  -14.9101   26.3834 C   0  0  0  0  0  0  0  0  0  0  0  0
    7.9386  -16.3155   26.1870 C   0  0  0  0  0  0  0  0  0  0  0  0
    9.2315  -16.5033   25.4310 C   0  0  2  0  0  0  0  0  0  0  0  0
    8.9207  -16.2988   24.0263 N   0  0  0  0  0  0  0  0  0  0  0  0
    9.8639  -17.8071   25.6333 C   0  0  0  0  0  0  0  0  0  0  0  0
   10.2364  -18.6013   24.5580 O   0  0  0  0  0  0  0  0  0  0  0  0
    8.4692  -13.9933   26.8446 C   0  0  0  0  0  0  0  0  0  0  0  0
    8.0690  -12.6847   27.0152 C   0  0  0  0  0  0  0  0  0  0  0  0
   10.0910  -18.2517   26.7864 O   0  0  0  0  0  0  0  0  0  0  0  0
  2  1  1  0
  3  2  1  0
  3  4  1  6
  5  3  1  0
  6  5  2  0
  8  7  1  1
  8  9  1  0
 10  8  1  0
 11 10  1  1
 11 12  1  0
 12  5  1  0
 13 11  1  0
 14 13  2  0
 16 17  2  0
 16 15  1  0
 18 17  1  0
 19 18  2  0
 21 20  1  1
 20 19  1  0
 21 22  1  0
 22 13  1  0
 23 21  1  0
 23 24  1  0
 25 19  1  0
 25 26  2  0
 26 16  1  0
 27 23  2  0
M  END
$$$$
