SLY.pdb
     RDKit          3D

 27 27  0  0  1  0  0  0  0  0999 V2000
    8.7840  -18.4845   21.1971 O   0  0  0  0  0  0  0  0  0  0  0  0
    7.4172  -18.2078   21.2130 C   0  0  0  0  0  0  0  0  0  0  0  0
    7.1006  -16.8988   20.5382 C   0  0  2  0  0  0  0  0  0  0  0  0
    7.5524  -16.8769   19.1591 N   0  0  0  0  0  0  0  0  0  0  0  0
    7.7332  -15.8055   21.3037 C   0  0  0  0  0  0  0  0  0  0  0  0
    8.7402  -15.1786   20.8839 O   0  0  0  0  0  0  0  0  0  0  0  0
    7.2065  -11.6923   25.1057 C   0  0  0  0  0  0  0  0  0  0  0  0
    7.1056  -13.1222   25.5095 C   0  0  1  0  0  0  0  0  0  0  0  0
    6.1345  -13.2884   26.6878 C   0  0  0  0  0  0  0  0  0  0  0  0
    6.8802  -14.1224   24.4586 C   0  0  0  0  0  0  0  0  0  0  0  0
    7.8156  -14.3070   23.3357 C   0  0  2  0  0  0  0  0  0  0  0  0
    7.2069  -15.4358   22.5487 N   0  0  0  0  0  0  0  0  0  0  0  0
    9.1779  -14.7531   23.5937 C   0  0  0  0  0  0  0  0  0  0  0  0
   10.1545  -14.0266   23.3102 O   0  0  0  0  0  0  0  0  0  0  0  0
   11.8034  -15.8933   31.6237 O   0  0  0  0  0  0  0  0  0  0  0  0
   11.2441  -15.7507   30.3468 C   0  0  0  0  0  0  0  0  0  0  0  0
   10.9133  -16.8472   29.5730 C   0  0  0  0  0  0  0  0  0  0  0  0
   10.3621  -16.7335   28.3142 C   0  0  0  0  0  0  0  0  0  0  0  0
   10.1281  -15.4790   27.7987 C   0  0  0  0  0  0  0  0  0  0  0  0
    9.5421  -15.3629   26.4567 C   0  0  0  0  0  0  0  0  0  0  0  0
   10.2686  -16.1566   25.3981 C   0  0  2  0  0  0  0  0  0  0  0  0
    9.4825  -16.0372   24.1818 N   0  0  0  0  0  0  0  0  0  0  0  0
   10.4788  -17.5640   25.7384 C   0  0  0  0  0  0  0  0  0  0  0  0
   11.6840  -18.0048   26.2666 O   0  0  0  0  0  0  0  0  0  0  0  0
   10.4402  -14.3612   28.5296 C   0  0  0  0  0  0  0  0  0  0  0  0
   10.9900  -14.5176   29.7847 C   0  0  0  0  0  0  0  0  0  0  0  0
    9.5761  -18.4206   25.5642 O   0  0  0  0  0  0  0  0  0  0  0  0
  2  1  1  0
  3  2  1  0
  3  4  1  6
  5  3  1  0
  6  5  2  0
  8  7  1  6
  8  9  1  0
 10  8  1  0
 11 10  1  1
 11 12  1  0
 12  5  1  0
 13 11  1  0
 14 13  2  0
 16 17  2  0
 16 15  1  0
 18 17  1  0
 19 18  2  0
 21 20  1  1
 20 19  1  0
 21 22  1  0
 22 13  1  0
 23 21  1  0
 23 24  1  0
 25 19  1  0
 25 26  2  0
 26 16  1  0
 27 23  2  0
M  END
$$$$
