WTG.pdb
     RDKit          3D

 26 27  0  0  1  0  0  0  0  0999 V2000
    7.1079  -17.4659   23.3936 N   0  0  0  0  0  0  0  0  0  0  0  0
    7.4199  -16.0817   23.0944 C   0  0  1  0  0  0  0  0  0  0  0  0
    8.2307  -15.4951   24.2456 C   0  0  0  0  0  0  0  0  0  0  0  0
    7.3236  -14.8883   25.2566 C   0  0  0  0  0  0  0  0  0  0  0  0
    6.3015  -15.5190   25.9303 C   0  0  0  0  0  0  0  0  0  0  0  0
    5.7228  -14.6170   26.7577 N   0  0  0  0  0  0  0  0  0  0  0  0
    6.3382  -13.4359   26.6360 C   0  0  0  0  0  0  0  0  0  0  0  0
    6.1476  -12.1967   27.2421 C   0  0  0  0  0  0  0  0  0  0  0  0
    6.9438  -11.1337   26.9199 C   0  0  0  0  0  0  0  0  0  0  0  0
    7.9473  -11.2923   25.9828 C   0  0  0  0  0  0  0  0  0  0  0  0
    8.1499  -12.5153   25.3718 C   0  0  0  0  0  0  0  0  0  0  0  0
    7.3453  -13.5793   25.7012 C   0  0  0  0  0  0  0  0  0  0  0  0
    8.1996  -15.9404   21.8502 C   0  0  0  0  0  0  0  0  0  0  0  0
    8.9683  -16.8823   21.5341 O   0  0  0  0  0  0  0  0  0  0  0  0
    6.8679  -13.8461   18.8505 C   0  0  0  0  0  0  0  0  0  0  0  0
    8.3800  -13.7524   18.8187 C   0  0  1  0  0  0  0  0  0  0  0  0
    8.8000  -12.4604   19.1591 O   0  0  0  0  0  0  0  0  0  0  0  0
    8.9239  -14.7703   19.8007 C   0  0  2  0  0  0  0  0  0  0  0  0
    8.1205  -14.8065   21.0094 N   0  0  0  0  0  0  0  0  0  0  0  0
   10.3340  -14.4062   20.1195 C   0  0  0  0  0  0  0  0  0  0  0  0
   10.6273  -13.7856   21.1619 O   0  0  0  0  0  0  0  0  0  0  0  0
   11.3835  -14.7630   19.2320 N   0  0  0  0  0  0  0  0  0  0  0  0
   12.7928  -14.5530   19.5905 C   0  0  0  0  0  0  0  0  0  0  0  0
   13.6114  -15.0153   18.4444 C   0  0  0  0  0  0  0  0  0  0  0  0
   14.8773  -14.5168   18.1640 O   0  0  0  0  0  0  0  0  0  0  0  0
   13.1409  -15.8984   17.6903 O   0  0  0  0  0  0  0  0  0  0  0  0
  2  1  1  1
  2 13  1  0
  3  2  1  0
  4  3  1  0
  5  4  2  0
  6  7  1  0
  6  5  1  0
  7 12  2  0
  8  7  1  0
  8  9  2  0
  9 10  1  0
 10 11  2  0
 12  4  1  0
 12 11  1  0
 13 19  1  0
 13 14  2  0
 16 15  1  1
 16 17  1  0
 18 16  1  0
 18 19  1  1
 20 18  1  0
 20 21  2  0
 22 20  1  0
 23 22  1  0
 24 23  1  0
 25 24  1  0
 26 24  2  0
M  END
$$$$
