WTG.pdb
     RDKit          3D

 26 27  0  0  1  0  0  0  0  0999 V2000
    6.8009  -17.7752   23.9030 N   0  0  0  0  0  0  0  0  0  0  0  0
    6.9959  -16.4056   23.4685 C   0  0  1  0  0  0  0  0  0  0  0  0
    7.9269  -15.7007   24.4499 C   0  0  0  0  0  0  0  0  0  0  0  0
    7.1354  -14.9341   25.4494 C   0  0  0  0  0  0  0  0  0  0  0  0
    6.0199  -15.3718   26.1279 C   0  0  0  0  0  0  0  0  0  0  0  0
    5.6025  -14.3731   26.9411 N   0  0  0  0  0  0  0  0  0  0  0  0
    6.4104  -13.3160   26.8056 C   0  0  0  0  0  0  0  0  0  0  0  0
    6.4333  -12.0542   27.3944 C   0  0  0  0  0  0  0  0  0  0  0  0
    7.3995  -11.1471   27.0607 C   0  0  0  0  0  0  0  0  0  0  0  0
    8.3625  -11.4875   26.1295 C   0  0  0  0  0  0  0  0  0  0  0  0
    8.3542  -12.7355   25.5357 C   0  0  0  0  0  0  0  0  0  0  0  0
    7.3795  -13.6420   25.8764 C   0  0  0  0  0  0  0  0  0  0  0  0
    7.5871  -16.3255   22.1194 C   0  0  0  0  0  0  0  0  0  0  0  0
    8.2066  -17.3321   21.6940 O   0  0  0  0  0  0  0  0  0  0  0  0
    8.1106  -12.7713   19.8391 C   0  0  0  0  0  0  0  0  0  0  0  0
    7.6299  -14.0288   19.1436 C   0  0  1  0  0  0  0  0  0  0  0  0
    8.1500  -14.1024   17.8453 O   0  0  0  0  0  0  0  0  0  0  0  0
    8.0839  -15.2137   19.9720 C   0  0  2  0  0  0  0  0  0  0  0  0
    7.4882  -15.1808   21.2955 N   0  0  0  0  0  0  0  0  0  0  0  0
    9.5713  -15.1771   20.0658 C   0  0  0  0  0  0  0  0  0  0  0  0
   10.1550  -14.4325   20.8799 O   0  0  0  0  0  0  0  0  0  0  0  0
   10.3623  -15.9988   19.2199 N   0  0  0  0  0  0  0  0  0  0  0  0
   11.8095  -16.1421   19.4287 C   0  0  0  0  0  0  0  0  0  0  0  0
   12.4856  -15.4990   18.2769 C   0  0  0  0  0  0  0  0  0  0  0  0
   13.8623  -15.3301   18.2005 O   0  0  0  0  0  0  0  0  0  0  0  0
   11.7834  -15.0866   17.3245 O   0  0  0  0  0  0  0  0  0  0  0  0
  2  1  1  1
  2 13  1  0
  3  2  1  0
  4  3  1  0
  5  4  2  0
  6  7  1  0
  6  5  1  0
  7 12  2  0
  8  7  1  0
  8  9  2  0
  9 10  1  0
 10 11  2  0
 12  4  1  0
 12 11  1  0
 13 19  1  0
 13 14  2  0
 16 15  1  1
 16 17  1  0
 18 16  1  0
 18 19  1  1
 20 18  1  0
 20 21  2  0
 22 20  1  0
 23 22  1  0
 24 23  1  0
 25 24  1  0
 26 24  2  0
M  END
$$$$
