WTG.pdb
     RDKit          3D

 26 27  0  0  1  0  0  0  0  0999 V2000
    7.1510  -18.3615   25.0372 N   0  0  0  0  0  0  0  0  0  0  0  0
    7.1499  -17.0287   24.4661 C   0  0  1  0  0  0  0  0  0  0  0  0
    7.9604  -16.1017   25.3665 C   0  0  0  0  0  0  0  0  0  0  0  0
    7.1091  -14.9824   25.8517 C   0  0  0  0  0  0  0  0  0  0  0  0
    5.7634  -15.0355   26.1393 C   0  0  0  0  0  0  0  0  0  0  0  0
    5.3716  -13.8065   26.5504 N   0  0  0  0  0  0  0  0  0  0  0  0
    6.4173  -12.9730   26.5353 C   0  0  0  0  0  0  0  0  0  0  0  0
    6.5653  -11.6261   26.8565 C   0  0  0  0  0  0  0  0  0  0  0  0
    7.7815  -11.0128   26.7453 C   0  0  0  0  0  0  0  0  0  0  0  0
    8.8742  -11.7386   26.3095 C   0  0  0  0  0  0  0  0  0  0  0  0
    8.7446  -13.0761   25.9866 C   0  0  0  0  0  0  0  0  0  0  0  0
    7.5185  -13.6855   26.1011 C   0  0  0  0  0  0  0  0  0  0  0  0
    7.7354  -16.9995   23.1125 C   0  0  0  0  0  0  0  0  0  0  0  0
    8.3004  -18.0427   22.6995 O   0  0  0  0  0  0  0  0  0  0  0  0
    7.9244  -13.5665   20.5767 C   0  0  0  0  0  0  0  0  0  0  0  0
    7.5605  -14.9268   20.0168 C   0  0  1  0  0  0  0  0  0  0  0  0
    8.0226  -15.0568   18.7010 O   0  0  0  0  0  0  0  0  0  0  0  0
    8.1887  -15.9751   20.9127 C   0  0  2  0  0  0  0  0  0  0  0  0
    7.6889  -15.8642   22.2712 N   0  0  0  0  0  0  0  0  0  0  0  0
    9.6679  -15.7917   20.8820 C   0  0  0  0  0  0  0  0  0  0  0  0
   10.3198  -15.9275   19.8264 O   0  0  0  0  0  0  0  0  0  0  0  0
   10.3722  -15.4548   22.0682 N   0  0  0  0  0  0  0  0  0  0  0  0
   11.7849  -15.0531   22.0308 C   0  0  0  0  0  0  0  0  0  0  0  0
   12.5956  -16.2938   22.0623 C   0  0  0  0  0  0  0  0  0  0  0  0
   13.9834  -16.2940   22.1229 O   0  0  0  0  0  0  0  0  0  0  0  0
   12.0026  -17.3972   22.0327 O   0  0  0  0  0  0  0  0  0  0  0  0
  2  1  1  1
  2 13  1  0
  3  2  1  0
  4  3  1  0
  5  4  2  0
  6  7  1  0
  6  5  1  0
  7 12  2  0
  8  7  1  0
  8  9  2  0
  9 10  1  0
 10 11  2  0
 12  4  1  0
 12 11  1  0
 13 19  1  0
 13 14  2  0
 16 15  1  1
 16 17  1  0
 18 16  1  0
 18 19  1  1
 20 18  1  0
 20 21  2  0
 22 20  1  0
 23 22  1  0
 24 23  1  0
 25 24  1  0
 26 24  2  0
M  END
$$$$
