WTG.pdb
     RDKit          3D

 26 27  0  0  1  0  0  0  0  0999 V2000
    6.6736  -17.5219   24.1679 N   0  0  0  0  0  0  0  0  0  0  0  0
    7.6051  -16.5716   23.5918 C   0  0  1  0  0  0  0  0  0  0  0  0
    8.2555  -15.7701   24.7150 C   0  0  0  0  0  0  0  0  0  0  0  0
    7.2266  -14.9863   25.4499 C   0  0  0  0  0  0  0  0  0  0  0  0
    6.1138  -15.4839   26.0904 C   0  0  0  0  0  0  0  0  0  0  0  0
    5.4391  -14.4430   26.6327 N   0  0  0  0  0  0  0  0  0  0  0  0
    6.0807  -13.3013   26.3615 C   0  0  0  0  0  0  0  0  0  0  0  0
    5.8252  -11.9686   26.6746 C   0  0  0  0  0  0  0  0  0  0  0  0
    6.6718  -10.9803   26.2573 C   0  0  0  0  0  0  0  0  0  0  0  0
    7.7920  -11.3089   25.5174 C   0  0  0  0  0  0  0  0  0  0  0  0
    8.0603  -12.6265   25.1980 C   0  0  0  0  0  0  0  0  0  0  0  0
    7.2043  -13.6145   25.6212 C   0  0  0  0  0  0  0  0  0  0  0  0
    8.6671  -17.2328   22.8101 C   0  0  0  0  0  0  0  0  0  0  0  0
    8.3766  -18.3044   22.2226 O   0  0  0  0  0  0  0  0  0  0  0  0
    8.6572  -16.9968   20.3309 C   0  0  0  0  0  0  0  0  0  0  0  0
   10.1253  -16.6288   20.2561 C   0  0  1  0  0  0  0  0  0  0  0  0
   10.2781  -15.2466   20.0895 O   0  0  0  0  0  0  0  0  0  0  0  0
   10.7804  -17.0905   21.5422 C   0  0  2  0  0  0  0  0  0  0  0  0
    9.9795  -16.7200   22.6951 N   0  0  0  0  0  0  0  0  0  0  0  0
   12.1350  -16.4737   21.6252 C   0  0  0  0  0  0  0  0  0  0  0  0
   12.2949  -15.3037   22.0294 O   0  0  0  0  0  0  0  0  0  0  0  0
   13.2838  -17.2148   21.2411 N   0  0  0  0  0  0  0  0  0  0  0  0
   14.0598  -17.9857   22.2219 C   0  0  0  0  0  0  0  0  0  0  0  0
   15.0110  -17.0480   22.8647 C   0  0  0  0  0  0  0  0  0  0  0  0
   15.6745  -17.3325   24.0515 O   0  0  0  0  0  0  0  0  0  0  0  0
   15.2289  -15.9444   22.3128 O   0  0  0  0  0  0  0  0  0  0  0  0
  2  1  1  1
  2 13  1  0
  3  2  1  0
  4  3  1  0
  5  4  2  0
  6  7  1  0
  6  5  1  0
  7 12  2  0
  8  7  1  0
  8  9  2  0
  9 10  1  0
 10 11  2  0
 12  4  1  0
 12 11  1  0
 13 19  1  0
 13 14  2  0
 16 15  1  1
 16 17  1  0
 18 16  1  0
 18 19  1  1
 20 18  1  0
 20 21  2  0
 22 20  1  0
 23 22  1  0
 24 23  1  0
 25 24  1  0
 26 24  2  0
M  END
$$$$
