WTG.pdb
     RDKit          3D

 26 27  0  0  1  0  0  0  0  0999 V2000
    6.2909  -16.7751   25.4128 N   0  0  0  0  0  0  0  0  0  0  0  0
    6.9633  -15.7976   24.5791 C   0  0  1  0  0  0  0  0  0  0  0  0
    8.3326  -15.4920   25.1776 C   0  0  0  0  0  0  0  0  0  0  0  0
    8.1865  -14.6347   26.3846 C   0  0  0  0  0  0  0  0  0  0  0  0
    8.7002  -14.8822   27.6381 C   0  0  0  0  0  0  0  0  0  0  0  0
    8.3414  -13.8599   28.4499 N   0  0  0  0  0  0  0  0  0  0  0  0
    7.6185  -12.9709   27.7602 C   0  0  0  0  0  0  0  0  0  0  0  0
    7.0142  -11.7643   28.1039 C   0  0  0  0  0  0  0  0  0  0  0  0
    6.3190  -11.0435   27.1739 C   0  0  0  0  0  0  0  0  0  0  0  0
    6.2160  -11.5186   25.8801 C   0  0  0  0  0  0  0  0  0  0  0  0
    6.8098  -12.7143   25.5224 C   0  0  0  0  0  0  0  0  0  0  0  0
    7.5070  -13.4332   26.4631 C   0  0  0  0  0  0  0  0  0  0  0  0
    7.1508  -16.2760   23.1963 C   0  0  0  0  0  0  0  0  0  0  0  0
    6.7988  -17.4531   22.9343 O   0  0  0  0  0  0  0  0  0  0  0  0
    6.4369  -14.1047   19.9683 C   0  0  0  0  0  0  0  0  0  0  0  0
    7.7305  -14.8753   19.7980 C   0  0  1  0  0  0  0  0  0  0  0  0
    8.8333  -14.0333   19.9889 O   0  0  0  0  0  0  0  0  0  0  0  0
    7.7317  -16.0005   20.8130 C   0  0  2  0  0  0  0  0  0  0  0  0
    7.7017  -15.4784   22.1672 N   0  0  0  0  0  0  0  0  0  0  0  0
    8.9547  -16.8251   20.5963 C   0  0  0  0  0  0  0  0  0  0  0  0
    9.1177  -17.4874   19.5510 O   0  0  0  0  0  0  0  0  0  0  0  0
    9.9704  -16.8734   21.5875 N   0  0  0  0  0  0  0  0  0  0  0  0
   11.1668  -17.7087   21.4165 C   0  0  0  0  0  0  0  0  0  0  0  0
   12.3082  -16.7961   21.1680 C   0  0  0  0  0  0  0  0  0  0  0  0
   13.6219  -17.1174   21.4852 O   0  0  0  0  0  0  0  0  0  0  0  0
   12.0796  -15.6799   20.6465 O   0  0  0  0  0  0  0  0  0  0  0  0
  2  1  1  1
  2 13  1  0
  3  2  1  0
  4  3  1  0
  5  4  2  0
  6  7  1  0
  6  5  1  0
  7 12  2  0
  8  7  1  0
  8  9  2  0
  9 10  1  0
 10 11  2  0
 12  4  1  0
 12 11  1  0
 13 19  1  0
 13 14  2  0
 16 15  1  1
 16 17  1  0
 18 16  1  0
 18 19  1  1
 20 18  1  0
 20 21  2  0
 22 20  1  0
 23 22  1  0
 24 23  1  0
 25 24  1  0
 26 24  2  0
M  END
$$$$
