WTG.pdb
     RDKit          3D

 26 27  0  0  1  0  0  0  0  0999 V2000
    6.4877  -17.8431   24.5351 N   0  0  0  0  0  0  0  0  0  0  0  0
    7.1714  -16.7420   23.8848 C   0  0  1  0  0  0  0  0  0  0  0  0
    8.0169  -16.0030   24.9172 C   0  0  0  0  0  0  0  0  0  0  0  0
    7.1636  -15.0848   25.7186 C   0  0  0  0  0  0  0  0  0  0  0  0
    6.1557  -15.4434   26.5856 C   0  0  0  0  0  0  0  0  0  0  0  0
    5.6296  -14.3120   27.1110 N   0  0  0  0  0  0  0  0  0  0  0  0
    6.2648  -13.2466   26.6108 C   0  0  0  0  0  0  0  0  0  0  0  0
    6.1249  -11.8754   26.8096 C   0  0  0  0  0  0  0  0  0  0  0  0
    6.9302  -10.9900   26.1498 C   0  0  0  0  0  0  0  0  0  0  0  0
    7.8924  -11.4624   25.2772 C   0  0  0  0  0  0  0  0  0  0  0  0
    8.0444  -12.8202   25.0685 C   0  0  0  0  0  0  0  0  0  0  0  0
    7.2309  -13.7040   25.7355 C   0  0  0  0  0  0  0  0  0  0  0  0
    8.0535  -17.1974   22.7937 C   0  0  0  0  0  0  0  0  0  0  0  0
    8.6376  -18.3000   22.9384 O   0  0  0  0  0  0  0  0  0  0  0  0
    7.4402  -16.6175   18.9854 C   0  0  0  0  0  0  0  0  0  0  0  0
    8.9165  -16.4037   19.2518 C   0  0  1  0  0  0  0  0  0  0  0  0
    9.2374  -15.0423   19.1795 O   0  0  0  0  0  0  0  0  0  0  0  0
    9.2186  -16.9541   20.6310 C   0  0  2  0  0  0  0  0  0  0  0  0
    8.2672  -16.4570   21.6084 N   0  0  0  0  0  0  0  0  0  0  0  0
   10.6066  -16.5550   21.0007 C   0  0  0  0  0  0  0  0  0  0  0  0
   10.8348  -15.5107   21.6451 O   0  0  0  0  0  0  0  0  0  0  0  0
   11.7095  -17.3654   20.6220 N   0  0  0  0  0  0  0  0  0  0  0  0
   13.0869  -16.9956   20.9746 C   0  0  0  0  0  0  0  0  0  0  0  0
   13.9750  -18.0637   20.4567 C   0  0  0  0  0  0  0  0  0  0  0  0
   13.5000  -19.2258   19.8622 O   0  0  0  0  0  0  0  0  0  0  0  0
   15.2147  -17.9133   20.5591 O   0  0  0  0  0  0  0  0  0  0  0  0
  2  1  1  1
  2 13  1  0
  3  2  1  0
  4  3  1  0
  5  4  2  0
  6  7  1  0
  6  5  1  0
  7 12  2  0
  8  7  1  0
  8  9  2  0
  9 10  1  0
 10 11  2  0
 12  4  1  0
 12 11  1  0
 13 19  1  0
 13 14  2  0
 16 15  1  1
 16 17  1  0
 18 16  1  0
 18 19  1  1
 20 18  1  0
 20 21  2  0
 22 20  1  0
 23 22  1  0
 24 23  1  0
 25 24  1  0
 26 24  2  0
M  END
$$$$
