WTG.pdb
     RDKit          3D

 26 27  0  0  1  0  0  0  0  0999 V2000
    5.7513  -17.8692   23.8929 N   0  0  0  0  0  0  0  0  0  0  0  0
    6.7557  -16.8397   23.7087 C   0  0  1  0  0  0  0  0  0  0  0  0
    7.4033  -16.5309   25.0548 C   0  0  0  0  0  0  0  0  0  0  0  0
    6.7001  -15.3989   25.7161 C   0  0  0  0  0  0  0  0  0  0  0  0
    5.4509  -15.4302   26.2948 C   0  0  0  0  0  0  0  0  0  0  0  0
    5.1812  -14.1962   26.7819 N   0  0  0  0  0  0  0  0  0  0  0  0
    6.2118  -13.3804   26.5349 C   0  0  0  0  0  0  0  0  0  0  0  0
    6.4504  -12.0372   26.8146 C   0  0  0  0  0  0  0  0  0  0  0  0
    7.6222  -11.4443   26.4362 C   0  0  0  0  0  0  0  0  0  0  0  0
    8.5783  -12.1869   25.7694 C   0  0  0  0  0  0  0  0  0  0  0  0
    8.3574  -13.5210   25.4840 C   0  0  0  0  0  0  0  0  0  0  0  0
    7.1768  -14.1100   25.8678 C   0  0  0  0  0  0  0  0  0  0  0  0
    7.8105  -17.2502   22.7627 C   0  0  0  0  0  0  0  0  0  0  0  0
    7.5054  -18.0872   21.8770 O   0  0  0  0  0  0  0  0  0  0  0  0
    7.8689  -16.2779   20.3838 C   0  0  0  0  0  0  0  0  0  0  0  0
    9.3254  -15.8861   20.5295 C   0  0  1  0  0  0  0  0  0  0  0  0
    9.4387  -14.5346   20.8793 O   0  0  0  0  0  0  0  0  0  0  0  0
    9.9341  -16.7705   21.5989 C   0  0  2  0  0  0  0  0  0  0  0  0
    9.1319  -16.7495   22.8087 N   0  0  0  0  0  0  0  0  0  0  0  0
   11.3156  -16.2847   21.8778 C   0  0  0  0  0  0  0  0  0  0  0  0
   11.5238  -15.1506   22.3558 O   0  0  0  0  0  0  0  0  0  0  0  0
   12.4353  -17.1132   21.6014 N   0  0  0  0  0  0  0  0  0  0  0  0
   13.3755  -17.5064   22.6596 C   0  0  0  0  0  0  0  0  0  0  0  0
   14.4087  -16.4468   22.7456 C   0  0  0  0  0  0  0  0  0  0  0  0
   15.4117  -16.4389   23.7065 O   0  0  0  0  0  0  0  0  0  0  0  0
   14.3778  -15.5117   21.9121 O   0  0  0  0  0  0  0  0  0  0  0  0
  2  1  1  1
  2 13  1  0
  3  2  1  0
  4  3  1  0
  5  4  2  0
  6  7  1  0
  6  5  1  0
  7 12  2  0
  8  7  1  0
  8  9  2  0
  9 10  1  0
 10 11  2  0
 12  4  1  0
 12 11  1  0
 13 19  1  0
 13 14  2  0
 16 15  1  1
 16 17  1  0
 18 16  1  0
 18 19  1  1
 20 18  1  0
 20 21  2  0
 22 20  1  0
 23 22  1  0
 24 23  1  0
 25 24  1  0
 26 24  2  0
M  END
$$$$
