WTG.pdb
     RDKit          3D

 26 27  0  0  1  0  0  0  0  0999 V2000
    7.0638  -18.2933   24.5814 N   0  0  0  0  0  0  0  0  0  0  0  0
    7.2800  -16.9341   24.1248 C   0  0  1  0  0  0  0  0  0  0  0  0
    8.0330  -16.1616   25.2033 C   0  0  0  0  0  0  0  0  0  0  0  0
    7.1377  -15.1552   25.8348 C   0  0  0  0  0  0  0  0  0  0  0  0
    5.8755  -15.3765   26.3389 C   0  0  0  0  0  0  0  0  0  0  0  0
    5.4036  -14.2036   26.8232 N   0  0  0  0  0  0  0  0  0  0  0  0
    6.3181  -13.2439   26.6462 C   0  0  0  0  0  0  0  0  0  0  0  0
    6.3444  -11.8861   26.9544 C   0  0  0  0  0  0  0  0  0  0  0  0
    7.4378  -11.1241   26.6521 C   0  0  0  0  0  0  0  0  0  0  0  0
    8.5272  -11.7089   26.0343 C   0  0  0  0  0  0  0  0  0  0  0  0
    8.5174  -13.0550   25.7215 C   0  0  0  0  0  0  0  0  0  0  0  0
    7.4143  -13.8145   26.0287 C   0  0  0  0  0  0  0  0  0  0  0  0
    8.0627  -16.8814   22.8756 C   0  0  0  0  0  0  0  0  0  0  0  0
    8.3996  -17.9727   22.3526 O   0  0  0  0  0  0  0  0  0  0  0  0
    8.2744  -14.3549   18.7611 C   0  0  0  0  0  0  0  0  0  0  0  0
    7.7842  -14.5481   20.1819 C   0  0  1  0  0  0  0  0  0  0  0  0
    6.4245  -14.8839   20.1917 O   0  0  0  0  0  0  0  0  0  0  0  0
    8.6143  -15.6504   20.8081 C   0  0  2  0  0  0  0  0  0  0  0  0
    8.4450  -15.6726   22.2499 N   0  0  0  0  0  0  0  0  0  0  0  0
   10.0435  -15.4201   20.4518 C   0  0  0  0  0  0  0  0  0  0  0  0
   10.4254  -15.4086   19.2636 O   0  0  0  0  0  0  0  0  0  0  0  0
   11.0098  -15.2068   21.4703 N   0  0  0  0  0  0  0  0  0  0  0  0
   12.4221  -14.9650   21.1460 C   0  0  0  0  0  0  0  0  0  0  0  0
   13.1320  -16.2593   21.2814 C   0  0  0  0  0  0  0  0  0  0  0  0
   14.3197  -16.4050   21.9870 O   0  0  0  0  0  0  0  0  0  0  0  0
   12.6389  -17.2727   20.7337 O   0  0  0  0  0  0  0  0  0  0  0  0
  2  1  1  1
  2 13  1  0
  3  2  1  0
  4  3  1  0
  5  4  2  0
  6  7  1  0
  6  5  1  0
  7 12  2  0
  8  7  1  0
  8  9  2  0
  9 10  1  0
 10 11  2  0
 12  4  1  0
 12 11  1  0
 13 19  1  0
 13 14  2  0
 16 15  1  6
 16 17  1  0
 18 16  1  0
 18 19  1  1
 20 18  1  0
 20 21  2  0
 22 20  1  0
 23 22  1  0
 24 23  1  0
 25 24  1  0
 26 24  2  0
M  END
$$$$
