WTG.pdb
     RDKit          3D

 26 27  0  0  1  0  0  0  0  0999 V2000
    6.9272  -17.8149   24.3606 N   0  0  0  0  0  0  0  0  0  0  0  0
    8.0439  -16.9737   23.9760 C   0  0  1  0  0  0  0  0  0  0  0  0
    8.4983  -16.1664   25.1879 C   0  0  0  0  0  0  0  0  0  0  0  0
    7.3964  -15.2868   25.6624 C   0  0  0  0  0  0  0  0  0  0  0  0
    6.2414  -15.6836   26.2986 C   0  0  0  0  0  0  0  0  0  0  0  0
    5.5044  -14.5788   26.5617 N   0  0  0  0  0  0  0  0  0  0  0  0
    6.1469  -13.4936   26.1167 C   0  0  0  0  0  0  0  0  0  0  0  0
    5.8421  -12.1348   26.1306 C   0  0  0  0  0  0  0  0  0  0  0  0
    6.7041  -11.2219   25.5909 C   0  0  0  0  0  0  0  0  0  0  0  0
    7.8895  -11.6537   25.0262 C   0  0  0  0  0  0  0  0  0  0  0  0
    8.2073  -12.9986   25.0042 C   0  0  0  0  0  0  0  0  0  0  0  0
    7.3354  -13.9102   25.5488 C   0  0  0  0  0  0  0  0  0  0  0  0
    9.1894  -17.7580   23.4772 C   0  0  0  0  0  0  0  0  0  0  0  0
    9.0183  -18.9894   23.2975 O   0  0  0  0  0  0  0  0  0  0  0  0
    8.8906  -17.4289   20.8948 C   0  0  0  0  0  0  0  0  0  0  0  0
   10.3210  -16.9452   20.7675 C   0  0  1  0  0  0  0  0  0  0  0  0
   10.3687  -15.5454   20.7678 O   0  0  0  0  0  0  0  0  0  0  0  0
   11.1024  -17.5095   21.9368 C   0  0  2  0  0  0  0  0  0  0  0  0
   10.4540  -17.1918   23.1964 N   0  0  0  0  0  0  0  0  0  0  0  0
   12.4796  -16.9400   21.8981 C   0  0  0  0  0  0  0  0  0  0  0  0
   13.3109  -17.3022   21.0405 O   0  0  0  0  0  0  0  0  0  0  0  0
   12.8769  -15.9624   22.8483 N   0  0  0  0  0  0  0  0  0  0  0  0
   13.7261  -16.3114   23.9953 C   0  0  0  0  0  0  0  0  0  0  0  0
   15.1341  -16.2425   23.5368 C   0  0  0  0  0  0  0  0  0  0  0  0
   16.2197  -16.3341   24.3986 O   0  0  0  0  0  0  0  0  0  0  0  0
   15.3586  -16.0943   22.3130 O   0  0  0  0  0  0  0  0  0  0  0  0
  2  1  1  1
  2 13  1  0
  3  2  1  0
  4  3  1  0
  5  4  2  0
  6  7  1  0
  6  5  1  0
  7 12  2  0
  8  7  1  0
  8  9  2  0
  9 10  1  0
 10 11  2  0
 12  4  1  0
 12 11  1  0
 13 19  1  0
 13 14  2  0
 16 15  1  1
 16 17  1  0
 18 16  1  0
 18 19  1  1
 20 18  1  0
 20 21  2  0
 22 20  1  0
 23 22  1  0
 24 23  1  0
 25 24  1  0
 26 24  2  0
M  END
$$$$
