WTG.pdb
     RDKit          3D

 26 27  0  0  1  0  0  0  0  0999 V2000
    6.2055  -18.0925   24.6864 N   0  0  0  0  0  0  0  0  0  0  0  0
    6.9795  -16.9437   24.2574 C   0  0  1  0  0  0  0  0  0  0  0  0
    7.7349  -16.3780   25.4558 C   0  0  0  0  0  0  0  0  0  0  0  0
    6.9889  -15.2305   26.0389 C   0  0  0  0  0  0  0  0  0  0  0  0
    5.8248  -15.2917   26.7720 C   0  0  0  0  0  0  0  0  0  0  0  0
    5.4756  -14.0293   27.1143 N   0  0  0  0  0  0  0  0  0  0  0  0
    6.3738  -13.1667   26.6266 C   0  0  0  0  0  0  0  0  0  0  0  0
    6.4907  -11.7802   26.6848 C   0  0  0  0  0  0  0  0  0  0  0  0
    7.5383  -11.1434   26.0807 C   0  0  0  0  0  0  0  0  0  0  0  0
    8.4898  -11.8848   25.4059 C   0  0  0  0  0  0  0  0  0  0  0  0
    8.3886  -13.2615   25.3385 C   0  0  0  0  0  0  0  0  0  0  0  0
    7.3325  -13.8944   25.9484 C   0  0  0  0  0  0  0  0  0  0  0  0
    7.9554  -17.2877   23.2062 C   0  0  0  0  0  0  0  0  0  0  0  0
    8.4074  -18.4597   23.1917 O   0  0  0  0  0  0  0  0  0  0  0  0
    7.6454  -16.1096   19.6047 C   0  0  0  0  0  0  0  0  0  0  0  0
    9.1288  -16.0786   19.9124 C   0  0  1  0  0  0  0  0  0  0  0  0
    9.5840  -14.7574   20.0073 O   0  0  0  0  0  0  0  0  0  0  0  0
    9.3422  -16.8154   21.2193 C   0  0  2  0  0  0  0  0  0  0  0  0
    8.3982  -16.3684   22.2276 N   0  0  0  0  0  0  0  0  0  0  0  0
   10.7429  -16.5743   21.6693 C   0  0  0  0  0  0  0  0  0  0  0  0
   11.0410  -15.5867   22.3719 O   0  0  0  0  0  0  0  0  0  0  0  0
   11.7777  -17.4750   21.3026 N   0  0  0  0  0  0  0  0  0  0  0  0
   13.1182  -17.3825   21.8966 C   0  0  0  0  0  0  0  0  0  0  0  0
   13.9976  -16.7296   20.8977 C   0  0  0  0  0  0  0  0  0  0  0  0
   15.3587  -16.5344   21.0949 O   0  0  0  0  0  0  0  0  0  0  0  0
   13.4909  -16.3334   19.8223 O   0  0  0  0  0  0  0  0  0  0  0  0
  2  1  1  1
  2 13  1  0
  3  2  1  0
  4  3  1  0
  5  4  2  0
  6  7  1  0
  6  5  1  0
  7 12  2  0
  8  7  1  0
  8  9  2  0
  9 10  1  0
 10 11  2  0
 12  4  1  0
 12 11  1  0
 13 19  1  0
 13 14  2  0
 16 15  1  1
 16 17  1  0
 18 16  1  0
 18 19  1  1
 20 18  1  0
 20 21  2  0
 22 20  1  0
 23 22  1  0
 24 23  1  0
 25 24  1  0
 26 24  2  0
M  END
$$$$
