VPE.pdb
     RDKit          3D

 24 24  0  0  1  0  0  0  0  0999 V2000
   16.2571  -11.9010  -13.1942 C   0  0  0  0  0  0  0  0  0  0  0  0
   15.9164  -10.4244  -13.1383 C   0  0  2  0  0  0  0  0  0  0  0  0
   17.2171   -9.6448  -13.0955 C   0  0  0  0  0  0  0  0  0  0  0  0
   15.0534  -10.1906  -11.9195 C   0  0  2  0  0  0  0  0  0  0  0  0
   13.9307  -11.0907  -11.9951 N   0  0  0  0  0  0  0  0  0  0  0  0
   14.6892   -8.7802  -11.7071 C   0  0  0  0  0  0  0  0  0  0  0  0
   13.9281   -8.2388  -12.5689 O   0  0  0  0  0  0  0  0  0  0  0  0
   15.1268   -8.0036  -10.6216 N   0  0  0  0  0  0  0  0  0  0  0  0
   15.9086   -8.5236   -9.4997 C   0  0  0  0  0  0  0  0  0  0  0  0
   15.3275   -7.7836   -8.2918 C   0  0  0  0  0  0  0  0  0  0  0  0
   15.1618   -6.3953   -8.8736 C   0  0  0  0  0  0  0  0  0  0  0  0
   14.9278   -6.6219  -10.3770 C   0  0  1  0  0  0  0  0  0  0  0  0
   15.9321   -5.7517  -11.0549 C   0  0  0  0  0  0  0  0  0  0  0  0
   17.0505   -6.2513  -11.3270 O   0  0  0  0  0  0  0  0  0  0  0  0
   15.6968   -4.4143  -11.4019 N   0  0  0  0  0  0  0  0  0  0  0  0
   16.5417   -3.6209  -12.2873 C   0  0  1  0  0  0  0  0  0  0  0  0
   16.6518   -4.4004  -13.5829 C   0  0  0  0  0  0  0  0  0  0  0  0
   17.4809   -3.6376  -14.5961 C   0  0  0  0  0  0  0  0  0  0  0  0
   17.6320   -4.4415  -15.8241 C   0  0  0  0  0  0  0  0  0  0  0  0
   17.5324   -5.6899  -15.8036 O   0  0  0  0  0  0  0  0  0  0  0  0
   15.9721   -2.3069  -12.5769 C   0  0  0  0  0  0  0  0  0  0  0  0
   16.7966   -1.2475  -12.8867 O   0  0  0  0  0  0  0  0  0  0  0  0
   17.8889   -3.8249  -17.0325 O   0  0  0  0  0  0  0  0  0  0  0  0
   14.7385   -2.1313  -12.5468 O   0  0  0  0  0  0  0  0  0  0  0  0
  2  1  1  1
  2  3  1  0
  4  2  1  0
  4  5  1  6
  6  8  1  0
  6  4  1  0
  7  6  2  0
  8 12  1  0
  9 10  1  0
  9  8  1  0
 10 11  1  0
 11 12  1  0
 12 13  1  6
 13 14  2  0
 15 13  1  0
 15 16  1  0
 16 21  1  0
 16 17  1  6
 18 17  1  0
 19 20  2  0
 19 18  1  0
 21 22  1  0
 23 19  1  0
 24 21  2  0
M  END
$$$$
