VPE.pdb
     RDKit          3D

 24 24  0  0  1  0  0  0  0  0999 V2000
   23.8108   -9.9704  -15.1314 C   0  0  0  0  0  0  0  0  0  0  0  0
   23.0122  -11.2592  -15.1028 C   0  0  2  0  0  0  0  0  0  0  0  0
   23.9764  -12.4022  -14.8472 C   0  0  0  0  0  0  0  0  0  0  0  0
   22.2879  -11.3886  -16.4233 C   0  0  2  0  0  0  0  0  0  0  0  0
   23.2665  -11.6995  -17.4342 N   0  0  0  0  0  0  0  0  0  0  0  0
   21.4237  -10.2412  -16.7455 C   0  0  0  0  0  0  0  0  0  0  0  0
   21.9184   -9.3261  -17.4754 O   0  0  0  0  0  0  0  0  0  0  0  0
   20.0995  -10.0969  -16.3001 N   0  0  0  0  0  0  0  0  0  0  0  0
   19.3871  -11.0930  -15.4998 C   0  0  0  0  0  0  0  0  0  0  0  0
   17.9670  -11.0546  -16.0712 C   0  0  0  0  0  0  0  0  0  0  0  0
   17.7852   -9.5626  -16.2554 C   0  0  0  0  0  0  0  0  0  0  0  0
   19.2023   -9.0195  -16.5070 C   0  0  1  0  0  0  0  0  0  0  0  0
   19.3686   -7.9147  -15.5185 C   0  0  0  0  0  0  0  0  0  0  0  0
   19.9827   -8.1692  -14.4542 O   0  0  0  0  0  0  0  0  0  0  0  0
   18.8788   -6.6157  -15.7116 N   0  0  0  0  0  0  0  0  0  0  0  0
   19.1077   -5.4946  -14.8073 C   0  0  1  0  0  0  0  0  0  0  0  0
   20.3894   -4.8293  -15.2691 C   0  0  0  0  0  0  0  0  0  0  0  0
   20.7968   -3.7308  -14.3083 C   0  0  0  0  0  0  0  0  0  0  0  0
   22.0503   -3.1039  -14.7695 C   0  0  0  0  0  0  0  0  0  0  0  0
   23.0317   -3.7941  -15.1290 O   0  0  0  0  0  0  0  0  0  0  0  0
   18.0274   -4.5117  -14.8482 C   0  0  0  0  0  0  0  0  0  0  0  0
   17.7107   -3.7832  -13.7225 O   0  0  0  0  0  0  0  0  0  0  0  0
   22.1655   -1.7287  -14.8138 O   0  0  0  0  0  0  0  0  0  0  0  0
   17.3831   -4.3226  -15.8984 O   0  0  0  0  0  0  0  0  0  0  0  0
  2  1  1  6
  2  3  1  0
  4  2  1  0
  4  5  1  6
  6  8  1  0
  6  4  1  0
  7  6  2  0
  8 12  1  0
  9 10  1  0
  9  8  1  0
 10 11  1  0
 11 12  1  0
 12 13  1  1
 13 14  2  0
 15 13  1  0
 15 16  1  0
 16 21  1  0
 16 17  1  6
 18 17  1  0
 19 20  2  0
 19 18  1  0
 21 22  1  0
 23 19  1  0
 24 21  2  0
M  END
$$$$
