VPE.pdb
     RDKit          3D

 24 24  0  0  1  0  0  0  0  0999 V2000
   25.0399  -14.0647  -17.0191 C   0  0  0  0  0  0  0  0  0  0  0  0
   24.5285  -12.6373  -16.9957 C   0  0  2  0  0  0  0  0  0  0  0  0
   24.7873  -12.0696  -15.6129 C   0  0  0  0  0  0  0  0  0  0  0  0
   23.0600  -12.6620  -17.3530 C   0  0  2  0  0  0  0  0  0  0  0  0
   22.9314  -13.2842  -18.6464 N   0  0  0  0  0  0  0  0  0  0  0  0
   22.3953  -11.3536  -17.2385 C   0  0  0  0  0  0  0  0  0  0  0  0
   22.6284  -10.4998  -18.1506 O   0  0  0  0  0  0  0  0  0  0  0  0
   21.5281  -10.9941  -16.1938 N   0  0  0  0  0  0  0  0  0  0  0  0
   21.1972  -11.8616  -15.0633 C   0  0  0  0  0  0  0  0  0  0  0  0
   19.7088  -11.5870  -14.8315 C   0  0  0  0  0  0  0  0  0  0  0  0
   19.6741  -10.0847  -15.0194 C   0  0  0  0  0  0  0  0  0  0  0  0
   20.8184   -9.7824  -16.0020 C   0  0  1  0  0  0  0  0  0  0  0  0
   21.6277   -8.7240  -15.3313 C   0  0  0  0  0  0  0  0  0  0  0  0
   22.5818   -9.0902  -14.6032 O   0  0  0  0  0  0  0  0  0  0  0  0
   21.3821   -7.3508  -15.4682 N   0  0  0  0  0  0  0  0  0  0  0  0
   22.2501   -6.2934  -14.9626 C   0  0  1  0  0  0  0  0  0  0  0  0
   22.5481   -5.3868  -16.1407 C   0  0  0  0  0  0  0  0  0  0  0  0
   23.4476   -4.2426  -15.7196 C   0  0  0  0  0  0  0  0  0  0  0  0
   23.7078   -3.3614  -16.8741 C   0  0  0  0  0  0  0  0  0  0  0  0
   23.1028   -2.2736  -17.0145 O   0  0  0  0  0  0  0  0  0  0  0  0
   21.6158   -5.5025  -13.9103 C   0  0  0  0  0  0  0  0  0  0  0  0
   22.3858   -4.8783  -12.9536 O   0  0  0  0  0  0  0  0  0  0  0  0
   24.6337   -3.7240  -17.8319 O   0  0  0  0  0  0  0  0  0  0  0  0
   20.3756   -5.3849  -13.8675 O   0  0  0  0  0  0  0  0  0  0  0  0
  2  1  1  1
  2  3  1  0
  4  2  1  0
  4  5  1  6
  6  8  1  0
  6  4  1  0
  7  6  2  0
  8 12  1  0
  9 10  1  0
  9  8  1  0
 10 11  1  0
 11 12  1  0
 12 13  1  1
 13 14  2  0
 15 13  1  0
 15 16  1  0
 16 21  1  0
 16 17  1  6
 18 17  1  0
 19 20  2  0
 19 18  1  0
 21 22  1  0
 23 19  1  0
 24 21  2  0
M  END
$$$$
