VPE.pdb
     RDKit          3D

 24 24  0  0  1  0  0  0  0  0999 V2000
   14.5929  -12.2048  -11.3336 C   0  0  0  0  0  0  0  0  0  0  0  0
   15.3184  -10.9317  -11.7241 C   0  0  2  0  0  0  0  0  0  0  0  0
   16.7563  -11.0491  -11.2546 C   0  0  0  0  0  0  0  0  0  0  0  0
   14.5898   -9.7674  -11.0929 C   0  0  2  0  0  0  0  0  0  0  0  0
   13.2119   -9.8313  -11.5100 N   0  0  0  0  0  0  0  0  0  0  0  0
   15.2349   -8.4641  -11.3219 C   0  0  0  0  0  0  0  0  0  0  0  0
   15.2463   -8.0209  -12.5129 O   0  0  0  0  0  0  0  0  0  0  0  0
   15.8326   -7.6882  -10.3153 N   0  0  0  0  0  0  0  0  0  0  0  0
   15.7855   -8.0117   -8.8894 C   0  0  0  0  0  0  0  0  0  0  0  0
   15.6164   -6.6438   -8.2226 C   0  0  0  0  0  0  0  0  0  0  0  0
   16.5674   -5.8118   -9.0572 C   0  0  0  0  0  0  0  0  0  0  0  0
   16.5762   -6.4880  -10.4389 C   0  0  1  0  0  0  0  0  0  0  0  0
   18.0187   -6.7159  -10.7430 C   0  0  0  0  0  0  0  0  0  0  0  0
   18.6394   -7.5519  -10.0427 O   0  0  0  0  0  0  0  0  0  0  0  0
   18.7152   -6.0508  -11.7614 N   0  0  0  0  0  0  0  0  0  0  0  0
   20.0818   -6.3524  -12.1722 C   0  0  1  0  0  0  0  0  0  0  0  0
   19.9730   -7.2783  -13.3677 C   0  0  0  0  0  0  0  0  0  0  0  0
   21.3477   -7.7169  -13.8300 C   0  0  0  0  0  0  0  0  0  0  0  0
   21.2187   -8.6389  -14.9747 C   0  0  0  0  0  0  0  0  0  0  0  0
   20.0978   -9.0254  -15.3786 O   0  0  0  0  0  0  0  0  0  0  0  0
   20.8243   -5.1582  -12.5693 C   0  0  0  0  0  0  0  0  0  0  0  0
   22.2017   -5.1581  -12.5422 O   0  0  0  0  0  0  0  0  0  0  0  0
   22.3445   -9.0977  -15.6293 O   0  0  0  0  0  0  0  0  0  0  0  0
   20.2212   -4.1306  -12.9354 O   0  0  0  0  0  0  0  0  0  0  0  0
  2  1  1  1
  2  3  1  0
  4  2  1  0
  4  5  1  6
  6  8  1  0
  6  4  1  0
  7  6  2  0
  8 12  1  0
  9 10  1  0
  9  8  1  0
 10 11  1  0
 11 12  1  0
 12 13  1  1
 13 14  2  0
 15 13  1  0
 15 16  1  0
 16 21  1  0
 16 17  1  6
 18 17  1  0
 19 20  2  0
 19 18  1  0
 21 22  1  0
 23 19  1  0
 24 21  2  0
M  END
$$$$
