VPE.pdb
     RDKit          3D

 24 24  0  0  1  0  0  0  0  0999 V2000
   18.8988  -12.2870  -20.2919 C   0  0  0  0  0  0  0  0  0  0  0  0
   19.5058  -11.3571  -19.2591 C   0  0  2  0  0  0  0  0  0  0  0  0
   19.5097   -9.9543  -19.8366 C   0  0  0  0  0  0  0  0  0  0  0  0
   20.8938  -11.8612  -18.9362 C   0  0  2  0  0  0  0  0  0  0  0  0
   20.7648  -13.1880  -18.3892 N   0  0  0  0  0  0  0  0  0  0  0  0
   21.6877  -10.9370  -18.1099 C   0  0  0  0  0  0  0  0  0  0  0  0
   21.4932  -10.9646  -16.8543 O   0  0  0  0  0  0  0  0  0  0  0  0
   22.6370  -10.0356  -18.6186 N   0  0  0  0  0  0  0  0  0  0  0  0
   22.9958   -9.9290  -20.0328 C   0  0  0  0  0  0  0  0  0  0  0  0
   24.5079   -9.6910  -19.9963 C   0  0  0  0  0  0  0  0  0  0  0  0
   24.6059   -8.7241  -18.8350 C   0  0  0  0  0  0  0  0  0  0  0  0
   23.4176   -9.0777  -17.9244 C   0  0  1  0  0  0  0  0  0  0  0  0
   22.7072   -7.7846  -17.7046 C   0  0  0  0  0  0  0  0  0  0  0  0
   21.7147   -7.5316  -18.4296 O   0  0  0  0  0  0  0  0  0  0  0  0
   23.0855   -6.8417  -16.7390 N   0  0  0  0  0  0  0  0  0  0  0  0
   22.4050   -5.5743  -16.4988 C   0  0  1  0  0  0  0  0  0  0  0  0
   21.0639   -5.9207  -15.8824 C   0  0  0  0  0  0  0  0  0  0  0  0
   21.2528   -6.6238  -14.5536 C   0  0  0  0  0  0  0  0  0  0  0  0
   19.9396   -6.8665  -13.9262 C   0  0  0  0  0  0  0  0  0  0  0  0
   19.3295   -5.9582  -13.3165 O   0  0  0  0  0  0  0  0  0  0  0  0
   23.1373   -4.7110  -15.5750 C   0  0  0  0  0  0  0  0  0  0  0  0
   22.7018   -3.4262  -15.3348 O   0  0  0  0  0  0  0  0  0  0  0  0
   19.3525   -8.1139  -14.0007 O   0  0  0  0  0  0  0  0  0  0  0  0
   24.1603   -5.1265  -14.9966 O   0  0  0  0  0  0  0  0  0  0  0  0
  2  1  1  6
  2  3  1  0
  4  2  1  0
  4  5  1  1
  6  8  1  0
  6  4  1  0
  7  6  2  0
  8 12  1  0
  9 10  1  0
  9  8  1  0
 10 11  1  0
 11 12  1  0
 12 13  1  6
 13 14  2  0
 15 13  1  0
 15 16  1  0
 16 21  1  0
 16 17  1  1
 18 17  1  0
 19 20  2  0
 19 18  1  0
 21 22  1  0
 23 19  1  0
 24 21  2  0
M  END
$$$$
