VPE.pdb
     RDKit          3D

 24 24  0  0  1  0  0  0  0  0999 V2000
   16.6763  -11.6934  -15.5175 C   0  0  0  0  0  0  0  0  0  0  0  0
   17.0375  -12.4923  -16.7548 C   0  0  2  0  0  0  0  0  0  0  0  0
   16.1394  -13.7141  -16.8022 C   0  0  0  0  0  0  0  0  0  0  0  0
   18.5044  -12.8470  -16.6692 C   0  0  2  0  0  0  0  0  0  0  0  0
   18.6515  -13.8767  -15.6719 N   0  0  0  0  0  0  0  0  0  0  0  0
   19.3896  -11.6861  -16.4802 C   0  0  0  0  0  0  0  0  0  0  0  0
   19.8329  -11.4762  -15.3078 O   0  0  0  0  0  0  0  0  0  0  0  0
   19.7704  -10.8048  -17.5054 N   0  0  0  0  0  0  0  0  0  0  0  0
   19.3456  -10.9312  -18.8995 C   0  0  0  0  0  0  0  0  0  0  0  0
   20.5982  -10.5374  -19.6872 C   0  0  0  0  0  0  0  0  0  0  0  0
   21.0835   -9.3636  -18.8626 C   0  0  0  0  0  0  0  0  0  0  0  0
   20.6005   -9.6584  -17.4322 C   0  0  1  0  0  0  0  0  0  0  0  0
   19.8703   -8.4265  -17.0145 C   0  0  0  0  0  0  0  0  0  0  0  0
   18.6218   -8.4152  -17.1405 O   0  0  0  0  0  0  0  0  0  0  0  0
   20.4983   -7.2871  -16.4930 N   0  0  0  0  0  0  0  0  0  0  0  0
   19.8065   -6.0819  -16.0503 C   0  0  1  0  0  0  0  0  0  0  0  0
   20.3239   -5.7807  -14.6575 C   0  0  0  0  0  0  0  0  0  0  0  0
   21.8170   -5.5248  -14.6864 C   0  0  0  0  0  0  0  0  0  0  0  0
   22.2879   -5.1646  -13.3353 C   0  0  0  0  0  0  0  0  0  0  0  0
   23.3038   -5.6989  -12.8339 O   0  0  0  0  0  0  0  0  0  0  0  0
   20.0772   -4.9322  -16.9105 C   0  0  0  0  0  0  0  0  0  0  0  0
   19.3242   -3.7848  -16.7905 O   0  0  0  0  0  0  0  0  0  0  0  0
   21.6093   -4.2208  -12.5902 O   0  0  0  0  0  0  0  0  0  0  0  0
   20.9892   -4.9774  -17.7590 O   0  0  0  0  0  0  0  0  0  0  0  0
  2  1  1  1
  2  3  1  0
  4  2  1  0
  4  5  1  1
  6  8  1  0
  6  4  1  0
  7  6  2  0
  8 12  1  0
  9 10  1  0
  9  8  1  0
 10 11  1  0
 11 12  1  0
 12 13  1  6
 13 14  2  0
 15 13  1  0
 15 16  1  0
 16 21  1  0
 16 17  1  1
 18 17  1  0
 19 20  2  0
 19 18  1  0
 21 22  1  0
 23 19  1  0
 24 21  2  0
M  END
$$$$
