VPE.pdb
     RDKit          3D

 24 24  0  0  1  0  0  0  0  0999 V2000
   20.7830   -8.2817  -19.0204 C   0  0  0  0  0  0  0  0  0  0  0  0
   22.1698   -8.0012  -18.4749 C   0  0  2  0  0  0  0  0  0  0  0  0
   23.1819   -8.5337  -19.4717 C   0  0  0  0  0  0  0  0  0  0  0  0
   22.2802   -8.6612  -17.1194 C   0  0  2  0  0  0  0  0  0  0  0  0
   22.3380  -10.0861  -17.3264 N   0  0  0  0  0  0  0  0  0  0  0  0
   21.2530   -8.2272  -16.1584 C   0  0  0  0  0  0  0  0  0  0  0  0
   20.2610   -9.0005  -15.9769 O   0  0  0  0  0  0  0  0  0  0  0  0
   21.3013   -7.0230  -15.4370 N   0  0  0  0  0  0  0  0  0  0  0  0
   22.4245   -6.0865  -15.4727 C   0  0  0  0  0  0  0  0  0  0  0  0
   22.5280   -5.6041  -14.0232 C   0  0  0  0  0  0  0  0  0  0  0  0
   21.0616   -5.4384  -13.6835 C   0  0  0  0  0  0  0  0  0  0  0  0
   20.3328   -6.4684  -14.5634 C   0  0  1  0  0  0  0  0  0  0  0  0
   19.2778   -5.6868  -15.2715 C   0  0  0  0  0  0  0  0  0  0  0  0
   19.6241   -5.0016  -16.2640 O   0  0  0  0  0  0  0  0  0  0  0  0
   17.9289   -5.6752  -14.8909 N   0  0  0  0  0  0  0  0  0  0  0  0
   16.8656   -4.9805  -15.6078 C   0  0  1  0  0  0  0  0  0  0  0  0
   15.5932   -5.7618  -15.3448 C   0  0  0  0  0  0  0  0  0  0  0  0
   14.4312   -5.1631  -16.1111 C   0  0  0  0  0  0  0  0  0  0  0  0
   13.2418   -6.0243  -15.9671 C   0  0  0  0  0  0  0  0  0  0  0  0
   13.2767   -7.0781  -15.2910 O   0  0  0  0  0  0  0  0  0  0  0  0
   16.6787   -3.6083  -15.1416 C   0  0  0  0  0  0  0  0  0  0  0  0
   16.2555   -2.6314  -16.0158 O   0  0  0  0  0  0  0  0  0  0  0  0
   12.0545   -5.6800  -16.5822 O   0  0  0  0  0  0  0  0  0  0  0  0
   16.8996   -3.3085  -13.9521 O   0  0  0  0  0  0  0  0  0  0  0  0
  2  1  1  6
  2  3  1  0
  4  2  1  0
  4  5  1  6
  6  8  1  0
  6  4  1  0
  7  6  2  0
  8 12  1  0
  9 10  1  0
  9  8  1  0
 10 11  1  0
 11 12  1  0
 12 13  1  6
 13 14  2  0
 15 13  1  0
 15 16  1  0
 16 21  1  0
 16 17  1  1
 18 17  1  0
 19 20  2  0
 19 18  1  0
 21 22  1  0
 23 19  1  0
 24 21  2  0
M  END
$$$$
