VPE.pdb
     RDKit          3D

 24 24  0  0  1  0  0  0  0  0999 V2000
   23.6106  -12.3635  -14.4349 C   0  0  0  0  0  0  0  0  0  0  0  0
   22.8733  -13.5237  -15.0750 C   0  0  2  0  0  0  0  0  0  0  0  0
   23.5516  -14.8083  -14.6378 C   0  0  0  0  0  0  0  0  0  0  0  0
   22.9038  -13.3262  -16.5734 C   0  0  2  0  0  0  0  0  0  0  0  0
   24.2534  -13.5594  -17.0213 N   0  0  0  0  0  0  0  0  0  0  0  0
   22.3274  -12.0471  -17.0191 C   0  0  0  0  0  0  0  0  0  0  0  0
   23.1320  -11.1672  -17.4589 O   0  0  0  0  0  0  0  0  0  0  0  0
   20.9567  -11.7423  -16.9885 N   0  0  0  0  0  0  0  0  0  0  0  0
   19.9056  -12.7081  -16.6681 C   0  0  0  0  0  0  0  0  0  0  0  0
   18.7769  -12.3342  -17.6328 C   0  0  0  0  0  0  0  0  0  0  0  0
   18.8418  -10.8230  -17.5592 C   0  0  0  0  0  0  0  0  0  0  0  0
   20.3132  -10.5053  -17.2422 C   0  0  1  0  0  0  0  0  0  0  0  0
   20.2620   -9.6109  -16.0494 C   0  0  0  0  0  0  0  0  0  0  0  0
   20.3602  -10.1406  -14.9161 O   0  0  0  0  0  0  0  0  0  0  0  0
   20.1103   -8.2195  -16.1244 N   0  0  0  0  0  0  0  0  0  0  0  0
   20.0523   -7.3233  -14.9752 C   0  0  1  0  0  0  0  0  0  0  0  0
   21.1786   -6.3247  -15.1561 C   0  0  0  0  0  0  0  0  0  0  0  0
   21.2452   -5.3759  -13.9766 C   0  0  0  0  0  0  0  0  0  0  0  0
   22.3323   -4.3997  -14.1823 C   0  0  0  0  0  0  0  0  0  0  0  0
   22.2365   -3.2199  -13.7727 O   0  0  0  0  0  0  0  0  0  0  0  0
   18.7878   -6.5954  -14.8951 C   0  0  0  0  0  0  0  0  0  0  0  0
   18.3106   -6.1680  -13.6755 O   0  0  0  0  0  0  0  0  0  0  0  0
   23.4887   -4.7734  -14.8376 O   0  0  0  0  0  0  0  0  0  0  0  0
   18.1299   -6.3545  -15.9260 O   0  0  0  0  0  0  0  0  0  0  0  0
  2  1  1  1
  2  3  1  0
  4  2  1  0
  4  5  1  1
  6  8  1  0
  6  4  1  0
  7  6  2  0
  8 12  1  0
  9 10  1  0
  9  8  1  0
 10 11  1  0
 11 12  1  0
 12 13  1  1
 13 14  2  0
 15 13  1  0
 15 16  1  0
 16 21  1  0
 16 17  1  6
 18 17  1  0
 19 20  2  0
 19 18  1  0
 21 22  1  0
 23 19  1  0
 24 21  2  0
M  END
$$$$
