VPE.pdb
     RDKit          3D

 24 24  0  0  1  0  0  0  0  0999 V2000
   19.1574  -10.5348  -18.4418 C   0  0  0  0  0  0  0  0  0  0  0  0
   20.1103  -11.7141  -18.4685 C   0  0  2  0  0  0  0  0  0  0  0  0
   19.6742  -12.6437  -19.5853 C   0  0  0  0  0  0  0  0  0  0  0  0
   20.0733  -12.3745  -17.1092 C   0  0  2  0  0  0  0  0  0  0  0  0
   18.8080  -13.0524  -16.9828 N   0  0  0  0  0  0  0  0  0  0  0  0
   20.3909  -11.4664  -15.9951 C   0  0  0  0  0  0  0  0  0  0  0  0
   19.4143  -10.9782  -15.3447 O   0  0  0  0  0  0  0  0  0  0  0  0
   21.6938  -11.1096  -15.6104 N   0  0  0  0  0  0  0  0  0  0  0  0
   22.9086  -11.7016  -16.1706 C   0  0  0  0  0  0  0  0  0  0  0  0
   23.8352  -11.8200  -14.9573 C   0  0  0  0  0  0  0  0  0  0  0  0
   23.5576  -10.4997  -14.2696 C   0  0  0  0  0  0  0  0  0  0  0  0
   22.1090  -10.1513  -14.6523 C   0  0  1  0  0  0  0  0  0  0  0  0
   22.1813   -8.7646  -15.1974 C   0  0  0  0  0  0  0  0  0  0  0  0
   22.1511   -8.6234  -16.4438 O   0  0  0  0  0  0  0  0  0  0  0  0
   22.2814   -7.6173  -14.3984 N   0  0  0  0  0  0  0  0  0  0  0  0
   22.0038   -6.2588  -14.8507 C   0  0  1  0  0  0  0  0  0  0  0  0
   20.5396   -6.2310  -15.2431 C   0  0  0  0  0  0  0  0  0  0  0  0
   20.1282   -4.8372  -15.6718 C   0  0  0  0  0  0  0  0  0  0  0  0
   18.6956   -4.8261  -16.0249 C   0  0  0  0  0  0  0  0  0  0  0  0
   18.0479   -5.8898  -16.1585 O   0  0  0  0  0  0  0  0  0  0  0  0
   22.2285   -5.2629  -13.8052 C   0  0  0  0  0  0  0  0  0  0  0  0
   22.6285   -3.9874  -14.1382 O   0  0  0  0  0  0  0  0  0  0  0  0
   18.0353   -3.6288  -16.2166 O   0  0  0  0  0  0  0  0  0  0  0  0
   22.0613   -5.5562  -12.6054 O   0  0  0  0  0  0  0  0  0  0  0  0
  2  1  1  1
  2  3  1  0
  4  2  1  0
  4  5  1  1
  6  8  1  0
  6  4  1  0
  7  6  2  0
  8 12  1  0
  9 10  1  0
  9  8  1  0
 10 11  1  0
 11 12  1  0
 12 13  1  6
 13 14  2  0
 15 13  1  0
 15 16  1  0
 16 21  1  0
 16 17  1  1
 18 17  1  0
 19 20  2  0
 19 18  1  0
 21 22  1  0
 23 19  1  0
 24 21  2  0
M  END
$$$$
