VPE.pdb
     RDKit          3D

 24 24  0  0  1  0  0  0  0  0999 V2000
   13.5371  -11.4354  -10.3893 C   0  0  0  0  0  0  0  0  0  0  0  0
   13.6693  -12.3432  -11.5968 C   0  0  2  0  0  0  0  0  0  0  0  0
   12.6887  -13.4889  -11.4311 C   0  0  0  0  0  0  0  0  0  0  0  0
   15.1053  -12.8085  -11.6756 C   0  0  2  0  0  0  0  0  0  0  0  0
   15.3336  -13.7209  -10.5839 N   0  0  0  0  0  0  0  0  0  0  0  0
   16.0841  -11.7128  -11.7675 C   0  0  0  0  0  0  0  0  0  0  0  0
   16.6360  -11.3324  -10.6878 O   0  0  0  0  0  0  0  0  0  0  0  0
   16.4418  -11.0680  -12.9629 N   0  0  0  0  0  0  0  0  0  0  0  0
   15.9355  -11.4424  -14.2834 C   0  0  0  0  0  0  0  0  0  0  0  0
   17.1570  -11.2721  -15.1909 C   0  0  0  0  0  0  0  0  0  0  0  0
   17.7333   -9.9857  -14.6375 C   0  0  0  0  0  0  0  0  0  0  0  0
   17.3192   -9.9719  -13.1560 C   0  0  1  0  0  0  0  0  0  0  0  0
   16.6625   -8.6476  -12.9557 C   0  0  0  0  0  0  0  0  0  0  0  0
   15.4218   -8.6320  -12.7688 O   0  0  0  0  0  0  0  0  0  0  0  0
   17.3509   -7.4267  -12.9654 N   0  0  0  0  0  0  0  0  0  0  0  0
   16.8552   -6.1846  -12.3835 C   0  0  1  0  0  0  0  0  0  0  0  0
   16.7788   -6.4156  -10.8871 C   0  0  0  0  0  0  0  0  0  0  0  0
   16.3668   -5.1453  -10.1713 C   0  0  0  0  0  0  0  0  0  0  0  0
   16.3868   -5.3656   -8.7125 C   0  0  0  0  0  0  0  0  0  0  0  0
   16.8487   -6.4195   -8.2176 O   0  0  0  0  0  0  0  0  0  0  0  0
   17.7428   -5.0524  -12.6391 C   0  0  0  0  0  0  0  0  0  0  0  0
   17.2247   -3.7832  -12.7759 O   0  0  0  0  0  0  0  0  0  0  0  0
   15.8910   -4.4026   -7.8562 O   0  0  0  0  0  0  0  0  0  0  0  0
   18.9738   -5.2225  -12.7357 O   0  0  0  0  0  0  0  0  0  0  0  0
  2  1  1  1
  2  3  1  0
  4  2  1  0
  4  5  1  1
  6  8  1  0
  6  4  1  0
  7  6  2  0
  8 12  1  0
  9 10  1  0
  9  8  1  0
 10 11  1  0
 11 12  1  0
 12 13  1  6
 13 14  2  0
 15 13  1  0
 15 16  1  0
 16 21  1  0
 16 17  1  1
 18 17  1  0
 19 20  2  0
 19 18  1  0
 21 22  1  0
 23 19  1  0
 24 21  2  0
M  END
$$$$
