VPE.pdb
     RDKit          3D

 24 24  0  0  1  0  0  0  0  0999 V2000
   16.8811  -11.9948  -15.9990 C   0  0  0  0  0  0  0  0  0  0  0  0
   17.2915  -12.8025  -17.2150 C   0  0  2  0  0  0  0  0  0  0  0  0
   16.1765  -13.7838  -17.5239 C   0  0  0  0  0  0  0  0  0  0  0  0
   18.6024  -13.4863  -16.9001 C   0  0  2  0  0  0  0  0  0  0  0  0
   18.3277  -14.5671  -15.9876 N   0  0  0  0  0  0  0  0  0  0  0  0
   19.6629  -12.5680  -16.4539 C   0  0  0  0  0  0  0  0  0  0  0  0
   19.8591  -12.4687  -15.2022 O   0  0  0  0  0  0  0  0  0  0  0  0
   20.4632  -11.8024  -17.3176 N   0  0  0  0  0  0  0  0  0  0  0  0
   20.4106  -11.8842  -18.7773 C   0  0  0  0  0  0  0  0  0  0  0  0
   21.8792  -11.7550  -19.1911 C   0  0  0  0  0  0  0  0  0  0  0  0
   22.3389  -10.6718  -18.2379 C   0  0  0  0  0  0  0  0  0  0  0  0
   21.4445  -10.8315  -16.9966 C   0  0  1  0  0  0  0  0  0  0  0  0
   20.8754   -9.4732  -16.7592 C   0  0  0  0  0  0  0  0  0  0  0  0
   19.7918   -9.1859  -17.3230 O   0  0  0  0  0  0  0  0  0  0  0  0
   21.4813   -8.5054  -15.9462 N   0  0  0  0  0  0  0  0  0  0  0  0
   20.9481   -7.1705  -15.6992 C   0  0  1  0  0  0  0  0  0  0  0  0
   21.7222   -6.6137  -14.5206 C   0  0  0  0  0  0  0  0  0  0  0  0
   21.2743   -5.2005  -14.2075 C   0  0  0  0  0  0  0  0  0  0  0  0
   22.1052   -4.6422  -13.1236 C   0  0  0  0  0  0  0  0  0  0  0  0
   22.9786   -5.3321  -12.5490 O   0  0  0  0  0  0  0  0  0  0  0  0
   21.1243   -6.2763  -16.8413 C   0  0  0  0  0  0  0  0  0  0  0  0
   20.2347   -5.2471  -17.0590 O   0  0  0  0  0  0  0  0  0  0  0  0
   21.9331   -3.3336  -12.7181 O   0  0  0  0  0  0  0  0  0  0  0  0
   22.0782   -6.4347  -17.6279 O   0  0  0  0  0  0  0  0  0  0  0  0
  2  1  1  1
  2  3  1  0
  4  2  1  0
  4  5  1  1
  6  8  1  0
  6  4  1  0
  7  6  2  0
  8 12  1  0
  9 10  1  0
  9  8  1  0
 10 11  1  0
 11 12  1  0
 12 13  1  6
 13 14  2  0
 15 13  1  0
 15 16  1  0
 16 21  1  0
 16 17  1  1
 18 17  1  0
 19 20  2  0
 19 18  1  0
 21 22  1  0
 23 19  1  0
 24 21  2  0
M  END
$$$$
