VPE.pdb
     RDKit          3D

 24 24  0  0  1  0  0  0  0  0999 V2000
   14.7641  -13.8179  -15.5603 C   0  0  0  0  0  0  0  0  0  0  0  0
   15.8367  -12.7722  -15.3245 C   0  0  2  0  0  0  0  0  0  0  0  0
   15.2926  -11.4317  -15.7811 C   0  0  0  0  0  0  0  0  0  0  0  0
   17.0731  -13.1922  -16.0860 C   0  0  2  0  0  0  0  0  0  0  0  0
   17.5070  -14.4604  -15.5570 N   0  0  0  0  0  0  0  0  0  0  0  0
   18.1234  -12.1619  -16.1348 C   0  0  0  0  0  0  0  0  0  0  0  0
   18.9870  -12.1656  -15.2025 O   0  0  0  0  0  0  0  0  0  0  0  0
   18.2286  -11.1847  -17.1381 N   0  0  0  0  0  0  0  0  0  0  0  0
   17.2858  -11.0387  -18.2472 C   0  0  0  0  0  0  0  0  0  0  0  0
   18.1876  -10.6832  -19.4324 C   0  0  0  0  0  0  0  0  0  0  0  0
   19.1493   -9.7210  -18.7671 C   0  0  0  0  0  0  0  0  0  0  0  0
   19.2095  -10.1742  -17.2983 C   0  0  1  0  0  0  0  0  0  0  0  0
   18.9229   -8.9426  -16.5069 C   0  0  0  0  0  0  0  0  0  0  0  0
   17.7297   -8.7124  -16.1943 O   0  0  0  0  0  0  0  0  0  0  0  0
   19.9074   -8.0333  -16.0964 N   0  0  0  0  0  0  0  0  0  0  0  0
   19.6619   -6.8499  -15.2800 C   0  0  1  0  0  0  0  0  0  0  0  0
   20.9837   -6.5034  -14.6233 C   0  0  0  0  0  0  0  0  0  0  0  0
   20.8304   -5.2978  -13.7185 C   0  0  0  0  0  0  0  0  0  0  0  0
   22.1291   -4.9697  -13.0998 C   0  0  0  0  0  0  0  0  0  0  0  0
   22.8330   -4.0236  -13.5221 O   0  0  0  0  0  0  0  0  0  0  0  0
   19.2166   -5.7053  -16.0715 C   0  0  0  0  0  0  0  0  0  0  0  0
   18.3810   -4.7616  -15.5154 O   0  0  0  0  0  0  0  0  0  0  0  0
   22.5976   -5.7083  -12.0314 O   0  0  0  0  0  0  0  0  0  0  0  0
   19.5868   -5.5711  -17.2541 O   0  0  0  0  0  0  0  0  0  0  0  0
  2  1  1  6
  2  3  1  0
  4  2  1  0
  4  5  1  1
  6  8  1  0
  6  4  1  0
  7  6  2  0
  8 12  1  0
  9 10  1  0
  9  8  1  0
 10 11  1  0
 11 12  1  0
 12 13  1  1
 13 14  2  0
 15 13  1  0
 15 16  1  0
 16 21  1  0
 16 17  1  6
 18 17  1  0
 19 20  2  0
 19 18  1  0
 21 22  1  0
 23 19  1  0
 24 21  2  0
M  END
$$$$
