VPE.pdb
     RDKit          3D

 24 24  0  0  1  0  0  0  0  0999 V2000
   26.9020   -9.7015  -16.4640 C   0  0  0  0  0  0  0  0  0  0  0  0
   26.3555  -10.9616  -15.8214 C   0  0  2  0  0  0  0  0  0  0  0  0
   27.4721  -11.9877  -15.7782 C   0  0  0  0  0  0  0  0  0  0  0  0
   25.1679  -11.4228  -16.6350 C   0  0  2  0  0  0  0  0  0  0  0  0
   25.6641  -11.9391  -17.8855 N   0  0  0  0  0  0  0  0  0  0  0  0
   24.1085  -10.4100  -16.7724 C   0  0  0  0  0  0  0  0  0  0  0  0
   24.1049   -9.7109  -17.8337 O   0  0  0  0  0  0  0  0  0  0  0  0
   23.1115  -10.1709  -15.8124 N   0  0  0  0  0  0  0  0  0  0  0  0
   22.9114  -10.9847  -14.6133 C   0  0  0  0  0  0  0  0  0  0  0  0
   21.3874  -11.0487  -14.4806 C   0  0  0  0  0  0  0  0  0  0  0  0
   21.0211   -9.6208  -14.8270 C   0  0  0  0  0  0  0  0  0  0  0  0
   22.1305   -9.1485  -15.7823 C   0  0  1  0  0  0  0  0  0  0  0  0
   22.6261   -7.8721  -15.1902 C   0  0  0  0  0  0  0  0  0  0  0  0
   23.8375   -7.8074  -14.8693 O   0  0  0  0  0  0  0  0  0  0  0  0
   21.8176   -6.7479  -14.9730 N   0  0  0  0  0  0  0  0  0  0  0  0
   22.2976   -5.3715  -14.9260 C   0  0  1  0  0  0  0  0  0  0  0  0
   22.9457   -5.1000  -16.2694 C   0  0  0  0  0  0  0  0  0  0  0  0
   23.5369   -3.7053  -16.3047 C   0  0  0  0  0  0  0  0  0  0  0  0
   24.1050   -3.4376  -17.6398 C   0  0  0  0  0  0  0  0  0  0  0  0
   23.4167   -3.5617  -18.6790 O   0  0  0  0  0  0  0  0  0  0  0  0
   21.2181   -4.4080  -14.7222 C   0  0  0  0  0  0  0  0  0  0  0  0
   21.4229   -3.2942  -13.9377 O   0  0  0  0  0  0  0  0  0  0  0  0
   25.4210   -3.0408  -17.7696 O   0  0  0  0  0  0  0  0  0  0  0  0
   20.1046   -4.5833  -15.2541 O   0  0  0  0  0  0  0  0  0  0  0  0
  2  1  1  6
  2  3  1  0
  4  2  1  0
  4  5  1  6
  6  8  1  0
  6  4  1  0
  7  6  2  0
  8 12  1  0
  9 10  1  0
  9  8  1  0
 10 11  1  0
 11 12  1  0
 12 13  1  1
 13 14  2  0
 15 13  1  0
 15 16  1  0
 16 21  1  0
 16 17  1  6
 18 17  1  0
 19 20  2  0
 19 18  1  0
 21 22  1  0
 23 19  1  0
 24 21  2  0
M  END
$$$$
