VPE.pdb
     RDKit          3D

 24 24  0  0  1  0  0  0  0  0999 V2000
   23.7585  -22.0360  -14.0874 C   0  0  0  0  0  0  0  0  0  0  0  0
   25.2514  -22.1017  -13.8293 C   0  0  2  0  0  0  0  0  0  0  0  0
   25.5716  -23.4788  -13.2791 C   0  0  0  0  0  0  0  0  0  0  0  0
   25.6081  -20.9902  -12.8689 C   0  0  2  0  0  0  0  0  0  0  0  0
   25.0311  -21.3122  -11.5883 N   0  0  0  0  0  0  0  0  0  0  0  0
   25.2773  -19.6439  -13.3640 C   0  0  0  0  0  0  0  0  0  0  0  0
   24.2611  -19.0710  -12.8597 O   0  0  0  0  0  0  0  0  0  0  0  0
   26.0081  -18.9605  -14.3496 N   0  0  0  0  0  0  0  0  0  0  0  0
   27.2771  -19.4291  -14.9066 C   0  0  0  0  0  0  0  0  0  0  0  0
   28.0894  -18.1410  -15.0665 C   0  0  0  0  0  0  0  0  0  0  0  0
   27.0201  -17.2050  -15.5897 C   0  0  0  0  0  0  0  0  0  0  0  0
   25.7043  -17.7361  -14.9955 C   0  0  1  0  0  0  0  0  0  0  0  0
   24.7941  -17.8963  -16.1664 C   0  0  0  0  0  0  0  0  0  0  0  0
   24.9599  -18.8980  -16.9038 O   0  0  0  0  0  0  0  0  0  0  0  0
   23.7702  -16.9944  -16.4870 N   0  0  0  0  0  0  0  0  0  0  0  0
   22.7350  -17.2283  -17.4874 C   0  0  1  0  0  0  0  0  0  0  0  0
   21.8213  -18.2936  -16.9143 C   0  0  0  0  0  0  0  0  0  0  0  0
   21.1443  -17.7946  -15.6539 C   0  0  0  0  0  0  0  0  0  0  0  0
   20.1698  -18.7963  -15.1807 C   0  0  0  0  0  0  0  0  0  0  0  0
   20.4834  -20.0020  -15.0515 O   0  0  0  0  0  0  0  0  0  0  0  0
   21.9441  -16.0317  -17.7661 C   0  0  0  0  0  0  0  0  0  0  0  0
   21.0047  -16.0415  -18.7738 O   0  0  0  0  0  0  0  0  0  0  0  0
   18.8791  -18.4183  -14.8680 O   0  0  0  0  0  0  0  0  0  0  0  0
   22.1105  -14.9931  -17.0973 O   0  0  0  0  0  0  0  0  0  0  0  0
  2  1  1  1
  2  3  1  0
  4  2  1  0
  4  5  1  1
  6  8  1  0
  6  4  1  0
  7  6  2  0
  8 12  1  0
  9 10  1  0
  9  8  1  0
 10 11  1  0
 11 12  1  0
 12 13  1  6
 13 14  2  0
 15 13  1  0
 15 16  1  0
 16 21  1  0
 16 17  1  1
 18 17  1  0
 19 20  2  0
 19 18  1  0
 21 22  1  0
 23 19  1  0
 24 21  2  0
M  END
$$$$
