VPE.pdb
     RDKit          3D

 24 24  0  0  1  0  0  0  0  0999 V2000
   18.8075  -12.5622    6.0628 C   0  0  0  0  0  0  0  0  0  0  0  0
   18.5688  -13.5489    4.9362 C   0  0  2  0  0  0  0  0  0  0  0  0
   18.6711  -12.7951    3.6237 C   0  0  0  0  0  0  0  0  0  0  0  0
   17.2099  -14.1768    5.1463 C   0  0  2  0  0  0  0  0  0  0  0  0
   16.2265  -13.1245    5.1019 N   0  0  0  0  0  0  0  0  0  0  0  0
   17.1271  -15.0370    6.3380 C   0  0  0  0  0  0  0  0  0  0  0  0
   16.4842  -14.5872    7.3377 O   0  0  0  0  0  0  0  0  0  0  0  0
   17.7092  -16.3113    6.4373 N   0  0  0  0  0  0  0  0  0  0  0  0
   18.4240  -16.9769    5.3482 C   0  0  0  0  0  0  0  0  0  0  0  0
   17.9980  -18.4409    5.4893 C   0  0  0  0  0  0  0  0  0  0  0  0
   18.0432  -18.5963    6.9950 C   0  0  0  0  0  0  0  0  0  0  0  0
   17.7402  -17.1927    7.5468 C   0  0  1  0  0  0  0  0  0  0  0  0
   18.8546  -16.9073    8.4965 C   0  0  0  0  0  0  0  0  0  0  0  0
   19.9590  -16.5572    8.0146 O   0  0  0  0  0  0  0  0  0  0  0  0
   18.7368  -17.0088    9.8895 N   0  0  0  0  0  0  0  0  0  0  0  0
   19.8073  -16.7298   10.8399 C   0  0  1  0  0  0  0  0  0  0  0  0
   19.2509  -15.7198   11.8242 C   0  0  0  0  0  0  0  0  0  0  0  0
   19.3636  -14.3148   11.2684 C   0  0  0  0  0  0  0  0  0  0  0  0
   18.7790  -13.3524   12.2220 C   0  0  0  0  0  0  0  0  0  0  0  0
   18.3885  -13.7126   13.3563 O   0  0  0  0  0  0  0  0  0  0  0  0
   20.2280  -17.9200   11.5759 C   0  0  0  0  0  0  0  0  0  0  0  0
   21.3322  -17.8715   12.3983 O   0  0  0  0  0  0  0  0  0  0  0  0
   18.6501  -12.0217   11.8771 O   0  0  0  0  0  0  0  0  0  0  0  0
   19.5943  -18.9879   11.4676 O   0  0  0  0  0  0  0  0  0  0  0  0
  2  1  1  1
  2  3  1  0
  4  2  1  0
  4  5  1  1
  6  8  1  0
  6  4  1  0
  7  6  2  0
  8 12  1  0
  9 10  1  0
  9  8  1  0
 10 11  1  0
 11 12  1  0
 12 13  1  1
 13 14  2  0
 15 13  1  0
 15 16  1  0
 16 21  1  0
 16 17  1  1
 18 17  1  0
 19 20  2  0
 19 18  1  0
 21 22  1  0
 23 19  1  0
 24 21  2  0
M  END
$$$$
