VPE.pdb
     RDKit          3D

 24 24  0  0  1  0  0  0  0  0999 V2000
   19.4839  -10.0325  -18.9287 C   0  0  0  0  0  0  0  0  0  0  0  0
   20.3836  -11.2507  -19.0070 C   0  0  2  0  0  0  0  0  0  0  0  0
   19.9410  -12.0844  -20.1947 C   0  0  0  0  0  0  0  0  0  0  0  0
   20.2754  -11.9955  -17.6961 C   0  0  2  0  0  0  0  0  0  0  0  0
   19.0002  -12.6662  -17.6742 N   0  0  0  0  0  0  0  0  0  0  0  0
   20.5455  -11.1633  -16.5122 C   0  0  0  0  0  0  0  0  0  0  0  0
   19.5427  -10.6857  -15.8946 O   0  0  0  0  0  0  0  0  0  0  0  0
   21.8303  -10.8673  -16.0282 N   0  0  0  0  0  0  0  0  0  0  0  0
   23.0611  -11.4736  -16.5359 C   0  0  0  0  0  0  0  0  0  0  0  0
   23.9017  -11.6768  -15.2724 C   0  0  0  0  0  0  0  0  0  0  0  0
   23.6193  -10.3801  -14.5430 C   0  0  0  0  0  0  0  0  0  0  0  0
   22.2102   -9.9672  -15.0015 C   0  0  1  0  0  0  0  0  0  0  0  0
   22.3600   -8.5606  -15.4753 C   0  0  0  0  0  0  0  0  0  0  0  0
   22.5279   -8.3719  -16.7044 O   0  0  0  0  0  0  0  0  0  0  0  0
   22.3246   -7.4447  -14.6279 N   0  0  0  0  0  0  0  0  0  0  0  0
   22.3380   -6.0566  -15.0751 C   0  0  1  0  0  0  0  0  0  0  0  0
   21.0179   -5.8243  -15.7836 C   0  0  0  0  0  0  0  0  0  0  0  0
   19.8691   -5.8574  -14.7963 C   0  0  0  0  0  0  0  0  0  0  0  0
   18.6117   -5.5019  -15.4815 C   0  0  0  0  0  0  0  0  0  0  0  0
   18.3276   -4.3116  -15.7484 O   0  0  0  0  0  0  0  0  0  0  0  0
   22.4484   -5.1114  -13.9663 C   0  0  0  0  0  0  0  0  0  0  0  0
   22.7612   -3.7919  -14.2095 O   0  0  0  0  0  0  0  0  0  0  0  0
   17.7147   -6.4865  -15.8452 O   0  0  0  0  0  0  0  0  0  0  0  0
   22.2612   -5.4877  -12.7929 O   0  0  0  0  0  0  0  0  0  0  0  0
  2  1  1  1
  2  3  1  0
  4  2  1  0
  4  5  1  1
  6  8  1  0
  6  4  1  0
  7  6  2  0
  8 12  1  0
  9 10  1  0
  9  8  1  0
 10 11  1  0
 11 12  1  0
 12 13  1  6
 13 14  2  0
 15 13  1  0
 15 16  1  0
 16 21  1  0
 16 17  1  1
 18 17  1  0
 19 20  2  0
 19 18  1  0
 21 22  1  0
 23 19  1  0
 24 21  2  0
M  END
$$$$
