VPE.pdb
     RDKit          3D

 24 24  0  0  1  0  0  0  0  0999 V2000
   24.4389  -14.8711  -15.6973 C   0  0  0  0  0  0  0  0  0  0  0  0
   23.8579  -13.4731  -15.7859 C   0  0  2  0  0  0  0  0  0  0  0  0
   22.8676  -13.3045  -14.6491 C   0  0  0  0  0  0  0  0  0  0  0  0
   23.2185  -13.3191  -17.1469 C   0  0  2  0  0  0  0  0  0  0  0  0
   24.2240  -13.5991  -18.1405 N   0  0  0  0  0  0  0  0  0  0  0  0
   22.5165  -12.0390  -17.3357 C   0  0  0  0  0  0  0  0  0  0  0  0
   23.2254  -11.0209  -17.6112 O   0  0  0  0  0  0  0  0  0  0  0  0
   21.1255  -11.8752  -17.2308 N   0  0  0  0  0  0  0  0  0  0  0  0
   20.1905  -12.9564  -16.9195 C   0  0  0  0  0  0  0  0  0  0  0  0
   18.9862  -12.6500  -17.8141 C   0  0  0  0  0  0  0  0  0  0  0  0
   18.9061  -11.1455  -17.6612 C   0  0  0  0  0  0  0  0  0  0  0  0
   20.3525  -10.6980  -17.3895 C   0  0  1  0  0  0  0  0  0  0  0  0
   20.2704   -9.8740  -16.1488 C   0  0  0  0  0  0  0  0  0  0  0  0
   20.3481  -10.4674  -15.0459 O   0  0  0  0  0  0  0  0  0  0  0  0
   20.1112   -8.4814  -16.1470 N   0  0  0  0  0  0  0  0  0  0  0  0
   20.0182   -7.6537  -14.9498 C   0  0  1  0  0  0  0  0  0  0  0  0
   21.0435   -6.5490  -15.1146 C   0  0  0  0  0  0  0  0  0  0  0  0
   21.1584   -5.7334  -13.8428 C   0  0  0  0  0  0  0  0  0  0  0  0
   22.1036   -4.6192  -14.0482 C   0  0  0  0  0  0  0  0  0  0  0  0
   23.3334   -4.8211  -14.1740 O   0  0  0  0  0  0  0  0  0  0  0  0
   18.6981   -7.0486  -14.7876 C   0  0  0  0  0  0  0  0  0  0  0  0
   18.2137   -6.7702  -13.5283 O   0  0  0  0  0  0  0  0  0  0  0  0
   21.6443   -3.3184  -14.1063 O   0  0  0  0  0  0  0  0  0  0  0  0
   17.9989   -6.7790  -15.7836 O   0  0  0  0  0  0  0  0  0  0  0  0
  2  1  1  6
  2  3  1  0
  4  2  1  0
  4  5  1  6
  6  8  1  0
  6  4  1  0
  7  6  2  0
  8 12  1  0
  9 10  1  0
  9  8  1  0
 10 11  1  0
 11 12  1  0
 12 13  1  1
 13 14  2  0
 15 13  1  0
 15 16  1  0
 16 21  1  0
 16 17  1  6
 18 17  1  0
 19 20  2  0
 19 18  1  0
 21 22  1  0
 23 19  1  0
 24 21  2  0
M  END
$$$$
