VPE.pdb
     RDKit          3D

 24 24  0  0  1  0  0  0  0  0999 V2000
   17.9765  -11.8816  -18.6712 C   0  0  0  0  0  0  0  0  0  0  0  0
   18.3507  -10.8050  -17.6709 C   0  0  2  0  0  0  0  0  0  0  0  0
   19.3092   -9.8459  -18.3515 C   0  0  0  0  0  0  0  0  0  0  0  0
   18.9583  -11.4812  -16.4632 C   0  0  2  0  0  0  0  0  0  0  0  0
   17.9818  -12.3995  -15.9344 N   0  0  0  0  0  0  0  0  0  0  0  0
   19.5137  -10.5459  -15.4713 C   0  0  0  0  0  0  0  0  0  0  0  0
   18.6943   -9.9790  -14.6824 O   0  0  0  0  0  0  0  0  0  0  0  0
   20.8795  -10.2444  -15.3444 N   0  0  0  0  0  0  0  0  0  0  0  0
   21.9413  -10.8978  -16.1099 C   0  0  0  0  0  0  0  0  0  0  0  0
   23.0733  -11.0441  -15.0892 C   0  0  0  0  0  0  0  0  0  0  0  0
   22.9862   -9.7046  -14.3884 C   0  0  0  0  0  0  0  0  0  0  0  0
   21.5077   -9.2949  -14.5003 C   0  0  1  0  0  0  0  0  0  0  0  0
   21.5355   -7.9195  -15.0770 C   0  0  0  0  0  0  0  0  0  0  0  0
   21.7219   -7.8067  -16.3127 O   0  0  0  0  0  0  0  0  0  0  0  0
   21.3665   -6.7528  -14.3188 N   0  0  0  0  0  0  0  0  0  0  0  0
   21.3842   -5.3976  -14.8575 C   0  0  1  0  0  0  0  0  0  0  0  0
   20.0158   -4.8089  -14.5757 C   0  0  0  0  0  0  0  0  0  0  0  0
   19.8977   -3.4221  -15.1744 C   0  0  0  0  0  0  0  0  0  0  0  0
   18.5454   -2.8857  -14.9282 C   0  0  0  0  0  0  0  0  0  0  0  0
   18.3731   -1.7985  -14.3305 O   0  0  0  0  0  0  0  0  0  0  0  0
   22.3969   -4.5557  -14.2244 C   0  0  0  0  0  0  0  0  0  0  0  0
   23.0053   -3.5475  -14.9395 O   0  0  0  0  0  0  0  0  0  0  0  0
   17.4321   -3.5806  -15.3573 O   0  0  0  0  0  0  0  0  0  0  0  0
   22.7197   -4.7404  -13.0347 O   0  0  0  0  0  0  0  0  0  0  0  0
  2  1  1  6
  2  3  1  0
  4  2  1  0
  4  5  1  1
  6  8  1  0
  6  4  1  0
  7  6  2  0
  8 12  1  0
  9 10  1  0
  9  8  1  0
 10 11  1  0
 11 12  1  0
 12 13  1  6
 13 14  2  0
 15 13  1  0
 15 16  1  0
 16 21  1  0
 16 17  1  1
 18 17  1  0
 19 20  2  0
 19 18  1  0
 21 22  1  0
 23 19  1  0
 24 21  2  0
M  END
$$$$
