TCW.pdb
     RDKit          3D

 28 29  0  0  1  0  0  0  0  0999 V2000
    8.5020  -12.7768   19.7288 C   0  0  0  0  0  0  0  0  0  0  0  0
    8.1035  -13.2733   18.3732 C   0  0  1  0  0  0  0  0  0  0  0  0
    8.4801  -12.4644   17.3279 O   0  0  0  0  0  0  0  0  0  0  0  0
    8.7241  -14.6466   18.1601 C   0  0  2  0  0  0  0  0  0  0  0  0
    8.3364  -15.1832   16.8772 N   0  0  0  0  0  0  0  0  0  0  0  0
    8.3594  -15.5822   19.2674 C   0  0  0  0  0  0  0  0  0  0  0  0
    7.4183  -16.4043   19.1266 O   0  0  0  0  0  0  0  0  0  0  0  0
    9.0365  -15.5988   20.5135 N   0  0  0  0  0  0  0  0  0  0  0  0
    8.8222  -16.6445   21.5077 C   0  0  1  0  0  0  0  0  0  0  0  0
    9.0461  -17.9672   20.8443 C   0  0  0  0  0  0  0  0  0  0  0  0
    9.0777  -19.3114   22.0340 S   0  0  0  0  0  0  0  0  0  0  0  0
    9.6236  -16.4154   22.7113 C   0  0  0  0  0  0  0  0  0  0  0  0
   10.8846  -16.3131   22.5685 O   0  0  0  0  0  0  0  0  0  0  0  0
    9.0844  -16.3004   24.0297 N   0  0  0  0  0  0  0  0  0  0  0  0
    9.9381  -16.0261   25.1547 C   0  0  1  0  0  0  0  0  0  0  0  0
    9.4398  -15.0380   26.1364 C   0  0  0  0  0  0  0  0  0  0  0  0
    8.0413  -14.6390   26.0341 C   0  0  0  0  0  0  0  0  0  0  0  0
    6.9410  -15.4347   25.7083 C   0  0  0  0  0  0  0  0  0  0  0  0
    5.8342  -14.6824   25.7058 N   0  0  0  0  0  0  0  0  0  0  0  0
    6.1416  -13.3897   26.0213 C   0  0  0  0  0  0  0  0  0  0  0  0
    5.3567  -12.2721   26.1475 C   0  0  0  0  0  0  0  0  0  0  0  0
    5.9162  -11.0745   26.4861 C   0  0  0  0  0  0  0  0  0  0  0  0
    7.2757  -11.0118   26.6972 C   0  0  0  0  0  0  0  0  0  0  0  0
    8.0409  -12.1453   26.5646 C   0  0  0  0  0  0  0  0  0  0  0  0
    7.5134  -13.3852   26.2209 C   0  0  0  0  0  0  0  0  0  0  0  0
   10.3724  -17.3087   25.7687 C   0  0  0  0  0  0  0  0  0  0  0  0
   11.3467  -17.3438   26.7546 O   0  0  0  0  0  0  0  0  0  0  0  0
    9.8680  -18.4043   25.4119 O   0  0  0  0  0  0  0  0  0  0  0  0
  2  1  1  1
  2  4  1  0
  3  2  1  0
  4  5  1  6
  6  4  1  0
  7  6  2  0
  8  6  1  0
  9 12  1  0
  9  8  1  0
  9 10  1  6
 11 10  1  0
 12 14  1  0
 13 12  2  0
 14 15  1  0
 15 26  1  0
 15 16  1  1
 17 25  1  0
 17 16  1  0
 18 17  2  0
 19 18  1  0
 19 20  1  0
 20 25  2  0
 21 20  1  0
 21 22  2  0
 22 23  1  0
 23 24  2  0
 25 24  1  0
 26 28  2  0
 26 27  1  0
M  END
$$$$
