TCW.pdb
     RDKit          3D

 28 29  0  0  1  0  0  0  0  0999 V2000
    9.4358  -13.8395   16.8097 C   0  0  0  0  0  0  0  0  0  0  0  0
    9.3038  -14.4368   18.1767 C   0  0  1  0  0  0  0  0  0  0  0  0
   10.0518  -13.8206   19.1512 O   0  0  0  0  0  0  0  0  0  0  0  0
    7.8405  -14.3771   18.5908 C   0  0  2  0  0  0  0  0  0  0  0  0
    7.3557  -13.0182   18.5406 N   0  0  0  0  0  0  0  0  0  0  0  0
    7.6380  -14.9711   19.9475 C   0  0  0  0  0  0  0  0  0  0  0  0
    7.5607  -14.2342   20.9635 O   0  0  0  0  0  0  0  0  0  0  0  0
    7.5236  -16.3678   20.1654 N   0  0  0  0  0  0  0  0  0  0  0  0
    7.4368  -16.9478   21.5011 C   0  0  1  0  0  0  0  0  0  0  0  0
    7.0961  -18.3977   21.3551 C   0  0  0  0  0  0  0  0  0  0  0  0
    6.9344  -19.2070   22.9495 S   0  0  0  0  0  0  0  0  0  0  0  0
    8.6417  -16.6740   22.2864 C   0  0  0  0  0  0  0  0  0  0  0  0
    9.5940  -16.0578   21.7081 O   0  0  0  0  0  0  0  0  0  0  0  0
    8.8172  -17.0524   23.6532 N   0  0  0  0  0  0  0  0  0  0  0  0
    9.6622  -16.2849   24.5286 C   0  0  1  0  0  0  0  0  0  0  0  0
    9.2930  -14.8660   24.7259 C   0  0  0  0  0  0  0  0  0  0  0  0
    8.0071  -14.5897   25.3548 C   0  0  0  0  0  0  0  0  0  0  0  0
    6.9442  -15.4711   25.5635 C   0  0  0  0  0  0  0  0  0  0  0  0
    5.9376  -14.8198   26.1581 N   0  0  0  0  0  0  0  0  0  0  0  0
    6.2778  -13.5134   26.3653 C   0  0  0  0  0  0  0  0  0  0  0  0
    5.5902  -12.4732   26.9365 C   0  0  0  0  0  0  0  0  0  0  0  0
    6.1661  -11.2399   27.0328 C   0  0  0  0  0  0  0  0  0  0  0  0
    7.4429  -11.0626   26.5480 C   0  0  0  0  0  0  0  0  0  0  0  0
    8.1113  -12.1203   25.9799 C   0  0  0  0  0  0  0  0  0  0  0  0
    7.5633  -13.3927   25.8606 C   0  0  0  0  0  0  0  0  0  0  0  0
    9.8628  -17.0303   25.7993 C   0  0  0  0  0  0  0  0  0  0  0  0
    9.1467  -18.1838   26.0805 O   0  0  0  0  0  0  0  0  0  0  0  0
   10.6905  -16.6365   26.6607 O   0  0  0  0  0  0  0  0  0  0  0  0
  2  1  1  6
  2  4  1  0
  3  2  1  0
  4  5  1  1
  6  4  1  0
  7  6  2  0
  8  6  1  0
  9 12  1  0
  9  8  1  0
  9 10  1  6
 11 10  1  0
 12 14  1  0
 13 12  2  0
 14 15  1  0
 15 26  1  0
 15 16  1  1
 17 25  1  0
 17 16  1  0
 18 17  2  0
 19 18  1  0
 19 20  1  0
 20 25  2  0
 21 20  1  0
 21 22  2  0
 22 23  1  0
 23 24  2  0
 25 24  1  0
 26 28  2  0
 26 27  1  0
M  END
$$$$
