TCW.pdb
     RDKit          3D

 28 29  0  0  1  0  0  0  0  0999 V2000
    9.0000  -14.3649   16.9982 C   0  0  0  0  0  0  0  0  0  0  0  0
    8.9084  -14.7310   18.4476 C   0  0  1  0  0  0  0  0  0  0  0  0
    9.8658  -14.1577   19.2499 O   0  0  0  0  0  0  0  0  0  0  0  0
    7.5400  -14.3127   18.9660 C   0  0  2  0  0  0  0  0  0  0  0  0
    7.3523  -12.8901   18.8075 N   0  0  0  0  0  0  0  0  0  0  0  0
    7.3525  -14.7250   20.3905 C   0  0  0  0  0  0  0  0  0  0  0  0
    7.5206  -13.8986   21.3232 O   0  0  0  0  0  0  0  0  0  0  0  0
    6.9826  -16.0414   20.7669 N   0  0  0  0  0  0  0  0  0  0  0  0
    6.8657  -16.4539   22.1613 C   0  0  1  0  0  0  0  0  0  0  0  0
    6.1081  -17.7439   22.2007 C   0  0  0  0  0  0  0  0  0  0  0  0
    6.0366  -18.4231   23.8611 S   0  0  0  0  0  0  0  0  0  0  0  0
    8.1705  -16.4852   22.8246 C   0  0  0  0  0  0  0  0  0  0  0  0
    9.1759  -16.8423   22.1299 O   0  0  0  0  0  0  0  0  0  0  0  0
    8.3872  -16.1428   24.1950 N   0  0  0  0  0  0  0  0  0  0  0  0
    9.7178  -16.0789   24.7380 C   0  0  1  0  0  0  0  0  0  0  0  0
   10.1112  -14.8021   25.3733 C   0  0  0  0  0  0  0  0  0  0  0  0
    9.1814  -14.2163   26.3312 C   0  0  0  0  0  0  0  0  0  0  0  0
    9.0421  -14.5148   27.6883 C   0  0  0  0  0  0  0  0  0  0  0  0
    8.0623  -13.7667   28.2091 N   0  0  0  0  0  0  0  0  0  0  0  0
    7.5226  -12.9603   27.2481 C   0  0  0  0  0  0  0  0  0  0  0  0
    6.5153  -12.0309   27.3000 C   0  0  0  0  0  0  0  0  0  0  0  0
    6.1615  -11.3383   26.1788 C   0  0  0  0  0  0  0  0  0  0  0  0
    6.8322  -11.5898   25.0026 C   0  0  0  0  0  0  0  0  0  0  0  0
    7.8378  -12.5259   24.9759 C   0  0  0  0  0  0  0  0  0  0  0  0
    8.2305  -13.2547   26.0931 C   0  0  0  0  0  0  0  0  0  0  0  0
    9.9586  -17.2696   25.5954 C   0  0  0  0  0  0  0  0  0  0  0  0
    8.9453  -18.1729   25.8774 O   0  0  0  0  0  0  0  0  0  0  0  0
   11.0918  -17.4947   26.0925 O   0  0  0  0  0  0  0  0  0  0  0  0
  2  1  1  6
  2  4  1  0
  3  2  1  0
  4  5  1  1
  6  4  1  0
  7  6  2  0
  8  6  1  0
  9 12  1  0
  9  8  1  0
  9 10  1  6
 11 10  1  0
 12 14  1  0
 13 12  2  0
 14 15  1  0
 15 26  1  0
 15 16  1  1
 17 25  1  0
 17 16  1  0
 18 17  2  0
 19 18  1  0
 19 20  1  0
 20 25  2  0
 21 20  1  0
 21 22  2  0
 22 23  1  0
 23 24  2  0
 25 24  1  0
 26 28  2  0
 26 27  1  0
M  END
$$$$
