TCW.pdb
     RDKit          3D

 28 29  0  0  1  0  0  0  0  0999 V2000
    8.3494  -12.0657   19.0775 C   0  0  0  0  0  0  0  0  0  0  0  0
    8.4014  -13.1625   20.0960 C   0  0  1  0  0  0  0  0  0  0  0  0
    7.3830  -13.1429   21.0187 O   0  0  0  0  0  0  0  0  0  0  0  0
    8.3596  -14.4991   19.3691 C   0  0  2  0  0  0  0  0  0  0  0  0
    7.1833  -14.5855   18.5366 N   0  0  0  0  0  0  0  0  0  0  0  0
    8.4223  -15.6404   20.3325 C   0  0  0  0  0  0  0  0  0  0  0  0
    7.4067  -16.3485   20.5525 O   0  0  0  0  0  0  0  0  0  0  0  0
    9.6025  -15.9851   21.0394 N   0  0  0  0  0  0  0  0  0  0  0  0
    9.6435  -17.0699   22.0138 C   0  0  1  0  0  0  0  0  0  0  0  0
   10.5510  -18.1350   21.4833 C   0  0  0  0  0  0  0  0  0  0  0  0
   12.2218  -17.5248   21.2396 S   0  0  0  0  0  0  0  0  0  0  0  0
    9.9839  -16.5800   23.3508 C   0  0  0  0  0  0  0  0  0  0  0  0
   10.7221  -15.5455   23.4287 O   0  0  0  0  0  0  0  0  0  0  0  0
    9.5437  -17.1854   24.5682 N   0  0  0  0  0  0  0  0  0  0  0  0
   10.0345  -16.7262   25.8401 C   0  0  1  0  0  0  0  0  0  0  0  0
    9.0180  -16.2812   26.8185 C   0  0  0  0  0  0  0  0  0  0  0  0
    7.8541  -15.5730   26.2997 C   0  0  0  0  0  0  0  0  0  0  0  0
    6.7214  -16.1124   25.6863 C   0  0  0  0  0  0  0  0  0  0  0  0
    5.8905  -15.1223   25.3392 N   0  0  0  0  0  0  0  0  0  0  0  0
    6.4195  -13.9151   25.6970 C   0  0  0  0  0  0  0  0  0  0  0  0
    5.9447  -12.6360   25.5578 C   0  0  0  0  0  0  0  0  0  0  0  0
    6.6762  -11.5784   26.0142 C   0  0  0  0  0  0  0  0  0  0  0  0
    7.8924  -11.8203   26.6133 C   0  0  0  0  0  0  0  0  0  0  0  0
    8.3467  -13.1108   26.7410 C   0  0  0  0  0  0  0  0  0  0  0  0
    7.6354  -14.2174   26.2903 C   0  0  0  0  0  0  0  0  0  0  0  0
   10.9925  -17.7225   26.3882 C   0  0  0  0  0  0  0  0  0  0  0  0
   11.8008  -17.4249   27.4746 O   0  0  0  0  0  0  0  0  0  0  0  0
   11.0994  -18.8689   25.8819 O   0  0  0  0  0  0  0  0  0  0  0  0
  2  1  1  6
  2  4  1  0
  3  2  1  0
  4  5  1  1
  6  4  1  0
  7  6  2  0
  8  6  1  0
  9 12  1  0
  9  8  1  0
  9 10  1  6
 11 10  1  0
 12 14  1  0
 13 12  2  0
 14 15  1  0
 15 26  1  0
 15 16  1  1
 17 25  1  0
 17 16  1  0
 18 17  2  0
 19 18  1  0
 19 20  1  0
 20 25  2  0
 21 20  1  0
 21 22  2  0
 22 23  1  0
 23 24  2  0
 25 24  1  0
 26 28  2  0
 26 27  1  0
M  END
$$$$
