TCW.pdb
     RDKit          3D

 28 29  0  0  1  0  0  0  0  0999 V2000
    9.2949  -12.9200   17.3035 C   0  0  0  0  0  0  0  0  0  0  0  0
    9.2876  -13.7305   18.5629 C   0  0  1  0  0  0  0  0  0  0  0  0
    9.6375  -13.0382   19.6974 O   0  0  0  0  0  0  0  0  0  0  0  0
    7.8899  -14.2984   18.7638 C   0  0  2  0  0  0  0  0  0  0  0  0
    6.9130  -13.2362   18.8018 N   0  0  0  0  0  0  0  0  0  0  0  0
    7.8202  -15.1384   19.9983 C   0  0  0  0  0  0  0  0  0  0  0  0
    7.2725  -14.6985   21.0413 O   0  0  0  0  0  0  0  0  0  0  0  0
    8.3545  -16.4503   20.0661 N   0  0  0  0  0  0  0  0  0  0  0  0
    8.2659  -17.2712   21.2688 C   0  0  1  0  0  0  0  0  0  0  0  0
    8.4577  -18.7005   20.8691 C   0  0  0  0  0  0  0  0  0  0  0  0
    8.6298  -19.7736   22.2981 S   0  0  0  0  0  0  0  0  0  0  0  0
    9.1754  -16.7961   22.3131 C   0  0  0  0  0  0  0  0  0  0  0  0
   10.3142  -16.3590   21.9480 O   0  0  0  0  0  0  0  0  0  0  0  0
    8.8691  -16.7918   23.7089 N   0  0  0  0  0  0  0  0  0  0  0  0
    9.7984  -16.2542   24.6665 C   0  0  1  0  0  0  0  0  0  0  0  0
    9.5009  -14.9021   25.1881 C   0  0  0  0  0  0  0  0  0  0  0  0
    8.1160  -14.6081   25.5358 C   0  0  0  0  0  0  0  0  0  0  0  0
    7.0344  -15.4903   25.5818 C   0  0  0  0  0  0  0  0  0  0  0  0
    5.9294  -14.8201   25.9294 N   0  0  0  0  0  0  0  0  0  0  0  0
    6.2199  -13.5000   26.1246 C   0  0  0  0  0  0  0  0  0  0  0  0
    5.4316  -12.4387   26.4898 C   0  0  0  0  0  0  0  0  0  0  0  0
    5.9750  -11.1947   26.6268 C   0  0  0  0  0  0  0  0  0  0  0  0
    7.3219  -11.0279   26.3926 C   0  0  0  0  0  0  0  0  0  0  0  0
    8.0908  -12.1067   26.0276 C   0  0  0  0  0  0  0  0  0  0  0  0
    7.5793  -13.3908   25.8758 C   0  0  0  0  0  0  0  0  0  0  0  0
   10.0478  -17.2616   25.7312 C   0  0  0  0  0  0  0  0  0  0  0  0
   11.0834  -17.1097   26.6404 O   0  0  0  0  0  0  0  0  0  0  0  0
    9.3252  -18.2853   25.8402 O   0  0  0  0  0  0  0  0  0  0  0  0
  2  1  1  6
  2  4  1  0
  3  2  1  0
  4  5  1  1
  6  4  1  0
  7  6  2  0
  8  6  1  0
  9 12  1  0
  9  8  1  0
  9 10  1  6
 11 10  1  0
 12 14  1  0
 13 12  2  0
 14 15  1  0
 15 26  1  0
 15 16  1  1
 17 25  1  0
 17 16  1  0
 18 17  2  0
 19 18  1  0
 19 20  1  0
 20 25  2  0
 21 20  1  0
 21 22  2  0
 22 23  1  0
 23 24  2  0
 25 24  1  0
 26 28  2  0
 26 27  1  0
M  END
$$$$
