TCW.pdb
     RDKit          3D

 28 29  0  0  1  0  0  0  0  0999 V2000
   13.0997  -16.8525   17.1917 C   0  0  0  0  0  0  0  0  0  0  0  0
   12.2458  -16.6029   18.3965 C   0  0  1  0  0  0  0  0  0  0  0  0
   12.5057  -15.4248   19.0548 O   0  0  0  0  0  0  0  0  0  0  0  0
   10.7873  -16.5934   17.9614 C   0  0  2  0  0  0  0  0  0  0  0  0
   10.5531  -15.5417   17.0005 N   0  0  0  0  0  0  0  0  0  0  0  0
    9.8735  -16.4618   19.1369 C   0  0  0  0  0  0  0  0  0  0  0  0
    9.4045  -15.3408   19.4604 O   0  0  0  0  0  0  0  0  0  0  0  0
    9.4894  -17.5666   19.9389 N   0  0  0  0  0  0  0  0  0  0  0  0
    8.6651  -17.4188   21.1334 C   0  0  1  0  0  0  0  0  0  0  0  0
    7.7528  -18.6022   21.2160 C   0  0  0  0  0  0  0  0  0  0  0  0
    6.8760  -18.6584   22.7816 S   0  0  0  0  0  0  0  0  0  0  0  0
    9.4820  -17.1862   22.3258 C   0  0  0  0  0  0  0  0  0  0  0  0
   10.5915  -17.8051   22.4095 O   0  0  0  0  0  0  0  0  0  0  0  0
    9.1160  -16.3139   23.3969 N   0  0  0  0  0  0  0  0  0  0  0  0
    9.9708  -16.1535   24.5428 C   0  0  1  0  0  0  0  0  0  0  0  0
    9.7200  -14.9691   25.3931 C   0  0  0  0  0  0  0  0  0  0  0  0
    8.3383  -14.6943   25.7679 C   0  0  0  0  0  0  0  0  0  0  0  0
    7.3078  -15.6106   25.9883 C   0  0  0  0  0  0  0  0  0  0  0  0
    6.1854  -14.9507   26.2977 N   0  0  0  0  0  0  0  0  0  0  0  0
    6.4142  -13.6042   26.2970 C   0  0  0  0  0  0  0  0  0  0  0  0
    5.5879  -12.5403   26.5545 C   0  0  0  0  0  0  0  0  0  0  0  0
    6.0705  -11.2654   26.4936 C   0  0  0  0  0  0  0  0  0  0  0  0
    7.3950  -11.0706   26.1705 C   0  0  0  0  0  0  0  0  0  0  0  0
    8.2029  -12.1527   25.9165 C   0  0  0  0  0  0  0  0  0  0  0  0
    7.7536  -13.4677   25.9666 C   0  0  0  0  0  0  0  0  0  0  0  0
   10.0236  -17.4310   25.3017 C   0  0  0  0  0  0  0  0  0  0  0  0
   10.9811  -17.6504   26.2801 O   0  0  0  0  0  0  0  0  0  0  0  0
    9.1991  -18.3543   25.0790 O   0  0  0  0  0  0  0  0  0  0  0  0
  2  1  1  6
  2  4  1  0
  3  2  1  0
  4  5  1  6
  6  4  1  0
  7  6  2  0
  8  6  1  0
  9 12  1  0
  9  8  1  0
  9 10  1  1
 11 10  1  0
 12 14  1  0
 13 12  2  0
 14 15  1  0
 15 26  1  0
 15 16  1  1
 17 25  1  0
 17 16  1  0
 18 17  2  0
 19 18  1  0
 19 20  1  0
 20 25  2  0
 21 20  1  0
 21 22  2  0
 22 23  1  0
 23 24  2  0
 25 24  1  0
 26 28  2  0
 26 27  1  0
M  END
$$$$
