TCW.pdb
     RDKit          3D

 28 29  0  0  1  0  0  0  0  0999 V2000
    8.3701  -12.0885   19.2039 C   0  0  0  0  0  0  0  0  0  0  0  0
    8.4724  -13.1658   20.2392 C   0  0  1  0  0  0  0  0  0  0  0  0
    7.5187  -13.1100   21.2274 O   0  0  0  0  0  0  0  0  0  0  0  0
    8.3599  -14.5155   19.5448 C   0  0  2  0  0  0  0  0  0  0  0  0
    7.1541  -14.5781   18.7533 N   0  0  0  0  0  0  0  0  0  0  0  0
    8.4150  -15.6371   20.5313 C   0  0  0  0  0  0  0  0  0  0  0  0
    7.3828  -16.3022   20.8023 O   0  0  0  0  0  0  0  0  0  0  0  0
    9.6061  -16.0100   21.2049 N   0  0  0  0  0  0  0  0  0  0  0  0
    9.6488  -17.0959   22.1780 C   0  0  1  0  0  0  0  0  0  0  0  0
   10.5687  -18.1528   21.6526 C   0  0  0  0  0  0  0  0  0  0  0  0
   12.1923  -18.0600   22.4133 S   0  0  0  0  0  0  0  0  0  0  0  0
    9.9756  -16.6053   23.5182 C   0  0  0  0  0  0  0  0  0  0  0  0
   10.6298  -15.5163   23.6033 O   0  0  0  0  0  0  0  0  0  0  0  0
    9.6100  -17.2669   24.7309 N   0  0  0  0  0  0  0  0  0  0  0  0
   10.0468  -16.7644   26.0061 C   0  0  1  0  0  0  0  0  0  0  0  0
    8.9860  -16.3771   26.9618 C   0  0  0  0  0  0  0  0  0  0  0  0
    7.8662  -15.6021   26.4414 C   0  0  0  0  0  0  0  0  0  0  0  0
    6.7139  -16.0731   25.8084 C   0  0  0  0  0  0  0  0  0  0  0  0
    5.9394  -15.0365   25.4672 N   0  0  0  0  0  0  0  0  0  0  0  0
    6.5263  -13.8635   25.8481 C   0  0  0  0  0  0  0  0  0  0  0  0
    6.1200  -12.5596   25.7227 C   0  0  0  0  0  0  0  0  0  0  0  0
    6.9003  -11.5480   26.2020 C   0  0  0  0  0  0  0  0  0  0  0  0
    8.0956  -11.8613   26.8101 C   0  0  0  0  0  0  0  0  0  0  0  0
    8.4809  -13.1754   26.9236 C   0  0  0  0  0  0  0  0  0  0  0  0
    7.7182  -14.2370   26.4495 C   0  0  0  0  0  0  0  0  0  0  0  0
   11.0574  -17.6908   26.5816 C   0  0  0  0  0  0  0  0  0  0  0  0
   11.7079  -17.4009   27.7712 O   0  0  0  0  0  0  0  0  0  0  0  0
   11.3541  -18.7689   26.0056 O   0  0  0  0  0  0  0  0  0  0  0  0
  2  1  1  6
  2  4  1  0
  3  2  1  0
  4  5  1  1
  6  4  1  0
  7  6  2  0
  8  6  1  0
  9 12  1  0
  9  8  1  0
  9 10  1  6
 11 10  1  0
 12 14  1  0
 13 12  2  0
 14 15  1  0
 15 26  1  0
 15 16  1  1
 17 25  1  0
 17 16  1  0
 18 17  2  0
 19 18  1  0
 19 20  1  0
 20 25  2  0
 21 20  1  0
 21 22  2  0
 22 23  1  0
 23 24  2  0
 25 24  1  0
 26 28  2  0
 26 27  1  0
M  END
$$$$
