TCW.pdb
     RDKit          3D

 28 29  0  0  1  0  0  0  0  0999 V2000
    9.5638  -13.4229   16.7779 C   0  0  0  0  0  0  0  0  0  0  0  0
    9.4422  -14.1297   18.0928 C   0  0  1  0  0  0  0  0  0  0  0  0
    9.8590  -13.4010   19.1810 O   0  0  0  0  0  0  0  0  0  0  0  0
    7.9835  -14.5091   18.3041 C   0  0  2  0  0  0  0  0  0  0  0  0
    7.1474  -13.3323   18.2878 N   0  0  0  0  0  0  0  0  0  0  0  0
    7.8038  -15.2796   19.5724 C   0  0  0  0  0  0  0  0  0  0  0  0
    7.3225  -14.7268   20.5942 O   0  0  0  0  0  0  0  0  0  0  0  0
    8.1567  -16.6476   19.6968 N   0  0  0  0  0  0  0  0  0  0  0  0
    8.0843  -17.3631   20.9659 C   0  0  1  0  0  0  0  0  0  0  0  0
    8.2282  -18.8254   20.6821 C   0  0  0  0  0  0  0  0  0  0  0  0
    8.3804  -19.7845   22.1921 S   0  0  0  0  0  0  0  0  0  0  0  0
    9.0367  -16.8280   21.9407 C   0  0  0  0  0  0  0  0  0  0  0  0
   10.1870  -16.4875   21.5144 O   0  0  0  0  0  0  0  0  0  0  0  0
    8.7599  -16.6646   23.3332 N   0  0  0  0  0  0  0  0  0  0  0  0
    9.7222  -16.0523   24.2098 C   0  0  1  0  0  0  0  0  0  0  0  0
    9.3972  -14.6958   24.7026 C   0  0  0  0  0  0  0  0  0  0  0  0
    8.0566  -14.4793   25.2329 C   0  0  0  0  0  0  0  0  0  0  0  0
    7.0234  -15.4092   25.3667 C   0  0  0  0  0  0  0  0  0  0  0  0
    5.9461  -14.8049   25.8817 N   0  0  0  0  0  0  0  0  0  0  0  0
    6.2086  -13.4837   26.1070 C   0  0  0  0  0  0  0  0  0  0  0  0
    5.4327  -12.4761   26.6204 C   0  0  0  0  0  0  0  0  0  0  0  0
    5.9416  -11.2170   26.7530 C   0  0  0  0  0  0  0  0  0  0  0  0
    7.2412  -10.9807   26.3634 C   0  0  0  0  0  0  0  0  0  0  0  0
    7.9986  -12.0067   25.8517 C   0  0  0  0  0  0  0  0  0  0  0  0
    7.5211  -13.3036   25.6984 C   0  0  0  0  0  0  0  0  0  0  0  0
   10.0834  -17.0077   25.2903 C   0  0  0  0  0  0  0  0  0  0  0  0
   11.1547  -16.7684   26.1372 O   0  0  0  0  0  0  0  0  0  0  0  0
    9.4265  -18.0652   25.4698 O   0  0  0  0  0  0  0  0  0  0  0  0
  2  1  1  6
  2  4  1  0
  3  2  1  0
  4  5  1  1
  6  4  1  0
  7  6  2  0
  8  6  1  0
  9 12  1  0
  9  8  1  0
  9 10  1  6
 11 10  1  0
 12 14  1  0
 13 12  2  0
 14 15  1  0
 15 26  1  0
 15 16  1  1
 17 25  1  0
 17 16  1  0
 18 17  2  0
 19 18  1  0
 19 20  1  0
 20 25  2  0
 21 20  1  0
 21 22  2  0
 22 23  1  0
 23 24  2  0
 25 24  1  0
 26 28  2  0
 26 27  1  0
M  END
$$$$
