TCW.pdb
     RDKit          3D

 28 29  0  0  1  0  0  0  0  0999 V2000
    9.7794  -13.3273   16.7394 C   0  0  0  0  0  0  0  0  0  0  0  0
    9.5930  -14.0620   18.0311 C   0  0  1  0  0  0  0  0  0  0  0  0
    9.8972  -13.3362   19.1578 O   0  0  0  0  0  0  0  0  0  0  0  0
    8.1405  -14.5063   18.1288 C   0  0  2  0  0  0  0  0  0  0  0  0
    7.2555  -13.3720   18.0093 N   0  0  0  0  0  0  0  0  0  0  0  0
    7.8884  -15.2544   19.3982 C   0  0  0  0  0  0  0  0  0  0  0  0
    7.2971  -14.7011   20.3602 O   0  0  0  0  0  0  0  0  0  0  0  0
    8.2911  -16.6007   19.5894 N   0  0  0  0  0  0  0  0  0  0  0  0
    8.1435  -17.2887   20.8672 C   0  0  1  0  0  0  0  0  0  0  0  0
    8.3378  -18.7534   20.6299 C   0  0  0  0  0  0  0  0  0  0  0  0
    8.3797  -19.6771   22.1688 S   0  0  0  0  0  0  0  0  0  0  0  0
    9.0125  -16.7103   21.8938 C   0  0  0  0  0  0  0  0  0  0  0  0
   10.0699  -16.1175   21.5044 O   0  0  0  0  0  0  0  0  0  0  0  0
    8.7520  -16.7683   23.2976 N   0  0  0  0  0  0  0  0  0  0  0  0
    9.6506  -16.1578   24.2407 C   0  0  1  0  0  0  0  0  0  0  0  0
    9.2978  -14.7978   24.7037 C   0  0  0  0  0  0  0  0  0  0  0  0
    7.9950  -14.6218   25.3337 C   0  0  0  0  0  0  0  0  0  0  0  0
    6.9882  -15.5736   25.5091 C   0  0  0  0  0  0  0  0  0  0  0  0
    5.9409  -15.0050   26.1180 N   0  0  0  0  0  0  0  0  0  0  0  0
    6.1983  -13.6871   26.3675 C   0  0  0  0  0  0  0  0  0  0  0  0
    5.4453  -12.7100   26.9668 C   0  0  0  0  0  0  0  0  0  0  0  0
    5.9429  -11.4470   27.1045 C   0  0  0  0  0  0  0  0  0  0  0  0
    7.2079  -11.1756   26.6325 C   0  0  0  0  0  0  0  0  0  0  0  0
    7.9429  -12.1714   26.0356 C   0  0  0  0  0  0  0  0  0  0  0  0
    7.4757  -13.4711   25.8739 C   0  0  0  0  0  0  0  0  0  0  0  0
    9.9262  -17.1111   25.3479 C   0  0  0  0  0  0  0  0  0  0  0  0
   10.9709  -16.9041   26.2355 O   0  0  0  0  0  0  0  0  0  0  0  0
    9.2181  -18.1373   25.5140 O   0  0  0  0  0  0  0  0  0  0  0  0
  2  1  1  6
  2  4  1  0
  3  2  1  0
  4  5  1  1
  6  4  1  0
  7  6  2  0
  8  6  1  0
  9 12  1  0
  9  8  1  0
  9 10  1  6
 11 10  1  0
 12 14  1  0
 13 12  2  0
 14 15  1  0
 15 26  1  0
 15 16  1  1
 17 25  1  0
 17 16  1  0
 18 17  2  0
 19 18  1  0
 19 20  1  0
 20 25  2  0
 21 20  1  0
 21 22  2  0
 22 23  1  0
 23 24  2  0
 25 24  1  0
 26 28  2  0
 26 27  1  0
M  END
$$$$
