TCW.pdb
     RDKit          3D

 28 29  0  0  1  0  0  0  0  0999 V2000
    9.5440  -13.0189   19.8323 C   0  0  0  0  0  0  0  0  0  0  0  0
    8.4418  -13.2988   18.8577 C   0  0  1  0  0  0  0  0  0  0  0  0
    8.4855  -12.5509   17.7056 O   0  0  0  0  0  0  0  0  0  0  0  0
    8.4995  -14.7702   18.4726 C   0  0  2  0  0  0  0  0  0  0  0  0
    7.4515  -15.0883   17.5321 N   0  0  0  0  0  0  0  0  0  0  0  0
    8.4239  -15.6482   19.6800 C   0  0  0  0  0  0  0  0  0  0  0  0
    7.3107  -15.9740   20.1656 O   0  0  0  0  0  0  0  0  0  0  0  0
    9.5754  -16.1546   20.3349 N   0  0  0  0  0  0  0  0  0  0  0  0
    9.4934  -17.0641   21.4726 C   0  0  1  0  0  0  0  0  0  0  0  0
   10.2373  -18.3141   21.1209 C   0  0  0  0  0  0  0  0  0  0  0  0
   11.9621  -17.9802   20.7510 S   0  0  0  0  0  0  0  0  0  0  0  0
    9.9277  -16.4166   22.7118 C   0  0  0  0  0  0  0  0  0  0  0  0
   10.5635  -15.3182   22.6109 O   0  0  0  0  0  0  0  0  0  0  0  0
    9.6857  -16.9359   24.0210 N   0  0  0  0  0  0  0  0  0  0  0  0
   10.1466  -16.2349   25.1896 C   0  0  1  0  0  0  0  0  0  0  0  0
    9.7180  -14.8256   25.3262 C   0  0  0  0  0  0  0  0  0  0  0  0
    8.3146  -14.5793   25.6347 C   0  0  0  0  0  0  0  0  0  0  0  0
    7.2576  -15.4918   25.6215 C   0  0  0  0  0  0  0  0  0  0  0  0
    6.1231  -14.8619   25.9491 N   0  0  0  0  0  0  0  0  0  0  0  0
    6.3694  -13.5400   26.1880 C   0  0  0  0  0  0  0  0  0  0  0  0
    5.5397  -12.5111   26.5538 C   0  0  0  0  0  0  0  0  0  0  0  0
    6.0427  -11.2566   26.7411 C   0  0  0  0  0  0  0  0  0  0  0  0
    7.3912  -11.0466   26.5567 C   0  0  0  0  0  0  0  0  0  0  0  0
    8.2021  -12.0936   26.1900 C   0  0  0  0  0  0  0  0  0  0  0  0
    7.7326  -13.3867   25.9879 C   0  0  0  0  0  0  0  0  0  0  0  0
    9.8774  -17.0589   26.3976 C   0  0  0  0  0  0  0  0  0  0  0  0
    9.2146  -18.2735   26.3099 O   0  0  0  0  0  0  0  0  0  0  0  0
   10.2436  -16.6786   27.5392 O   0  0  0  0  0  0  0  0  0  0  0  0
  2  1  1  1
  2  4  1  0
  3  2  1  0
  4  5  1  6
  6  4  1  0
  7  6  2  0
  8  6  1  0
  9 12  1  0
  9  8  1  0
  9 10  1  6
 11 10  1  0
 12 14  1  0
 13 12  2  0
 14 15  1  0
 15 26  1  0
 15 16  1  1
 17 25  1  0
 17 16  1  0
 18 17  2  0
 19 18  1  0
 19 20  1  0
 20 25  2  0
 21 20  1  0
 21 22  2  0
 22 23  1  0
 23 24  2  0
 25 24  1  0
 26 28  2  0
 26 27  1  0
M  END
$$$$
