TCW.pdb
     RDKit          3D

 28 29  0  0  1  0  0  0  0  0999 V2000
    7.5057  -12.4939   18.8689 C   0  0  0  0  0  0  0  0  0  0  0  0
    7.9352  -13.5476   17.8951 C   0  0  1  0  0  0  0  0  0  0  0  0
    8.4114  -13.0686   16.6981 O   0  0  0  0  0  0  0  0  0  0  0  0
    9.0290  -14.3857   18.5414 C   0  0  2  0  0  0  0  0  0  0  0  0
    9.5145  -15.3831   17.6175 N   0  0  0  0  0  0  0  0  0  0  0  0
    8.5494  -15.0149   19.8097 C   0  0  0  0  0  0  0  0  0  0  0  0
    8.2625  -14.3053   20.8074 O   0  0  0  0  0  0  0  0  0  0  0  0
    8.3927  -16.4164   19.9606 N   0  0  0  0  0  0  0  0  0  0  0  0
    7.9904  -17.0284   21.2222 C   0  0  1  0  0  0  0  0  0  0  0  0
    7.6868  -18.4704   20.9614 C   0  0  0  0  0  0  0  0  0  0  0  0
    7.3130  -19.3565   22.4774 S   0  0  0  0  0  0  0  0  0  0  0  0
    8.9774  -16.7875   22.2764 C   0  0  0  0  0  0  0  0  0  0  0  0
   10.2071  -16.8050   21.9469 O   0  0  0  0  0  0  0  0  0  0  0  0
    8.6511  -16.5355   23.6447 N   0  0  0  0  0  0  0  0  0  0  0  0
    9.6821  -16.2695   24.6121 C   0  0  1  0  0  0  0  0  0  0  0  0
    9.5217  -15.0463   25.4285 C   0  0  0  0  0  0  0  0  0  0  0  0
    8.1619  -14.6030   25.7108 C   0  0  0  0  0  0  0  0  0  0  0  0
    7.0299  -15.3890   25.9364 C   0  0  0  0  0  0  0  0  0  0  0  0
    5.9721  -14.5955   26.1419 N   0  0  0  0  0  0  0  0  0  0  0  0
    6.3441  -13.2836   26.0644 C   0  0  0  0  0  0  0  0  0  0  0  0
    5.6262  -12.1238   26.2073 C   0  0  0  0  0  0  0  0  0  0  0  0
    6.2453  -10.9138   26.0880 C   0  0  0  0  0  0  0  0  0  0  0  0
    7.5964  -10.8814   25.8232 C   0  0  0  0  0  0  0  0  0  0  0  0
    8.2940  -12.0571   25.6842 C   0  0  0  0  0  0  0  0  0  0  0  0
    7.7041  -13.3112   25.7970 C   0  0  0  0  0  0  0  0  0  0  0  0
    9.9312  -17.4944   25.4172 C   0  0  0  0  0  0  0  0  0  0  0  0
   11.0316  -17.5966   26.2544 O   0  0  0  0  0  0  0  0  0  0  0  0
    9.1492  -18.4781   25.3637 O   0  0  0  0  0  0  0  0  0  0  0  0
  2  1  1  1
  2  4  1  0
  3  2  1  0
  4  5  1  6
  6  4  1  0
  7  6  2  0
  8  6  1  0
  9 12  1  0
  9  8  1  0
  9 10  1  6
 11 10  1  0
 12 14  1  0
 13 12  2  0
 14 15  1  0
 15 26  1  0
 15 16  1  1
 17 25  1  0
 17 16  1  0
 18 17  2  0
 19 18  1  0
 19 20  1  0
 20 25  2  0
 21 20  1  0
 21 22  2  0
 22 23  1  0
 23 24  2  0
 25 24  1  0
 26 28  2  0
 26 27  1  0
M  END
$$$$
