CDG.pdb
     RDKit          3D

 19 18  0  0  1  0  0  0  0  0999 V2000
    5.0315  -13.6089   25.7924 N   0  0  0  0  0  0  0  0  0  0  0  0
    6.3514  -13.1889   25.3741 C   0  0  1  0  0  0  0  0  0  0  0  0
    7.0024  -12.4569   26.5372 C   0  0  0  0  0  0  0  0  0  0  0  0
    8.6813  -11.9620   26.1258 S   0  0  0  0  0  0  0  0  0  0  0  0
    7.1378  -14.4281   25.1314 C   0  0  0  0  0  0  0  0  0  0  0  0
    6.9251  -15.4152   25.8788 O   0  0  0  0  0  0  0  0  0  0  0  0
    8.0999  -14.5593   24.1202 N   0  0  0  0  0  0  0  0  0  0  0  0
    8.7828  -15.8789   23.8998 C   0  0  1  0  0  0  0  0  0  0  0  0
    9.4045  -15.7982   22.5440 C   0  0  0  0  0  0  0  0  0  0  0  0
    8.5836  -15.7811   21.3702 C   0  0  0  0  0  0  0  0  0  0  0  0
    7.5560  -16.4341   21.1151 O   0  0  0  0  0  0  0  0  0  0  0  0
    9.7324  -15.9835   25.0285 C   0  0  0  0  0  0  0  0  0  0  0  0
   10.5435  -15.0131   25.2655 O   0  0  0  0  0  0  0  0  0  0  0  0
    8.9557  -14.9035   20.3080 O   0  0  0  0  0  0  0  0  0  0  0  0
    9.8598  -17.0648   25.9207 N   0  0  0  0  0  0  0  0  0  0  0  0
   10.8620  -17.0329   27.0075 C   0  0  0  0  0  0  0  0  0  0  0  0
   10.7819  -18.3000   27.7970 C   0  0  0  0  0  0  0  0  0  0  0  0
   11.5444  -18.5047   28.7716 O   0  0  0  0  0  0  0  0  0  0  0  0
    9.8603  -19.2852   27.4719 O   0  0  0  0  0  0  0  0  0  0  0  0
  2  1  1  1
  3  2  1  0
  4  3  1  0
  5  2  1  0
  5  6  2  0
  7  5  1  0
  8  7  1  0
  8  9  1  6
 10  9  1  0
 10 14  1  0
 11 10  2  0
 12  8  1  0
 13 12  2  0
 15 12  1  0
 16 15  1  0
 17 16  1  0
 17 19  1  0
 18 17  2  0
M  END
$$$$
