CDG.pdb
     RDKit          3D

 19 18  0  0  1  0  0  0  0  0999 V2000
    5.5194  -13.2453   26.4931 N   0  0  0  0  0  0  0  0  0  0  0  0
    6.4357  -12.8515   25.4448 C   0  0  1  0  0  0  0  0  0  0  0  0
    7.5007  -11.9588   26.0622 C   0  0  0  0  0  0  0  0  0  0  0  0
    8.3057  -12.7808   27.4440 S   0  0  0  0  0  0  0  0  0  0  0  0
    7.1103  -14.0924   24.9779 C   0  0  0  0  0  0  0  0  0  0  0  0
    6.8243  -15.1703   25.5562 O   0  0  0  0  0  0  0  0  0  0  0  0
    8.0442  -14.1300   23.9330 N   0  0  0  0  0  0  0  0  0  0  0  0
    8.5530  -15.4497   23.4274 C   0  0  1  0  0  0  0  0  0  0  0  0
    9.0730  -15.1896   22.0515 C   0  0  0  0  0  0  0  0  0  0  0  0
    9.6347  -16.2549   21.2757 C   0  0  0  0  0  0  0  0  0  0  0  0
    9.7862  -17.4535   21.5724 O   0  0  0  0  0  0  0  0  0  0  0  0
    9.5690  -15.8477   24.4254 C   0  0  0  0  0  0  0  0  0  0  0  0
   10.3921  -14.9676   24.8767 O   0  0  0  0  0  0  0  0  0  0  0  0
   10.1042  -15.9492   19.9631 O   0  0  0  0  0  0  0  0  0  0  0  0
    9.7509  -17.1324   24.9715 N   0  0  0  0  0  0  0  0  0  0  0  0
   10.8541  -17.4007   25.9190 C   0  0  0  0  0  0  0  0  0  0  0  0
   10.3173  -18.1093   27.1212 C   0  0  0  0  0  0  0  0  0  0  0  0
    9.7883  -17.4739   28.0644 O   0  0  0  0  0  0  0  0  0  0  0  0
   10.3905  -19.4910   27.2259 O   0  0  0  0  0  0  0  0  0  0  0  0
  2  1  1  1
  3  2  1  0
  4  3  1  0
  5  2  1  0
  5  6  2  0
  7  5  1  0
  8  7  1  0
  8  9  1  6
 10  9  1  0
 10 14  1  0
 11 10  2  0
 12  8  1  0
 13 12  2  0
 15 12  1  0
 16 15  1  0
 17 16  1  0
 17 19  1  0
 18 17  2  0
M  END
$$$$
