CDG.pdb
     RDKit          3D

 19 18  0  0  1  0  0  0  0  0999 V2000
    5.3364  -13.2399   26.1045 N   0  0  0  0  0  0  0  0  0  0  0  0
    6.4025  -12.9596   25.1671 C   0  0  1  0  0  0  0  0  0  0  0  0
    7.3527  -11.9673   25.8189 C   0  0  0  0  0  0  0  0  0  0  0  0
    7.5942  -12.3564   27.5576 S   0  0  0  0  0  0  0  0  0  0  0  0
    7.1493  -14.2318   24.9757 C   0  0  0  0  0  0  0  0  0  0  0  0
    6.8184  -15.2192   25.6782 O   0  0  0  0  0  0  0  0  0  0  0  0
    8.1982  -14.3936   24.0596 N   0  0  0  0  0  0  0  0  0  0  0  0
    8.8419  -15.7394   23.8848 C   0  0  1  0  0  0  0  0  0  0  0  0
    9.6034  -15.6669   22.6019 C   0  0  0  0  0  0  0  0  0  0  0  0
   10.3324  -16.8049   22.1266 C   0  0  0  0  0  0  0  0  0  0  0  0
    9.9101  -17.9127   21.7499 O   0  0  0  0  0  0  0  0  0  0  0  0
    9.6643  -15.9037   25.1028 C   0  0  0  0  0  0  0  0  0  0  0  0
   10.6284  -15.0828   25.3313 O   0  0  0  0  0  0  0  0  0  0  0  0
   11.7543  -16.7049   22.0559 O   0  0  0  0  0  0  0  0  0  0  0  0
    9.5104  -16.8931   26.0922 N   0  0  0  0  0  0  0  0  0  0  0  0
   10.4300  -16.9538   27.2487 C   0  0  0  0  0  0  0  0  0  0  0  0
   10.9829  -18.3373   27.3738 C   0  0  0  0  0  0  0  0  0  0  0  0
   11.2881  -18.8135   28.4933 O   0  0  0  0  0  0  0  0  0  0  0  0
   11.1738  -19.1327   26.2529 O   0  0  0  0  0  0  0  0  0  0  0  0
  2  1  1  1
  3  2  1  0
  4  3  1  0
  5  2  1  0
  5  6  2  0
  7  5  1  0
  8  7  1  0
  8  9  1  6
 10  9  1  0
 10 14  1  0
 11 10  2  0
 12  8  1  0
 13 12  2  0
 15 12  1  0
 16 15  1  0
 17 16  1  0
 17 19  1  0
 18 17  2  0
M  END
$$$$
