CDG.pdb
     RDKit          3D

 19 18  0  0  1  0  0  0  0  0999 V2000
    7.9922  -13.7737   17.6442 N   0  0  0  0  0  0  0  0  0  0  0  0
    8.5813  -13.3351   18.8909 C   0  0  1  0  0  0  0  0  0  0  0  0
    7.4537  -13.0702   19.8762 C   0  0  0  0  0  0  0  0  0  0  0  0
    8.0998  -12.7789   21.5286 S   0  0  0  0  0  0  0  0  0  0  0  0
    9.3723  -14.4800   19.4164 C   0  0  0  0  0  0  0  0  0  0  0  0
    8.9925  -15.6410   19.1230 O   0  0  0  0  0  0  0  0  0  0  0  0
   10.5142  -14.3404   20.2178 N   0  0  0  0  0  0  0  0  0  0  0  0
   11.1949  -15.5583   20.7741 C   0  0  1  0  0  0  0  0  0  0  0  0
   12.6354  -15.4304   20.4005 C   0  0  0  0  0  0  0  0  0  0  0  0
   13.4782  -16.5879   20.3567 C   0  0  0  0  0  0  0  0  0  0  0  0
   14.0179  -17.2081   21.2903 O   0  0  0  0  0  0  0  0  0  0  0  0
   10.9072  -15.4986   22.2233 C   0  0  0  0  0  0  0  0  0  0  0  0
   10.4211  -14.4196   22.7284 O   0  0  0  0  0  0  0  0  0  0  0  0
   13.7730  -17.1512   19.0789 O   0  0  0  0  0  0  0  0  0  0  0  0
   11.1051  -16.5293   23.1615 N   0  0  0  0  0  0  0  0  0  0  0  0
   10.8026  -16.3155   24.5931 C   0  0  0  0  0  0  0  0  0  0  0  0
   11.0651  -17.5767   25.3519 C   0  0  0  0  0  0  0  0  0  0  0  0
   11.3133  -18.6515   24.7548 O   0  0  0  0  0  0  0  0  0  0  0  0
   11.0410  -17.5920   26.7392 O   0  0  0  0  0  0  0  0  0  0  0  0
  2  1  1  6
  3  2  1  0
  4  3  1  0
  5  2  1  0
  5  6  2  0
  7  5  1  0
  8  7  1  0
  8  9  1  1
 10  9  1  0
 10 14  1  0
 11 10  2  0
 12  8  1  0
 13 12  2  0
 15 12  1  0
 16 15  1  0
 17 16  1  0
 17 19  1  0
 18 17  2  0
M  END
$$$$
