CDG.pdb
     RDKit          3D

 19 18  0  0  1  0  0  0  0  0999 V2000
    5.2636  -14.1531   25.6102 N   0  0  0  0  0  0  0  0  0  0  0  0
    6.6034  -13.6441   25.4118 C   0  0  1  0  0  0  0  0  0  0  0  0
    7.0756  -13.0388   26.7245 C   0  0  0  0  0  0  0  0  0  0  0  0
    7.6632  -11.3570   26.4817 S   0  0  0  0  0  0  0  0  0  0  0  0
    7.4695  -14.8193   25.1260 C   0  0  0  0  0  0  0  0  0  0  0  0
    7.2063  -15.8996   25.7106 O   0  0  0  0  0  0  0  0  0  0  0  0
    8.5597  -14.7926   24.2449 N   0  0  0  0  0  0  0  0  0  0  0  0
    9.3969  -16.0240   24.0483 C   0  0  1  0  0  0  0  0  0  0  0  0
   10.2016  -15.7808   22.8136 C   0  0  0  0  0  0  0  0  0  0  0  0
    9.8270  -16.3908   21.5727 C   0  0  0  0  0  0  0  0  0  0  0  0
    8.9226  -17.2118   21.3371 O   0  0  0  0  0  0  0  0  0  0  0  0
   10.1743  -16.1323   25.3015 C   0  0  0  0  0  0  0  0  0  0  0  0
   10.8050  -15.1027   25.7463 O   0  0  0  0  0  0  0  0  0  0  0  0
   10.5686  -16.0390   20.4051 O   0  0  0  0  0  0  0  0  0  0  0  0
   10.3108  -17.2777   26.1083 N   0  0  0  0  0  0  0  0  0  0  0  0
   10.9635  -17.1951   27.4326 C   0  0  0  0  0  0  0  0  0  0  0  0
   11.0260  -18.5583   28.0435 C   0  0  0  0  0  0  0  0  0  0  0  0
    9.9956  -19.1129   28.4952 O   0  0  0  0  0  0  0  0  0  0  0  0
   12.2275  -19.2472   28.1276 O   0  0  0  0  0  0  0  0  0  0  0  0
  2  1  1  1
  3  2  1  0
  4  3  1  0
  5  2  1  0
  5  6  2  0
  7  5  1  0
  8  7  1  0
  8  9  1  6
 10  9  1  0
 10 14  1  0
 11 10  2  0
 12  8  1  0
 13 12  2  0
 15 12  1  0
 16 15  1  0
 17 16  1  0
 17 19  1  0
 18 17  2  0
M  END
$$$$
