CDG.pdb
     RDKit          3D

 19 18  0  0  1  0  0  0  0  0999 V2000
    7.3386  -15.6559   19.2261 N   0  0  0  0  0  0  0  0  0  0  0  0
    7.9454  -14.8229   20.2418 C   0  0  1  0  0  0  0  0  0  0  0  0
    6.8817  -14.4944   21.2776 C   0  0  0  0  0  0  0  0  0  0  0  0
    7.5455  -13.4278   22.5639 S   0  0  0  0  0  0  0  0  0  0  0  0
    8.9804  -15.6534   20.9140 C   0  0  0  0  0  0  0  0  0  0  0  0
    8.7641  -16.8858   21.0253 O   0  0  0  0  0  0  0  0  0  0  0  0
   10.1803  -15.1432   21.4293 N   0  0  0  0  0  0  0  0  0  0  0  0
   11.1902  -16.0718   22.0407 C   0  0  1  0  0  0  0  0  0  0  0  0
   12.5294  -15.5270   21.6651 C   0  0  0  0  0  0  0  0  0  0  0  0
   13.0664  -15.7613   20.3579 C   0  0  0  0  0  0  0  0  0  0  0  0
   13.1778  -16.8289   19.7292 O   0  0  0  0  0  0  0  0  0  0  0  0
   10.8752  -16.0424   23.4852 C   0  0  0  0  0  0  0  0  0  0  0  0
   10.3836  -14.9726   24.0043 O   0  0  0  0  0  0  0  0  0  0  0  0
   13.5594  -14.6386   19.6276 O   0  0  0  0  0  0  0  0  0  0  0  0
   11.0515  -17.0939   24.4042 N   0  0  0  0  0  0  0  0  0  0  0  0
   10.6726  -16.9274   25.8239 C   0  0  0  0  0  0  0  0  0  0  0  0
   11.1005  -18.1323   26.5988 C   0  0  0  0  0  0  0  0  0  0  0  0
   11.5540  -19.1475   26.0183 O   0  0  0  0  0  0  0  0  0  0  0  0
   11.0071  -18.1597   27.9829 O   0  0  0  0  0  0  0  0  0  0  0  0
  2  1  1  6
  3  2  1  0
  4  3  1  0
  5  2  1  0
  5  6  2  0
  7  5  1  0
  8  7  1  0
  8  9  1  1
 10  9  1  0
 10 14  1  0
 11 10  2  0
 12  8  1  0
 13 12  2  0
 15 12  1  0
 16 15  1  0
 17 16  1  0
 17 19  1  0
 18 17  2  0
M  END
$$$$
