CDG.pdb
     RDKit          3D

 19 18  0  0  1  0  0  0  0  0999 V2000
    6.9414  -15.7963   20.1562 N   0  0  0  0  0  0  0  0  0  0  0  0
    7.7731  -15.0914   21.1076 C   0  0  1  0  0  0  0  0  0  0  0  0
    6.8723  -14.5407   22.2020 C   0  0  0  0  0  0  0  0  0  0  0  0
    7.8383  -13.7155   23.4743 S   0  0  0  0  0  0  0  0  0  0  0  0
    8.6633  -16.1065   21.7321 C   0  0  0  0  0  0  0  0  0  0  0  0
    8.1937  -17.2534   21.9376 O   0  0  0  0  0  0  0  0  0  0  0  0
    9.9923  -15.8596   22.1040 N   0  0  0  0  0  0  0  0  0  0  0  0
   10.8081  -16.9471   22.7425 C   0  0  1  0  0  0  0  0  0  0  0  0
   12.1712  -16.8456   22.1403 C   0  0  0  0  0  0  0  0  0  0  0  0
   12.4130  -17.3198   20.8103 C   0  0  0  0  0  0  0  0  0  0  0  0
   12.1361  -18.4207   20.3015 O   0  0  0  0  0  0  0  0  0  0  0  0
   10.7295  -16.6510   24.1892 C   0  0  0  0  0  0  0  0  0  0  0  0
   10.7065  -15.4267   24.5845 O   0  0  0  0  0  0  0  0  0  0  0  0
   13.0644  -16.4390   19.8955 O   0  0  0  0  0  0  0  0  0  0  0  0
   10.6691  -17.5901   25.2361 N   0  0  0  0  0  0  0  0  0  0  0  0
   10.6429  -17.1475   26.6468 C   0  0  0  0  0  0  0  0  0  0  0  0
   10.5702  -18.3422   27.5429 C   0  0  0  0  0  0  0  0  0  0  0  0
   10.4890  -19.5013   27.0707 O   0  0  0  0  0  0  0  0  0  0  0  0
   10.5903  -18.2002   28.9231 O   0  0  0  0  0  0  0  0  0  0  0  0
  2  1  1  6
  3  2  1  0
  4  3  1  0
  5  2  1  0
  5  6  2  0
  7  5  1  0
  8  7  1  0
  8  9  1  6
 10  9  1  0
 10 14  1  0
 11 10  2  0
 12  8  1  0
 13 12  2  0
 15 12  1  0
 16 15  1  0
 17 16  1  0
 17 19  1  0
 18 17  2  0
M  END
$$$$
