CDG.pdb
     RDKit          3D

 19 18  0  0  1  0  0  0  0  0999 V2000
    7.1501  -13.2072   17.8365 N   0  0  0  0  0  0  0  0  0  0  0  0
    8.1499  -13.5436   18.8269 C   0  0  1  0  0  0  0  0  0  0  0  0
    7.7264  -12.9268   20.1508 C   0  0  0  0  0  0  0  0  0  0  0  0
    8.8214  -13.4440   21.4798 S   0  0  0  0  0  0  0  0  0  0  0  0
    8.1094  -15.0215   18.9908 C   0  0  0  0  0  0  0  0  0  0  0  0
    6.9880  -15.5865   18.9552 O   0  0  0  0  0  0  0  0  0  0  0  0
    9.2462  -15.8194   19.1819 N   0  0  0  0  0  0  0  0  0  0  0  0
    9.0947  -17.2595   19.5811 C   0  0  1  0  0  0  0  0  0  0  0  0
    9.9129  -18.0437   18.6081 C   0  0  0  0  0  0  0  0  0  0  0  0
    9.4545  -18.2352   17.2645 C   0  0  0  0  0  0  0  0  0  0  0  0
    8.2915  -18.2825   16.8257 O   0  0  0  0  0  0  0  0  0  0  0  0
    9.5678  -17.2944   20.9817 C   0  0  0  0  0  0  0  0  0  0  0  0
    8.8377  -17.8517   21.8828 O   0  0  0  0  0  0  0  0  0  0  0  0
   10.4358  -18.4012   16.2416 O   0  0  0  0  0  0  0  0  0  0  0  0
   10.7795  -16.7717   21.4717 N   0  0  0  0  0  0  0  0  0  0  0  0
   11.1747  -16.9765   22.8818 C   0  0  0  0  0  0  0  0  0  0  0  0
   12.5021  -16.3331   23.1260 C   0  0  0  0  0  0  0  0  0  0  0  0
   13.1029  -15.7214   22.2105 O   0  0  0  0  0  0  0  0  0  0  0  0
   13.1058  -16.3958   24.3738 O   0  0  0  0  0  0  0  0  0  0  0  0
  2  1  1  6
  3  2  1  0
  4  3  1  0
  5  2  1  0
  5  6  2  0
  7  5  1  0
  8  7  1  0
  8  9  1  6
 10  9  1  0
 10 14  1  0
 11 10  2  0
 12  8  1  0
 13 12  2  0
 15 12  1  0
 16 15  1  0
 17 16  1  0
 17 19  1  0
 18 17  2  0
M  END
$$$$
