CDG.pdb
     RDKit          3D

 19 18  0  0  1  0  0  0  0  0999 V2000
    7.7874  -16.1775   19.6335 N   0  0  0  0  0  0  0  0  0  0  0  0
    8.8090  -15.3001   20.1628 C   0  0  1  0  0  0  0  0  0  0  0  0
    8.1307  -14.2756   21.0588 C   0  0  0  0  0  0  0  0  0  0  0  0
    7.2399  -13.0573   20.0815 S   0  0  0  0  0  0  0  0  0  0  0  0
    9.6856  -16.1361   21.0261 C   0  0  0  0  0  0  0  0  0  0  0  0
    9.2370  -17.2391   21.4265 O   0  0  0  0  0  0  0  0  0  0  0  0
   10.9799  -15.7668   21.4185 N   0  0  0  0  0  0  0  0  0  0  0  0
   11.8504  -16.7461   22.1529 C   0  0  1  0  0  0  0  0  0  0  0  0
   13.2585  -16.3669   21.8295 C   0  0  0  0  0  0  0  0  0  0  0  0
   14.3539  -17.0638   22.4349 C   0  0  0  0  0  0  0  0  0  0  0  0
   14.3388  -18.0149   23.2367 O   0  0  0  0  0  0  0  0  0  0  0  0
   11.4580  -16.5818   23.5691 C   0  0  0  0  0  0  0  0  0  0  0  0
   11.0912  -15.4241   23.9943 O   0  0  0  0  0  0  0  0  0  0  0  0
   15.6771  -16.6446   22.1032 O   0  0  0  0  0  0  0  0  0  0  0  0
   11.4309  -17.5868   24.5545 N   0  0  0  0  0  0  0  0  0  0  0  0
   11.0234  -17.2738   25.9411 C   0  0  0  0  0  0  0  0  0  0  0  0
   11.0842  -18.5160   26.7710 C   0  0  0  0  0  0  0  0  0  0  0  0
   10.7858  -18.4957   27.9891 O   0  0  0  0  0  0  0  0  0  0  0  0
   11.4731  -19.7263   26.2149 O   0  0  0  0  0  0  0  0  0  0  0  0
  2  1  1  1
  3  2  1  0
  4  3  1  0
  5  2  1  0
  5  6  2  0
  7  5  1  0
  8  7  1  0
  8  9  1  1
 10  9  1  0
 10 14  1  0
 11 10  2  0
 12  8  1  0
 13 12  2  0
 15 12  1  0
 16 15  1  0
 17 16  1  0
 17 19  1  0
 18 17  2  0
M  END
$$$$
