CDG.pdb
     RDKit          3D

 19 18  0  0  1  0  0  0  0  0999 V2000
    5.3749  -12.9195   26.4767 N   0  0  0  0  0  0  0  0  0  0  0  0
    6.3158  -12.5617   25.4373 C   0  0  1  0  0  0  0  0  0  0  0  0
    7.3907  -11.6833   26.0582 C   0  0  0  0  0  0  0  0  0  0  0  0
    7.9979  -12.3986   27.5919 S   0  0  0  0  0  0  0  0  0  0  0  0
    6.9699  -13.8239   24.9993 C   0  0  0  0  0  0  0  0  0  0  0  0
    6.8223  -14.8430   25.7190 O   0  0  0  0  0  0  0  0  0  0  0  0
    7.7395  -13.9432   23.8336 N   0  0  0  0  0  0  0  0  0  0  0  0
    8.3103  -15.2767   23.4435 C   0  0  1  0  0  0  0  0  0  0  0  0
    8.8046  -15.1181   22.0430 C   0  0  0  0  0  0  0  0  0  0  0  0
    9.3546  -16.2371   21.3376 C   0  0  0  0  0  0  0  0  0  0  0  0
   10.2604  -16.2662   20.4854 O   0  0  0  0  0  0  0  0  0  0  0  0
    9.3537  -15.5307   24.4601 C   0  0  0  0  0  0  0  0  0  0  0  0
   10.2489  -14.6345   24.6862 O   0  0  0  0  0  0  0  0  0  0  0  0
    8.8198  -17.5306   21.6165 O   0  0  0  0  0  0  0  0  0  0  0  0
    9.4905  -16.6866   25.2519 N   0  0  0  0  0  0  0  0  0  0  0  0
   10.5495  -16.7765   26.2800 C   0  0  0  0  0  0  0  0  0  0  0  0
   11.3351  -18.0325   26.0779 C   0  0  0  0  0  0  0  0  0  0  0  0
   10.8678  -18.9884   25.4138 O   0  0  0  0  0  0  0  0  0  0  0  0
   12.6043  -18.1744   26.6207 O   0  0  0  0  0  0  0  0  0  0  0  0
  2  1  1  1
  3  2  1  0
  4  3  1  0
  5  2  1  0
  5  6  2  0
  7  5  1  0
  8  7  1  0
  8  9  1  6
 10  9  1  0
 10 14  1  0
 11 10  2  0
 12  8  1  0
 13 12  2  0
 15 12  1  0
 16 15  1  0
 17 16  1  0
 17 19  1  0
 18 17  2  0
M  END
$$$$
