CDG.pdb
     RDKit          3D

 19 18  0  0  1  0  0  0  0  0999 V2000
    6.3510  -14.7576   20.4131 N   0  0  0  0  0  0  0  0  0  0  0  0
    7.7626  -14.7203   20.0972 C   0  0  1  0  0  0  0  0  0  0  0  0
    8.2508  -13.2936   20.2938 C   0  0  0  0  0  0  0  0  0  0  0  0
    7.7619  -12.2514   18.9126 S   0  0  0  0  0  0  0  0  0  0  0  0
    8.4495  -15.5695   21.1071 C   0  0  0  0  0  0  0  0  0  0  0  0
    7.9519  -15.6321   22.2589 O   0  0  0  0  0  0  0  0  0  0  0  0
    9.6167  -16.3024   20.8500 N   0  0  0  0  0  0  0  0  0  0  0  0
   10.2692  -17.0867   21.9524 C   0  0  1  0  0  0  0  0  0  0  0  0
   10.1218  -18.5247   21.5761 C   0  0  0  0  0  0  0  0  0  0  0  0
   10.7405  -19.5474   22.3657 C   0  0  0  0  0  0  0  0  0  0  0  0
   11.1677  -19.4946   23.5328 O   0  0  0  0  0  0  0  0  0  0  0  0
   11.6571  -16.5771   21.9812 C   0  0  0  0  0  0  0  0  0  0  0  0
   12.1719  -16.0815   20.9112 O   0  0  0  0  0  0  0  0  0  0  0  0
   10.9163  -20.8338   21.7731 O   0  0  0  0  0  0  0  0  0  0  0  0
   12.5231  -16.5631   23.0909 N   0  0  0  0  0  0  0  0  0  0  0  0
   13.9038  -16.0487   22.9646 C   0  0  0  0  0  0  0  0  0  0  0  0
   14.5960  -16.1491   24.2861 C   0  0  0  0  0  0  0  0  0  0  0  0
   13.9992  -16.5898   25.2974 O   0  0  0  0  0  0  0  0  0  0  0  0
   15.9192  -15.7566   24.4291 O   0  0  0  0  0  0  0  0  0  0  0  0
  2  1  1  1
  3  2  1  0
  4  3  1  0
  5  2  1  0
  5  6  2  0
  7  5  1  0
  8  7  1  0
  8  9  1  6
 10  9  1  0
 10 14  1  0
 11 10  2  0
 12  8  1  0
 13 12  2  0
 15 12  1  0
 16 15  1  0
 17 16  1  0
 17 19  1  0
 18 17  2  0
M  END
$$$$
