CDG.pdb
     RDKit          3D

 19 18  0  0  1  0  0  0  0  0999 V2000
    5.3772  -13.0832   26.2923 N   0  0  0  0  0  0  0  0  0  0  0  0
    6.7114  -12.7705   25.8279 C   0  0  1  0  0  0  0  0  0  0  0  0
    7.6238  -12.6856   27.0415 C   0  0  0  0  0  0  0  0  0  0  0  0
    7.3645  -11.1461   27.9335 S   0  0  0  0  0  0  0  0  0  0  0  0
    7.1628  -13.9291   25.0114 C   0  0  0  0  0  0  0  0  0  0  0  0
    6.6256  -15.0443   25.2258 O   0  0  0  0  0  0  0  0  0  0  0  0
    8.1498  -13.8503   24.0189 N   0  0  0  0  0  0  0  0  0  0  0  0
    8.4378  -15.0410   23.1497 C   0  0  1  0  0  0  0  0  0  0  0  0
    9.1478  -14.5099   21.9476 C   0  0  0  0  0  0  0  0  0  0  0  0
    9.5535  -15.3942   20.8962 C   0  0  0  0  0  0  0  0  0  0  0  0
    9.3951  -15.2854   19.6671 O   0  0  0  0  0  0  0  0  0  0  0  0
    9.2376  -15.9323   24.0172 C   0  0  0  0  0  0  0  0  0  0  0  0
    9.5976  -17.0870   23.5780 O   0  0  0  0  0  0  0  0  0  0  0  0
   10.2439  -16.5896   21.2583 O   0  0  0  0  0  0  0  0  0  0  0  0
    9.6782  -15.6564   25.3253 N   0  0  0  0  0  0  0  0  0  0  0  0
   10.4169  -16.6738   26.1036 C   0  0  0  0  0  0  0  0  0  0  0  0
   10.7122  -16.1399   27.4686 C   0  0  0  0  0  0  0  0  0  0  0  0
   11.3037  -16.8412   28.3238 O   0  0  0  0  0  0  0  0  0  0  0  0
   10.3391  -14.8521   27.8262 O   0  0  0  0  0  0  0  0  0  0  0  0
  2  1  1  1
  3  2  1  0
  4  3  1  0
  5  2  1  0
  5  6  2  0
  7  5  1  0
  8  7  1  0
  8  9  1  6
 10  9  1  0
 10 14  1  0
 11 10  2  0
 12  8  1  0
 13 12  2  0
 15 12  1  0
 16 15  1  0
 17 16  1  0
 17 19  1  0
 18 17  2  0
M  END
$$$$
