CDG.pdb
     RDKit          3D

 19 18  0  0  1  0  0  0  0  0999 V2000
    5.4775  -13.8679   25.5619 N   0  0  0  0  0  0  0  0  0  0  0  0
    6.8521  -13.4932   25.3098 C   0  0  1  0  0  0  0  0  0  0  0  0
    7.4233  -12.9102   26.5929 C   0  0  0  0  0  0  0  0  0  0  0  0
    6.9929  -11.1721   26.7559 S   0  0  0  0  0  0  0  0  0  0  0  0
    7.5928  -14.7512   25.0237 C   0  0  0  0  0  0  0  0  0  0  0  0
    7.1334  -15.8231   25.4905 O   0  0  0  0  0  0  0  0  0  0  0  0
    8.7705  -14.8110   24.2654 N   0  0  0  0  0  0  0  0  0  0  0  0
    9.4163  -16.1377   23.9844 C   0  0  1  0  0  0  0  0  0  0  0  0
   10.3333  -15.9113   22.8272 C   0  0  0  0  0  0  0  0  0  0  0  0
    9.8691  -16.1058   21.4860 C   0  0  0  0  0  0  0  0  0  0  0  0
    9.2799  -17.0814   20.9875 O   0  0  0  0  0  0  0  0  0  0  0  0
   10.0778  -16.4910   25.2589 C   0  0  0  0  0  0  0  0  0  0  0  0
   10.5235  -15.5553   26.0215 O   0  0  0  0  0  0  0  0  0  0  0  0
   10.0905  -15.0566   20.5441 O   0  0  0  0  0  0  0  0  0  0  0  0
   10.2848  -17.7878   25.7659 N   0  0  0  0  0  0  0  0  0  0  0  0
   10.0769  -18.0796   27.2006 C   0  0  0  0  0  0  0  0  0  0  0  0
   11.3830  -18.4471   27.8288 C   0  0  0  0  0  0  0  0  0  0  0  0
   12.4487  -18.4223   27.1680 O   0  0  0  0  0  0  0  0  0  0  0  0
   11.4509  -18.8262   29.1619 O   0  0  0  0  0  0  0  0  0  0  0  0
  2  1  1  1
  3  2  1  0
  4  3  1  0
  5  2  1  0
  5  6  2  0
  7  5  1  0
  8  7  1  0
  8  9  1  6
 10  9  1  0
 10 14  1  0
 11 10  2  0
 12  8  1  0
 13 12  2  0
 15 12  1  0
 16 15  1  0
 17 16  1  0
 17 19  1  0
 18 17  2  0
M  END
$$$$
