CDG.pdb
     RDKit          3D

 19 18  0  0  1  0  0  0  0  0999 V2000
    5.0536  -13.7525   26.0647 N   0  0  0  0  0  0  0  0  0  0  0  0
    6.4157  -13.3509   25.7873 C   0  0  1  0  0  0  0  0  0  0  0  0
    7.0671  -12.9572   27.1038 C   0  0  0  0  0  0  0  0  0  0  0  0
    8.8078  -12.5725   26.8693 S   0  0  0  0  0  0  0  0  0  0  0  0
    7.1236  -14.5584   25.2836 C   0  0  0  0  0  0  0  0  0  0  0  0
    6.7774  -15.6762   25.7405 O   0  0  0  0  0  0  0  0  0  0  0  0
    8.1517  -14.5228   24.3311 N   0  0  0  0  0  0  0  0  0  0  0  0
    8.8817  -15.7838   23.9663 C   0  0  1  0  0  0  0  0  0  0  0  0
    9.5975  -15.4891   22.6889 C   0  0  0  0  0  0  0  0  0  0  0  0
   10.4159  -16.4886   22.0696 C   0  0  0  0  0  0  0  0  0  0  0  0
   10.1591  -17.6816   21.8280 O   0  0  0  0  0  0  0  0  0  0  0  0
    9.7496  -16.0458   25.1345 C   0  0  0  0  0  0  0  0  0  0  0  0
   10.6189  -15.1652   25.4876 O   0  0  0  0  0  0  0  0  0  0  0  0
   11.7270  -16.1119   21.6500 O   0  0  0  0  0  0  0  0  0  0  0  0
    9.7366  -17.1937   25.9492 N   0  0  0  0  0  0  0  0  0  0  0  0
   10.7686  -17.3930   26.9893 C   0  0  0  0  0  0  0  0  0  0  0  0
   10.4047  -18.5726   27.8331 C   0  0  0  0  0  0  0  0  0  0  0  0
   10.7809  -18.6551   29.0267 O   0  0  0  0  0  0  0  0  0  0  0  0
    9.6401  -19.6092   27.3171 O   0  0  0  0  0  0  0  0  0  0  0  0
  2  1  1  1
  3  2  1  0
  4  3  1  0
  5  2  1  0
  5  6  2  0
  7  5  1  0
  8  7  1  0
  8  9  1  6
 10  9  1  0
 10 14  1  0
 11 10  2  0
 12  8  1  0
 13 12  2  0
 15 12  1  0
 16 15  1  0
 17 16  1  0
 17 19  1  0
 18 17  2  0
M  END
$$$$
