TDN.pdb
     RDKit          3D

 24 23  0  0  1  0  0  0  0  0999 V2000
   -8.5140  -28.5791   29.2107 C   0  0  0  0  0  0  0  0  0  0  0  0
   -7.1749  -29.2313   29.0231 C   0  0  1  0  0  0  0  0  0  0  0  0
   -7.3569  -30.5959   29.2793 O   0  0  0  0  0  0  0  0  0  0  0  0
   -6.6199  -29.0457   27.6061 C   0  0  2  0  0  0  0  0  0  0  0  0
   -5.2842  -29.6821   27.6563 N   0  0  0  0  0  0  0  0  0  0  0  0
   -6.4267  -27.6166   27.3433 C   0  0  0  0  0  0  0  0  0  0  0  0
   -5.5446  -26.9919   28.0175 O   0  0  0  0  0  0  0  0  0  0  0  0
   -7.1353  -26.8398   26.3934 N   0  0  0  0  0  0  0  0  0  0  0  0
   -6.9609  -25.4245   26.3385 C   0  0  1  0  0  0  0  0  0  0  0  0
   -7.5546  -24.8046   25.0970 C   0  0  0  0  0  0  0  0  0  0  0  0
   -7.2868  -23.3591   24.9926 C   0  0  0  0  0  0  0  0  0  0  0  0
   -6.5957  -22.7930   25.8638 O   0  0  0  0  0  0  0  0  0  0  0  0
   -7.6456  -24.7356   27.4894 C   0  0  0  0  0  0  0  0  0  0  0  0
   -8.8883  -24.8360   27.5530 O   0  0  0  0  0  0  0  0  0  0  0  0
   -7.7870  -22.6149   23.9455 O   0  0  0  0  0  0  0  0  0  0  0  0
   -9.6213  -24.0998   31.0820 N   0  0  0  0  0  0  0  0  0  0  0  0
   -8.3483  -24.4249   31.6298 C   0  0  0  0  0  0  0  0  0  0  0  0
   -8.2328  -25.0433   32.7098 O   0  0  0  0  0  0  0  0  0  0  0  0
   -7.1522  -23.9975   30.8626 C   0  0  0  0  0  0  0  0  0  0  0  0
   -7.5767  -23.3400   29.5432 C   0  0  2  0  0  0  0  0  0  0  0  0
   -6.9215  -24.0076   28.4556 N   0  0  0  0  0  0  0  0  0  0  0  0
   -7.2826  -21.8899   29.5856 C   0  0  0  0  0  0  0  0  0  0  0  0
   -6.2827  -21.3222   28.8380 O   0  0  0  0  0  0  0  0  0  0  0  0
   -7.9614  -21.1124   30.3308 O   0  0  0  0  0  0  0  0  0  0  0  0
  2  1  1  6
  3  2  1  0
  4  2  1  0
  4  6  1  0
  4  5  1  1
  6  7  2  0
  8  9  1  0
  8  6  1  0
  9 13  1  0
  9 10  1  6
 11 10  1  0
 11 15  1  0
 12 11  2  0
 13 14  2  0
 17 16  1  0
 17 18  2  0
 19 17  1  0
 20 19  1  1
 21 20  1  0
 21 13  1  0
 22 23  1  0
 22 20  1  0
 24 22  2  0
M  END
$$$$
