TDN.pdb
     RDKit          3D

 24 23  0  0  1  0  0  0  0  0999 V2000
    9.4920  -14.0710   16.7772 C   0  0  0  0  0  0  0  0  0  0  0  0
    8.6205  -13.2433   17.6767 C   0  0  1  0  0  0  0  0  0  0  0  0
    7.9597  -12.3224   16.8543 O   0  0  0  0  0  0  0  0  0  0  0  0
    7.5882  -14.0839   18.4372 C   0  0  2  0  0  0  0  0  0  0  0  0
    6.8226  -13.0898   19.2228 N   0  0  0  0  0  0  0  0  0  0  0  0
    8.2805  -14.9656   19.3817 C   0  0  0  0  0  0  0  0  0  0  0  0
    8.5856  -14.5025   20.5285 O   0  0  0  0  0  0  0  0  0  0  0  0
    8.6531  -16.3123   19.1460 N   0  0  0  0  0  0  0  0  0  0  0  0
    9.5074  -16.9991   20.0598 C   0  0  1  0  0  0  0  0  0  0  0  0
    9.4492  -18.4997   19.9077 C   0  0  0  0  0  0  0  0  0  0  0  0
    8.0926  -18.9950   19.6141 C   0  0  0  0  0  0  0  0  0  0  0  0
    7.1288  -18.6072   20.3054 O   0  0  0  0  0  0  0  0  0  0  0  0
   10.9536  -16.6370   19.8472 C   0  0  0  0  0  0  0  0  0  0  0  0
   11.2337  -16.0049   18.8078 O   0  0  0  0  0  0  0  0  0  0  0  0
    7.8649  -19.8834   18.5848 O   0  0  0  0  0  0  0  0  0  0  0  0
   14.9906  -15.5877   19.0992 N   0  0  0  0  0  0  0  0  0  0  0  0
   14.0219  -14.5653   19.3054 C   0  0  0  0  0  0  0  0  0  0  0  0
   14.0692  -13.4776   18.6916 O   0  0  0  0  0  0  0  0  0  0  0  0
   12.9434  -14.8428   20.2861 C   0  0  0  0  0  0  0  0  0  0  0  0
   13.1519  -16.2211   20.9265 C   0  0  2  0  0  0  0  0  0  0  0  0
   11.9522  -16.9931   20.7766 N   0  0  0  0  0  0  0  0  0  0  0  0
   13.5582  -16.0630   22.3411 C   0  0  0  0  0  0  0  0  0  0  0  0
   14.8188  -15.6605   22.7014 O   0  0  0  0  0  0  0  0  0  0  0  0
   12.7347  -16.3002   23.2824 O   0  0  0  0  0  0  0  0  0  0  0  0
  2  1  1  6
  3  2  1  0
  4  2  1  0
  4  6  1  0
  4  5  1  1
  6  7  2  0
  8  9  1  0
  8  6  1  0
  9 13  1  0
  9 10  1  6
 11 10  1  0
 11 15  1  0
 12 11  2  0
 13 14  2  0
 17 16  1  0
 17 18  2  0
 19 17  1  0
 20 19  1  1
 21 20  1  0
 21 13  1  0
 22 23  1  0
 22 20  1  0
 24 22  2  0
M  END
$$$$
