TDN.pdb
     RDKit          3D

 24 23  0  0  1  0  0  0  0  0999 V2000
    7.6972  -12.0264   19.2020 C   0  0  0  0  0  0  0  0  0  0  0  0
    8.8702  -12.9256   19.4648 C   0  0  1  0  0  0  0  0  0  0  0  0
    8.4453  -13.8697   20.4077 O   0  0  0  0  0  0  0  0  0  0  0  0
    9.3578  -13.6461   18.2023 C   0  0  2  0  0  0  0  0  0  0  0  0
    8.2142  -14.5008   17.8111 N   0  0  0  0  0  0  0  0  0  0  0  0
   10.4785  -14.5258   18.5472 C   0  0  0  0  0  0  0  0  0  0  0  0
   10.2221  -15.7265   18.8865 O   0  0  0  0  0  0  0  0  0  0  0  0
   11.8503  -14.1708   18.5406 N   0  0  0  0  0  0  0  0  0  0  0  0
   12.8420  -15.0993   18.9776 C   0  0  1  0  0  0  0  0  0  0  0  0
   14.1960  -14.8513   18.3585 C   0  0  0  0  0  0  0  0  0  0  0  0
   14.2296  -15.1445   16.9145 C   0  0  0  0  0  0  0  0  0  0  0  0
   13.6641  -16.1673   16.4772 O   0  0  0  0  0  0  0  0  0  0  0  0
   13.0665  -15.0133   20.4643 C   0  0  0  0  0  0  0  0  0  0  0  0
   13.6481  -13.9951   20.8926 O   0  0  0  0  0  0  0  0  0  0  0  0
   14.8770  -14.3069   16.0315 O   0  0  0  0  0  0  0  0  0  0  0  0
    9.8970  -17.3086   24.2812 N   0  0  0  0  0  0  0  0  0  0  0  0
   10.5224  -16.6959   23.1588 C   0  0  0  0  0  0  0  0  0  0  0  0
   10.2581  -17.0397   21.9866 O   0  0  0  0  0  0  0  0  0  0  0  0
   11.5095  -15.6233   23.4361 C   0  0  0  0  0  0  0  0  0  0  0  0
   12.8465  -15.9454   22.7562 C   0  0  2  0  0  0  0  0  0  0  0  0
   12.6416  -16.0339   21.3392 N   0  0  0  0  0  0  0  0  0  0  0  0
   13.4181  -17.1840   23.3308 C   0  0  0  0  0  0  0  0  0  0  0  0
   13.6542  -18.3028   22.5734 O   0  0  0  0  0  0  0  0  0  0  0  0
   13.7130  -17.2489   24.5675 O   0  0  0  0  0  0  0  0  0  0  0  0
  2  1  1  6
  3  2  1  0
  4  2  1  0
  4  6  1  0
  4  5  1  1
  6  7  2  0
  8  9  1  0
  8  6  1  0
  9 13  1  0
  9 10  1  6
 11 10  1  0
 11 15  1  0
 12 11  2  0
 13 14  2  0
 17 16  1  0
 17 18  2  0
 19 17  1  0
 20 19  1  1
 21 20  1  0
 21 13  1  0
 22 23  1  0
 22 20  1  0
 24 22  2  0
M  END
$$$$
