TDN.pdb
     RDKit          3D

 24 23  0  0  1  0  0  0  0  0999 V2000
   10.2099  -13.4026   19.3816 C   0  0  0  0  0  0  0  0  0  0  0  0
    8.7862  -13.0501   19.7018 C   0  0  1  0  0  0  0  0  0  0  0  0
    8.5142  -11.8478   19.0375 O   0  0  0  0  0  0  0  0  0  0  0  0
    7.7934  -14.1247   19.2434 C   0  0  2  0  0  0  0  0  0  0  0  0
    6.4766  -13.6085   19.6806 N   0  0  0  0  0  0  0  0  0  0  0  0
    8.0527  -15.3690   19.9737 C   0  0  0  0  0  0  0  0  0  0  0  0
    7.5163  -15.5206   21.1191 O   0  0  0  0  0  0  0  0  0  0  0  0
    8.8563  -16.4469   19.5261 N   0  0  0  0  0  0  0  0  0  0  0  0
    9.0805  -17.5808   20.3630 C   0  0  1  0  0  0  0  0  0  0  0  0
    8.7906  -18.8909   19.6716 C   0  0  0  0  0  0  0  0  0  0  0  0
    8.9914  -20.0591   20.5474 C   0  0  0  0  0  0  0  0  0  0  0  0
   10.1418  -20.5081   20.7265 O   0  0  0  0  0  0  0  0  0  0  0  0
   10.5193  -17.6744   20.7978 C   0  0  0  0  0  0  0  0  0  0  0  0
   11.3679  -17.1086   20.0777 O   0  0  0  0  0  0  0  0  0  0  0  0
    7.9278  -20.6698   21.1768 O   0  0  0  0  0  0  0  0  0  0  0  0
   12.4635  -15.8304   25.4836 N   0  0  0  0  0  0  0  0  0  0  0  0
   12.7388  -15.9249   24.0902 C   0  0  0  0  0  0  0  0  0  0  0  0
   13.8422  -15.5864   23.6108 O   0  0  0  0  0  0  0  0  0  0  0  0
   11.6553  -16.4457   23.2202 C   0  0  0  0  0  0  0  0  0  0  0  0
   11.9525  -17.8951   22.8146 C   0  0  2  0  0  0  0  0  0  0  0  0
   10.8983  -18.3687   21.9648 N   0  0  0  0  0  0  0  0  0  0  0  0
   12.1321  -18.7297   24.0238 C   0  0  0  0  0  0  0  0  0  0  0  0
   13.3714  -19.0742   24.4996 O   0  0  0  0  0  0  0  0  0  0  0  0
   11.1233  -19.1603   24.6699 O   0  0  0  0  0  0  0  0  0  0  0  0
  2  1  1  6
  3  2  1  0
  4  2  1  0
  4  6  1  0
  4  5  1  1
  6  7  2  0
  8  9  1  0
  8  6  1  0
  9 13  1  0
  9 10  1  6
 11 10  1  0
 11 15  1  0
 12 11  2  0
 13 14  2  0
 17 16  1  0
 17 18  2  0
 19 17  1  0
 20 19  1  1
 21 20  1  0
 21 13  1  0
 22 23  1  0
 22 20  1  0
 24 22  2  0
M  END
$$$$
