TDN.pdb
     RDKit          3D

 24 23  0  0  1  0  0  0  0  0999 V2000
   11.2486  -21.3691   12.6813 C   0  0  0  0  0  0  0  0  0  0  0  0
   10.3205  -20.2768   12.2348 C   0  0  1  0  0  0  0  0  0  0  0  0
   10.2283  -20.3771   10.8411 O   0  0  0  0  0  0  0  0  0  0  0  0
    8.9221  -20.4001   12.8509 C   0  0  2  0  0  0  0  0  0  0  0  0
    8.1446  -19.3225   12.1983 N   0  0  0  0  0  0  0  0  0  0  0  0
    8.9940  -20.0975   14.2834 C   0  0  0  0  0  0  0  0  0  0  0  0
    9.2227  -18.8951   14.6364 O   0  0  0  0  0  0  0  0  0  0  0  0
    8.8299  -21.0258   15.3414 N   0  0  0  0  0  0  0  0  0  0  0  0
    8.9221  -20.6004   16.7005 C   0  0  1  0  0  0  0  0  0  0  0  0
    8.0793  -21.4313   17.6372 C   0  0  0  0  0  0  0  0  0  0  0  0
    6.6441  -21.3939   17.3043 C   0  0  0  0  0  0  0  0  0  0  0  0
    6.1629  -20.3841   16.7513 O   0  0  0  0  0  0  0  0  0  0  0  0
   10.3287  -20.7191   17.2254 C   0  0  0  0  0  0  0  0  0  0  0  0
   10.5579  -20.2296   18.3507 O   0  0  0  0  0  0  0  0  0  0  0  0
    5.8170  -22.4584   17.5929 O   0  0  0  0  0  0  0  0  0  0  0  0
   14.4126  -22.3145   15.0953 N   0  0  0  0  0  0  0  0  0  0  0  0
   14.3652  -20.8919   15.0869 C   0  0  0  0  0  0  0  0  0  0  0  0
   15.0612  -20.2128   14.3017 O   0  0  0  0  0  0  0  0  0  0  0  0
   13.4493  -20.2396   16.0552 C   0  0  0  0  0  0  0  0  0  0  0  0
   12.7208  -21.2994   16.8914 C   0  0  2  0  0  0  0  0  0  0  0  0
   11.3464  -21.3535   16.4841 N   0  0  0  0  0  0  0  0  0  0  0  0
   12.8797  -21.0006   18.3325 C   0  0  0  0  0  0  0  0  0  0  0  0
   11.8397  -20.5566   19.1084 O   0  0  0  0  0  0  0  0  0  0  0  0
   14.0069  -21.1498   18.9049 O   0  0  0  0  0  0  0  0  0  0  0  0
  2  1  1  1
  3  2  1  0
  4  2  1  0
  4  6  1  0
  4  5  1  6
  6  7  2  0
  8  9  1  0
  8  6  1  0
  9 13  1  0
  9 10  1  1
 11 10  1  0
 11 15  1  0
 12 11  2  0
 13 14  2  0
 17 16  1  0
 17 18  2  0
 19 17  1  0
 20 19  1  6
 21 20  1  0
 21 13  1  0
 22 23  1  0
 22 20  1  0
 24 22  2  0
M  END
$$$$
