TDN.pdb
     RDKit          3D

 24 23  0  0  1  0  0  0  0  0999 V2000
    7.0736  -14.2852   17.4428 C   0  0  0  0  0  0  0  0  0  0  0  0
    8.0509  -14.5306   18.5556 C   0  0  1  0  0  0  0  0  0  0  0  0
    9.3038  -14.1206   18.0832 O   0  0  0  0  0  0  0  0  0  0  0  0
    7.7041  -13.7520   19.8299 C   0  0  2  0  0  0  0  0  0  0  0  0
    7.9506  -12.3382   19.4666 N   0  0  0  0  0  0  0  0  0  0  0  0
    8.6474  -14.1136   20.8921 C   0  0  0  0  0  0  0  0  0  0  0  0
    9.5885  -13.3003   21.1673 O   0  0  0  0  0  0  0  0  0  0  0  0
    8.6194  -15.3017   21.6637 N   0  0  0  0  0  0  0  0  0  0  0  0
    9.6189  -15.5486   22.6519 C   0  0  1  0  0  0  0  0  0  0  0  0
    9.1394  -16.4495   23.7639 C   0  0  0  0  0  0  0  0  0  0  0  0
   10.1830  -16.7304   24.7659 C   0  0  0  0  0  0  0  0  0  0  0  0
   10.8805  -15.7967   25.2118 O   0  0  0  0  0  0  0  0  0  0  0  0
   10.8174  -16.2482   22.0668 C   0  0  0  0  0  0  0  0  0  0  0  0
   10.8122  -17.4965   22.0875 O   0  0  0  0  0  0  0  0  0  0  0  0
   10.4058  -18.0115   25.2237 O   0  0  0  0  0  0  0  0  0  0  0  0
   15.1286  -17.0494   24.4896 N   0  0  0  0  0  0  0  0  0  0  0  0
   14.8908  -15.8805   23.7128 C   0  0  0  0  0  0  0  0  0  0  0  0
   15.8208  -15.1282   23.3505 O   0  0  0  0  0  0  0  0  0  0  0  0
   13.4833  -15.5863   23.3462 C   0  0  0  0  0  0  0  0  0  0  0  0
   13.2596  -15.8489   21.8514 C   0  0  2  0  0  0  0  0  0  0  0  0
   11.9008  -15.5316   21.5187 N   0  0  0  0  0  0  0  0  0  0  0  0
   13.6171  -17.2481   21.5268 C   0  0  0  0  0  0  0  0  0  0  0  0
   13.1815  -18.3095   22.2783 O   0  0  0  0  0  0  0  0  0  0  0  0
   14.3528  -17.5129   20.5222 O   0  0  0  0  0  0  0  0  0  0  0  0
  2  1  1  6
  3  2  1  0
  4  2  1  0
  4  6  1  0
  4  5  1  6
  6  7  2  0
  8  9  1  0
  8  6  1  0
  9 13  1  0
  9 10  1  1
 11 10  1  0
 11 15  1  0
 12 11  2  0
 13 14  2  0
 17 16  1  0
 17 18  2  0
 19 17  1  0
 20 19  1  1
 21 20  1  0
 21 13  1  0
 22 23  1  0
 22 20  1  0
 24 22  2  0
M  END
$$$$
