TDN.pdb
     RDKit          3D

 24 23  0  0  1  0  0  0  0  0999 V2000
    9.3560  -12.5661   19.9886 C   0  0  0  0  0  0  0  0  0  0  0  0
    8.1733  -13.0705   19.2137 C   0  0  1  0  0  0  0  0  0  0  0  0
    7.4698  -11.9403   18.7795 O   0  0  0  0  0  0  0  0  0  0  0  0
    8.5779  -13.9187   18.0023 C   0  0  2  0  0  0  0  0  0  0  0  0
    7.2946  -14.4494   17.4894 N   0  0  0  0  0  0  0  0  0  0  0  0
    9.3857  -15.0557   18.4534 C   0  0  0  0  0  0  0  0  0  0  0  0
    8.7918  -16.0371   19.0074 O   0  0  0  0  0  0  0  0  0  0  0  0
   10.7921  -15.1798   18.3329 N   0  0  0  0  0  0  0  0  0  0  0  0
   11.4788  -16.2724   18.9423 C   0  0  1  0  0  0  0  0  0  0  0  0
   12.7055  -16.7004   18.1742 C   0  0  0  0  0  0  0  0  0  0  0  0
   12.3873  -17.2534   16.8456 C   0  0  0  0  0  0  0  0  0  0  0  0
   11.5710  -18.1917   16.7449 O   0  0  0  0  0  0  0  0  0  0  0  0
   11.9789  -15.9165   20.3175 C   0  0  0  0  0  0  0  0  0  0  0  0
   12.3988  -14.7528   20.4853 O   0  0  0  0  0  0  0  0  0  0  0  0
   12.9767  -16.7520   15.7046 O   0  0  0  0  0  0  0  0  0  0  0  0
   13.0359  -15.9922   25.2384 N   0  0  0  0  0  0  0  0  0  0  0  0
   11.7807  -16.6461   25.0871 C   0  0  0  0  0  0  0  0  0  0  0  0
   11.0708  -16.9479   26.0706 O   0  0  0  0  0  0  0  0  0  0  0  0
   11.3428  -16.9589   23.7043 C   0  0  0  0  0  0  0  0  0  0  0  0
   12.4018  -16.4949   22.6959 C   0  0  2  0  0  0  0  0  0  0  0  0
   11.9761  -16.8510   21.3731 N   0  0  0  0  0  0  0  0  0  0  0  0
   13.7191  -17.0707   23.0482 C   0  0  0  0  0  0  0  0  0  0  0  0
   14.5984  -16.4324   23.8851 O   0  0  0  0  0  0  0  0  0  0  0  0
   14.0818  -18.1960   22.5763 O   0  0  0  0  0  0  0  0  0  0  0  0
  2  1  1  6
  3  2  1  0
  4  2  1  0
  4  6  1  0
  4  5  1  1
  6  7  2  0
  8  9  1  0
  8  6  1  0
  9 13  1  0
  9 10  1  6
 11 10  1  0
 11 15  1  0
 12 11  2  0
 13 14  2  0
 17 16  1  0
 17 18  2  0
 19 17  1  0
 20 19  1  1
 21 20  1  0
 21 13  1  0
 22 23  1  0
 22 20  1  0
 24 22  2  0
M  END
$$$$
