TDN.pdb
     RDKit          3D

 24 23  0  0  1  0  0  0  0  0999 V2000
    7.5922  -12.2782   19.6769 C   0  0  0  0  0  0  0  0  0  0  0  0
    8.3516  -13.4946   20.1213 C   0  0  1  0  0  0  0  0  0  0  0  0
    8.2245  -13.5568   21.5145 O   0  0  0  0  0  0  0  0  0  0  0  0
    7.8127  -14.7882   19.4995 C   0  0  2  0  0  0  0  0  0  0  0  0
    6.3888  -14.8161   19.9035 N   0  0  0  0  0  0  0  0  0  0  0  0
    8.4776  -15.9386   20.1187 C   0  0  0  0  0  0  0  0  0  0  0  0
    7.8952  -16.5230   21.0892 O   0  0  0  0  0  0  0  0  0  0  0  0
    9.7303  -16.4816   19.7394 N   0  0  0  0  0  0  0  0  0  0  0  0
   10.3613  -17.4791   20.5416 C   0  0  1  0  0  0  0  0  0  0  0  0
   11.5972  -18.0591   19.8979 C   0  0  0  0  0  0  0  0  0  0  0  0
   12.1045  -19.2516   20.5997 C   0  0  0  0  0  0  0  0  0  0  0  0
   11.4971  -19.6868   21.5991 O   0  0  0  0  0  0  0  0  0  0  0  0
   10.8289  -16.9185   21.8588 C   0  0  0  0  0  0  0  0  0  0  0  0
   11.0717  -15.6946   21.9008 O   0  0  0  0  0  0  0  0  0  0  0  0
   13.2433  -19.9002   20.1722 O   0  0  0  0  0  0  0  0  0  0  0  0
   10.0545  -14.8093   25.1313 N   0  0  0  0  0  0  0  0  0  0  0  0
    8.9005  -15.5327   24.7175 C   0  0  0  0  0  0  0  0  0  0  0  0
    7.7628  -15.0154   24.7153 O   0  0  0  0  0  0  0  0  0  0  0  0
    9.1017  -16.9377   24.2847 C   0  0  0  0  0  0  0  0  0  0  0  0
   10.5949  -17.2890   24.3038 C   0  0  2  0  0  0  0  0  0  0  0  0
   10.9878  -17.7338   22.9979 N   0  0  0  0  0  0  0  0  0  0  0  0
   10.8621  -18.2951   25.3561 C   0  0  0  0  0  0  0  0  0  0  0  0
   10.4574  -19.6006   25.2423 O   0  0  0  0  0  0  0  0  0  0  0  0
   11.4869  -17.9728   26.4174 O   0  0  0  0  0  0  0  0  0  0  0  0
  2  1  1  6
  3  2  1  0
  4  2  1  0
  4  6  1  0
  4  5  1  1
  6  7  2  0
  8  9  1  0
  8  6  1  0
  9 13  1  0
  9 10  1  6
 11 10  1  0
 11 15  1  0
 12 11  2  0
 13 14  2  0
 17 16  1  0
 17 18  2  0
 19 17  1  0
 20 19  1  6
 21 20  1  0
 21 13  1  0
 22 23  1  0
 22 20  1  0
 24 22  2  0
M  END
$$$$
