TDN.pdb
     RDKit          3D

 24 23  0  0  1  0  0  0  0  0999 V2000
    9.5641  -12.2061   20.0363 C   0  0  0  0  0  0  0  0  0  0  0  0
    8.4525  -13.0451   19.4760 C   0  0  1  0  0  0  0  0  0  0  0  0
    7.3654  -12.1850   19.2772 O   0  0  0  0  0  0  0  0  0  0  0  0
    8.8271  -13.7127   18.1476 C   0  0  2  0  0  0  0  0  0  0  0  0
    7.6205  -14.4884   17.7815 N   0  0  0  0  0  0  0  0  0  0  0  0
    9.9204  -14.6629   18.3728 C   0  0  0  0  0  0  0  0  0  0  0  0
    9.6312  -15.8962   18.5073 O   0  0  0  0  0  0  0  0  0  0  0  0
   11.2985  -14.3441   18.4569 N   0  0  0  0  0  0  0  0  0  0  0  0
   12.2778  -15.3780   18.5497 C   0  0  1  0  0  0  0  0  0  0  0  0
   13.5731  -15.0275   17.8586 C   0  0  0  0  0  0  0  0  0  0  0  0
   13.6100  -15.4648   16.4517 C   0  0  0  0  0  0  0  0  0  0  0  0
   12.9527  -14.8427   15.5926 O   0  0  0  0  0  0  0  0  0  0  0  0
   12.6571  -15.6569   19.9802 C   0  0  0  0  0  0  0  0  0  0  0  0
   13.3973  -16.6401   20.1899 O   0  0  0  0  0  0  0  0  0  0  0  0
   14.3604  -16.5539   16.0628 O   0  0  0  0  0  0  0  0  0  0  0  0
   11.0481  -16.9707   25.2292 N   0  0  0  0  0  0  0  0  0  0  0  0
   12.0770  -16.6352   24.3045 C   0  0  0  0  0  0  0  0  0  0  0  0
   13.2852  -16.6616   24.6232 O   0  0  0  0  0  0  0  0  0  0  0  0
   11.6565  -16.2493   22.9348 C   0  0  0  0  0  0  0  0  0  0  0  0
   12.5519  -15.1225   22.4038 C   0  0  2  0  0  0  0  0  0  0  0  0
   12.1998  -14.8480   21.0405 N   0  0  0  0  0  0  0  0  0  0  0  0
   13.9760  -15.4929   22.5641 C   0  0  0  0  0  0  0  0  0  0  0  0
   14.5525  -16.5147   21.8537 O   0  0  0  0  0  0  0  0  0  0  0  0
   14.7217  -14.8627   23.3810 O   0  0  0  0  0  0  0  0  0  0  0  0
  2  1  1  6
  3  2  1  0
  4  2  1  0
  4  6  1  0
  4  5  1  1
  6  7  2  0
  8  9  1  0
  8  6  1  0
  9 13  1  0
  9 10  1  6
 11 10  1  0
 11 15  1  0
 12 11  2  0
 13 14  2  0
 17 16  1  0
 17 18  2  0
 19 17  1  0
 20 19  1  6
 21 20  1  0
 21 13  1  0
 22 23  1  0
 22 20  1  0
 24 22  2  0
M  END
$$$$
