TDN.pdb
     RDKit          3D

 24 23  0  0  1  0  0  0  0  0999 V2000
    8.9095  -12.6317   20.1750 C   0  0  0  0  0  0  0  0  0  0  0  0
    8.1222  -13.6419   19.3918 C   0  0  1  0  0  0  0  0  0  0  0  0
    6.8923  -13.0433   19.0919 O   0  0  0  0  0  0  0  0  0  0  0  0
    8.8205  -14.0571   18.0916 C   0  0  2  0  0  0  0  0  0  0  0  0
    7.8949  -15.0396   17.4835 N   0  0  0  0  0  0  0  0  0  0  0  0
   10.0689  -14.7552   18.4121 C   0  0  0  0  0  0  0  0  0  0  0  0
   10.0710  -16.0289   18.3944 O   0  0  0  0  0  0  0  0  0  0  0  0
   11.3036  -14.1453   18.7462 N   0  0  0  0  0  0  0  0  0  0  0  0
   12.4648  -14.9404   18.9827 C   0  0  1  0  0  0  0  0  0  0  0  0
   13.7512  -14.1653   18.8322 C   0  0  0  0  0  0  0  0  0  0  0  0
   14.9507  -15.0080   18.9848 C   0  0  0  0  0  0  0  0  0  0  0  0
   15.8698  -14.6446   19.7464 O   0  0  0  0  0  0  0  0  0  0  0  0
   12.4917  -15.4798   20.3886 C   0  0  0  0  0  0  0  0  0  0  0  0
   13.4641  -16.1968   20.7030 O   0  0  0  0  0  0  0  0  0  0  0  0
   15.0788  -16.1971   18.2991 O   0  0  0  0  0  0  0  0  0  0  0  0
    9.9486  -15.5275   25.7083 N   0  0  0  0  0  0  0  0  0  0  0  0
    9.9679  -16.3223   24.5275 C   0  0  0  0  0  0  0  0  0  0  0  0
    9.9156  -17.5703   24.5708 O   0  0  0  0  0  0  0  0  0  0  0  0
   10.0532  -15.6058   23.2308 C   0  0  0  0  0  0  0  0  0  0  0  0
   11.4538  -15.7693   22.6267 C   0  0  2  0  0  0  0  0  0  0  0  0
   11.4674  -15.1920   21.3136 N   0  0  0  0  0  0  0  0  0  0  0  0
   11.8392  -17.1985   22.6281 C   0  0  0  0  0  0  0  0  0  0  0  0
   12.7396  -17.7143   23.5249 O   0  0  0  0  0  0  0  0  0  0  0  0
   11.3372  -18.0060   21.7817 O   0  0  0  0  0  0  0  0  0  0  0  0
  2  1  1  6
  3  2  1  0
  4  2  1  0
  4  6  1  0
  4  5  1  1
  6  7  2  0
  8  9  1  0
  8  6  1  0
  9 13  1  0
  9 10  1  1
 11 10  1  0
 11 15  1  0
 12 11  2  0
 13 14  2  0
 17 16  1  0
 17 18  2  0
 19 17  1  0
 20 19  1  6
 21 20  1  0
 21 13  1  0
 22 23  1  0
 22 20  1  0
 24 22  2  0
M  END
$$$$
