TDN.pdb
     RDKit          3D

 24 23  0  0  1  0  0  0  0  0999 V2000
    7.9072  -17.2062   18.8807 C   0  0  0  0  0  0  0  0  0  0  0  0
    9.2628  -17.4306   19.4855 C   0  0  1  0  0  0  0  0  0  0  0  0
    9.0688  -18.2476   20.6061 O   0  0  0  0  0  0  0  0  0  0  0  0
   10.2371  -18.1118   18.5173 C   0  0  2  0  0  0  0  0  0  0  0  0
    9.6013  -19.4165   18.2253 N   0  0  0  0  0  0  0  0  0  0  0  0
   11.5036  -18.3740   19.2071 C   0  0  0  0  0  0  0  0  0  0  0  0
   11.8960  -19.5814   19.3123 O   0  0  0  0  0  0  0  0  0  0  0  0
   12.3579  -17.4002   19.7814 N   0  0  0  0  0  0  0  0  0  0  0  0
   13.5424  -17.7922   20.4740 C   0  0  1  0  0  0  0  0  0  0  0  0
   14.6205  -16.7362   20.4437 C   0  0  0  0  0  0  0  0  0  0  0  0
   15.0860  -16.4297   19.0793 C   0  0  0  0  0  0  0  0  0  0  0  0
   15.0992  -15.2474   18.6807 O   0  0  0  0  0  0  0  0  0  0  0  0
   13.2750  -18.0407   21.9351 C   0  0  0  0  0  0  0  0  0  0  0  0
   14.2136  -18.5083   22.6125 O   0  0  0  0  0  0  0  0  0  0  0  0
   15.5099  -17.4287   18.2292 O   0  0  0  0  0  0  0  0  0  0  0  0
   10.7563  -21.0391   25.7166 N   0  0  0  0  0  0  0  0  0  0  0  0
   10.5174  -19.6912   25.3262 C   0  0  0  0  0  0  0  0  0  0  0  0
   10.0636  -18.8433   26.1245 O   0  0  0  0  0  0  0  0  0  0  0  0
   10.8305  -19.3277   23.9220 C   0  0  0  0  0  0  0  0  0  0  0  0
   11.7368  -18.0905   23.8849 C   0  0  2  0  0  0  0  0  0  0  0  0
   12.0225  -17.7604   22.5185 N   0  0  0  0  0  0  0  0  0  0  0  0
   12.9593  -18.3376   24.6821 C   0  0  0  0  0  0  0  0  0  0  0  0
   13.4467  -17.4227   25.5801 O   0  0  0  0  0  0  0  0  0  0  0  0
   13.6065  -19.4265   24.5556 O   0  0  0  0  0  0  0  0  0  0  0  0
  2  1  1  6
  3  2  1  0
  4  2  1  0
  4  6  1  0
  4  5  1  1
  6  7  2  0
  8  9  1  0
  8  6  1  0
  9 13  1  0
  9 10  1  1
 11 10  1  0
 11 15  1  0
 12 11  2  0
 13 14  2  0
 17 16  1  0
 17 18  2  0
 19 17  1  0
 20 19  1  6
 21 20  1  0
 21 13  1  0
 22 23  1  0
 22 20  1  0
 24 22  2  0
M  END
$$$$
