TWA.pdb
     RDKit          3D

 27 28  0  0  1  0  0  0  0  0999 V2000
    9.7773  -16.2908   18.9334 C   0  0  0  0  0  0  0  0  0  0  0  0
    9.8400  -15.8282   20.3603 C   0  0  1  0  0  0  0  0  0  0  0  0
    8.6392  -15.2625   20.7861 O   0  0  0  0  0  0  0  0  0  0  0  0
   10.1273  -16.9927   21.2647 C   0  0  2  0  0  0  0  0  0  0  0  0
    9.1388  -18.0330   21.1812 N   0  0  0  0  0  0  0  0  0  0  0  0
   10.3211  -16.5943   22.6716 C   0  0  0  0  0  0  0  0  0  0  0  0
   11.1904  -15.7521   23.0246 O   0  0  0  0  0  0  0  0  0  0  0  0
    9.5200  -17.1588   23.6818 N   0  0  0  0  0  0  0  0  0  0  0  0
    9.5108  -16.8685   25.0698 C   0  0  1  0  0  0  0  0  0  0  0  0
    8.1509  -16.8145   25.7430 C   0  0  0  0  0  0  0  0  0  0  0  0
    7.3144  -15.6698   25.3031 C   0  0  0  0  0  0  0  0  0  0  0  0
    6.2893  -15.5889   24.4006 C   0  0  0  0  0  0  0  0  0  0  0  0
    5.8294  -14.3118   24.3533 N   0  0  0  0  0  0  0  0  0  0  0  0
    6.5166  -13.5471   25.1951 C   0  0  0  0  0  0  0  0  0  0  0  0
    6.4726  -12.2013   25.5493 C   0  0  0  0  0  0  0  0  0  0  0  0
    7.3449  -11.6963   26.4899 C   0  0  0  0  0  0  0  0  0  0  0  0
    8.2806  -12.5000   27.1046 C   0  0  0  0  0  0  0  0  0  0  0  0
    8.3001  -13.8432   26.7289 C   0  0  0  0  0  0  0  0  0  0  0  0
    7.4334  -14.3501   25.7924 C   0  0  0  0  0  0  0  0  0  0  0  0
   10.4213  -17.6565   25.9070 C   0  0  0  0  0  0  0  0  0  0  0  0
   10.2137  -18.9192   25.9737 O   0  0  0  0  0  0  0  0  0  0  0  0
   13.6739  -17.3654   27.7823 C   0  0  0  0  0  0  0  0  0  0  0  0
   12.3593  -18.0047   27.4862 C   0  0  2  0  0  0  0  0  0  0  0  0
   11.5066  -17.1815   26.6512 N   0  0  0  0  0  0  0  0  0  0  0  0
   11.6874  -18.4124   28.7346 C   0  0  0  0  0  0  0  0  0  0  0  0
   12.2136  -19.2033   29.5301 O   0  0  0  0  0  0  0  0  0  0  0  0
   10.4347  -17.8941   29.0198 O   0  0  0  0  0  0  0  0  0  0  0  0
  2  1  1  6
  2  4  1  0
  3  2  1  0
  4  5  1  1
  6  4  1  0
  7  6  2  0
  8  6  1  0
  9 20  1  0
  9  8  1  0
  9 10  1  1
 11 10  1  0
 12 11  2  0
 13 12  1  0
 14 13  1  0
 14 19  2  0
 15 16  2  0
 15 14  1  0
 16 17  1  0
 17 18  2  0
 19 18  1  0
 19 11  1  0
 20 21  2  0
 23 22  1  1
 24 23  1  0
 24 20  1  0
 25 27  1  0
 25 23  1  0
 26 25  2  0
M  END
$$$$
