TWA.pdb
     RDKit          3D

 27 28  0  0  1  0  0  0  0  0999 V2000
    7.1863  -17.1679   19.0109 C   0  0  0  0  0  0  0  0  0  0  0  0
    8.0080  -16.9960   20.2556 C   0  0  1  0  0  0  0  0  0  0  0  0
    9.3548  -17.2874   20.0446 O   0  0  0  0  0  0  0  0  0  0  0  0
    7.9307  -15.5724   20.7286 C   0  0  2  0  0  0  0  0  0  0  0  0
    8.1405  -14.6136   19.6782 N   0  0  0  0  0  0  0  0  0  0  0  0
    8.8391  -15.2906   21.8560 C   0  0  0  0  0  0  0  0  0  0  0  0
    9.8278  -14.5152   21.7531 O   0  0  0  0  0  0  0  0  0  0  0  0
    8.6195  -15.8960   23.1076 N   0  0  0  0  0  0  0  0  0  0  0  0
    9.4546  -15.8871   24.2536 C   0  0  1  0  0  0  0  0  0  0  0  0
    8.7779  -16.1425   25.5886 C   0  0  0  0  0  0  0  0  0  0  0  0
    7.5306  -15.3612   25.7824 C   0  0  0  0  0  0  0  0  0  0  0  0
    6.2130  -15.7132   25.6729 C   0  0  0  0  0  0  0  0  0  0  0  0
    5.4334  -14.6393   25.9628 N   0  0  0  0  0  0  0  0  0  0  0  0
    6.1929  -13.5904   26.2605 C   0  0  0  0  0  0  0  0  0  0  0  0
    5.9360  -12.2721   26.6275 C   0  0  0  0  0  0  0  0  0  0  0  0
    6.9742  -11.4019   26.8832 C   0  0  0  0  0  0  0  0  0  0  0  0
    8.2884  -11.8049   26.7848 C   0  0  0  0  0  0  0  0  0  0  0  0
    8.5136  -13.1309   26.4153 C   0  0  0  0  0  0  0  0  0  0  0  0
    7.4826  -14.0008   26.1594 C   0  0  0  0  0  0  0  0  0  0  0  0
   10.6734  -16.6994   24.1788 C   0  0  0  0  0  0  0  0  0  0  0  0
   11.3764  -16.8035   25.2451 O   0  0  0  0  0  0  0  0  0  0  0  0
   12.5022  -19.0394   21.8459 C   0  0  0  0  0  0  0  0  0  0  0  0
   12.3976  -18.1444   23.0343 C   0  0  2  0  0  0  0  0  0  0  0  0
   11.1634  -17.3840   23.0616 N   0  0  0  0  0  0  0  0  0  0  0  0
   13.5865  -17.2771   23.1374 C   0  0  0  0  0  0  0  0  0  0  0  0
   13.4906  -16.0428   23.1894 O   0  0  0  0  0  0  0  0  0  0  0  0
   14.8408  -17.8637   23.1765 O   0  0  0  0  0  0  0  0  0  0  0  0
  2  1  1  6
  2  4  1  0
  3  2  1  0
  4  5  1  6
  6  4  1  0
  7  6  2  0
  8  6  1  0
  9 20  1  0
  9  8  1  0
  9 10  1  1
 11 10  1  0
 12 11  2  0
 13 12  1  0
 14 13  1  0
 14 19  2  0
 15 16  2  0
 15 14  1  0
 16 17  1  0
 17 18  2  0
 19 18  1  0
 19 11  1  0
 20 21  2  0
 23 22  1  6
 24 23  1  0
 24 20  1  0
 25 27  1  0
 25 23  1  0
 26 25  2  0
M  END
$$$$
