TWA.pdb
     RDKit          3D

 27 28  0  0  1  0  0  0  0  0999 V2000
    6.5958  -17.2571   19.0533 C   0  0  0  0  0  0  0  0  0  0  0  0
    7.6148  -17.0362   20.1335 C   0  0  1  0  0  0  0  0  0  0  0  0
    8.9209  -17.1341   19.6563 O   0  0  0  0  0  0  0  0  0  0  0  0
    7.4563  -15.6600   20.7142 C   0  0  2  0  0  0  0  0  0  0  0  0
    7.4781  -14.6199   19.7222 N   0  0  0  0  0  0  0  0  0  0  0  0
    8.4398  -15.3659   21.7735 C   0  0  0  0  0  0  0  0  0  0  0  0
    9.3657  -14.5233   21.6245 O   0  0  0  0  0  0  0  0  0  0  0  0
    8.3676  -16.0357   23.0093 N   0  0  0  0  0  0  0  0  0  0  0  0
    9.2478  -15.9457   24.1174 C   0  0  1  0  0  0  0  0  0  0  0  0
    8.6251  -16.1015   25.4934 C   0  0  0  0  0  0  0  0  0  0  0  0
    7.4562  -15.2152   25.7212 C   0  0  0  0  0  0  0  0  0  0  0  0
    6.1107  -15.4612   25.6880 C   0  0  0  0  0  0  0  0  0  0  0  0
    5.4358  -14.3189   25.9790 N   0  0  0  0  0  0  0  0  0  0  0  0
    6.2913  -13.3273   26.2035 C   0  0  0  0  0  0  0  0  0  0  0  0
    6.1603  -11.9820   26.5375 C   0  0  0  0  0  0  0  0  0  0  0  0
    7.2769  -11.1925   26.7126 C   0  0  0  0  0  0  0  0  0  0  0  0
    8.5476  -11.7045   26.5640 C   0  0  0  0  0  0  0  0  0  0  0  0
    8.6464  -13.0550   26.2292 C   0  0  0  0  0  0  0  0  0  0  0  0
    7.5370  -13.8448   26.0536 C   0  0  0  0  0  0  0  0  0  0  0  0
   10.4629  -16.7645   24.0535 C   0  0  0  0  0  0  0  0  0  0  0  0
   10.3126  -18.0359   24.0003 O   0  0  0  0  0  0  0  0  0  0  0  0
   14.1559  -16.4696   23.4352 C   0  0  0  0  0  0  0  0  0  0  0  0
   12.9532  -17.1681   23.9738 C   0  0  2  0  0  0  0  0  0  0  0  0
   11.7861  -16.3106   24.0430 N   0  0  0  0  0  0  0  0  0  0  0  0
   13.2569  -17.7982   25.2726 C   0  0  0  0  0  0  0  0  0  0  0  0
   12.5811  -17.5648   26.2845 O   0  0  0  0  0  0  0  0  0  0  0  0
   14.3276  -18.6733   25.3572 O   0  0  0  0  0  0  0  0  0  0  0  0
  2  1  1  6
  2  4  1  0
  3  2  1  0
  4  5  1  6
  6  4  1  0
  7  6  2  0
  8  6  1  0
  9 20  1  0
  9  8  1  0
  9 10  1  1
 11 10  1  0
 12 11  2  0
 13 12  1  0
 14 13  1  0
 14 19  2  0
 15 16  2  0
 15 14  1  0
 16 17  1  0
 17 18  2  0
 19 18  1  0
 19 11  1  0
 20 21  2  0
 23 22  1  1
 24 23  1  0
 24 20  1  0
 25 27  1  0
 25 23  1  0
 26 25  2  0
M  END
$$$$
