TWA.pdb
     RDKit          3D

 27 28  0  0  1  0  0  0  0  0999 V2000
   10.9902  -21.6266   22.6352 C   0  0  0  0  0  0  0  0  0  0  0  0
   10.9300  -20.2543   23.2411 C   0  0  1  0  0  0  0  0  0  0  0  0
   12.1684  -19.8351   23.7248 O   0  0  0  0  0  0  0  0  0  0  0  0
   10.4964  -19.2555   22.2063 C   0  0  2  0  0  0  0  0  0  0  0  0
   11.3120  -19.2747   21.0227 N   0  0  0  0  0  0  0  0  0  0  0  0
   10.4086  -17.8811   22.7347 C   0  0  0  0  0  0  0  0  0  0  0  0
   11.2662  -16.9960   22.4688 O   0  0  0  0  0  0  0  0  0  0  0  0
    9.3377  -17.5135   23.5708 N   0  0  0  0  0  0  0  0  0  0  0  0
    9.0609  -16.2492   24.1501 C   0  0  1  0  0  0  0  0  0  0  0  0
    7.6559  -15.7069   23.9566 C   0  0  0  0  0  0  0  0  0  0  0  0
    7.5781  -14.2253   24.0056 C   0  0  0  0  0  0  0  0  0  0  0  0
    8.0770  -13.2623   23.1714 C   0  0  0  0  0  0  0  0  0  0  0  0
    7.7277  -12.0356   23.6385 N   0  0  0  0  0  0  0  0  0  0  0  0
    7.0144  -12.1571   24.7530 C   0  0  0  0  0  0  0  0  0  0  0  0
    6.4102  -11.2582   25.6280 C   0  0  0  0  0  0  0  0  0  0  0  0
    5.7141  -11.7128   26.7277 C   0  0  0  0  0  0  0  0  0  0  0  0
    5.5946  -13.0595   26.9944 C   0  0  0  0  0  0  0  0  0  0  0  0
    6.2105  -13.9348   26.0999 C   0  0  0  0  0  0  0  0  0  0  0  0
    6.9051  -13.4864   25.0037 C   0  0  0  0  0  0  0  0  0  0  0  0
    9.4441  -16.0774   25.5552 C   0  0  0  0  0  0  0  0  0  0  0  0
    8.8166  -16.7783   26.4253 O   0  0  0  0  0  0  0  0  0  0  0  0
    9.9515  -14.0231   28.1447 C   0  0  0  0  0  0  0  0  0  0  0  0
   10.7557  -15.0811   27.4678 C   0  0  2  0  0  0  0  0  0  0  0  0
   10.4306  -15.2248   26.0622 N   0  0  0  0  0  0  0  0  0  0  0  0
   10.6490  -16.3597   28.1959 C   0  0  0  0  0  0  0  0  0  0  0  0
   11.4315  -17.2971   27.9854 O   0  0  0  0  0  0  0  0  0  0  0  0
    9.6453  -16.5107   29.1387 O   0  0  0  0  0  0  0  0  0  0  0  0
  2  1  1  6
  2  4  1  0
  3  2  1  0
  4  5  1  6
  6  4  1  0
  7  6  2  0
  8  6  1  0
  9 20  1  0
  9  8  1  0
  9 10  1  1
 11 10  1  0
 12 11  2  0
 13 12  1  0
 14 13  1  0
 14 19  2  0
 15 16  2  0
 15 14  1  0
 16 17  1  0
 17 18  2  0
 19 18  1  0
 19 11  1  0
 20 21  2  0
 23 22  1  1
 24 23  1  0
 24 20  1  0
 25 27  1  0
 25 23  1  0
 26 25  2  0
M  END
$$$$
