TWA.pdb
     RDKit          3D

 27 28  0  0  1  0  0  0  0  0999 V2000
    6.8963  -16.1911   18.6246 C   0  0  0  0  0  0  0  0  0  0  0  0
    7.8227  -16.1080   19.8031 C   0  0  1  0  0  0  0  0  0  0  0  0
    9.1555  -15.9690   19.4192 O   0  0  0  0  0  0  0  0  0  0  0  0
    7.4761  -14.9127   20.6444 C   0  0  2  0  0  0  0  0  0  0  0  0
    7.4248  -13.6872   19.8948 N   0  0  0  0  0  0  0  0  0  0  0  0
    8.3654  -14.7526   21.8103 C   0  0  0  0  0  0  0  0  0  0  0  0
    9.2286  -13.8367   21.8844 O   0  0  0  0  0  0  0  0  0  0  0  0
    8.2705  -15.6412   22.8977 N   0  0  0  0  0  0  0  0  0  0  0  0
    9.1061  -15.7350   24.0395 C   0  0  1  0  0  0  0  0  0  0  0  0
    8.4126  -15.9577   25.3718 C   0  0  0  0  0  0  0  0  0  0  0  0
    7.2755  -15.0342   25.6122 C   0  0  0  0  0  0  0  0  0  0  0  0
    5.9227  -15.2169   25.5191 C   0  0  0  0  0  0  0  0  0  0  0  0
    5.2876  -14.0640   25.8545 N   0  0  0  0  0  0  0  0  0  0  0  0
    6.1763  -13.1267   26.1664 C   0  0  0  0  0  0  0  0  0  0  0  0
    6.0913  -11.7985   26.5753 C   0  0  0  0  0  0  0  0  0  0  0  0
    7.2337  -11.0717   26.8346 C   0  0  0  0  0  0  0  0  0  0  0  0
    8.4858  -11.6311   26.6988 C   0  0  0  0  0  0  0  0  0  0  0  0
    8.5383  -12.9631   26.2878 C   0  0  0  0  0  0  0  0  0  0  0  0
    7.4031  -13.6904   26.0282 C   0  0  0  0  0  0  0  0  0  0  0  0
   10.2451  -16.6534   23.9406 C   0  0  0  0  0  0  0  0  0  0  0  0
    9.9929  -17.8713   23.6320 O   0  0  0  0  0  0  0  0  0  0  0  0
   13.9591  -16.6051   23.5510 C   0  0  0  0  0  0  0  0  0  0  0  0
   12.6907  -17.2781   23.9540 C   0  0  2  0  0  0  0  0  0  0  0  0
   11.5948  -16.3485   24.1466 N   0  0  0  0  0  0  0  0  0  0  0  0
   12.9090  -18.1318   25.1371 C   0  0  0  0  0  0  0  0  0  0  0  0
   13.8124  -18.9791   25.1720 O   0  0  0  0  0  0  0  0  0  0  0  0
   12.0788  -17.9776   26.2353 O   0  0  0  0  0  0  0  0  0  0  0  0
  2  1  1  6
  2  4  1  0
  3  2  1  0
  4  5  1  6
  6  4  1  0
  7  6  2  0
  8  6  1  0
  9 20  1  0
  9  8  1  0
  9 10  1  1
 11 10  1  0
 12 11  2  0
 13 12  1  0
 14 13  1  0
 14 19  2  0
 15 16  2  0
 15 14  1  0
 16 17  1  0
 17 18  2  0
 19 18  1  0
 19 11  1  0
 20 21  2  0
 23 22  1  1
 24 23  1  0
 24 20  1  0
 25 27  1  0
 25 23  1  0
 26 25  2  0
M  END
$$$$
