TWA.pdb
     RDKit          3D

 27 28  0  0  1  0  0  0  0  0999 V2000
   12.2718  -18.6626   20.5225 C   0  0  0  0  0  0  0  0  0  0  0  0
   12.1061  -17.9940   21.8564 C   0  0  1  0  0  0  0  0  0  0  0  0
   13.2713  -17.3533   22.2750 O   0  0  0  0  0  0  0  0  0  0  0  0
   11.0296  -16.9494   21.7762 C   0  0  2  0  0  0  0  0  0  0  0  0
   11.2576  -15.9783   20.7412 N   0  0  0  0  0  0  0  0  0  0  0  0
   10.7925  -16.2678   23.0626 C   0  0  0  0  0  0  0  0  0  0  0  0
   11.4526  -15.2571   23.4265 O   0  0  0  0  0  0  0  0  0  0  0  0
    9.7980  -16.7406   23.9392 N   0  0  0  0  0  0  0  0  0  0  0  0
    9.4417  -16.2495   25.2209 C   0  0  1  0  0  0  0  0  0  0  0  0
    7.9647  -16.2760   25.5716 C   0  0  0  0  0  0  0  0  0  0  0  0
    7.1708  -15.2278   24.8827 C   0  0  0  0  0  0  0  0  0  0  0  0
    6.4322  -15.2585   23.7314 C   0  0  0  0  0  0  0  0  0  0  0  0
    5.8764  -14.0375   23.5191 N   0  0  0  0  0  0  0  0  0  0  0  0
    6.2232  -13.2020   24.4924 C   0  0  0  0  0  0  0  0  0  0  0  0
    5.9469  -11.8676   24.7779 C   0  0  0  0  0  0  0  0  0  0  0  0
    6.4697  -11.2704   25.9052 C   0  0  0  0  0  0  0  0  0  0  0  0
    7.2755  -11.9685   26.7783 C   0  0  0  0  0  0  0  0  0  0  0  0
    7.5340  -13.3031   26.4653 C   0  0  0  0  0  0  0  0  0  0  0  0
    7.0157  -13.9016   25.3436 C   0  0  0  0  0  0  0  0  0  0  0  0
   10.2063  -16.7754   26.3565 C   0  0  0  0  0  0  0  0  0  0  0  0
   10.7496  -17.9275   26.2161 O   0  0  0  0  0  0  0  0  0  0  0  0
   11.2667  -15.8206   29.8673 C   0  0  0  0  0  0  0  0  0  0  0  0
   11.1637  -16.7326   28.6916 C   0  0  2  0  0  0  0  0  0  0  0  0
   10.4144  -16.1549   27.5930 N   0  0  0  0  0  0  0  0  0  0  0  0
   10.6290  -18.0459   29.0985 C   0  0  0  0  0  0  0  0  0  0  0  0
   11.2233  -18.7687   29.9106 O   0  0  0  0  0  0  0  0  0  0  0  0
    9.4302  -18.4774   28.5547 O   0  0  0  0  0  0  0  0  0  0  0  0
  2  1  1  6
  2  4  1  0
  3  2  1  0
  4  5  1  6
  6  4  1  0
  7  6  2  0
  8  6  1  0
  9 20  1  0
  9  8  1  0
  9 10  1  1
 11 10  1  0
 12 11  2  0
 13 12  1  0
 14 13  1  0
 14 19  2  0
 15 16  2  0
 15 14  1  0
 16 17  1  0
 17 18  2  0
 19 18  1  0
 19 11  1  0
 20 21  2  0
 23 22  1  1
 24 23  1  0
 24 20  1  0
 25 27  1  0
 25 23  1  0
 26 25  2  0
M  END
$$$$
