TWA.pdb
     RDKit          3D

 27 28  0  0  1  0  0  0  0  0999 V2000
    6.7943  -16.9301   19.3175 C   0  0  0  0  0  0  0  0  0  0  0  0
    7.7683  -16.8423   20.4566 C   0  0  1  0  0  0  0  0  0  0  0  0
    9.0555  -17.2253   20.0825 O   0  0  0  0  0  0  0  0  0  0  0  0
    7.8527  -15.4264   20.9511 C   0  0  2  0  0  0  0  0  0  0  0  0
    8.0466  -14.4682   19.8973 N   0  0  0  0  0  0  0  0  0  0  0  0
    8.8789  -15.2416   21.9944 C   0  0  0  0  0  0  0  0  0  0  0  0
    9.8870  -14.5024   21.8310 O   0  0  0  0  0  0  0  0  0  0  0  0
    8.7556  -15.9031   23.2307 N   0  0  0  0  0  0  0  0  0  0  0  0
    9.6115  -15.8365   24.3593 C   0  0  1  0  0  0  0  0  0  0  0  0
    8.9499  -15.9533   25.7209 C   0  0  0  0  0  0  0  0  0  0  0  0
    7.6836  -15.1870   25.8347 C   0  0  0  0  0  0  0  0  0  0  0  0
    6.3753  -15.5783   25.7503 C   0  0  0  0  0  0  0  0  0  0  0  0
    5.5692  -14.5010   25.9356 N   0  0  0  0  0  0  0  0  0  0  0  0
    6.3021  -13.4116   26.1401 C   0  0  0  0  0  0  0  0  0  0  0  0
    6.0122  -12.0716   26.3828 C   0  0  0  0  0  0  0  0  0  0  0  0
    7.0283  -11.1575   26.5635 C   0  0  0  0  0  0  0  0  0  0  0  0
    8.3521  -11.5369   26.5103 C   0  0  0  0  0  0  0  0  0  0  0  0
    8.6104  -12.8856   26.2656 C   0  0  0  0  0  0  0  0  0  0  0  0
    7.6016  -13.7993   26.0847 C   0  0  0  0  0  0  0  0  0  0  0  0
   10.7943  -16.7031   24.3330 C   0  0  0  0  0  0  0  0  0  0  0  0
   11.4234  -16.8725   25.4364 O   0  0  0  0  0  0  0  0  0  0  0  0
   12.5194  -19.2254   22.1497 C   0  0  0  0  0  0  0  0  0  0  0  0
   12.4941  -18.2293   23.2594 C   0  0  2  0  0  0  0  0  0  0  0  0
   11.3220  -17.3766   23.2261 N   0  0  0  0  0  0  0  0  0  0  0  0
   13.7467  -17.4505   23.2865 C   0  0  0  0  0  0  0  0  0  0  0  0
   14.8476  -17.9921   23.4592 O   0  0  0  0  0  0  0  0  0  0  0  0
   13.6842  -16.0774   23.1140 O   0  0  0  0  0  0  0  0  0  0  0  0
  2  1  1  6
  2  4  1  0
  3  2  1  0
  4  5  1  6
  6  4  1  0
  7  6  2  0
  8  6  1  0
  9 20  1  0
  9  8  1  0
  9 10  1  1
 11 10  1  0
 12 11  2  0
 13 12  1  0
 14 13  1  0
 14 19  2  0
 15 16  2  0
 15 14  1  0
 16 17  1  0
 17 18  2  0
 19 18  1  0
 19 11  1  0
 20 21  2  0
 23 22  1  6
 24 23  1  0
 24 20  1  0
 25 27  1  0
 25 23  1  0
 26 25  2  0
M  END
$$$$
