TWA.pdb
     RDKit          3D

 27 28  0  0  1  0  0  0  0  0999 V2000
    6.5930  -15.6340   19.0441 C   0  0  0  0  0  0  0  0  0  0  0  0
    7.5139  -15.8163   20.2157 C   0  0  1  0  0  0  0  0  0  0  0  0
    8.7727  -16.2764   19.8323 O   0  0  0  0  0  0  0  0  0  0  0  0
    7.7159  -14.5041   20.9182 C   0  0  2  0  0  0  0  0  0  0  0  0
    8.0143  -13.4208   20.0216 N   0  0  0  0  0  0  0  0  0  0  0  0
    8.7354  -14.5721   21.9821 C   0  0  0  0  0  0  0  0  0  0  0  0
    9.8364  -13.9625   21.9066 O   0  0  0  0  0  0  0  0  0  0  0  0
    8.4989  -15.3393   23.1382 N   0  0  0  0  0  0  0  0  0  0  0  0
    9.3589  -15.5624   24.2434 C   0  0  1  0  0  0  0  0  0  0  0  0
    8.6909  -15.8026   25.5856 C   0  0  0  0  0  0  0  0  0  0  0  0
    7.4963  -14.9521   25.8162 C   0  0  0  0  0  0  0  0  0  0  0  0
    6.1582  -15.2308   25.7544 C   0  0  0  0  0  0  0  0  0  0  0  0
    5.4498  -14.1137   26.0629 N   0  0  0  0  0  0  0  0  0  0  0  0
    6.2760  -13.1070   26.3268 C   0  0  0  0  0  0  0  0  0  0  0  0
    6.1054  -11.7745   26.6927 C   0  0  0  0  0  0  0  0  0  0  0  0
    7.1985  -10.9621   26.9065 C   0  0  0  0  0  0  0  0  0  0  0  0
    8.4841  -11.4381   26.7662 C   0  0  0  0  0  0  0  0  0  0  0  0
    8.6226  -12.7766   26.3989 C   0  0  0  0  0  0  0  0  0  0  0  0
    7.5368  -13.5891   26.1847 C   0  0  0  0  0  0  0  0  0  0  0  0
   10.4157  -16.5619   24.0562 C   0  0  0  0  0  0  0  0  0  0  0  0
   11.0827  -16.9129   25.0925 O   0  0  0  0  0  0  0  0  0  0  0  0
   11.8753  -18.8444   21.4212 C   0  0  0  0  0  0  0  0  0  0  0  0
   11.8988  -18.1014   22.7142 C   0  0  2  0  0  0  0  0  0  0  0  0
   10.7841  -17.1858   22.8595 N   0  0  0  0  0  0  0  0  0  0  0  0
   13.1981  -17.4287   22.9029 C   0  0  0  0  0  0  0  0  0  0  0  0
   13.2756  -16.2151   23.1404 O   0  0  0  0  0  0  0  0  0  0  0  0
   14.3591  -18.1789   22.8108 O   0  0  0  0  0  0  0  0  0  0  0  0
  2  1  1  6
  2  4  1  0
  3  2  1  0
  4  5  1  6
  6  4  1  0
  7  6  2  0
  8  6  1  0
  9 20  1  0
  9  8  1  0
  9 10  1  1
 11 10  1  0
 12 11  2  0
 13 12  1  0
 14 13  1  0
 14 19  2  0
 15 16  2  0
 15 14  1  0
 16 17  1  0
 17 18  2  0
 19 18  1  0
 19 11  1  0
 20 21  2  0
 23 22  1  6
 24 23  1  0
 24 20  1  0
 25 27  1  0
 25 23  1  0
 26 25  2  0
M  END
$$$$
