TWA.pdb
     RDKit          3D

 27 28  0  0  1  0  0  0  0  0999 V2000
    8.7094  -13.4283   20.5227 C   0  0  0  0  0  0  0  0  0  0  0  0
    7.9875  -14.7260   20.7436 C   0  0  1  0  0  0  0  0  0  0  0  0
    7.5451  -15.2948   19.5503 O   0  0  0  0  0  0  0  0  0  0  0  0
    8.9066  -15.7196   21.3950 C   0  0  2  0  0  0  0  0  0  0  0  0
    8.3681  -17.0520   21.4303 N   0  0  0  0  0  0  0  0  0  0  0  0
    9.3290  -15.3115   22.7481 C   0  0  0  0  0  0  0  0  0  0  0  0
    9.9137  -14.2179   22.9752 O   0  0  0  0  0  0  0  0  0  0  0  0
    9.0838  -16.1544   23.8483 N   0  0  0  0  0  0  0  0  0  0  0  0
    9.2862  -15.8915   25.2269 C   0  0  1  0  0  0  0  0  0  0  0  0
    8.0861  -16.0814   26.1375 C   0  0  0  0  0  0  0  0  0  0  0  0
    6.9632  -15.1563   25.8425 C   0  0  0  0  0  0  0  0  0  0  0  0
    5.7049  -15.3827   25.3552 C   0  0  0  0  0  0  0  0  0  0  0  0
    5.0352  -14.2041   25.2699 N   0  0  0  0  0  0  0  0  0  0  0  0
    5.8095  -13.2074   25.6853 C   0  0  0  0  0  0  0  0  0  0  0  0
    5.6436  -11.8310   25.8142 C   0  0  0  0  0  0  0  0  0  0  0  0
    6.6679  -11.0449   26.2972 C   0  0  0  0  0  0  0  0  0  0  0  0
    7.8787  -11.5909   26.6648 C   0  0  0  0  0  0  0  0  0  0  0  0
    8.0145  -12.9720   26.5241 C   0  0  0  0  0  0  0  0  0  0  0  0
    6.9970  -13.7586   26.0433 C   0  0  0  0  0  0  0  0  0  0  0  0
   10.4545  -16.5249   25.8471 C   0  0  0  0  0  0  0  0  0  0  0  0
   10.5564  -17.7981   25.7444 O   0  0  0  0  0  0  0  0  0  0  0  0
   11.3529  -15.5857   28.9764 C   0  0  0  0  0  0  0  0  0  0  0  0
   11.9891  -16.3121   27.8398 C   0  0  2  0  0  0  0  0  0  0  0  0
   11.4858  -15.8898   26.5473 N   0  0  0  0  0  0  0  0  0  0  0  0
   11.8784  -17.7710   28.0290 C   0  0  0  0  0  0  0  0  0  0  0  0
   11.3385  -18.4989   27.1841 O   0  0  0  0  0  0  0  0  0  0  0  0
   12.3934  -18.3364   29.1840 O   0  0  0  0  0  0  0  0  0  0  0  0
  2  1  1  6
  2  4  1  0
  3  2  1  0
  4  5  1  1
  6  4  1  0
  7  6  2  0
  8  6  1  0
  9 20  1  0
  9  8  1  0
  9 10  1  1
 11 10  1  0
 12 11  2  0
 13 12  1  0
 14 13  1  0
 14 19  2  0
 15 16  2  0
 15 14  1  0
 16 17  1  0
 17 18  2  0
 19 18  1  0
 19 11  1  0
 20 21  2  0
 23 22  1  1
 24 23  1  0
 24 20  1  0
 25 27  1  0
 25 23  1  0
 26 25  2  0
M  END
$$$$
