TWA.pdb
     RDKit          3D

 27 28  0  0  1  0  0  0  0  0999 V2000
    6.7152  -17.4036   18.9435 C   0  0  0  0  0  0  0  0  0  0  0  0
    7.7221  -17.1566   20.0294 C   0  0  1  0  0  0  0  0  0  0  0  0
    9.0334  -17.2772   19.5720 O   0  0  0  0  0  0  0  0  0  0  0  0
    7.5657  -15.7623   20.5660 C   0  0  2  0  0  0  0  0  0  0  0  0
    7.6090  -14.7528   19.5435 N   0  0  0  0  0  0  0  0  0  0  0  0
    8.5364  -15.4432   21.6298 C   0  0  0  0  0  0  0  0  0  0  0  0
    9.5196  -14.6764   21.4432 O   0  0  0  0  0  0  0  0  0  0  0  0
    8.3859  -16.0011   22.9132 N   0  0  0  0  0  0  0  0  0  0  0  0
    9.2752  -15.9371   24.0159 C   0  0  1  0  0  0  0  0  0  0  0  0
    8.6640  -16.1267   25.3928 C   0  0  0  0  0  0  0  0  0  0  0  0
    7.4864  -15.2589   25.6456 C   0  0  0  0  0  0  0  0  0  0  0  0
    6.1440  -15.5232   25.6289 C   0  0  0  0  0  0  0  0  0  0  0  0
    5.4578  -14.3931   25.9404 N   0  0  0  0  0  0  0  0  0  0  0  0
    6.3027  -13.3919   26.1626 C   0  0  0  0  0  0  0  0  0  0  0  0
    6.1580  -12.0518   26.5115 C   0  0  0  0  0  0  0  0  0  0  0  0
    7.2660  -11.2486   26.6785 C   0  0  0  0  0  0  0  0  0  0  0  0
    8.5414  -11.7416   26.5071 C   0  0  0  0  0  0  0  0  0  0  0  0
    8.6539  -13.0873   26.1579 C   0  0  0  0  0  0  0  0  0  0  0  0
    7.5531  -13.8907   25.9902 C   0  0  0  0  0  0  0  0  0  0  0  0
   10.4902  -16.7529   23.9221 C   0  0  0  0  0  0  0  0  0  0  0  0
   10.3397  -18.0204   23.8091 O   0  0  0  0  0  0  0  0  0  0  0  0
   14.1369  -16.4084   23.1655 C   0  0  0  0  0  0  0  0  0  0  0  0
   12.9782  -17.1427   23.7508 C   0  0  2  0  0  0  0  0  0  0  0  0
   11.8138  -16.3000   23.9412 N   0  0  0  0  0  0  0  0  0  0  0  0
   13.3743  -17.8315   24.9938 C   0  0  0  0  0  0  0  0  0  0  0  0
   14.3548  -18.5878   25.0360 O   0  0  0  0  0  0  0  0  0  0  0  0
   12.6263  -17.6234   26.1411 O   0  0  0  0  0  0  0  0  0  0  0  0
  2  1  1  6
  2  4  1  0
  3  2  1  0
  4  5  1  6
  6  4  1  0
  7  6  2  0
  8  6  1  0
  9 20  1  0
  9  8  1  0
  9 10  1  1
 11 10  1  0
 12 11  2  0
 13 12  1  0
 14 13  1  0
 14 19  2  0
 15 16  2  0
 15 14  1  0
 16 17  1  0
 17 18  2  0
 19 18  1  0
 19 11  1  0
 20 21  2  0
 23 22  1  1
 24 23  1  0
 24 20  1  0
 25 27  1  0
 25 23  1  0
 26 25  2  0
M  END
$$$$
