TWA.pdb
     RDKit          3D

 27 28  0  0  1  0  0  0  0  0999 V2000
    6.4685  -17.5755   18.8025 C   0  0  0  0  0  0  0  0  0  0  0  0
    7.5252  -17.2495   19.8179 C   0  0  1  0  0  0  0  0  0  0  0  0
    8.7938  -17.1524   19.2483 O   0  0  0  0  0  0  0  0  0  0  0  0
    7.2258  -15.9262   20.4628 C   0  0  2  0  0  0  0  0  0  0  0  0
    7.0271  -14.8649   19.5138 N   0  0  0  0  0  0  0  0  0  0  0  0
    8.2397  -15.5286   21.4575 C   0  0  0  0  0  0  0  0  0  0  0  0
    9.0630  -14.5962   21.2516 O   0  0  0  0  0  0  0  0  0  0  0  0
    8.3160  -16.1973   22.6937 N   0  0  0  0  0  0  0  0  0  0  0  0
    9.2698  -16.0349   23.7304 C   0  0  1  0  0  0  0  0  0  0  0  0
    8.7557  -16.1686   25.1528 C   0  0  0  0  0  0  0  0  0  0  0  0
    7.5815  -15.3084   25.4442 C   0  0  0  0  0  0  0  0  0  0  0  0
    6.2400  -15.5775   25.4559 C   0  0  0  0  0  0  0  0  0  0  0  0
    5.5574  -14.4541   25.7978 N   0  0  0  0  0  0  0  0  0  0  0  0
    6.4039  -13.4526   26.0126 C   0  0  0  0  0  0  0  0  0  0  0  0
    6.2628  -12.1175   26.3818 C   0  0  0  0  0  0  0  0  0  0  0  0
    7.3717  -11.3124   26.5328 C   0  0  0  0  0  0  0  0  0  0  0  0
    8.6444  -11.7983   26.3251 C   0  0  0  0  0  0  0  0  0  0  0  0
    8.7532  -13.1392   25.9563 C   0  0  0  0  0  0  0  0  0  0  0  0
    7.6516  -13.9445   25.8045 C   0  0  0  0  0  0  0  0  0  0  0  0
   10.5103  -16.8065   23.6021 C   0  0  0  0  0  0  0  0  0  0  0  0
   10.4377  -18.0717   23.7916 O   0  0  0  0  0  0  0  0  0  0  0  0
   14.0705  -16.4356   22.4204 C   0  0  0  0  0  0  0  0  0  0  0  0
   12.9742  -17.1275   23.1578 C   0  0  2  0  0  0  0  0  0  0  0  0
   11.7821  -16.3132   23.2913 N   0  0  0  0  0  0  0  0  0  0  0  0
   13.4570  -17.6228   24.4608 C   0  0  0  0  0  0  0  0  0  0  0  0
   14.4305  -18.3843   24.5488 O   0  0  0  0  0  0  0  0  0  0  0  0
   12.8004  -17.2228   25.6132 O   0  0  0  0  0  0  0  0  0  0  0  0
  2  1  1  6
  2  4  1  0
  3  2  1  0
  4  5  1  6
  6  4  1  0
  7  6  2  0
  8  6  1  0
  9 20  1  0
  9  8  1  0
  9 10  1  1
 11 10  1  0
 12 11  2  0
 13 12  1  0
 14 13  1  0
 14 19  2  0
 15 16  2  0
 15 14  1  0
 16 17  1  0
 17 18  2  0
 19 18  1  0
 19 11  1  0
 20 21  2  0
 23 22  1  1
 24 23  1  0
 24 20  1  0
 25 27  1  0
 25 23  1  0
 26 25  2  0
M  END
$$$$
