TWA.pdb
     RDKit          3D

 27 28  0  0  1  0  0  0  0  0999 V2000
    8.5080  -12.7579   19.9488 C   0  0  0  0  0  0  0  0  0  0  0  0
    7.3736  -13.7183   20.1606 C   0  0  1  0  0  0  0  0  0  0  0  0
    6.5843  -13.8639   19.0209 O   0  0  0  0  0  0  0  0  0  0  0  0
    7.9107  -15.0781   20.5052 C   0  0  2  0  0  0  0  0  0  0  0  0
    6.8838  -16.0738   20.6487 N   0  0  0  0  0  0  0  0  0  0  0  0
    8.7740  -15.0695   21.7012 C   0  0  0  0  0  0  0  0  0  0  0  0
    9.7658  -14.2997   21.8164 O   0  0  0  0  0  0  0  0  0  0  0  0
    8.5056  -15.9430   22.7717 N   0  0  0  0  0  0  0  0  0  0  0  0
    9.2033  -16.0798   23.9986 C   0  0  1  0  0  0  0  0  0  0  0  0
    8.3549  -16.2296   25.2490 C   0  0  0  0  0  0  0  0  0  0  0  0
    7.3035  -15.1902   25.3825 C   0  0  0  0  0  0  0  0  0  0  0  0
    5.9512  -15.2360   25.1796 C   0  0  0  0  0  0  0  0  0  0  0  0
    5.4133  -14.0176   25.4465 N   0  0  0  0  0  0  0  0  0  0  0  0
    6.3658  -13.1694   25.8193 C   0  0  0  0  0  0  0  0  0  0  0  0
    6.3854  -11.8311   26.2029 C   0  0  0  0  0  0  0  0  0  0  0  0
    7.5719  -11.2191   26.5471 C   0  0  0  0  0  0  0  0  0  0  0  0
    8.7664  -11.9059   26.5228 C   0  0  0  0  0  0  0  0  0  0  0  0
    8.7144  -13.2447   26.1345 C   0  0  0  0  0  0  0  0  0  0  0  0
    7.5350  -13.8579   25.7906 C   0  0  0  0  0  0  0  0  0  0  0  0
   10.2743  -17.0811   24.0318 C   0  0  0  0  0  0  0  0  0  0  0  0
    9.9515  -18.2953   23.7796 O   0  0  0  0  0  0  0  0  0  0  0  0
   13.9390  -17.4291   23.7250 C   0  0  0  0  0  0  0  0  0  0  0  0
   12.6488  -17.8890   24.3151 C   0  0  2  0  0  0  0  0  0  0  0  0
   11.6273  -16.8600   24.3104 N   0  0  0  0  0  0  0  0  0  0  0  0
   12.8648  -18.4507   25.6620 C   0  0  0  0  0  0  0  0  0  0  0  0
   12.2488  -18.0288   26.6508 O   0  0  0  0  0  0  0  0  0  0  0  0
   13.7821  -19.4768   25.8193 O   0  0  0  0  0  0  0  0  0  0  0  0
  2  1  1  6
  2  4  1  0
  3  2  1  0
  4  5  1  1
  6  4  1  0
  7  6  2  0
  8  6  1  0
  9 20  1  0
  9  8  1  0
  9 10  1  1
 11 10  1  0
 12 11  2  0
 13 12  1  0
 14 13  1  0
 14 19  2  0
 15 16  2  0
 15 14  1  0
 16 17  1  0
 17 18  2  0
 19 18  1  0
 19 11  1  0
 20 21  2  0
 23 22  1  1
 24 23  1  0
 24 20  1  0
 25 27  1  0
 25 23  1  0
 26 25  2  0
M  END
$$$$
