TWA.pdb
     RDKit          3D

 27 28  0  0  1  0  0  0  0  0999 V2000
    6.3073  -17.6680   19.0868 C   0  0  0  0  0  0  0  0  0  0  0  0
    7.4333  -17.3295   20.0204 C   0  0  1  0  0  0  0  0  0  0  0  0
    8.6701  -17.3244   19.3772 O   0  0  0  0  0  0  0  0  0  0  0  0
    7.2270  -15.9577   20.5966 C   0  0  2  0  0  0  0  0  0  0  0  0
    7.0790  -14.9380   19.5943 N   0  0  0  0  0  0  0  0  0  0  0  0
    8.2796  -15.5722   21.5552 C   0  0  0  0  0  0  0  0  0  0  0  0
    9.1517  -14.7009   21.2910 O   0  0  0  0  0  0  0  0  0  0  0  0
    8.3388  -16.1830   22.8219 N   0  0  0  0  0  0  0  0  0  0  0  0
    9.2827  -15.9780   23.8601 C   0  0  1  0  0  0  0  0  0  0  0  0
    8.7566  -16.0609   25.2820 C   0  0  0  0  0  0  0  0  0  0  0  0
    7.5635  -15.2117   25.5253 C   0  0  0  0  0  0  0  0  0  0  0  0
    6.2250  -15.4896   25.4685 C   0  0  0  0  0  0  0  0  0  0  0  0
    5.5187  -14.3745   25.7891 N   0  0  0  0  0  0  0  0  0  0  0  0
    6.3467  -13.3701   26.0561 C   0  0  0  0  0  0  0  0  0  0  0  0
    6.1785  -12.0403   26.4328 C   0  0  0  0  0  0  0  0  0  0  0  0
    7.2730  -11.2298   26.6467 C   0  0  0  0  0  0  0  0  0  0  0  0
    8.5577  -11.7052   26.4960 C   0  0  0  0  0  0  0  0  0  0  0  0
    8.6937  -13.0409   26.1180 C   0  0  0  0  0  0  0  0  0  0  0  0
    7.6065  -13.8515   25.9037 C   0  0  0  0  0  0  0  0  0  0  0  0
   10.5275  -16.7483   23.7714 C   0  0  0  0  0  0  0  0  0  0  0  0
   10.4271  -18.0253   23.7371 O   0  0  0  0  0  0  0  0  0  0  0  0
   14.1763  -16.2813   23.0067 C   0  0  0  0  0  0  0  0  0  0  0  0
   13.0248  -17.0493   23.5621 C   0  0  2  0  0  0  0  0  0  0  0  0
   11.8306  -16.2421   23.7184 N   0  0  0  0  0  0  0  0  0  0  0  0
   13.4074  -17.7234   24.8173 C   0  0  0  0  0  0  0  0  0  0  0  0
   14.3940  -18.4703   24.8817 O   0  0  0  0  0  0  0  0  0  0  0  0
   12.6394  -17.5124   25.9507 O   0  0  0  0  0  0  0  0  0  0  0  0
  2  1  1  6
  2  4  1  0
  3  2  1  0
  4  5  1  6
  6  4  1  0
  7  6  2  0
  8  6  1  0
  9 20  1  0
  9  8  1  0
  9 10  1  1
 11 10  1  0
 12 11  2  0
 13 12  1  0
 14 13  1  0
 14 19  2  0
 15 16  2  0
 15 14  1  0
 16 17  1  0
 17 18  2  0
 19 18  1  0
 19 11  1  0
 20 21  2  0
 23 22  1  1
 24 23  1  0
 24 20  1  0
 25 27  1  0
 25 23  1  0
 26 25  2  0
M  END
$$$$
