TWA.pdb
     RDKit          3D

 27 28  0  0  1  0  0  0  0  0999 V2000
    9.5917  -16.5017   19.1489 C   0  0  0  0  0  0  0  0  0  0  0  0
    9.6107  -15.7426   20.4440 C   0  0  1  0  0  0  0  0  0  0  0  0
    8.3790  -15.1564   20.7313 O   0  0  0  0  0  0  0  0  0  0  0  0
    9.9352  -16.6722   21.5785 C   0  0  2  0  0  0  0  0  0  0  0  0
    8.9565  -17.7093   21.7597 N   0  0  0  0  0  0  0  0  0  0  0  0
   10.1623  -15.9662   22.8536 C   0  0  0  0  0  0  0  0  0  0  0  0
   10.7561  -14.8559   22.9178 O   0  0  0  0  0  0  0  0  0  0  0  0
    9.7105  -16.5288   24.0620 N   0  0  0  0  0  0  0  0  0  0  0  0
    9.8471  -16.0226   25.3795 C   0  0  1  0  0  0  0  0  0  0  0  0
    8.6187  -16.1027   26.2684 C   0  0  0  0  0  0  0  0  0  0  0  0
    7.4476  -15.3643   25.7327 C   0  0  0  0  0  0  0  0  0  0  0  0
    6.3106  -15.7972   25.1068 C   0  0  0  0  0  0  0  0  0  0  0  0
    5.5232  -14.7302   24.8126 N   0  0  0  0  0  0  0  0  0  0  0  0
    6.1027  -13.6075   25.2240 C   0  0  0  0  0  0  0  0  0  0  0  0
    5.7549  -12.2597   25.1883 C   0  0  0  0  0  0  0  0  0  0  0  0
    6.5954  -11.3058   25.7214 C   0  0  0  0  0  0  0  0  0  0  0  0
    7.7965  -11.6520   26.3017 C   0  0  0  0  0  0  0  0  0  0  0  0
    8.1169  -13.0094   26.3223 C   0  0  0  0  0  0  0  0  0  0  0  0
    7.2829  -13.9627   25.7923 C   0  0  0  0  0  0  0  0  0  0  0  0
   11.0114  -16.4885   26.1398 C   0  0  0  0  0  0  0  0  0  0  0  0
   11.3616  -17.7117   25.9874 O   0  0  0  0  0  0  0  0  0  0  0  0
   10.7280  -14.7003   28.9711 C   0  0  0  0  0  0  0  0  0  0  0  0
   11.6550  -15.7545   28.4675 C   0  0  2  0  0  0  0  0  0  0  0  0
   11.7955  -15.7404   27.0245 N   0  0  0  0  0  0  0  0  0  0  0  0
   11.2561  -17.0816   28.9735 C   0  0  0  0  0  0  0  0  0  0  0  0
   10.0874  -17.4854   28.8939 O   0  0  0  0  0  0  0  0  0  0  0  0
   12.2179  -17.8934   29.5522 O   0  0  0  0  0  0  0  0  0  0  0  0
  2  1  1  6
  2  4  1  0
  3  2  1  0
  4  5  1  1
  6  4  1  0
  7  6  2  0
  8  6  1  0
  9 20  1  0
  9  8  1  0
  9 10  1  1
 11 10  1  0
 12 11  2  0
 13 12  1  0
 14 13  1  0
 14 19  2  0
 15 16  2  0
 15 14  1  0
 16 17  1  0
 17 18  2  0
 19 18  1  0
 19 11  1  0
 20 21  2  0
 23 22  1  6
 24 23  1  0
 24 20  1  0
 25 27  1  0
 25 23  1  0
 26 25  2  0
M  END
$$$$
