IMT.pdb
     RDKit          3D

 24 23  0  0  1  0  0  0  0  0999 V2000
    6.2193  -23.0750   24.4872 C   0  0  0  0  0  0  0  0  0  0  0  0
    5.3675  -21.8234   24.4135 C   0  0  0  0  0  0  0  0  0  0  0  0
    6.1669  -20.5889   24.2180 C   0  0  2  0  0  0  0  0  0  0  0  0
    7.3584  -20.4967   25.1452 C   0  0  0  0  0  0  0  0  0  0  0  0
    5.3585  -19.3170   24.1624 C   0  0  2  0  0  0  0  0  0  0  0  0
    4.4357  -19.3884   23.0018 N   0  0  0  0  0  0  0  0  0  0  0  0
    6.1729  -18.0939   23.9701 C   0  0  0  0  0  0  0  0  0  0  0  0
    6.7349  -17.8894   22.8587 O   0  0  0  0  0  0  0  0  0  0  0  0
    6.0666  -11.3187   26.2358 C   0  0  0  0  0  0  0  0  0  0  0  0
    7.2170  -12.4717   27.0274 S   0  0  0  0  0  0  0  0  0  0  0  0
    7.8222  -13.6746   25.7699 C   0  0  0  0  0  0  0  0  0  0  0  0
    6.9514  -14.8899   25.8525 C   0  0  0  0  0  0  0  0  0  0  0  0
    7.2749  -15.9907   24.8961 C   0  0  2  0  0  0  0  0  0  0  0  0
    6.3753  -17.0975   24.9745 N   0  0  0  0  0  0  0  0  0  0  0  0
    8.7122  -16.3246   24.8170 C   0  0  0  0  0  0  0  0  0  0  0  0
    9.1595  -17.0390   25.7525 O   0  0  0  0  0  0  0  0  0  0  0  0
   10.2602  -17.7537   21.5057 C   0  0  0  0  0  0  0  0  0  0  0  0
   11.2388  -16.7800   22.1390 C   0  0  1  0  0  0  0  0  0  0  0  0
   11.4257  -15.6435   21.3997 O   0  0  0  0  0  0  0  0  0  0  0  0
   10.8824  -16.5705   23.5598 C   0  0  2  0  0  0  0  0  0  0  0  0
    9.6330  -15.9424   23.8377 N   0  0  0  0  0  0  0  0  0  0  0  0
   11.9675  -15.8192   24.2266 C   0  0  0  0  0  0  0  0  0  0  0  0
   13.2495  -16.3214   24.2820 O   0  0  0  0  0  0  0  0  0  0  0  0
   11.7231  -14.7118   24.7492 O   0  0  0  0  0  0  0  0  0  0  0  0
  1  2  1  0
  3  4  1  1
  3  2  1  0
  5  3  1  0
  5  7  1  0
  5  6  1  6
  7  8  2  0
 10  9  1  0
 11 10  1  0
 12 11  1  0
 13 12  1  1
 14  7  1  0
 14 13  1  0
 15 21  1  0
 15 13  1  0
 16 15  2  0
 18 17  1  6
 18 19  1  0
 20 21  1  6
 20 18  1  0
 22 20  1  0
 22 23  1  0
 24 22  2  0
M  END
$$$$
