IMT.pdb
     RDKit          3D

 24 23  0  0  1  0  0  0  0  0999 V2000
    5.9189  -23.0945   23.5987 C   0  0  0  0  0  0  0  0  0  0  0  0
    5.1115  -21.8169   23.4829 C   0  0  0  0  0  0  0  0  0  0  0  0
    5.9544  -20.5959   23.4913 C   0  0  2  0  0  0  0  0  0  0  0  0
    6.9804  -20.5870   24.6027 C   0  0  0  0  0  0  0  0  0  0  0  0
    5.1890  -19.3012   23.3800 C   0  0  2  0  0  0  0  0  0  0  0  0
    4.4604  -19.2873   22.0867 N   0  0  0  0  0  0  0  0  0  0  0  0
    6.0465  -18.0924   23.3860 C   0  0  0  0  0  0  0  0  0  0  0  0
    6.7478  -17.8225   22.3721 O   0  0  0  0  0  0  0  0  0  0  0  0
    7.7856  -11.1849   26.8774 C   0  0  0  0  0  0  0  0  0  0  0  0
    6.7864  -12.6952   26.8843 S   0  0  0  0  0  0  0  0  0  0  0  0
    7.6297  -13.9779   25.8655 C   0  0  0  0  0  0  0  0  0  0  0  0
    6.6035  -15.0013   25.4888 C   0  0  0  0  0  0  0  0  0  0  0  0
    7.0812  -16.1126   24.6127 C   0  0  2  0  0  0  0  0  0  0  0  0
    6.1417  -17.1808   24.4825 N   0  0  0  0  0  0  0  0  0  0  0  0
    8.4868  -16.5066   24.8423 C   0  0  0  0  0  0  0  0  0  0  0  0
    8.7167  -17.1037   25.9267 O   0  0  0  0  0  0  0  0  0  0  0  0
   10.8424  -18.0910   21.9271 C   0  0  0  0  0  0  0  0  0  0  0  0
   11.6056  -17.1433   22.8360 C   0  0  1  0  0  0  0  0  0  0  0  0
   12.0142  -15.9999   22.2044 O   0  0  0  0  0  0  0  0  0  0  0  0
   10.8527  -16.9476   24.0948 C   0  0  2  0  0  0  0  0  0  0  0  0
    9.5883  -16.2943   24.0089 N   0  0  0  0  0  0  0  0  0  0  0  0
   11.7085  -16.2329   25.0660 C   0  0  0  0  0  0  0  0  0  0  0  0
   12.9060  -16.7690   25.4872 O   0  0  0  0  0  0  0  0  0  0  0  0
   11.3445  -15.1258   25.5143 O   0  0  0  0  0  0  0  0  0  0  0  0
  1  2  1  0
  3  4  1  1
  3  2  1  0
  5  3  1  0
  5  7  1  0
  5  6  1  6
  7  8  2  0
 10  9  1  0
 11 10  1  0
 12 11  1  0
 13 12  1  1
 14  7  1  0
 14 13  1  0
 15 21  1  0
 15 13  1  0
 16 15  2  0
 18 17  1  6
 18 19  1  0
 20 21  1  6
 20 18  1  0
 22 20  1  0
 22 23  1  0
 24 22  2  0
M  END
$$$$
