IMT.pdb
     RDKit          3D

 24 23  0  0  1  0  0  0  0  0999 V2000
    7.8900  -17.6675   18.9477 C   0  0  0  0  0  0  0  0  0  0  0  0
    8.3809  -16.3546   19.5246 C   0  0  0  0  0  0  0  0  0  0  0  0
    7.3307  -15.3070   19.5568 C   0  0  2  0  0  0  0  0  0  0  0  0
    6.6112  -15.1428   18.2365 C   0  0  0  0  0  0  0  0  0  0  0  0
    7.7667  -13.9962   20.1619 C   0  0  2  0  0  0  0  0  0  0  0  0
    8.9039  -13.4608   19.3721 N   0  0  0  0  0  0  0  0  0  0  0  0
    8.2485  -14.1086   21.5589 C   0  0  0  0  0  0  0  0  0  0  0  0
    9.4706  -14.3342   21.7788 O   0  0  0  0  0  0  0  0  0  0  0  0
    6.8742  -10.8108   27.2381 C   0  0  0  0  0  0  0  0  0  0  0  0
    6.2225  -12.4846   27.4689 S   0  0  0  0  0  0  0  0  0  0  0  0
    7.2454  -13.6670   26.4941 C   0  0  0  0  0  0  0  0  0  0  0  0
    6.9117  -13.4666   25.0483 C   0  0  0  0  0  0  0  0  0  0  0  0
    7.8155  -14.1429   24.0701 C   0  0  2  0  0  0  0  0  0  0  0  0
    7.4123  -13.9751   22.7101 N   0  0  0  0  0  0  0  0  0  0  0  0
    8.2257  -15.5068   24.4637 C   0  0  0  0  0  0  0  0  0  0  0  0
    7.2996  -16.3570   24.5341 O   0  0  0  0  0  0  0  0  0  0  0  0
   10.5740  -17.9708   22.7122 C   0  0  0  0  0  0  0  0  0  0  0  0
   11.0152  -17.8434   24.1600 C   0  0  1  0  0  0  0  0  0  0  0  0
   12.2105  -17.1928   24.3058 O   0  0  0  0  0  0  0  0  0  0  0  0
    9.8966  -17.3224   24.9765 C   0  0  2  0  0  0  0  0  0  0  0  0
    9.5096  -15.9657   24.7706 N   0  0  0  0  0  0  0  0  0  0  0  0
   10.2015  -17.5331   26.4080 C   0  0  0  0  0  0  0  0  0  0  0  0
   10.4048  -18.7992   26.9123 O   0  0  0  0  0  0  0  0  0  0  0  0
   10.2768  -16.5513   27.1758 O   0  0  0  0  0  0  0  0  0  0  0  0
  1  2  1  0
  3  4  1  6
  3  2  1  0
  5  3  1  0
  5  7  1  0
  5  6  1  6
  7  8  2  0
 10  9  1  0
 11 10  1  0
 12 11  1  0
 13 12  1  1
 14  7  1  0
 14 13  1  0
 15 21  1  0
 15 13  1  0
 16 15  2  0
 18 17  1  6
 18 19  1  0
 20 21  1  1
 20 18  1  0
 22 20  1  0
 22 23  1  0
 24 22  2  0
M  END
$$$$
