IMT.pdb
     RDKit          3D

 24 23  0  0  1  0  0  0  0  0999 V2000
    6.9188  -18.9677   18.3918 C   0  0  0  0  0  0  0  0  0  0  0  0
    7.0128  -17.4802   18.6676 C   0  0  0  0  0  0  0  0  0  0  0  0
    7.4399  -17.1739   20.0552 C   0  0  2  0  0  0  0  0  0  0  0  0
    6.6610  -17.9393   21.1017 C   0  0  0  0  0  0  0  0  0  0  0  0
    7.5645  -15.7034   20.3659 C   0  0  2  0  0  0  0  0  0  0  0  0
    8.4962  -15.0865   19.3887 N   0  0  0  0  0  0  0  0  0  0  0  0
    8.1223  -15.4169   21.7087 C   0  0  0  0  0  0  0  0  0  0  0  0
    9.3449  -15.6348   21.9335 O   0  0  0  0  0  0  0  0  0  0  0  0
    7.4118  -10.6885   26.9790 C   0  0  0  0  0  0  0  0  0  0  0  0
    6.4009  -12.1892   27.0526 S   0  0  0  0  0  0  0  0  0  0  0  0
    7.3701  -13.6003   26.3714 C   0  0  0  0  0  0  0  0  0  0  0  0
    7.0105  -13.7377   24.9244 C   0  0  0  0  0  0  0  0  0  0  0  0
    7.8209  -14.7175   24.1408 C   0  0  2  0  0  0  0  0  0  0  0  0
    7.3611  -14.8956   22.8001 N   0  0  0  0  0  0  0  0  0  0  0  0
    8.1657  -15.9500   24.8796 C   0  0  0  0  0  0  0  0  0  0  0  0
    7.2047  -16.7244   25.1291 O   0  0  0  0  0  0  0  0  0  0  0  0
   11.0998  -19.7005   25.8629 C   0  0  0  0  0  0  0  0  0  0  0  0
   10.8349  -18.3897   25.1428 C   0  0  1  0  0  0  0  0  0  0  0  0
   10.6734  -18.5379   23.7918 O   0  0  0  0  0  0  0  0  0  0  0  0
    9.7615  -17.6474   25.8403 C   0  0  2  0  0  0  0  0  0  0  0  0
    9.4217  -16.3573   25.3375 N   0  0  0  0  0  0  0  0  0  0  0  0
   10.0994  -17.5404   27.2758 C   0  0  0  0  0  0  0  0  0  0  0  0
   10.1831  -18.6622   28.0717 O   0  0  0  0  0  0  0  0  0  0  0  0
   10.3131  -16.4180   27.7794 O   0  0  0  0  0  0  0  0  0  0  0  0
  1  2  1  0
  3  4  1  1
  3  2  1  0
  5  3  1  0
  5  7  1  0
  5  6  1  6
  7  8  2  0
 10  9  1  0
 11 10  1  0
 12 11  1  0
 13 12  1  1
 14  7  1  0
 14 13  1  0
 15 21  1  0
 15 13  1  0
 16 15  2  0
 18 17  1  1
 18 19  1  0
 20 21  1  6
 20 18  1  0
 22 20  1  0
 22 23  1  0
 24 22  2  0
M  END
$$$$
