IMT.pdb
     RDKit          3D

 24 23  0  0  1  0  0  0  0  0999 V2000
    7.9056  -16.2762   16.8404 C   0  0  0  0  0  0  0  0  0  0  0  0
    7.7172  -14.9818   17.6064 C   0  0  0  0  0  0  0  0  0  0  0  0
    8.0504  -15.1071   19.0468 C   0  0  2  0  0  0  0  0  0  0  0  0
    7.4121  -16.3105   19.7043 C   0  0  0  0  0  0  0  0  0  0  0  0
    7.8851  -13.8379   19.8444 C   0  0  2  0  0  0  0  0  0  0  0  0
    8.7413  -12.7832   19.2459 N   0  0  0  0  0  0  0  0  0  0  0  0
    8.3041  -13.9580   21.2608 C   0  0  0  0  0  0  0  0  0  0  0  0
    9.5284  -14.0889   21.5381 O   0  0  0  0  0  0  0  0  0  0  0  0
    7.2311  -11.3727   28.1532 C   0  0  0  0  0  0  0  0  0  0  0  0
    6.1233  -12.2917   27.0542 S   0  0  0  0  0  0  0  0  0  0  0  0
    7.1000  -13.5576   26.1387 C   0  0  0  0  0  0  0  0  0  0  0  0
    6.8368  -13.3606   24.6778 C   0  0  0  0  0  0  0  0  0  0  0  0
    7.7546  -14.0824   23.7463 C   0  0  2  0  0  0  0  0  0  0  0  0
    7.4029  -13.9340   22.3698 N   0  0  0  0  0  0  0  0  0  0  0  0
    8.1131  -15.4479   24.1827 C   0  0  0  0  0  0  0  0  0  0  0  0
    7.1758  -16.2887   24.1724 O   0  0  0  0  0  0  0  0  0  0  0  0
   10.2345  -18.0647   22.6003 C   0  0  0  0  0  0  0  0  0  0  0  0
   10.7627  -17.8768   24.0119 C   0  0  1  0  0  0  0  0  0  0  0  0
   11.9839  -17.2603   24.0547 O   0  0  0  0  0  0  0  0  0  0  0  0
    9.7098  -17.2760   24.8606 C   0  0  2  0  0  0  0  0  0  0  0  0
    9.3587  -15.9174   24.6082 N   0  0  0  0  0  0  0  0  0  0  0  0
   10.0868  -17.4287   26.2822 C   0  0  0  0  0  0  0  0  0  0  0  0
   10.2746  -18.6757   26.8376 O   0  0  0  0  0  0  0  0  0  0  0  0
   10.2383  -16.4145   26.9947 O   0  0  0  0  0  0  0  0  0  0  0  0
  1  2  1  0
  3  4  1  1
  3  2  1  0
  5  3  1  0
  5  7  1  0
  5  6  1  6
  7  8  2  0
 10  9  1  0
 11 10  1  0
 12 11  1  0
 13 12  1  1
 14  7  1  0
 14 13  1  0
 15 21  1  0
 15 13  1  0
 16 15  2  0
 18 17  1  6
 18 19  1  0
 20 21  1  6
 20 18  1  0
 22 20  1  0
 22 23  1  0
 24 22  2  0
M  END
$$$$
