IMT.pdb
     RDKit          3D

 24 23  0  0  1  0  0  0  0  0999 V2000
    7.0719  -12.0422   28.1679 C   0  0  0  0  0  0  0  0  0  0  0  0
    6.2899  -12.9800   27.2697 C   0  0  0  0  0  0  0  0  0  0  0  0
    7.1419  -13.6688   26.2691 C   0  0  2  0  0  0  0  0  0  0  0  0
    8.0490  -12.7272   25.5086 C   0  0  0  0  0  0  0  0  0  0  0  0
    6.4072  -14.6360   25.3752 C   0  0  2  0  0  0  0  0  0  0  0  0
    5.7367  -15.6539   26.2225 N   0  0  0  0  0  0  0  0  0  0  0  0
    7.2866  -15.3840   24.4459 C   0  0  0  0  0  0  0  0  0  0  0  0
    7.7040  -16.5297   24.7715 O   0  0  0  0  0  0  0  0  0  0  0  0
    8.2939  -11.9039   19.3601 C   0  0  0  0  0  0  0  0  0  0  0  0
    7.6368  -13.5049   18.8266 S   0  0  0  0  0  0  0  0  0  0  0  0
    7.2973  -14.5400   20.3125 C   0  0  0  0  0  0  0  0  0  0  0  0
    8.6175  -14.9298   20.9019 C   0  0  0  0  0  0  0  0  0  0  0  0
    8.5665  -15.5709   22.2500 C   0  0  2  0  0  0  0  0  0  0  0  0
    7.7091  -14.8950   23.1712 N   0  0  0  0  0  0  0  0  0  0  0  0
    9.8830  -15.9903   22.7740 C   0  0  0  0  0  0  0  0  0  0  0  0
   10.5054  -15.1248   23.4440 O   0  0  0  0  0  0  0  0  0  0  0  0
   13.3746  -19.2760   23.9921 C   0  0  0  0  0  0  0  0  0  0  0  0
   11.9466  -19.0363   23.5337 C   0  0  1  0  0  0  0  0  0  0  0  0
   11.0106  -19.5587   24.3847 O   0  0  0  0  0  0  0  0  0  0  0  0
   11.7702  -17.6097   23.1824 C   0  0  2  0  0  0  0  0  0  0  0  0
   10.5212  -17.2231   22.6136 N   0  0  0  0  0  0  0  0  0  0  0  0
   12.8678  -17.1919   22.2841 C   0  0  0  0  0  0  0  0  0  0  0  0
   14.0523  -16.7019   22.7897 O   0  0  0  0  0  0  0  0  0  0  0  0
   12.7238  -17.2824   21.0471 O   0  0  0  0  0  0  0  0  0  0  0  0
  1  2  1  0
  3  4  1  6
  3  2  1  0
  5  3  1  0
  5  7  1  0
  5  6  1  1
  7  8  2  0
 10  9  1  0
 11 10  1  0
 12 11  1  0
 13 12  1  6
 14  7  1  0
 14 13  1  0
 15 21  1  0
 15 13  1  0
 16 15  2  0
 18 17  1  1
 18 19  1  0
 20 21  1  6
 20 18  1  0
 22 20  1  0
 22 23  1  0
 24 22  2  0
M  END
$$$$
