IMT.pdb
     RDKit          3D

 24 23  0  0  1  0  0  0  0  0999 V2000
    8.5629  -11.7764   19.8649 C   0  0  0  0  0  0  0  0  0  0  0  0
    8.0904  -12.9390   20.7151 C   0  0  0  0  0  0  0  0  0  0  0  0
    8.2791  -14.2542   20.0547 C   0  0  2  0  0  0  0  0  0  0  0  0
    7.6360  -14.3332   18.6880 C   0  0  0  0  0  0  0  0  0  0  0  0
    7.9707  -15.4463   20.9254 C   0  0  2  0  0  0  0  0  0  0  0  0
    6.4979  -15.5648   21.0679 N   0  0  0  0  0  0  0  0  0  0  0  0
    8.5136  -15.3441   22.3006 C   0  0  0  0  0  0  0  0  0  0  0  0
    9.7631  -15.3135   22.4751 O   0  0  0  0  0  0  0  0  0  0  0  0
    7.4529  -11.7054   27.6107 C   0  0  0  0  0  0  0  0  0  0  0  0
    6.1084  -12.0210   26.4393 S   0  0  0  0  0  0  0  0  0  0  0  0
    6.7380  -13.0879   25.0756 C   0  0  0  0  0  0  0  0  0  0  0  0
    7.2994  -14.3294   25.6967 C   0  0  0  0  0  0  0  0  0  0  0  0
    8.1837  -15.1549   24.8205 C   0  0  2  0  0  0  0  0  0  0  0  0
    7.7080  -15.2731   23.4788 N   0  0  0  0  0  0  0  0  0  0  0  0
    8.6722  -16.3994   25.4498 C   0  0  0  0  0  0  0  0  0  0  0  0
    7.7835  -17.2189   25.8023 O   0  0  0  0  0  0  0  0  0  0  0  0
   11.9974  -19.9586   26.0539 C   0  0  0  0  0  0  0  0  0  0  0  0
   11.7079  -18.5629   25.5294 C   0  0  1  0  0  0  0  0  0  0  0  0
   11.8123  -18.4644   24.1683 O   0  0  0  0  0  0  0  0  0  0  0  0
   10.4435  -18.0644   26.1144 C   0  0  2  0  0  0  0  0  0  0  0  0
    9.9940  -16.7748   25.7048 N   0  0  0  0  0  0  0  0  0  0  0  0
   10.5426  -18.1031   27.5892 C   0  0  0  0  0  0  0  0  0  0  0  0
   10.6765  -19.2986   28.2612 O   0  0  0  0  0  0  0  0  0  0  0  0
   10.5048  -17.0383   28.2402 O   0  0  0  0  0  0  0  0  0  0  0  0
  1  2  1  0
  3  4  1  6
  3  2  1  0
  5  3  1  0
  5  7  1  0
  5  6  1  1
  7  8  2  0
 10  9  1  0
 11 10  1  0
 12 11  1  0
 13 12  1  1
 14  7  1  0
 14 13  1  0
 15 21  1  0
 15 13  1  0
 16 15  2  0
 18 17  1  6
 18 19  1  0
 20 21  1  6
 20 18  1  0
 22 20  1  0
 22 23  1  0
 24 22  2  0
M  END
$$$$
