IMT.pdb
     RDKit          3D

 24 23  0  0  1  0  0  0  0  0999 V2000
    7.4155  -12.9202   17.9814 C   0  0  0  0  0  0  0  0  0  0  0  0
    7.9665  -14.3208   18.1608 C   0  0  0  0  0  0  0  0  0  0  0  0
    8.1595  -14.6897   19.5849 C   0  0  2  0  0  0  0  0  0  0  0  0
    6.8647  -15.0050   20.3003 C   0  0  0  0  0  0  0  0  0  0  0  0
    9.0545  -13.7569   20.3616 C   0  0  2  0  0  0  0  0  0  0  0  0
   10.4126  -13.7900   19.7630 N   0  0  0  0  0  0  0  0  0  0  0  0
    9.2202  -14.1289   21.7865 C   0  0  0  0  0  0  0  0  0  0  0  0
   10.1278  -14.9419   22.1154 O   0  0  0  0  0  0  0  0  0  0  0  0
    5.3058  -12.0746   27.4434 C   0  0  0  0  0  0  0  0  0  0  0  0
    7.0951  -11.7960   27.4607 S   0  0  0  0  0  0  0  0  0  0  0  0
    7.9286  -13.1911   26.5927 C   0  0  0  0  0  0  0  0  0  0  0  0
    7.8656  -12.9101   25.1233 C   0  0  0  0  0  0  0  0  0  0  0  0
    8.5893  -13.8755   24.2427 C   0  0  2  0  0  0  0  0  0  0  0  0
    8.4096  -13.6215   22.8485 N   0  0  0  0  0  0  0  0  0  0  0  0
    8.4777  -15.2866   24.6668 C   0  0  0  0  0  0  0  0  0  0  0  0
    7.3455  -15.8157   24.5126 O   0  0  0  0  0  0  0  0  0  0  0  0
    9.3023  -18.4876   23.3025 C   0  0  0  0  0  0  0  0  0  0  0  0
   10.0176  -18.4530   24.6418 C   0  0  1  0  0  0  0  0  0  0  0  0
   11.3744  -18.3146   24.5268 O   0  0  0  0  0  0  0  0  0  0  0  0
    9.3472  -17.4855   25.5386 C   0  0  2  0  0  0  0  0  0  0  0  0
    9.4694  -16.1011   25.2200 N   0  0  0  0  0  0  0  0  0  0  0  0
    9.8060  -17.7113   26.9260 C   0  0  0  0  0  0  0  0  0  0  0  0
    9.6256  -18.9293   27.5447 O   0  0  0  0  0  0  0  0  0  0  0  0
   10.3661  -16.7868   27.5509 O   0  0  0  0  0  0  0  0  0  0  0  0
  1  2  1  0
  3  4  1  1
  3  2  1  0
  5  3  1  0
  5  7  1  0
  5  6  1  6
  7  8  2  0
 10  9  1  0
 11 10  1  0
 12 11  1  0
 13 12  1  1
 14  7  1  0
 14 13  1  0
 15 21  1  0
 15 13  1  0
 16 15  2  0
 18 17  1  6
 18 19  1  0
 20 21  1  6
 20 18  1  0
 22 20  1  0
 22 23  1  0
 24 22  2  0
M  END
$$$$
