IMT.pdb
     RDKit          3D

 24 23  0  0  1  0  0  0  0  0999 V2000
    5.0742  -21.7056   23.1625 C   0  0  0  0  0  0  0  0  0  0  0  0
    4.7414  -20.2445   22.9345 C   0  0  0  0  0  0  0  0  0  0  0  0
    5.8984  -19.3441   23.1629 C   0  0  2  0  0  0  0  0  0  0  0  0
    6.6227  -19.6213   24.4616 C   0  0  0  0  0  0  0  0  0  0  0  0
    5.6099  -17.8800   22.9453 C   0  0  2  0  0  0  0  0  0  0  0  0
    5.1445  -17.6878   21.5488 N   0  0  0  0  0  0  0  0  0  0  0  0
    6.7920  -17.0019   23.1130 C   0  0  0  0  0  0  0  0  0  0  0  0
    7.6612  -16.9482   22.1996 O   0  0  0  0  0  0  0  0  0  0  0  0
    6.9687  -12.7097   27.8907 C   0  0  0  0  0  0  0  0  0  0  0  0
    6.4552  -12.0379   26.2893 S   0  0  0  0  0  0  0  0  0  0  0  0
    6.6450  -13.3424   25.0021 C   0  0  0  0  0  0  0  0  0  0  0  0
    7.8452  -14.1615   25.3635 C   0  0  0  0  0  0  0  0  0  0  0  0
    8.1438  -15.3145   24.4622 C   0  0  2  0  0  0  0  0  0  0  0  0
    7.0296  -16.1857   24.2618 N   0  0  0  0  0  0  0  0  0  0  0  0
    9.4429  -15.9689   24.7222 C   0  0  0  0  0  0  0  0  0  0  0  0
    9.5071  -16.6575   25.7744 O   0  0  0  0  0  0  0  0  0  0  0  0
   10.9097  -18.6870   22.6183 C   0  0  0  0  0  0  0  0  0  0  0  0
   11.9811  -17.6239   22.7877 C   0  0  1  0  0  0  0  0  0  0  0  0
   12.2170  -16.9072   21.6458 O   0  0  0  0  0  0  0  0  0  0  0  0
   11.7010  -16.8248   24.0012 C   0  0  2  0  0  0  0  0  0  0  0  0
   10.6057  -15.9134   23.9489 N   0  0  0  0  0  0  0  0  0  0  0  0
   12.9258  -16.0966   24.3961 C   0  0  0  0  0  0  0  0  0  0  0  0
   14.0835  -16.7732   24.7135 O   0  0  0  0  0  0  0  0  0  0  0  0
   12.9157  -14.8489   24.4443 O   0  0  0  0  0  0  0  0  0  0  0  0
  1  2  1  0
  3  4  1  1
  3  2  1  0
  5  3  1  0
  5  7  1  0
  5  6  1  6
  7  8  2  0
 10  9  1  0
 11 10  1  0
 12 11  1  0
 13 12  1  1
 14  7  1  0
 14 13  1  0
 15 21  1  0
 15 13  1  0
 16 15  2  0
 18 17  1  6
 18 19  1  0
 20 21  1  6
 20 18  1  0
 22 20  1  0
 22 23  1  0
 24 22  2  0
M  END
$$$$
