IMT.pdb
     RDKit          3D

 24 23  0  0  1  0  0  0  0  0999 V2000
    7.1384  -12.6528   17.8399 C   0  0  0  0  0  0  0  0  0  0  0  0
    7.3007  -13.9665   18.5784 C   0  0  0  0  0  0  0  0  0  0  0  0
    8.1363  -13.8461   19.7985 C   0  0  2  0  0  0  0  0  0  0  0  0
    9.4669  -13.1724   19.5462 C   0  0  0  0  0  0  0  0  0  0  0  0
    8.2568  -15.1134   20.6071 C   0  0  2  0  0  0  0  0  0  0  0  0
    6.9353  -15.7890   20.6352 N   0  0  0  0  0  0  0  0  0  0  0  0
    8.6391  -14.8910   22.0216 C   0  0  0  0  0  0  0  0  0  0  0  0
    9.8490  -14.6814   22.3131 O   0  0  0  0  0  0  0  0  0  0  0  0
    6.7965  -10.9308   26.9408 C   0  0  0  0  0  0  0  0  0  0  0  0
    6.2295  -12.5759   27.4421 S   0  0  0  0  0  0  0  0  0  0  0  0
    7.3737  -13.8427   26.7488 C   0  0  0  0  0  0  0  0  0  0  0  0
    7.1183  -13.9232   25.2756 C   0  0  0  0  0  0  0  0  0  0  0  0
    8.0481  -14.7967   24.4989 C   0  0  2  0  0  0  0  0  0  0  0  0
    7.7163  -14.8933   23.1129 N   0  0  0  0  0  0  0  0  0  0  0  0
    8.3984  -16.0637   25.1740 C   0  0  0  0  0  0  0  0  0  0  0  0
    7.4345  -16.8343   25.4240 O   0  0  0  0  0  0  0  0  0  0  0  0
   11.3608  -19.8588   25.9681 C   0  0  0  0  0  0  0  0  0  0  0  0
   11.1807  -18.4643   25.3938 C   0  0  1  0  0  0  0  0  0  0  0  0
   11.2289  -18.4322   24.0264 O   0  0  0  0  0  0  0  0  0  0  0  0
    9.9988  -17.8217   26.0101 C   0  0  2  0  0  0  0  0  0  0  0  0
    9.6625  -16.5074   25.5715 N   0  0  0  0  0  0  0  0  0  0  0  0
   10.1576  -17.8220   27.4802 C   0  0  0  0  0  0  0  0  0  0  0  0
    9.9075  -18.9562   28.2217 O   0  0  0  0  0  0  0  0  0  0  0  0
   10.5238  -16.7804   28.0634 O   0  0  0  0  0  0  0  0  0  0  0  0
  1  2  1  0
  3  4  1  6
  3  2  1  0
  5  3  1  0
  5  7  1  0
  5  6  1  1
  7  8  2  0
 10  9  1  0
 11 10  1  0
 12 11  1  0
 13 12  1  1
 14  7  1  0
 14 13  1  0
 15 21  1  0
 15 13  1  0
 16 15  2  0
 18 17  1  6
 18 19  1  0
 20 21  1  6
 20 18  1  0
 22 20  1  0
 22 23  1  0
 24 22  2  0
M  END
$$$$
