IMT.pdb
     RDKit          3D

 24 23  0  0  1  0  0  0  0  0999 V2000
    7.3332  -16.4391   17.0802 C   0  0  0  0  0  0  0  0  0  0  0  0
    7.2791  -15.1031   17.7941 C   0  0  0  0  0  0  0  0  0  0  0  0
    7.6758  -15.1921   19.2211 C   0  0  2  0  0  0  0  0  0  0  0  0
    7.0497  -16.3650   19.9423 C   0  0  0  0  0  0  0  0  0  0  0  0
    7.5666  -13.8977   19.9872 C   0  0  2  0  0  0  0  0  0  0  0  0
    8.3862  -12.8670   19.3020 N   0  0  0  0  0  0  0  0  0  0  0  0
    8.0755  -13.9758   21.3769 C   0  0  0  0  0  0  0  0  0  0  0  0
    9.3057  -14.1726   21.5784 O   0  0  0  0  0  0  0  0  0  0  0  0
    6.1567  -10.8207   26.7000 C   0  0  0  0  0  0  0  0  0  0  0  0
    7.5195  -11.9610   27.0492 S   0  0  0  0  0  0  0  0  0  0  0  0
    7.1211  -13.6107   26.3319 C   0  0  0  0  0  0  0  0  0  0  0  0
    6.7597  -13.4019   24.8939 C   0  0  0  0  0  0  0  0  0  0  0  0
    7.6761  -14.0267   23.8935 C   0  0  2  0  0  0  0  0  0  0  0  0
    7.2573  -13.8391   22.5407 N   0  0  0  0  0  0  0  0  0  0  0  0
    8.1307  -15.3864   24.2513 C   0  0  0  0  0  0  0  0  0  0  0  0
    7.2335  -16.2688   24.2950 O   0  0  0  0  0  0  0  0  0  0  0  0
   10.2625  -17.9349   22.5053 C   0  0  0  0  0  0  0  0  0  0  0  0
   10.8670  -17.7206   23.8821 C   0  0  1  0  0  0  0  0  0  0  0  0
   12.0660  -17.0615   23.8496 O   0  0  0  0  0  0  0  0  0  0  0  0
    9.8461  -17.1522   24.7901 C   0  0  2  0  0  0  0  0  0  0  0  0
    9.4283  -15.8102   24.5506 N   0  0  0  0  0  0  0  0  0  0  0  0
   10.3154  -17.2775   26.1867 C   0  0  0  0  0  0  0  0  0  0  0  0
   10.5734  -18.5121   26.7417 O   0  0  0  0  0  0  0  0  0  0  0  0
   10.4819  -16.2511   26.8781 O   0  0  0  0  0  0  0  0  0  0  0  0
  1  2  1  0
  3  4  1  1
  3  2  1  0
  5  3  1  0
  5  7  1  0
  5  6  1  6
  7  8  2  0
 10  9  1  0
 11 10  1  0
 12 11  1  0
 13 12  1  1
 14  7  1  0
 14 13  1  0
 15 21  1  0
 15 13  1  0
 16 15  2  0
 18 17  1  6
 18 19  1  0
 20 21  1  6
 20 18  1  0
 22 20  1  0
 22 23  1  0
 24 22  2  0
M  END
$$$$
