IMT.pdb
     RDKit          3D

 24 23  0  0  1  0  0  0  0  0999 V2000
    7.4957  -16.4319   17.3363 C   0  0  0  0  0  0  0  0  0  0  0  0
    7.2449  -15.1565   18.1160 C   0  0  0  0  0  0  0  0  0  0  0  0
    7.7427  -15.2233   19.5121 C   0  0  2  0  0  0  0  0  0  0  0  0
    7.3973  -16.5217   20.2070 C   0  0  0  0  0  0  0  0  0  0  0  0
    7.4408  -14.0046   20.3476 C   0  0  2  0  0  0  0  0  0  0  0  0
    7.9643  -12.8047   19.6479 N   0  0  0  0  0  0  0  0  0  0  0  0
    8.0807  -14.0174   21.6843 C   0  0  0  0  0  0  0  0  0  0  0  0
    9.3264  -13.8382   21.7790 O   0  0  0  0  0  0  0  0  0  0  0  0
    7.0813  -11.7011   27.8910 C   0  0  0  0  0  0  0  0  0  0  0  0
    6.0049  -11.5050   26.4479 S   0  0  0  0  0  0  0  0  0  0  0  0
    6.8541  -12.1975   24.9667 C   0  0  0  0  0  0  0  0  0  0  0  0
    7.2097  -13.6192   25.2742 C   0  0  0  0  0  0  0  0  0  0  0  0
    7.9586  -14.3497   24.2081 C   0  0  2  0  0  0  0  0  0  0  0  0
    7.3754  -14.2208   22.9105 N   0  0  0  0  0  0  0  0  0  0  0  0
    8.3948  -15.7079   24.5935 C   0  0  0  0  0  0  0  0  0  0  0  0
    7.4884  -16.5808   24.6384 O   0  0  0  0  0  0  0  0  0  0  0  0
   10.6280  -18.2302   22.8961 C   0  0  0  0  0  0  0  0  0  0  0  0
   11.1549  -18.0452   24.3086 C   0  0  1  0  0  0  0  0  0  0  0  0
   12.3590  -17.3964   24.3559 O   0  0  0  0  0  0  0  0  0  0  0  0
   10.0886  -17.4836   25.1672 C   0  0  2  0  0  0  0  0  0  0  0  0
    9.6840  -16.1394   24.9173 N   0  0  0  0  0  0  0  0  0  0  0  0
   10.4850  -17.6203   26.5852 C   0  0  0  0  0  0  0  0  0  0  0  0
   10.7782  -18.8537   27.1253 O   0  0  0  0  0  0  0  0  0  0  0  0
   10.5565  -16.6051   27.3086 O   0  0  0  0  0  0  0  0  0  0  0  0
  1  2  1  0
  3  4  1  1
  3  2  1  0
  5  3  1  0
  5  7  1  0
  5  6  1  6
  7  8  2  0
 10  9  1  0
 11 10  1  0
 12 11  1  0
 13 12  1  1
 14  7  1  0
 14 13  1  0
 15 21  1  0
 15 13  1  0
 16 15  2  0
 18 17  1  6
 18 19  1  0
 20 21  1  6
 20 18  1  0
 22 20  1  0
 22 23  1  0
 24 22  2  0
M  END
$$$$
