PMK.pdb
     RDKit          3D

 25 25  0  0  1  0  0  0  0  0999 V2000
   17.0439   -9.8457  -16.1941 N   0  0  0  0  0  0  0  0  0  0  0  0
   16.7187  -10.5736  -17.4073 C   0  0  0  0  0  0  0  0  0  0  0  0
   17.3197  -11.9325  -17.1337 C   0  0  0  0  0  0  0  0  0  0  0  0
   17.2104  -12.0641  -15.6299 C   0  0  0  0  0  0  0  0  0  0  0  0
   16.6133  -10.7703  -15.1654 C   0  0  1  0  0  0  0  0  0  0  0  0
   17.0986  -10.3279  -13.8486 C   0  0  0  0  0  0  0  0  0  0  0  0
   16.8858  -11.0373  -12.8384 O   0  0  0  0  0  0  0  0  0  0  0  0
   23.0294   -9.5272  -11.9005 C   0  0  0  0  0  0  0  0  0  0  0  0
   22.2557   -8.4192  -13.1371 S   0  0  0  0  0  0  0  0  0  0  0  0
   20.5260   -8.9379  -13.2894 C   0  0  0  0  0  0  0  0  0  0  0  0
   19.6044   -7.9923  -12.5374 C   0  0  0  0  0  0  0  0  0  0  0  0
   18.2576   -8.6718  -12.4015 C   0  0  2  0  0  0  0  0  0  0  0  0
   17.7982   -9.1241  -13.6950 N   0  0  0  0  0  0  0  0  0  0  0  0
   17.2542   -7.7896  -11.7602 C   0  0  0  0  0  0  0  0  0  0  0  0
   16.6425   -6.9438  -12.4900 O   0  0  0  0  0  0  0  0  0  0  0  0
   16.9268   -7.8171  -10.4025 N   0  0  0  0  0  0  0  0  0  0  0  0
   15.8033   -7.0878   -9.7972 C   0  0  1  0  0  0  0  0  0  0  0  0
   15.4955   -7.6110   -8.4457 C   0  0  0  0  0  0  0  0  0  0  0  0
   14.3742   -6.8691   -7.7956 C   0  0  0  0  0  0  0  0  0  0  0  0
   13.1213   -7.7485   -7.7391 C   0  0  0  0  0  0  0  0  0  0  0  0
   11.9298   -7.0182   -7.1891 C   0  0  0  0  0  0  0  0  0  0  0  0
   10.7401   -7.8504   -7.3028 N   0  0  0  0  0  0  0  0  0  0  0  0
   16.1850   -5.6653   -9.7450 C   0  0  0  0  0  0  0  0  0  0  0  0
   15.2572   -4.7883   -9.6297 O   0  0  0  0  0  0  0  0  0  0  0  0
   17.4687   -5.2034   -9.8076 O   0  0  0  0  0  0  0  0  0  0  0  0
  1  2  1  0
  3  2  1  0
  4  3  1  0
  5  4  1  0
  5  6  1  1
  5  1  1  0
  6  7  2  0
  8  9  1  0
 10  9  1  0
 11 10  1  0
 12 11  1  6
 12 14  1  0
 13  6  1  0
 13 12  1  0
 14 15  2  0
 16 14  1  0
 16 17  1  0
 17 23  1  0
 17 18  1  1
 19 20  1  0
 19 18  1  0
 20 21  1  0
 22 21  1  0
 23 24  2  0
 23 25  1  0
M  END
$$$$
