PMK.pdb
     RDKit          3D

 25 25  0  0  1  0  0  0  0  0999 V2000
   30.6078  -20.5397  -11.0253 N   0  0  0  0  0  0  0  0  0  0  0  0
   31.8432  -20.8369  -11.7272 C   0  0  0  0  0  0  0  0  0  0  0  0
   32.0065  -22.3169  -11.4713 C   0  0  0  0  0  0  0  0  0  0  0  0
   30.5797  -22.8099  -11.3620 C   0  0  0  0  0  0  0  0  0  0  0  0
   29.7291  -21.5847  -11.5098 C   0  0  1  0  0  0  0  0  0  0  0  0
   28.4917  -21.6180  -10.7143 C   0  0  0  0  0  0  0  0  0  0  0  0
   27.5923  -22.4417  -11.0000 O   0  0  0  0  0  0  0  0  0  0  0  0
   28.1061  -19.9040   -4.6052 C   0  0  0  0  0  0  0  0  0  0  0  0
   26.3204  -19.7218   -4.9707 S   0  0  0  0  0  0  0  0  0  0  0  0
   26.0720  -20.3242   -6.6617 C   0  0  0  0  0  0  0  0  0  0  0  0
   27.3246  -20.1299   -7.4998 C   0  0  0  0  0  0  0  0  0  0  0  0
   27.0817  -20.7748   -8.8485 C   0  0  2  0  0  0  0  0  0  0  0  0
   28.2924  -20.7448   -9.6372 N   0  0  0  0  0  0  0  0  0  0  0  0
   25.9591  -20.1351   -9.5744 C   0  0  0  0  0  0  0  0  0  0  0  0
   25.9954  -18.8737   -9.7476 O   0  0  0  0  0  0  0  0  0  0  0  0
   24.8542  -20.8188  -10.0872 N   0  0  0  0  0  0  0  0  0  0  0  0
   23.9345  -20.2832  -11.1008 C   0  0  1  0  0  0  0  0  0  0  0  0
   24.1377  -20.9487  -12.4087 C   0  0  0  0  0  0  0  0  0  0  0  0
   23.1530  -20.4903  -13.4339 C   0  0  0  0  0  0  0  0  0  0  0  0
   23.4085  -21.2006  -14.7667 C   0  0  0  0  0  0  0  0  0  0  0  0
   22.4489  -20.7731  -15.8400 C   0  0  0  0  0  0  0  0  0  0  0  0
   22.6876  -21.5397  -17.0550 N   0  0  0  0  0  0  0  0  0  0  0  0
   22.5643  -20.4950  -10.6009 C   0  0  0  0  0  0  0  0  0  0  0  0
   22.3906  -21.3003   -9.6189 O   0  0  0  0  0  0  0  0  0  0  0  0
   21.4508  -19.8885  -11.1082 O   0  0  0  0  0  0  0  0  0  0  0  0
  1  2  1  0
  3  2  1  0
  4  3  1  0
  5  4  1  0
  5  6  1  1
  5  1  1  0
  6  7  2  0
  8  9  1  0
 10  9  1  0
 11 10  1  0
 12 11  1  1
 12 14  1  0
 13  6  1  0
 13 12  1  0
 14 15  2  0
 16 14  1  0
 16 17  1  0
 17 23  1  0
 17 18  1  6
 19 20  1  0
 19 18  1  0
 20 21  1  0
 22 21  1  0
 23 24  2  0
 23 25  1  0
M  END
$$$$
