PMK.pdb
     RDKit          3D

 25 25  0  0  1  0  0  0  0  0999 V2000
   30.6547  -20.7942  -10.9720 N   0  0  0  0  0  0  0  0  0  0  0  0
   31.8436  -21.1731  -11.7138 C   0  0  0  0  0  0  0  0  0  0  0  0
   32.2268  -22.4780  -11.0559 C   0  0  0  0  0  0  0  0  0  0  0  0
   30.8960  -23.0485  -10.6150 C   0  0  0  0  0  0  0  0  0  0  0  0
   29.8796  -22.0176  -11.0030 C   0  0  1  0  0  0  0  0  0  0  0  0
   28.7420  -21.9226  -10.0747 C   0  0  0  0  0  0  0  0  0  0  0  0
   27.9241  -22.8681   -9.9964 O   0  0  0  0  0  0  0  0  0  0  0  0
   28.8605  -19.9051   -4.1351 C   0  0  0  0  0  0  0  0  0  0  0  0
   27.1989  -19.2412   -4.5272 S   0  0  0  0  0  0  0  0  0  0  0  0
   26.7162  -19.9570   -6.1206 C   0  0  0  0  0  0  0  0  0  0  0  0
   27.8769  -19.9388   -7.1012 C   0  0  0  0  0  0  0  0  0  0  0  0
   27.4488  -20.7028   -8.3369 C   0  0  2  0  0  0  0  0  0  0  0  0
   28.5488  -20.7924   -9.2698 N   0  0  0  0  0  0  0  0  0  0  0  0
   26.2572  -20.0975   -8.9773 C   0  0  0  0  0  0  0  0  0  0  0  0
   26.1731  -18.8270   -9.0127 O   0  0  0  0  0  0  0  0  0  0  0  0
   25.2102  -20.8233   -9.5501 N   0  0  0  0  0  0  0  0  0  0  0  0
   24.3139  -20.3148  -10.5982 C   0  0  1  0  0  0  0  0  0  0  0  0
   24.4698  -21.0873  -11.8527 C   0  0  0  0  0  0  0  0  0  0  0  0
   23.5957  -20.5684  -12.9470 C   0  0  0  0  0  0  0  0  0  0  0  0
   23.8392  -21.3576  -14.2370 C   0  0  0  0  0  0  0  0  0  0  0  0
   23.0946  -20.7872  -15.4099 C   0  0  0  0  0  0  0  0  0  0  0  0
   23.4404  -21.5174  -16.6216 N   0  0  0  0  0  0  0  0  0  0  0  0
   22.9379  -20.4113  -10.0791 C   0  0  0  0  0  0  0  0  0  0  0  0
   21.9779  -19.9801  -10.8110 O   0  0  0  0  0  0  0  0  0  0  0  0
   22.6021  -20.9350   -8.8634 O   0  0  0  0  0  0  0  0  0  0  0  0
  1  2  1  0
  3  2  1  0
  4  3  1  0
  5  4  1  0
  5  6  1  1
  5  1  1  0
  6  7  2  0
  8  9  1  0
 10  9  1  0
 11 10  1  0
 12 11  1  1
 12 14  1  0
 13  6  1  0
 13 12  1  0
 14 15  2  0
 16 14  1  0
 16 17  1  0
 17 23  1  0
 17 18  1  6
 19 20  1  0
 19 18  1  0
 20 21  1  0
 22 21  1  0
 23 24  2  0
 23 25  1  0
M  END
$$$$
