PMK.pdb
     RDKit          3D

 25 25  0  0  1  0  0  0  0  0999 V2000
   27.6143  -19.4766  -14.6529 N   0  0  0  0  0  0  0  0  0  0  0  0
   28.8025  -19.3276  -15.4736 C   0  0  0  0  0  0  0  0  0  0  0  0
   29.4588  -20.6810  -15.3317 C   0  0  0  0  0  0  0  0  0  0  0  0
   28.2856  -21.6172  -15.1370 C   0  0  0  0  0  0  0  0  0  0  0  0
   27.0753  -20.7332  -15.1312 C   0  0  1  0  0  0  0  0  0  0  0  0
   26.0012  -21.1982  -14.2394 C   0  0  0  0  0  0  0  0  0  0  0  0
   25.3272  -22.2064  -14.5529 O   0  0  0  0  0  0  0  0  0  0  0  0
   25.1249  -20.8152   -7.5298 C   0  0  0  0  0  0  0  0  0  0  0  0
   26.6323  -20.7594   -8.5693 S   0  0  0  0  0  0  0  0  0  0  0  0
   26.1450  -21.3216  -10.2218 C   0  0  0  0  0  0  0  0  0  0  0  0
   24.9508  -20.5350  -10.7359 C   0  0  0  0  0  0  0  0  0  0  0  0
   24.6686  -20.9969  -12.1504 C   0  0  2  0  0  0  0  0  0  0  0  0
   25.7111  -20.5367  -13.0392 N   0  0  0  0  0  0  0  0  0  0  0  0
   23.3351  -20.5547  -12.6220 C   0  0  0  0  0  0  0  0  0  0  0  0
   23.2197  -19.3702  -13.0760 O   0  0  0  0  0  0  0  0  0  0  0  0
   22.1851  -21.3474  -12.6053 N   0  0  0  0  0  0  0  0  0  0  0  0
   20.8869  -20.9515  -13.1694 C   0  0  1  0  0  0  0  0  0  0  0  0
   20.2331  -22.0922  -13.8522 C   0  0  0  0  0  0  0  0  0  0  0  0
   18.8466  -21.7626  -14.2992 C   0  0  0  0  0  0  0  0  0  0  0  0
   18.6972  -22.0314  -15.7997 C   0  0  0  0  0  0  0  0  0  0  0  0
   17.3453  -21.6389  -16.3230 C   0  0  0  0  0  0  0  0  0  0  0  0
   17.2840  -21.8630  -17.7606 N   0  0  0  0  0  0  0  0  0  0  0  0
   20.0618  -20.4521  -12.0550 C   0  0  0  0  0  0  0  0  0  0  0  0
   18.9024  -19.9741  -12.3205 O   0  0  0  0  0  0  0  0  0  0  0  0
   20.4412  -20.4626  -10.7432 O   0  0  0  0  0  0  0  0  0  0  0  0
  1  2  1  0
  3  2  1  0
  4  3  1  0
  5  4  1  0
  5  6  1  1
  5  1  1  0
  6  7  2  0
  8  9  1  0
 10  9  1  0
 11 10  1  0
 12 11  1  1
 12 14  1  0
 13  6  1  0
 13 12  1  0
 14 15  2  0
 16 14  1  0
 16 17  1  0
 17 23  1  0
 17 18  1  1
 19 20  1  0
 19 18  1  0
 20 21  1  0
 22 21  1  0
 23 24  2  0
 23 25  1  0
M  END
$$$$
