PMK.pdb
     RDKit          3D

 25 25  0  0  1  0  0  0  0  0999 V2000
   27.6905  -19.0893  -15.4485 N   0  0  0  0  0  0  0  0  0  0  0  0
   28.7743  -18.8145  -16.3743 C   0  0  0  0  0  0  0  0  0  0  0  0
   29.7291  -19.9510  -16.0928 C   0  0  0  0  0  0  0  0  0  0  0  0
   28.8117  -21.0793  -15.6729 C   0  0  0  0  0  0  0  0  0  0  0  0
   27.4326  -20.4929  -15.6972 C   0  0  1  0  0  0  0  0  0  0  0  0
   26.5353  -21.0358  -14.6651 C   0  0  0  0  0  0  0  0  0  0  0  0
   26.0035  -22.1575  -14.8326 O   0  0  0  0  0  0  0  0  0  0  0  0
   26.7020  -19.9812   -8.0061 C   0  0  0  0  0  0  0  0  0  0  0  0
   25.8096  -21.4519   -8.6357 S   0  0  0  0  0  0  0  0  0  0  0  0
   24.8537  -20.9032  -10.0743 C   0  0  0  0  0  0  0  0  0  0  0  0
   25.7557  -20.2667  -11.1185 C   0  0  0  0  0  0  0  0  0  0  0  0
   25.3926  -20.8588  -12.4643 C   0  0  2  0  0  0  0  0  0  0  0  0
   26.2584  -20.3242  -13.4906 N   0  0  0  0  0  0  0  0  0  0  0  0
   23.9672  -20.6343  -12.8020 C   0  0  0  0  0  0  0  0  0  0  0  0
   23.6015  -19.4552  -13.1159 O   0  0  0  0  0  0  0  0  0  0  0  0
   22.9861  -21.6286  -12.8017 N   0  0  0  0  0  0  0  0  0  0  0  0
   21.6077  -21.4451  -13.2777 C   0  0  1  0  0  0  0  0  0  0  0  0
   21.0814  -22.6930  -13.8782 C   0  0  0  0  0  0  0  0  0  0  0  0
   19.6497  -22.5638  -14.2837 C   0  0  0  0  0  0  0  0  0  0  0  0
   19.1500  -23.8808  -14.8854 C   0  0  0  0  0  0  0  0  0  0  0  0
   17.7139  -23.8073  -15.3187 C   0  0  0  0  0  0  0  0  0  0  0  0
   16.8440  -23.7588  -14.1517 N   0  0  0  0  0  0  0  0  0  0  0  0
   20.7986  -21.0275  -12.1187 C   0  0  0  0  0  0  0  0  0  0  0  0
   21.1508  -21.4273  -10.9528 O   0  0  0  0  0  0  0  0  0  0  0  0
   19.6896  -20.2341  -12.1920 O   0  0  0  0  0  0  0  0  0  0  0  0
  1  2  1  0
  3  2  1  0
  4  3  1  0
  5  4  1  0
  5  6  1  1
  5  1  1  0
  6  7  2  0
  8  9  1  0
 10  9  1  0
 11 10  1  0
 12 11  1  1
 12 14  1  0
 13  6  1  0
 13 12  1  0
 14 15  2  0
 16 14  1  0
 16 17  1  0
 17 23  1  0
 17 18  1  1
 19 20  1  0
 19 18  1  0
 20 21  1  0
 22 21  1  0
 23 24  2  0
 23 25  1  0
M  END
$$$$
