PMK.pdb
     RDKit          3D

 25 25  0  0  1  0  0  0  0  0999 V2000
   27.1429  -18.7651  -15.4280 N   0  0  0  0  0  0  0  0  0  0  0  0
   28.2592  -18.1478  -16.1209 C   0  0  0  0  0  0  0  0  0  0  0  0
   29.4389  -18.6079  -15.2968 C   0  0  0  0  0  0  0  0  0  0  0  0
   28.9925  -19.9562  -14.7739 C   0  0  0  0  0  0  0  0  0  0  0  0
   27.5964  -20.1339  -15.2892 C   0  0  1  0  0  0  0  0  0  0  0  0
   26.7120  -20.8722  -14.3738 C   0  0  0  0  0  0  0  0  0  0  0  0
   26.3752  -22.0469  -14.6490 O   0  0  0  0  0  0  0  0  0  0  0  0
   26.2388  -19.7241   -8.1166 C   0  0  0  0  0  0  0  0  0  0  0  0
   25.2737  -21.2787   -8.2029 S   0  0  0  0  0  0  0  0  0  0  0  0
   24.8548  -21.5340   -9.9475 C   0  0  0  0  0  0  0  0  0  0  0  0
   25.7695  -20.7256  -10.8524 C   0  0  0  0  0  0  0  0  0  0  0  0
   25.3707  -21.0115  -12.2853 C   0  0  2  0  0  0  0  0  0  0  0  0
   26.2334  -20.2901  -13.1930 N   0  0  0  0  0  0  0  0  0  0  0  0
   23.9462  -20.6905  -12.5385 C   0  0  0  0  0  0  0  0  0  0  0  0
   23.6037  -19.4644  -12.5800 O   0  0  0  0  0  0  0  0  0  0  0  0
   22.9423  -21.6414  -12.7368 N   0  0  0  0  0  0  0  0  0  0  0  0
   21.5543  -21.3291  -13.1061 C   0  0  1  0  0  0  0  0  0  0  0  0
   20.9296  -22.4593  -13.8323 C   0  0  0  0  0  0  0  0  0  0  0  0
   19.5055  -22.1831  -14.1877 C   0  0  0  0  0  0  0  0  0  0  0  0
   18.8780  -23.4136  -14.8499 C   0  0  0  0  0  0  0  0  0  0  0  0
   17.4592  -23.1748  -15.2805 C   0  0  0  0  0  0  0  0  0  0  0  0
   16.5753  -23.2115  -14.1236 N   0  0  0  0  0  0  0  0  0  0  0  0
   20.8287  -21.0293  -11.8589 C   0  0  0  0  0  0  0  0  0  0  0  0
   21.0833  -21.7355  -10.8198 O   0  0  0  0  0  0  0  0  0  0  0  0
   19.8957  -20.0414  -11.7222 O   0  0  0  0  0  0  0  0  0  0  0  0
  1  2  1  0
  3  2  1  0
  4  3  1  0
  5  4  1  0
  5  6  1  1
  5  1  1  0
  6  7  2  0
  8  9  1  0
 10  9  1  0
 11 10  1  0
 12 11  1  1
 12 14  1  0
 13  6  1  0
 13 12  1  0
 14 15  2  0
 16 14  1  0
 16 17  1  0
 17 23  1  0
 17 18  1  1
 19 20  1  0
 19 18  1  0
 20 21  1  0
 22 21  1  0
 23 24  2  0
 23 25  1  0
M  END
$$$$
