PMK.pdb
     RDKit          3D

 25 25  0  0  1  0  0  0  0  0999 V2000
   27.2124  -18.4639  -16.0647 N   0  0  0  0  0  0  0  0  0  0  0  0
   28.1359  -17.8395  -16.9945 C   0  0  0  0  0  0  0  0  0  0  0  0
   29.4735  -18.3317  -16.4934 C   0  0  0  0  0  0  0  0  0  0  0  0
   29.1470  -19.6888  -15.9082 C   0  0  0  0  0  0  0  0  0  0  0  0
   27.6649  -19.8401  -16.0717 C   0  0  1  0  0  0  0  0  0  0  0  0
   27.0187  -20.5934  -14.9855 C   0  0  0  0  0  0  0  0  0  0  0  0
   27.2569  -21.8158  -14.8507 O   0  0  0  0  0  0  0  0  0  0  0  0
   24.8772  -21.2481   -7.7017 C   0  0  0  0  0  0  0  0  0  0  0  0
   25.8902  -20.3600   -8.9430 S   0  0  0  0  0  0  0  0  0  0  0  0
   25.2728  -20.8605  -10.5717 C   0  0  0  0  0  0  0  0  0  0  0  0
   26.1212  -20.2658  -11.6833 C   0  0  0  0  0  0  0  0  0  0  0  0
   25.5208  -20.7000  -13.0042 C   0  0  2  0  0  0  0  0  0  0  0  0
   26.1367  -19.9733  -14.0911 N   0  0  0  0  0  0  0  0  0  0  0  0
   24.0479  -20.5368  -13.0236 C   0  0  0  0  0  0  0  0  0  0  0  0
   23.5733  -19.3548  -13.0231 O   0  0  0  0  0  0  0  0  0  0  0  0
   23.1334  -21.5925  -13.0425 N   0  0  0  0  0  0  0  0  0  0  0  0
   21.6938  -21.4488  -13.3019 C   0  0  1  0  0  0  0  0  0  0  0  0
   21.0712  -22.7617  -13.5906 C   0  0  0  0  0  0  0  0  0  0  0  0
   19.6067  -22.6448  -13.8592 C   0  0  0  0  0  0  0  0  0  0  0  0
   18.9959  -24.0333  -14.0716 C   0  0  0  0  0  0  0  0  0  0  0  0
   17.5604  -23.9700  -14.5085 C   0  0  0  0  0  0  0  0  0  0  0  0
   17.0624  -25.3119  -14.7771 N   0  0  0  0  0  0  0  0  0  0  0  0
   21.0962  -20.8254  -12.1076 C   0  0  0  0  0  0  0  0  0  0  0  0
   21.6204  -21.0711  -10.9639 O   0  0  0  0  0  0  0  0  0  0  0  0
   20.0143  -19.9923  -12.1262 O   0  0  0  0  0  0  0  0  0  0  0  0
  1  2  1  0
  3  2  1  0
  4  3  1  0
  5  4  1  0
  5  6  1  1
  5  1  1  0
  6  7  2  0
  8  9  1  0
 10  9  1  0
 11 10  1  0
 12 11  1  1
 12 14  1  0
 13  6  1  0
 13 12  1  0
 14 15  2  0
 16 14  1  0
 16 17  1  0
 17 23  1  0
 17 18  1  1
 19 20  1  0
 19 18  1  0
 20 21  1  0
 22 21  1  0
 23 24  2  0
 23 25  1  0
M  END
$$$$
