PMK.pdb
     RDKit          3D

 25 25  0  0  1  0  0  0  0  0999 V2000
   27.7890  -19.1098  -15.2729 N   0  0  0  0  0  0  0  0  0  0  0  0
   28.8764  -18.7728  -16.1736 C   0  0  0  0  0  0  0  0  0  0  0  0
   29.9103  -19.8194  -15.8298 C   0  0  0  0  0  0  0  0  0  0  0  0
   29.0740  -21.0069  -15.4042 C   0  0  0  0  0  0  0  0  0  0  0  0
   27.6535  -20.5361  -15.4872 C   0  0  1  0  0  0  0  0  0  0  0  0
   26.7702  -21.1221  -14.4667 C   0  0  0  0  0  0  0  0  0  0  0  0
   26.3078  -22.2742  -14.6336 O   0  0  0  0  0  0  0  0  0  0  0  0
   27.3151  -20.4922   -8.2155 C   0  0  0  0  0  0  0  0  0  0  0  0
   25.4899  -20.6474   -8.2183 S   0  0  0  0  0  0  0  0  0  0  0  0
   25.0077  -21.0790   -9.9110 C   0  0  0  0  0  0  0  0  0  0  0  0
   26.0047  -20.5320  -10.9189 C   0  0  0  0  0  0  0  0  0  0  0  0
   25.5676  -20.9894  -12.2949 C   0  0  2  0  0  0  0  0  0  0  0  0
   26.4305  -20.4185  -13.3040 N   0  0  0  0  0  0  0  0  0  0  0  0
   24.1475  -20.6610  -12.5628 C   0  0  0  0  0  0  0  0  0  0  0  0
   23.8393  -19.4416  -12.7637 O   0  0  0  0  0  0  0  0  0  0  0  0
   23.1126  -21.5979  -12.6117 N   0  0  0  0  0  0  0  0  0  0  0  0
   21.7629  -21.3286  -13.1273 C   0  0  1  0  0  0  0  0  0  0  0  0
   21.0832  -22.5845  -13.5217 C   0  0  0  0  0  0  0  0  0  0  0  0
   19.6946  -22.3434  -14.0159 C   0  0  0  0  0  0  0  0  0  0  0  0
   19.0251  -23.6721  -14.3800 C   0  0  0  0  0  0  0  0  0  0  0  0
   17.6311  -23.4885  -14.9080 C   0  0  0  0  0  0  0  0  0  0  0  0
   17.1090  -24.7608  -15.3870 N   0  0  0  0  0  0  0  0  0  0  0  0
   21.0206  -20.6316  -12.0618 C   0  0  0  0  0  0  0  0  0  0  0  0
   20.0841  -19.8236  -12.3986 O   0  0  0  0  0  0  0  0  0  0  0  0
   21.2547  -20.7848  -10.7251 O   0  0  0  0  0  0  0  0  0  0  0  0
  1  2  1  0
  3  2  1  0
  4  3  1  0
  5  4  1  0
  5  6  1  1
  5  1  1  0
  6  7  2  0
  8  9  1  0
 10  9  1  0
 11 10  1  0
 12 11  1  1
 12 14  1  0
 13  6  1  0
 13 12  1  0
 14 15  2  0
 16 14  1  0
 16 17  1  0
 17 23  1  0
 17 18  1  1
 19 20  1  0
 19 18  1  0
 20 21  1  0
 22 21  1  0
 23 24  2  0
 23 25  1  0
M  END
$$$$
