PMK.pdb
     RDKit          3D

 25 25  0  0  1  0  0  0  0  0999 V2000
   27.6627  -19.4534  -15.0445 N   0  0  0  0  0  0  0  0  0  0  0  0
   28.8569  -19.3663  -15.8652 C   0  0  0  0  0  0  0  0  0  0  0  0
   29.6398  -20.5784  -15.4174 C   0  0  0  0  0  0  0  0  0  0  0  0
   28.5599  -21.5658  -15.0306 C   0  0  0  0  0  0  0  0  0  0  0  0
   27.2680  -20.8341  -15.2352 C   0  0  1  0  0  0  0  0  0  0  0  0
   26.2163  -21.1999  -14.2733 C   0  0  0  0  0  0  0  0  0  0  0  0
   25.5599  -22.2533  -14.4422 O   0  0  0  0  0  0  0  0  0  0  0  0
   26.6446  -19.4048   -8.3245 C   0  0  0  0  0  0  0  0  0  0  0  0
   25.6866  -20.9589   -8.1736 S   0  0  0  0  0  0  0  0  0  0  0  0
   25.2263  -21.4510   -9.8559 C   0  0  0  0  0  0  0  0  0  0  0  0
   25.3331  -20.2782  -10.8161 C   0  0  0  0  0  0  0  0  0  0  0  0
   24.9289  -20.7692  -12.1907 C   0  0  2  0  0  0  0  0  0  0  0  0
   25.9283  -20.3935  -13.1647 N   0  0  0  0  0  0  0  0  0  0  0  0
   23.5897  -20.2719  -12.5850 C   0  0  0  0  0  0  0  0  0  0  0  0
   23.4808  -19.0537  -12.9408 O   0  0  0  0  0  0  0  0  0  0  0  0
   22.4275  -21.0468  -12.5955 N   0  0  0  0  0  0  0  0  0  0  0  0
   21.1046  -20.5666  -13.0192 C   0  0  1  0  0  0  0  0  0  0  0  0
   20.3145  -21.6578  -13.6355 C   0  0  0  0  0  0  0  0  0  0  0  0
   18.9629  -21.1975  -14.0739 C   0  0  0  0  0  0  0  0  0  0  0  0
   18.1999  -22.3508  -14.7326 C   0  0  0  0  0  0  0  0  0  0  0  0
   16.9109  -21.9037  -15.3605 C   0  0  0  0  0  0  0  0  0  0  0  0
   16.2531  -23.0326  -16.0039 N   0  0  0  0  0  0  0  0  0  0  0  0
   20.4320  -20.0304  -11.8225 C   0  0  0  0  0  0  0  0  0  0  0  0
   20.7759  -20.4845  -10.6741 O   0  0  0  0  0  0  0  0  0  0  0  0
   19.4598  -19.0715  -11.8429 O   0  0  0  0  0  0  0  0  0  0  0  0
  1  2  1  0
  3  2  1  0
  4  3  1  0
  5  4  1  0
  5  6  1  1
  5  1  1  0
  6  7  2  0
  8  9  1  0
 10  9  1  0
 11 10  1  0
 12 11  1  1
 12 14  1  0
 13  6  1  0
 13 12  1  0
 14 15  2  0
 16 14  1  0
 16 17  1  0
 17 23  1  0
 17 18  1  1
 19 20  1  0
 19 18  1  0
 20 21  1  0
 22 21  1  0
 23 24  2  0
 23 25  1  0
M  END
$$$$
