PMK.pdb
     RDKit          3D

 25 25  0  0  1  0  0  0  0  0999 V2000
   27.8378  -19.9368  -15.5268 N   0  0  0  0  0  0  0  0  0  0  0  0
   28.9067  -19.9004  -16.5083 C   0  0  0  0  0  0  0  0  0  0  0  0
   29.6987  -21.1396  -16.1623 C   0  0  0  0  0  0  0  0  0  0  0  0
   28.6478  -22.0823  -15.6170 C   0  0  0  0  0  0  0  0  0  0  0  0
   27.3684  -21.3021  -15.6455 C   0  0  1  0  0  0  0  0  0  0  0  0
   26.4499  -21.6219  -14.5413 C   0  0  0  0  0  0  0  0  0  0  0  0
   25.7335  -22.6474  -14.6072 O   0  0  0  0  0  0  0  0  0  0  0  0
   26.7723  -20.0559   -7.8513 C   0  0  0  0  0  0  0  0  0  0  0  0
   25.7108  -21.4021   -8.4967 S   0  0  0  0  0  0  0  0  0  0  0  0
   24.8844  -20.7502   -9.9720 C   0  0  0  0  0  0  0  0  0  0  0  0
   25.8919  -20.4175  -11.0598 C   0  0  0  0  0  0  0  0  0  0  0  0
   25.4326  -21.0921  -12.3357 C   0  0  2  0  0  0  0  0  0  0  0  0
   26.3555  -20.8021  -13.4094 N   0  0  0  0  0  0  0  0  0  0  0  0
   24.0511  -20.7010  -12.7028 C   0  0  0  0  0  0  0  0  0  0  0  0
   23.8203  -19.4744  -12.9573 O   0  0  0  0  0  0  0  0  0  0  0  0
   22.9735  -21.5855  -12.7912 N   0  0  0  0  0  0  0  0  0  0  0  0
   21.6112  -21.2081  -13.1935 C   0  0  1  0  0  0  0  0  0  0  0  0
   20.9690  -22.2888  -13.9774 C   0  0  0  0  0  0  0  0  0  0  0  0
   21.9183  -22.9320  -14.9344 C   0  0  0  0  0  0  0  0  0  0  0  0
   21.2294  -24.0887  -15.6650 C   0  0  0  0  0  0  0  0  0  0  0  0
   21.5886  -25.4285  -15.0893 C   0  0  0  0  0  0  0  0  0  0  0  0
   20.9183  -26.4857  -15.8336 N   0  0  0  0  0  0  0  0  0  0  0  0
   20.8564  -20.9219  -11.9604 C   0  0  0  0  0  0  0  0  0  0  0  0
   21.3929  -21.2169  -10.8342 O   0  0  0  0  0  0  0  0  0  0  0  0
   19.6141  -20.3559  -11.9247 O   0  0  0  0  0  0  0  0  0  0  0  0
  1  2  1  0
  3  2  1  0
  4  3  1  0
  5  4  1  0
  5  6  1  1
  5  1  1  0
  6  7  2  0
  8  9  1  0
 10  9  1  0
 11 10  1  0
 12 11  1  1
 12 14  1  0
 13  6  1  0
 13 12  1  0
 14 15  2  0
 16 14  1  0
 16 17  1  0
 17 23  1  0
 17 18  1  1
 19 20  1  0
 19 18  1  0
 20 21  1  0
 22 21  1  0
 23 24  2  0
 23 25  1  0
M  END
$$$$
