PMK.pdb
     RDKit          3D

 25 25  0  0  1  0  0  0  0  0999 V2000
   27.6486  -19.3800  -15.3486 N   0  0  0  0  0  0  0  0  0  0  0  0
   28.6528  -19.1786  -16.3774 C   0  0  0  0  0  0  0  0  0  0  0  0
   29.7025  -20.1981  -16.0013 C   0  0  0  0  0  0  0  0  0  0  0  0
   28.8959  -21.3066  -15.3599 C   0  0  0  0  0  0  0  0  0  0  0  0
   27.4789  -20.8185  -15.3730 C   0  0  1  0  0  0  0  0  0  0  0  0
   26.6862  -21.2568  -14.2134 C   0  0  0  0  0  0  0  0  0  0  0  0
   25.9037  -22.2281  -14.3279 O   0  0  0  0  0  0  0  0  0  0  0  0
   27.9459  -20.5766   -7.7613 C   0  0  0  0  0  0  0  0  0  0  0  0
   26.1589  -20.1870   -7.8637 S   0  0  0  0  0  0  0  0  0  0  0  0
   25.5730  -20.8474   -9.4464 C   0  0  0  0  0  0  0  0  0  0  0  0
   26.5661  -20.5582  -10.5597 C   0  0  0  0  0  0  0  0  0  0  0  0
   25.9140  -20.9440  -11.8711 C   0  0  2  0  0  0  0  0  0  0  0  0
   26.7853  -20.6101  -12.9747 N   0  0  0  0  0  0  0  0  0  0  0  0
   24.5833  -20.3126  -12.0351 C   0  0  0  0  0  0  0  0  0  0  0  0
   24.5066  -19.0432  -11.9638 O   0  0  0  0  0  0  0  0  0  0  0  0
   23.3964  -21.0125  -12.2641 N   0  0  0  0  0  0  0  0  0  0  0  0
   22.1377  -20.4018  -12.7147 C   0  0  1  0  0  0  0  0  0  0  0  0
   21.7997  -20.8330  -14.0912 C   0  0  0  0  0  0  0  0  0  0  0  0
   20.5047  -20.2562  -14.5611 C   0  0  0  0  0  0  0  0  0  0  0  0
   20.2211  -20.6970  -16.0004 C   0  0  0  0  0  0  0  0  0  0  0  0
   18.9218  -20.1546  -16.5230 C   0  0  0  0  0  0  0  0  0  0  0  0
   18.6071  -20.7674  -17.8061 N   0  0  0  0  0  0  0  0  0  0  0  0
   21.0916  -20.8032  -11.7573 C   0  0  0  0  0  0  0  0  0  0  0  0
   21.2390  -21.9047  -11.1185 O   0  0  0  0  0  0  0  0  0  0  0  0
   19.9636  -20.0805  -11.4924 O   0  0  0  0  0  0  0  0  0  0  0  0
  1  2  1  0
  3  2  1  0
  4  3  1  0
  5  4  1  0
  5  6  1  1
  5  1  1  0
  6  7  2  0
  8  9  1  0
 10  9  1  0
 11 10  1  0
 12 11  1  1
 12 14  1  0
 13  6  1  0
 13 12  1  0
 14 15  2  0
 16 14  1  0
 16 17  1  0
 17 23  1  0
 17 18  1  6
 19 20  1  0
 19 18  1  0
 20 21  1  0
 22 21  1  0
 23 24  2  0
 23 25  1  0
M  END
$$$$
