PMK.pdb
     RDKit          3D

 25 25  0  0  1  0  0  0  0  0999 V2000
   18.7332  -14.2776  -18.0819 N   0  0  0  0  0  0  0  0  0  0  0  0
   18.3553  -14.9578  -19.3074 C   0  0  0  0  0  0  0  0  0  0  0  0
   17.2705  -14.0568  -19.8497 C   0  0  0  0  0  0  0  0  0  0  0  0
   17.6782  -12.6858  -19.3549 C   0  0  0  0  0  0  0  0  0  0  0  0
   18.9144  -12.9150  -18.5391 C   0  0  1  0  0  0  0  0  0  0  0  0
   19.0475  -12.0063  -17.3895 C   0  0  0  0  0  0  0  0  0  0  0  0
   18.3768  -12.2150  -16.3524 O   0  0  0  0  0  0  0  0  0  0  0  0
   23.3735  -11.0210  -13.2702 C   0  0  0  0  0  0  0  0  0  0  0  0
   23.1274   -9.2624  -13.7202 S   0  0  0  0  0  0  0  0  0  0  0  0
   21.5119   -9.1556  -14.5346 C   0  0  0  0  0  0  0  0  0  0  0  0
   21.4514  -10.0675  -15.7486 C   0  0  0  0  0  0  0  0  0  0  0  0
   20.0434  -10.0042  -16.3032 C   0  0  2  0  0  0  0  0  0  0  0  0
   19.9122  -10.9048  -17.4259 N   0  0  0  0  0  0  0  0  0  0  0  0
   19.6586   -8.6240  -16.6818 C   0  0  0  0  0  0  0  0  0  0  0  0
   20.1429   -8.1370  -17.7546 O   0  0  0  0  0  0  0  0  0  0  0  0
   18.7968   -7.8101  -15.9429 N   0  0  0  0  0  0  0  0  0  0  0  0
   18.4606   -6.4203  -16.2827 C   0  0  1  0  0  0  0  0  0  0  0  0
   17.0811   -6.0870  -15.8575 C   0  0  0  0  0  0  0  0  0  0  0  0
   16.7577   -4.6447  -16.0717 C   0  0  0  0  0  0  0  0  0  0  0  0
   15.3278   -4.3494  -15.6086 C   0  0  0  0  0  0  0  0  0  0  0  0
   14.9372   -2.9155  -15.8252 C   0  0  0  0  0  0  0  0  0  0  0  0
   13.5605   -2.7051  -15.3994 N   0  0  0  0  0  0  0  0  0  0  0  0
   19.4493   -5.5567  -15.6127 C   0  0  0  0  0  0  0  0  0  0  0  0
   19.9436   -5.9473  -14.4963 O   0  0  0  0  0  0  0  0  0  0  0  0
   19.8876   -4.3578  -16.0978 O   0  0  0  0  0  0  0  0  0  0  0  0
  1  2  1  0
  3  2  1  0
  4  3  1  0
  5  4  1  0
  5  6  1  1
  5  1  1  0
  6  7  2  0
  8  9  1  0
 10  9  1  0
 11 10  1  0
 12 11  1  6
 12 14  1  0
 13  6  1  0
 13 12  1  0
 14 15  2  0
 16 14  1  0
 16 17  1  0
 17 23  1  0
 17 18  1  1
 19 20  1  0
 19 18  1  0
 20 21  1  0
 22 21  1  0
 23 24  2  0
 23 25  1  0
M  END
$$$$
