ISV.pdb
     RDKit          3D

 22 21  0  0  1  0  0  0  0  0999 V2000
   25.1539  -13.3243  -17.3233 C   0  0  0  0  0  0  0  0  0  0  0  0
   26.2634  -14.3218  -17.4415 C   0  0  0  0  0  0  0  0  0  0  0  0
   25.9495  -15.6340  -16.7811 C   0  0  2  0  0  0  0  0  0  0  0  0
   25.6187  -15.4068  -15.3213 C   0  0  0  0  0  0  0  0  0  0  0  0
   27.0321  -16.6455  -17.0093 C   0  0  2  0  0  0  0  0  0  0  0  0
   27.0671  -16.8533  -18.4751 N   0  0  0  0  0  0  0  0  0  0  0  0
   26.7525  -17.9584  -16.3747 C   0  0  0  0  0  0  0  0  0  0  0  0
   25.7788  -18.6673  -16.7846 O   0  0  0  0  0  0  0  0  0  0  0  0
   28.0946  -21.9312  -14.2750 O   0  0  0  0  0  0  0  0  0  0  0  0
   28.4709  -20.6743  -14.7157 C   0  0  0  0  0  0  0  0  0  0  0  0
   27.1966  -19.8243  -14.7787 C   0  0  2  0  0  0  0  0  0  0  0  0
   27.5147  -18.5017  -15.3127 N   0  0  0  0  0  0  0  0  0  0  0  0
   26.6929  -19.6688  -13.3925 C   0  0  0  0  0  0  0  0  0  0  0  0
   27.1917  -18.8984  -12.5495 O   0  0  0  0  0  0  0  0  0  0  0  0
   23.2150  -21.9814  -11.9570 C   0  0  0  0  0  0  0  0  0  0  0  0
   23.5979  -20.5986  -11.4677 C   0  0  1  0  0  0  0  0  0  0  0  0
   23.1282  -20.4236  -10.0401 C   0  0  0  0  0  0  0  0  0  0  0  0
   25.0971  -20.3625  -11.5726 C   0  0  2  0  0  0  0  0  0  0  0  0
   25.5576  -20.4319  -12.9373 N   0  0  0  0  0  0  0  0  0  0  0  0
   25.7513  -21.3787  -10.7179 C   0  0  0  0  0  0  0  0  0  0  0  0
   25.8658  -21.2831   -9.3454 O   0  0  0  0  0  0  0  0  0  0  0  0
   26.2342  -22.3951  -11.2765 O   0  0  0  0  0  0  0  0  0  0  0  0
  2  1  1  0
  3  2  1  0
  3  5  1  0
  3  4  1  1
  5  7  1  0
  5  6  1  6
  7 12  1  0
  7  8  2  0
 11 10  1  1
 10  9  1  0
 11 13  1  0
 12 11  1  0
 13 14  2  0
 16 15  1  1
 16 18  1  0
 17 16  1  0
 18 20  1  0
 19 13  1  0
 18 19  1  6
 20 21  1  0
 22 20  2  0
M  END
$$$$
