ISV.pdb
     RDKit          3D

 22 21  0  0  1  0  0  0  0  0999 V2000
   19.4694  -14.3481  -17.8497 C   0  0  0  0  0  0  0  0  0  0  0  0
   18.6067  -13.7266  -16.7963 C   0  0  0  0  0  0  0  0  0  0  0  0
   18.7361  -12.2312  -16.7348 C   0  0  2  0  0  0  0  0  0  0  0  0
   20.1976  -11.8465  -16.6471 C   0  0  0  0  0  0  0  0  0  0  0  0
   17.8859  -11.6428  -15.6493 C   0  0  2  0  0  0  0  0  0  0  0  0
   16.5043  -12.0761  -15.9598 N   0  0  0  0  0  0  0  0  0  0  0  0
   17.8994  -10.1582  -15.6323 C   0  0  0  0  0  0  0  0  0  0  0  0
   17.4873   -9.5079  -16.6451 O   0  0  0  0  0  0  0  0  0  0  0  0
   17.1764   -7.8989  -12.6924 O   0  0  0  0  0  0  0  0  0  0  0  0
   17.2925   -7.2648  -13.9172 C   0  0  0  0  0  0  0  0  0  0  0  0
   18.4591   -7.9316  -14.6552 C   0  0  2  0  0  0  0  0  0  0  0  0
   18.3494   -9.3839  -14.5360 N   0  0  0  0  0  0  0  0  0  0  0  0
   19.7141   -7.4939  -13.9972 C   0  0  0  0  0  0  0  0  0  0  0  0
   20.1387   -7.9588  -12.9217 O   0  0  0  0  0  0  0  0  0  0  0  0
   23.2687   -7.2742  -15.5427 C   0  0  0  0  0  0  0  0  0  0  0  0
   22.8953   -5.9176  -14.9788 C   0  0  1  0  0  0  0  0  0  0  0  0
   22.5237   -4.9876  -16.1129 C   0  0  0  0  0  0  0  0  0  0  0  0
   21.7569   -6.0221  -13.9750 C   0  0  2  0  0  0  0  0  0  0  0  0
   20.5341   -6.4697  -14.5946 N   0  0  0  0  0  0  0  0  0  0  0  0
   21.6052   -4.6846  -13.3592 C   0  0  0  0  0  0  0  0  0  0  0  0
   22.5000   -4.1355  -12.4627 O   0  0  0  0  0  0  0  0  0  0  0  0
   20.5968   -4.0036  -13.6718 O   0  0  0  0  0  0  0  0  0  0  0  0
  2  1  1  0
  3  2  1  0
  3  5  1  0
  3  4  1  1
  5  7  1  0
  5  6  1  6
  7 12  1  0
  7  8  2  0
 11 10  1  1
 10  9  1  0
 11 13  1  0
 12 11  1  0
 13 14  2  0
 16 15  1  6
 16 18  1  0
 17 16  1  0
 18 20  1  0
 19 13  1  0
 18 19  1  6
 20 21  1  0
 22 20  2  0
M  END
$$$$
