ISV.pdb
     RDKit          3D

 22 21  0  0  1  0  0  0  0  0999 V2000
   24.2692  -21.6879   -6.8552 C   0  0  0  0  0  0  0  0  0  0  0  0
   23.7133  -21.0243   -8.0761 C   0  0  0  0  0  0  0  0  0  0  0  0
   24.7194  -20.8885   -9.1833 C   0  0  2  0  0  0  0  0  0  0  0  0
   25.9688  -20.2121   -8.6602 C   0  0  0  0  0  0  0  0  0  0  0  0
   24.1306  -20.2272  -10.3930 C   0  0  2  0  0  0  0  0  0  0  0  0
   22.9268  -21.0235  -10.7239 N   0  0  0  0  0  0  0  0  0  0  0  0
   25.0293  -20.2571  -11.5746 C   0  0  0  0  0  0  0  0  0  0  0  0
   26.0896  -19.5541  -11.5837 O   0  0  0  0  0  0  0  0  0  0  0  0
   24.1261  -22.2692  -15.0165 O   0  0  0  0  0  0  0  0  0  0  0  0
   25.4867  -22.1857  -14.7770 C   0  0  0  0  0  0  0  0  0  0  0  0
   25.7052  -20.9707  -13.8680 C   0  0  2  0  0  0  0  0  0  0  0  0
   24.7892  -21.0371  -12.7313 N   0  0  0  0  0  0  0  0  0  0  0  0
   25.3925  -19.7566  -14.6603 C   0  0  0  0  0  0  0  0  0  0  0  0
   24.2708  -19.2151  -14.6966 O   0  0  0  0  0  0  0  0  0  0  0  0
   26.8517  -16.2424  -14.6706 C   0  0  0  0  0  0  0  0  0  0  0  0
   27.0533  -16.8276  -16.0544 C   0  0  1  0  0  0  0  0  0  0  0  0
   28.4958  -17.2556  -16.2131 C   0  0  0  0  0  0  0  0  0  0  0  0
   26.1148  -17.9972  -16.3103 C   0  0  2  0  0  0  0  0  0  0  0  0
   26.4121  -19.1210  -15.4570 N   0  0  0  0  0  0  0  0  0  0  0  0
   26.2441  -18.3441  -17.7435 C   0  0  0  0  0  0  0  0  0  0  0  0
   26.7641  -19.5344  -18.2114 O   0  0  0  0  0  0  0  0  0  0  0  0
   25.8559  -17.5014  -18.5905 O   0  0  0  0  0  0  0  0  0  0  0  0
  2  1  1  0
  3  2  1  0
  3  5  1  0
  3  4  1  1
  5  7  1  0
  5  6  1  6
  7 12  1  0
  7  8  2  0
 11 10  1  6
 10  9  1  0
 11 13  1  0
 12 11  1  0
 13 14  2  0
 16 15  1  1
 16 18  1  0
 17 16  1  0
 18 20  1  0
 19 13  1  0
 18 19  1  1
 20 21  1  0
 22 20  2  0
M  END
$$$$
