ISV.pdb
     RDKit          3D

 22 21  0  0  1  0  0  0  0  0999 V2000
   16.1628  -15.5855  -14.7570 C   0  0  0  0  0  0  0  0  0  0  0  0
   16.2425  -14.9228  -16.0966 C   0  0  0  0  0  0  0  0  0  0  0  0
   17.1331  -13.7130  -16.1039 C   0  0  2  0  0  0  0  0  0  0  0  0
   16.7278  -12.7717  -14.9896 C   0  0  0  0  0  0  0  0  0  0  0  0
   17.1856  -13.0682  -17.4562 C   0  0  2  0  0  0  0  0  0  0  0  0
   17.5867  -14.1483  -18.3865 N   0  0  0  0  0  0  0  0  0  0  0  0
   18.2013  -11.9895  -17.5535 C   0  0  0  0  0  0  0  0  0  0  0  0
   19.4392  -12.2752  -17.4866 O   0  0  0  0  0  0  0  0  0  0  0  0
   17.2466   -8.0226  -17.9762 O   0  0  0  0  0  0  0  0  0  0  0  0
   18.4526   -8.3866  -18.5497 C   0  0  0  0  0  0  0  0  0  0  0  0
   18.9518   -9.6218  -17.7912 C   0  0  2  0  0  0  0  0  0  0  0  0
   17.8865  -10.6198  -17.7233 N   0  0  0  0  0  0  0  0  0  0  0  0
   19.2908   -9.1939  -16.4123 C   0  0  0  0  0  0  0  0  0  0  0  0
   18.4676   -9.1243  -15.4793 O   0  0  0  0  0  0  0  0  0  0  0  0
   22.3881  -10.4692  -14.2843 C   0  0  0  0  0  0  0  0  0  0  0  0
   22.3717   -8.9542  -14.3354 C   0  0  1  0  0  0  0  0  0  0  0  0
   23.4353   -8.4731  -15.2979 C   0  0  0  0  0  0  0  0  0  0  0  0
   21.0041   -8.4220  -14.7364 C   0  0  2  0  0  0  0  0  0  0  0  0
   20.6423   -8.8237  -16.0732 N   0  0  0  0  0  0  0  0  0  0  0  0
   21.0614   -6.9491  -14.6001 C   0  0  0  0  0  0  0  0  0  0  0  0
   21.0380   -6.0685  -15.6631 O   0  0  0  0  0  0  0  0  0  0  0  0
   21.1361   -6.4676  -13.4421 O   0  0  0  0  0  0  0  0  0  0  0  0
  2  1  1  0
  3  2  1  0
  3  5  1  0
  3  4  1  1
  5  7  1  0
  5  6  1  6
  7 12  1  0
  7  8  2  0
 11 10  1  6
 10  9  1  0
 11 13  1  0
 12 11  1  0
 13 14  2  0
 16 15  1  6
 16 18  1  0
 17 16  1  0
 18 20  1  0
 19 13  1  0
 18 19  1  6
 20 21  1  0
 22 20  2  0
M  END
$$$$
