ISV.pdb
     RDKit          3D

 22 21  0  0  1  0  0  0  0  0999 V2000
   18.1810  -12.0495  -20.3287 C   0  0  0  0  0  0  0  0  0  0  0  0
   19.2235  -12.2489  -19.2735 C   0  0  0  0  0  0  0  0  0  0  0  0
   19.1404  -11.2395  -18.1641 C   0  0  2  0  0  0  0  0  0  0  0  0
   19.1103   -9.8416  -18.7446 C   0  0  0  0  0  0  0  0  0  0  0  0
   20.2133  -11.4494  -17.1384 C   0  0  2  0  0  0  0  0  0  0  0  0
   20.0109  -12.8295  -16.6412 N   0  0  0  0  0  0  0  0  0  0  0  0
   20.1031  -10.5312  -15.9768 C   0  0  0  0  0  0  0  0  0  0  0  0
   19.0577  -10.5471  -15.2519 O   0  0  0  0  0  0  0  0  0  0  0  0
   21.2701   -8.3383  -12.2037 O   0  0  0  0  0  0  0  0  0  0  0  0
   21.4378   -9.2890  -13.1954 C   0  0  0  0  0  0  0  0  0  0  0  0
   20.8823   -8.6849  -14.4903 C   0  0  2  0  0  0  0  0  0  0  0  0
   21.1086   -9.6089  -15.5996 N   0  0  0  0  0  0  0  0  0  0  0  0
   21.6289   -7.4313  -14.7559 C   0  0  0  0  0  0  0  0  0  0  0  0
   22.7916   -7.3911  -15.2027 O   0  0  0  0  0  0  0  0  0  0  0  0
   20.1970   -4.1724  -16.5915 C   0  0  0  0  0  0  0  0  0  0  0  0
   20.7960   -3.8209  -15.2440 C   0  0  1  0  0  0  0  0  0  0  0  0
   19.6830   -3.5677  -14.2508 C   0  0  0  0  0  0  0  0  0  0  0  0
   21.7255   -4.9153  -14.7414 C   0  0  2  0  0  0  0  0  0  0  0  0
   21.0204   -6.1497  -14.4996 N   0  0  0  0  0  0  0  0  0  0  0  0
   22.3695   -4.3988  -13.5127 C   0  0  0  0  0  0  0  0  0  0  0  0
   23.3486   -3.4255  -13.4984 O   0  0  0  0  0  0  0  0  0  0  0  0
   22.0023   -4.8764  -12.4103 O   0  0  0  0  0  0  0  0  0  0  0  0
  2  1  1  0
  3  2  1  0
  3  5  1  0
  3  4  1  6
  5  7  1  0
  5  6  1  1
  7 12  1  0
  7  8  2  0
 11 10  1  1
 10  9  1  0
 11 13  1  0
 12 11  1  0
 13 14  2  0
 16 15  1  6
 16 18  1  0
 17 16  1  0
 18 20  1  0
 19 13  1  0
 18 19  1  1
 20 21  1  0
 22 20  2  0
M  END
$$$$
