ISV.pdb
     RDKit          3D

 22 21  0  0  1  0  0  0  0  0999 V2000
   25.0559  -15.0535  -14.9967 C   0  0  0  0  0  0  0  0  0  0  0  0
   23.7460  -14.8167  -15.6810 C   0  0  0  0  0  0  0  0  0  0  0  0
   23.4641  -13.3621  -15.9279 C   0  0  2  0  0  0  0  0  0  0  0  0
   23.6639  -12.5771  -14.6489 C   0  0  0  0  0  0  0  0  0  0  0  0
   22.1234  -13.1549  -16.5658 C   0  0  2  0  0  0  0  0  0  0  0  0
   22.1394  -13.9947  -17.7853 N   0  0  0  0  0  0  0  0  0  0  0  0
   21.8844  -11.7516  -16.9881 C   0  0  0  0  0  0  0  0  0  0  0  0
   22.6625  -11.2009  -17.8307 O   0  0  0  0  0  0  0  0  0  0  0  0
   18.4050  -10.0126  -16.8439 O   0  0  0  0  0  0  0  0  0  0  0  0
   19.3448   -9.3250  -17.5920 C   0  0  0  0  0  0  0  0  0  0  0  0
   20.7036   -9.5547  -16.9202 C   0  0  2  0  0  0  0  0  0  0  0  0
   20.8183  -10.9525  -16.5099 N   0  0  0  0  0  0  0  0  0  0  0  0
   20.7555   -8.6983  -15.7105 C   0  0  0  0  0  0  0  0  0  0  0  0
   20.4129   -9.0738  -14.5727 O   0  0  0  0  0  0  0  0  0  0  0  0
   21.7282   -4.4221  -16.0111 C   0  0  0  0  0  0  0  0  0  0  0  0
   22.1916   -5.2873  -14.8558 C   0  0  1  0  0  0  0  0  0  0  0  0
   22.2781   -4.4455  -13.6015 C   0  0  0  0  0  0  0  0  0  0  0  0
   21.2681   -6.4771  -14.6413 C   0  0  2  0  0  0  0  0  0  0  0  0
   21.2233   -7.3374  -15.7977 N   0  0  0  0  0  0  0  0  0  0  0  0
   19.9336   -5.9288  -14.3103 C   0  0  0  0  0  0  0  0  0  0  0  0
   19.5665   -5.4796  -13.0575 O   0  0  0  0  0  0  0  0  0  0  0  0
   19.0781   -5.8676  -15.2283 O   0  0  0  0  0  0  0  0  0  0  0  0
  2  1  1  0
  3  2  1  0
  3  5  1  0
  3  4  1  1
  5  7  1  0
  5  6  1  6
  7 12  1  0
  7  8  2  0
 11 10  1  1
 10  9  1  0
 11 13  1  0
 12 11  1  0
 13 14  2  0
 16 15  1  6
 16 18  1  0
 17 16  1  0
 18 20  1  0
 19 13  1  0
 18 19  1  6
 20 21  1  0
 22 20  2  0
M  END
$$$$
