ISV.pdb
     RDKit          3D

 22 21  0  0  1  0  0  0  0  0999 V2000
   22.6962  -12.9199  -17.2560 C   0  0  0  0  0  0  0  0  0  0  0  0
   23.4012  -11.7316  -16.6804 C   0  0  0  0  0  0  0  0  0  0  0  0
   22.4602  -10.6738  -16.1784 C   0  0  2  0  0  0  0  0  0  0  0  0
   21.4331  -10.3542  -17.2436 C   0  0  0  0  0  0  0  0  0  0  0  0
   23.1955   -9.4735  -15.6626 C   0  0  2  0  0  0  0  0  0  0  0  0
   24.0718   -9.9878  -14.5854 N   0  0  0  0  0  0  0  0  0  0  0  0
   22.3019   -8.4488  -15.0659 C   0  0  0  0  0  0  0  0  0  0  0  0
   21.4195   -8.7931  -14.2164 O   0  0  0  0  0  0  0  0  0  0  0  0
   22.6909   -5.6823  -12.7960 O   0  0  0  0  0  0  0  0  0  0  0  0
   22.2537   -5.0772  -13.9614 C   0  0  0  0  0  0  0  0  0  0  0  0
   21.4477   -6.1281  -14.7337 C   0  0  2  0  0  0  0  0  0  0  0  0
   22.3602   -7.0695  -15.3791 N   0  0  0  0  0  0  0  0  0  0  0  0
   20.6762   -5.4187  -15.7829 C   0  0  0  0  0  0  0  0  0  0  0  0
   21.1088   -5.1775  -16.9265 O   0  0  0  0  0  0  0  0  0  0  0  0
   17.4685   -6.3029  -17.4641 C   0  0  0  0  0  0  0  0  0  0  0  0
   17.2498   -4.9518  -16.8123 C   0  0  1  0  0  0  0  0  0  0  0  0
   16.4430   -5.1308  -15.5449 C   0  0  0  0  0  0  0  0  0  0  0  0
   18.5680   -4.2529  -16.5156 C   0  0  2  0  0  0  0  0  0  0  0  0
   19.3364   -4.9565  -15.5186 N   0  0  0  0  0  0  0  0  0  0  0  0
   18.2351   -2.8765  -16.0847 C   0  0  0  0  0  0  0  0  0  0  0  0
   17.8687   -1.8600  -16.9441 O   0  0  0  0  0  0  0  0  0  0  0  0
   18.2892   -2.6147  -14.8572 O   0  0  0  0  0  0  0  0  0  0  0  0
  2  1  1  0
  3  2  1  0
  3  5  1  0
  3  4  1  6
  5  7  1  0
  5  6  1  1
  7 12  1  0
  7  8  2  0
 11 10  1  6
 10  9  1  0
 11 13  1  0
 12 11  1  0
 13 14  2  0
 16 15  1  1
 16 18  1  0
 17 16  1  0
 18 20  1  0
 19 13  1  0
 18 19  1  1
 20 21  1  0
 22 20  2  0
M  END
$$$$
