ISV.pdb
     RDKit          3D

 22 21  0  0  1  0  0  0  0  0999 V2000
   18.8449  -14.8611  -20.1612 C   0  0  0  0  0  0  0  0  0  0  0  0
   20.0279  -14.5159  -19.3118 C   0  0  0  0  0  0  0  0  0  0  0  0
   19.7546  -13.3980  -18.3464 C   0  0  2  0  0  0  0  0  0  0  0  0
   19.1770  -12.2108  -19.0873 C   0  0  0  0  0  0  0  0  0  0  0  0
   20.9602  -13.0702  -17.5178 C   0  0  2  0  0  0  0  0  0  0  0  0
   21.3264  -14.3381  -16.8461 N   0  0  0  0  0  0  0  0  0  0  0  0
   20.6907  -12.0621  -16.4616 C   0  0  0  0  0  0  0  0  0  0  0  0
   19.7562  -12.2579  -15.6207 O   0  0  0  0  0  0  0  0  0  0  0  0
   23.3462   -9.5926  -15.1059 O   0  0  0  0  0  0  0  0  0  0  0  0
   22.1943   -9.6329  -14.3397 C   0  0  0  0  0  0  0  0  0  0  0  0
   21.0270   -9.8781  -15.3029 C   0  0  2  0  0  0  0  0  0  0  0  0
   21.4211  -10.8587  -16.3121 N   0  0  0  0  0  0  0  0  0  0  0  0
   20.7275   -8.5931  -15.9800 C   0  0  0  0  0  0  0  0  0  0  0  0
   21.3324   -8.1753  -16.9863 O   0  0  0  0  0  0  0  0  0  0  0  0
   17.1837   -7.4832  -17.0996 C   0  0  0  0  0  0  0  0  0  0  0  0
   17.8012   -6.3678  -16.2796 C   0  0  1  0  0  0  0  0  0  0  0  0
   17.1684   -6.3457  -14.9054 C   0  0  0  0  0  0  0  0  0  0  0  0
   19.3110   -6.5204  -16.1732 C   0  0  2  0  0  0  0  0  0  0  0  0
   19.6812   -7.7330  -15.4862 N   0  0  0  0  0  0  0  0  0  0  0  0
   19.8148   -5.3160  -15.4756 C   0  0  0  0  0  0  0  0  0  0  0  0
   19.9854   -4.0843  -16.0755 O   0  0  0  0  0  0  0  0  0  0  0  0
   20.1066   -5.4199  -14.2580 O   0  0  0  0  0  0  0  0  0  0  0  0
  2  1  1  0
  3  2  1  0
  3  5  1  0
  3  4  1  6
  5  7  1  0
  5  6  1  1
  7 12  1  0
  7  8  2  0
 11 10  1  1
 10  9  1  0
 11 13  1  0
 12 11  1  0
 13 14  2  0
 16 15  1  6
 16 18  1  0
 17 16  1  0
 18 20  1  0
 19 13  1  0
 18 19  1  1
 20 21  1  0
 22 20  2  0
M  END
$$$$
