ISV.pdb
     RDKit          3D

 22 21  0  0  1  0  0  0  0  0999 V2000
   29.5924  -20.0308  -12.5675 C   0  0  0  0  0  0  0  0  0  0  0  0
   28.5499  -20.6203  -11.6700 C   0  0  0  0  0  0  0  0  0  0  0  0
   27.1775  -20.6205  -12.2809 C   0  0  2  0  0  0  0  0  0  0  0  0
   26.8625  -19.2467  -12.8336 C   0  0  0  0  0  0  0  0  0  0  0  0
   26.1444  -21.1452  -11.3297 C   0  0  2  0  0  0  0  0  0  0  0  0
   26.5221  -22.5560  -11.0852 N   0  0  0  0  0  0  0  0  0  0  0  0
   24.7703  -21.1376  -11.8922 C   0  0  0  0  0  0  0  0  0  0  0  0
   24.4584  -21.9539  -12.8169 O   0  0  0  0  0  0  0  0  0  0  0  0
   20.1223  -20.0627  -11.5406 O   0  0  0  0  0  0  0  0  0  0  0  0
   21.3790  -19.8198  -11.0142 C   0  0  0  0  0  0  0  0  0  0  0  0
   22.3970  -20.3775  -12.0157 C   0  0  2  0  0  0  0  0  0  0  0  0
   23.7443  -20.2626  -11.4615 N   0  0  0  0  0  0  0  0  0  0  0  0
   22.3160  -19.5505  -13.2441 C   0  0  0  0  0  0  0  0  0  0  0  0
   22.7298  -18.3779  -13.3262 O   0  0  0  0  0  0  0  0  0  0  0  0
   23.9297  -19.9521  -16.4353 C   0  0  0  0  0  0  0  0  0  0  0  0
   22.4562  -19.8964  -16.7867 C   0  0  1  0  0  0  0  0  0  0  0  0
   21.9687  -21.2875  -17.1281 C   0  0  0  0  0  0  0  0  0  0  0  0
   21.6323  -19.3015  -15.6546 C   0  0  2  0  0  0  0  0  0  0  0  0
   21.7317  -20.0857  -14.4485 N   0  0  0  0  0  0  0  0  0  0  0  0
   20.2371  -19.2134  -16.1411 C   0  0  0  0  0  0  0  0  0  0  0  0
   19.8226  -18.3895  -17.1686 O   0  0  0  0  0  0  0  0  0  0  0  0
   19.3726  -19.9347  -15.5837 O   0  0  0  0  0  0  0  0  0  0  0  0
  2  1  1  0
  3  2  1  0
  3  5  1  0
  3  4  1  1
  5  7  1  0
  5  6  1  6
  7 12  1  0
  7  8  2  0
 11 10  1  1
 10  9  1  0
 11 13  1  0
 12 11  1  0
 13 14  2  0
 16 15  1  1
 16 18  1  0
 17 16  1  0
 18 20  1  0
 19 13  1  0
 18 19  1  1
 20 21  1  0
 22 20  2  0
M  END
$$$$
