ISV.pdb
     RDKit          3D

 22 21  0  0  1  0  0  0  0  0999 V2000
   25.9815  -20.3507   -8.2013 C   0  0  0  0  0  0  0  0  0  0  0  0
   26.4789  -21.0511   -9.4269 C   0  0  0  0  0  0  0  0  0  0  0  0
   25.5716  -20.8817  -10.6121 C   0  0  2  0  0  0  0  0  0  0  0  0
   24.1536  -21.2476  -10.2283 C   0  0  0  0  0  0  0  0  0  0  0  0
   26.0844  -21.6141  -11.8154 C   0  0  2  0  0  0  0  0  0  0  0  0
   27.4377  -21.0640  -12.0576 N   0  0  0  0  0  0  0  0  0  0  0  0
   25.2755  -21.3752  -13.0374 C   0  0  0  0  0  0  0  0  0  0  0  0
   25.2794  -20.2278  -13.5870 O   0  0  0  0  0  0  0  0  0  0  0  0
   23.4233  -24.3822  -14.9424 O   0  0  0  0  0  0  0  0  0  0  0  0
   23.7270  -23.3254  -15.7829 C   0  0  0  0  0  0  0  0  0  0  0  0
   23.7804  -22.0647  -14.9122 C   0  0  2  0  0  0  0  0  0  0  0  0
   24.4742  -22.3617  -13.6608 N   0  0  0  0  0  0  0  0  0  0  0  0
   22.3835  -21.6761  -14.6007 C   0  0  0  0  0  0  0  0  0  0  0  0
   21.7937  -21.9742  -13.5442 O   0  0  0  0  0  0  0  0  0  0  0  0
   21.0249  -18.6298  -16.7217 C   0  0  0  0  0  0  0  0  0  0  0  0
   19.9169  -19.1514  -15.8282 C   0  0  1  0  0  0  0  0  0  0  0  0
   18.6188  -19.1829  -16.6049 C   0  0  0  0  0  0  0  0  0  0  0  0
   20.2454  -20.5301  -15.2752 C   0  0  2  0  0  0  0  0  0  0  0  0
   21.6119  -20.9045  -15.5429 N   0  0  0  0  0  0  0  0  0  0  0  0
   19.2849  -21.4763  -15.8863 C   0  0  0  0  0  0  0  0  0  0  0  0
   19.5931  -22.3377  -16.9202 O   0  0  0  0  0  0  0  0  0  0  0  0
   18.1124  -21.4980  -15.4357 O   0  0  0  0  0  0  0  0  0  0  0  0
  2  1  1  0
  3  2  1  0
  3  5  1  0
  3  4  1  1
  5  7  1  0
  5  6  1  6
  7 12  1  0
  7  8  2  0
 11 10  1  6
 10  9  1  0
 11 13  1  0
 12 11  1  0
 13 14  2  0
 16 15  1  6
 16 18  1  0
 17 16  1  0
 18 20  1  0
 19 13  1  0
 18 19  1  6
 20 21  1  0
 22 20  2  0
M  END
$$$$
