ISV.pdb
     RDKit          3D

 22 21  0  0  1  0  0  0  0  0999 V2000
   20.1543  -12.2592  -21.3110 C   0  0  0  0  0  0  0  0  0  0  0  0
   20.4190  -12.5148  -19.8603 C   0  0  0  0  0  0  0  0  0  0  0  0
   20.2140  -11.3002  -19.0005 C   0  0  2  0  0  0  0  0  0  0  0  0
   21.0420  -10.1500  -19.5328 C   0  0  0  0  0  0  0  0  0  0  0  0
   20.4482  -11.5983  -17.5501 C   0  0  2  0  0  0  0  0  0  0  0  0
   19.5031  -12.6895  -17.2202 N   0  0  0  0  0  0  0  0  0  0  0  0
   20.1419  -10.4518  -16.6579 C   0  0  0  0  0  0  0  0  0  0  0  0
   19.0178   -9.8623  -16.7448 O   0  0  0  0  0  0  0  0  0  0  0  0
   20.5811   -7.8633  -12.7452 O   0  0  0  0  0  0  0  0  0  0  0  0
   20.9571   -9.0101  -13.4228 C   0  0  0  0  0  0  0  0  0  0  0  0
   20.6890   -8.7564  -14.9108 C   0  0  2  0  0  0  0  0  0  0  0  0
   21.0354   -9.9483  -15.6821 N   0  0  0  0  0  0  0  0  0  0  0  0
   21.5666   -7.6406  -15.3402 C   0  0  0  0  0  0  0  0  0  0  0  0
   22.7640   -7.7753  -15.6581 O   0  0  0  0  0  0  0  0  0  0  0  0
   19.8988   -3.7926  -16.3939 C   0  0  0  0  0  0  0  0  0  0  0  0
   21.2522   -4.3081  -16.8418 C   0  0  1  0  0  0  0  0  0  0  0  0
   22.1466   -3.1370  -17.1853 C   0  0  0  0  0  0  0  0  0  0  0  0
   21.8983   -5.1835  -15.7786 C   0  0  2  0  0  0  0  0  0  0  0  0
   21.0552   -6.2947  -15.4127 N   0  0  0  0  0  0  0  0  0  0  0  0
   22.1884   -4.3074  -14.6212 C   0  0  0  0  0  0  0  0  0  0  0  0
   21.4467   -4.2863  -13.4570 O   0  0  0  0  0  0  0  0  0  0  0  0
   23.1735   -3.5320  -14.7022 O   0  0  0  0  0  0  0  0  0  0  0  0
  2  1  1  0
  3  2  1  0
  3  5  1  0
  3  4  1  6
  5  7  1  0
  5  6  1  1
  7 12  1  0
  7  8  2  0
 11 10  1  1
 10  9  1  0
 11 13  1  0
 12 11  1  0
 13 14  2  0
 16 15  1  1
 16 18  1  0
 17 16  1  0
 18 20  1  0
 19 13  1  0
 18 19  1  1
 20 21  1  0
 22 20  2  0
M  END
$$$$
