ISV.pdb
     RDKit          3D

 22 21  0  0  1  0  0  0  0  0999 V2000
   18.8643   -9.5956  -21.3437 C   0  0  0  0  0  0  0  0  0  0  0  0
   19.2746  -10.0583  -19.9807 C   0  0  0  0  0  0  0  0  0  0  0  0
   20.7443   -9.8909  -19.7188 C   0  0  2  0  0  0  0  0  0  0  0  0
   21.5393  -10.6864  -20.7323 C   0  0  0  0  0  0  0  0  0  0  0  0
   21.0947  -10.1980  -18.2940 C   0  0  2  0  0  0  0  0  0  0  0  0
   20.6274  -11.5851  -18.0692 N   0  0  0  0  0  0  0  0  0  0  0  0
   20.3985   -9.3239  -17.3163 C   0  0  0  0  0  0  0  0  0  0  0  0
   19.2236   -9.6176  -16.9263 O   0  0  0  0  0  0  0  0  0  0  0  0
   20.4075   -8.2189  -13.7413 O   0  0  0  0  0  0  0  0  0  0  0  0
   20.8643   -7.1715  -14.5221 C   0  0  0  0  0  0  0  0  0  0  0  0
   20.1693   -7.2944  -15.8831 C   0  0  2  0  0  0  0  0  0  0  0  0
   20.9627   -8.1490  -16.7639 N   0  0  0  0  0  0  0  0  0  0  0  0
   20.0999   -5.9362  -16.4748 C   0  0  0  0  0  0  0  0  0  0  0  0
   21.0521   -5.3744  -17.0497 O   0  0  0  0  0  0  0  0  0  0  0  0
   16.2937   -3.8358  -16.9115 C   0  0  0  0  0  0  0  0  0  0  0  0
   17.5474   -3.5834  -17.7255 C   0  0  1  0  0  0  0  0  0  0  0  0
   17.5192   -2.1703  -18.2654 C   0  0  0  0  0  0  0  0  0  0  0  0
   18.8058   -3.8193  -16.9038 C   0  0  2  0  0  0  0  0  0  0  0  0
   18.8791   -5.1721  -16.4099 N   0  0  0  0  0  0  0  0  0  0  0  0
   18.7893   -2.8307  -15.8022 C   0  0  0  0  0  0  0  0  0  0  0  0
   19.2783   -1.5437  -15.9052 O   0  0  0  0  0  0  0  0  0  0  0  0
   18.2985   -3.1844  -14.7012 O   0  0  0  0  0  0  0  0  0  0  0  0
  2  1  1  0
  3  2  1  0
  3  5  1  0
  3  4  1  6
  5  7  1  0
  5  6  1  1
  7 12  1  0
  7  8  2  0
 11 10  1  1
 10  9  1  0
 11 13  1  0
 12 11  1  0
 13 14  2  0
 16 15  1  1
 16 18  1  0
 17 16  1  0
 18 20  1  0
 19 13  1  0
 18 19  1  1
 20 21  1  0
 22 20  2  0
M  END
$$$$
