ISV.pdb
     RDKit          3D

 22 21  0  0  1  0  0  0  0  0999 V2000
   28.7952  -19.8419   -7.1145 C   0  0  0  0  0  0  0  0  0  0  0  0
   28.0290  -20.7743   -7.9998 C   0  0  0  0  0  0  0  0  0  0  0  0
   26.9926  -20.0770   -8.8341 C   0  0  2  0  0  0  0  0  0  0  0  0
   26.0843  -19.2568   -7.9429 C   0  0  0  0  0  0  0  0  0  0  0  0
   26.2641  -21.0324   -9.7307 C   0  0  2  0  0  0  0  0  0  0  0  0
   27.3098  -21.9285  -10.2751 N   0  0  0  0  0  0  0  0  0  0  0  0
   25.5974  -20.3681  -10.8790 C   0  0  0  0  0  0  0  0  0  0  0  0
   24.6638  -19.5289  -10.6724 O   0  0  0  0  0  0  0  0  0  0  0  0
   26.0372  -21.7490  -14.5619 O   0  0  0  0  0  0  0  0  0  0  0  0
   25.7284  -20.4038  -14.6643 C   0  0  0  0  0  0  0  0  0  0  0  0
   25.1680  -19.9706  -13.3046 C   0  0  2  0  0  0  0  0  0  0  0  0
   25.9346  -20.6037  -12.2336 N   0  0  0  0  0  0  0  0  0  0  0  0
   23.7643  -20.4429  -13.2278 C   0  0  0  0  0  0  0  0  0  0  0  0
   23.4170  -21.5226  -12.7115 O   0  0  0  0  0  0  0  0  0  0  0  0
   19.2627  -18.6546  -14.1487 C   0  0  0  0  0  0  0  0  0  0  0  0
   20.4705  -18.7461  -13.2371 C   0  0  1  0  0  0  0  0  0  0  0  0
   20.0115  -18.7542  -11.7954 C   0  0  0  0  0  0  0  0  0  0  0  0
   21.3094  -19.9784  -13.5405 C   0  0  2  0  0  0  0  0  0  0  0  0
   22.6933  -19.6432  -13.7682 N   0  0  0  0  0  0  0  0  0  0  0  0
   20.6993  -20.6316  -14.7204 C   0  0  0  0  0  0  0  0  0  0  0  0
   19.6585  -21.5365  -14.6567 O   0  0  0  0  0  0  0  0  0  0  0  0
   21.1574  -20.3448  -15.8545 O   0  0  0  0  0  0  0  0  0  0  0  0
  2  1  1  0
  3  2  1  0
  3  5  1  0
  3  4  1  1
  5  7  1  0
  5  6  1  6
  7 12  1  0
  7  8  2  0
 11 10  1  6
 10  9  1  0
 11 13  1  0
 12 11  1  0
 13 14  2  0
 16 15  1  6
 16 18  1  0
 17 16  1  0
 18 20  1  0
 19 13  1  0
 18 19  1  6
 20 21  1  0
 22 20  2  0
M  END
$$$$
