CWP.pdb
     RDKit          3D

 28 30  0  0  1  0  0  0  0  0999 V2000
    3.6693  -19.6660   22.2229 N   0  0  0  0  0  0  0  0  0  0  0  0
    4.8523  -19.9322   22.9704 C   0  0  1  0  0  0  0  0  0  0  0  0
    5.7296  -20.9729   22.3086 C   0  0  0  0  0  0  0  0  0  0  0  0
    4.9239  -22.5922   22.4363 S   0  0  0  0  0  0  0  0  0  0  0  0
    5.6057  -18.6617   23.2008 C   0  0  0  0  0  0  0  0  0  0  0  0
    5.6593  -17.8352   22.2574 O   0  0  0  0  0  0  0  0  0  0  0  0
    6.2429  -18.3666   24.4114 N   0  0  0  0  0  0  0  0  0  0  0  0
    6.9841  -17.0994   24.5544 C   0  0  1  0  0  0  0  0  0  0  0  0
    6.6527  -16.6422   25.9247 C   0  0  0  0  0  0  0  0  0  0  0  0
    6.9760  -15.2813   26.3312 C   0  0  0  0  0  0  0  0  0  0  0  0
    6.2595  -14.1262   26.1503 C   0  0  0  0  0  0  0  0  0  0  0  0
    6.9250  -13.0856   26.6742 N   0  0  0  0  0  0  0  0  0  0  0  0
    8.0677  -13.5183   27.2003 C   0  0  0  0  0  0  0  0  0  0  0  0
    9.0717  -12.8338   27.8669 C   0  0  0  0  0  0  0  0  0  0  0  0
   10.1368  -13.5698   28.3271 C   0  0  0  0  0  0  0  0  0  0  0  0
   10.2489  -14.9349   28.1569 C   0  0  0  0  0  0  0  0  0  0  0  0
    9.2066  -15.5734   27.4758 C   0  0  0  0  0  0  0  0  0  0  0  0
    8.1300  -14.8799   27.0030 C   0  0  0  0  0  0  0  0  0  0  0  0
    8.3732  -17.2391   24.1673 C   0  0  0  0  0  0  0  0  0  0  0  0
    8.9889  -18.3518   24.2816 O   0  0  0  0  0  0  0  0  0  0  0  0
    9.1673  -16.1637   23.6160 N   0  0  0  0  0  0  0  0  0  0  0  0
    8.8780  -14.7469   23.6533 C   0  0  0  0  0  0  0  0  0  0  0  0
    9.1857  -14.2657   22.2376 C   0  0  0  0  0  0  0  0  0  0  0  0
    9.9835  -15.4153   21.6268 C   0  0  0  0  0  0  0  0  0  0  0  0
   10.3779  -16.2815   22.8453 C   0  0  1  0  0  0  0  0  0  0  0  0
   11.5473  -15.6326   23.4214 C   0  0  0  0  0  0  0  0  0  0  0  0
   11.4442  -14.9476   24.4922 O   0  0  0  0  0  0  0  0  0  0  0  0
   12.8250  -15.6881   22.8969 O   0  0  0  0  0  0  0  0  0  0  0  0
  2  5  1  0
  2  1  1  6
  3  2  1  0
  4  3  1  0
  5  6  2  0
  7  8  1  0
  7  5  1  0
  9 10  1  0
  8  9  1  1
 10 18  1  0
 11 10  2  0
 11 12  1  0
 12 13  1  0
 13 14  1  0
 14 15  2  0
 16 15  1  0
 17 16  2  0
 18 13  2  0
 18 17  1  0
 19 20  2  0
 19  8  1  0
 21 19  1  0
 22 21  1  0
 23 22  1  0
 24 25  1  0
 24 23  1  0
 25 21  1  0
 25 26  1  1
 26 28  1  0
 27 26  2  0
M  END
$$$$
