CWP.pdb
     RDKit          3D

 28 30  0  0  1  0  0  0  0  0999 V2000
   11.0397  -18.1287   20.6029 N   0  0  0  0  0  0  0  0  0  0  0  0
   11.9541  -17.0834   20.9199 C   0  0  1  0  0  0  0  0  0  0  0  0
   12.2372  -16.1868   19.7338 C   0  0  0  0  0  0  0  0  0  0  0  0
   10.6825  -15.4412   19.1728 S   0  0  0  0  0  0  0  0  0  0  0  0
   11.4418  -16.2933   22.0809 C   0  0  0  0  0  0  0  0  0  0  0  0
   12.2197  -15.4623   22.6105 O   0  0  0  0  0  0  0  0  0  0  0  0
   10.1470  -16.4453   22.5896 N   0  0  0  0  0  0  0  0  0  0  0  0
    9.7541  -15.7173   23.8108 C   0  0  1  0  0  0  0  0  0  0  0  0
    8.3173  -15.4180   23.6038 C   0  0  0  0  0  0  0  0  0  0  0  0
    7.4892  -15.0277   24.7369 C   0  0  0  0  0  0  0  0  0  0  0  0
    6.7913  -15.8153   25.6161 C   0  0  0  0  0  0  0  0  0  0  0  0
    6.1506  -15.0484   26.5114 N   0  0  0  0  0  0  0  0  0  0  0  0
    6.4041  -13.7687   26.2511 C   0  0  0  0  0  0  0  0  0  0  0  0
    5.9930  -12.6159   26.9014 C   0  0  0  0  0  0  0  0  0  0  0  0
    6.4482  -11.4177   26.4064 C   0  0  0  0  0  0  0  0  0  0  0  0
    7.2804  -11.3139   25.3101 C   0  0  0  0  0  0  0  0  0  0  0  0
    7.6624  -12.5100   24.6927 C   0  0  0  0  0  0  0  0  0  0  0  0
    7.2336  -13.7217   25.1527 C   0  0  0  0  0  0  0  0  0  0  0  0
   10.1702  -16.4125   25.0118 C   0  0  0  0  0  0  0  0  0  0  0  0
   10.7275  -17.5601   24.9592 O   0  0  0  0  0  0  0  0  0  0  0  0
   10.0112  -15.8795   26.3466 N   0  0  0  0  0  0  0  0  0  0  0  0
    9.2630  -14.7065   26.7429 C   0  0  0  0  0  0  0  0  0  0  0  0
   10.1878  -13.9869   27.7212 C   0  0  0  0  0  0  0  0  0  0  0  0
   11.2414  -15.0365   28.0668 C   0  0  0  0  0  0  0  0  0  0  0  0
   10.6275  -16.3604   27.5557 C   0  0  1  0  0  0  0  0  0  0  0  0
    9.7036  -16.7878   28.5970 C   0  0  0  0  0  0  0  0  0  0  0  0
   10.1206  -17.0001   29.7834 O   0  0  0  0  0  0  0  0  0  0  0  0
    8.3489  -16.9970   28.4193 O   0  0  0  0  0  0  0  0  0  0  0  0
  2  5  1  0
  2  1  1  6
  3  2  1  0
  4  3  1  0
  5  6  2  0
  7  8  1  0
  7  5  1  0
  9 10  1  0
  8  9  1  1
 10 18  1  0
 11 10  2  0
 11 12  1  0
 12 13  1  0
 13 14  1  0
 14 15  2  0
 16 15  1  0
 17 16  2  0
 18 13  2  0
 18 17  1  0
 19 20  2  0
 19  8  1  0
 21 19  1  0
 22 21  1  0
 23 22  1  0
 24 25  1  0
 24 23  1  0
 25 21  1  0
 25 26  1  1
 26 28  1  0
 27 26  2  0
M  END
$$$$
