CWP.pdb
     RDKit          3D

 28 30  0  0  1  0  0  0  0  0999 V2000
    9.0178  -16.3674   17.6342 N   0  0  0  0  0  0  0  0  0  0  0  0
    8.5617  -17.2249   18.6762 C   0  0  1  0  0  0  0  0  0  0  0  0
    9.1812  -18.6037   18.5997 C   0  0  0  0  0  0  0  0  0  0  0  0
    9.7619  -18.8972   16.9073 S   0  0  0  0  0  0  0  0  0  0  0  0
    8.8201  -16.5925   20.0059 C   0  0  0  0  0  0  0  0  0  0  0  0
    9.9647  -16.1214   20.2160 O   0  0  0  0  0  0  0  0  0  0  0  0
    7.8467  -16.5087   21.0079 N   0  0  0  0  0  0  0  0  0  0  0  0
    8.2220  -16.0229   22.3492 C   0  0  1  0  0  0  0  0  0  0  0  0
    6.9745  -15.4193   22.8745 C   0  0  0  0  0  0  0  0  0  0  0  0
    6.8466  -15.1482   24.3000 C   0  0  0  0  0  0  0  0  0  0  0  0
    6.4211  -15.9752   25.3077 C   0  0  0  0  0  0  0  0  0  0  0  0
    6.4488  -15.3232   26.4800 N   0  0  0  0  0  0  0  0  0  0  0  0
    6.8825  -14.0817   26.2790 C   0  0  0  0  0  0  0  0  0  0  0  0
    7.1018  -13.0456   27.1730 C   0  0  0  0  0  0  0  0  0  0  0  0
    7.5879  -11.8661   26.6625 C   0  0  0  0  0  0  0  0  0  0  0  0
    7.8613  -11.6716   25.3237 C   0  0  0  0  0  0  0  0  0  0  0  0
    7.6201  -12.7515   24.4672 C   0  0  0  0  0  0  0  0  0  0  0  0
    7.1382  -13.9407   24.9331 C   0  0  0  0  0  0  0  0  0  0  0  0
    8.8999  -17.0428   23.1232 C   0  0  0  0  0  0  0  0  0  0  0  0
    8.7256  -18.2854   22.8873 O   0  0  0  0  0  0  0  0  0  0  0  0
    9.8245  -16.7563   24.1975 N   0  0  0  0  0  0  0  0  0  0  0  0
   10.2358  -15.4569   24.6824 C   0  0  0  0  0  0  0  0  0  0  0  0
   11.7478  -15.5826   24.8502 C   0  0  0  0  0  0  0  0  0  0  0  0
   11.9981  -17.0875   24.7886 C   0  0  0  0  0  0  0  0  0  0  0  0
   10.5911  -17.7047   24.9630 C   0  0  1  0  0  0  0  0  0  0  0  0
   10.3379  -17.6960   26.3970 C   0  0  0  0  0  0  0  0  0  0  0  0
    9.5296  -16.8503   26.9052 O   0  0  0  0  0  0  0  0  0  0  0  0
   10.9155  -18.5578   27.3104 O   0  0  0  0  0  0  0  0  0  0  0  0
  2  5  1  0
  2  1  1  6
  3  2  1  0
  4  3  1  0
  5  6  2  0
  7  8  1  0
  7  5  1  0
  9 10  1  0
  8  9  1  1
 10 18  1  0
 11 10  2  0
 11 12  1  0
 12 13  1  0
 13 14  1  0
 14 15  2  0
 16 15  1  0
 17 16  2  0
 18 13  2  0
 18 17  1  0
 19 20  2  0
 19  8  1  0
 21 19  1  0
 22 21  1  0
 23 22  1  0
 24 25  1  0
 24 23  1  0
 25 21  1  0
 25 26  1  1
 26 28  1  0
 27 26  2  0
M  END
$$$$
