CWP.pdb
     RDKit          3D

 28 30  0  0  1  0  0  0  0  0999 V2000
   10.0299  -16.1783   18.0040 N   0  0  0  0  0  0  0  0  0  0  0  0
    9.6049  -17.1219   18.9829 C   0  0  1  0  0  0  0  0  0  0  0  0
   10.4168  -18.3986   18.9426 C   0  0  0  0  0  0  0  0  0  0  0  0
    9.8012  -19.5304   20.2184 S   0  0  0  0  0  0  0  0  0  0  0  0
    9.6478  -16.5002   20.3418 C   0  0  0  0  0  0  0  0  0  0  0  0
   10.6580  -15.8169   20.6397 O   0  0  0  0  0  0  0  0  0  0  0  0
    8.6183  -16.6509   21.2777 N   0  0  0  0  0  0  0  0  0  0  0  0
    8.7595  -16.0525   22.6185 C   0  0  1  0  0  0  0  0  0  0  0  0
    7.4533  -15.3942   22.8572 C   0  0  0  0  0  0  0  0  0  0  0  0
    7.0755  -15.0057   24.2094 C   0  0  0  0  0  0  0  0  0  0  0  0
    6.5713  -15.7750   25.2264 C   0  0  0  0  0  0  0  0  0  0  0  0
    6.3524  -15.0166   26.3114 N   0  0  0  0  0  0  0  0  0  0  0  0
    6.6984  -13.7604   26.0431 C   0  0  0  0  0  0  0  0  0  0  0  0
    6.6774  -12.6275   26.8412 C   0  0  0  0  0  0  0  0  0  0  0  0
    7.1300  -11.4562   26.2833 C   0  0  0  0  0  0  0  0  0  0  0  0
    7.5948  -11.3601   24.9872 C   0  0  0  0  0  0  0  0  0  0  0  0
    7.5921  -12.5352   24.2275 C   0  0  0  0  0  0  0  0  0  0  0  0
    7.1518  -13.7200   24.7432 C   0  0  0  0  0  0  0  0  0  0  0  0
    9.2630  -17.0064   23.5857 C   0  0  0  0  0  0  0  0  0  0  0  0
    9.0887  -18.2625   23.4370 O   0  0  0  0  0  0  0  0  0  0  0  0
   10.0033  -16.6360   24.7714 N   0  0  0  0  0  0  0  0  0  0  0  0
   10.3155  -15.3013   25.2334 C   0  0  0  0  0  0  0  0  0  0  0  0
   11.7840  -15.3819   25.6425 C   0  0  0  0  0  0  0  0  0  0  0  0
   12.0612  -16.8817   25.7136 C   0  0  0  0  0  0  0  0  0  0  0  0
   10.6529  -17.5199   25.7042 C   0  0  1  0  0  0  0  0  0  0  0  0
   10.1774  -17.4326   27.0778 C   0  0  0  0  0  0  0  0  0  0  0  0
   10.6559  -18.2000   27.9771 O   0  0  0  0  0  0  0  0  0  0  0  0
    9.2091  -16.5552   27.5284 O   0  0  0  0  0  0  0  0  0  0  0  0
  2  5  1  0
  2  1  1  6
  3  2  1  0
  4  3  1  0
  5  6  2  0
  7  8  1  0
  7  5  1  0
  9 10  1  0
  8  9  1  1
 10 18  1  0
 11 10  2  0
 11 12  1  0
 12 13  1  0
 13 14  1  0
 14 15  2  0
 16 15  1  0
 17 16  2  0
 18 13  2  0
 18 17  1  0
 19 20  2  0
 19  8  1  0
 21 19  1  0
 22 21  1  0
 23 22  1  0
 24 25  1  0
 24 23  1  0
 25 21  1  0
 25 26  1  1
 26 28  1  0
 27 26  2  0
M  END
$$$$
