CWP.pdb
     RDKit          3D

 28 30  0  0  1  0  0  0  0  0999 V2000
    8.0926  -13.1060   17.8733 N   0  0  0  0  0  0  0  0  0  0  0  0
    8.2618  -14.4379   18.3493 C   0  0  1  0  0  0  0  0  0  0  0  0
    9.3616  -15.1758   17.6167 C   0  0  0  0  0  0  0  0  0  0  0  0
    9.0206  -15.1278   15.8365 S   0  0  0  0  0  0  0  0  0  0  0  0
    8.5129  -14.4240   19.8229 C   0  0  0  0  0  0  0  0  0  0  0  0
    9.4077  -13.6570   20.2556 O   0  0  0  0  0  0  0  0  0  0  0  0
    7.7974  -15.2229   20.7219 N   0  0  0  0  0  0  0  0  0  0  0  0
    8.1091  -15.1574   22.1622 C   0  0  1  0  0  0  0  0  0  0  0  0
    6.8153  -14.8059   22.7940 C   0  0  0  0  0  0  0  0  0  0  0  0
    6.7015  -14.7849   24.2460 C   0  0  0  0  0  0  0  0  0  0  0  0
    6.3881  -15.8038   25.1086 C   0  0  0  0  0  0  0  0  0  0  0  0
    6.3844  -15.3520   26.3719 N   0  0  0  0  0  0  0  0  0  0  0  0
    6.6878  -14.0567   26.3732 C   0  0  0  0  0  0  0  0  0  0  0  0
    6.8289  -13.1630   27.4231 C   0  0  0  0  0  0  0  0  0  0  0  0
    7.1818  -11.8729   27.1083 C   0  0  0  0  0  0  0  0  0  0  0  0
    7.3969  -11.4362   25.8168 C   0  0  0  0  0  0  0  0  0  0  0  0
    7.2392  -12.3812   24.7969 C   0  0  0  0  0  0  0  0  0  0  0  0
    6.8903  -13.6732   25.0660 C   0  0  0  0  0  0  0  0  0  0  0  0
    8.8256  -16.3327   22.6140 C   0  0  0  0  0  0  0  0  0  0  0  0
    8.7366  -17.4467   21.9965 O   0  0  0  0  0  0  0  0  0  0  0  0
    9.6972  -16.3501   23.7677 N   0  0  0  0  0  0  0  0  0  0  0  0
   10.1229  -15.2219   24.5667 C   0  0  0  0  0  0  0  0  0  0  0  0
   11.6183  -15.4517   24.7703 C   0  0  0  0  0  0  0  0  0  0  0  0
   11.8222  -16.9093   24.3639 C   0  0  0  0  0  0  0  0  0  0  0  0
   10.3882  -17.4860   24.3203 C   0  0  1  0  0  0  0  0  0  0  0  0
   10.0552  -17.8047   25.7017 C   0  0  0  0  0  0  0  0  0  0  0  0
   10.8843  -17.5593   26.6392 O   0  0  0  0  0  0  0  0  0  0  0  0
    8.8682  -18.3758   26.1207 O   0  0  0  0  0  0  0  0  0  0  0  0
  2  5  1  0
  2  1  1  6
  3  2  1  0
  4  3  1  0
  5  6  2  0
  7  8  1  0
  7  5  1  0
  9 10  1  0
  8  9  1  1
 10 18  1  0
 11 10  2  0
 11 12  1  0
 12 13  1  0
 13 14  1  0
 14 15  2  0
 16 15  1  0
 17 16  2  0
 18 13  2  0
 18 17  1  0
 19 20  2  0
 19  8  1  0
 21 19  1  0
 22 21  1  0
 23 22  1  0
 24 25  1  0
 24 23  1  0
 25 21  1  0
 25 26  1  1
 26 28  1  0
 27 26  2  0
M  END
$$$$
