CWP.pdb
     RDKit          3D

 28 30  0  0  1  0  0  0  0  0999 V2000
   11.6341  -15.5565   19.8147 N   0  0  0  0  0  0  0  0  0  0  0  0
   11.3610  -16.5172   20.8304 C   0  0  1  0  0  0  0  0  0  0  0  0
   12.5652  -17.3774   21.1480 C   0  0  0  0  0  0  0  0  0  0  0  0
   12.0438  -18.7569   22.2030 S   0  0  0  0  0  0  0  0  0  0  0  0
   10.8521  -15.8308   22.0571 C   0  0  0  0  0  0  0  0  0  0  0  0
   11.5435  -14.8972   22.5332 O   0  0  0  0  0  0  0  0  0  0  0  0
    9.6520  -16.1867   22.6827 N   0  0  0  0  0  0  0  0  0  0  0  0
    9.3200  -15.6140   24.0009 C   0  0  1  0  0  0  0  0  0  0  0  0
    7.8773  -15.9099   24.1679 C   0  0  0  0  0  0  0  0  0  0  0  0
    7.0561  -15.0525   25.0119 C   0  0  0  0  0  0  0  0  0  0  0  0
    6.0666  -15.3945   25.8974 C   0  0  0  0  0  0  0  0  0  0  0  0
    5.5565  -14.2912   26.4655 N   0  0  0  0  0  0  0  0  0  0  0  0
    6.1817  -13.2216   25.9808 C   0  0  0  0  0  0  0  0  0  0  0  0
    6.0267  -11.8755   26.2719 C   0  0  0  0  0  0  0  0  0  0  0  0
    6.8505  -10.9913   25.6181 C   0  0  0  0  0  0  0  0  0  0  0  0
    7.8068  -11.3776   24.7009 C   0  0  0  0  0  0  0  0  0  0  0  0
    7.9182  -12.7489   24.4455 C   0  0  0  0  0  0  0  0  0  0  0  0
    7.1201  -13.6611   25.0736 C   0  0  0  0  0  0  0  0  0  0  0  0
   10.2557  -16.0344   25.0239 C   0  0  0  0  0  0  0  0  0  0  0  0
   11.3016  -16.7076   24.7355 O   0  0  0  0  0  0  0  0  0  0  0  0
   10.1046  -15.7264   26.4287 N   0  0  0  0  0  0  0  0  0  0  0  0
    9.0646  -14.9358   27.0499 C   0  0  0  0  0  0  0  0  0  0  0  0
    9.8139  -14.0387   28.0317 C   0  0  0  0  0  0  0  0  0  0  0  0
   11.1953  -14.6812   28.1320 C   0  0  0  0  0  0  0  0  0  0  0  0
   11.0011  -16.0785   27.4990 C   0  0  1  0  0  0  0  0  0  0  0  0
   10.4216  -16.9039   28.5494 C   0  0  0  0  0  0  0  0  0  0  0  0
    9.2105  -17.2957   28.4691 O   0  0  0  0  0  0  0  0  0  0  0  0
   11.0876  -17.3282   29.6839 O   0  0  0  0  0  0  0  0  0  0  0  0
  2  5  1  0
  2  1  1  6
  3  2  1  0
  4  3  1  0
  5  6  2  0
  7  8  1  0
  7  5  1  0
  9 10  1  0
  8  9  1  1
 10 18  1  0
 11 10  2  0
 11 12  1  0
 12 13  1  0
 13 14  1  0
 14 15  2  0
 16 15  1  0
 17 16  2  0
 18 13  2  0
 18 17  1  0
 19 20  2  0
 19  8  1  0
 21 19  1  0
 22 21  1  0
 23 22  1  0
 24 25  1  0
 24 23  1  0
 25 21  1  0
 25 26  1  1
 26 28  1  0
 27 26  2  0
M  END
$$$$
