CWP.pdb
     RDKit          3D

 28 30  0  0  1  0  0  0  0  0999 V2000
    4.1312  -20.4134   23.5014 N   0  0  0  0  0  0  0  0  0  0  0  0
    5.5081  -20.2958   23.8470 C   0  0  1  0  0  0  0  0  0  0  0  0
    6.3747  -21.2908   23.1056 C   0  0  0  0  0  0  0  0  0  0  0  0
    5.4103  -22.7933   22.7892 S   0  0  0  0  0  0  0  0  0  0  0  0
    5.9747  -18.8954   23.6104 C   0  0  0  0  0  0  0  0  0  0  0  0
    5.4041  -18.2342   22.7085 O   0  0  0  0  0  0  0  0  0  0  0  0
    7.0082  -18.3056   24.3470 N   0  0  0  0  0  0  0  0  0  0  0  0
    7.5420  -16.9946   23.9322 C   0  0  1  0  0  0  0  0  0  0  0  0
    7.9072  -16.3355   25.2084 C   0  0  0  0  0  0  0  0  0  0  0  0
    7.0059  -15.3563   25.8006 C   0  0  0  0  0  0  0  0  0  0  0  0
    5.7232  -15.5193   26.2572 C   0  0  0  0  0  0  0  0  0  0  0  0
    5.2489  -14.3534   26.7217 N   0  0  0  0  0  0  0  0  0  0  0  0
    6.1837  -13.4167   26.5863 C   0  0  0  0  0  0  0  0  0  0  0  0
    6.1764  -12.0758   26.9367 C   0  0  0  0  0  0  0  0  0  0  0  0
    7.3208  -11.3553   26.6930 C   0  0  0  0  0  0  0  0  0  0  0  0
    8.4553  -11.8981   26.1245 C   0  0  0  0  0  0  0  0  0  0  0  0
    8.4055  -13.2559   25.7900 C   0  0  0  0  0  0  0  0  0  0  0  0
    7.2889  -14.0081   26.0158 C   0  0  0  0  0  0  0  0  0  0  0  0
    8.5371  -17.1224   22.8870 C   0  0  0  0  0  0  0  0  0  0  0  0
    9.0450  -18.2541   22.5842 O   0  0  0  0  0  0  0  0  0  0  0  0
    9.0248  -16.0119   22.0997 N   0  0  0  0  0  0  0  0  0  0  0  0
    8.6996  -14.6111   22.2568 C   0  0  0  0  0  0  0  0  0  0  0  0
    8.4511  -14.1236   20.8318 C   0  0  0  0  0  0  0  0  0  0  0  0
    9.0293  -15.2353   19.9595 C   0  0  0  0  0  0  0  0  0  0  0  0
    9.8792  -16.0735   20.9424 C   0  0  1  0  0  0  0  0  0  0  0  0
   11.1446  -15.3634   21.0653 C   0  0  0  0  0  0  0  0  0  0  0  0
   11.9375  -15.2792   20.0699 O   0  0  0  0  0  0  0  0  0  0  0  0
   11.5958  -14.7381   22.2124 O   0  0  0  0  0  0  0  0  0  0  0  0
  2  5  1  0
  2  1  1  6
  3  2  1  0
  4  3  1  0
  5  6  2  0
  7  8  1  0
  7  5  1  0
  9 10  1  0
  8  9  1  1
 10 18  1  0
 11 10  2  0
 11 12  1  0
 12 13  1  0
 13 14  1  0
 14 15  2  0
 16 15  1  0
 17 16  2  0
 18 13  2  0
 18 17  1  0
 19 20  2  0
 19  8  1  0
 21 19  1  0
 22 21  1  0
 23 22  1  0
 24 25  1  0
 24 23  1  0
 25 21  1  0
 25 26  1  1
 26 28  1  0
 27 26  2  0
M  END
$$$$
