CWP.pdb
     RDKit          3D

 28 30  0  0  1  0  0  0  0  0999 V2000
   11.3242  -15.9528   20.2664 N   0  0  0  0  0  0  0  0  0  0  0  0
   10.8189  -16.9120   21.1905 C   0  0  1  0  0  0  0  0  0  0  0  0
   11.7153  -18.1258   21.3083 C   0  0  0  0  0  0  0  0  0  0  0  0
   13.3614  -17.5937   21.8513 S   0  0  0  0  0  0  0  0  0  0  0  0
   10.6042  -16.2707   22.5237 C   0  0  0  0  0  0  0  0  0  0  0  0
   11.2828  -15.2505   22.7970 O   0  0  0  0  0  0  0  0  0  0  0  0
    9.6885  -16.7600   23.4621 N   0  0  0  0  0  0  0  0  0  0  0  0
    9.5559  -16.0889   24.7689 C   0  0  1  0  0  0  0  0  0  0  0  0
    8.0986  -16.1110   25.0376 C   0  0  0  0  0  0  0  0  0  0  0  0
    7.2759  -14.9700   24.6591 C   0  0  0  0  0  0  0  0  0  0  0  0
    6.5671  -14.7535   23.5054 C   0  0  0  0  0  0  0  0  0  0  0  0
    5.9494  -13.5638   23.5616 N   0  0  0  0  0  0  0  0  0  0  0  0
    6.2287  -12.9814   24.7247 C   0  0  0  0  0  0  0  0  0  0  0  0
    5.8118  -11.7690   25.2510 C   0  0  0  0  0  0  0  0  0  0  0  0
    6.2529  -11.4449   26.5112 C   0  0  0  0  0  0  0  0  0  0  0  0
    7.0782  -12.2582   27.2613 C   0  0  0  0  0  0  0  0  0  0  0  0
    7.4683  -13.4695   26.6795 C   0  0  0  0  0  0  0  0  0  0  0  0
    7.0522  -13.8303   25.4304 C   0  0  0  0  0  0  0  0  0  0  0  0
   10.4692  -16.6351   25.7520 C   0  0  0  0  0  0  0  0  0  0  0  0
   11.3857  -17.4615   25.4246 O   0  0  0  0  0  0  0  0  0  0  0  0
   10.4385  -16.2932   27.1567 N   0  0  0  0  0  0  0  0  0  0  0  0
    9.5086  -15.4119   27.8284 C   0  0  0  0  0  0  0  0  0  0  0  0
   10.3912  -14.5618   28.7387 C   0  0  0  0  0  0  0  0  0  0  0  0
   11.7213  -15.3111   28.7609 C   0  0  0  0  0  0  0  0  0  0  0  0
   11.3751  -16.6984   28.1725 C   0  0  1  0  0  0  0  0  0  0  0  0
   10.8050  -17.4577   29.2766 C   0  0  0  0  0  0  0  0  0  0  0  0
    9.5503  -17.6806   29.3276 O   0  0  0  0  0  0  0  0  0  0  0  0
   11.5252  -17.9893   30.3298 O   0  0  0  0  0  0  0  0  0  0  0  0
  2  5  1  0
  2  1  1  6
  3  2  1  0
  4  3  1  0
  5  6  2  0
  7  8  1  0
  7  5  1  0
  9 10  1  0
  8  9  1  1
 10 18  1  0
 11 10  2  0
 11 12  1  0
 12 13  1  0
 13 14  1  0
 14 15  2  0
 16 15  1  0
 17 16  2  0
 18 13  2  0
 18 17  1  0
 19 20  2  0
 19  8  1  0
 21 19  1  0
 22 21  1  0
 23 22  1  0
 24 25  1  0
 24 23  1  0
 25 21  1  0
 25 26  1  1
 26 28  1  0
 27 26  2  0
M  END
$$$$
