CWP.pdb
     RDKit          3D

 28 30  0  0  1  0  0  0  0  0999 V2000
    4.1418  -20.7472   22.6956 N   0  0  0  0  0  0  0  0  0  0  0  0
    5.2904  -20.6847   23.5358 C   0  0  1  0  0  0  0  0  0  0  0  0
    6.3874  -21.6235   23.0820 C   0  0  0  0  0  0  0  0  0  0  0  0
    7.1568  -20.9523   21.5836 S   0  0  0  0  0  0  0  0  0  0  0  0
    5.7867  -19.2769   23.6159 C   0  0  0  0  0  0  0  0  0  0  0  0
    5.5530  -18.5190   22.6426 O   0  0  0  0  0  0  0  0  0  0  0  0
    6.4911  -18.7825   24.7194 N   0  0  0  0  0  0  0  0  0  0  0  0
    7.0502  -17.4182   24.6752 C   0  0  1  0  0  0  0  0  0  0  0  0
    6.9735  -16.9531   26.0803 C   0  0  0  0  0  0  0  0  0  0  0  0
    7.0036  -15.5263   26.3726 C   0  0  0  0  0  0  0  0  0  0  0  0
    6.0525  -14.5687   26.1300 C   0  0  0  0  0  0  0  0  0  0  0  0
    6.4876  -13.3716   26.5517 N   0  0  0  0  0  0  0  0  0  0  0  0
    7.7054  -13.5072   27.0697 C   0  0  0  0  0  0  0  0  0  0  0  0
    8.5499  -12.5732   27.6488 C   0  0  0  0  0  0  0  0  0  0  0  0
    9.7560  -13.0261   28.1265 C   0  0  0  0  0  0  0  0  0  0  0  0
   10.1560  -14.3452   28.0554 C   0  0  0  0  0  0  0  0  0  0  0  0
    9.2639  -15.2436   27.4598 C   0  0  0  0  0  0  0  0  0  0  0  0
    8.0555  -14.8357   26.9730 C   0  0  0  0  0  0  0  0  0  0  0  0
    8.3207  -17.3771   23.9803 C   0  0  0  0  0  0  0  0  0  0  0  0
    9.0288  -18.4277   23.8219 O   0  0  0  0  0  0  0  0  0  0  0  0
    8.8842  -16.1768   23.4034 N   0  0  0  0  0  0  0  0  0  0  0  0
    8.3487  -14.8345   23.4659 C   0  0  0  0  0  0  0  0  0  0  0  0
    8.5007  -14.3053   22.0422 C   0  0  0  0  0  0  0  0  0  0  0  0
    9.4621  -15.2935   21.3862 C   0  0  0  0  0  0  0  0  0  0  0  0
   10.0599  -16.0760   22.5783 C   0  0  1  0  0  0  0  0  0  0  0  0
   11.1198  -15.2289   23.1070 C   0  0  0  0  0  0  0  0  0  0  0  0
   10.9282  -14.5361   24.1605 O   0  0  0  0  0  0  0  0  0  0  0  0
   12.3789  -15.0938   22.5528 O   0  0  0  0  0  0  0  0  0  0  0  0
  2  5  1  0
  2  1  1  6
  3  2  1  0
  4  3  1  0
  5  6  2  0
  7  8  1  0
  7  5  1  0
  9 10  1  0
  8  9  1  1
 10 18  1  0
 11 10  2  0
 11 12  1  0
 12 13  1  0
 13 14  1  0
 14 15  2  0
 16 15  1  0
 17 16  2  0
 18 13  2  0
 18 17  1  0
 19 20  2  0
 19  8  1  0
 21 19  1  0
 22 21  1  0
 23 22  1  0
 24 25  1  0
 24 23  1  0
 25 21  1  0
 25 26  1  1
 26 28  1  0
 27 26  2  0
M  END
$$$$
