CWP.pdb
     RDKit          3D

 28 30  0  0  1  0  0  0  0  0999 V2000
   10.2225  -15.5556   19.9858 N   0  0  0  0  0  0  0  0  0  0  0  0
   10.2765  -16.5481   21.0061 C   0  0  1  0  0  0  0  0  0  0  0  0
   11.5738  -17.3273   20.9833 C   0  0  0  0  0  0  0  0  0  0  0  0
   11.4589  -18.7004   22.1619 S   0  0  0  0  0  0  0  0  0  0  0  0
   10.0518  -15.9172   22.3427 C   0  0  0  0  0  0  0  0  0  0  0  0
   10.6653  -14.8515   22.5959 O   0  0  0  0  0  0  0  0  0  0  0  0
    9.1958  -16.4640   23.3053 N   0  0  0  0  0  0  0  0  0  0  0  0
    9.1384  -15.8665   24.6527 C   0  0  1  0  0  0  0  0  0  0  0  0
    7.7847  -16.2172   25.1437 C   0  0  0  0  0  0  0  0  0  0  0  0
    6.8198  -15.1617   25.4205 C   0  0  0  0  0  0  0  0  0  0  0  0
    5.4678  -15.2527   25.6310 C   0  0  0  0  0  0  0  0  0  0  0  0
    4.9527  -14.0324   25.8450 N   0  0  0  0  0  0  0  0  0  0  0  0
    5.9279  -13.1297   25.7827 C   0  0  0  0  0  0  0  0  0  0  0  0
    5.8989  -11.7550   25.9566 C   0  0  0  0  0  0  0  0  0  0  0  0
    7.0931  -11.0827   25.8570 C   0  0  0  0  0  0  0  0  0  0  0  0
    8.2972  -11.7046   25.5954 C   0  0  0  0  0  0  0  0  0  0  0  0
    8.2665  -13.0934   25.4278 C   0  0  0  0  0  0  0  0  0  0  0  0
    7.1019  -13.7999   25.5194 C   0  0  0  0  0  0  0  0  0  0  0  0
   10.2970  -16.2166   25.4489 C   0  0  0  0  0  0  0  0  0  0  0  0
   11.3311  -16.7503   24.9234 O   0  0  0  0  0  0  0  0  0  0  0  0
   10.3941  -15.9870   26.8733 N   0  0  0  0  0  0  0  0  0  0  0  0
    9.4295  -15.3284   27.7268 C   0  0  0  0  0  0  0  0  0  0  0  0
   10.2743  -14.4076   28.6036 C   0  0  0  0  0  0  0  0  0  0  0  0
   11.6992  -14.9179   28.4021 C   0  0  0  0  0  0  0  0  0  0  0  0
   11.5074  -16.2981   27.7318 C   0  0  1  0  0  0  0  0  0  0  0  0
   11.2149  -17.2211   28.8195 C   0  0  0  0  0  0  0  0  0  0  0  0
   12.1351  -17.5828   29.6251 O   0  0  0  0  0  0  0  0  0  0  0  0
    9.9747  -17.7730   29.0804 O   0  0  0  0  0  0  0  0  0  0  0  0
  2  5  1  0
  2  1  1  6
  3  2  1  0
  4  3  1  0
  5  6  2  0
  7  8  1  0
  7  5  1  0
  9 10  1  0
  8  9  1  1
 10 18  1  0
 11 10  2  0
 11 12  1  0
 12 13  1  0
 13 14  1  0
 14 15  2  0
 16 15  1  0
 17 16  2  0
 18 13  2  0
 18 17  1  0
 19 20  2  0
 19  8  1  0
 21 19  1  0
 22 21  1  0
 23 22  1  0
 24 25  1  0
 24 23  1  0
 25 21  1  0
 25 26  1  1
 26 28  1  0
 27 26  2  0
M  END
$$$$
