CWP.pdb
     RDKit          3D

 28 30  0  0  1  0  0  0  0  0999 V2000
    9.9512  -15.7532   20.3880 N   0  0  0  0  0  0  0  0  0  0  0  0
   10.2461  -16.6683   21.4392 C   0  0  1  0  0  0  0  0  0  0  0  0
   11.6568  -17.2097   21.3521 C   0  0  0  0  0  0  0  0  0  0  0  0
   11.8128  -18.6330   22.4646 S   0  0  0  0  0  0  0  0  0  0  0  0
   10.0001  -16.0194   22.7632 C   0  0  0  0  0  0  0  0  0  0  0  0
   10.3967  -14.8382   22.9174 O   0  0  0  0  0  0  0  0  0  0  0  0
    9.3539  -16.6718   23.8193 N   0  0  0  0  0  0  0  0  0  0  0  0
    9.3455  -16.0562   25.1597 C   0  0  1  0  0  0  0  0  0  0  0  0
    7.9726  -16.3040   25.6600 C   0  0  0  0  0  0  0  0  0  0  0  0
    6.9117  -15.3509   25.3634 C   0  0  0  0  0  0  0  0  0  0  0  0
    5.6577  -15.5755   24.8562 C   0  0  0  0  0  0  0  0  0  0  0  0
    4.9982  -14.4140   24.7293 N   0  0  0  0  0  0  0  0  0  0  0  0
    5.7815  -13.4201   25.1396 C   0  0  0  0  0  0  0  0  0  0  0  0
    5.5438  -12.0571   25.2210 C   0  0  0  0  0  0  0  0  0  0  0  0
    6.5539  -11.2707   25.7202 C   0  0  0  0  0  0  0  0  0  0  0  0
    7.7721  -11.7692   26.1355 C   0  0  0  0  0  0  0  0  0  0  0  0
    7.9569  -13.1522   26.0296 C   0  0  0  0  0  0  0  0  0  0  0  0
    6.9793  -13.9695   25.5399 C   0  0  0  0  0  0  0  0  0  0  0  0
   10.4800  -16.4789   25.9555 C   0  0  0  0  0  0  0  0  0  0  0  0
   11.4869  -17.0590   25.4265 O   0  0  0  0  0  0  0  0  0  0  0  0
   10.5821  -16.2755   27.3835 N   0  0  0  0  0  0  0  0  0  0  0  0
    9.6388  -15.5981   28.2461 C   0  0  0  0  0  0  0  0  0  0  0  0
   10.5128  -14.7207   29.1386 C   0  0  0  0  0  0  0  0  0  0  0  0
   11.9198  -15.2759   28.9310 C   0  0  0  0  0  0  0  0  0  0  0  0
   11.6825  -16.6378   28.2385 C   0  0  1  0  0  0  0  0  0  0  0  0
   11.3567  -17.5676   29.3108 C   0  0  0  0  0  0  0  0  0  0  0  0
   10.1613  -17.9851   29.4630 O   0  0  0  0  0  0  0  0  0  0  0  0
   12.2607  -18.0698   30.2280 O   0  0  0  0  0  0  0  0  0  0  0  0
  2  5  1  0
  2  1  1  6
  3  2  1  0
  4  3  1  0
  5  6  2  0
  7  8  1  0
  7  5  1  0
  9 10  1  0
  8  9  1  1
 10 18  1  0
 11 10  2  0
 11 12  1  0
 12 13  1  0
 13 14  1  0
 14 15  2  0
 16 15  1  0
 17 16  2  0
 18 13  2  0
 18 17  1  0
 19 20  2  0
 19  8  1  0
 21 19  1  0
 22 21  1  0
 23 22  1  0
 24 25  1  0
 24 23  1  0
 25 21  1  0
 25 26  1  1
 26 28  1  0
 27 26  2  0
M  END
$$$$
