CWP.pdb
     RDKit          3D

 28 30  0  0  1  0  0  0  0  0999 V2000
    5.2002  -20.0950   23.4173 N   0  0  0  0  0  0  0  0  0  0  0  0
    6.5387  -19.6127   23.3453 C   0  0  1  0  0  0  0  0  0  0  0  0
    7.3901  -20.4179   22.3876 C   0  0  0  0  0  0  0  0  0  0  0  0
    8.2753  -21.6982   23.3177 S   0  0  0  0  0  0  0  0  0  0  0  0
    6.5387  -18.1639   22.9768 C   0  0  0  0  0  0  0  0  0  0  0  0
    5.6506  -17.7626   22.1854 O   0  0  0  0  0  0  0  0  0  0  0  0
    7.4786  -17.2545   23.4750 N   0  0  0  0  0  0  0  0  0  0  0  0
    7.6104  -15.9261   22.8475 C   0  0  1  0  0  0  0  0  0  0  0  0
    8.1409  -15.0674   23.9328 C   0  0  0  0  0  0  0  0  0  0  0  0
    7.2756  -14.6840   25.0401 C   0  0  0  0  0  0  0  0  0  0  0  0
    6.3938  -15.4486   25.7599 C   0  0  0  0  0  0  0  0  0  0  0  0
    5.7890  -14.6975   26.6927 N   0  0  0  0  0  0  0  0  0  0  0  0
    6.2459  -13.4506   26.6130 C   0  0  0  0  0  0  0  0  0  0  0  0
    5.9453  -12.3283   27.3686 C   0  0  0  0  0  0  0  0  0  0  0  0
    6.6110  -11.1662   27.0617 C   0  0  0  0  0  0  0  0  0  0  0  0
    7.5475  -11.0693   26.0524 C   0  0  0  0  0  0  0  0  0  0  0  0
    7.8103  -12.2333   25.3218 C   0  0  0  0  0  0  0  0  0  0  0  0
    7.1718  -13.4088   25.5944 C   0  0  0  0  0  0  0  0  0  0  0  0
    8.3157  -15.9929   21.5838 C   0  0  0  0  0  0  0  0  0  0  0  0
    8.7330  -17.1030   21.1106 O   0  0  0  0  0  0  0  0  0  0  0  0
    8.5930  -14.8410   20.7548 N   0  0  0  0  0  0  0  0  0  0  0  0
    8.3834  -13.4481   21.0842 C   0  0  0  0  0  0  0  0  0  0  0  0
    7.7457  -12.8596   19.8283 C   0  0  0  0  0  0  0  0  0  0  0  0
    7.9979  -13.9203   18.7595 C   0  0  0  0  0  0  0  0  0  0  0  0
    9.0660  -14.8402   19.3948 C   0  0  1  0  0  0  0  0  0  0  0  0
   10.3382  -14.1652   19.1794 C   0  0  0  0  0  0  0  0  0  0  0  0
   10.8498  -13.4426   20.0973 O   0  0  0  0  0  0  0  0  0  0  0  0
   11.0864  -14.2332   18.0191 O   0  0  0  0  0  0  0  0  0  0  0  0
  2  5  1  0
  2  1  1  6
  3  2  1  0
  4  3  1  0
  5  6  2  0
  7  8  1  0
  7  5  1  0
  9 10  1  0
  8  9  1  1
 10 18  1  0
 11 10  2  0
 11 12  1  0
 12 13  1  0
 13 14  1  0
 14 15  2  0
 16 15  1  0
 17 16  2  0
 18 13  2  0
 18 17  1  0
 19 20  2  0
 19  8  1  0
 21 19  1  0
 22 21  1  0
 23 22  1  0
 24 25  1  0
 24 23  1  0
 25 21  1  0
 25 26  1  1
 26 28  1  0
 27 26  2  0
M  END
$$$$
