MPA.pdb
     RDKit          3D

 21 21  0  0  1  0  0  0  0  0999 V2000
   25.6001  -21.9069  -11.3542 C   0  0  0  0  0  0  0  0  0  0  0  0
   25.6851  -23.0176  -12.8029 S   0  0  0  0  0  0  0  0  0  0  0  0
   25.8015  -22.0419  -14.3121 C   0  0  0  0  0  0  0  0  0  0  0  0
   25.3031  -20.6153  -14.0568 C   0  0  0  0  0  0  0  0  0  0  0  0
   25.5142  -19.8058  -15.3489 C   0  0  2  0  0  0  0  0  0  0  0  0
   26.8482  -20.0349  -15.7671 N   0  0  0  0  0  0  0  0  0  0  0  0
   25.0830  -18.4259  -15.1832 C   0  0  0  0  0  0  0  0  0  0  0  0
   23.8159  -18.2579  -15.0802 O   0  0  0  0  0  0  0  0  0  0  0  0
   25.8943  -17.2574  -15.1229 N   0  0  0  0  0  0  0  0  0  0  0  0
   27.3301  -17.1527  -15.0414 C   0  0  0  0  0  0  0  0  0  0  0  0
   27.6053  -15.9572  -15.9665 C   0  0  0  0  0  0  0  0  0  0  0  0
   26.5866  -14.9831  -15.3475 C   0  0  0  0  0  0  0  0  0  0  0  0
   25.3791  -15.9014  -15.1155 C   0  0  1  0  0  0  0  0  0  0  0  0
   24.4365  -15.6199  -16.2144 C   0  0  0  0  0  0  0  0  0  0  0  0
   24.5943  -16.1588  -17.3255 O   0  0  0  0  0  0  0  0  0  0  0  0
   20.9664  -14.4559  -16.3615 C   0  0  0  0  0  0  0  0  0  0  0  0
   22.3220  -14.5105  -17.0193 C   0  0  2  0  0  0  0  0  0  0  0  0
   23.3526  -14.7399  -16.0137 N   0  0  0  0  0  0  0  0  0  0  0  0
   22.5877  -13.2790  -17.7705 C   0  0  0  0  0  0  0  0  0  0  0  0
   23.4087  -12.4166  -17.4161 O   0  0  0  0  0  0  0  0  0  0  0  0
   21.8848  -13.0543  -18.9495 O   0  0  0  0  0  0  0  0  0  0  0  0
  2  1  1  0
  3  2  1  0
  4  5  1  0
  4  3  1  0
  5  6  1  1
  7  5  1  0
  8  7  2  0
  9 13  1  0
  9  7  1  0
 10  9  1  0
 11 10  1  0
 11 12  1  0
 12 13  1  0
 13 14  1  6
 14 15  2  0
 14 18  1  0
 17 19  1  0
 17 16  1  1
 18 17  1  0
 19 21  1  0
 20 19  2  0
M  END
$$$$
