MPA.pdb
     RDKit          3D

 21 21  0  0  1  0  0  0  0  0999 V2000
   25.5647  -21.0682   -8.6634 C   0  0  0  0  0  0  0  0  0  0  0  0
   24.0000  -21.6659   -9.3944 S   0  0  0  0  0  0  0  0  0  0  0  0
   23.5315  -20.6107  -10.7764 C   0  0  0  0  0  0  0  0  0  0  0  0
   24.4467  -20.8771  -11.9766 C   0  0  0  0  0  0  0  0  0  0  0  0
   24.1280  -19.8242  -13.0532 C   0  0  2  0  0  0  0  0  0  0  0  0
   22.7494  -19.9466  -13.3560 N   0  0  0  0  0  0  0  0  0  0  0  0
   25.0736  -19.8953  -14.1570 C   0  0  0  0  0  0  0  0  0  0  0  0
   24.5803  -20.2839  -15.2750 O   0  0  0  0  0  0  0  0  0  0  0  0
   26.4635  -19.5873  -14.1389 N   0  0  0  0  0  0  0  0  0  0  0  0
   27.2404  -18.9592  -13.0992 C   0  0  0  0  0  0  0  0  0  0  0  0
   28.5458  -19.7674  -13.1585 C   0  0  0  0  0  0  0  0  0  0  0  0
   28.7901  -19.6474  -14.6737 C   0  0  0  0  0  0  0  0  0  0  0  0
   27.3764  -19.8544  -15.2341 C   0  0  1  0  0  0  0  0  0  0  0  0
   27.3301  -21.2469  -15.7176 C   0  0  0  0  0  0  0  0  0  0  0  0
   26.9428  -22.1575  -14.9621 O   0  0  0  0  0  0  0  0  0  0  0  0
   27.3693  -23.9336  -16.6994 C   0  0  0  0  0  0  0  0  0  0  0  0
   27.3660  -22.8042  -17.6984 C   0  0  2  0  0  0  0  0  0  0  0  0
   27.7237  -21.5553  -17.0366 N   0  0  0  0  0  0  0  0  0  0  0  0
   26.0598  -22.6932  -18.3564 C   0  0  0  0  0  0  0  0  0  0  0  0
   24.9771  -22.8986  -17.7828 O   0  0  0  0  0  0  0  0  0  0  0  0
   26.0201  -22.3379  -19.7006 O   0  0  0  0  0  0  0  0  0  0  0  0
  2  1  1  0
  3  2  1  0
  4  5  1  0
  4  3  1  0
  5  6  1  6
  7  5  1  0
  8  7  2  0
  9 13  1  0
  9  7  1  0
 10  9  1  0
 11 10  1  0
 11 12  1  0
 12 13  1  0
 13 14  1  1
 14 15  2  0
 14 18  1  0
 17 19  1  0
 17 16  1  1
 18 17  1  0
 19 21  1  0
 20 19  2  0
M  END
$$$$
