MPA.pdb
     RDKit          3D

 21 21  0  0  1  0  0  0  0  0999 V2000
   26.1695  -19.9476   -9.8065 C   0  0  0  0  0  0  0  0  0  0  0  0
   25.7663  -21.6102  -10.4490 S   0  0  0  0  0  0  0  0  0  0  0  0
   26.4435  -21.8032  -12.1064 C   0  0  0  0  0  0  0  0  0  0  0  0
   25.3160  -21.7661  -13.1438 C   0  0  0  0  0  0  0  0  0  0  0  0
   24.5438  -20.4486  -12.9514 C   0  0  2  0  0  0  0  0  0  0  0  0
   23.1834  -20.7915  -12.7550 N   0  0  0  0  0  0  0  0  0  0  0  0
   24.8575  -19.4947  -14.0046 C   0  0  0  0  0  0  0  0  0  0  0  0
   23.8762  -19.1820  -14.7687 O   0  0  0  0  0  0  0  0  0  0  0  0
   26.1103  -18.8771  -14.2804 N   0  0  0  0  0  0  0  0  0  0  0  0
   27.3479  -18.9676  -13.5460 C   0  0  0  0  0  0  0  0  0  0  0  0
   28.3781  -19.0325  -14.6841 C   0  0  0  0  0  0  0  0  0  0  0  0
   27.8800  -17.8115  -15.4784 C   0  0  0  0  0  0  0  0  0  0  0  0
   26.3577  -17.9897  -15.4009 C   0  0  1  0  0  0  0  0  0  0  0  0
   25.9467  -18.5499  -16.7020 C   0  0  0  0  0  0  0  0  0  0  0  0
   26.0025  -19.7779  -16.8985 O   0  0  0  0  0  0  0  0  0  0  0  0
   24.0804  -17.2158  -19.6476 C   0  0  0  0  0  0  0  0  0  0  0  0
   25.0476  -18.1930  -19.0288 C   0  0  2  0  0  0  0  0  0  0  0  0
   25.4888  -17.6993  -17.7298 N   0  0  0  0  0  0  0  0  0  0  0  0
   26.1916  -18.4280  -19.9162 C   0  0  0  0  0  0  0  0  0  0  0  0
   26.1111  -19.0176  -21.0067 O   0  0  0  0  0  0  0  0  0  0  0  0
   27.4440  -17.9679  -19.5230 O   0  0  0  0  0  0  0  0  0  0  0  0
  2  1  1  0
  3  2  1  0
  4  5  1  0
  4  3  1  0
  5  6  1  6
  7  5  1  0
  8  7  2  0
  9 13  1  0
  9  7  1  0
 10  9  1  0
 11 10  1  0
 11 12  1  0
 12 13  1  0
 13 14  1  6
 14 15  2  0
 14 18  1  0
 17 19  1  0
 17 16  1  6
 18 17  1  0
 19 21  1  0
 20 19  2  0
M  END
$$$$
