MPA.pdb
     RDKit          3D

 21 21  0  0  1  0  0  0  0  0999 V2000
   21.0254  -10.8609  -21.2092 C   0  0  0  0  0  0  0  0  0  0  0  0
   19.3838  -11.5842  -20.8599 S   0  0  0  0  0  0  0  0  0  0  0  0
   19.3434  -12.2168  -19.1743 C   0  0  0  0  0  0  0  0  0  0  0  0
   19.6846  -11.0984  -18.1835 C   0  0  0  0  0  0  0  0  0  0  0  0
   19.6087  -11.6889  -16.7641 C   0  0  2  0  0  0  0  0  0  0  0  0
   18.2989  -12.2032  -16.5997 N   0  0  0  0  0  0  0  0  0  0  0  0
   20.0949  -10.7419  -15.7720 C   0  0  0  0  0  0  0  0  0  0  0  0
   19.3096   -9.7590  -15.5239 O   0  0  0  0  0  0  0  0  0  0  0  0
   21.3243  -10.7805  -15.0550 N   0  0  0  0  0  0  0  0  0  0  0  0
   22.3178  -11.8249  -15.0126 C   0  0  0  0  0  0  0  0  0  0  0  0
   23.6212  -11.0114  -15.0219 C   0  0  0  0  0  0  0  0  0  0  0  0
   23.2668  -10.0472  -13.8753 C   0  0  0  0  0  0  0  0  0  0  0  0
   21.7993   -9.7215  -14.1849 C   0  0  1  0  0  0  0  0  0  0  0  0
   21.8031   -8.3903  -14.8198 C   0  0  0  0  0  0  0  0  0  0  0  0
   22.1925   -8.2604  -15.9952 O   0  0  0  0  0  0  0  0  0  0  0  0
   19.9683   -5.3349  -14.5923 C   0  0  0  0  0  0  0  0  0  0  0  0
   21.3581   -5.9147  -14.6673 C   0  0  2  0  0  0  0  0  0  0  0  0
   21.3665   -7.2581  -14.1007 N   0  0  0  0  0  0  0  0  0  0  0  0
   22.3224   -5.0498  -13.9792 C   0  0  0  0  0  0  0  0  0  0  0  0
   22.7586   -5.2720  -12.8374 O   0  0  0  0  0  0  0  0  0  0  0  0
   22.7813   -3.9120  -14.6346 O   0  0  0  0  0  0  0  0  0  0  0  0
  2  1  1  0
  3  2  1  0
  4  5  1  0
  4  3  1  0
  5  6  1  1
  7  5  1  0
  8  7  2  0
  9 13  1  0
  9  7  1  0
 10  9  1  0
 11 10  1  0
 11 12  1  0
 12 13  1  0
 13 14  1  6
 14 15  2  0
 14 18  1  0
 17 19  1  0
 17 16  1  1
 18 17  1  0
 19 21  1  0
 20 19  2  0
M  END
$$$$
