MPA.pdb
     RDKit          3D

 21 21  0  0  1  0  0  0  0  0999 V2000
   27.9914  -14.7537  -15.6944 C   0  0  0  0  0  0  0  0  0  0  0  0
   27.2100  -13.1021  -15.6536 S   0  0  0  0  0  0  0  0  0  0  0  0
   25.6973  -13.1201  -16.6306 C   0  0  0  0  0  0  0  0  0  0  0  0
   24.9784  -11.7716  -16.5133 C   0  0  0  0  0  0  0  0  0  0  0  0
   23.7014  -11.8441  -17.3696 C   0  0  2  0  0  0  0  0  0  0  0  0
   24.1096  -12.1141  -18.6990 N   0  0  0  0  0  0  0  0  0  0  0  0
   22.8485  -10.6869  -17.1439 C   0  0  0  0  0  0  0  0  0  0  0  0
   23.2959   -9.5791  -17.6098 O   0  0  0  0  0  0  0  0  0  0  0  0
   21.5923  -10.6435  -16.4752 N   0  0  0  0  0  0  0  0  0  0  0  0
   20.7747  -11.7355  -16.0079 C   0  0  0  0  0  0  0  0  0  0  0  0
   20.2615  -11.1854  -14.6682 C   0  0  0  0  0  0  0  0  0  0  0  0
   19.7543   -9.8278  -15.1873 C   0  0  0  0  0  0  0  0  0  0  0  0
   20.8784   -9.4232  -16.1507 C   0  0  1  0  0  0  0  0  0  0  0  0
   21.6972   -8.4324  -15.4274 C   0  0  0  0  0  0  0  0  0  0  0  0
   22.4811   -8.8032  -14.5341 O   0  0  0  0  0  0  0  0  0  0  0  0
   22.5271   -4.8381  -16.0417 C   0  0  0  0  0  0  0  0  0  0  0  0
   22.4547   -6.0460  -15.1422 C   0  0  2  0  0  0  0  0  0  0  0  0
   21.5975   -7.0612  -15.7427 N   0  0  0  0  0  0  0  0  0  0  0  0
   21.9719   -5.6750  -13.8078 C   0  0  0  0  0  0  0  0  0  0  0  0
   22.6456   -5.0374  -12.9813 O   0  0  0  0  0  0  0  0  0  0  0  0
   20.6862   -6.0542  -13.4363 O   0  0  0  0  0  0  0  0  0  0  0  0
  2  1  1  0
  3  2  1  0
  4  5  1  0
  4  3  1  0
  5  6  1  6
  7  5  1  0
  8  7  2  0
  9 13  1  0
  9  7  1  0
 10  9  1  0
 11 10  1  0
 11 12  1  0
 12 13  1  0
 13 14  1  1
 14 15  2  0
 14 18  1  0
 17 19  1  0
 17 16  1  6
 18 17  1  0
 19 21  1  0
 20 19  2  0
M  END
$$$$
