MPA.pdb
     RDKit          3D

 21 21  0  0  1  0  0  0  0  0999 V2000
   17.3137  -19.9931  -15.1734 C   0  0  0  0  0  0  0  0  0  0  0  0
   18.4237  -18.7106  -14.4933 S   0  0  0  0  0  0  0  0  0  0  0  0
   19.9915  -19.4549  -14.0128 C   0  0  0  0  0  0  0  0  0  0  0  0
   19.7643  -20.4989  -12.9140 C   0  0  0  0  0  0  0  0  0  0  0  0
   21.1299  -21.1158  -12.5625 C   0  0  2  0  0  0  0  0  0  0  0  0
   21.5855  -21.7974  -13.7179 N   0  0  0  0  0  0  0  0  0  0  0  0
   21.0660  -21.8630  -11.3154 C   0  0  0  0  0  0  0  0  0  0  0  0
   20.3903  -22.9517  -11.3647 O   0  0  0  0  0  0  0  0  0  0  0  0
   21.6592  -21.5295  -10.0648 N   0  0  0  0  0  0  0  0  0  0  0  0
   22.5291  -20.4269   -9.7383 C   0  0  0  0  0  0  0  0  0  0  0  0
   22.0108  -20.0261   -8.3484 C   0  0  0  0  0  0  0  0  0  0  0  0
   22.0397  -21.4265   -7.7096 C   0  0  0  0  0  0  0  0  0  0  0  0
   21.4902  -22.2986   -8.8466 C   0  0  1  0  0  0  0  0  0  0  0  0
   20.0805  -22.5688   -8.5074 C   0  0  0  0  0  0  0  0  0  0  0  0
   19.2246  -21.6742   -8.6380 O   0  0  0  0  0  0  0  0  0  0  0  0
   18.0641  -25.6395   -8.0321 C   0  0  0  0  0  0  0  0  0  0  0  0
   18.3108  -24.1838   -7.7266 C   0  0  2  0  0  0  0  0  0  0  0  0
   19.6940  -23.8399   -8.0337 N   0  0  0  0  0  0  0  0  0  0  0  0
   17.9946  -23.8834   -6.3261 C   0  0  0  0  0  0  0  0  0  0  0  0
   16.8427  -23.6881   -5.9040 O   0  0  0  0  0  0  0  0  0  0  0  0
   19.0382  -23.8108   -5.4094 O   0  0  0  0  0  0  0  0  0  0  0  0
  2  1  1  0
  3  2  1  0
  4  5  1  0
  4  3  1  0
  5  6  1  6
  7  5  1  0
  8  7  2  0
  9 13  1  0
  9  7  1  0
 10  9  1  0
 11 10  1  0
 11 12  1  0
 12 13  1  0
 13 14  1  1
 14 15  2  0
 14 18  1  0
 17 19  1  0
 17 16  1  1
 18 17  1  0
 19 21  1  0
 20 19  2  0
M  END
$$$$
