MPA.pdb
     RDKit          3D

 21 21  0  0  1  0  0  0  0  0999 V2000
   70.2883   -9.6592  -37.4545 C   0  0  0  0  0  0  0  0  0  0  0  0
   68.9097   -8.4813  -37.6821 S   0  0  0  0  0  0  0  0  0  0  0  0
   67.5938   -9.2605  -38.6331 C   0  0  0  0  0  0  0  0  0  0  0  0
   66.2322   -8.9475  -38.0031 C   0  0  0  0  0  0  0  0  0  0  0  0
   66.4166   -7.7463  -37.0585 C   0  0  2  0  0  0  0  0  0  0  0  0
   66.6627   -6.6136  -37.8731 N   0  0  0  0  0  0  0  0  0  0  0  0
   67.3755   -8.0454  -36.0056 C   0  0  0  0  0  0  0  0  0  0  0  0
   68.0949   -9.0888  -36.2019 O   0  0  0  0  0  0  0  0  0  0  0  0
   67.6041   -7.3234  -34.8000 N   0  0  0  0  0  0  0  0  0  0  0  0
   67.7955   -7.8276  -33.4627 C   0  0  0  0  0  0  0  0  0  0  0  0
   68.8929   -6.8911  -32.9340 C   0  0  0  0  0  0  0  0  0  0  0  0
   68.2234   -5.5584  -33.3156 C   0  0  0  0  0  0  0  0  0  0  0  0
   67.6685   -5.8771  -34.7106 C   0  0  1  0  0  0  0  0  0  0  0  0
   68.6059   -5.2654  -35.6710 C   0  0  0  0  0  0  0  0  0  0  0  0
   69.1672   -5.9699  -36.5304 O   0  0  0  0  0  0  0  0  0  0  0  0
   69.9079   -2.5732  -37.3859 C   0  0  0  0  0  0  0  0  0  0  0  0
   70.1266   -3.2987  -36.0824 C   0  0  2  0  0  0  0  0  0  0  0  0
   68.8718   -3.8810  -35.6219 N   0  0  0  0  0  0  0  0  0  0  0  0
   70.6883   -2.3970  -35.0710 C   0  0  0  0  0  0  0  0  0  0  0  0
   70.5204   -2.5393  -33.8483 O   0  0  0  0  0  0  0  0  0  0  0  0
   71.4549   -1.3166  -35.4951 O   0  0  0  0  0  0  0  0  0  0  0  0
  2  1  1  0
  3  2  1  0
  4  5  1  0
  4  3  1  0
  5  6  1  6
  7  5  1  0
  8  7  2  0
  9 13  1  0
  9  7  1  0
 10  9  1  0
 11 10  1  0
 11 12  1  0
 12 13  1  0
 13 14  1  6
 14 15  2  0
 14 18  1  0
 17 19  1  0
 17 16  1  6
 18 17  1  0
 19 21  1  0
 20 19  2  0
M  END
$$$$
