MPA.pdb
     RDKit          3D

 21 21  0  0  1  0  0  0  0  0999 V2000
   17.8612   -9.7007  -21.0471 C   0  0  0  0  0  0  0  0  0  0  0  0
   17.8358  -11.5173  -20.8496 S   0  0  0  0  0  0  0  0  0  0  0  0
   19.1075  -12.0201  -19.6779 C   0  0  0  0  0  0  0  0  0  0  0  0
   19.2528  -10.9669  -18.5739 C   0  0  0  0  0  0  0  0  0  0  0  0
   19.5830  -11.7031  -17.2631 C   0  0  2  0  0  0  0  0  0  0  0  0
   18.4440  -12.4739  -16.9234 N   0  0  0  0  0  0  0  0  0  0  0  0
   20.1052  -10.7867  -16.2605 C   0  0  0  0  0  0  0  0  0  0  0  0
   19.2679   -9.9189  -15.8244 O   0  0  0  0  0  0  0  0  0  0  0  0
   21.4198  -10.7434  -15.7156 N   0  0  0  0  0  0  0  0  0  0  0  0
   22.5197  -11.6519  -15.9256 C   0  0  0  0  0  0  0  0  0  0  0  0
   23.7097  -10.6831  -16.0028 C   0  0  0  0  0  0  0  0  0  0  0  0
   23.4147   -9.8962  -14.7130 C   0  0  0  0  0  0  0  0  0  0  0  0
   21.8912   -9.7289  -14.7921 C   0  0  1  0  0  0  0  0  0  0  0  0
   21.6569   -8.3492  -15.2578 C   0  0  0  0  0  0  0  0  0  0  0  0
   21.7639   -8.0718  -16.4667 O   0  0  0  0  0  0  0  0  0  0  0  0
   19.7153   -5.5168  -14.1497 C   0  0  0  0  0  0  0  0  0  0  0  0
   21.0285   -5.9645  -14.7400 C   0  0  2  0  0  0  0  0  0  0  0  0
   21.3109   -7.3373  -14.3380 N   0  0  0  0  0  0  0  0  0  0  0  0
   22.1155   -5.0662  -14.3364 C   0  0  0  0  0  0  0  0  0  0  0  0
   22.9040   -5.3088  -13.4076 O   0  0  0  0  0  0  0  0  0  0  0  0
   22.2817   -3.8706  -15.0276 O   0  0  0  0  0  0  0  0  0  0  0  0
  2  1  1  0
  3  2  1  0
  4  5  1  0
  4  3  1  0
  5  6  1  1
  7  5  1  0
  8  7  2  0
  9 13  1  0
  9  7  1  0
 10  9  1  0
 11 10  1  0
 11 12  1  0
 12 13  1  0
 13 14  1  6
 14 15  2  0
 14 18  1  0
 17 19  1  0
 17 16  1  1
 18 17  1  0
 19 21  1  0
 20 19  2  0
M  END
$$$$
