MPA.pdb
     RDKit          3D

 21 21  0  0  1  0  0  0  0  0999 V2000
   19.4705  -22.0191  -16.3605 C   0  0  0  0  0  0  0  0  0  0  0  0
   19.9660  -23.5053  -15.4196 S   0  0  0  0  0  0  0  0  0  0  0  0
   21.0862  -23.0381  -14.0892 C   0  0  0  0  0  0  0  0  0  0  0  0
   22.0853  -21.9875  -14.5863 C   0  0  0  0  0  0  0  0  0  0  0  0
   22.4846  -21.1132  -13.3840 C   0  0  2  0  0  0  0  0  0  0  0  0
   21.3095  -20.4575  -12.9412 N   0  0  0  0  0  0  0  0  0  0  0  0
   23.6449  -20.2908  -13.6921 C   0  0  0  0  0  0  0  0  0  0  0  0
   23.4045  -19.2510  -14.4029 O   0  0  0  0  0  0  0  0  0  0  0  0
   24.9969  -20.5044  -13.3004 N   0  0  0  0  0  0  0  0  0  0  0  0
   25.5230  -21.4154  -12.3142 C   0  0  0  0  0  0  0  0  0  0  0  0
   26.8015  -21.9138  -13.0054 C   0  0  0  0  0  0  0  0  0  0  0  0
   27.3836  -20.5367  -13.3725 C   0  0  0  0  0  0  0  0  0  0  0  0
   26.1321  -19.7867  -13.8484 C   0  0  1  0  0  0  0  0  0  0  0  0
   26.1857  -19.7997  -15.3223 C   0  0  0  0  0  0  0  0  0  0  0  0
   25.9573  -20.8528  -15.9459 O   0  0  0  0  0  0  0  0  0  0  0  0
   26.1005  -17.1163  -17.8970 C   0  0  0  0  0  0  0  0  0  0  0  0
   26.4224  -18.5309  -17.4865 C   0  0  2  0  0  0  0  0  0  0  0  0
   26.4955  -18.6215  -16.0331 N   0  0  0  0  0  0  0  0  0  0  0  0
   27.6748  -18.9812  -18.1032 C   0  0  0  0  0  0  0  0  0  0  0  0
   27.7985  -19.2308  -19.3139 O   0  0  0  0  0  0  0  0  0  0  0  0
   28.7947  -19.1413  -17.2941 O   0  0  0  0  0  0  0  0  0  0  0  0
  2  1  1  0
  3  2  1  0
  4  5  1  0
  4  3  1  0
  5  6  1  6
  7  5  1  0
  8  7  2  0
  9 13  1  0
  9  7  1  0
 10  9  1  0
 11 10  1  0
 11 12  1  0
 12 13  1  0
 13 14  1  6
 14 15  2  0
 14 18  1  0
 17 19  1  0
 17 16  1  1
 18 17  1  0
 19 21  1  0
 20 19  2  0
M  END
$$$$
