MPA.pdb
     RDKit          3D

 21 21  0  0  1  0  0  0  0  0999 V2000
   16.3084  -25.3308   -4.9902 C   0  0  0  0  0  0  0  0  0  0  0  0
   15.8925  -23.9751   -3.8375 S   0  0  0  0  0  0  0  0  0  0  0  0
   14.8647  -24.6065   -2.5005 C   0  0  0  0  0  0  0  0  0  0  0  0
   14.6589  -23.5223   -1.4370 C   0  0  0  0  0  0  0  0  0  0  0  0
   13.7458  -24.1045   -0.3432 C   0  0  2  0  0  0  0  0  0  0  0  0
   12.4780  -24.3236   -0.9362 N   0  0  0  0  0  0  0  0  0  0  0  0
   13.7976  -23.3019    0.8696 C   0  0  0  0  0  0  0  0  0  0  0  0
   13.0395  -22.2676    0.8731 O   0  0  0  0  0  0  0  0  0  0  0  0
   14.5814  -23.5296    2.0361 N   0  0  0  0  0  0  0  0  0  0  0  0
   15.4294  -24.6514    2.3550 C   0  0  0  0  0  0  0  0  0  0  0  0
   16.6204  -23.9554    3.0316 C   0  0  0  0  0  0  0  0  0  0  0  0
   15.8171  -23.1091    4.0358 C   0  0  0  0  0  0  0  0  0  0  0  0
   14.6461  -22.6262    3.1692 C   0  0  1  0  0  0  0  0  0  0  0  0
   14.9608  -21.2336    2.7993 C   0  0  0  0  0  0  0  0  0  0  0  0
   15.8106  -20.9980    1.9205 O   0  0  0  0  0  0  0  0  0  0  0  0
   13.2753  -17.9699    3.2489 C   0  0  0  0  0  0  0  0  0  0  0  0
   14.5468  -18.7658    3.0963 C   0  0  2  0  0  0  0  0  0  0  0  0
   14.3021  -20.1620    3.4376 N   0  0  0  0  0  0  0  0  0  0  0  0
   15.6175  -18.2033    3.9261 C   0  0  0  0  0  0  0  0  0  0  0  0
   16.1847  -18.8267    4.8388 O   0  0  0  0  0  0  0  0  0  0  0  0
   16.0292  -16.8968    3.6850 O   0  0  0  0  0  0  0  0  0  0  0  0
  2  1  1  0
  3  2  1  0
  4  5  1  0
  4  3  1  0
  5  6  1  6
  7  5  1  0
  8  7  2  0
  9 13  1  0
  9  7  1  0
 10  9  1  0
 11 10  1  0
 11 12  1  0
 12 13  1  0
 13 14  1  6
 14 15  2  0
 14 18  1  0
 17 19  1  0
 17 16  1  1
 18 17  1  0
 19 21  1  0
 20 19  2  0
M  END
$$$$
