MPA.pdb
     RDKit          3D

 21 21  0  0  1  0  0  0  0  0999 V2000
   26.1056  -20.4312   -8.9729 C   0  0  0  0  0  0  0  0  0  0  0  0
   24.4037  -21.0335   -9.2563 S   0  0  0  0  0  0  0  0  0  0  0  0
   23.7775  -20.3792  -10.8127 C   0  0  0  0  0  0  0  0  0  0  0  0
   24.6406  -20.8752  -11.9780 C   0  0  0  0  0  0  0  0  0  0  0  0
   24.0629  -20.2827  -13.2759 C   0  0  2  0  0  0  0  0  0  0  0  0
   22.7209  -20.7263  -13.3715 N   0  0  0  0  0  0  0  0  0  0  0  0
   24.9424  -20.5339  -14.4077 C   0  0  0  0  0  0  0  0  0  0  0  0
   24.6139  -21.5310  -15.1442 O   0  0  0  0  0  0  0  0  0  0  0  0
   26.1086  -19.8104  -14.7864 N   0  0  0  0  0  0  0  0  0  0  0  0
   26.6149  -18.5662  -14.2621 C   0  0  0  0  0  0  0  0  0  0  0  0
   28.1280  -18.8326  -14.2424 C   0  0  0  0  0  0  0  0  0  0  0  0
   28.2652  -19.3305  -15.6926 C   0  0  0  0  0  0  0  0  0  0  0  0
   27.0232  -20.2207  -15.8349 C   0  0  1  0  0  0  0  0  0  0  0  0
   27.4998  -21.6095  -15.6952 C   0  0  0  0  0  0  0  0  0  0  0  0
   27.7547  -22.0714  -14.5675 O   0  0  0  0  0  0  0  0  0  0  0  0
   26.6454  -24.5036  -16.1211 C   0  0  0  0  0  0  0  0  0  0  0  0
   27.8529  -23.8658  -16.7601 C   0  0  2  0  0  0  0  0  0  0  0  0
   27.6694  -22.4213  -16.8361 N   0  0  0  0  0  0  0  0  0  0  0  0
   28.1007  -24.4332  -18.0899 C   0  0  0  0  0  0  0  0  0  0  0  0
   28.0379  -23.7782  -19.1437 O   0  0  0  0  0  0  0  0  0  0  0  0
   28.4255  -25.7821  -18.1875 O   0  0  0  0  0  0  0  0  0  0  0  0
  2  1  1  0
  3  2  1  0
  4  5  1  0
  4  3  1  0
  5  6  1  6
  7  5  1  0
  8  7  2  0
  9 13  1  0
  9  7  1  0
 10  9  1  0
 11 10  1  0
 11 12  1  0
 12 13  1  0
 13 14  1  1
 14 15  2  0
 14 18  1  0
 17 19  1  0
 17 16  1  6
 18 17  1  0
 19 21  1  0
 20 19  2  0
M  END
$$$$
