MPA.pdb
     RDKit          3D

 21 21  0  0  1  0  0  0  0  0999 V2000
   15.8989  -14.4640  -19.1442 C   0  0  0  0  0  0  0  0  0  0  0  0
   16.6694  -13.1208  -18.1737 S   0  0  0  0  0  0  0  0  0  0  0  0
   18.4547  -13.1474  -18.4079 C   0  0  0  0  0  0  0  0  0  0  0  0
   19.1125  -12.0453  -17.5703 C   0  0  0  0  0  0  0  0  0  0  0  0
   20.6379  -12.1941  -17.7129 C   0  0  2  0  0  0  0  0  0  0  0  0
   20.9827  -13.4567  -17.1707 N   0  0  0  0  0  0  0  0  0  0  0  0
   21.3324  -11.0230  -17.1994 C   0  0  0  0  0  0  0  0  0  0  0  0
   21.2086  -10.8233  -15.9388 O   0  0  0  0  0  0  0  0  0  0  0  0
   22.1226  -10.0870  -17.9249 N   0  0  0  0  0  0  0  0  0  0  0  0
   22.5334  -10.1244  -19.3067 C   0  0  0  0  0  0  0  0  0  0  0  0
   22.3943   -8.6483  -19.7099 C   0  0  0  0  0  0  0  0  0  0  0  0
   23.1919   -8.0425  -18.5409 C   0  0  0  0  0  0  0  0  0  0  0  0
   22.6922   -8.8803  -17.3561 C   0  0  1  0  0  0  0  0  0  0  0  0
   21.7098   -8.0384  -16.6480 C   0  0  0  0  0  0  0  0  0  0  0  0
   20.5553   -7.9144  -17.0971 O   0  0  0  0  0  0  0  0  0  0  0  0
   21.4490   -6.7342  -13.2006 C   0  0  0  0  0  0  0  0  0  0  0  0
   21.1239   -6.5961  -14.6665 C   0  0  2  0  0  0  0  0  0  0  0  0
   22.0715   -7.3697  -15.4599 N   0  0  0  0  0  0  0  0  0  0  0  0
   21.1291   -5.1864  -15.0718 C   0  0  0  0  0  0  0  0  0  0  0  0
   22.0021   -4.6782  -15.7949 O   0  0  0  0  0  0  0  0  0  0  0  0
   20.1012   -4.3623  -14.6259 O   0  0  0  0  0  0  0  0  0  0  0  0
  2  1  1  0
  3  2  1  0
  4  5  1  0
  4  3  1  0
  5  6  1  1
  7  5  1  0
  8  7  2  0
  9 13  1  0
  9  7  1  0
 10  9  1  0
 11 10  1  0
 11 12  1  0
 12 13  1  0
 13 14  1  6
 14 15  2  0
 14 18  1  0
 17 19  1  0
 17 16  1  1
 18 17  1  0
 19 21  1  0
 20 19  2  0
M  END
$$$$
