LWK.pdb
     RDKit          3D

 32 33  0  0  1  0  0  0  0  0999 V2000
    6.7517  -12.2832   19.4919 C   0  0  0  0  0  0  0  0  0  0  0  0
    7.2555  -13.7182   19.6225 C   0  0  1  0  0  0  0  0  0  0  0  0
    8.2816  -13.8894   18.4946 C   0  0  0  0  0  0  0  0  0  0  0  0
    7.9958  -13.9254   20.9077 C   0  0  0  0  0  0  0  0  0  0  0  0
    8.4912  -15.3400   21.0856 C   0  0  2  0  0  0  0  0  0  0  0  0
    7.4545  -16.3151   21.0529 N   0  0  0  0  0  0  0  0  0  0  0  0
    9.2008  -15.3908   22.3881 C   0  0  0  0  0  0  0  0  0  0  0  0
   10.1671  -14.6055   22.5680 O   0  0  0  0  0  0  0  0  0  0  0  0
    8.8032  -16.3073   23.4205 N   0  0  0  0  0  0  0  0  0  0  0  0
    9.5012  -16.3806   24.6603 C   0  0  1  0  0  0  0  0  0  0  0  0
    8.5744  -16.4359   25.8580 C   0  0  0  0  0  0  0  0  0  0  0  0
    7.5379  -15.4080   25.8515 C   0  0  0  0  0  0  0  0  0  0  0  0
    6.2093  -15.5501   25.5732 C   0  0  0  0  0  0  0  0  0  0  0  0
    5.6252  -14.3444   25.6856 N   0  0  0  0  0  0  0  0  0  0  0  0
    6.5468  -13.4198   26.0314 C   0  0  0  0  0  0  0  0  0  0  0  0
    6.5159  -12.0651   26.2765 C   0  0  0  0  0  0  0  0  0  0  0  0
    7.6388  -11.3415   26.6235 C   0  0  0  0  0  0  0  0  0  0  0  0
    8.8454  -12.0035   26.7297 C   0  0  0  0  0  0  0  0  0  0  0  0
    8.8842  -13.3555   26.4867 C   0  0  0  0  0  0  0  0  0  0  0  0
    7.7441  -14.0749   26.1372 C   0  0  0  0  0  0  0  0  0  0  0  0
   10.3870  -17.5746   24.7555 C   0  0  0  0  0  0  0  0  0  0  0  0
    9.8331  -18.6873   24.9269 O   0  0  0  0  0  0  0  0  0  0  0  0
   11.8023  -17.4917   24.6601 N   0  0  0  0  0  0  0  0  0  0  0  0
   12.6801  -18.6591   24.7674 C   0  0  1  0  0  0  0  0  0  0  0  0
   13.9137  -18.4822   23.9582 C   0  0  0  0  0  0  0  0  0  0  0  0
   13.6481  -17.6449   22.7397 C   0  0  0  0  0  0  0  0  0  0  0  0
   14.9396  -17.3795   21.9673 C   0  0  0  0  0  0  0  0  0  0  0  0
   14.5786  -16.3690   20.8761 C   0  0  0  0  0  0  0  0  0  0  0  0
   15.7830  -15.8915   20.2246 N   0  0  0  0  0  0  0  0  0  0  0  0
   12.9812  -18.9842   26.1582 C   0  0  0  0  0  0  0  0  0  0  0  0
   13.5535  -20.1161   26.6640 O   0  0  0  0  0  0  0  0  0  0  0  0
   12.6642  -18.0887   27.0283 O   0  0  0  0  0  0  0  0  0  0  0  0
  2  1  1  1
  2  3  1  0
  4  2  1  0
  5  4  1  0
  5  6  1  1
  7  5  1  0
  7  8  2  0
  9  7  1  0
 10  9  1  0
 10 11  1  1
 11 12  1  0
 12 13  2  0
 12 20  1  0
 13 14  1  0
 14 15  1  0
 15 16  2  0
 16 17  1  0
 18 17  2  0
 19 18  1  0
 20 19  2  0
 20 15  1  0
 21 10  1  0
 22 21  2  0
 23 21  1  0
 24 25  1  6
 24 23  1  0
 25 26  1  0
 26 27  1  0
 27 28  1  0
 28 29  1  0
 30 24  1  0
 31 30  1  0
 32 30  2  0
M  END
$$$$
