LWK.pdb
     RDKit          3D

 32 33  0  0  1  0  0  0  0  0999 V2000
    7.7493  -12.2236   20.1005 C   0  0  0  0  0  0  0  0  0  0  0  0
    7.6223  -13.6945   20.4883 C   0  0  1  0  0  0  0  0  0  0  0  0
    6.8504  -14.3501   19.3355 C   0  0  0  0  0  0  0  0  0  0  0  0
    8.9599  -14.3657   20.5421 C   0  0  0  0  0  0  0  0  0  0  0  0
    8.8981  -15.7680   21.0971 C   0  0  2  0  0  0  0  0  0  0  0  0
    7.5738  -16.2777   21.2112 N   0  0  0  0  0  0  0  0  0  0  0  0
    9.5510  -15.7366   22.4296 C   0  0  0  0  0  0  0  0  0  0  0  0
   10.6594  -15.1505   22.5332 O   0  0  0  0  0  0  0  0  0  0  0  0
    8.9426  -16.3551   23.5747 N   0  0  0  0  0  0  0  0  0  0  0  0
    9.6230  -16.4420   24.8234 C   0  0  1  0  0  0  0  0  0  0  0  0
    8.6812  -16.4486   26.0105 C   0  0  0  0  0  0  0  0  0  0  0  0
    7.6065  -15.4650   25.9180 C   0  0  0  0  0  0  0  0  0  0  0  0
    6.3072  -15.6657   25.5516 C   0  0  0  0  0  0  0  0  0  0  0  0
    5.6680  -14.4843   25.6061 N   0  0  0  0  0  0  0  0  0  0  0  0
    6.5249  -13.5180   26.0006 C   0  0  0  0  0  0  0  0  0  0  0  0
    6.4219  -12.1629   26.2230 C   0  0  0  0  0  0  0  0  0  0  0  0
    7.4877  -11.3891   26.6354 C   0  0  0  0  0  0  0  0  0  0  0  0
    8.7101  -11.9988   26.8337 C   0  0  0  0  0  0  0  0  0  0  0  0
    8.8208  -13.3507   26.6137 C   0  0  0  0  0  0  0  0  0  0  0  0
    7.7379  -14.1212   26.1976 C   0  0  0  0  0  0  0  0  0  0  0  0
   10.4607  -17.6683   24.9413 C   0  0  0  0  0  0  0  0  0  0  0  0
    9.8698  -18.7738   24.8873 O   0  0  0  0  0  0  0  0  0  0  0  0
   11.8711  -17.6231   25.1085 N   0  0  0  0  0  0  0  0  0  0  0  0
   12.7298  -18.8020   24.9753 C   0  0  1  0  0  0  0  0  0  0  0  0
   12.5621  -19.4437   23.6458 C   0  0  0  0  0  0  0  0  0  0  0  0
   12.9899  -18.5214   22.5400 C   0  0  0  0  0  0  0  0  0  0  0  0
   12.9668  -19.2386   21.1909 C   0  0  0  0  0  0  0  0  0  0  0  0
   13.4629  -18.2195   20.1626 C   0  0  0  0  0  0  0  0  0  0  0  0
   13.4411  -18.8035   18.8355 N   0  0  0  0  0  0  0  0  0  0  0  0
   14.1270  -18.4888   25.2584 C   0  0  0  0  0  0  0  0  0  0  0  0
   14.6919  -17.2732   25.5190 O   0  0  0  0  0  0  0  0  0  0  0  0
   14.9399  -19.4881   25.2611 O   0  0  0  0  0  0  0  0  0  0  0  0
  2  1  1  6
  2  3  1  0
  4  2  1  0
  5  4  1  0
  5  6  1  1
  7  5  1  0
  7  8  2  0
  9  7  1  0
 10  9  1  0
 10 11  1  1
 11 12  1  0
 12 13  2  0
 12 20  1  0
 13 14  1  0
 14 15  1  0
 15 16  2  0
 16 17  1  0
 18 17  2  0
 19 18  1  0
 20 19  2  0
 20 15  1  0
 21 10  1  0
 22 21  2  0
 23 21  1  0
 24 25  1  6
 24 23  1  0
 25 26  1  0
 26 27  1  0
 27 28  1  0
 28 29  1  0
 30 24  1  0
 31 30  1  0
 32 30  2  0
M  END
$$$$
