LWK.pdb
     RDKit          3D

 32 33  0  0  1  0  0  0  0  0999 V2000
    7.6049  -12.2235   20.1137 C   0  0  0  0  0  0  0  0  0  0  0  0
    7.6638  -13.7487   20.1304 C   0  0  1  0  0  0  0  0  0  0  0  0
    7.6383  -14.1693   18.6550 C   0  0  0  0  0  0  0  0  0  0  0  0
    8.9614  -14.2420   20.6922 C   0  0  0  0  0  0  0  0  0  0  0  0
    8.9363  -15.7099   21.0427 C   0  0  2  0  0  0  0  0  0  0  0  0
    7.6466  -16.3013   20.9272 N   0  0  0  0  0  0  0  0  0  0  0  0
    9.4324  -15.8320   22.4362 C   0  0  0  0  0  0  0  0  0  0  0  0
   10.5194  -15.2707   22.7300 O   0  0  0  0  0  0  0  0  0  0  0  0
    8.6995  -16.5680   23.4286 N   0  0  0  0  0  0  0  0  0  0  0  0
    9.1831  -16.7054   24.7616 C   0  0  1  0  0  0  0  0  0  0  0  0
    8.0742  -16.7165   25.7944 C   0  0  0  0  0  0  0  0  0  0  0  0
    7.2394  -15.5190   25.7785 C   0  0  0  0  0  0  0  0  0  0  0  0
    5.9555  -15.3905   25.3336 C   0  0  0  0  0  0  0  0  0  0  0  0
    5.5769  -14.1122   25.5069 N   0  0  0  0  0  0  0  0  0  0  0  0
    6.5884  -13.4056   26.0557 C   0  0  0  0  0  0  0  0  0  0  0  0
    6.7575  -12.0942   26.4405 C   0  0  0  0  0  0  0  0  0  0  0  0
    7.9310  -11.6215   26.9921 C   0  0  0  0  0  0  0  0  0  0  0  0
    8.9811  -12.5003   27.1659 C   0  0  0  0  0  0  0  0  0  0  0  0
    8.8200  -13.8106   26.7844 C   0  0  0  0  0  0  0  0  0  0  0  0
    7.6308  -14.2760   26.2287 C   0  0  0  0  0  0  0  0  0  0  0  0
    9.9649  -17.9569   24.9669 C   0  0  0  0  0  0  0  0  0  0  0  0
    9.4321  -19.0324   24.6009 O   0  0  0  0  0  0  0  0  0  0  0  0
   11.2609  -17.9672   25.5493 N   0  0  0  0  0  0  0  0  0  0  0  0
   12.0139  -19.1978   25.8016 C   0  0  1  0  0  0  0  0  0  0  0  0
   13.4050  -19.0931   25.2900 C   0  0  0  0  0  0  0  0  0  0  0  0
   14.1388  -20.3948   25.4426 C   0  0  0  0  0  0  0  0  0  0  0  0
   15.5574  -20.2908   24.8839 C   0  0  0  0  0  0  0  0  0  0  0  0
   16.1917  -21.6692   25.0837 C   0  0  0  0  0  0  0  0  0  0  0  0
   17.5400  -21.6764   24.5500 N   0  0  0  0  0  0  0  0  0  0  0  0
   11.9772  -19.5757   27.2109 C   0  0  0  0  0  0  0  0  0  0  0  0
   12.0515  -18.7704   28.3113 O   0  0  0  0  0  0  0  0  0  0  0  0
   11.8625  -20.8354   27.4545 O   0  0  0  0  0  0  0  0  0  0  0  0
  2  1  1  6
  2  3  1  0
  4  2  1  0
  5  4  1  0
  5  6  1  1
  7  5  1  0
  7  8  2  0
  9  7  1  0
 10  9  1  0
 10 11  1  1
 11 12  1  0
 12 13  2  0
 12 20  1  0
 13 14  1  0
 14 15  1  0
 15 16  2  0
 16 17  1  0
 18 17  2  0
 19 18  1  0
 20 19  2  0
 20 15  1  0
 21 10  1  0
 22 21  2  0
 23 21  1  0
 24 25  1  1
 24 23  1  0
 25 26  1  0
 26 27  1  0
 27 28  1  0
 28 29  1  0
 30 24  1  0
 31 30  1  0
 32 30  2  0
M  END
$$$$
