LWK.pdb
     RDKit          3D

 32 33  0  0  1  0  0  0  0  0999 V2000
    7.1274  -12.1677   19.8862 C   0  0  0  0  0  0  0  0  0  0  0  0
    7.2846  -13.6802   20.0192 C   0  0  1  0  0  0  0  0  0  0  0  0
    7.5554  -14.1841   18.5955 C   0  0  0  0  0  0  0  0  0  0  0  0
    8.4889  -14.0375   20.8345 C   0  0  0  0  0  0  0  0  0  0  0  0
    8.5819  -15.5127   21.1403 C   0  0  2  0  0  0  0  0  0  0  0  0
    7.3231  -16.1774   21.1290 N   0  0  0  0  0  0  0  0  0  0  0  0
    9.2160  -15.6399   22.4761 C   0  0  0  0  0  0  0  0  0  0  0  0
   10.2475  -14.9587   22.7103 O   0  0  0  0  0  0  0  0  0  0  0  0
    8.6748  -16.5135   23.4801 N   0  0  0  0  0  0  0  0  0  0  0  0
    9.3006  -16.6650   24.7510 C   0  0  1  0  0  0  0  0  0  0  0  0
    8.3157  -16.6333   25.9022 C   0  0  0  0  0  0  0  0  0  0  0  0
    7.3920  -15.5037   25.8592 C   0  0  0  0  0  0  0  0  0  0  0  0
    6.1014  -15.4846   25.4157 C   0  0  0  0  0  0  0  0  0  0  0  0
    5.6267  -14.2349   25.5583 N   0  0  0  0  0  0  0  0  0  0  0  0
    6.5822  -13.4396   26.0857 C   0  0  0  0  0  0  0  0  0  0  0  0
    6.6514  -12.1100   26.4371 C   0  0  0  0  0  0  0  0  0  0  0  0
    7.7863  -11.5355   26.9726 C   0  0  0  0  0  0  0  0  0  0  0  0
    8.9006  -12.3271   27.1648 C   0  0  0  0  0  0  0  0  0  0  0  0
    8.8393  -13.6550   26.8166 C   0  0  0  0  0  0  0  0  0  0  0  0
    7.6881  -14.2235   26.2769 C   0  0  0  0  0  0  0  0  0  0  0  0
   10.0554  -17.9434   24.8751 C   0  0  0  0  0  0  0  0  0  0  0  0
    9.5272  -18.9710   24.3859 O   0  0  0  0  0  0  0  0  0  0  0  0
   11.3216  -18.0299   25.5141 N   0  0  0  0  0  0  0  0  0  0  0  0
   12.0558  -19.2880   25.6658 C   0  0  1  0  0  0  0  0  0  0  0  0
   13.4395  -19.1719   25.1371 C   0  0  0  0  0  0  0  0  0  0  0  0
   14.2115  -20.4422   25.3530 C   0  0  0  0  0  0  0  0  0  0  0  0
   15.6587  -20.2877   24.8870 C   0  0  0  0  0  0  0  0  0  0  0  0
   16.3374  -21.6308   25.1657 C   0  0  0  0  0  0  0  0  0  0  0  0
   17.7496  -21.5482   24.8467 N   0  0  0  0  0  0  0  0  0  0  0  0
   12.0365  -19.7632   27.0458 C   0  0  0  0  0  0  0  0  0  0  0  0
   12.1733  -21.0404   27.5092 O   0  0  0  0  0  0  0  0  0  0  0  0
   11.8648  -18.8623   27.9504 O   0  0  0  0  0  0  0  0  0  0  0  0
  2  1  1  6
  2  3  1  0
  4  2  1  0
  5  4  1  0
  5  6  1  1
  7  5  1  0
  7  8  2  0
  9  7  1  0
 10  9  1  0
 10 11  1  1
 11 12  1  0
 12 13  2  0
 12 20  1  0
 13 14  1  0
 14 15  1  0
 15 16  2  0
 16 17  1  0
 18 17  2  0
 19 18  1  0
 20 19  2  0
 20 15  1  0
 21 10  1  0
 22 21  2  0
 23 21  1  0
 24 25  1  1
 24 23  1  0
 25 26  1  0
 26 27  1  0
 27 28  1  0
 28 29  1  0
 30 24  1  0
 31 30  1  0
 32 30  2  0
M  END
$$$$
