LWK.pdb
     RDKit          3D

 32 33  0  0  1  0  0  0  0  0999 V2000
    7.3813  -12.1685   19.2464 C   0  0  0  0  0  0  0  0  0  0  0  0
    7.5703  -13.6569   19.5275 C   0  0  1  0  0  0  0  0  0  0  0  0
    8.3482  -14.1994   18.3213 C   0  0  0  0  0  0  0  0  0  0  0  0
    8.4345  -13.8834   20.7294 C   0  0  0  0  0  0  0  0  0  0  0  0
    8.6206  -15.3444   21.0595 C   0  0  2  0  0  0  0  0  0  0  0  0
    7.3999  -16.0740   21.1240 N   0  0  0  0  0  0  0  0  0  0  0  0
    9.3247  -15.4083   22.3645 C   0  0  0  0  0  0  0  0  0  0  0  0
   10.3917  -14.7545   22.4953 O   0  0  0  0  0  0  0  0  0  0  0  0
    8.8105  -16.1916   23.4535 N   0  0  0  0  0  0  0  0  0  0  0  0
    9.5190  -16.3120   24.6836 C   0  0  1  0  0  0  0  0  0  0  0  0
    8.6051  -16.3369   25.8921 C   0  0  0  0  0  0  0  0  0  0  0  0
    7.5449  -15.3341   25.8523 C   0  0  0  0  0  0  0  0  0  0  0  0
    6.2416  -15.4973   25.4814 C   0  0  0  0  0  0  0  0  0  0  0  0
    5.6203  -14.3106   25.5965 N   0  0  0  0  0  0  0  0  0  0  0  0
    6.4928  -13.3778   26.0349 C   0  0  0  0  0  0  0  0  0  0  0  0
    6.4108  -12.0340   26.3243 C   0  0  0  0  0  0  0  0  0  0  0  0
    7.4892  -11.2973   26.7703 C   0  0  0  0  0  0  0  0  0  0  0  0
    8.7030  -11.9340   26.9336 C   0  0  0  0  0  0  0  0  0  0  0  0
    8.7928  -13.2749   26.6469 C   0  0  0  0  0  0  0  0  0  0  0  0
    7.6972  -14.0079   26.1974 C   0  0  0  0  0  0  0  0  0  0  0  0
   10.3481  -17.5477   24.7548 C   0  0  0  0  0  0  0  0  0  0  0  0
    9.7552  -18.6215   25.0191 O   0  0  0  0  0  0  0  0  0  0  0  0
   11.7523  -17.5452   24.5380 N   0  0  0  0  0  0  0  0  0  0  0  0
   12.5742  -18.7553   24.6097 C   0  0  1  0  0  0  0  0  0  0  0  0
   13.7023  -18.6989   23.6443 C   0  0  0  0  0  0  0  0  0  0  0  0
   13.2201  -18.3464   22.2661 C   0  0  0  0  0  0  0  0  0  0  0  0
   14.3578  -18.4367   21.2498 C   0  0  0  0  0  0  0  0  0  0  0  0
   13.7244  -18.1699   19.8824 C   0  0  0  0  0  0  0  0  0  0  0  0
   14.7444  -18.1869   18.8518 N   0  0  0  0  0  0  0  0  0  0  0  0
   13.0322  -19.0189   25.9703 C   0  0  0  0  0  0  0  0  0  0  0  0
   12.8233  -18.2781   27.0983 O   0  0  0  0  0  0  0  0  0  0  0  0
   13.7290  -20.0899   26.1335 O   0  0  0  0  0  0  0  0  0  0  0  0
  2  1  1  6
  2  3  1  0
  4  2  1  0
  5  4  1  0
  5  6  1  1
  7  5  1  0
  7  8  2  0
  9  7  1  0
 10  9  1  0
 10 11  1  1
 11 12  1  0
 12 13  2  0
 12 20  1  0
 13 14  1  0
 14 15  1  0
 15 16  2  0
 16 17  1  0
 18 17  2  0
 19 18  1  0
 20 19  2  0
 20 15  1  0
 21 10  1  0
 22 21  2  0
 23 21  1  0
 24 25  1  6
 24 23  1  0
 25 26  1  0
 26 27  1  0
 27 28  1  0
 28 29  1  0
 30 24  1  0
 31 30  1  0
 32 30  2  0
M  END
$$$$
