LWK.pdb
     RDKit          3D

 32 33  0  0  1  0  0  0  0  0999 V2000
    7.3262  -12.2843   19.4117 C   0  0  0  0  0  0  0  0  0  0  0  0
    7.4436  -13.7844   19.6687 C   0  0  1  0  0  0  0  0  0  0  0  0
    7.9047  -14.3870   18.3350 C   0  0  0  0  0  0  0  0  0  0  0  0
    8.5170  -14.0880   20.6678 C   0  0  0  0  0  0  0  0  0  0  0  0
    8.6224  -15.5572   20.9974 C   0  0  2  0  0  0  0  0  0  0  0  0
    7.3658  -16.2253   21.0300 N   0  0  0  0  0  0  0  0  0  0  0  0
    9.2905  -15.6588   22.3188 C   0  0  0  0  0  0  0  0  0  0  0  0
   10.3311  -14.9782   22.5110 O   0  0  0  0  0  0  0  0  0  0  0  0
    8.7715  -16.5074   23.3553 N   0  0  0  0  0  0  0  0  0  0  0  0
    9.3980  -16.5913   24.6321 C   0  0  1  0  0  0  0  0  0  0  0  0
    8.4088  -16.5541   25.7795 C   0  0  0  0  0  0  0  0  0  0  0  0
    7.4641  -15.4433   25.7098 C   0  0  0  0  0  0  0  0  0  0  0  0
    6.1468  -15.4761   25.3542 C   0  0  0  0  0  0  0  0  0  0  0  0
    5.6601  -14.2251   25.4294 N   0  0  0  0  0  0  0  0  0  0  0  0
    6.6341  -13.3782   25.8267 C   0  0  0  0  0  0  0  0  0  0  0  0
    6.7025  -12.0239   26.0665 C   0  0  0  0  0  0  0  0  0  0  0  0
    7.8598  -11.3941   26.4773 C   0  0  0  0  0  0  0  0  0  0  0  0
    8.9984  -12.1536   26.6557 C   0  0  0  0  0  0  0  0  0  0  0  0
    8.9381  -13.5058   26.4184 C   0  0  0  0  0  0  0  0  0  0  0  0
    7.7641  -14.1302   26.0042 C   0  0  0  0  0  0  0  0  0  0  0  0
   10.1974  -17.8369   24.8031 C   0  0  0  0  0  0  0  0  0  0  0  0
    9.5639  -18.9036   24.9902 O   0  0  0  0  0  0  0  0  0  0  0  0
   11.6176  -17.8510   24.7615 N   0  0  0  0  0  0  0  0  0  0  0  0
   12.4083  -19.0783   24.8768 C   0  0  1  0  0  0  0  0  0  0  0  0
   13.7411  -18.9230   24.2385 C   0  0  0  0  0  0  0  0  0  0  0  0
   13.6087  -18.5622   22.7864 C   0  0  0  0  0  0  0  0  0  0  0  0
   14.9818  -18.4338   22.1281 C   0  0  0  0  0  0  0  0  0  0  0  0
   14.7320  -17.8258   20.7461 C   0  0  0  0  0  0  0  0  0  0  0  0
   15.9914  -17.6386   20.0519 N   0  0  0  0  0  0  0  0  0  0  0  0
   12.5150  -19.5255   26.2621 C   0  0  0  0  0  0  0  0  0  0  0  0
   12.9239  -20.7389   26.7368 O   0  0  0  0  0  0  0  0  0  0  0  0
   12.1768  -18.6661   27.1601 O   0  0  0  0  0  0  0  0  0  0  0  0
  2  1  1  6
  2  3  1  0
  4  2  1  0
  5  4  1  0
  5  6  1  1
  7  5  1  0
  7  8  2  0
  9  7  1  0
 10  9  1  0
 10 11  1  1
 11 12  1  0
 12 13  2  0
 12 20  1  0
 13 14  1  0
 14 15  1  0
 15 16  2  0
 16 17  1  0
 18 17  2  0
 19 18  1  0
 20 19  2  0
 20 15  1  0
 21 10  1  0
 22 21  2  0
 23 21  1  0
 24 25  1  1
 24 23  1  0
 25 26  1  0
 26 27  1  0
 27 28  1  0
 28 29  1  0
 30 24  1  0
 31 30  1  0
 32 30  2  0
M  END
$$$$
