LWK.pdb
     RDKit          3D

 32 33  0  0  1  0  0  0  0  0999 V2000
    6.4671  -12.2053   19.2356 C   0  0  0  0  0  0  0  0  0  0  0  0
    6.8958  -13.6519   19.4671 C   0  0  1  0  0  0  0  0  0  0  0  0
    7.6123  -14.0715   18.1768 C   0  0  0  0  0  0  0  0  0  0  0  0
    7.9049  -13.7560   20.5687 C   0  0  0  0  0  0  0  0  0  0  0  0
    8.3192  -15.1776   20.8614 C   0  0  2  0  0  0  0  0  0  0  0  0
    7.2215  -16.0584   21.0753 N   0  0  0  0  0  0  0  0  0  0  0  0
    9.1858  -15.1379   22.0656 C   0  0  0  0  0  0  0  0  0  0  0  0
   10.1609  -14.3428   22.0686 O   0  0  0  0  0  0  0  0  0  0  0  0
    8.9269  -15.9797   23.2007 N   0  0  0  0  0  0  0  0  0  0  0  0
    9.7764  -15.9694   24.3443 C   0  0  1  0  0  0  0  0  0  0  0  0
    9.0388  -16.2798   25.6312 C   0  0  0  0  0  0  0  0  0  0  0  0
    7.8415  -15.4703   25.8364 C   0  0  0  0  0  0  0  0  0  0  0  0
    6.5356  -15.8597   25.7607 C   0  0  0  0  0  0  0  0  0  0  0  0
    5.7627  -14.7911   26.0219 N   0  0  0  0  0  0  0  0  0  0  0  0
    6.5391  -13.7135   26.2663 C   0  0  0  0  0  0  0  0  0  0  0  0
    6.2959  -12.3949   26.5801 C   0  0  0  0  0  0  0  0  0  0  0  0
    7.3051  -11.4759   26.7845 C   0  0  0  0  0  0  0  0  0  0  0  0
    8.6150  -11.8955   26.6695 C   0  0  0  0  0  0  0  0  0  0  0  0
    8.8657  -13.2099   26.3566 C   0  0  0  0  0  0  0  0  0  0  0  0
    7.8387  -14.1282   26.1527 C   0  0  0  0  0  0  0  0  0  0  0  0
   10.8895  -16.9548   24.2466 C   0  0  0  0  0  0  0  0  0  0  0  0
   10.6061  -18.1613   24.4423 O   0  0  0  0  0  0  0  0  0  0  0  0
   12.2262  -16.5777   23.9463 N   0  0  0  0  0  0  0  0  0  0  0  0
   13.2898  -17.5487   23.6804 C   0  0  1  0  0  0  0  0  0  0  0  0
   14.4433  -16.9106   22.9949 C   0  0  0  0  0  0  0  0  0  0  0  0
   14.0019  -16.1702   21.7647 C   0  0  0  0  0  0  0  0  0  0  0  0
   15.1950  -15.5344   21.0524 C   0  0  0  0  0  0  0  0  0  0  0  0
   14.6346  -14.8932   19.7808 C   0  0  0  0  0  0  0  0  0  0  0  0
   15.6946  -14.2176   19.0577 N   0  0  0  0  0  0  0  0  0  0  0  0
   13.6961  -18.2524   24.8930 C   0  0  0  0  0  0  0  0  0  0  0  0
   14.4720  -19.3699   25.0102 O   0  0  0  0  0  0  0  0  0  0  0  0
   13.2656  -17.7593   26.0025 O   0  0  0  0  0  0  0  0  0  0  0  0
  2  1  1  6
  2  3  1  0
  4  2  1  0
  5  4  1  0
  5  6  1  1
  7  5  1  0
  7  8  2  0
  9  7  1  0
 10  9  1  0
 10 11  1  1
 11 12  1  0
 12 13  2  0
 12 20  1  0
 13 14  1  0
 14 15  1  0
 15 16  2  0
 16 17  1  0
 18 17  2  0
 19 18  1  0
 20 19  2  0
 20 15  1  0
 21 10  1  0
 22 21  2  0
 23 21  1  0
 24 25  1  1
 24 23  1  0
 25 26  1  0
 26 27  1  0
 27 28  1  0
 28 29  1  0
 30 24  1  0
 31 30  1  0
 32 30  2  0
M  END
$$$$
