LWK.pdb
     RDKit          3D

 32 33  0  0  1  0  0  0  0  0999 V2000
    7.2922  -12.4537   18.0407 C   0  0  0  0  0  0  0  0  0  0  0  0
    7.6011  -13.9313   18.2676 C   0  0  1  0  0  0  0  0  0  0  0  0
    8.1200  -14.4465   16.9187 C   0  0  0  0  0  0  0  0  0  0  0  0
    8.7151  -14.1147   19.2515 C   0  0  0  0  0  0  0  0  0  0  0  0
    8.8371  -15.5335   19.7519 C   0  0  2  0  0  0  0  0  0  0  0  0
    7.6551  -16.3056   19.5695 N   0  0  0  0  0  0  0  0  0  0  0  0
    9.1812  -15.4571   21.1936 C   0  0  0  0  0  0  0  0  0  0  0  0
   10.3112  -15.0038   21.5104 O   0  0  0  0  0  0  0  0  0  0  0  0
    8.2568  -15.8862   22.2062 N   0  0  0  0  0  0  0  0  0  0  0  0
    8.5237  -15.6854   23.5912 C   0  0  1  0  0  0  0  0  0  0  0  0
    7.2929  -15.2819   24.3779 C   0  0  0  0  0  0  0  0  0  0  0  0
    7.5802  -14.8387   25.7388 C   0  0  0  0  0  0  0  0  0  0  0  0
    8.1704  -15.5415   26.7490 C   0  0  0  0  0  0  0  0  0  0  0  0
    8.2371  -14.7463   27.8309 N   0  0  0  0  0  0  0  0  0  0  0  0
    7.7021  -13.5396   27.5456 C   0  0  0  0  0  0  0  0  0  0  0  0
    7.5095  -12.3733   28.2521 C   0  0  0  0  0  0  0  0  0  0  0  0
    6.9190  -11.2538   27.7018 C   0  0  0  0  0  0  0  0  0  0  0  0
    6.5031  -11.3044   26.3866 C   0  0  0  0  0  0  0  0  0  0  0  0
    6.6919  -12.4647   25.6750 C   0  0  0  0  0  0  0  0  0  0  0  0
    7.2892  -13.5882   26.2414 C   0  0  0  0  0  0  0  0  0  0  0  0
    9.0714  -16.9006   24.2566 C   0  0  0  0  0  0  0  0  0  0  0  0
    8.4527  -17.9781   24.0819 O   0  0  0  0  0  0  0  0  0  0  0  0
   10.2422  -16.8751   25.0613 N   0  0  0  0  0  0  0  0  0  0  0  0
   10.8968  -18.0873   25.5584 C   0  0  1  0  0  0  0  0  0  0  0  0
   12.2113  -18.2993   24.8988 C   0  0  0  0  0  0  0  0  0  0  0  0
   12.8478  -19.5806   25.3565 C   0  0  0  0  0  0  0  0  0  0  0  0
   14.1874  -19.8055   24.6563 C   0  0  0  0  0  0  0  0  0  0  0  0
   14.7451  -21.1134   25.2224 C   0  0  0  0  0  0  0  0  0  0  0  0
   16.0839  -21.3424   24.7144 N   0  0  0  0  0  0  0  0  0  0  0  0
   11.0101  -18.0835   27.0136 C   0  0  0  0  0  0  0  0  0  0  0  0
   10.7719  -19.1038   27.8895 O   0  0  0  0  0  0  0  0  0  0  0  0
   11.3810  -16.9716   27.5478 O   0  0  0  0  0  0  0  0  0  0  0  0
  2  1  1  6
  2  3  1  0
  4  2  1  0
  5  4  1  0
  5  6  1  1
  7  5  1  0
  7  8  2  0
  9  7  1  0
 10  9  1  0
 10 11  1  1
 11 12  1  0
 12 13  2  0
 12 20  1  0
 13 14  1  0
 14 15  1  0
 15 16  2  0
 16 17  1  0
 18 17  2  0
 19 18  1  0
 20 19  2  0
 20 15  1  0
 21 10  1  0
 22 21  2  0
 23 21  1  0
 24 25  1  6
 24 23  1  0
 25 26  1  0
 26 27  1  0
 27 28  1  0
 28 29  1  0
 30 24  1  0
 31 30  1  0
 32 30  2  0
M  END
$$$$
