LWK.pdb
     RDKit          3D

 32 33  0  0  1  0  0  0  0  0999 V2000
    7.2870  -12.2086   19.6075 C   0  0  0  0  0  0  0  0  0  0  0  0
    7.5802  -13.6998   19.7506 C   0  0  1  0  0  0  0  0  0  0  0  0
    8.4736  -14.0517   18.5538 C   0  0  0  0  0  0  0  0  0  0  0  0
    8.3838  -13.9857   20.9815 C   0  0  0  0  0  0  0  0  0  0  0  0
    8.6429  -15.4577   21.1922 C   0  0  2  0  0  0  0  0  0  0  0  0
    7.4945  -16.2735   20.9865 N   0  0  0  0  0  0  0  0  0  0  0  0
    9.1410  -15.6162   22.5813 C   0  0  0  0  0  0  0  0  0  0  0  0
   10.1336  -14.9299   22.9373 O   0  0  0  0  0  0  0  0  0  0  0  0
    8.5145  -16.5251   23.5008 N   0  0  0  0  0  0  0  0  0  0  0  0
    8.9615  -16.6471   24.8480 C   0  0  1  0  0  0  0  0  0  0  0  0
    7.8283  -16.6027   25.8531 C   0  0  0  0  0  0  0  0  0  0  0  0
    7.0595  -15.3621   25.8229 C   0  0  0  0  0  0  0  0  0  0  0  0
    5.7803  -15.1716   25.3870 C   0  0  0  0  0  0  0  0  0  0  0  0
    5.4732  -13.8718   25.5407 N   0  0  0  0  0  0  0  0  0  0  0  0
    6.5268  -13.2119   26.0680 C   0  0  0  0  0  0  0  0  0  0  0  0
    6.7705  -11.9052   26.4278 C   0  0  0  0  0  0  0  0  0  0  0  0
    7.9732  -11.4875   26.9607 C   0  0  0  0  0  0  0  0  0  0  0  0
    8.9757  -12.4190   27.1411 C   0  0  0  0  0  0  0  0  0  0  0  0
    8.7401  -13.7250   26.7844 C   0  0  0  0  0  0  0  0  0  0  0  0
    7.5220  -14.1345   26.2475 C   0  0  0  0  0  0  0  0  0  0  0  0
    9.7003  -17.9162   25.0993 C   0  0  0  0  0  0  0  0  0  0  0  0
    9.1060  -18.9883   24.8316 O   0  0  0  0  0  0  0  0  0  0  0  0
   11.0224  -17.9463   25.6192 N   0  0  0  0  0  0  0  0  0  0  0  0
   11.7214  -19.1891   25.9537 C   0  0  1  0  0  0  0  0  0  0  0  0
   13.0521  -19.2531   25.2958 C   0  0  0  0  0  0  0  0  0  0  0  0
   12.9158  -19.3375   23.8023 C   0  0  0  0  0  0  0  0  0  0  0  0
   14.2816  -19.5060   23.1379 C   0  0  0  0  0  0  0  0  0  0  0  0
   14.0289  -19.4362   21.6301 C   0  0  0  0  0  0  0  0  0  0  0  0
   15.2774  -19.5966   20.9102 N   0  0  0  0  0  0  0  0  0  0  0  0
   11.8155  -19.3857   27.3969 C   0  0  0  0  0  0  0  0  0  0  0  0
   12.2693  -20.4774   28.0804 O   0  0  0  0  0  0  0  0  0  0  0  0
   11.4159  -18.4029   28.1276 O   0  0  0  0  0  0  0  0  0  0  0  0
  2  1  1  6
  2  3  1  0
  4  2  1  0
  5  4  1  0
  5  6  1  1
  7  5  1  0
  7  8  2  0
  9  7  1  0
 10  9  1  0
 10 11  1  1
 11 12  1  0
 12 13  2  0
 12 20  1  0
 13 14  1  0
 14 15  1  0
 15 16  2  0
 16 17  1  0
 18 17  2  0
 19 18  1  0
 20 19  2  0
 20 15  1  0
 21 10  1  0
 22 21  2  0
 23 21  1  0
 24 25  1  1
 24 23  1  0
 25 26  1  0
 26 27  1  0
 27 28  1  0
 28 29  1  0
 30 24  1  0
 31 30  1  0
 32 30  2  0
M  END
$$$$
