LWK.pdb
     RDKit          3D

 32 33  0  0  1  0  0  0  0  0999 V2000
    7.3080  -13.3832   22.0390 C   0  0  0  0  0  0  0  0  0  0  0  0
    7.5699  -13.7722   20.5863 C   0  0  1  0  0  0  0  0  0  0  0  0
    7.7739  -12.4448   19.8441 C   0  0  0  0  0  0  0  0  0  0  0  0
    8.8475  -14.5405   20.4454 C   0  0  0  0  0  0  0  0  0  0  0  0
    8.7741  -15.9273   21.0367 C   0  0  2  0  0  0  0  0  0  0  0  0
    7.4527  -16.4537   21.0924 N   0  0  0  0  0  0  0  0  0  0  0  0
    9.3515  -15.8482   22.4017 C   0  0  0  0  0  0  0  0  0  0  0  0
   10.4098  -15.1867   22.5606 O   0  0  0  0  0  0  0  0  0  0  0  0
    8.7270  -16.5050   23.5165 N   0  0  0  0  0  0  0  0  0  0  0  0
    9.4047  -16.6692   24.7588 C   0  0  1  0  0  0  0  0  0  0  0  0
    8.4745  -16.6004   25.9531 C   0  0  0  0  0  0  0  0  0  0  0  0
    7.4326  -15.5849   25.8333 C   0  0  0  0  0  0  0  0  0  0  0  0
    6.1742  -15.7223   25.3232 C   0  0  0  0  0  0  0  0  0  0  0  0
    5.5540  -14.5326   25.4088 N   0  0  0  0  0  0  0  0  0  0  0  0
    6.3833  -13.6231   25.9645 C   0  0  0  0  0  0  0  0  0  0  0  0
    6.2823  -12.2875   26.2847 C   0  0  0  0  0  0  0  0  0  0  0  0
    7.3140  -11.5766   26.8634 C   0  0  0  0  0  0  0  0  0  0  0  0
    8.4987  -12.2316   27.1333 C   0  0  0  0  0  0  0  0  0  0  0  0
    8.6071  -13.5644   26.8167 C   0  0  0  0  0  0  0  0  0  0  0  0
    7.5588  -14.2713   26.2328 C   0  0  0  0  0  0  0  0  0  0  0  0
   10.1241  -17.9701   24.8574 C   0  0  0  0  0  0  0  0  0  0  0  0
    9.4856  -19.0037   24.5437 O   0  0  0  0  0  0  0  0  0  0  0  0
   11.4755  -18.0711   25.2848 N   0  0  0  0  0  0  0  0  0  0  0  0
   12.4396  -18.9901   24.6758 C   0  0  1  0  0  0  0  0  0  0  0  0
   12.5821  -18.7344   23.2190 C   0  0  0  0  0  0  0  0  0  0  0  0
   12.3241  -19.9807   22.4213 C   0  0  0  0  0  0  0  0  0  0  0  0
   12.4998  -19.7184   20.9262 C   0  0  0  0  0  0  0  0  0  0  0  0
   12.2469  -21.0577   20.2301 C   0  0  0  0  0  0  0  0  0  0  0  0
   12.2390  -20.8751   18.7916 N   0  0  0  0  0  0  0  0  0  0  0  0
   13.7263  -18.9593   25.3642 C   0  0  0  0  0  0  0  0  0  0  0  0
   14.3842  -17.8860   25.8931 O   0  0  0  0  0  0  0  0  0  0  0  0
   14.3264  -20.0923   25.4895 O   0  0  0  0  0  0  0  0  0  0  0  0
  2  1  1  1
  2  3  1  0
  4  2  1  0
  5  4  1  0
  5  6  1  1
  7  5  1  0
  7  8  2  0
  9  7  1  0
 10  9  1  0
 10 11  1  1
 11 12  1  0
 12 13  2  0
 12 20  1  0
 13 14  1  0
 14 15  1  0
 15 16  2  0
 16 17  1  0
 18 17  2  0
 19 18  1  0
 20 19  2  0
 20 15  1  0
 21 10  1  0
 22 21  2  0
 23 21  1  0
 24 25  1  6
 24 23  1  0
 25 26  1  0
 26 27  1  0
 27 28  1  0
 28 29  1  0
 30 24  1  0
 31 30  1  0
 32 30  2  0
M  END
$$$$
