LWK.pdb
     RDKit          3D

 32 33  0  0  1  0  0  0  0  0999 V2000
    7.0473  -12.5152   19.1883 C   0  0  0  0  0  0  0  0  0  0  0  0
    7.2401  -13.9991   19.4900 C   0  0  1  0  0  0  0  0  0  0  0  0
    7.7124  -14.6209   18.1691 C   0  0  0  0  0  0  0  0  0  0  0  0
    8.3396  -14.2194   20.4825 C   0  0  0  0  0  0  0  0  0  0  0  0
    8.4651  -15.6588   20.9192 C   0  0  2  0  0  0  0  0  0  0  0  0
    7.2164  -16.3352   21.0177 N   0  0  0  0  0  0  0  0  0  0  0  0
    9.1504  -15.6547   22.2357 C   0  0  0  0  0  0  0  0  0  0  0  0
   10.2042  -14.9777   22.3536 O   0  0  0  0  0  0  0  0  0  0  0  0
    8.6329  -16.3996   23.3498 N   0  0  0  0  0  0  0  0  0  0  0  0
    9.3492  -16.4970   24.5774 C   0  0  1  0  0  0  0  0  0  0  0  0
    8.4404  -16.6095   25.7848 C   0  0  0  0  0  0  0  0  0  0  0  0
    7.4001  -15.5868   25.8390 C   0  0  0  0  0  0  0  0  0  0  0  0
    6.0797  -15.7072   25.5151 C   0  0  0  0  0  0  0  0  0  0  0  0
    5.4879  -14.5167   25.7147 N   0  0  0  0  0  0  0  0  0  0  0  0
    6.3964  -13.6233   26.1621 C   0  0  0  0  0  0  0  0  0  0  0  0
    6.3535  -12.2945   26.5210 C   0  0  0  0  0  0  0  0  0  0  0  0
    7.4640  -11.6010   26.9576 C   0  0  0  0  0  0  0  0  0  0  0  0
    8.6702  -12.2673   27.0384 C   0  0  0  0  0  0  0  0  0  0  0  0
    8.7210  -13.5935   26.6820 C   0  0  0  0  0  0  0  0  0  0  0  0
    7.5933  -14.2827   26.2427 C   0  0  0  0  0  0  0  0  0  0  0  0
   10.2608  -17.6745   24.6231 C   0  0  0  0  0  0  0  0  0  0  0  0
    9.7567  -18.7994   24.3890 O   0  0  0  0  0  0  0  0  0  0  0  0
   11.6467  -17.5632   24.9160 N   0  0  0  0  0  0  0  0  0  0  0  0
   12.5673  -18.7013   24.8691 C   0  0  1  0  0  0  0  0  0  0  0  0
   13.8940  -18.2998   24.3337 C   0  0  0  0  0  0  0  0  0  0  0  0
   14.0390  -18.6935   22.8914 C   0  0  0  0  0  0  0  0  0  0  0  0
   14.1881  -17.4606   22.0010 C   0  0  0  0  0  0  0  0  0  0  0  0
   14.1388  -17.9724   20.5596 C   0  0  0  0  0  0  0  0  0  0  0  0
   14.1086  -16.8540   19.6371 N   0  0  0  0  0  0  0  0  0  0  0  0
   12.6788  -19.3614   26.1661 C   0  0  0  0  0  0  0  0  0  0  0  0
   13.3060  -20.5346   26.4740 O   0  0  0  0  0  0  0  0  0  0  0  0
   12.1089  -18.7633   27.1545 O   0  0  0  0  0  0  0  0  0  0  0  0
  2  1  1  6
  2  3  1  0
  4  2  1  0
  5  4  1  0
  5  6  1  1
  7  5  1  0
  7  8  2  0
  9  7  1  0
 10  9  1  0
 10 11  1  1
 11 12  1  0
 12 13  2  0
 12 20  1  0
 13 14  1  0
 14 15  1  0
 15 16  2  0
 16 17  1  0
 18 17  2  0
 19 18  1  0
 20 19  2  0
 20 15  1  0
 21 10  1  0
 22 21  2  0
 23 21  1  0
 24 25  1  1
 24 23  1  0
 25 26  1  0
 26 27  1  0
 27 28  1  0
 28 29  1  0
 30 24  1  0
 31 30  1  0
 32 30  2  0
M  END
$$$$
