LWK.pdb
     RDKit          3D

 32 33  0  0  1  0  0  0  0  0999 V2000
    7.1973  -12.2602   19.5027 C   0  0  0  0  0  0  0  0  0  0  0  0
    7.4430  -13.7538   19.6996 C   0  0  1  0  0  0  0  0  0  0  0  0
    8.3120  -14.1798   18.5089 C   0  0  0  0  0  0  0  0  0  0  0  0
    8.2494  -14.0198   20.9331 C   0  0  0  0  0  0  0  0  0  0  0  0
    8.5113  -15.4880   21.1655 C   0  0  2  0  0  0  0  0  0  0  0  0
    7.3363  -16.2904   21.1207 N   0  0  0  0  0  0  0  0  0  0  0  0
    9.1625  -15.6077   22.4938 C   0  0  0  0  0  0  0  0  0  0  0  0
   10.2153  -14.9502   22.6996 O   0  0  0  0  0  0  0  0  0  0  0  0
    8.6141  -16.4480   23.5219 N   0  0  0  0  0  0  0  0  0  0  0  0
    9.2494  -16.5841   24.7899 C   0  0  1  0  0  0  0  0  0  0  0  0
    8.2684  -16.5891   25.9449 C   0  0  0  0  0  0  0  0  0  0  0  0
    7.3331  -15.4684   25.9311 C   0  0  0  0  0  0  0  0  0  0  0  0
    6.0188  -15.4698   25.5633 C   0  0  0  0  0  0  0  0  0  0  0  0
    5.5412  -14.2213   25.7059 N   0  0  0  0  0  0  0  0  0  0  0  0
    6.5182  -13.4066   26.1592 C   0  0  0  0  0  0  0  0  0  0  0  0
    6.5950  -12.0688   26.4768 C   0  0  0  0  0  0  0  0  0  0  0  0
    7.7536  -11.4731   26.9326 C   0  0  0  0  0  0  0  0  0  0  0  0
    8.8846  -12.2511   27.0767 C   0  0  0  0  0  0  0  0  0  0  0  0
    8.8159  -13.5869   26.7619 C   0  0  0  0  0  0  0  0  0  0  0  0
    7.6408  -14.1768   26.3027 C   0  0  0  0  0  0  0  0  0  0  0  0
   10.0458  -17.8378   24.9059 C   0  0  0  0  0  0  0  0  0  0  0  0
    9.4709  -18.9122   24.6066 O   0  0  0  0  0  0  0  0  0  0  0  0
   11.4006  -17.8514   25.3340 N   0  0  0  0  0  0  0  0  0  0  0  0
   12.1781  -19.0831   25.4867 C   0  0  1  0  0  0  0  0  0  0  0  0
   13.5334  -18.9420   24.8942 C   0  0  0  0  0  0  0  0  0  0  0  0
   13.4549  -18.5390   23.4493 C   0  0  0  0  0  0  0  0  0  0  0  0
   14.8515  -18.3864   22.8482 C   0  0  0  0  0  0  0  0  0  0  0  0
   14.6405  -18.0602   21.3679 C   0  0  0  0  0  0  0  0  0  0  0  0
   15.9164  -17.7935   20.7323 N   0  0  0  0  0  0  0  0  0  0  0  0
   12.2331  -19.5196   26.8784 C   0  0  0  0  0  0  0  0  0  0  0  0
   12.5803  -20.7436   27.3745 O   0  0  0  0  0  0  0  0  0  0  0  0
   11.9092  -18.6376   27.7597 O   0  0  0  0  0  0  0  0  0  0  0  0
  2  1  1  6
  2  3  1  0
  4  2  1  0
  5  4  1  0
  5  6  1  1
  7  5  1  0
  7  8  2  0
  9  7  1  0
 10  9  1  0
 10 11  1  1
 11 12  1  0
 12 13  2  0
 12 20  1  0
 13 14  1  0
 14 15  1  0
 15 16  2  0
 16 17  1  0
 18 17  2  0
 19 18  1  0
 20 19  2  0
 20 15  1  0
 21 10  1  0
 22 21  2  0
 23 21  1  0
 24 25  1  1
 24 23  1  0
 25 26  1  0
 26 27  1  0
 27 28  1  0
 28 29  1  0
 30 24  1  0
 31 30  1  0
 32 30  2  0
M  END
$$$$
