TWR.pdb
     RDKit          3D

 33 34  0  0  1  0  0  0  0  0999 V2000
   23.7735  -22.6385  -13.1583 C   0  0  0  0  0  0  0  0  0  0  0  0
   22.6648  -21.6760  -12.7742 C   0  0  1  0  0  0  0  0  0  0  0  0
   21.4111  -22.3222  -12.9271 O   0  0  0  0  0  0  0  0  0  0  0  0
   22.8320  -21.0737  -11.4104 C   0  0  2  0  0  0  0  0  0  0  0  0
   21.7033  -20.2054  -11.1535 N   0  0  0  0  0  0  0  0  0  0  0  0
   24.1134  -20.3396  -11.2493 C   0  0  0  0  0  0  0  0  0  0  0  0
   24.1566  -19.1239  -11.4909 O   0  0  0  0  0  0  0  0  0  0  0  0
   25.2832  -21.0315  -10.8159 N   0  0  0  0  0  0  0  0  0  0  0  0
   26.6007  -20.4631  -10.7814 C   0  0  1  0  0  0  0  0  0  0  0  0
   27.4913  -20.9336   -9.6595 C   0  0  0  0  0  0  0  0  0  0  0  0
   27.1765  -20.4137   -8.3360 C   0  0  0  0  0  0  0  0  0  0  0  0
   25.9798  -19.9329   -7.8975 C   0  0  0  0  0  0  0  0  0  0  0  0
   26.0993  -19.5621   -6.5875 N   0  0  0  0  0  0  0  0  0  0  0  0
   27.3501  -19.8019   -6.1923 C   0  0  0  0  0  0  0  0  0  0  0  0
   27.9841  -19.5955   -4.9692 C   0  0  0  0  0  0  0  0  0  0  0  0
   29.3158  -19.9063   -4.7722 C   0  0  0  0  0  0  0  0  0  0  0  0
   29.9982  -20.4372   -5.8553 C   0  0  0  0  0  0  0  0  0  0  0  0
   29.3796  -20.6433   -7.0642 C   0  0  0  0  0  0  0  0  0  0  0  0
   28.0489  -20.3294   -7.2467 C   0  0  0  0  0  0  0  0  0  0  0  0
   27.3535  -20.8961  -12.0373 C   0  0  0  0  0  0  0  0  0  0  0  0
   27.5576  -22.1232  -12.2151 O   0  0  0  0  0  0  0  0  0  0  0  0
   25.8136  -21.5602  -19.5243 N   0  0  0  0  0  0  0  0  0  0  0  0
   25.1518  -22.4100  -18.5919 C   0  0  0  0  0  0  0  0  0  0  0  0
   24.9115  -23.6833  -18.8722 N   0  0  0  0  0  0  0  0  0  0  0  0
   24.7141  -21.9280  -17.3140 N   0  0  0  0  0  0  0  0  0  0  0  0
   24.8229  -20.5681  -16.9129 C   0  0  0  0  0  0  0  0  0  0  0  0
   26.1541  -20.1953  -16.3148 C   0  0  0  0  0  0  0  0  0  0  0  0
   26.2809  -20.3068  -14.8330 C   0  0  0  0  0  0  0  0  0  0  0  0
   27.6313  -19.8061  -14.3478 C   0  0  2  0  0  0  0  0  0  0  0  0
   27.8144  -19.9687  -12.9708 N   0  0  0  0  0  0  0  0  0  0  0  0
   28.1322  -18.6326  -15.0767 C   0  0  0  0  0  0  0  0  0  0  0  0
   28.1694  -17.3656  -14.6255 O   0  0  0  0  0  0  0  0  0  0  0  0
   28.5793  -18.8814  -16.2574 O   0  0  0  0  0  0  0  0  0  0  0  0
  2  1  1  1
  3  2  1  0
  4  5  1  6
  4  2  1  0
  6  4  1  0
  7  6  2  0
  8  6  1  0
  9 20  1  0
  9  8  1  0
  9 10  1  1
 11 10  1  0
 12 11  2  0
 13 14  1  0
 13 12  1  0
 14 19  2  0
 15 16  2  0
 15 14  1  0
 16 17  1  0
 17 18  2  0
 19 18  1  0
 19 11  1  0
 20 21  2  0
 23 22  1  0
 23 25  1  0
 24 23  2  0
 26 25  1  0
 26 27  1  0
 27 28  1  0
 29 28  1  1
 30 20  1  0
 30 29  1  0
 31 29  1  0
 31 32  1  0
 33 31  2  0
M  END
$$$$
