TWR.pdb
     RDKit          3D

 33 34  0  0  1  0  0  0  0  0999 V2000
   25.8915  -22.1612  -17.3896 C   0  0  0  0  0  0  0  0  0  0  0  0
   25.1697  -22.1788  -16.0547 C   0  0  1  0  0  0  0  0  0  0  0  0
   23.8459  -22.6522  -16.2454 O   0  0  0  0  0  0  0  0  0  0  0  0
   25.8966  -22.9372  -14.9838 C   0  0  2  0  0  0  0  0  0  0  0  0
   25.9516  -24.3310  -15.3689 N   0  0  0  0  0  0  0  0  0  0  0  0
   25.2834  -22.7822  -13.6396 C   0  0  0  0  0  0  0  0  0  0  0  0
   24.5753  -23.6915  -13.1817 O   0  0  0  0  0  0  0  0  0  0  0  0
   25.5132  -21.5951  -12.8826 N   0  0  0  0  0  0  0  0  0  0  0  0
   24.9024  -21.3048  -11.6165 C   0  0  1  0  0  0  0  0  0  0  0  0
   25.6001  -20.2694  -10.7713 C   0  0  0  0  0  0  0  0  0  0  0  0
   26.9133  -20.6417  -10.2634 C   0  0  0  0  0  0  0  0  0  0  0  0
   27.8346  -21.4481  -10.8604 C   0  0  0  0  0  0  0  0  0  0  0  0
   28.9429  -21.5270  -10.0645 N   0  0  0  0  0  0  0  0  0  0  0  0
   28.7367  -20.7834   -8.9769 C   0  0  0  0  0  0  0  0  0  0  0  0
   29.5388  -20.5375   -7.8649 C   0  0  0  0  0  0  0  0  0  0  0  0
   29.1206  -19.7320   -6.8232 C   0  0  0  0  0  0  0  0  0  0  0  0
   27.8565  -19.1750   -6.9355 C   0  0  0  0  0  0  0  0  0  0  0  0
   27.0602  -19.4132   -8.0289 C   0  0  0  0  0  0  0  0  0  0  0  0
   27.4908  -20.2188   -9.0625 C   0  0  0  0  0  0  0  0  0  0  0  0
   23.5269  -20.6907  -11.8660 C   0  0  0  0  0  0  0  0  0  0  0  0
   23.4140  -19.8358  -12.7800 O   0  0  0  0  0  0  0  0  0  0  0  0
   17.1886  -24.8752   -7.7104 N   0  0  0  0  0  0  0  0  0  0  0  0
   18.4986  -24.4007   -7.4133 C   0  0  0  0  0  0  0  0  0  0  0  0
   19.0603  -24.6255   -6.2336 N   0  0  0  0  0  0  0  0  0  0  0  0
   19.2652  -23.6586   -8.3716 N   0  0  0  0  0  0  0  0  0  0  0  0
   18.9185  -23.5679   -9.7477 C   0  0  0  0  0  0  0  0  0  0  0  0
   19.8780  -22.7628  -10.5844 C   0  0  0  0  0  0  0  0  0  0  0  0
   20.2337  -21.4048  -10.0809 C   0  0  0  0  0  0  0  0  0  0  0  0
   21.0790  -20.6393  -11.0856 C   0  0  2  0  0  0  0  0  0  0  0  0
   22.4150  -21.0528  -11.1067 N   0  0  0  0  0  0  0  0  0  0  0  0
   20.6862  -19.2331  -11.2508 C   0  0  0  0  0  0  0  0  0  0  0  0
   21.0251  -18.2075  -10.4486 O   0  0  0  0  0  0  0  0  0  0  0  0
   19.9521  -18.9955  -12.2806 O   0  0  0  0  0  0  0  0  0  0  0  0
  2  1  1  6
  3  2  1  0
  4  5  1  6
  4  2  1  0
  6  4  1  0
  7  6  2  0
  8  6  1  0
  9 20  1  0
  9  8  1  0
  9 10  1  6
 11 10  1  0
 12 11  2  0
 13 14  1  0
 13 12  1  0
 14 19  2  0
 15 16  2  0
 15 14  1  0
 16 17  1  0
 17 18  2  0
 19 18  1  0
 19 11  1  0
 20 21  2  0
 23 22  1  0
 23 25  1  0
 24 23  2  0
 26 25  1  0
 26 27  1  0
 27 28  1  0
 29 28  1  1
 30 20  1  0
 30 29  1  0
 31 29  1  0
 31 32  1  0
 33 31  2  0
M  END
$$$$
