TWR.pdb
     RDKit          3D

 33 34  0  0  1  0  0  0  0  0999 V2000
   27.6325  -18.7329  -14.6416 C   0  0  0  0  0  0  0  0  0  0  0  0
   26.8936  -19.4381  -13.5191 C   0  0  1  0  0  0  0  0  0  0  0  0
   25.7915  -20.1496  -14.0596 O   0  0  0  0  0  0  0  0  0  0  0  0
   27.7719  -20.3087  -12.6700 C   0  0  2  0  0  0  0  0  0  0  0  0
   28.3507  -21.3329  -13.5126 N   0  0  0  0  0  0  0  0  0  0  0  0
   27.0560  -20.9126  -11.5168 C   0  0  0  0  0  0  0  0  0  0  0  0
   26.9329  -22.1448  -11.4504 O   0  0  0  0  0  0  0  0  0  0  0  0
   26.5185  -20.0770  -10.4931 N   0  0  0  0  0  0  0  0  0  0  0  0
   25.8414  -20.5562   -9.3217 C   0  0  1  0  0  0  0  0  0  0  0  0
   25.8281  -19.6199   -8.1400 C   0  0  0  0  0  0  0  0  0  0  0  0
   27.1049  -19.4260   -7.4669 C   0  0  0  0  0  0  0  0  0  0  0  0
   28.1561  -18.6679   -7.8863 C   0  0  0  0  0  0  0  0  0  0  0  0
   29.1565  -18.7372   -6.9576 N   0  0  0  0  0  0  0  0  0  0  0  0
   28.7537  -19.5247   -5.9597 C   0  0  0  0  0  0  0  0  0  0  0  0
   29.3928  -19.9256   -4.7887 C   0  0  0  0  0  0  0  0  0  0  0  0
   28.7910  -20.7730   -3.8784 C   0  0  0  0  0  0  0  0  0  0  0  0
   27.5121  -21.2098   -4.1854 C   0  0  0  0  0  0  0  0  0  0  0  0
   26.8759  -20.8188   -5.3382 C   0  0  0  0  0  0  0  0  0  0  0  0
   27.4882  -19.9713   -6.2380 C   0  0  0  0  0  0  0  0  0  0  0  0
   24.3609  -20.7336   -9.6504 C   0  0  0  0  0  0  0  0  0  0  0  0
   23.8729  -20.0499  -10.5849 O   0  0  0  0  0  0  0  0  0  0  0  0
   18.9780  -25.4900   -6.7531 N   0  0  0  0  0  0  0  0  0  0  0  0
   18.0195  -24.4571   -6.5433 C   0  0  0  0  0  0  0  0  0  0  0  0
   16.9520  -24.6537   -5.7820 N   0  0  0  0  0  0  0  0  0  0  0  0
   18.1633  -23.1637   -7.1461 N   0  0  0  0  0  0  0  0  0  0  0  0
   19.2582  -22.8083   -7.9809 C   0  0  0  0  0  0  0  0  0  0  0  0
   20.6148  -23.0512   -7.3732 C   0  0  0  0  0  0  0  0  0  0  0  0
   21.6163  -21.9536   -7.5025 C   0  0  0  0  0  0  0  0  0  0  0  0
   22.1791  -21.8731   -8.9120 C   0  0  2  0  0  0  0  0  0  0  0  0
   23.5547  -21.6222   -8.9401 N   0  0  0  0  0  0  0  0  0  0  0  0
   21.2521  -21.2956   -9.8950 C   0  0  0  0  0  0  0  0  0  0  0  0
   20.5776  -21.9638  -10.8483 O   0  0  0  0  0  0  0  0  0  0  0  0
   21.0877  -20.0230   -9.7987 O   0  0  0  0  0  0  0  0  0  0  0  0
  2  1  1  6
  3  2  1  0
  4  5  1  6
  4  2  1  0
  6  4  1  0
  7  6  2  0
  8  6  1  0
  9 20  1  0
  9  8  1  0
  9 10  1  1
 11 10  1  0
 12 11  2  0
 13 14  1  0
 13 12  1  0
 14 19  2  0
 15 16  2  0
 15 14  1  0
 16 17  1  0
 17 18  2  0
 19 18  1  0
 19 11  1  0
 20 21  2  0
 23 22  1  0
 23 25  1  0
 24 23  2  0
 26 25  1  0
 26 27  1  0
 27 28  1  0
 29 28  1  1
 30 20  1  0
 30 29  1  0
 31 29  1  0
 31 32  1  0
 33 31  2  0
M  END
$$$$
