TWR.pdb
     RDKit          3D

 33 34  0  0  1  0  0  0  0  0999 V2000
   29.2162  -18.3166  -14.5287 C   0  0  0  0  0  0  0  0  0  0  0  0
   28.1074  -19.0524  -13.7990 C   0  0  1  0  0  0  0  0  0  0  0  0
   26.8972  -18.9143  -14.5264 O   0  0  0  0  0  0  0  0  0  0  0  0
   28.4296  -20.4861  -13.4971 C   0  0  2  0  0  0  0  0  0  0  0  0
   28.6757  -21.1716  -14.7475 N   0  0  0  0  0  0  0  0  0  0  0  0
   27.3675  -21.1716  -12.7166 C   0  0  0  0  0  0  0  0  0  0  0  0
   26.5246  -21.8637  -13.3070 O   0  0  0  0  0  0  0  0  0  0  0  0
   27.3233  -21.0347  -11.2974 N   0  0  0  0  0  0  0  0  0  0  0  0
   26.2907  -21.5733  -10.4583 C   0  0  1  0  0  0  0  0  0  0  0  0
   26.6957  -21.8979   -9.0427 C   0  0  0  0  0  0  0  0  0  0  0  0
   26.9651  -20.7560   -8.1798 C   0  0  0  0  0  0  0  0  0  0  0  0
   26.5395  -19.4728   -8.3463 C   0  0  0  0  0  0  0  0  0  0  0  0
   26.9933  -18.7122   -7.3054 N   0  0  0  0  0  0  0  0  0  0  0  0
   27.6964  -19.4938   -6.4852 C   0  0  0  0  0  0  0  0  0  0  0  0
   28.3719  -19.2120   -5.3000 C   0  0  0  0  0  0  0  0  0  0  0  0
   29.0626  -20.1833   -4.6011 C   0  0  0  0  0  0  0  0  0  0  0  0
   29.0529  -21.4614   -5.1368 C   0  0  0  0  0  0  0  0  0  0  0  0
   28.3891  -21.7465   -6.3050 C   0  0  0  0  0  0  0  0  0  0  0  0
   27.7026  -20.7671   -6.9921 C   0  0  0  0  0  0  0  0  0  0  0  0
   25.2022  -20.5171  -10.2825 C   0  0  0  0  0  0  0  0  0  0  0  0
   25.5485  -19.3552   -9.9525 O   0  0  0  0  0  0  0  0  0  0  0  0
   20.5294  -16.9586  -15.2637 N   0  0  0  0  0  0  0  0  0  0  0  0
   21.7790  -16.5716  -14.6992 C   0  0  0  0  0  0  0  0  0  0  0  0
   22.1599  -15.3019  -14.6774 N   0  0  0  0  0  0  0  0  0  0  0  0
   22.6795  -17.5342  -14.1340 N   0  0  0  0  0  0  0  0  0  0  0  0
   22.9342  -18.8042  -14.7207 C   0  0  0  0  0  0  0  0  0  0  0  0
   22.5314  -19.9801  -13.8699 C   0  0  0  0  0  0  0  0  0  0  0  0
   23.5223  -20.4501  -12.8592 C   0  0  0  0  0  0  0  0  0  0  0  0
   22.9204  -20.4948  -11.4645 C   0  0  2  0  0  0  0  0  0  0  0  0
   23.8540  -20.8165  -10.4739 N   0  0  0  0  0  0  0  0  0  0  0  0
   21.5326  -20.9762  -11.4261 C   0  0  0  0  0  0  0  0  0  0  0  0
   20.4373  -20.2414  -11.1605 O   0  0  0  0  0  0  0  0  0  0  0  0
   21.3886  -22.2284  -11.6855 O   0  0  0  0  0  0  0  0  0  0  0  0
  2  1  1  6
  3  2  1  0
  4  5  1  6
  4  2  1  0
  6  4  1  0
  7  6  2  0
  8  6  1  0
  9 20  1  0
  9  8  1  0
  9 10  1  1
 11 10  1  0
 12 11  2  0
 13 14  1  0
 13 12  1  0
 14 19  2  0
 15 16  2  0
 15 14  1  0
 16 17  1  0
 17 18  2  0
 19 18  1  0
 19 11  1  0
 20 21  2  0
 23 22  1  0
 23 25  1  0
 24 23  2  0
 26 25  1  0
 26 27  1  0
 27 28  1  0
 29 28  1  6
 30 20  1  0
 30 29  1  0
 31 29  1  0
 31 32  1  0
 33 31  2  0
M  END
$$$$
