TWR.pdb
     RDKit          3D

 33 34  0  0  1  0  0  0  0  0999 V2000
   26.2921  -22.5690  -12.7938 C   0  0  0  0  0  0  0  0  0  0  0  0
   25.6042  -22.3224  -11.4637 C   0  0  1  0  0  0  0  0  0  0  0  0
   25.8823  -23.4020  -10.5863 O   0  0  0  0  0  0  0  0  0  0  0  0
   25.9307  -20.9925  -10.8511 C   0  0  2  0  0  0  0  0  0  0  0  0
   25.2652  -20.9048   -9.5691 N   0  0  0  0  0  0  0  0  0  0  0  0
   25.5639  -19.8438  -11.7188 C   0  0  0  0  0  0  0  0  0  0  0  0
   24.4555  -19.3043  -11.5834 O   0  0  0  0  0  0  0  0  0  0  0  0
   26.4849  -19.3657  -12.6977 N   0  0  0  0  0  0  0  0  0  0  0  0
   26.1912  -18.3452  -13.6635 C   0  0  1  0  0  0  0  0  0  0  0  0
   27.3844  -17.6805  -14.3020 C   0  0  0  0  0  0  0  0  0  0  0  0
   27.0908  -16.7377  -15.3724 C   0  0  0  0  0  0  0  0  0  0  0  0
   26.4021  -15.5661  -15.2792 C   0  0  0  0  0  0  0  0  0  0  0  0
   26.3654  -14.9695  -16.5082 N   0  0  0  0  0  0  0  0  0  0  0  0
   27.0201  -15.7439  -17.3742 C   0  0  0  0  0  0  0  0  0  0  0  0
   27.2614  -15.5985  -18.7384 C   0  0  0  0  0  0  0  0  0  0  0  0
   27.9629  -16.5425  -19.4634 C   0  0  0  0  0  0  0  0  0  0  0  0
   28.4196  -17.6499  -18.7663 C   0  0  0  0  0  0  0  0  0  0  0  0
   28.1852  -17.7999  -17.4213 C   0  0  0  0  0  0  0  0  0  0  0  0
   27.4841  -16.8489  -16.7095 C   0  0  0  0  0  0  0  0  0  0  0  0
   25.4663  -18.9844  -14.8456 C   0  0  0  0  0  0  0  0  0  0  0  0
   25.8939  -20.0821  -15.2826 O   0  0  0  0  0  0  0  0  0  0  0  0
   20.9770  -23.4952  -16.1236 N   0  0  0  0  0  0  0  0  0  0  0  0
   19.9594  -22.5100  -15.9702 C   0  0  0  0  0  0  0  0  0  0  0  0
   18.7638  -22.6646  -16.5220 N   0  0  0  0  0  0  0  0  0  0  0  0
   20.1819  -21.3095  -15.2178 N   0  0  0  0  0  0  0  0  0  0  0  0
   21.3742  -21.0564  -14.4853 C   0  0  0  0  0  0  0  0  0  0  0  0
   22.1283  -19.8272  -14.9201 C   0  0  0  0  0  0  0  0  0  0  0  0
   22.5868  -19.7858  -16.3387 C   0  0  0  0  0  0  0  0  0  0  0  0
   23.5882  -18.6664  -16.5705 C   0  0  2  0  0  0  0  0  0  0  0  0
   24.3607  -18.3783  -15.4407 N   0  0  0  0  0  0  0  0  0  0  0  0
   23.1169  -17.6221  -17.4906 C   0  0  0  0  0  0  0  0  0  0  0  0
   23.1560  -17.6622  -18.8349 O   0  0  0  0  0  0  0  0  0  0  0  0
   22.6156  -16.5846  -16.9177 O   0  0  0  0  0  0  0  0  0  0  0  0
  2  1  1  6
  3  2  1  0
  4  5  1  1
  4  2  1  0
  6  4  1  0
  7  6  2  0
  8  6  1  0
  9 20  1  0
  9  8  1  0
  9 10  1  6
 11 10  1  0
 12 11  2  0
 13 14  1  0
 13 12  1  0
 14 19  2  0
 15 16  2  0
 15 14  1  0
 16 17  1  0
 17 18  2  0
 19 18  1  0
 19 11  1  0
 20 21  2  0
 23 22  1  0
 23 25  1  0
 24 23  2  0
 26 25  1  0
 26 27  1  0
 27 28  1  0
 29 28  1  1
 30 20  1  0
 30 29  1  0
 31 29  1  0
 31 32  1  0
 33 31  2  0
M  END
$$$$
