TWR.pdb
     RDKit          3D

 33 34  0  0  1  0  0  0  0  0999 V2000
   28.2372  -18.6041  -15.9852 C   0  0  0  0  0  0  0  0  0  0  0  0
   27.4362  -19.2486  -14.8688 C   0  0  1  0  0  0  0  0  0  0  0  0
   26.0794  -19.3564  -15.2692 O   0  0  0  0  0  0  0  0  0  0  0  0
   27.9972  -20.5586  -14.4001 C   0  0  2  0  0  0  0  0  0  0  0  0
   27.8570  -21.5237  -15.4692 N   0  0  0  0  0  0  0  0  0  0  0  0
   27.3610  -21.0534  -13.1522 C   0  0  0  0  0  0  0  0  0  0  0  0
   26.3599  -21.7820  -13.2231 O   0  0  0  0  0  0  0  0  0  0  0  0
   27.9033  -20.6932  -11.8829 N   0  0  0  0  0  0  0  0  0  0  0  0
   27.2924  -20.9961  -10.6198 C   0  0  1  0  0  0  0  0  0  0  0  0
   27.9911  -20.4461   -9.4021 C   0  0  0  0  0  0  0  0  0  0  0  0
   27.2961  -20.6237   -8.1348 C   0  0  0  0  0  0  0  0  0  0  0  0
   26.1531  -21.3292   -7.9081 C   0  0  0  0  0  0  0  0  0  0  0  0
   25.8425  -21.2632   -6.5788 N   0  0  0  0  0  0  0  0  0  0  0  0
   26.7705  -20.5295   -5.9634 C   0  0  0  0  0  0  0  0  0  0  0  0
   26.9109  -20.1539   -4.6294 C   0  0  0  0  0  0  0  0  0  0  0  0
   27.9583  -19.3635   -4.1967 C   0  0  0  0  0  0  0  0  0  0  0  0
   28.8706  -18.9578   -5.1579 C   0  0  0  0  0  0  0  0  0  0  0  0
   28.7384  -19.3242   -6.4750 C   0  0  0  0  0  0  0  0  0  0  0  0
   27.6881  -20.1147   -6.8930 C   0  0  0  0  0  0  0  0  0  0  0  0
   25.9178  -20.3333  -10.5696 C   0  0  0  0  0  0  0  0  0  0  0  0
   25.8638  -19.0852  -10.4348 O   0  0  0  0  0  0  0  0  0  0  0  0
   20.0900  -18.3280  -14.6860 N   0  0  0  0  0  0  0  0  0  0  0  0
   21.2908  -18.3471  -15.4524 C   0  0  0  0  0  0  0  0  0  0  0  0
   21.6417  -17.3147  -16.2066 N   0  0  0  0  0  0  0  0  0  0  0  0
   22.1696  -19.4805  -15.4456 N   0  0  0  0  0  0  0  0  0  0  0  0
   22.0993  -20.5176  -14.4754 C   0  0  0  0  0  0  0  0  0  0  0  0
   22.6218  -20.1394  -13.1142 C   0  0  0  0  0  0  0  0  0  0  0  0
   22.8065  -21.2472  -12.1328 C   0  0  0  0  0  0  0  0  0  0  0  0
   23.3938  -20.7436  -10.8247 C   0  0  2  0  0  0  0  0  0  0  0  0
   24.7425  -21.0774  -10.6642 N   0  0  0  0  0  0  0  0  0  0  0  0
   22.4437  -20.7395   -9.7038 C   0  0  0  0  0  0  0  0  0  0  0  0
   21.3518  -19.9628   -9.5826 O   0  0  0  0  0  0  0  0  0  0  0  0
   22.7103  -21.5812   -8.7676 O   0  0  0  0  0  0  0  0  0  0  0  0
  2  1  1  6
  3  2  1  0
  4  5  1  6
  4  2  1  0
  6  4  1  0
  7  6  2  0
  8  6  1  0
  9 20  1  0
  9  8  1  0
  9 10  1  1
 11 10  1  0
 12 11  2  0
 13 14  1  0
 13 12  1  0
 14 19  2  0
 15 16  2  0
 15 14  1  0
 16 17  1  0
 17 18  2  0
 19 18  1  0
 19 11  1  0
 20 21  2  0
 23 22  1  0
 23 25  1  0
 24 23  2  0
 26 25  1  0
 26 27  1  0
 27 28  1  0
 29 28  1  6
 30 20  1  0
 30 29  1  0
 31 29  1  0
 31 32  1  0
 33 31  2  0
M  END
$$$$
