TWR.pdb
     RDKit          3D

 33 34  0  0  1  0  0  0  0  0999 V2000
   28.3306  -19.3221  -16.0658 C   0  0  0  0  0  0  0  0  0  0  0  0
   27.4573  -19.8227  -14.9300 C   0  0  1  0  0  0  0  0  0  0  0  0
   26.1285  -19.9865  -15.3994 O   0  0  0  0  0  0  0  0  0  0  0  0
   27.9821  -21.0599  -14.2635 C   0  0  2  0  0  0  0  0  0  0  0  0
   27.8914  -22.1574  -15.2022 N   0  0  0  0  0  0  0  0  0  0  0  0
   27.2763  -21.3853  -12.9973 C   0  0  0  0  0  0  0  0  0  0  0  0
   26.3401  -22.1984  -13.0104 O   0  0  0  0  0  0  0  0  0  0  0  0
   27.6786  -20.7669  -11.7764 N   0  0  0  0  0  0  0  0  0  0  0  0
   26.9928  -20.9133  -10.5239 C   0  0  1  0  0  0  0  0  0  0  0  0
   27.7771  -20.5278   -9.2953 C   0  0  0  0  0  0  0  0  0  0  0  0
   27.0382  -20.5344   -8.0403 C   0  0  0  0  0  0  0  0  0  0  0  0
   25.7862  -21.0232   -7.8182 C   0  0  0  0  0  0  0  0  0  0  0  0
   25.4671  -20.8540   -6.5001 N   0  0  0  0  0  0  0  0  0  0  0  0
   26.4965  -20.2683   -5.8873 C   0  0  0  0  0  0  0  0  0  0  0  0
   26.6749  -19.8720   -4.5638 C   0  0  0  0  0  0  0  0  0  0  0  0
   27.8351  -19.2582   -4.1325 C   0  0  0  0  0  0  0  0  0  0  0  0
   28.8217  -19.0528   -5.0839 C   0  0  0  0  0  0  0  0  0  0  0  0
   28.6526  -19.4408   -6.3906 C   0  0  0  0  0  0  0  0  0  0  0  0
   27.4893  -20.0537   -6.8074 C   0  0  0  0  0  0  0  0  0  0  0  0
   25.8046  -19.9546  -10.5016 C   0  0  0  0  0  0  0  0  0  0  0  0
   26.0127  -18.7433  -10.7628 O   0  0  0  0  0  0  0  0  0  0  0  0
   24.0101  -24.9036  -14.5554 N   0  0  0  0  0  0  0  0  0  0  0  0
   23.2061  -23.8907  -15.1533 C   0  0  0  0  0  0  0  0  0  0  0  0
   22.1257  -24.1969  -15.8580 N   0  0  0  0  0  0  0  0  0  0  0  0
   23.5294  -22.4995  -15.0234 N   0  0  0  0  0  0  0  0  0  0  0  0
   24.0295  -21.9224  -13.8239 C   0  0  0  0  0  0  0  0  0  0  0  0
   22.9729  -21.3514  -12.9147 C   0  0  0  0  0  0  0  0  0  0  0  0
   23.2788  -20.0440  -12.2657 C   0  0  0  0  0  0  0  0  0  0  0  0
   23.2545  -20.1526  -10.7500 C   0  0  2  0  0  0  0  0  0  0  0  0
   24.5165  -20.3924  -10.1967 N   0  0  0  0  0  0  0  0  0  0  0  0
   22.0295  -20.7606  -10.2126 C   0  0  0  0  0  0  0  0  0  0  0  0
   21.9565  -21.6980   -9.2501 O   0  0  0  0  0  0  0  0  0  0  0  0
   20.9369  -20.3223  -10.7323 O   0  0  0  0  0  0  0  0  0  0  0  0
  2  1  1  6
  3  2  1  0
  4  5  1  6
  4  2  1  0
  6  4  1  0
  7  6  2  0
  8  6  1  0
  9 20  1  0
  9  8  1  0
  9 10  1  1
 11 10  1  0
 12 11  2  0
 13 14  1  0
 13 12  1  0
 14 19  2  0
 15 16  2  0
 15 14  1  0
 16 17  1  0
 17 18  2  0
 19 18  1  0
 19 11  1  0
 20 21  2  0
 23 22  1  0
 23 25  1  0
 24 23  2  0
 26 25  1  0
 26 27  1  0
 27 28  1  0
 29 28  1  6
 30 20  1  0
 30 29  1  0
 31 29  1  0
 31 32  1  0
 33 31  2  0
M  END
$$$$
