TWR.pdb
     RDKit          3D

 33 34  0  0  1  0  0  0  0  0999 V2000
   29.1510  -24.1123  -20.0281 C   0  0  0  0  0  0  0  0  0  0  0  0
   28.3268  -23.5968  -18.8627 C   0  0  1  0  0  0  0  0  0  0  0  0
   27.0094  -24.1150  -18.9566 O   0  0  0  0  0  0  0  0  0  0  0  0
   28.9464  -23.8571  -17.5215 C   0  0  2  0  0  0  0  0  0  0  0  0
   29.1265  -25.2850  -17.3713 N   0  0  0  0  0  0  0  0  0  0  0  0
   28.1545  -23.3009  -16.3944 C   0  0  0  0  0  0  0  0  0  0  0  0
   27.4035  -24.0465  -15.7478 O   0  0  0  0  0  0  0  0  0  0  0  0
   28.2629  -21.9186  -16.0592 N   0  0  0  0  0  0  0  0  0  0  0  0
   27.5544  -21.2823  -14.9852 C   0  0  1  0  0  0  0  0  0  0  0  0
   28.0082  -19.8885  -14.6321 C   0  0  0  0  0  0  0  0  0  0  0  0
   27.4065  -19.3056  -13.4408 C   0  0  0  0  0  0  0  0  0  0  0  0
   27.1012  -17.9961  -13.2226 C   0  0  0  0  0  0  0  0  0  0  0  0
   26.5321  -17.8692  -11.9865 N   0  0  0  0  0  0  0  0  0  0  0  0
   26.4723  -19.0760  -11.4223 C   0  0  0  0  0  0  0  0  0  0  0  0
   25.9970  -19.4879  -10.1794 C   0  0  0  0  0  0  0  0  0  0  0  0
   26.0418  -20.8094   -9.7788 C   0  0  0  0  0  0  0  0  0  0  0  0
   26.5856  -21.7143  -10.6767 C   0  0  0  0  0  0  0  0  0  0  0  0
   27.0562  -21.3152  -11.9038 C   0  0  0  0  0  0  0  0  0  0  0  0
   27.0043  -19.9924  -12.2914 C   0  0  0  0  0  0  0  0  0  0  0  0
   26.1002  -21.0856  -15.4069 C   0  0  0  0  0  0  0  0  0  0  0  0
   25.8697  -20.6517  -16.5634 O   0  0  0  0  0  0  0  0  0  0  0  0
   24.3107  -25.1043  -17.6017 N   0  0  0  0  0  0  0  0  0  0  0  0
   24.9764  -25.7838  -16.5411 C   0  0  0  0  0  0  0  0  0  0  0  0
   26.0242  -26.5621  -16.7735 N   0  0  0  0  0  0  0  0  0  0  0  0
   24.5433  -25.6598  -15.1795 N   0  0  0  0  0  0  0  0  0  0  0  0
   23.4524  -24.8406  -14.7782 C   0  0  0  0  0  0  0  0  0  0  0  0
   23.4519  -23.4590  -15.3781 C   0  0  0  0  0  0  0  0  0  0  0  0
   22.8239  -22.3746  -14.5694 C   0  0  0  0  0  0  0  0  0  0  0  0
   23.6687  -21.1113  -14.5756 C   0  0  2  0  0  0  0  0  0  0  0  0
   25.0428  -21.3698  -14.5436 N   0  0  0  0  0  0  0  0  0  0  0  0
   23.0620  -19.9815  -13.8581 C   0  0  0  0  0  0  0  0  0  0  0  0
   22.4447  -18.9210  -14.4101 O   0  0  0  0  0  0  0  0  0  0  0  0
   23.1411  -20.0519  -12.5757 O   0  0  0  0  0  0  0  0  0  0  0  0
  2  1  1  6
  3  2  1  0
  4  5  1  1
  4  2  1  0
  6  4  1  0
  7  6  2  0
  8  6  1  0
  9 20  1  0
  9  8  1  0
  9 10  1  6
 11 10  1  0
 12 11  2  0
 13 14  1  0
 13 12  1  0
 14 19  2  0
 15 16  2  0
 15 14  1  0
 16 17  1  0
 17 18  2  0
 19 18  1  0
 19 11  1  0
 20 21  2  0
 23 22  1  0
 23 25  1  0
 24 23  2  0
 26 25  1  0
 26 27  1  0
 27 28  1  0
 29 28  1  1
 30 20  1  0
 30 29  1  0
 31 29  1  0
 31 32  1  0
 33 31  2  0
M  END
$$$$
