TWR.pdb
     RDKit          3D

 33 34  0  0  1  0  0  0  0  0999 V2000
   28.5473  -20.7803  -18.6055 C   0  0  0  0  0  0  0  0  0  0  0  0
   27.5982  -21.0127  -17.4443 C   0  0  1  0  0  0  0  0  0  0  0  0
   26.2803  -21.1768  -17.9434 O   0  0  0  0  0  0  0  0  0  0  0  0
   28.0097  -22.1388  -16.5427 C   0  0  2  0  0  0  0  0  0  0  0  0
   27.9617  -23.3708  -17.3002 N   0  0  0  0  0  0  0  0  0  0  0  0
   27.1783  -22.2381  -15.3155 C   0  0  0  0  0  0  0  0  0  0  0  0
   26.2647  -23.0750  -15.2615 O   0  0  0  0  0  0  0  0  0  0  0  0
   27.4350  -21.3769  -14.2075 N   0  0  0  0  0  0  0  0  0  0  0  0
   26.6825  -21.3749  -12.9852 C   0  0  1  0  0  0  0  0  0  0  0  0
   27.2552  -20.5493  -11.8612 C   0  0  0  0  0  0  0  0  0  0  0  0
   26.4322  -20.4452  -10.6642 C   0  0  0  0  0  0  0  0  0  0  0  0
   25.0735  -20.3760  -10.5962 C   0  0  0  0  0  0  0  0  0  0  0  0
   24.6939  -20.3074   -9.2850 N   0  0  0  0  0  0  0  0  0  0  0  0
   25.7897  -20.3335   -8.5254 C   0  0  0  0  0  0  0  0  0  0  0  0
   25.9523  -20.2787   -7.1430 C   0  0  0  0  0  0  0  0  0  0  0  0
   27.1999  -20.3060   -6.5501 C   0  0  0  0  0  0  0  0  0  0  0  0
   28.2915  -20.3910   -7.3998 C   0  0  0  0  0  0  0  0  0  0  0  0
   28.1386  -20.4452   -8.7637 C   0  0  0  0  0  0  0  0  0  0  0  0
   26.8868  -20.4181   -9.3424 C   0  0  0  0  0  0  0  0  0  0  0  0
   25.3257  -20.7252  -13.2470 C   0  0  0  0  0  0  0  0  0  0  0  0
   25.3047  -19.5474  -13.6845 O   0  0  0  0  0  0  0  0  0  0  0  0
   18.3426  -23.2160   -8.6640 N   0  0  0  0  0  0  0  0  0  0  0  0
   19.1498  -23.9087   -9.6118 C   0  0  0  0  0  0  0  0  0  0  0  0
   19.2406  -25.2313   -9.6015 N   0  0  0  0  0  0  0  0  0  0  0  0
   19.9005  -23.2096  -10.6140 N   0  0  0  0  0  0  0  0  0  0  0  0
   19.5646  -21.9070  -11.0748 C   0  0  0  0  0  0  0  0  0  0  0  0
   20.4994  -21.3497  -12.1162 C   0  0  0  0  0  0  0  0  0  0  0  0
   21.9462  -21.6797  -11.9671 C   0  0  0  0  0  0  0  0  0  0  0  0
   22.7818  -21.0392  -13.0631 C   0  0  2  0  0  0  0  0  0  0  0  0
   24.1311  -21.4033  -13.0080 N   0  0  0  0  0  0  0  0  0  0  0  0
   22.3446  -19.6871  -13.4368 C   0  0  0  0  0  0  0  0  0  0  0  0
   22.5097  -18.5639  -12.7146 O   0  0  0  0  0  0  0  0  0  0  0  0
   21.7565  -19.6066  -14.5786 O   0  0  0  0  0  0  0  0  0  0  0  0
  2  1  1  6
  3  2  1  0
  4  5  1  6
  4  2  1  0
  6  4  1  0
  7  6  2  0
  8  6  1  0
  9 20  1  0
  9  8  1  0
  9 10  1  1
 11 10  1  0
 12 11  2  0
 13 14  1  0
 13 12  1  0
 14 19  2  0
 15 16  2  0
 15 14  1  0
 16 17  1  0
 17 18  2  0
 19 18  1  0
 19 11  1  0
 20 21  2  0
 23 22  1  0
 23 25  1  0
 24 23  2  0
 26 25  1  0
 26 27  1  0
 27 28  1  0
 29 28  1  1
 30 20  1  0
 30 29  1  0
 31 29  1  0
 31 32  1  0
 33 31  2  0
M  END
$$$$
