TWR.pdb
     RDKit          3D

 33 34  0  0  1  0  0  0  0  0999 V2000
   27.8938  -19.4907  -16.5816 C   0  0  0  0  0  0  0  0  0  0  0  0
   26.9916  -20.0046  -15.4748 C   0  0  1  0  0  0  0  0  0  0  0  0
   25.7594  -20.4291  -16.0354 O   0  0  0  0  0  0  0  0  0  0  0  0
   27.6239  -21.0645  -14.6220 C   0  0  2  0  0  0  0  0  0  0  0  0
   27.8445  -22.2374  -15.4403 N   0  0  0  0  0  0  0  0  0  0  0  0
   26.8214  -21.4011  -13.4179 C   0  0  0  0  0  0  0  0  0  0  0  0
   25.9602  -22.2908  -13.4858 O   0  0  0  0  0  0  0  0  0  0  0  0
   27.0458  -20.7055  -12.1929 N   0  0  0  0  0  0  0  0  0  0  0  0
   26.3320  -20.9530  -10.9724 C   0  0  1  0  0  0  0  0  0  0  0  0
   26.8580  -20.2479   -9.7479 C   0  0  0  0  0  0  0  0  0  0  0  0
   26.2209  -20.6013   -8.4868 C   0  0  0  0  0  0  0  0  0  0  0  0
   25.0285  -21.2356   -8.3099 C   0  0  0  0  0  0  0  0  0  0  0  0
   24.8009  -21.3956   -6.9717 N   0  0  0  0  0  0  0  0  0  0  0  0
   25.8297  -20.8744   -6.3023 C   0  0  0  0  0  0  0  0  0  0  0  0
   26.0809  -20.7714   -4.9360 C   0  0  0  0  0  0  0  0  0  0  0  0
   27.2237  -20.1706   -4.4441 C   0  0  0  0  0  0  0  0  0  0  0  0
   28.1162  -19.6707   -5.3791 C   0  0  0  0  0  0  0  0  0  0  0  0
   27.8749  -19.7686   -6.7277 C   0  0  0  0  0  0  0  0  0  0  0  0
   26.7302  -20.3721   -7.2051 C   0  0  0  0  0  0  0  0  0  0  0  0
   24.9138  -20.4056  -11.1153 C   0  0  0  0  0  0  0  0  0  0  0  0
   24.7641  -19.2679  -11.6273 O   0  0  0  0  0  0  0  0  0  0  0  0
   19.5609  -23.6465   -6.0641 N   0  0  0  0  0  0  0  0  0  0  0  0
   18.9507  -24.2044   -7.2243 C   0  0  0  0  0  0  0  0  0  0  0  0
   18.3179  -25.3684   -7.1762 N   0  0  0  0  0  0  0  0  0  0  0  0
   18.9958  -23.5367   -8.4928 N   0  0  0  0  0  0  0  0  0  0  0  0
   19.6067  -22.2672   -8.6860 C   0  0  0  0  0  0  0  0  0  0  0  0
   20.9687  -22.3178   -9.3272 C   0  0  0  0  0  0  0  0  0  0  0  0
   21.6784  -21.0179   -9.5028 C   0  0  0  0  0  0  0  0  0  0  0  0
   22.4212  -20.9605  -10.8274 C   0  0  2  0  0  0  0  0  0  0  0  0
   23.8025  -21.1322  -10.6899 N   0  0  0  0  0  0  0  0  0  0  0  0
   21.8355  -20.0307  -11.8029 C   0  0  0  0  0  0  0  0  0  0  0  0
   21.4043  -20.3353  -13.0405 O   0  0  0  0  0  0  0  0  0  0  0  0
   21.7330  -18.8146  -11.3948 O   0  0  0  0  0  0  0  0  0  0  0  0
  2  1  1  6
  3  2  1  0
  4  5  1  6
  4  2  1  0
  6  4  1  0
  7  6  2  0
  8  6  1  0
  9 20  1  0
  9  8  1  0
  9 10  1  1
 11 10  1  0
 12 11  2  0
 13 14  1  0
 13 12  1  0
 14 19  2  0
 15 16  2  0
 15 14  1  0
 16 17  1  0
 17 18  2  0
 19 18  1  0
 19 11  1  0
 20 21  2  0
 23 22  1  0
 23 25  1  0
 24 23  2  0
 26 25  1  0
 26 27  1  0
 27 28  1  0
 29 28  1  1
 30 20  1  0
 30 29  1  0
 31 29  1  0
 31 32  1  0
 33 31  2  0
M  END
$$$$
