TWR.pdb
     RDKit          3D

 33 34  0  0  1  0  0  0  0  0999 V2000
   27.8076  -16.7912  -15.4418 C   0  0  0  0  0  0  0  0  0  0  0  0
   26.9490  -17.8869  -14.8372 C   0  0  1  0  0  0  0  0  0  0  0  0
   25.8399  -18.1340  -15.6868 O   0  0  0  0  0  0  0  0  0  0  0  0
   27.7073  -19.1398  -14.5124 C   0  0  2  0  0  0  0  0  0  0  0  0
   28.2722  -19.6621  -15.7380 N   0  0  0  0  0  0  0  0  0  0  0  0
   26.8760  -20.1660  -13.8320 C   0  0  0  0  0  0  0  0  0  0  0  0
   26.5350  -21.1854  -14.4504 O   0  0  0  0  0  0  0  0  0  0  0  0
   26.4777  -19.9775  -12.4752 N   0  0  0  0  0  0  0  0  0  0  0  0
   25.5613  -20.8271  -11.7692 C   0  0  1  0  0  0  0  0  0  0  0  0
   25.7688  -20.9243  -10.2790 C   0  0  0  0  0  0  0  0  0  0  0  0
   27.1344  -21.1786   -9.8415 C   0  0  0  0  0  0  0  0  0  0  0  0
   28.0887  -21.9070  -10.4851 C   0  0  0  0  0  0  0  0  0  0  0  0
   29.2406  -21.8845   -9.7498 N   0  0  0  0  0  0  0  0  0  0  0  0
   29.0292  -21.1536   -8.6547 C   0  0  0  0  0  0  0  0  0  0  0  0
   29.8653  -20.8317   -7.5880 C   0  0  0  0  0  0  0  0  0  0  0  0
   29.4354  -20.0577   -6.5274 C   0  0  0  0  0  0  0  0  0  0  0  0
   28.1238  -19.6123   -6.5729 C   0  0  0  0  0  0  0  0  0  0  0  0
   27.2938  -19.9260   -7.6213 C   0  0  0  0  0  0  0  0  0  0  0  0
   27.7365  -20.6989   -8.6745 C   0  0  0  0  0  0  0  0  0  0  0  0
   24.1563  -20.2424  -11.8943 C   0  0  0  0  0  0  0  0  0  0  0  0
   24.0248  -18.9938  -11.8418 O   0  0  0  0  0  0  0  0  0  0  0  0
   19.0194  -16.5547  -15.2162 N   0  0  0  0  0  0  0  0  0  0  0  0
   18.3935  -17.8272  -15.0795 C   0  0  0  0  0  0  0  0  0  0  0  0
   17.0771  -17.9376  -14.9670 N   0  0  0  0  0  0  0  0  0  0  0  0
   19.1559  -19.0417  -15.0542 N   0  0  0  0  0  0  0  0  0  0  0  0
   20.5648  -19.0836  -15.2426 C   0  0  0  0  0  0  0  0  0  0  0  0
   21.1579  -20.4682  -15.2320 C   0  0  0  0  0  0  0  0  0  0  0  0
   22.3532  -20.6814  -14.3659 C   0  0  0  0  0  0  0  0  0  0  0  0
   21.9564  -21.0528  -12.9466 C   0  0  2  0  0  0  0  0  0  0  0  0
   23.0365  -21.0567  -12.0580 N   0  0  0  0  0  0  0  0  0  0  0  0
   20.8664  -22.0351  -12.8670 C   0  0  0  0  0  0  0  0  0  0  0  0
   19.5474  -21.7701  -12.8789 O   0  0  0  0  0  0  0  0  0  0  0  0
   21.2497  -23.2609  -12.7872 O   0  0  0  0  0  0  0  0  0  0  0  0
  2  1  1  6
  3  2  1  0
  4  5  1  6
  4  2  1  0
  6  4  1  0
  7  6  2  0
  8  6  1  0
  9 20  1  0
  9  8  1  0
  9 10  1  1
 11 10  1  0
 12 11  2  0
 13 14  1  0
 13 12  1  0
 14 19  2  0
 15 16  2  0
 15 14  1  0
 16 17  1  0
 17 18  2  0
 19 18  1  0
 19 11  1  0
 20 21  2  0
 23 22  1  0
 23 25  1  0
 24 23  2  0
 26 25  1  0
 26 27  1  0
 27 28  1  0
 29 28  1  6
 30 20  1  0
 30 29  1  0
 31 29  1  0
 31 32  1  0
 33 31  2  0
M  END
$$$$
