FIP.pdb
     RDKit          3D

 27 28  0  0  1  0  0  0  0  0999 V2000
   28.3523  -18.3031  -15.6980 N   0  0  0  0  0  0  0  0  0  0  0  0
   27.1929  -18.1171  -14.8693 C   0  0  1  0  0  0  0  0  0  0  0  0
   26.1333  -17.2524  -15.5080 C   0  0  0  0  0  0  0  0  0  0  0  0
   26.5875  -15.8997  -15.8400 C   0  0  0  0  0  0  0  0  0  0  0  0
   26.7638  -15.4875  -17.1434 C   0  0  0  0  0  0  0  0  0  0  0  0
   27.1882  -14.2257  -17.4775 C   0  0  0  0  0  0  0  0  0  0  0  0
   27.4447  -13.3437  -16.4408 C   0  0  0  0  0  0  0  0  0  0  0  0
   27.2764  -13.7315  -15.1388 C   0  0  0  0  0  0  0  0  0  0  0  0
   26.8506  -14.9994  -14.8240 C   0  0  0  0  0  0  0  0  0  0  0  0
   26.6599  -19.3812  -14.3203 C   0  0  0  0  0  0  0  0  0  0  0  0
   26.7282  -20.4010  -15.0533 O   0  0  0  0  0  0  0  0  0  0  0  0
   26.6034  -20.3914   -8.9643 C   0  0  0  0  0  0  0  0  0  0  0  0
   26.7530  -20.6329  -10.4478 C   0  0  0  0  0  0  0  0  0  0  0  0
   25.3562  -20.6507  -11.0469 C   0  0  2  0  0  0  0  0  0  0  0  0
   24.6376  -21.8013  -10.4094 C   0  0  0  0  0  0  0  0  0  0  0  0
   25.4197  -20.7336  -12.5590 C   0  0  2  0  0  0  0  0  0  0  0  0
   26.0876  -19.5112  -13.0428 N   0  0  0  0  0  0  0  0  0  0  0  0
   24.0490  -20.6933  -13.1044 C   0  0  0  0  0  0  0  0  0  0  0  0
   23.4654  -19.5419  -13.0227 O   0  0  0  0  0  0  0  0  0  0  0  0
   23.3199  -21.7283  -13.6933 N   0  0  0  0  0  0  0  0  0  0  0  0
   23.6249  -23.1532  -13.8446 C   0  0  0  0  0  0  0  0  0  0  0  0
   23.0378  -23.4933  -15.2046 C   0  0  0  0  0  0  0  0  0  0  0  0
   21.7516  -22.7341  -15.1885 C   0  0  0  0  0  0  0  0  0  0  0  0
   22.0081  -21.5518  -14.3221 C   0  0  1  0  0  0  0  0  0  0  0  0
   20.9408  -21.4804  -13.2924 C   0  0  0  0  0  0  0  0  0  0  0  0
   21.1085  -21.8005  -12.0894 O   0  0  0  0  0  0  0  0  0  0  0  0
   19.6914  -21.0336  -13.6906 O   0  0  0  0  0  0  0  0  0  0  0  0
  2  1  1  6
  3  2  1  0
  4  5  2  0
  4  3  1  0
  6  5  1  0
  7  6  2  0
  8  7  1  0
  8  9  2  0
  9  4  1  0
 10  2  1  0
 11 10  2  0
 13 12  1  0
 14 13  1  0
 14 15  1  1
 16 14  1  0
 16 17  1  6
 17 10  1  0
 18 16  1  0
 19 18  2  0
 20 18  1  0
 21 20  1  0
 22 23  1  0
 22 21  1  0
 23 24  1  0
 24 20  1  0
 24 25  1  1
 25 27  1  0
 26 25  2  0
M  END
$$$$
