FIP.pdb
     RDKit          3D

 27 28  0  0  1  0  0  0  0  0999 V2000
   28.8097  -16.3409  -12.9903 N   0  0  0  0  0  0  0  0  0  0  0  0
   28.4407  -17.2166  -11.9120 C   0  0  1  0  0  0  0  0  0  0  0  0
   27.3734  -16.6416  -11.0128 C   0  0  0  0  0  0  0  0  0  0  0  0
   27.1485  -17.4110   -9.7864 C   0  0  0  0  0  0  0  0  0  0  0  0
   28.1133  -17.5260   -8.8088 C   0  0  0  0  0  0  0  0  0  0  0  0
   27.9246  -18.2411   -7.6526 C   0  0  0  0  0  0  0  0  0  0  0  0
   26.7008  -18.8672   -7.4826 C   0  0  0  0  0  0  0  0  0  0  0  0
   25.7280  -18.7665   -8.4404 C   0  0  0  0  0  0  0  0  0  0  0  0
   25.9356  -18.0458   -9.5917 C   0  0  0  0  0  0  0  0  0  0  0  0
   28.1481  -18.5955  -12.3551 C   0  0  0  0  0  0  0  0  0  0  0  0
   27.6414  -18.7376  -13.4974 O   0  0  0  0  0  0  0  0  0  0  0  0
   31.1446  -22.7058  -10.1843 C   0  0  0  0  0  0  0  0  0  0  0  0
   30.4895  -21.7489  -11.1520 C   0  0  0  0  0  0  0  0  0  0  0  0
   28.9973  -22.0374  -11.1341 C   0  0  2  0  0  0  0  0  0  0  0  0
   28.8448  -23.4940  -11.4530 C   0  0  0  0  0  0  0  0  0  0  0  0
   28.2603  -21.1229  -12.0922 C   0  0  2  0  0  0  0  0  0  0  0  0
   28.3989  -19.7450  -11.5855 N   0  0  0  0  0  0  0  0  0  0  0  0
   26.8182  -21.4324  -12.0447 C   0  0  0  0  0  0  0  0  0  0  0  0
   26.2228  -21.0812  -10.9514 O   0  0  0  0  0  0  0  0  0  0  0  0
   26.0302  -22.0428  -13.0225 N   0  0  0  0  0  0  0  0  0  0  0  0
   26.3890  -22.6364  -14.3129 C   0  0  0  0  0  0  0  0  0  0  0  0
   25.2086  -22.2795  -15.2014 C   0  0  0  0  0  0  0  0  0  0  0  0
   24.0504  -22.4905  -14.2821 C   0  0  0  0  0  0  0  0  0  0  0  0
   24.5775  -22.2061  -12.9201 C   0  0  1  0  0  0  0  0  0  0  0  0
   24.2418  -23.3502  -12.0352 C   0  0  0  0  0  0  0  0  0  0  0  0
   25.0611  -24.2446  -11.7088 O   0  0  0  0  0  0  0  0  0  0  0  0
   22.9479  -23.4274  -11.5463 O   0  0  0  0  0  0  0  0  0  0  0  0
  2  1  1  6
  3  2  1  0
  4  5  2  0
  4  3  1  0
  6  5  1  0
  7  6  2  0
  8  7  1  0
  8  9  2  0
  9  4  1  0
 10  2  1  0
 11 10  2  0
 13 12  1  0
 14 13  1  0
 14 15  1  6
 16 14  1  0
 16 17  1  1
 17 10  1  0
 18 16  1  0
 19 18  2  0
 20 18  1  0
 21 20  1  0
 22 23  1  0
 22 21  1  0
 23 24  1  0
 24 20  1  0
 24 25  1  1
 25 27  1  0
 26 25  2  0
M  END
$$$$
