FIP.pdb
     RDKit          3D

 27 28  0  0  1  0  0  0  0  0999 V2000
   24.7464  -22.1122  -12.0092 N   0  0  0  0  0  0  0  0  0  0  0  0
   24.9209  -20.9996  -11.1163 C   0  0  1  0  0  0  0  0  0  0  0  0
   23.6265  -20.3097  -10.7598 C   0  0  0  0  0  0  0  0  0  0  0  0
   22.8375  -19.8856  -11.9191 C   0  0  0  0  0  0  0  0  0  0  0  0
   23.2756  -18.9036  -12.7813 C   0  0  0  0  0  0  0  0  0  0  0  0
   22.5534  -18.4907  -13.8731 C   0  0  0  0  0  0  0  0  0  0  0  0
   21.3317  -19.1032  -14.0984 C   0  0  0  0  0  0  0  0  0  0  0  0
   20.8768  -20.0808  -13.2551 C   0  0  0  0  0  0  0  0  0  0  0  0
   21.6142  -20.4809  -12.1669 C   0  0  0  0  0  0  0  0  0  0  0  0
   25.7523  -21.3225   -9.9383 C   0  0  0  0  0  0  0  0  0  0  0  0
   25.3779  -22.2808   -9.2149 O   0  0  0  0  0  0  0  0  0  0  0  0
   30.7938  -21.9270  -10.8258 C   0  0  0  0  0  0  0  0  0  0  0  0
   29.4174  -22.0978  -10.2277 C   0  0  0  0  0  0  0  0  0  0  0  0
   29.2594  -21.0419   -9.1458 C   0  0  2  0  0  0  0  0  0  0  0  0
   30.3535  -21.2890   -8.1514 C   0  0  0  0  0  0  0  0  0  0  0  0
   27.8682  -21.0890   -8.5462 C   0  0  2  0  0  0  0  0  0  0  0  0
   26.9231  -20.6309   -9.5813 N   0  0  0  0  0  0  0  0  0  0  0  0
   27.7800  -20.1061   -7.4490 C   0  0  0  0  0  0  0  0  0  0  0  0
   27.4726  -18.9053   -7.8185 O   0  0  0  0  0  0  0  0  0  0  0  0
   27.9792  -20.3126   -6.0825 N   0  0  0  0  0  0  0  0  0  0  0  0
   28.3733  -21.5122   -5.3395 C   0  0  0  0  0  0  0  0  0  0  0  0
   27.5770  -21.4012   -4.0497 C   0  0  0  0  0  0  0  0  0  0  0  0
   27.6841  -19.9437   -3.7407 C   0  0  0  0  0  0  0  0  0  0  0  0
   27.8090  -19.2735   -5.0633 C   0  0  1  0  0  0  0  0  0  0  0  0
   28.9923  -18.3772   -5.0288 C   0  0  0  0  0  0  0  0  0  0  0  0
   30.0376  -18.5746   -5.6966 O   0  0  0  0  0  0  0  0  0  0  0  0
   28.9306  -17.2615   -4.2099 O   0  0  0  0  0  0  0  0  0  0  0  0
  2  1  1  1
  3  2  1  0
  4  5  2  0
  4  3  1  0
  6  5  1  0
  7  6  2  0
  8  7  1  0
  8  9  2  0
  9  4  1  0
 10  2  1  0
 11 10  2  0
 13 12  1  0
 14 13  1  0
 14 15  1  1
 16 14  1  0
 16 17  1  6
 17 10  1  0
 18 16  1  0
 19 18  2  0
 20 18  1  0
 21 20  1  0
 22 23  1  0
 22 21  1  0
 23 24  1  0
 24 20  1  0
 24 25  1  1
 25 27  1  0
 26 25  2  0
M  END
$$$$
