FIP.pdb
     RDKit          3D

 27 28  0  0  1  0  0  0  0  0999 V2000
   28.9878  -19.3370  -15.1984 N   0  0  0  0  0  0  0  0  0  0  0  0
   27.7801  -18.9699  -14.5109 C   0  0  1  0  0  0  0  0  0  0  0  0
   26.8232  -18.1747  -15.3655 C   0  0  0  0  0  0  0  0  0  0  0  0
   27.3520  -16.8824  -15.8089 C   0  0  0  0  0  0  0  0  0  0  0  0
   27.3672  -15.7777  -14.9848 C   0  0  0  0  0  0  0  0  0  0  0  0
   27.8575  -14.5577  -15.3788 C   0  0  0  0  0  0  0  0  0  0  0  0
   28.3544  -14.4562  -16.6677 C   0  0  0  0  0  0  0  0  0  0  0  0
   28.3493  -15.5403  -17.5034 C   0  0  0  0  0  0  0  0  0  0  0  0
   27.8541  -16.7538  -17.0908 C   0  0  0  0  0  0  0  0  0  0  0  0
   27.1363  -20.1048  -13.8174 C   0  0  0  0  0  0  0  0  0  0  0  0
   27.2455  -21.2401  -14.3477 O   0  0  0  0  0  0  0  0  0  0  0  0
   26.4927  -20.5418   -8.3905 C   0  0  0  0  0  0  0  0  0  0  0  0
   26.7239  -20.9734   -9.8194 C   0  0  0  0  0  0  0  0  0  0  0  0
   25.4147  -20.7823  -10.5677 C   0  0  2  0  0  0  0  0  0  0  0  0
   24.4100  -21.6674   -9.8940 C   0  0  0  0  0  0  0  0  0  0  0  0
   25.5910  -21.0737  -12.0447 C   0  0  2  0  0  0  0  0  0  0  0  0
   26.4171  -19.9933  -12.6146 N   0  0  0  0  0  0  0  0  0  0  0  0
   24.2801  -20.9830  -12.7162 C   0  0  0  0  0  0  0  0  0  0  0  0
   23.7502  -19.8030  -12.7164 O   0  0  0  0  0  0  0  0  0  0  0  0
   23.5570  -21.9979  -13.3460 N   0  0  0  0  0  0  0  0  0  0  0  0
   23.8845  -23.4062  -13.5827 C   0  0  0  0  0  0  0  0  0  0  0  0
   23.2733  -23.6821  -14.9466 C   0  0  0  0  0  0  0  0  0  0  0  0
   21.9741  -22.9501  -14.8608 C   0  0  0  0  0  0  0  0  0  0  0  0
   22.2283  -21.8127  -13.9358 C   0  0  1  0  0  0  0  0  0  0  0  0
   21.1833  -21.8189  -12.8810 C   0  0  0  0  0  0  0  0  0  0  0  0
   21.3898  -22.1789  -11.6955 O   0  0  0  0  0  0  0  0  0  0  0  0
   19.9102  -21.4020  -13.2342 O   0  0  0  0  0  0  0  0  0  0  0  0
  2  1  1  6
  3  2  1  0
  4  5  2  0
  4  3  1  0
  6  5  1  0
  7  6  2  0
  8  7  1  0
  8  9  2  0
  9  4  1  0
 10  2  1  0
 11 10  2  0
 13 12  1  0
 14 13  1  0
 14 15  1  1
 16 14  1  0
 16 17  1  6
 17 10  1  0
 18 16  1  0
 19 18  2  0
 20 18  1  0
 21 20  1  0
 22 23  1  0
 22 21  1  0
 23 24  1  0
 24 20  1  0
 24 25  1  1
 25 27  1  0
 26 25  2  0
M  END
$$$$
