FIP.pdb
     RDKit          3D

 27 28  0  0  1  0  0  0  0  0999 V2000
   24.2275  -20.7253  -10.1101 N   0  0  0  0  0  0  0  0  0  0  0  0
   25.4663  -20.2352  -10.6492 C   0  0  1  0  0  0  0  0  0  0  0  0
   26.6844  -20.8061   -9.9644 C   0  0  0  0  0  0  0  0  0  0  0  0
   26.9362  -20.2489   -8.6330 C   0  0  0  0  0  0  0  0  0  0  0  0
   26.2901  -20.7193   -7.5101 C   0  0  0  0  0  0  0  0  0  0  0  0
   26.5103  -20.2127   -6.2536 C   0  0  0  0  0  0  0  0  0  0  0  0
   27.4280  -19.1822   -6.1333 C   0  0  0  0  0  0  0  0  0  0  0  0
   28.0814  -18.6994   -7.2350 C   0  0  0  0  0  0  0  0  0  0  0  0
   27.8476  -19.2196   -8.4851 C   0  0  0  0  0  0  0  0  0  0  0  0
   25.5342  -20.3187  -12.1230 C   0  0  0  0  0  0  0  0  0  0  0  0
   25.0238  -21.3318  -12.6661 O   0  0  0  0  0  0  0  0  0  0  0  0
   24.4252  -17.3491  -16.5082 C   0  0  0  0  0  0  0  0  0  0  0  0
   25.9014  -17.5153  -16.2353 C   0  0  0  0  0  0  0  0  0  0  0  0
   26.0637  -17.7357  -14.7402 C   0  0  2  0  0  0  0  0  0  0  0  0
   27.4302  -17.2325  -14.3848 C   0  0  0  0  0  0  0  0  0  0  0  0
   25.8375  -19.1911  -14.3825 C   0  0  2  0  0  0  0  0  0  0  0  0
   26.1282  -19.3452  -12.9451 N   0  0  0  0  0  0  0  0  0  0  0  0
   26.8287  -20.0237  -15.0912 C   0  0  0  0  0  0  0  0  0  0  0  0
   28.0450  -19.8980  -14.6694 O   0  0  0  0  0  0  0  0  0  0  0  0
   26.6157  -20.9202  -16.1403 N   0  0  0  0  0  0  0  0  0  0  0  0
   25.3901  -21.2948  -16.8501 C   0  0  0  0  0  0  0  0  0  0  0  0
   25.5891  -22.7748  -17.1328 C   0  0  0  0  0  0  0  0  0  0  0  0
   27.0319  -22.8287  -17.5155 C   0  0  0  0  0  0  0  0  0  0  0  0
   27.6753  -21.7159  -16.7661 C   0  0  1  0  0  0  0  0  0  0  0  0
   28.4528  -20.8891  -17.7235 C   0  0  0  0  0  0  0  0  0  0  0  0
   28.0557  -19.7876  -18.1779 O   0  0  0  0  0  0  0  0  0  0  0  0
   29.6863  -21.3685  -18.1334 O   0  0  0  0  0  0  0  0  0  0  0  0
  2  1  1  1
  3  2  1  0
  4  5  2  0
  4  3  1  0
  6  5  1  0
  7  6  2  0
  8  7  1  0
  8  9  2  0
  9  4  1  0
 10  2  1  0
 11 10  2  0
 13 12  1  0
 14 13  1  0
 14 15  1  6
 16 14  1  0
 16 17  1  1
 17 10  1  0
 18 16  1  0
 19 18  2  0
 20 18  1  0
 21 20  1  0
 22 23  1  0
 22 21  1  0
 23 24  1  0
 24 20  1  0
 24 25  1  6
 25 27  1  0
 26 25  2  0
M  END
$$$$
