FIP.pdb
     RDKit          3D

 27 28  0  0  1  0  0  0  0  0999 V2000
   23.1334  -16.9329  -16.5383 N   0  0  0  0  0  0  0  0  0  0  0  0
   24.3026  -17.4512  -15.8826 C   0  0  1  0  0  0  0  0  0  0  0  0
   25.2051  -16.3751  -15.3296 C   0  0  0  0  0  0  0  0  0  0  0  0
   26.0075  -15.6891  -16.3455 C   0  0  0  0  0  0  0  0  0  0  0  0
   27.1227  -16.2696  -16.9104 C   0  0  0  0  0  0  0  0  0  0  0  0
   27.8889  -15.6459  -17.8632 C   0  0  0  0  0  0  0  0  0  0  0  0
   27.5043  -14.3756  -18.2594 C   0  0  0  0  0  0  0  0  0  0  0  0
   26.4003  -13.7797  -17.7119 C   0  0  0  0  0  0  0  0  0  0  0  0
   25.6455  -14.4202  -16.7590 C   0  0  0  0  0  0  0  0  0  0  0  0
   23.9984  -18.5157  -14.9040 C   0  0  0  0  0  0  0  0  0  0  0  0
   23.0339  -18.3191  -14.1212 O   0  0  0  0  0  0  0  0  0  0  0  0
   22.6458  -23.4853  -15.8793 C   0  0  0  0  0  0  0  0  0  0  0  0
   23.1093  -22.0607  -15.6864 C   0  0  0  0  0  0  0  0  0  0  0  0
   24.2851  -22.0933  -14.7238 C   0  0  2  0  0  0  0  0  0  0  0  0
   24.1291  -23.3413  -13.9084 C   0  0  0  0  0  0  0  0  0  0  0  0
   24.3378  -20.8255  -13.8948 C   0  0  2  0  0  0  0  0  0  0  0  0
   24.7140  -19.7210  -14.7965 N   0  0  0  0  0  0  0  0  0  0  0  0
   25.4295  -20.9370  -12.9080 C   0  0  0  0  0  0  0  0  0  0  0  0
   26.6205  -20.9333  -13.4126 O   0  0  0  0  0  0  0  0  0  0  0  0
   25.3348  -21.0385  -11.5187 N   0  0  0  0  0  0  0  0  0  0  0  0
   24.1663  -21.1252  -10.6392 C   0  0  0  0  0  0  0  0  0  0  0  0
   24.5919  -20.3323   -9.4143 C   0  0  0  0  0  0  0  0  0  0  0  0
   26.0140  -20.7570   -9.2457 C   0  0  0  0  0  0  0  0  0  0  0  0
   26.4909  -21.0747  -10.6189 C   0  0  1  0  0  0  0  0  0  0  0  0
   27.1002  -22.4286  -10.6059 C   0  0  0  0  0  0  0  0  0  0  0  0
   26.5404  -23.4509  -11.0742 O   0  0  0  0  0  0  0  0  0  0  0  0
   28.3588  -22.5624  -10.0427 O   0  0  0  0  0  0  0  0  0  0  0  0
  2  1  1  1
  3  2  1  0
  4  5  2  0
  4  3  1  0
  6  5  1  0
  7  6  2  0
  8  7  1  0
  8  9  2  0
  9  4  1  0
 10  2  1  0
 11 10  2  0
 13 12  1  0
 14 13  1  0
 14 15  1  1
 16 14  1  0
 16 17  1  6
 17 10  1  0
 18 16  1  0
 19 18  2  0
 20 18  1  0
 21 20  1  0
 22 23  1  0
 22 21  1  0
 23 24  1  0
 24 20  1  0
 24 25  1  1
 25 27  1  0
 26 25  2  0
M  END
$$$$
