FIP.pdb
     RDKit          3D

 27 28  0  0  1  0  0  0  0  0999 V2000
   25.3681  -21.1739   -7.0109 N   0  0  0  0  0  0  0  0  0  0  0  0
   26.1382  -20.5422   -8.0470 C   0  0  1  0  0  0  0  0  0  0  0  0
   27.6176  -20.4980   -7.7506 C   0  0  0  0  0  0  0  0  0  0  0  0
   27.9469  -19.9303   -6.4407 C   0  0  0  0  0  0  0  0  0  0  0  0
   27.7853  -18.5898   -6.1639 C   0  0  0  0  0  0  0  0  0  0  0  0
   28.0871  -18.0365   -4.9446 C   0  0  0  0  0  0  0  0  0  0  0  0
   28.5747  -18.8835   -3.9631 C   0  0  0  0  0  0  0  0  0  0  0  0
   28.7432  -20.2182   -4.2158 C   0  0  0  0  0  0  0  0  0  0  0  0
   28.4354  -20.7539   -5.4432 C   0  0  0  0  0  0  0  0  0  0  0  0
   25.8301  -21.0559   -9.3978 C   0  0  0  0  0  0  0  0  0  0  0  0
   25.8450  -22.3035   -9.5562 O   0  0  0  0  0  0  0  0  0  0  0  0
   22.4362  -21.9684  -13.4391 C   0  0  0  0  0  0  0  0  0  0  0  0
   23.2829  -20.7189  -13.4954 C   0  0  0  0  0  0  0  0  0  0  0  0
   23.6973  -20.3880  -12.0709 C   0  0  2  0  0  0  0  0  0  0  0  0
   23.4130  -18.9293  -11.8762 C   0  0  0  0  0  0  0  0  0  0  0  0
   25.1456  -20.7647  -11.8301 C   0  0  2  0  0  0  0  0  0  0  0  0
   25.5250  -20.2434  -10.5038 N   0  0  0  0  0  0  0  0  0  0  0  0
   25.9984  -20.0585  -12.8057 C   0  0  0  0  0  0  0  0  0  0  0  0
   26.0988  -18.7829  -12.6167 O   0  0  0  0  0  0  0  0  0  0  0  0
   26.7032  -20.5921  -13.8865 N   0  0  0  0  0  0  0  0  0  0  0  0
   26.8921  -21.9788  -14.3200 C   0  0  0  0  0  0  0  0  0  0  0  0
   28.3168  -21.9879  -14.8492 C   0  0  0  0  0  0  0  0  0  0  0  0
   28.3881  -20.6857  -15.5775 C   0  0  0  0  0  0  0  0  0  0  0  0
   27.4459  -19.7857  -14.8590 C   0  0  1  0  0  0  0  0  0  0  0  0
   26.5210  -19.1812  -15.8508 C   0  0  0  0  0  0  0  0  0  0  0  0
   25.3119  -19.5020  -15.9645 O   0  0  0  0  0  0  0  0  0  0  0  0
   27.0299  -18.2080  -16.6953 O   0  0  0  0  0  0  0  0  0  0  0  0
  2  1  1  1
  3  2  1  0
  4  5  2  0
  4  3  1  0
  6  5  1  0
  7  6  2  0
  8  7  1  0
  8  9  2  0
  9  4  1  0
 10  2  1  0
 11 10  2  0
 13 12  1  0
 14 13  1  0
 14 15  1  6
 16 14  1  0
 16 17  1  1
 17 10  1  0
 18 16  1  0
 19 18  2  0
 20 18  1  0
 21 20  1  0
 22 23  1  0
 22 21  1  0
 23 24  1  0
 24 20  1  0
 24 25  1  6
 25 27  1  0
 26 25  2  0
M  END
$$$$
