FIP.pdb
     RDKit          3D

 27 28  0  0  1  0  0  0  0  0999 V2000
   21.7099  -20.6525  -17.3347 N   0  0  0  0  0  0  0  0  0  0  0  0
   22.1320  -19.7307  -16.3161 C   0  0  1  0  0  0  0  0  0  0  0  0
   21.0194  -19.3204  -15.3821 C   0  0  0  0  0  0  0  0  0  0  0  0
   19.9660  -18.5276  -16.0210 C   0  0  0  0  0  0  0  0  0  0  0  0
   20.1297  -17.1888  -16.3050 C   0  0  0  0  0  0  0  0  0  0  0  0
   19.1569  -16.4270  -16.9028 C   0  0  0  0  0  0  0  0  0  0  0  0
   17.9649  -17.0539  -17.2263 C   0  0  0  0  0  0  0  0  0  0  0  0
   17.7805  -18.3826  -16.9535 C   0  0  0  0  0  0  0  0  0  0  0  0
   18.7663  -19.1290  -16.3544 C   0  0  0  0  0  0  0  0  0  0  0  0
   23.3557  -20.1629  -15.6096 C   0  0  0  0  0  0  0  0  0  0  0  0
   23.4914  -21.3946  -15.3946 O   0  0  0  0  0  0  0  0  0  0  0  0
   26.7133  -17.4669  -16.9515 C   0  0  0  0  0  0  0  0  0  0  0  0
   27.1051  -18.7718  -16.2995 C   0  0  0  0  0  0  0  0  0  0  0  0
   26.6802  -18.6955  -14.8421 C   0  0  2  0  0  0  0  0  0  0  0  0
   27.9300  -18.8493  -14.0291 C   0  0  0  0  0  0  0  0  0  0  0  0
   25.6208  -19.7351  -14.5348 C   0  0  2  0  0  0  0  0  0  0  0  0
   24.3657  -19.2902  -15.1682 N   0  0  0  0  0  0  0  0  0  0  0  0
   25.3626  -19.7486  -13.0819 C   0  0  0  0  0  0  0  0  0  0  0  0
   24.6434  -18.7647  -12.6486 O   0  0  0  0  0  0  0  0  0  0  0  0
   25.7883  -20.6821  -12.1348 N   0  0  0  0  0  0  0  0  0  0  0  0
   26.6415  -21.8656  -12.2683 C   0  0  0  0  0  0  0  0  0  0  0  0
   26.0213  -22.8545  -11.2949 C   0  0  0  0  0  0  0  0  0  0  0  0
   25.6864  -21.9796  -10.1315 C   0  0  0  0  0  0  0  0  0  0  0  0
   25.4190  -20.6382  -10.7173 C   0  0  1  0  0  0  0  0  0  0  0  0
   26.2407  -19.6347   -9.9945 C   0  0  0  0  0  0  0  0  0  0  0  0
   25.9609  -19.1955   -8.8515 O   0  0  0  0  0  0  0  0  0  0  0  0
   27.3799  -19.1614  -10.6251 O   0  0  0  0  0  0  0  0  0  0  0  0
  2  1  1  1
  3  2  1  0
  4  5  2  0
  4  3  1  0
  6  5  1  0
  7  6  2  0
  8  7  1  0
  8  9  2  0
  9  4  1  0
 10  2  1  0
 11 10  2  0
 13 12  1  0
 14 13  1  0
 14 15  1  1
 16 14  1  0
 16 17  1  6
 17 10  1  0
 18 16  1  0
 19 18  2  0
 20 18  1  0
 21 20  1  0
 22 23  1  0
 22 21  1  0
 23 24  1  0
 24 20  1  0
 24 25  1  1
 25 27  1  0
 26 25  2  0
M  END
$$$$
