FIP.pdb
     RDKit          3D

 27 28  0  0  1  0  0  0  0  0999 V2000
   28.1188  -18.3100  -16.1565 N   0  0  0  0  0  0  0  0  0  0  0  0
   27.0222  -18.0420  -15.2671 C   0  0  1  0  0  0  0  0  0  0  0  0
   26.0569  -17.0116  -15.8008 C   0  0  0  0  0  0  0  0  0  0  0  0
   26.6488  -15.6863  -15.9999 C   0  0  0  0  0  0  0  0  0  0  0  0
   26.9064  -15.1826  -17.2568 C   0  0  0  0  0  0  0  0  0  0  0  0
   27.4601  -13.9444  -17.4669 C   0  0  0  0  0  0  0  0  0  0  0  0
   27.7655  -13.1845  -16.3499 C   0  0  0  0  0  0  0  0  0  0  0  0
   27.5183  -13.6647  -15.0921 C   0  0  0  0  0  0  0  0  0  0  0  0
   26.9633  -14.9072  -14.9017 C   0  0  0  0  0  0  0  0  0  0  0  0
   26.3552  -19.2668  -14.7786 C   0  0  0  0  0  0  0  0  0  0  0  0
   26.2533  -20.2270  -15.5844 O   0  0  0  0  0  0  0  0  0  0  0  0
   26.8761  -20.9721   -9.6441 C   0  0  0  0  0  0  0  0  0  0  0  0
   26.7587  -21.0447  -11.1482 C   0  0  0  0  0  0  0  0  0  0  0  0
   25.3208  -20.7073  -11.5072 C   0  0  2  0  0  0  0  0  0  0  0  0
   24.4656  -21.7464  -10.8473 C   0  0  0  0  0  0  0  0  0  0  0  0
   25.1434  -20.6364  -13.0108 C   0  0  2  0  0  0  0  0  0  0  0  0
   25.8336  -19.4215  -13.4823 N   0  0  0  0  0  0  0  0  0  0  0  0
   23.7140  -20.4405  -13.3213 C   0  0  0  0  0  0  0  0  0  0  0  0
   23.2333  -19.2932  -12.9669 O   0  0  0  0  0  0  0  0  0  0  0  0
   22.8337  -21.3261  -13.9459 N   0  0  0  0  0  0  0  0  0  0  0  0
   23.0347  -22.6890  -14.4446 C   0  0  0  0  0  0  0  0  0  0  0  0
   22.1712  -22.7342  -15.6944 C   0  0  0  0  0  0  0  0  0  0  0  0
   20.9515  -21.9900  -15.2588 C   0  0  0  0  0  0  0  0  0  0  0  0
   21.4321  -21.0166  -14.2411 C   0  0  1  0  0  0  0  0  0  0  0  0
   20.5979  -21.1582  -13.0210 C   0  0  0  0  0  0  0  0  0  0  0  0
   20.9658  -21.7763  -11.9913 O   0  0  0  0  0  0  0  0  0  0  0  0
   19.3429  -20.5715  -13.0280 O   0  0  0  0  0  0  0  0  0  0  0  0
  2  1  1  6
  3  2  1  0
  4  5  2  0
  4  3  1  0
  6  5  1  0
  7  6  2  0
  8  7  1  0
  8  9  2  0
  9  4  1  0
 10  2  1  0
 11 10  2  0
 13 12  1  0
 14 13  1  0
 14 15  1  6
 16 14  1  0
 16 17  1  1
 17 10  1  0
 18 16  1  0
 19 18  2  0
 20 18  1  0
 21 20  1  0
 22 23  1  0
 22 21  1  0
 23 24  1  0
 24 20  1  0
 24 25  1  1
 25 27  1  0
 26 25  2  0
M  END
$$$$
