FIP.pdb
     RDKit          3D

 27 28  0  0  1  0  0  0  0  0999 V2000
   17.8795  -12.2735  -16.5672 N   0  0  0  0  0  0  0  0  0  0  0  0
   18.6415  -11.1884  -17.1217 C   0  0  1  0  0  0  0  0  0  0  0  0
   17.7886  -10.1417  -17.7965 C   0  0  0  0  0  0  0  0  0  0  0  0
   16.9576  -10.6607  -18.8858 C   0  0  0  0  0  0  0  0  0  0  0  0
   17.4953  -11.0460  -20.0950 C   0  0  0  0  0  0  0  0  0  0  0  0
   16.7362  -11.5347  -21.1289 C   0  0  0  0  0  0  0  0  0  0  0  0
   15.3701  -11.6364  -20.9245 C   0  0  0  0  0  0  0  0  0  0  0  0
   14.8145  -11.2596  -19.7316 C   0  0  0  0  0  0  0  0  0  0  0  0
   15.5909  -10.7724  -18.7079 C   0  0  0  0  0  0  0  0  0  0  0  0
   19.6204  -10.6187  -16.1727 C   0  0  0  0  0  0  0  0  0  0  0  0
   19.2903  -10.5798  -14.9596 O   0  0  0  0  0  0  0  0  0  0  0  0
   23.6158  -11.7283  -14.3684 C   0  0  0  0  0  0  0  0  0  0  0  0
   23.3847  -11.4552  -15.8358 C   0  0  0  0  0  0  0  0  0  0  0  0
   23.2276   -9.9520  -15.9975 C   0  0  2  0  0  0  0  0  0  0  0  0
   24.3190   -9.3233  -15.1849 C   0  0  0  0  0  0  0  0  0  0  0  0
   21.8351   -9.5096  -15.5946 C   0  0  2  0  0  0  0  0  0  0  0  0
   20.8838  -10.1232  -16.5396 N   0  0  0  0  0  0  0  0  0  0  0  0
   21.7162   -8.0510  -15.7848 C   0  0  0  0  0  0  0  0  0  0  0  0
   21.8484   -7.6498  -17.0074 O   0  0  0  0  0  0  0  0  0  0  0  0
   21.4767   -7.0683  -14.8222 N   0  0  0  0  0  0  0  0  0  0  0  0
   21.2407   -7.1733  -13.3801 C   0  0  0  0  0  0  0  0  0  0  0  0
   20.2251   -6.0747  -13.1119 C   0  0  0  0  0  0  0  0  0  0  0  0
   20.7320   -4.9637  -13.9719 C   0  0  0  0  0  0  0  0  0  0  0  0
   21.4096   -5.6339  -15.1146 C   0  0  1  0  0  0  0  0  0  0  0  0
   22.7740   -5.0651  -15.2542 C   0  0  0  0  0  0  0  0  0  0  0  0
   23.8204   -5.6669  -14.9072 O   0  0  0  0  0  0  0  0  0  0  0  0
   22.8897   -3.7969  -15.7998 O   0  0  0  0  0  0  0  0  0  0  0  0
  2  1  1  1
  3  2  1  0
  4  5  2  0
  4  3  1  0
  6  5  1  0
  7  6  2  0
  8  7  1  0
  8  9  2  0
  9  4  1  0
 10  2  1  0
 11 10  2  0
 13 12  1  0
 14 13  1  0
 14 15  1  1
 16 14  1  0
 16 17  1  6
 17 10  1  0
 18 16  1  0
 19 18  2  0
 20 18  1  0
 21 20  1  0
 22 23  1  0
 22 21  1  0
 23 24  1  0
 24 20  1  0
 24 25  1  1
 25 27  1  0
 26 25  2  0
M  END
$$$$
