EWE.pdb
     RDKit          3D

 33 34  0  0  1  0  0  0  0  0999 V2000
   29.1279  -22.0517  -16.3788 N   0  0  0  0  0  0  0  0  0  0  0  0
   27.7802  -21.5658  -16.5697 C   0  0  1  0  0  0  0  0  0  0  0  0
   27.1769  -22.1548  -17.7927 C   0  0  0  0  0  0  0  0  0  0  0  0
   27.6281  -21.4195  -19.0308 C   0  0  0  0  0  0  0  0  0  0  0  0
   26.6880  -20.3248  -19.3838 C   0  0  0  0  0  0  0  0  0  0  0  0
   25.4739  -20.5770  -19.4839 O   0  0  0  0  0  0  0  0  0  0  0  0
   27.0116  -21.8015  -15.3356 C   0  0  0  0  0  0  0  0  0  0  0  0
   26.0821  -22.6809  -15.2927 O   0  0  0  0  0  0  0  0  0  0  0  0
   27.1928  -19.0557  -19.5916 O   0  0  0  0  0  0  0  0  0  0  0  0
   27.2241  -21.0954  -14.1229 N   0  0  0  0  0  0  0  0  0  0  0  0
   26.4427  -21.3623  -12.9091 C   0  0  1  0  0  0  0  0  0  0  0  0
   27.2092  -20.6966  -11.8042 C   0  0  0  0  0  0  0  0  0  0  0  0
   26.5001  -20.5814  -10.5242 C   0  0  0  0  0  0  0  0  0  0  0  0
   25.1355  -20.5166  -10.3304 C   0  0  0  0  0  0  0  0  0  0  0  0
   24.9320  -20.3635   -9.0269 N   0  0  0  0  0  0  0  0  0  0  0  0
   26.1221  -20.3262   -8.3696 C   0  0  0  0  0  0  0  0  0  0  0  0
   26.4239  -20.1969   -7.0289 C   0  0  0  0  0  0  0  0  0  0  0  0
   27.7259  -20.2146   -6.6556 C   0  0  0  0  0  0  0  0  0  0  0  0
   28.7862  -20.3529   -7.5387 C   0  0  0  0  0  0  0  0  0  0  0  0
   28.4396  -20.4759   -8.8693 C   0  0  0  0  0  0  0  0  0  0  0  0
   27.1379  -20.4641   -9.2919 C   0  0  0  0  0  0  0  0  0  0  0  0
   25.0343  -21.0272  -13.0046 C   0  0  0  0  0  0  0  0  0  0  0  0
   24.7100  -19.8194  -13.2769 O   0  0  0  0  0  0  0  0  0  0  0  0
   23.9253  -21.9044  -12.8235 N   0  0  0  0  0  0  0  0  0  0  0  0
   22.5543  -21.4249  -12.9487 C   0  0  1  0  0  0  0  0  0  0  0  0
   21.5434  -22.5094  -13.0769 C   0  0  0  0  0  0  0  0  0  0  0  0
   20.2638  -22.0835  -13.7484 C   0  0  0  0  0  0  0  0  0  0  0  0
   19.2267  -21.9274  -12.7057 C   0  0  0  0  0  0  0  0  0  0  0  0
   18.8797  -20.8394  -12.1918 O   0  0  0  0  0  0  0  0  0  0  0  0
   22.2183  -20.4517  -11.8719 C   0  0  0  0  0  0  0  0  0  0  0  0
   21.3404  -19.4146  -11.9938 O   0  0  0  0  0  0  0  0  0  0  0  0
   18.5294  -23.0554  -12.2043 O   0  0  0  0  0  0  0  0  0  0  0  0
   22.7909  -20.6074  -10.7651 O   0  0  0  0  0  0  0  0  0  0  0  0
  2  1  1  1
  2  3  1  0
  3  4  1  0
  5  4  1  0
  5  9  1  0
  6  5  2  0
  7  2  1  0
  7  8  2  0
 10  7  1  0
 11 12  1  1
 11 10  1  0
 12 13  1  0
 13 14  2  0
 13 21  1  0
 14 15  1  0
 15 16  1  0
 16 17  2  0
 17 18  1  0
 19 18  2  0
 20 19  1  0
 21 20  2  0
 21 16  1  0
 22 11  1  0
 23 22  2  0
 24 22  1  0
 25 26  1  1
 25 24  1  0
 26 27  1  0
 28 27  1  0
 28 32  1  0
 29 28  2  0
 30 31  1  0
 30 25  1  0
 33 30  2  0
M  END
$$$$
