EWE.pdb
     RDKit          3D

 33 34  0  0  1  0  0  0  0  0999 V2000
   26.9018  -18.2081  -14.2804 N   0  0  0  0  0  0  0  0  0  0  0  0
   27.4514  -19.4618  -14.7442 C   0  0  1  0  0  0  0  0  0  0  0  0
   28.9363  -19.4216  -14.7326 C   0  0  0  0  0  0  0  0  0  0  0  0
   29.4561  -18.2662  -15.5524 C   0  0  0  0  0  0  0  0  0  0  0  0
   29.3271  -18.5330  -17.0080 C   0  0  0  0  0  0  0  0  0  0  0  0
   29.8276  -19.5690  -17.4812 O   0  0  0  0  0  0  0  0  0  0  0  0
   26.8643  -20.5581  -13.9550 C   0  0  0  0  0  0  0  0  0  0  0  0
   27.4458  -21.6953  -13.8671 O   0  0  0  0  0  0  0  0  0  0  0  0
   28.6535  -17.6187  -17.7947 O   0  0  0  0  0  0  0  0  0  0  0  0
   25.6389  -20.4560  -13.2462 N   0  0  0  0  0  0  0  0  0  0  0  0
   25.0848  -21.5700  -12.4671 C   0  0  1  0  0  0  0  0  0  0  0  0
   26.1835  -21.9637  -11.5241 C   0  0  0  0  0  0  0  0  0  0  0  0
   26.1954  -21.2564  -10.2380 C   0  0  0  0  0  0  0  0  0  0  0  0
   25.1245  -20.6589   -9.6057 C   0  0  0  0  0  0  0  0  0  0  0  0
   25.5901  -20.0916   -8.4987 N   0  0  0  0  0  0  0  0  0  0  0  0
   26.9297  -20.3020   -8.3940 C   0  0  0  0  0  0  0  0  0  0  0  0
   27.8430  -19.9258   -7.4299 C   0  0  0  0  0  0  0  0  0  0  0  0
   29.1350  -20.3032   -7.5821 C   0  0  0  0  0  0  0  0  0  0  0  0
   29.6067  -21.0472   -8.6532 C   0  0  0  0  0  0  0  0  0  0  0  0
   28.6608  -21.3991   -9.5952 C   0  0  0  0  0  0  0  0  0  0  0  0
   27.3448  -21.0406   -9.4821 C   0  0  0  0  0  0  0  0  0  0  0  0
   23.7888  -21.3106  -11.8689 C   0  0  0  0  0  0  0  0  0  0  0  0
   23.1924  -22.2671  -11.2629 O   0  0  0  0  0  0  0  0  0  0  0  0
   23.0677  -20.0809  -11.8737 N   0  0  0  0  0  0  0  0  0  0  0  0
   21.9978  -19.8361  -12.8331 C   0  0  1  0  0  0  0  0  0  0  0  0
   22.4771  -19.4646  -14.1921 C   0  0  0  0  0  0  0  0  0  0  0  0
   21.3763  -19.2659  -15.2014 C   0  0  0  0  0  0  0  0  0  0  0  0
   21.6194  -17.9862  -15.9016 C   0  0  0  0  0  0  0  0  0  0  0  0
   22.0848  -17.8754  -17.0590 O   0  0  0  0  0  0  0  0  0  0  0  0
   21.0210  -20.9608  -12.8568 C   0  0  0  0  0  0  0  0  0  0  0  0
   21.2408  -22.1828  -13.4222 O   0  0  0  0  0  0  0  0  0  0  0  0
   21.3233  -16.7501  -15.2737 O   0  0  0  0  0  0  0  0  0  0  0  0
   19.9098  -20.7612  -12.3071 O   0  0  0  0  0  0  0  0  0  0  0  0
  2  1  1  1
  2  3  1  0
  3  4  1  0
  5  4  1  0
  5  9  1  0
  6  5  2  0
  7  2  1  0
  7  8  2  0
 10  7  1  0
 11 12  1  1
 11 10  1  0
 12 13  1  0
 13 14  2  0
 13 21  1  0
 14 15  1  0
 15 16  1  0
 16 17  2  0
 17 18  1  0
 19 18  2  0
 20 19  1  0
 21 20  2  0
 21 16  1  0
 22 11  1  0
 23 22  2  0
 24 22  1  0
 25 26  1  6
 25 24  1  0
 26 27  1  0
 28 27  1  0
 28 32  1  0
 29 28  2  0
 30 31  1  0
 30 25  1  0
 33 30  2  0
M  END
$$$$
