EWE.pdb
     RDKit          3D

 33 34  0  0  1  0  0  0  0  0999 V2000
   28.0334  -20.7072  -16.4680 N   0  0  0  0  0  0  0  0  0  0  0  0
   27.1888  -21.8787  -16.5236 C   0  0  1  0  0  0  0  0  0  0  0  0
   27.9242  -23.0302  -17.1067 C   0  0  0  0  0  0  0  0  0  0  0  0
   28.3038  -22.7632  -18.5426 C   0  0  0  0  0  0  0  0  0  0  0  0
   29.6674  -22.1825  -18.6436 C   0  0  0  0  0  0  0  0  0  0  0  0
   29.8767  -21.2646  -19.4569 O   0  0  0  0  0  0  0  0  0  0  0  0
   26.6315  -22.1261  -15.1829 C   0  0  0  0  0  0  0  0  0  0  0  0
   25.7819  -23.0624  -14.9818 O   0  0  0  0  0  0  0  0  0  0  0  0
   30.6651  -22.6819  -17.8289 O   0  0  0  0  0  0  0  0  0  0  0  0
   26.9737  -21.3706  -14.0311 N   0  0  0  0  0  0  0  0  0  0  0  0
   26.2421  -21.4919  -12.7641 C   0  0  1  0  0  0  0  0  0  0  0  0
   27.2272  -21.0788  -11.7103 C   0  0  0  0  0  0  0  0  0  0  0  0
   26.6640  -20.8513  -10.3740 C   0  0  0  0  0  0  0  0  0  0  0  0
   25.3374  -20.6509  -10.0519 C   0  0  0  0  0  0  0  0  0  0  0  0
   25.2810  -20.4327   -8.7430 N   0  0  0  0  0  0  0  0  0  0  0  0
   26.5297  -20.4846   -8.2066 C   0  0  0  0  0  0  0  0  0  0  0  0
   26.9755  -20.3364   -6.9087 C   0  0  0  0  0  0  0  0  0  0  0  0
   28.3015  -20.4637   -6.6630 C   0  0  0  0  0  0  0  0  0  0  0  0
   29.2506  -20.7332   -7.6377 C   0  0  0  0  0  0  0  0  0  0  0  0
   28.7620  -20.8705   -8.9215 C   0  0  0  0  0  0  0  0  0  0  0  0
   27.4308  -20.7508   -9.2160 C   0  0  0  0  0  0  0  0  0  0  0  0
   24.9553  -20.8225  -12.7365 C   0  0  0  0  0  0  0  0  0  0  0  0
   24.9318  -19.5448  -12.6667 O   0  0  0  0  0  0  0  0  0  0  0  0
   23.6664  -21.4303  -12.7754 N   0  0  0  0  0  0  0  0  0  0  0  0
   22.4510  -20.6315  -12.6759 C   0  0  1  0  0  0  0  0  0  0  0  0
   21.8217  -20.3215  -13.9884 C   0  0  0  0  0  0  0  0  0  0  0  0
   22.7673  -19.7306  -15.0015 C   0  0  0  0  0  0  0  0  0  0  0  0
   22.1115  -18.5538  -15.6116 C   0  0  0  0  0  0  0  0  0  0  0  0
   20.8855  -18.3041  -15.5585 O   0  0  0  0  0  0  0  0  0  0  0  0
   21.4894  -21.2235  -11.7041 C   0  0  0  0  0  0  0  0  0  0  0  0
   21.5529  -22.4925  -11.2072 O   0  0  0  0  0  0  0  0  0  0  0  0
   22.8700  -17.5917  -16.3251 O   0  0  0  0  0  0  0  0  0  0  0  0
   20.5498  -20.4878  -11.3133 O   0  0  0  0  0  0  0  0  0  0  0  0
  2  1  1  1
  2  3  1  0
  3  4  1  0
  5  4  1  0
  5  9  1  0
  6  5  2  0
  7  2  1  0
  7  8  2  0
 10  7  1  0
 11 12  1  1
 11 10  1  0
 12 13  1  0
 13 14  2  0
 13 21  1  0
 14 15  1  0
 15 16  1  0
 16 17  2  0
 17 18  1  0
 19 18  2  0
 20 19  1  0
 21 20  2  0
 21 16  1  0
 22 11  1  0
 23 22  2  0
 24 22  1  0
 25 26  1  6
 25 24  1  0
 26 27  1  0
 28 27  1  0
 28 32  1  0
 29 28  2  0
 30 31  1  0
 30 25  1  0
 33 30  2  0
M  END
$$$$
