EWE.pdb
     RDKit          3D

 33 34  0  0  1  0  0  0  0  0999 V2000
   27.0907  -20.1169  -16.1006 N   0  0  0  0  0  0  0  0  0  0  0  0
   26.8093  -21.5337  -16.1499 C   0  0  1  0  0  0  0  0  0  0  0  0
   27.9367  -22.2726  -16.7739 C   0  0  0  0  0  0  0  0  0  0  0  0
   28.2268  -21.7535  -18.1609 C   0  0  0  0  0  0  0  0  0  0  0  0
   29.1603  -20.5986  -18.1231 C   0  0  0  0  0  0  0  0  0  0  0  0
   30.2986  -20.7546  -17.6459 O   0  0  0  0  0  0  0  0  0  0  0  0
   26.4522  -21.9939  -14.7971 C   0  0  0  0  0  0  0  0  0  0  0  0
   25.9367  -23.1501  -14.6061 O   0  0  0  0  0  0  0  0  0  0  0  0
   28.7341  -19.3821  -18.6200 O   0  0  0  0  0  0  0  0  0  0  0  0
   26.6392  -21.2202  -13.6221 N   0  0  0  0  0  0  0  0  0  0  0  0
   26.1114  -21.6324  -12.3157 C   0  0  1  0  0  0  0  0  0  0  0  0
   27.2329  -21.3810  -11.3511 C   0  0  0  0  0  0  0  0  0  0  0  0
   26.8294  -20.8938  -10.0266 C   0  0  0  0  0  0  0  0  0  0  0  0
   25.5885  -20.4174   -9.6565 C   0  0  0  0  0  0  0  0  0  0  0  0
   25.6785  -20.0350   -8.3877 N   0  0  0  0  0  0  0  0  0  0  0  0
   26.9392  -20.2478   -7.9240 C   0  0  0  0  0  0  0  0  0  0  0  0
   27.5090  -20.0266   -6.6864 C   0  0  0  0  0  0  0  0  0  0  0  0
   28.8086  -20.3626   -6.5047 C   0  0  0  0  0  0  0  0  0  0  0  0
   29.6134  -20.9170   -7.4887 C   0  0  0  0  0  0  0  0  0  0  0  0
   29.0046  -21.1182   -8.7113 C   0  0  0  0  0  0  0  0  0  0  0  0
   27.6945  -20.7946   -8.9400 C   0  0  0  0  0  0  0  0  0  0  0  0
   24.8258  -21.0566  -11.9682 C   0  0  0  0  0  0  0  0  0  0  0  0
   24.7952  -19.8651  -11.5021 O   0  0  0  0  0  0  0  0  0  0  0  0
   23.5459  -21.6740  -12.0813 N   0  0  0  0  0  0  0  0  0  0  0  0
   22.3801  -20.9203  -12.5262 C   0  0  1  0  0  0  0  0  0  0  0  0
   22.6098  -20.1249  -13.7628 C   0  0  0  0  0  0  0  0  0  0  0  0
   21.4145  -19.3260  -14.2132 C   0  0  0  0  0  0  0  0  0  0  0  0
   21.3824  -19.3396  -15.6917 C   0  0  0  0  0  0  0  0  0  0  0  0
   22.3854  -19.2398  -16.4350 O   0  0  0  0  0  0  0  0  0  0  0  0
   21.1737  -21.7895  -12.6189 C   0  0  0  0  0  0  0  0  0  0  0  0
   21.1069  -22.9747  -13.2912 O   0  0  0  0  0  0  0  0  0  0  0  0
   20.1547  -19.4751  -16.3876 O   0  0  0  0  0  0  0  0  0  0  0  0
   20.1404  -21.3940  -12.0249 O   0  0  0  0  0  0  0  0  0  0  0  0
  2  1  1  1
  2  3  1  0
  3  4  1  0
  5  4  1  0
  5  9  1  0
  6  5  2  0
  7  2  1  0
  7  8  2  0
 10  7  1  0
 11 12  1  1
 11 10  1  0
 12 13  1  0
 13 14  2  0
 13 21  1  0
 14 15  1  0
 15 16  1  0
 16 17  2  0
 17 18  1  0
 19 18  2  0
 20 19  1  0
 21 20  2  0
 21 16  1  0
 22 11  1  0
 23 22  2  0
 24 22  1  0
 25 26  1  6
 25 24  1  0
 26 27  1  0
 28 27  1  0
 28 32  1  0
 29 28  2  0
 30 31  1  0
 30 25  1  0
 33 30  2  0
M  END
$$$$
