EWE.pdb
     RDKit          3D

 33 34  0  0  1  0  0  0  0  0999 V2000
   28.5341  -20.0467  -14.4374 N   0  0  0  0  0  0  0  0  0  0  0  0
   27.5109  -21.0450  -14.6504 C   0  0  1  0  0  0  0  0  0  0  0  0
   28.0751  -22.2404  -15.3282 C   0  0  0  0  0  0  0  0  0  0  0  0
   29.1432  -21.8504  -16.3203 C   0  0  0  0  0  0  0  0  0  0  0  0
   28.5501  -21.3137  -17.5721 C   0  0  0  0  0  0  0  0  0  0  0  0
   27.3140  -21.3276  -17.7120 O   0  0  0  0  0  0  0  0  0  0  0  0
   26.8488  -21.3275  -13.3655 C   0  0  0  0  0  0  0  0  0  0  0  0
   25.8389  -22.1116  -13.2997 O   0  0  0  0  0  0  0  0  0  0  0  0
   29.3926  -20.8146  -18.5466 O   0  0  0  0  0  0  0  0  0  0  0  0
   27.2565  -20.7711  -12.1251 N   0  0  0  0  0  0  0  0  0  0  0  0
   26.5221  -21.0085  -10.8763 C   0  0  1  0  0  0  0  0  0  0  0  0
   27.5428  -20.8333   -9.7906 C   0  0  0  0  0  0  0  0  0  0  0  0
   27.0023  -20.6791   -8.4347 C   0  0  0  0  0  0  0  0  0  0  0  0
   25.6761  -20.7215   -8.0565 C   0  0  0  0  0  0  0  0  0  0  0  0
   25.6335  -20.4825   -6.7507 N   0  0  0  0  0  0  0  0  0  0  0  0
   26.8907  -20.2856   -6.2706 C   0  0  0  0  0  0  0  0  0  0  0  0
   27.3536  -20.0218   -4.9973 C   0  0  0  0  0  0  0  0  0  0  0  0
   28.6889  -19.8924   -4.8097 C   0  0  0  0  0  0  0  0  0  0  0  0
   29.6309  -20.0060   -5.8212 C   0  0  0  0  0  0  0  0  0  0  0  0
   29.1244  -20.2668   -7.0788 C   0  0  0  0  0  0  0  0  0  0  0  0
   27.7835  -20.4059   -7.3147 C   0  0  0  0  0  0  0  0  0  0  0  0
   25.2974  -20.2438  -10.7343 C   0  0  0  0  0  0  0  0  0  0  0  0
   25.2998  -19.0139  -11.0882 O   0  0  0  0  0  0  0  0  0  0  0  0
   24.0468  -20.7050  -10.2289 N   0  0  0  0  0  0  0  0  0  0  0  0
   22.8003  -20.4336  -10.9345 C   0  0  1  0  0  0  0  0  0  0  0  0
   22.8120  -20.8470  -12.3641 C   0  0  0  0  0  0  0  0  0  0  0  0
   22.8466  -19.6981  -13.3380 C   0  0  0  0  0  0  0  0  0  0  0  0
   21.4775  -19.4947  -13.8587 C   0  0  0  0  0  0  0  0  0  0  0  0
   20.8321  -20.3292  -14.5336 O   0  0  0  0  0  0  0  0  0  0  0  0
   21.6266  -20.9717  -10.1912 C   0  0  0  0  0  0  0  0  0  0  0  0
   21.6310  -22.0981   -9.4214 O   0  0  0  0  0  0  0  0  0  0  0  0
   20.7811  -18.2851  -13.6102 O   0  0  0  0  0  0  0  0  0  0  0  0
   20.5516  -20.3293  -10.2830 O   0  0  0  0  0  0  0  0  0  0  0  0
  2  1  1  1
  2  3  1  0
  3  4  1  0
  5  4  1  0
  5  9  1  0
  6  5  2  0
  7  2  1  0
  7  8  2  0
 10  7  1  0
 11 12  1  1
 11 10  1  0
 12 13  1  0
 13 14  2  0
 13 21  1  0
 14 15  1  0
 15 16  1  0
 16 17  2  0
 17 18  1  0
 19 18  2  0
 20 19  1  0
 21 20  2  0
 21 16  1  0
 22 11  1  0
 23 22  2  0
 24 22  1  0
 25 26  1  6
 25 24  1  0
 26 27  1  0
 28 27  1  0
 28 32  1  0
 29 28  2  0
 30 31  1  0
 30 25  1  0
 33 30  2  0
M  END
$$$$
