EWE.pdb
     RDKit          3D

 33 34  0  0  1  0  0  0  0  0999 V2000
   27.5590  -18.7965  -18.6702 N   0  0  0  0  0  0  0  0  0  0  0  0
   27.0756  -18.0741  -17.5155 C   0  0  1  0  0  0  0  0  0  0  0  0
   26.1255  -17.0071  -17.9223 C   0  0  0  0  0  0  0  0  0  0  0  0
   24.8815  -17.5935  -18.5436 C   0  0  0  0  0  0  0  0  0  0  0  0
   24.6393  -17.0376  -19.8996 C   0  0  0  0  0  0  0  0  0  0  0  0
   25.4875  -17.2220  -20.7909 O   0  0  0  0  0  0  0  0  0  0  0  0
   26.5305  -19.0395  -16.5458 C   0  0  0  0  0  0  0  0  0  0  0  0
   26.0243  -20.1505  -16.9313 O   0  0  0  0  0  0  0  0  0  0  0  0
   23.4756  -16.3296  -20.1302 O   0  0  0  0  0  0  0  0  0  0  0  0
   26.5157  -18.8299  -15.1422 N   0  0  0  0  0  0  0  0  0  0  0  0
   25.9952  -19.8302  -14.2022 C   0  0  1  0  0  0  0  0  0  0  0  0
   26.7844  -19.6220  -12.9431 C   0  0  0  0  0  0  0  0  0  0  0  0
   26.5550  -20.6113  -11.8833 C   0  0  0  0  0  0  0  0  0  0  0  0
   26.6119  -21.9850  -11.9992 C   0  0  0  0  0  0  0  0  0  0  0  0
   26.2863  -22.4916  -10.8155 N   0  0  0  0  0  0  0  0  0  0  0  0
   26.0192  -21.4893   -9.9358 C   0  0  0  0  0  0  0  0  0  0  0  0
   25.6557  -21.5122   -8.6045 C   0  0  0  0  0  0  0  0  0  0  0  0
   25.4734  -20.3322   -7.9647 C   0  0  0  0  0  0  0  0  0  0  0  0
   25.6267  -19.0909   -8.5638 C   0  0  0  0  0  0  0  0  0  0  0  0
   25.9874  -19.1143   -9.8962 C   0  0  0  0  0  0  0  0  0  0  0  0
   26.1829  -20.2822  -10.5824 C   0  0  0  0  0  0  0  0  0  0  0  0
   24.5514  -19.8399  -14.0597 C   0  0  0  0  0  0  0  0  0  0  0  0
   23.9474  -18.7266  -13.8763 O   0  0  0  0  0  0  0  0  0  0  0  0
   23.6892  -20.9746  -14.0961 N   0  0  0  0  0  0  0  0  0  0  0  0
   22.2798  -20.8643  -13.7404 C   0  0  1  0  0  0  0  0  0  0  0  0
   21.6067  -22.1734  -13.5221 C   0  0  0  0  0  0  0  0  0  0  0  0
   20.1263  -22.0700  -13.2623 C   0  0  0  0  0  0  0  0  0  0  0  0
   19.5658  -23.4384  -13.2423 C   0  0  0  0  0  0  0  0  0  0  0  0
   20.2404  -24.4935  -13.2523 O   0  0  0  0  0  0  0  0  0  0  0  0
   22.0776  -19.9191  -12.6067 C   0  0  0  0  0  0  0  0  0  0  0  0
   21.2338  -18.8470  -12.6162 O   0  0  0  0  0  0  0  0  0  0  0  0
   18.1638  -23.6456  -13.2069 O   0  0  0  0  0  0  0  0  0  0  0  0
   22.7379  -20.1354  -11.5607 O   0  0  0  0  0  0  0  0  0  0  0  0
  2  1  1  6
  2  3  1  0
  3  4  1  0
  5  4  1  0
  5  9  1  0
  6  5  2  0
  7  2  1  0
  7  8  2  0
 10  7  1  0
 11 12  1  1
 11 10  1  0
 12 13  1  0
 13 14  2  0
 13 21  1  0
 14 15  1  0
 15 16  1  0
 16 17  2  0
 17 18  1  0
 19 18  2  0
 20 19  1  0
 21 20  2  0
 21 16  1  0
 22 11  1  0
 23 22  2  0
 24 22  1  0
 25 26  1  1
 25 24  1  0
 26 27  1  0
 28 27  1  0
 28 32  1  0
 29 28  2  0
 30 31  1  0
 30 25  1  0
 33 30  2  0
M  END
$$$$
