EWE.pdb
     RDKit          3D

 33 34  0  0  1  0  0  0  0  0999 V2000
   26.4626  -20.0070  -14.9995 N   0  0  0  0  0  0  0  0  0  0  0  0
   26.3555  -21.4328  -14.7886 C   0  0  1  0  0  0  0  0  0  0  0  0
   27.6209  -22.1161  -15.1603 C   0  0  0  0  0  0  0  0  0  0  0  0
   27.9559  -21.8888  -16.6141 C   0  0  0  0  0  0  0  0  0  0  0  0
   28.8498  -20.7151  -16.7871 C   0  0  0  0  0  0  0  0  0  0  0  0
   29.8995  -20.6491  -16.1226 O   0  0  0  0  0  0  0  0  0  0  0  0
   25.9142  -21.6759  -13.4046 C   0  0  0  0  0  0  0  0  0  0  0  0
   25.7307  -22.8652  -12.9678 O   0  0  0  0  0  0  0  0  0  0  0  0
   28.4864  -19.7286  -17.6835 O   0  0  0  0  0  0  0  0  0  0  0  0
   25.6585  -20.6459  -12.4622 N   0  0  0  0  0  0  0  0  0  0  0  0
   24.7912  -20.8447  -11.2945 C   0  0  1  0  0  0  0  0  0  0  0  0
   25.4651  -20.0953  -10.1829 C   0  0  0  0  0  0  0  0  0  0  0  0
   26.8339  -20.5242   -9.8713 C   0  0  0  0  0  0  0  0  0  0  0  0
   27.6623  -21.3013  -10.6545 C   0  0  0  0  0  0  0  0  0  0  0  0
   28.7843  -21.4909   -9.9694 N   0  0  0  0  0  0  0  0  0  0  0  0
   28.7087  -20.8616   -8.7661 C   0  0  0  0  0  0  0  0  0  0  0  0
   29.6126  -20.7597   -7.7279 C   0  0  0  0  0  0  0  0  0  0  0  0
   29.2646  -20.0347   -6.6378 C   0  0  0  0  0  0  0  0  0  0  0  0
   28.0487  -19.3838   -6.4925 C   0  0  0  0  0  0  0  0  0  0  0  0
   27.1738  -19.5146   -7.5524 C   0  0  0  0  0  0  0  0  0  0  0  0
   27.4831  -20.2363   -8.6735 C   0  0  0  0  0  0  0  0  0  0  0  0
   23.3903  -20.5395  -11.5163 C   0  0  0  0  0  0  0  0  0  0  0  0
   23.0912  -19.4826  -12.1731 O   0  0  0  0  0  0  0  0  0  0  0  0
   22.2636  -21.2938  -11.0764 N   0  0  0  0  0  0  0  0  0  0  0  0
   20.9090  -20.9302  -11.4738 C   0  0  1  0  0  0  0  0  0  0  0  0
   20.7215  -20.8120  -12.9454 C   0  0  0  0  0  0  0  0  0  0  0  0
   21.0029  -22.0812  -13.7069 C   0  0  0  0  0  0  0  0  0  0  0  0
   20.4684  -21.9241  -15.0768 C   0  0  0  0  0  0  0  0  0  0  0  0
   19.3290  -22.2842  -15.4513 O   0  0  0  0  0  0  0  0  0  0  0  0
   19.8981  -21.8195  -10.8362 C   0  0  0  0  0  0  0  0  0  0  0  0
   20.1819  -22.9170  -10.0771 O   0  0  0  0  0  0  0  0  0  0  0  0
   21.2524  -21.3253  -16.0951 O   0  0  0  0  0  0  0  0  0  0  0  0
   18.6899  -21.5267  -11.0137 O   0  0  0  0  0  0  0  0  0  0  0  0
  2  1  1  1
  2  3  1  0
  3  4  1  0
  5  4  1  0
  5  9  1  0
  6  5  2  0
  7  2  1  0
  7  8  2  0
 10  7  1  0
 11 12  1  1
 11 10  1  0
 12 13  1  0
 13 14  2  0
 13 21  1  0
 14 15  1  0
 15 16  1  0
 16 17  2  0
 17 18  1  0
 19 18  2  0
 20 19  1  0
 21 20  2  0
 21 16  1  0
 22 11  1  0
 23 22  2  0
 24 22  1  0
 25 26  1  6
 25 24  1  0
 26 27  1  0
 28 27  1  0
 28 32  1  0
 29 28  2  0
 30 31  1  0
 30 25  1  0
 33 30  2  0
M  END
$$$$
