EWE.pdb
     RDKit          3D

 33 34  0  0  1  0  0  0  0  0999 V2000
   29.7074  -22.8157  -17.2549 N   0  0  0  0  0  0  0  0  0  0  0  0
   28.9010  -21.6627  -16.9246 C   0  0  1  0  0  0  0  0  0  0  0  0
   28.0529  -21.2660  -18.0779 C   0  0  0  0  0  0  0  0  0  0  0  0
   28.8947  -20.7664  -19.2264 C   0  0  0  0  0  0  0  0  0  0  0  0
   29.3532  -21.8853  -20.0892 C   0  0  0  0  0  0  0  0  0  0  0  0
   30.5690  -22.1406  -20.1558 O   0  0  0  0  0  0  0  0  0  0  0  0
   28.1546  -21.9446  -15.6865 C   0  0  0  0  0  0  0  0  0  0  0  0
   27.6020  -23.0829  -15.4917 O   0  0  0  0  0  0  0  0  0  0  0  0
   28.4121  -22.6103  -20.7944 O   0  0  0  0  0  0  0  0  0  0  0  0
   27.9844  -21.0084  -14.6335 N   0  0  0  0  0  0  0  0  0  0  0  0
   27.2752  -21.3403  -13.3918 C   0  0  1  0  0  0  0  0  0  0  0  0
   27.7872  -20.3561  -12.3816 C   0  0  0  0  0  0  0  0  0  0  0  0
   27.0858  -20.3521  -11.0922 C   0  0  0  0  0  0  0  0  0  0  0  0
   25.7540  -20.0688  -10.8689 C   0  0  0  0  0  0  0  0  0  0  0  0
   25.5557  -20.1281   -9.5570 N   0  0  0  0  0  0  0  0  0  0  0  0
   26.7176  -20.4401   -8.9226 C   0  0  0  0  0  0  0  0  0  0  0  0
   27.0102  -20.6243   -7.5863 C   0  0  0  0  0  0  0  0  0  0  0  0
   28.2776  -20.9571   -7.2429 C   0  0  0  0  0  0  0  0  0  0  0  0
   29.3113  -21.1242   -8.1522 C   0  0  0  0  0  0  0  0  0  0  0  0
   28.9756  -20.9273   -9.4768 C   0  0  0  0  0  0  0  0  0  0  0  0
   27.7085  -20.5910   -9.8697 C   0  0  0  0  0  0  0  0  0  0  0  0
   25.8332  -21.4359  -13.5200 C   0  0  0  0  0  0  0  0  0  0  0  0
   25.2350  -20.6298  -14.3139 O   0  0  0  0  0  0  0  0  0  0  0  0
   24.9662  -22.3453  -12.8465 N   0  0  0  0  0  0  0  0  0  0  0  0
   23.5322  -22.3563  -13.1082 C   0  0  1  0  0  0  0  0  0  0  0  0
   22.8658  -21.0450  -12.8818 C   0  0  0  0  0  0  0  0  0  0  0  0
   21.3933  -21.0384  -13.2002 C   0  0  0  0  0  0  0  0  0  0  0  0
   20.8960  -19.6538  -13.0493 C   0  0  0  0  0  0  0  0  0  0  0  0
   21.5965  -18.6682  -12.7235 O   0  0  0  0  0  0  0  0  0  0  0  0
   23.2285  -22.9302  -14.4490 C   0  0  0  0  0  0  0  0  0  0  0  0
   22.7555  -24.1892  -14.6779 O   0  0  0  0  0  0  0  0  0  0  0  0
   19.5310  -19.3463  -13.2781 O   0  0  0  0  0  0  0  0  0  0  0  0
   23.4230  -22.1879  -15.4431 O   0  0  0  0  0  0  0  0  0  0  0  0
  2  1  1  6
  2  3  1  0
  3  4  1  0
  5  4  1  0
  5  9  1  0
  6  5  2  0
  7  2  1  0
  7  8  2  0
 10  7  1  0
 11 12  1  1
 11 10  1  0
 12 13  1  0
 13 14  2  0
 13 21  1  0
 14 15  1  0
 15 16  1  0
 16 17  2  0
 17 18  1  0
 19 18  2  0
 20 19  1  0
 21 20  2  0
 21 16  1  0
 22 11  1  0
 23 22  2  0
 24 22  1  0
 25 26  1  6
 25 24  1  0
 26 27  1  0
 28 27  1  0
 28 32  1  0
 29 28  2  0
 30 31  1  0
 30 25  1  0
 33 30  2  0
M  END
$$$$
