EWE.pdb
     RDKit          3D

 33 34  0  0  1  0  0  0  0  0999 V2000
   26.6248  -26.2325  -16.9092 N   0  0  0  0  0  0  0  0  0  0  0  0
   26.9241  -24.8515  -17.2128 C   0  0  1  0  0  0  0  0  0  0  0  0
   26.4106  -24.4854  -18.5577 C   0  0  0  0  0  0  0  0  0  0  0  0
   25.2471  -25.3611  -18.9534 C   0  0  0  0  0  0  0  0  0  0  0  0
   25.6593  -26.4013  -19.9305 C   0  0  0  0  0  0  0  0  0  0  0  0
   26.3499  -26.0719  -20.9115 O   0  0  0  0  0  0  0  0  0  0  0  0
   26.4225  -24.0052  -16.1167 C   0  0  0  0  0  0  0  0  0  0  0  0
   25.4550  -24.3911  -15.3723 O   0  0  0  0  0  0  0  0  0  0  0  0
   25.2610  -27.7072  -19.7196 O   0  0  0  0  0  0  0  0  0  0  0  0
   26.9484  -22.7257  -15.7995 N   0  0  0  0  0  0  0  0  0  0  0  0
   26.3857  -21.8847  -14.7359 C   0  0  1  0  0  0  0  0  0  0  0  0
   27.5047  -20.9676  -14.3382 C   0  0  0  0  0  0  0  0  0  0  0  0
   27.1611  -19.9484  -13.3395 C   0  0  0  0  0  0  0  0  0  0  0  0
   27.3361  -18.5840  -13.4470 C   0  0  0  0  0  0  0  0  0  0  0  0
   26.9417  -18.0469  -12.2981 N   0  0  0  0  0  0  0  0  0  0  0  0
   26.5172  -19.0206  -11.4487 C   0  0  0  0  0  0  0  0  0  0  0  0
   26.0115  -18.9598  -10.1658 C   0  0  0  0  0  0  0  0  0  0  0  0
   25.6437  -20.1150   -9.5615 C   0  0  0  0  0  0  0  0  0  0  0  0
   25.7444  -21.3668  -10.1499 C   0  0  0  0  0  0  0  0  0  0  0  0
   26.2581  -21.3819  -11.4313 C   0  0  0  0  0  0  0  0  0  0  0  0
   26.6417  -20.2399  -12.0808 C   0  0  0  0  0  0  0  0  0  0  0  0
   25.1228  -21.2504  -15.0640 C   0  0  0  0  0  0  0  0  0  0  0  0
   24.8190  -21.0941  -16.2974 O   0  0  0  0  0  0  0  0  0  0  0  0
   24.1431  -20.7581  -14.1530 N   0  0  0  0  0  0  0  0  0  0  0  0
   22.7194  -20.9608  -14.3922 C   0  0  1  0  0  0  0  0  0  0  0  0
   22.3478  -22.3750  -14.6687 C   0  0  0  0  0  0  0  0  0  0  0  0
   20.8695  -22.5993  -14.8534 C   0  0  0  0  0  0  0  0  0  0  0  0
   20.6889  -23.7249  -15.7956 C   0  0  0  0  0  0  0  0  0  0  0  0
   21.0626  -23.7308  -16.9908 O   0  0  0  0  0  0  0  0  0  0  0  0
   21.8945  -20.3515  -13.3116 C   0  0  0  0  0  0  0  0  0  0  0  0
   20.5730  -20.0289  -13.4167 O   0  0  0  0  0  0  0  0  0  0  0  0
   20.0533  -24.9219  -15.3795 O   0  0  0  0  0  0  0  0  0  0  0  0
   22.4680  -20.1228  -12.2181 O   0  0  0  0  0  0  0  0  0  0  0  0
  2  1  1  1
  2  3  1  0
  3  4  1  0
  5  4  1  0
  5  9  1  0
  6  5  2  0
  7  2  1  0
  7  8  2  0
 10  7  1  0
 11 12  1  6
 11 10  1  0
 12 13  1  0
 13 14  2  0
 13 21  1  0
 14 15  1  0
 15 16  1  0
 16 17  2  0
 17 18  1  0
 19 18  2  0
 20 19  1  0
 21 20  2  0
 21 16  1  0
 22 11  1  0
 23 22  2  0
 24 22  1  0
 25 26  1  1
 25 24  1  0
 26 27  1  0
 28 27  1  0
 28 32  1  0
 29 28  2  0
 30 31  1  0
 30 25  1  0
 33 30  2  0
M  END
$$$$
