EWE.pdb
     RDKit          3D

 33 34  0  0  1  0  0  0  0  0999 V2000
   28.5316  -21.7864  -15.9868 N   0  0  0  0  0  0  0  0  0  0  0  0
   27.3177  -22.5673  -16.0613 C   0  0  1  0  0  0  0  0  0  0  0  0
   27.6146  -23.9630  -16.4743 C   0  0  0  0  0  0  0  0  0  0  0  0
   28.6052  -23.9952  -17.6122 C   0  0  0  0  0  0  0  0  0  0  0  0
   27.9667  -23.6121  -18.8976 C   0  0  0  0  0  0  0  0  0  0  0  0
   26.8214  -24.0256  -19.1526 O   0  0  0  0  0  0  0  0  0  0  0  0
   26.5984  -22.4494  -14.7815 C   0  0  0  0  0  0  0  0  0  0  0  0
   25.4776  -23.0396  -14.5955 O   0  0  0  0  0  0  0  0  0  0  0  0
   28.6672  -22.8061  -19.7741 O   0  0  0  0  0  0  0  0  0  0  0  0
   27.0672  -21.6927  -13.6760 N   0  0  0  0  0  0  0  0  0  0  0  0
   26.2325  -21.4162  -12.5005 C   0  0  1  0  0  0  0  0  0  0  0  0
   27.2064  -21.1125  -11.4002 C   0  0  0  0  0  0  0  0  0  0  0  0
   26.6100  -20.6817  -10.1300 C   0  0  0  0  0  0  0  0  0  0  0  0
   25.2838  -20.3860   -9.8901 C   0  0  0  0  0  0  0  0  0  0  0  0
   25.1938  -19.9886   -8.6260 N   0  0  0  0  0  0  0  0  0  0  0  0
   26.4204  -20.0166   -8.0391 C   0  0  0  0  0  0  0  0  0  0  0  0
   26.8290  -19.7101   -6.7568 C   0  0  0  0  0  0  0  0  0  0  0  0
   28.1391  -19.8557   -6.4445 C   0  0  0  0  0  0  0  0  0  0  0  0
   29.1069  -20.2939   -7.3359 C   0  0  0  0  0  0  0  0  0  0  0  0
   28.6556  -20.5860   -8.6075 C   0  0  0  0  0  0  0  0  0  0  0  0
   27.3416  -20.4545   -8.9672 C   0  0  0  0  0  0  0  0  0  0  0  0
   25.1821  -20.4386  -12.7147 C   0  0  0  0  0  0  0  0  0  0  0  0
   25.3426  -19.5590  -13.6304 O   0  0  0  0  0  0  0  0  0  0  0  0
   23.9500  -20.3278  -12.0062 N   0  0  0  0  0  0  0  0  0  0  0  0
   22.6971  -20.0693  -12.7051 C   0  0  1  0  0  0  0  0  0  0  0  0
   22.8581  -19.8205  -14.1635 C   0  0  0  0  0  0  0  0  0  0  0  0
   22.3979  -18.4576  -14.6111 C   0  0  0  0  0  0  0  0  0  0  0  0
   21.6635  -18.6151  -15.8851 C   0  0  0  0  0  0  0  0  0  0  0  0
   21.1289  -19.6758  -16.2820 O   0  0  0  0  0  0  0  0  0  0  0  0
   21.6835  -21.1208  -12.4109 C   0  0  0  0  0  0  0  0  0  0  0  0
   21.8643  -22.4610  -12.5907 O   0  0  0  0  0  0  0  0  0  0  0  0
   21.5128  -17.5206  -16.7735 O   0  0  0  0  0  0  0  0  0  0  0  0
   20.5778  -20.7345  -11.9580 O   0  0  0  0  0  0  0  0  0  0  0  0
  2  1  1  1
  2  3  1  0
  3  4  1  0
  5  4  1  0
  5  9  1  0
  6  5  2  0
  7  2  1  0
  7  8  2  0
 10  7  1  0
 11 12  1  1
 11 10  1  0
 12 13  1  0
 13 14  2  0
 13 21  1  0
 14 15  1  0
 15 16  1  0
 16 17  2  0
 17 18  1  0
 19 18  2  0
 20 19  1  0
 21 20  2  0
 21 16  1  0
 22 11  1  0
 23 22  2  0
 24 22  1  0
 25 26  1  6
 25 24  1  0
 26 27  1  0
 28 27  1  0
 28 32  1  0
 29 28  2  0
 30 31  1  0
 30 25  1  0
 33 30  2  0
M  END
$$$$
