EWE.pdb
     RDKit          3D

 33 34  0  0  1  0  0  0  0  0999 V2000
   28.7108  -22.1111  -15.6204 N   0  0  0  0  0  0  0  0  0  0  0  0
   27.9335  -20.9710  -15.1906 C   0  0  1  0  0  0  0  0  0  0  0  0
   27.2754  -20.3157  -16.3500 C   0  0  0  0  0  0  0  0  0  0  0  0
   28.2814  -19.5866  -17.2066 C   0  0  0  0  0  0  0  0  0  0  0  0
   28.2236  -18.1196  -16.9806 C   0  0  0  0  0  0  0  0  0  0  0  0
   27.2067  -17.4923  -17.3275 O   0  0  0  0  0  0  0  0  0  0  0  0
   27.0097  -21.4003  -14.1269 C   0  0  0  0  0  0  0  0  0  0  0  0
   26.4744  -22.5632  -14.1449 O   0  0  0  0  0  0  0  0  0  0  0  0
   29.3051  -17.4942  -16.3907 O   0  0  0  0  0  0  0  0  0  0  0  0
   26.6400  -20.5881  -13.0232 N   0  0  0  0  0  0  0  0  0  0  0  0
   25.5965  -20.9835  -12.0693 C   0  0  1  0  0  0  0  0  0  0  0  0
   25.9637  -20.2919  -10.7893 C   0  0  0  0  0  0  0  0  0  0  0  0
   27.1842  -20.7796  -10.1358 C   0  0  0  0  0  0  0  0  0  0  0  0
   28.1866  -21.5391  -10.7032 C   0  0  0  0  0  0  0  0  0  0  0  0
   29.0695  -21.8002   -9.7459 N   0  0  0  0  0  0  0  0  0  0  0  0
   28.6703  -21.2344   -8.5753 C   0  0  0  0  0  0  0  0  0  0  0  0
   29.2495  -21.2167   -7.3226 C   0  0  0  0  0  0  0  0  0  0  0  0
   28.6219  -20.5407   -6.3306 C   0  0  0  0  0  0  0  0  0  0  0  0
   27.4237  -19.8607   -6.4902 C   0  0  0  0  0  0  0  0  0  0  0  0
   26.8780  -19.9071   -7.7574 C   0  0  0  0  0  0  0  0  0  0  0  0
   27.4772  -20.5769   -8.7896 C   0  0  0  0  0  0  0  0  0  0  0  0
   24.2371  -20.7876  -12.5367 C   0  0  0  0  0  0  0  0  0  0  0  0
   23.9245  -19.6590  -13.0532 O   0  0  0  0  0  0  0  0  0  0  0  0
   23.1653  -21.7263  -12.4888 N   0  0  0  0  0  0  0  0  0  0  0  0
   21.8245  -21.3655  -12.9329 C   0  0  1  0  0  0  0  0  0  0  0  0
   20.9023  -22.5247  -13.0762 C   0  0  0  0  0  0  0  0  0  0  0  0
   19.5421  -22.1675  -13.6164 C   0  0  0  0  0  0  0  0  0  0  0  0
   18.8887  -23.4116  -14.0775 C   0  0  0  0  0  0  0  0  0  0  0  0
   17.6920  -23.7165  -13.8697 O   0  0  0  0  0  0  0  0  0  0  0  0
   21.2497  -20.2751  -12.0962 C   0  0  0  0  0  0  0  0  0  0  0  0
   21.5578  -20.0406  -10.7880 O   0  0  0  0  0  0  0  0  0  0  0  0
   19.6140  -24.3776  -14.8195 O   0  0  0  0  0  0  0  0  0  0  0  0
   20.4181  -19.5127  -12.6478 O   0  0  0  0  0  0  0  0  0  0  0  0
  2  1  1  6
  2  3  1  0
  3  4  1  0
  5  4  1  0
  5  9  1  0
  6  5  2  0
  7  2  1  0
  7  8  2  0
 10  7  1  0
 11 12  1  1
 11 10  1  0
 12 13  1  0
 13 14  2  0
 13 21  1  0
 14 15  1  0
 15 16  1  0
 16 17  2  0
 17 18  1  0
 19 18  2  0
 20 19  1  0
 21 20  2  0
 21 16  1  0
 22 11  1  0
 23 22  2  0
 24 22  1  0
 25 26  1  1
 25 24  1  0
 26 27  1  0
 28 27  1  0
 28 32  1  0
 29 28  2  0
 30 31  1  0
 30 25  1  0
 33 30  2  0
M  END
$$$$
