EWE.pdb
     RDKit          3D

 33 34  0  0  1  0  0  0  0  0999 V2000
   28.6235  -22.7048  -16.9895 N   0  0  0  0  0  0  0  0  0  0  0  0
   28.1507  -21.4383  -16.4784 C   0  0  1  0  0  0  0  0  0  0  0  0
   27.4991  -20.6473  -17.5537 C   0  0  0  0  0  0  0  0  0  0  0  0
   28.4544  -19.6384  -18.1427 C   0  0  0  0  0  0  0  0  0  0  0  0
   29.2268  -20.2181  -19.2714 C   0  0  0  0  0  0  0  0  0  0  0  0
   28.7866  -20.1037  -20.4294 O   0  0  0  0  0  0  0  0  0  0  0  0
   27.2987  -21.6891  -15.3034 C   0  0  0  0  0  0  0  0  0  0  0  0
   26.2762  -22.4557  -15.3790 O   0  0  0  0  0  0  0  0  0  0  0  0
   30.4143  -20.8697  -18.9995 O   0  0  0  0  0  0  0  0  0  0  0  0
   27.5264  -21.1192  -14.0237 N   0  0  0  0  0  0  0  0  0  0  0  0
   26.6365  -21.3657  -12.8824 C   0  0  1  0  0  0  0  0  0  0  0  0
   27.4095  -20.8987  -11.6842 C   0  0  0  0  0  0  0  0  0  0  0  0
   26.6336  -20.7638  -10.4455 C   0  0  0  0  0  0  0  0  0  0  0  0
   25.2690  -20.5954  -10.3312 C   0  0  0  0  0  0  0  0  0  0  0  0
   24.9977  -20.4641   -9.0377 N   0  0  0  0  0  0  0  0  0  0  0  0
   26.1440  -20.5414   -8.3098 C   0  0  0  0  0  0  0  0  0  0  0  0
   26.3712  -20.4753   -6.9500 C   0  0  0  0  0  0  0  0  0  0  0  0
   27.6422  -20.6082   -6.5006 C   0  0  0  0  0  0  0  0  0  0  0  0
   28.7412  -20.8057   -7.3232 C   0  0  0  0  0  0  0  0  0  0  0  0
   28.4692  -20.8621   -8.6755 C   0  0  0  0  0  0  0  0  0  0  0  0
   27.2011  -20.7337   -9.1742 C   0  0  0  0  0  0  0  0  0  0  0  0
   25.2955  -20.8317  -13.0282 C   0  0  0  0  0  0  0  0  0  0  0  0
   25.1587  -19.5923  -13.3164 O   0  0  0  0  0  0  0  0  0  0  0  0
   24.0658  -21.5380  -12.8827 N   0  0  0  0  0  0  0  0  0  0  0  0
   22.7917  -20.9136  -13.2170 C   0  0  1  0  0  0  0  0  0  0  0  0
   21.8696  -21.7939  -13.9848 C   0  0  0  0  0  0  0  0  0  0  0  0
   20.8425  -22.4993  -13.1378 C   0  0  0  0  0  0  0  0  0  0  0  0
   20.5429  -23.8031  -13.7683 C   0  0  0  0  0  0  0  0  0  0  0  0
   21.0890  -24.2442  -14.8053 O   0  0  0  0  0  0  0  0  0  0  0  0
   22.1464  -20.3169  -12.0141 C   0  0  0  0  0  0  0  0  0  0  0  0
   21.4298  -19.1560  -11.9991 O   0  0  0  0  0  0  0  0  0  0  0  0
   19.5743  -24.6727  -13.2067 O   0  0  0  0  0  0  0  0  0  0  0  0
   22.2741  -20.9403  -10.9315 O   0  0  0  0  0  0  0  0  0  0  0  0
  2  1  1  6
  2  3  1  0
  3  4  1  0
  5  4  1  0
  5  9  1  0
  6  5  2  0
  7  2  1  0
  7  8  2  0
 10  7  1  0
 11 12  1  1
 11 10  1  0
 12 13  1  0
 13 14  2  0
 13 21  1  0
 14 15  1  0
 15 16  1  0
 16 17  2  0
 17 18  1  0
 19 18  2  0
 20 19  1  0
 21 20  2  0
 21 16  1  0
 22 11  1  0
 23 22  2  0
 24 22  1  0
 25 26  1  1
 25 24  1  0
 26 27  1  0
 28 27  1  0
 28 32  1  0
 29 28  2  0
 30 31  1  0
 30 25  1  0
 33 30  2  0
M  END
$$$$
