EWE.pdb
     RDKit          3D

 33 34  0  0  1  0  0  0  0  0999 V2000
   28.0025  -22.8275  -16.6089 N   0  0  0  0  0  0  0  0  0  0  0  0
   27.6954  -21.5439  -16.0199 C   0  0  1  0  0  0  0  0  0  0  0  0
   27.0000  -20.6690  -16.9984 C   0  0  0  0  0  0  0  0  0  0  0  0
   27.7712  -20.5785  -18.2923 C   0  0  0  0  0  0  0  0  0  0  0  0
   28.9761  -19.7220  -18.1464 C   0  0  0  0  0  0  0  0  0  0  0  0
   30.0566  -20.1087  -18.6267 O   0  0  0  0  0  0  0  0  0  0  0  0
   26.9575  -21.7624  -14.7641 C   0  0  0  0  0  0  0  0  0  0  0  0
   25.8502  -22.4050  -14.7505 O   0  0  0  0  0  0  0  0  0  0  0  0
   28.8596  -18.5183  -17.4786 O   0  0  0  0  0  0  0  0  0  0  0  0
   27.3927  -21.2927  -13.4975 N   0  0  0  0  0  0  0  0  0  0  0  0
   26.5456  -21.3574  -12.3002 C   0  0  1  0  0  0  0  0  0  0  0  0
   27.4278  -20.8914  -11.1794 C   0  0  0  0  0  0  0  0  0  0  0  0
   26.7438  -20.6164   -9.9101 C   0  0  0  0  0  0  0  0  0  0  0  0
   25.3856  -20.4836   -9.7071 C   0  0  0  0  0  0  0  0  0  0  0  0
   25.2085  -20.1864   -8.4248 N   0  0  0  0  0  0  0  0  0  0  0  0
   26.4097  -20.1214   -7.7903 C   0  0  0  0  0  0  0  0  0  0  0  0
   26.7374  -19.8615   -6.4749 C   0  0  0  0  0  0  0  0  0  0  0  0
   28.0440  -19.8852   -6.1183 C   0  0  0  0  0  0  0  0  0  0  0  0
   29.0846  -20.1534   -6.9949 C   0  0  0  0  0  0  0  0  0  0  0  0
   28.7125  -20.4044   -8.3005 C   0  0  0  0  0  0  0  0  0  0  0  0
   27.4052  -20.3918   -8.7055 C   0  0  0  0  0  0  0  0  0  0  0  0
   25.2621  -20.6927  -12.4247 C   0  0  0  0  0  0  0  0  0  0  0  0
   25.2301  -19.5117  -12.9169 O   0  0  0  0  0  0  0  0  0  0  0  0
   23.9857  -21.2060  -12.0514 N   0  0  0  0  0  0  0  0  0  0  0  0
   22.7547  -20.5409  -12.4606 C   0  0  1  0  0  0  0  0  0  0  0  0
   22.3576  -20.8159  -13.8683 C   0  0  0  0  0  0  0  0  0  0  0  0
   21.8516  -19.6083  -14.6135 C   0  0  0  0  0  0  0  0  0  0  0  0
   21.4486  -20.0397  -15.9694 C   0  0  0  0  0  0  0  0  0  0  0  0
   20.9436  -19.2963  -16.8416 O   0  0  0  0  0  0  0  0  0  0  0  0
   21.6512  -20.7962  -11.4928 C   0  0  0  0  0  0  0  0  0  0  0  0
   20.5907  -19.9671  -11.2712 O   0  0  0  0  0  0  0  0  0  0  0  0
   21.6211  -21.3851  -16.3818 O   0  0  0  0  0  0  0  0  0  0  0  0
   21.7073  -21.8641  -10.8345 O   0  0  0  0  0  0  0  0  0  0  0  0
  2  1  1  6
  2  3  1  0
  3  4  1  0
  5  4  1  0
  5  9  1  0
  6  5  2  0
  7  2  1  0
  7  8  2  0
 10  7  1  0
 11 12  1  1
 11 10  1  0
 12 13  1  0
 13 14  2  0
 13 21  1  0
 14 15  1  0
 15 16  1  0
 16 17  2  0
 17 18  1  0
 19 18  2  0
 20 19  1  0
 21 20  2  0
 21 16  1  0
 22 11  1  0
 23 22  2  0
 24 22  1  0
 25 26  1  6
 25 24  1  0
 26 27  1  0
 28 27  1  0
 28 32  1  0
 29 28  2  0
 30 31  1  0
 30 25  1  0
 33 30  2  0
M  END
$$$$
