EWE.pdb
     RDKit          3D

 33 34  0  0  1  0  0  0  0  0999 V2000
   19.1399  -13.8684  -18.7476 N   0  0  0  0  0  0  0  0  0  0  0  0
   19.7986  -12.6153  -19.0384 C   0  0  1  0  0  0  0  0  0  0  0  0
   19.4234  -12.1249  -20.3895 C   0  0  0  0  0  0  0  0  0  0  0  0
   19.9809  -13.0210  -21.4682 C   0  0  0  0  0  0  0  0  0  0  0  0
   21.4596  -12.9092  -21.5550 C   0  0  0  0  0  0  0  0  0  0  0  0
   22.0582  -12.1566  -20.7657 O   0  0  0  0  0  0  0  0  0  0  0  0
   19.5195  -11.6677  -17.9459 C   0  0  0  0  0  0  0  0  0  0  0  0
   18.3284  -11.4918  -17.5107 O   0  0  0  0  0  0  0  0  0  0  0  0
   22.1272  -13.6466  -22.5137 O   0  0  0  0  0  0  0  0  0  0  0  0
   20.5141  -10.8877  -17.3004 N   0  0  0  0  0  0  0  0  0  0  0  0
   20.1862   -9.8674  -16.2971 C   0  0  1  0  0  0  0  0  0  0  0  0
   21.3494   -9.8724  -15.3493 C   0  0  0  0  0  0  0  0  0  0  0  0
   21.3103   -8.8505  -14.2963 C   0  0  0  0  0  0  0  0  0  0  0  0
   20.6425   -8.9211  -13.0910 C   0  0  0  0  0  0  0  0  0  0  0  0
   20.8311   -7.7621  -12.4704 N   0  0  0  0  0  0  0  0  0  0  0  0
   21.5996   -6.9418  -13.2362 C   0  0  0  0  0  0  0  0  0  0  0  0
   22.0696   -5.6622  -13.0199 C   0  0  0  0  0  0  0  0  0  0  0  0
   22.8481   -5.0912  -13.9701 C   0  0  0  0  0  0  0  0  0  0  0  0
   23.2059   -5.7109  -15.1581 C   0  0  0  0  0  0  0  0  0  0  0  0
   22.7116   -6.9878  -15.3349 C   0  0  0  0  0  0  0  0  0  0  0  0
   21.9225   -7.6042  -14.4018 C   0  0  0  0  0  0  0  0  0  0  0  0
   19.8079   -8.5767  -16.8410 C   0  0  0  0  0  0  0  0  0  0  0  0
   20.5184   -8.0771  -17.7810 O   0  0  0  0  0  0  0  0  0  0  0  0
   18.7066   -7.7632  -16.4441 N   0  0  0  0  0  0  0  0  0  0  0  0
   18.3708   -6.5418  -17.1656 C   0  0  1  0  0  0  0  0  0  0  0  0
   16.9579   -6.4822  -17.6292 C   0  0  0  0  0  0  0  0  0  0  0  0
   15.9519   -6.3106  -16.5209 C   0  0  0  0  0  0  0  0  0  0  0  0
   14.6321   -6.7470  -17.0257 C   0  0  0  0  0  0  0  0  0  0  0  0
   14.2701   -7.9383  -17.1600 O   0  0  0  0  0  0  0  0  0  0  0  0
   18.7750   -5.3295  -16.4000 C   0  0  0  0  0  0  0  0  0  0  0  0
   19.1323   -4.1334  -16.9505 O   0  0  0  0  0  0  0  0  0  0  0  0
   13.6512   -5.7956  -17.4033 O   0  0  0  0  0  0  0  0  0  0  0  0
   18.7815   -5.4231  -15.1477 O   0  0  0  0  0  0  0  0  0  0  0  0
  2  1  1  1
  2  3  1  0
  3  4  1  0
  5  4  1  0
  5  9  1  0
  6  5  2  0
  7  2  1  0
  7  8  2  0
 10  7  1  0
 11 12  1  1
 11 10  1  0
 12 13  1  0
 13 14  2  0
 13 21  1  0
 14 15  1  0
 15 16  1  0
 16 17  2  0
 17 18  1  0
 19 18  2  0
 20 19  1  0
 21 20  2  0
 21 16  1  0
 22 11  1  0
 23 22  2  0
 24 22  1  0
 25 26  1  1
 25 24  1  0
 26 27  1  0
 28 27  1  0
 28 32  1  0
 29 28  2  0
 30 31  1  0
 30 25  1  0
 33 30  2  0
M  END
$$$$
