EWE.pdb
     RDKit          3D

 33 34  0  0  1  0  0  0  0  0999 V2000
   23.1319  -13.4031  -18.7381 N   0  0  0  0  0  0  0  0  0  0  0  0
   23.8002  -12.1370  -18.9362 C   0  0  1  0  0  0  0  0  0  0  0  0
   23.1742  -11.3804  -20.0508 C   0  0  0  0  0  0  0  0  0  0  0  0
   23.4314  -12.0525  -21.3772 C   0  0  0  0  0  0  0  0  0  0  0  0
   22.8899  -11.2512  -22.5048 C   0  0  0  0  0  0  0  0  0  0  0  0
   21.6672  -11.0274  -22.5574 O   0  0  0  0  0  0  0  0  0  0  0  0
   23.8377  -11.4144  -17.6533 C   0  0  0  0  0  0  0  0  0  0  0  0
   22.9924  -11.6684  -16.7258 O   0  0  0  0  0  0  0  0  0  0  0  0
   23.7638  -10.7779  -23.4644 O   0  0  0  0  0  0  0  0  0  0  0  0
   24.7825  -10.4023  -17.3415 N   0  0  0  0  0  0  0  0  0  0  0  0
   24.7688   -9.6790  -16.0640 C   0  0  1  0  0  0  0  0  0  0  0  0
   26.1494   -9.8601  -15.5048 C   0  0  0  0  0  0  0  0  0  0  0  0
   26.5793  -11.2516  -15.3224 C   0  0  0  0  0  0  0  0  0  0  0  0
   26.0031  -12.2013  -14.5039 C   0  0  0  0  0  0  0  0  0  0  0  0
   26.7397  -13.3021  -14.6026 N   0  0  0  0  0  0  0  0  0  0  0  0
   27.7759  -13.0955  -15.4590 C   0  0  0  0  0  0  0  0  0  0  0  0
   28.7887  -13.9291  -15.8887 C   0  0  0  0  0  0  0  0  0  0  0  0
   29.6870  -13.4469  -16.7805 C   0  0  0  0  0  0  0  0  0  0  0  0
   29.6587  -12.1588  -17.2938 C   0  0  0  0  0  0  0  0  0  0  0  0
   28.6317  -11.3584  -16.8350 C   0  0  0  0  0  0  0  0  0  0  0  0
   27.7014  -11.8034  -15.9351 C   0  0  0  0  0  0  0  0  0  0  0  0
   24.2822   -8.3145  -16.1411 C   0  0  0  0  0  0  0  0  0  0  0  0
   24.8514   -7.5071  -16.9548 O   0  0  0  0  0  0  0  0  0  0  0  0
   23.2132   -7.7371  -15.3954 N   0  0  0  0  0  0  0  0  0  0  0  0
   22.7619   -6.3750  -15.6527 C   0  0  1  0  0  0  0  0  0  0  0  0
   21.7191   -6.2726  -16.7095 C   0  0  0  0  0  0  0  0  0  0  0  0
   21.2810   -4.8626  -17.0090 C   0  0  0  0  0  0  0  0  0  0  0  0
   20.2297   -4.9181  -18.0476 C   0  0  0  0  0  0  0  0  0  0  0  0
   19.8026   -5.9654  -18.5852 O   0  0  0  0  0  0  0  0  0  0  0  0
   22.3706   -5.6847  -14.3918 C   0  0  0  0  0  0  0  0  0  0  0  0
   22.3571   -4.3332  -14.2055 O   0  0  0  0  0  0  0  0  0  0  0  0
   19.6124   -3.7310  -18.5165 O   0  0  0  0  0  0  0  0  0  0  0  0
   22.0232   -6.4121  -13.4289 O   0  0  0  0  0  0  0  0  0  0  0  0
  2  1  1  1
  2  3  1  0
  3  4  1  0
  5  4  1  0
  5  9  1  0
  6  5  2  0
  7  2  1  0
  7  8  2  0
 10  7  1  0
 11 12  1  6
 11 10  1  0
 12 13  1  0
 13 14  2  0
 13 21  1  0
 14 15  1  0
 15 16  1  0
 16 17  2  0
 17 18  1  0
 19 18  2  0
 20 19  1  0
 21 20  2  0
 21 16  1  0
 22 11  1  0
 23 22  2  0
 24 22  1  0
 25 26  1  6
 25 24  1  0
 26 27  1  0
 28 27  1  0
 28 32  1  0
 29 28  2  0
 30 31  1  0
 30 25  1  0
 33 30  2  0
M  END
$$$$
