TYA.pdb
     RDKit          3D

 25 25  0  0  1  0  0  0  0  0999 V2000
   23.1584   -6.8722  -20.9192 C   0  0  0  0  0  0  0  0  0  0  0  0
   23.2028   -8.3741  -20.9568 C   0  0  1  0  0  0  0  0  0  0  0  0
   24.2700   -8.7518  -21.8138 O   0  0  0  0  0  0  0  0  0  0  0  0
   23.5198   -8.9622  -19.6075 C   0  0  2  0  0  0  0  0  0  0  0  0
   23.6482  -10.4289  -19.7968 N   0  0  0  0  0  0  0  0  0  0  0  0
   22.5642   -8.6719  -18.5431 C   0  0  0  0  0  0  0  0  0  0  0  0
   21.4281   -9.2685  -18.6016 O   0  0  0  0  0  0  0  0  0  0  0  0
   22.2693  -13.5075  -14.0012 O   0  0  0  0  0  0  0  0  0  0  0  0
   22.2599  -12.1465  -14.2788 C   0  0  0  0  0  0  0  0  0  0  0  0
   23.3929  -11.3571  -14.1767 C   0  0  0  0  0  0  0  0  0  0  0  0
   23.3605  -10.0262  -14.4535 C   0  0  0  0  0  0  0  0  0  0  0  0
   22.1526   -9.4429  -14.8507 C   0  0  0  0  0  0  0  0  0  0  0  0
   22.1161   -7.9926  -15.1108 C   0  0  0  0  0  0  0  0  0  0  0  0
   21.6584   -7.5495  -16.4469 C   0  0  2  0  0  0  0  0  0  0  0  0
   22.7375   -7.8086  -17.4451 N   0  0  0  0  0  0  0  0  0  0  0  0
   21.1803   -6.1755  -16.5980 C   0  0  0  0  0  0  0  0  0  0  0  0
   21.9819   -5.1929  -16.3485 O   0  0  0  0  0  0  0  0  0  0  0  0
   21.0235  -10.2202  -14.9543 C   0  0  0  0  0  0  0  0  0  0  0  0
   21.0687  -11.5606  -14.6727 C   0  0  0  0  0  0  0  0  0  0  0  0
   18.1531   -4.2321  -17.7542 C   0  0  0  0  0  0  0  0  0  0  0  0
   19.5352   -4.3713  -17.1085 C   0  0  2  0  0  0  0  0  0  0  0  0
   19.8899   -5.7596  -17.0089 N   0  0  0  0  0  0  0  0  0  0  0  0
   19.4460   -3.7129  -15.7963 C   0  0  0  0  0  0  0  0  0  0  0  0
   19.4527   -4.3998  -14.7176 O   0  0  0  0  0  0  0  0  0  0  0  0
   19.3543   -2.3518  -15.7006 O   0  0  0  0  0  0  0  0  0  0  0  0
  2  4  1  0
  2  1  1  1
  3  2  1  0
  4  6  1  0
  4  5  1  6
  6  7  2  0
  8  9  1  0
  9 19  2  0
 10 11  2  0
 10  9  1  0
 11 12  1  0
 12 13  1  0
 12 18  2  0
 14 13  1  1
 14 16  1  0
 15  6  1  0
 15 14  1  0
 16 17  2  0
 19 18  1  0
 21 20  1  1
 21 23  1  0
 22 21  1  0
 22 16  1  0
 23 25  1  0
 24 23  2  0
M  END
$$$$
