TYA.pdb
     RDKit          3D

 25 25  0  0  1  0  0  0  0  0999 V2000
   28.0342  -21.3995  -19.2999 C   0  0  0  0  0  0  0  0  0  0  0  0
   27.1946  -21.6054  -18.0703 C   0  0  1  0  0  0  0  0  0  0  0  0
   26.0837  -22.4099  -18.4374 O   0  0  0  0  0  0  0  0  0  0  0  0
   27.9337  -22.3711  -17.0053 C   0  0  2  0  0  0  0  0  0  0  0  0
   28.0639  -23.7677  -17.4914 N   0  0  0  0  0  0  0  0  0  0  0  0
   27.3361  -22.3532  -15.6738 C   0  0  0  0  0  0  0  0  0  0  0  0
   26.5904  -23.3498  -15.3566 O   0  0  0  0  0  0  0  0  0  0  0  0
   25.2517  -20.2118   -7.2116 O   0  0  0  0  0  0  0  0  0  0  0  0
   25.8217  -20.3508   -8.4707 C   0  0  0  0  0  0  0  0  0  0  0  0
   27.0821  -20.8909   -8.6627 C   0  0  0  0  0  0  0  0  0  0  0  0
   27.6207  -21.0175   -9.9048 C   0  0  0  0  0  0  0  0  0  0  0  0
   26.8818  -20.5913  -11.0135 C   0  0  0  0  0  0  0  0  0  0  0  0
   27.4876  -20.6951  -12.3531 C   0  0  0  0  0  0  0  0  0  0  0  0
   26.7105  -21.3927  -13.4022 C   0  0  2  0  0  0  0  0  0  0  0  0
   27.4798  -21.3659  -14.6810 N   0  0  0  0  0  0  0  0  0  0  0  0
   25.3371  -20.9578  -13.6555 C   0  0  0  0  0  0  0  0  0  0  0  0
   25.1277  -19.8349  -14.2600 O   0  0  0  0  0  0  0  0  0  0  0  0
   25.6296  -20.0539  -10.8308 C   0  0  0  0  0  0  0  0  0  0  0  0
   25.0975  -19.9315   -9.5740 C   0  0  0  0  0  0  0  0  0  0  0  0
   21.9680  -22.1565  -14.2607 C   0  0  0  0  0  0  0  0  0  0  0  0
   22.8474  -21.0967  -13.5901 C   0  0  2  0  0  0  0  0  0  0  0  0
   24.1461  -21.6442  -13.3129 N   0  0  0  0  0  0  0  0  0  0  0  0
   22.1357  -20.6798  -12.3723 C   0  0  0  0  0  0  0  0  0  0  0  0
   21.0254  -20.0494  -12.4464 O   0  0  0  0  0  0  0  0  0  0  0  0
   22.6451  -20.9573  -11.1339 O   0  0  0  0  0  0  0  0  0  0  0  0
  2  4  1  0
  2  1  1  6
  3  2  1  0
  4  6  1  0
  4  5  1  6
  6  7  2  0
  8  9  1  0
  9 19  2  0
 10 11  2  0
 10  9  1  0
 11 12  1  0
 12 13  1  0
 12 18  2  0
 14 13  1  1
 14 16  1  0
 15  6  1  0
 15 14  1  0
 16 17  2  0
 19 18  1  0
 21 20  1  1
 21 23  1  0
 22 21  1  0
 22 16  1  0
 23 25  1  0
 24 23  2  0
M  END
$$$$
