TYA.pdb
     RDKit          3D

 25 25  0  0  1  0  0  0  0  0999 V2000
   28.4857  -20.7548  -19.0801 C   0  0  0  0  0  0  0  0  0  0  0  0
   27.5486  -20.8784  -17.9115 C   0  0  1  0  0  0  0  0  0  0  0  0
   26.3065  -21.3578  -18.4047 O   0  0  0  0  0  0  0  0  0  0  0  0
   28.0256  -21.8988  -16.9125 C   0  0  2  0  0  0  0  0  0  0  0  0
   27.9756  -23.2194  -17.5889 N   0  0  0  0  0  0  0  0  0  0  0  0
   27.2934  -21.9494  -15.6509 C   0  0  0  0  0  0  0  0  0  0  0  0
   26.4465  -22.9044  -15.5068 O   0  0  0  0  0  0  0  0  0  0  0  0
   24.6371  -20.3167   -7.2203 O   0  0  0  0  0  0  0  0  0  0  0  0
   25.2853  -20.4030   -8.4458 C   0  0  0  0  0  0  0  0  0  0  0  0
   26.0555  -21.4958   -8.8062 C   0  0  0  0  0  0  0  0  0  0  0  0
   26.6813  -21.5590  -10.0118 C   0  0  0  0  0  0  0  0  0  0  0  0
   26.5423  -20.4934  -10.9074 C   0  0  0  0  0  0  0  0  0  0  0  0
   27.2555  -20.5512  -12.1960 C   0  0  0  0  0  0  0  0  0  0  0  0
   26.5626  -21.2000  -13.3317 C   0  0  2  0  0  0  0  0  0  0  0  0
   27.4039  -21.0698  -14.5577 N   0  0  0  0  0  0  0  0  0  0  0  0
   25.1937  -20.7866  -13.6393 C   0  0  0  0  0  0  0  0  0  0  0  0
   24.9915  -19.6749  -14.2666 O   0  0  0  0  0  0  0  0  0  0  0  0
   25.7793  -19.4050  -10.5566 C   0  0  0  0  0  0  0  0  0  0  0  0
   25.1533  -19.3529   -9.3387 C   0  0  0  0  0  0  0  0  0  0  0  0
   21.7484  -22.0393  -14.0549 C   0  0  0  0  0  0  0  0  0  0  0  0
   22.7036  -20.9298  -13.6042 C   0  0  2  0  0  0  0  0  0  0  0  0
   24.0000  -21.4837  -13.3290 N   0  0  0  0  0  0  0  0  0  0  0  0
   22.0882  -20.3108  -12.4204 C   0  0  0  0  0  0  0  0  0  0  0  0
   22.4230  -20.6770  -11.2416 O   0  0  0  0  0  0  0  0  0  0  0  0
   21.1446  -19.3301  -12.5538 O   0  0  0  0  0  0  0  0  0  0  0  0
  2  4  1  0
  2  1  1  6
  3  2  1  0
  4  6  1  0
  4  5  1  6
  6  7  2  0
  8  9  1  0
  9 19  2  0
 10 11  2  0
 10  9  1  0
 11 12  1  0
 12 13  1  0
 12 18  2  0
 14 13  1  1
 14 16  1  0
 15  6  1  0
 15 14  1  0
 16 17  2  0
 19 18  1  0
 21 20  1  1
 21 23  1  0
 22 21  1  0
 22 16  1  0
 23 25  1  0
 24 23  2  0
M  END
$$$$
