TYA.pdb
     RDKit          3D

 25 25  0  0  1  0  0  0  0  0999 V2000
   25.4013  -32.8713   -4.7910 C   0  0  0  0  0  0  0  0  0  0  0  0
   25.1338  -33.4374   -6.1574 C   0  0  1  0  0  0  0  0  0  0  0  0
   24.2136  -32.5739   -6.8083 O   0  0  0  0  0  0  0  0  0  0  0  0
   26.3724  -33.4527   -7.0131 C   0  0  2  0  0  0  0  0  0  0  0  0
   25.9807  -34.0217   -8.3271 N   0  0  0  0  0  0  0  0  0  0  0  0
   27.5163  -34.1781   -6.4693 C   0  0  0  0  0  0  0  0  0  0  0  0
   27.5630  -35.4425   -6.6907 O   0  0  0  0  0  0  0  0  0  0  0  0
   35.4266  -36.5986   -3.2410 O   0  0  0  0  0  0  0  0  0  0  0  0
   34.3186  -35.8909   -3.6891 C   0  0  0  0  0  0  0  0  0  0  0  0
   33.4631  -35.2230   -2.8292 C   0  0  0  0  0  0  0  0  0  0  0  0
   32.3839  -34.5361   -3.2901 C   0  0  0  0  0  0  0  0  0  0  0  0
   32.1340  -34.5050   -4.6661 C   0  0  0  0  0  0  0  0  0  0  0  0
   30.9405  -33.7917   -5.1551 C   0  0  0  0  0  0  0  0  0  0  0  0
   29.6512  -34.5183   -5.1274 C   0  0  2  0  0  0  0  0  0  0  0  0
   28.5895  -33.6552   -5.7238 N   0  0  0  0  0  0  0  0  0  0  0  0
   29.1798  -35.0500   -3.8489 C   0  0  0  0  0  0  0  0  0  0  0  0
   28.5614  -34.2692   -3.0254 O   0  0  0  0  0  0  0  0  0  0  0  0
   32.9788  -35.1657   -5.5261 C   0  0  0  0  0  0  0  0  0  0  0  0
   34.0634  -35.8546   -5.0496 C   0  0  0  0  0  0  0  0  0  0  0  0
   28.3962  -38.2579   -2.1373 C   0  0  0  0  0  0  0  0  0  0  0  0
   28.8025  -36.7816   -2.0935 C   0  0  2  0  0  0  0  0  0  0  0  0
   29.3138  -36.3779   -3.3736 N   0  0  0  0  0  0  0  0  0  0  0  0
   29.8003  -36.6596   -1.0198 C   0  0  0  0  0  0  0  0  0  0  0  0
   31.0013  -36.3050   -1.2796 O   0  0  0  0  0  0  0  0  0  0  0  0
   29.4659  -36.9223    0.2799 O   0  0  0  0  0  0  0  0  0  0  0  0
  2  4  1  0
  2  1  1  1
  3  2  1  0
  4  6  1  0
  4  5  1  6
  6  7  2  0
  8  9  1  0
  9 19  2  0
 10 11  2  0
 10  9  1  0
 11 12  1  0
 12 13  1  0
 12 18  2  0
 14 13  1  1
 14 16  1  0
 15  6  1  0
 15 14  1  0
 16 17  2  0
 19 18  1  0
 21 20  1  6
 21 23  1  0
 22 21  1  0
 22 16  1  0
 23 25  1  0
 24 23  2  0
M  END
$$$$
