TYA.pdb
     RDKit          3D

 25 25  0  0  1  0  0  0  0  0999 V2000
   16.7844  -10.6862  -13.6355 C   0  0  0  0  0  0  0  0  0  0  0  0
   17.0987  -11.6312  -14.7612 C   0  0  1  0  0  0  0  0  0  0  0  0
   16.0464  -12.5819  -14.8316 O   0  0  0  0  0  0  0  0  0  0  0  0
   17.1220  -10.9315  -16.0941 C   0  0  2  0  0  0  0  0  0  0  0  0
   17.4140  -11.9658  -17.1181 N   0  0  0  0  0  0  0  0  0  0  0  0
   18.0605   -9.8203  -16.2166 C   0  0  0  0  0  0  0  0  0  0  0  0
   19.2985  -10.1191  -16.3832 O   0  0  0  0  0  0  0  0  0  0  0  0
   21.5039   -1.5778  -17.1460 O   0  0  0  0  0  0  0  0  0  0  0  0
   20.7190   -2.7213  -17.0702 C   0  0  0  0  0  0  0  0  0  0  0  0
   20.9606   -3.8437  -17.8443 C   0  0  0  0  0  0  0  0  0  0  0  0
   20.1790   -4.9527  -17.7537 C   0  0  0  0  0  0  0  0  0  0  0  0
   19.1057   -4.9573  -16.8564 C   0  0  0  0  0  0  0  0  0  0  0  0
   18.2391   -6.1477  -16.7920 C   0  0  0  0  0  0  0  0  0  0  0  0
   18.8312   -7.3958  -16.2601 C   0  0  2  0  0  0  0  0  0  0  0  0
   17.7714   -8.4434  -16.1756 N   0  0  0  0  0  0  0  0  0  0  0  0
   19.5542   -7.3365  -14.9900 C   0  0  0  0  0  0  0  0  0  0  0  0
   18.8907   -7.3326  -13.8810 O   0  0  0  0  0  0  0  0  0  0  0  0
   18.8596   -3.8466  -16.0844 C   0  0  0  0  0  0  0  0  0  0  0  0
   19.6545   -2.7349  -16.1847 C   0  0  0  0  0  0  0  0  0  0  0  0
   22.7824   -8.1655  -13.4637 C   0  0  0  0  0  0  0  0  0  0  0  0
   21.5530   -7.2524  -13.5000 C   0  0  2  0  0  0  0  0  0  0  0  0
   20.9582   -7.2864  -14.8070 N   0  0  0  0  0  0  0  0  0  0  0  0
   22.0243   -5.9103  -13.1259 C   0  0  0  0  0  0  0  0  0  0  0  0
   22.0981   -4.9763  -13.9964 O   0  0  0  0  0  0  0  0  0  0  0  0
   22.3936   -5.6314  -11.8391 O   0  0  0  0  0  0  0  0  0  0  0  0
  2  4  1  0
  2  1  1  1
  3  2  1  0
  4  6  1  0
  4  5  1  6
  6  7  2  0
  8  9  1  0
  9 19  2  0
 10 11  2  0
 10  9  1  0
 11 12  1  0
 12 13  1  0
 12 18  2  0
 14 13  1  1
 14 16  1  0
 15  6  1  0
 15 14  1  0
 16 17  2  0
 19 18  1  0
 21 20  1  6
 21 23  1  0
 22 21  1  0
 22 16  1  0
 23 25  1  0
 24 23  2  0
M  END
$$$$
