TYA.pdb
     RDKit          3D

 25 25  0  0  1  0  0  0  0  0999 V2000
   25.7232   -9.1707  -16.6676 C   0  0  0  0  0  0  0  0  0  0  0  0
   25.2267  -10.5350  -17.0565 C   0  0  1  0  0  0  0  0  0  0  0  0
   26.2308  -11.4750  -16.7041 O   0  0  0  0  0  0  0  0  0  0  0  0
   23.9950  -10.9273  -16.2846 C   0  0  2  0  0  0  0  0  0  0  0  0
   23.6747  -12.3255  -16.6669 N   0  0  0  0  0  0  0  0  0  0  0  0
   22.8259  -10.0729  -16.4687 C   0  0  0  0  0  0  0  0  0  0  0  0
   22.1506  -10.2346  -17.5493 O   0  0  0  0  0  0  0  0  0  0  0  0
   16.7625  -13.0778  -16.0844 O   0  0  0  0  0  0  0  0  0  0  0  0
   17.5899  -12.0050  -15.7778 C   0  0  0  0  0  0  0  0  0  0  0  0
   18.3639  -11.9649  -14.6304 C   0  0  0  0  0  0  0  0  0  0  0  0
   19.1671  -10.9040  -14.3503 C   0  0  0  0  0  0  0  0  0  0  0  0
   19.2107   -9.8287  -15.2441 C   0  0  0  0  0  0  0  0  0  0  0  0
   20.0531   -8.6651  -14.9145 C   0  0  0  0  0  0  0  0  0  0  0  0
   21.1083   -8.2896  -15.8823 C   0  0  2  0  0  0  0  0  0  0  0  0
   22.3404   -9.0817  -15.5953 N   0  0  0  0  0  0  0  0  0  0  0  0
   21.4619   -6.8763  -16.0122 C   0  0  0  0  0  0  0  0  0  0  0  0
   22.0825   -6.2853  -15.0448 O   0  0  0  0  0  0  0  0  0  0  0  0
   18.4449   -9.8614  -16.3854 C   0  0  0  0  0  0  0  0  0  0  0  0
   17.6394  -10.9362  -16.6568 C   0  0  0  0  0  0  0  0  0  0  0  0
   21.3584   -4.0415  -18.5081 C   0  0  0  0  0  0  0  0  0  0  0  0
   21.5855   -4.6438  -17.1181 C   0  0  2  0  0  0  0  0  0  0  0  0
   21.2057   -6.0291  -17.1184 N   0  0  0  0  0  0  0  0  0  0  0  0
   20.7871   -3.8368  -16.1829 C   0  0  0  0  0  0  0  0  0  0  0  0
   19.7451   -4.3233  -15.6234 O   0  0  0  0  0  0  0  0  0  0  0  0
   21.1414   -2.5487  -15.8908 O   0  0  0  0  0  0  0  0  0  0  0  0
  2  4  1  0
  2  1  1  1
  3  2  1  0
  4  6  1  0
  4  5  1  6
  6  7  2  0
  8  9  1  0
  9 19  2  0
 10 11  2  0
 10  9  1  0
 11 12  1  0
 12 13  1  0
 12 18  2  0
 14 13  1  1
 14 16  1  0
 15  6  1  0
 15 14  1  0
 16 17  2  0
 19 18  1  0
 21 20  1  6
 21 23  1  0
 22 21  1  0
 22 16  1  0
 23 25  1  0
 24 23  2  0
M  END
$$$$
