TYA.pdb
     RDKit          3D

 25 25  0  0  1  0  0  0  0  0999 V2000
   26.3952  -21.9539  -19.2730 C   0  0  0  0  0  0  0  0  0  0  0  0
   27.6229  -21.1223  -19.0270 C   0  0  1  0  0  0  0  0  0  0  0  0
   27.1941  -19.8129  -18.6840 O   0  0  0  0  0  0  0  0  0  0  0  0
   28.4175  -21.6252  -17.8512 C   0  0  2  0  0  0  0  0  0  0  0  0
   28.9613  -22.9521  -18.2352 N   0  0  0  0  0  0  0  0  0  0  0  0
   27.6960  -21.7219  -16.5861 C   0  0  0  0  0  0  0  0  0  0  0  0
   26.8966  -22.7175  -16.4461 O   0  0  0  0  0  0  0  0  0  0  0  0
   25.0411  -20.4722   -8.1099 O   0  0  0  0  0  0  0  0  0  0  0  0
   25.6471  -20.4412   -9.3594 C   0  0  0  0  0  0  0  0  0  0  0  0
   26.0599  -21.5882  -10.0162 C   0  0  0  0  0  0  0  0  0  0  0  0
   26.6513  -21.5343  -11.2394 C   0  0  0  0  0  0  0  0  0  0  0  0
   26.8461  -20.2893  -11.8468 C   0  0  0  0  0  0  0  0  0  0  0  0
   27.5233  -20.2355  -13.1548 C   0  0  0  0  0  0  0  0  0  0  0  0
   26.9329  -21.0199  -14.2625 C   0  0  2  0  0  0  0  0  0  0  0  0
   27.7708  -20.8476  -15.4857 N   0  0  0  0  0  0  0  0  0  0  0  0
   25.5285  -20.7941  -14.6033 C   0  0  0  0  0  0  0  0  0  0  0  0
   25.2084  -19.7813  -15.3395 O   0  0  0  0  0  0  0  0  0  0  0  0
   26.4389  -19.1460  -11.2009 C   0  0  0  0  0  0  0  0  0  0  0  0
   25.8440  -19.2132   -9.9682 C   0  0  0  0  0  0  0  0  0  0  0  0
   22.2822  -22.3900  -15.0516 C   0  0  0  0  0  0  0  0  0  0  0  0
   23.0675  -21.1909  -14.5114 C   0  0  2  0  0  0  0  0  0  0  0  0
   24.4174  -21.5839  -14.2174 N   0  0  0  0  0  0  0  0  0  0  0  0
   22.3407  -20.7237  -13.3211 C   0  0  0  0  0  0  0  0  0  0  0  0
   21.2020  -20.1521  -13.4320 O   0  0  0  0  0  0  0  0  0  0  0  0
   22.8662  -20.8902  -12.0696 O   0  0  0  0  0  0  0  0  0  0  0  0
  2  4  1  0
  2  1  1  1
  3  2  1  0
  4  6  1  0
  4  5  1  6
  6  7  2  0
  8  9  1  0
  9 19  2  0
 10 11  2  0
 10  9  1  0
 11 12  1  0
 12 13  1  0
 12 18  2  0
 14 13  1  1
 14 16  1  0
 15  6  1  0
 15 14  1  0
 16 17  2  0
 19 18  1  0
 21 20  1  1
 21 23  1  0
 22 21  1  0
 22 16  1  0
 23 25  1  0
 24 23  2  0
M  END
$$$$
