TYA.pdb
     RDKit          3D

 25 25  0  0  1  0  0  0  0  0999 V2000
   26.4533    4.7762  -11.3407 C   0  0  0  0  0  0  0  0  0  0  0  0
   25.0630    4.4109  -11.7796 C   0  0  1  0  0  0  0  0  0  0  0  0
   25.0900    4.2285  -13.1874 O   0  0  0  0  0  0  0  0  0  0  0  0
   24.6145    3.0981  -11.1947 C   0  0  2  0  0  0  0  0  0  0  0  0
   23.2828    2.7993  -11.7788 N   0  0  0  0  0  0  0  0  0  0  0  0
   24.5528    3.0349   -9.7378 C   0  0  0  0  0  0  0  0  0  0  0  0
   23.5776    3.6476   -9.1690 O   0  0  0  0  0  0  0  0  0  0  0  0
   25.0025    0.5452   -1.2174 O   0  0  0  0  0  0  0  0  0  0  0  0
   25.0328    0.6970   -2.5978 C   0  0  0  0  0  0  0  0  0  0  0  0
   23.8853    0.8646   -3.3545 C   0  0  0  0  0  0  0  0  0  0  0  0
   23.9385    1.0114   -4.7053 C   0  0  0  0  0  0  0  0  0  0  0  0
   25.1833    0.9922   -5.3433 C   0  0  0  0  0  0  0  0  0  0  0  0
   25.2306    1.1123   -6.8115 C   0  0  0  0  0  0  0  0  0  0  0  0
   25.3356    2.4739   -7.3826 C   0  0  2  0  0  0  0  0  0  0  0  0
   25.4413    2.3751   -8.8682 N   0  0  0  0  0  0  0  0  0  0  0  0
   26.3864    3.3592   -6.8814 C   0  0  0  0  0  0  0  0  0  0  0  0
   27.5435    3.3612   -7.4571 O   0  0  0  0  0  0  0  0  0  0  0  0
   26.3270    0.8262   -4.5987 C   0  0  0  0  0  0  0  0  0  0  0  0
   26.2605    0.6793   -3.2379 C   0  0  0  0  0  0  0  0  0  0  0  0
   26.9744    6.0754   -4.3239 C   0  0  0  0  0  0  0  0  0  0  0  0
   27.4261    5.0293   -5.3476 C   0  0  2  0  0  0  0  0  0  0  0  0
   26.2954    4.2653   -5.7961 N   0  0  0  0  0  0  0  0  0  0  0  0
   28.4384    4.2021   -4.6737 C   0  0  0  0  0  0  0  0  0  0  0  0
   28.0918    3.2422   -3.9028 O   0  0  0  0  0  0  0  0  0  0  0  0
   29.7724    4.4409   -4.8564 O   0  0  0  0  0  0  0  0  0  0  0  0
  2  4  1  0
  2  1  1  1
  3  2  1  0
  4  6  1  0
  4  5  1  6
  6  7  2  0
  8  9  1  0
  9 19  2  0
 10 11  2  0
 10  9  1  0
 11 12  1  0
 12 13  1  0
 12 18  2  0
 14 13  1  1
 14 16  1  0
 15  6  1  0
 15 14  1  0
 16 17  2  0
 19 18  1  0
 21 20  1  1
 21 23  1  0
 22 21  1  0
 22 16  1  0
 23 25  1  0
 24 23  2  0
M  END
$$$$
