TYA.pdb
     RDKit          3D

 25 25  0  0  1  0  0  0  0  0999 V2000
   28.7695  -20.5468  -19.2318 C   0  0  0  0  0  0  0  0  0  0  0  0
   27.7518  -20.8487  -18.1678 C   0  0  1  0  0  0  0  0  0  0  0  0
   26.8343  -21.7901  -18.7044 O   0  0  0  0  0  0  0  0  0  0  0  0
   28.3731  -21.5068  -16.9646 C   0  0  2  0  0  0  0  0  0  0  0  0
   28.9564  -22.7903  -17.4295 N   0  0  0  0  0  0  0  0  0  0  0  0
   27.4830  -21.7376  -15.8311 C   0  0  0  0  0  0  0  0  0  0  0  0
   27.1150  -22.9495  -15.6167 O   0  0  0  0  0  0  0  0  0  0  0  0
   23.1784  -20.8105   -8.0247 O   0  0  0  0  0  0  0  0  0  0  0  0
   23.9611  -20.6845   -9.1653 C   0  0  0  0  0  0  0  0  0  0  0  0
   25.2480  -21.1892   -9.2455 C   0  0  0  0  0  0  0  0  0  0  0  0
   25.9966  -21.0543  -10.3726 C   0  0  0  0  0  0  0  0  0  0  0  0
   25.4514  -20.3895  -11.4761 C   0  0  0  0  0  0  0  0  0  0  0  0
   26.2826  -20.2124  -12.6803 C   0  0  0  0  0  0  0  0  0  0  0  0
   26.0578  -21.1439  -13.8085 C   0  0  2  0  0  0  0  0  0  0  0  0
   26.9729  -20.7831  -14.9312 N   0  0  0  0  0  0  0  0  0  0  0  0
   24.6976  -21.2965  -14.3241 C   0  0  0  0  0  0  0  0  0  0  0  0
   24.2368  -20.4316  -15.1666 O   0  0  0  0  0  0  0  0  0  0  0  0
   24.1743  -19.8856  -11.4040 C   0  0  0  0  0  0  0  0  0  0  0  0
   23.4296  -20.0279  -10.2624 C   0  0  0  0  0  0  0  0  0  0  0  0
   21.9333  -23.8133  -14.5551 C   0  0  0  0  0  0  0  0  0  0  0  0
   22.4672  -22.3783  -14.6025 C   0  0  2  0  0  0  0  0  0  0  0  0
   23.7743  -22.3240  -14.0094 N   0  0  0  0  0  0  0  0  0  0  0  0
   21.4851  -21.5485  -13.8881 C   0  0  0  0  0  0  0  0  0  0  0  0
   21.7465  -21.0776  -12.7281 O   0  0  0  0  0  0  0  0  0  0  0  0
   20.2710  -21.2620  -14.4484 O   0  0  0  0  0  0  0  0  0  0  0  0
  2  4  1  0
  2  1  1  6
  3  2  1  0
  4  6  1  0
  4  5  1  6
  6  7  2  0
  8  9  1  0
  9 19  2  0
 10 11  2  0
 10  9  1  0
 11 12  1  0
 12 13  1  0
 12 18  2  0
 14 13  1  1
 14 16  1  0
 15  6  1  0
 15 14  1  0
 16 17  2  0
 19 18  1  0
 21 20  1  1
 21 23  1  0
 22 21  1  0
 22 16  1  0
 23 25  1  0
 24 23  2  0
M  END
$$$$
