TYA.pdb
     RDKit          3D

 25 25  0  0  1  0  0  0  0  0999 V2000
   26.7265  -23.1656  -17.4970 C   0  0  0  0  0  0  0  0  0  0  0  0
   25.6591  -22.3542  -16.8178 C   0  0  1  0  0  0  0  0  0  0  0  0
   26.0103  -22.2428  -15.4466 O   0  0  0  0  0  0  0  0  0  0  0  0
   25.5964  -20.9474  -17.3507 C   0  0  2  0  0  0  0  0  0  0  0  0
   26.9595  -20.3751  -17.2160 N   0  0  0  0  0  0  0  0  0  0  0  0
   24.6151  -20.0687  -16.7219 C   0  0  0  0  0  0  0  0  0  0  0  0
   25.0710  -19.0837  -16.0349 O   0  0  0  0  0  0  0  0  0  0  0  0
   24.4535  -14.3222  -19.7616 O   0  0  0  0  0  0  0  0  0  0  0  0
   23.7298  -15.3144  -19.1126 C   0  0  0  0  0  0  0  0  0  0  0  0
   23.0278  -15.0803  -17.9423 C   0  0  0  0  0  0  0  0  0  0  0  0
   22.3258  -16.0671  -17.3238 C   0  0  0  0  0  0  0  0  0  0  0  0
   22.3142  -17.3484  -17.8851 C   0  0  0  0  0  0  0  0  0  0  0  0
   21.5838  -18.4223  -17.1882 C   0  0  0  0  0  0  0  0  0  0  0  0
   22.3082  -19.1694  -16.1355 C   0  0  2  0  0  0  0  0  0  0  0  0
   23.2123  -20.1684  -16.7779 N   0  0  0  0  0  0  0  0  0  0  0  0
   21.5282  -19.8274  -15.0877 C   0  0  0  0  0  0  0  0  0  0  0  0
   21.0130  -20.9907  -15.3150 O   0  0  0  0  0  0  0  0  0  0  0  0
   23.0088  -17.5885  -19.0469 C   0  0  0  0  0  0  0  0  0  0  0  0
   23.7126  -16.5858  -19.6611 C   0  0  0  0  0  0  0  0  0  0  0  0
   20.3902  -19.3200  -11.5171 C   0  0  0  0  0  0  0  0  0  0  0  0
   20.4278  -20.0547  -12.8607 C   0  0  2  0  0  0  0  0  0  0  0  0
   21.2547  -19.3342  -13.7881 N   0  0  0  0  0  0  0  0  0  0  0  0
   19.0318  -20.1634  -13.3110 C   0  0  0  0  0  0  0  0  0  0  0  0
   18.6021  -19.4575  -14.2870 O   0  0  0  0  0  0  0  0  0  0  0  0
   18.1626  -21.0217  -12.6964 O   0  0  0  0  0  0  0  0  0  0  0  0
  2  4  1  0
  2  1  1  6
  3  2  1  0
  4  6  1  0
  4  5  1  1
  6  7  2  0
  8  9  1  0
  9 19  2  0
 10 11  2  0
 10  9  1  0
 11 12  1  0
 12 13  1  0
 12 18  2  0
 14 13  1  6
 14 16  1  0
 15  6  1  0
 15 14  1  0
 16 17  2  0
 19 18  1  0
 21 20  1  1
 21 23  1  0
 22 21  1  0
 22 16  1  0
 23 25  1  0
 24 23  2  0
M  END
$$$$
