TYA.pdb
     RDKit          3D

 25 25  0  0  1  0  0  0  0  0999 V2000
   31.3030  -19.9125  -19.0323 C   0  0  0  0  0  0  0  0  0  0  0  0
   29.9884  -19.2241  -18.7937 C   0  0  1  0  0  0  0  0  0  0  0  0
   29.8213  -18.2501  -19.8132 O   0  0  0  0  0  0  0  0  0  0  0  0
   28.8251  -20.1711  -18.9231 C   0  0  2  0  0  0  0  0  0  0  0  0
   27.5973  -19.3854  -18.6422 N   0  0  0  0  0  0  0  0  0  0  0  0
   28.8699  -21.3586  -18.0756 C   0  0  0  0  0  0  0  0  0  0  0  0
   28.5990  -21.1962  -16.8306 O   0  0  0  0  0  0  0  0  0  0  0  0
   23.0115  -23.5264  -15.8230 O   0  0  0  0  0  0  0  0  0  0  0  0
   24.2740  -23.8553  -16.2998 C   0  0  0  0  0  0  0  0  0  0  0  0
   25.1273  -24.7096  -15.6221 C   0  0  0  0  0  0  0  0  0  0  0  0
   26.3595  -25.0178  -16.1076 C   0  0  0  0  0  0  0  0  0  0  0  0
   26.7726  -24.4571  -17.3209 C   0  0  0  0  0  0  0  0  0  0  0  0
   28.1245  -24.7643  -17.8213 C   0  0  0  0  0  0  0  0  0  0  0  0
   29.2082  -23.8117  -17.4907 C   0  0  2  0  0  0  0  0  0  0  0  0
   29.1760  -22.6774  -18.4604 N   0  0  0  0  0  0  0  0  0  0  0  0
   30.5753  -24.3215  -17.3890 C   0  0  0  0  0  0  0  0  0  0  0  0
   31.2710  -24.4932  -18.4645 O   0  0  0  0  0  0  0  0  0  0  0  0
   25.9309  -23.6079  -17.9995 C   0  0  0  0  0  0  0  0  0  0  0  0
   24.6914  -23.3050  -17.4999 C   0  0  0  0  0  0  0  0  0  0  0  0
   33.1707  -25.2609  -14.8080 C   0  0  0  0  0  0  0  0  0  0  0  0
   32.6237  -25.1550  -16.2349 C   0  0  2  0  0  0  0  0  0  0  0  0
   31.2744  -24.6633  -16.2051 N   0  0  0  0  0  0  0  0  0  0  0  0
   32.7239  -26.5022  -16.8166 C   0  0  0  0  0  0  0  0  0  0  0  0
   31.6725  -27.1783  -17.0868 O   0  0  0  0  0  0  0  0  0  0  0  0
   33.9433  -27.0615  -17.0814 O   0  0  0  0  0  0  0  0  0  0  0  0
  2  4  1  0
  2  1  1  6
  3  2  1  0
  4  6  1  0
  4  5  1  1
  6  7  2  0
  8  9  1  0
  9 19  2  0
 10 11  2  0
 10  9  1  0
 11 12  1  0
 12 13  1  0
 12 18  2  0
 14 13  1  6
 14 16  1  0
 15  6  1  0
 15 14  1  0
 16 17  2  0
 19 18  1  0
 21 20  1  1
 21 23  1  0
 22 21  1  0
 22 16  1  0
 23 25  1  0
 24 23  2  0
M  END
$$$$
