TYA.pdb
     RDKit          3D

 25 25  0  0  1  0  0  0  0  0999 V2000
   15.9572  -10.9115  -17.2071 C   0  0  0  0  0  0  0  0  0  0  0  0
   17.0430  -10.2423  -16.4119 C   0  0  1  0  0  0  0  0  0  0  0  0
   16.6823  -10.3198  -15.0408 O   0  0  0  0  0  0  0  0  0  0  0  0
   18.3598  -10.9607  -16.5408 C   0  0  2  0  0  0  0  0  0  0  0  0
   18.1793  -12.3027  -15.9323 N   0  0  0  0  0  0  0  0  0  0  0  0
   19.5145  -10.2899  -15.9515 C   0  0  0  0  0  0  0  0  0  0  0  0
   19.9193  -10.7211  -14.8113 O   0  0  0  0  0  0  0  0  0  0  0  0
   24.3462  -14.1071  -17.7753 O   0  0  0  0  0  0  0  0  0  0  0  0
   23.9427  -12.8045  -17.5114 C   0  0  0  0  0  0  0  0  0  0  0  0
   24.3065  -12.1308  -16.3577 C   0  0  0  0  0  0  0  0  0  0  0  0
   23.8998  -10.8552  -16.1199 C   0  0  0  0  0  0  0  0  0  0  0  0
   23.0945  -10.2104  -17.0648 C   0  0  0  0  0  0  0  0  0  0  0  0
   22.6248   -8.8423  -16.7822 C   0  0  0  0  0  0  0  0  0  0  0  0
   21.4898   -8.6897  -15.8444 C   0  0  2  0  0  0  0  0  0  0  0  0
   20.2495   -9.2157  -16.4869 N   0  0  0  0  0  0  0  0  0  0  0  0
   21.2207   -7.3640  -15.2880 C   0  0  0  0  0  0  0  0  0  0  0  0
   20.6485   -6.4699  -16.0251 O   0  0  0  0  0  0  0  0  0  0  0  0
   22.7291  -10.8729  -18.2127 C   0  0  0  0  0  0  0  0  0  0  0  0
   23.1454  -12.1584  -18.4411 C   0  0  0  0  0  0  0  0  0  0  0  0
   21.3574   -5.4910  -12.0125 C   0  0  0  0  0  0  0  0  0  0  0  0
   21.1324   -5.6030  -13.5235 C   0  0  2  0  0  0  0  0  0  0  0  0
   21.5146   -6.9108  -13.9783 N   0  0  0  0  0  0  0  0  0  0  0  0
   21.9303   -4.5323  -14.1403 C   0  0  0  0  0  0  0  0  0  0  0  0
   23.0269   -4.7973  -14.7427 O   0  0  0  0  0  0  0  0  0  0  0  0
   21.5173   -3.2299  -14.0834 O   0  0  0  0  0  0  0  0  0  0  0  0
  2  4  1  0
  2  1  1  6
  3  2  1  0
  4  6  1  0
  4  5  1  1
  6  7  2  0
  8  9  1  0
  9 19  2  0
 10 11  2  0
 10  9  1  0
 11 12  1  0
 12 13  1  0
 12 18  2  0
 14 13  1  6
 14 16  1  0
 15  6  1  0
 15 14  1  0
 16 17  2  0
 19 18  1  0
 21 20  1  1
 21 23  1  0
 22 21  1  0
 22 16  1  0
 23 25  1  0
 24 23  2  0
M  END
$$$$
