IWT.pdb
     RDKit          3D

 30 31  0  0  1  0  0  0  0  0999 V2000
    7.0442  -17.5620   17.4500 C   0  0  0  0  0  0  0  0  0  0  0  0
    6.6102  -16.7764   18.6444 C   0  0  0  0  0  0  0  0  0  0  0  0
    7.6928  -16.6293   19.6925 C   0  0  2  0  0  0  0  0  0  0  0  0
    8.2457  -18.0039   19.9916 C   0  0  0  0  0  0  0  0  0  0  0  0
    7.0482  -15.9823   20.8973 C   0  0  2  0  0  0  0  0  0  0  0  0
    6.6182  -14.6506   20.4401 N   0  0  0  0  0  0  0  0  0  0  0  0
    7.9685  -15.7815   22.0147 C   0  0  0  0  0  0  0  0  0  0  0  0
    8.7744  -14.8102   21.9532 O   0  0  0  0  0  0  0  0  0  0  0  0
    8.0490  -16.5856   23.1866 N   0  0  0  0  0  0  0  0  0  0  0  0
    9.0605  -16.3402   24.1952 C   0  0  1  0  0  0  0  0  0  0  0  0
    8.4423  -16.3895   25.5929 C   0  0  0  0  0  0  0  0  0  0  0  0
    7.4135  -15.3288   25.7343 C   0  0  0  0  0  0  0  0  0  0  0  0
    6.0516  -15.4485   25.5624 C   0  0  0  0  0  0  0  0  0  0  0  0
    5.4586  -14.2482   25.7824 N   0  0  0  0  0  0  0  0  0  0  0  0
    6.4084  -13.3646   26.0907 C   0  0  0  0  0  0  0  0  0  0  0  0
    6.3232  -12.0126   26.4000 C   0  0  0  0  0  0  0  0  0  0  0  0
    7.4779  -11.3035   26.6889 C   0  0  0  0  0  0  0  0  0  0  0  0
    8.6983  -11.9243   26.6716 C   0  0  0  0  0  0  0  0  0  0  0  0
    8.7565  -13.2668   26.3615 C   0  0  0  0  0  0  0  0  0  0  0  0
    7.6379  -14.0120   26.0680 C   0  0  0  0  0  0  0  0  0  0  0  0
   10.1937  -17.2729   24.0762 C   0  0  0  0  0  0  0  0  0  0  0  0
    9.9809  -18.5117   24.1631 O   0  0  0  0  0  0  0  0  0  0  0  0
   12.2914  -17.8151   21.2157 C   0  0  0  0  0  0  0  0  0  0  0  0
   13.2596  -17.5171   22.3102 C   0  0  1  0  0  0  0  0  0  0  0  0
   13.7224  -16.2174   22.1807 O   0  0  0  0  0  0  0  0  0  0  0  0
   12.6376  -17.7624   23.6700 C   0  0  2  0  0  0  0  0  0  0  0  0
   11.5372  -16.8417   23.8651 N   0  0  0  0  0  0  0  0  0  0  0  0
   13.6862  -17.4824   24.6908 C   0  0  0  0  0  0  0  0  0  0  0  0
   14.7778  -18.2931   24.9129 O   0  0  0  0  0  0  0  0  0  0  0  0
   13.6054  -16.4388   25.4247 O   0  0  0  0  0  0  0  0  0  0  0  0
  2  1  1  0
  2  3  1  0
  3  4  1  1
  5  3  1  0
  5  6  1  6
  7  5  1  0
  7  8  2  0
  9  7  1  0
 10  9  1  0
 10 11  1  1
 12 11  1  0
 13 12  2  0
 14 13  1  0
 15 14  1  0
 15 20  2  0
 16 15  1  0
 17 16  2  0
 17 18  1  0
 18 19  2  0
 19 20  1  0
 20 12  1  0
 21 10  1  0
 22 21  2  0
 24 23  1  6
 24 25  1  0
 24 26  1  0
 26 27  1  1
 26 28  1  0
 27 21  1  0
 28 29  1  0
 30 28  2  0
M  END
$$$$
