IWT.pdb
     RDKit          3D

 30 31  0  0  1  0  0  0  0  0999 V2000
   10.5392  -18.6526   17.1699 C   0  0  0  0  0  0  0  0  0  0  0  0
   11.7111  -18.2235   17.9914 C   0  0  0  0  0  0  0  0  0  0  0  0
   11.3508  -17.8898   19.4235 C   0  0  2  0  0  0  0  0  0  0  0  0
   10.5678  -19.0506   19.9928 C   0  0  0  0  0  0  0  0  0  0  0  0
   10.5516  -16.6071   19.3844 C   0  0  2  0  0  0  0  0  0  0  0  0
   11.4510  -15.6065   18.7865 N   0  0  0  0  0  0  0  0  0  0  0  0
   10.1724  -16.1147   20.7072 C   0  0  0  0  0  0  0  0  0  0  0  0
   11.0932  -15.7448   21.4896 O   0  0  0  0  0  0  0  0  0  0  0  0
    8.8454  -16.0081   21.2111 N   0  0  0  0  0  0  0  0  0  0  0  0
    8.5957  -15.6584   22.5953 C   0  0  1  0  0  0  0  0  0  0  0  0
    7.1535  -15.1821   22.7727 C   0  0  0  0  0  0  0  0  0  0  0  0
    6.8888  -14.8750   24.2005 C   0  0  0  0  0  0  0  0  0  0  0  0
    6.3794  -15.7193   25.1630 C   0  0  0  0  0  0  0  0  0  0  0  0
    6.2878  -15.0588   26.3446 N   0  0  0  0  0  0  0  0  0  0  0  0
    6.7262  -13.8130   26.1605 C   0  0  0  0  0  0  0  0  0  0  0  0
    6.8358  -12.7498   27.0484 C   0  0  0  0  0  0  0  0  0  0  0  0
    7.3309  -11.5351   26.6023 C   0  0  0  0  0  0  0  0  0  0  0  0
    7.7116  -11.3762   25.2965 C   0  0  0  0  0  0  0  0  0  0  0  0
    7.5932  -12.4464   24.4349 C   0  0  0  0  0  0  0  0  0  0  0  0
    7.1075  -13.6710   24.8316 C   0  0  0  0  0  0  0  0  0  0  0  0
    8.9103  -16.7696   23.5088 C   0  0  0  0  0  0  0  0  0  0  0  0
    8.2993  -17.8637   23.3779 O   0  0  0  0  0  0  0  0  0  0  0  0
   11.7189  -18.8868   23.8243 C   0  0  0  0  0  0  0  0  0  0  0  0
   11.6161  -18.2386   25.1635 C   0  0  1  0  0  0  0  0  0  0  0  0
   12.5295  -17.2000   25.2488 O   0  0  0  0  0  0  0  0  0  0  0  0
   10.2010  -17.7699   25.4352 C   0  0  2  0  0  0  0  0  0  0  0  0
    9.8831  -16.6708   24.5478 N   0  0  0  0  0  0  0  0  0  0  0  0
   10.1618  -17.2797   26.8417 C   0  0  0  0  0  0  0  0  0  0  0  0
    9.9803  -15.9592   27.1900 O   0  0  0  0  0  0  0  0  0  0  0  0
   10.3010  -18.1007   27.8117 O   0  0  0  0  0  0  0  0  0  0  0  0
  2  1  1  0
  2  3  1  0
  3  4  1  6
  5  3  1  0
  5  6  1  1
  7  5  1  0
  7  8  2  0
  9  7  1  0
 10  9  1  0
 10 11  1  6
 12 11  1  0
 13 12  2  0
 14 13  1  0
 15 14  1  0
 15 20  2  0
 16 15  1  0
 17 16  2  0
 17 18  1  0
 18 19  2  0
 19 20  1  0
 20 12  1  0
 21 10  1  0
 22 21  2  0
 24 23  1  6
 24 25  1  0
 24 26  1  0
 26 27  1  6
 26 28  1  0
 27 21  1  0
 28 29  1  0
 30 28  2  0
M  END
$$$$
