IWT.pdb
     RDKit          3D

 30 31  0  0  1  0  0  0  0  0999 V2000
    7.2069  -12.1637   20.8524 C   0  0  0  0  0  0  0  0  0  0  0  0
    7.5466  -13.6000   21.0842 C   0  0  0  0  0  0  0  0  0  0  0  0
    8.6568  -14.1069   20.1882 C   0  0  2  0  0  0  0  0  0  0  0  0
    8.2113  -13.9458   18.7528 C   0  0  0  0  0  0  0  0  0  0  0  0
    8.8988  -15.5500   20.5680 C   0  0  2  0  0  0  0  0  0  0  0  0
    7.6261  -16.2408   20.3024 N   0  0  0  0  0  0  0  0  0  0  0  0
    9.2073  -15.7374   21.9842 C   0  0  0  0  0  0  0  0  0  0  0  0
   10.2166  -15.1413   22.4562 O   0  0  0  0  0  0  0  0  0  0  0  0
    8.4708  -16.5389   22.9016 N   0  0  0  0  0  0  0  0  0  0  0  0
    8.9015  -16.6906   24.2770 C   0  0  1  0  0  0  0  0  0  0  0  0
    7.6953  -16.6864   25.2168 C   0  0  0  0  0  0  0  0  0  0  0  0
    7.0876  -15.3329   25.2621 C   0  0  0  0  0  0  0  0  0  0  0  0
    5.9538  -14.8967   24.6116 C   0  0  0  0  0  0  0  0  0  0  0  0
    5.7309  -13.5926   24.9120 N   0  0  0  0  0  0  0  0  0  0  0  0
    6.6944  -13.1849   25.7387 C   0  0  0  0  0  0  0  0  0  0  0  0
    6.9172  -11.9482   26.3316 C   0  0  0  0  0  0  0  0  0  0  0  0
    8.0097  -11.7774   27.1665 C   0  0  0  0  0  0  0  0  0  0  0  0
    8.8683  -12.8160   27.4101 C   0  0  0  0  0  0  0  0  0  0  0  0
    8.6256  -14.0335   26.8097 C   0  0  0  0  0  0  0  0  0  0  0  0
    7.5546  -14.2508   25.9738 C   0  0  0  0  0  0  0  0  0  0  0  0
    9.7249  -17.8967   24.4658 C   0  0  0  0  0  0  0  0  0  0  0  0
    9.1793  -19.0300   24.3929 O   0  0  0  0  0  0  0  0  0  0  0  0
   12.8247  -18.8553   22.5823 C   0  0  0  0  0  0  0  0  0  0  0  0
   13.1791  -18.9137   24.0297 C   0  0  1  0  0  0  0  0  0  0  0  0
   13.9347  -17.8026   24.3688 O   0  0  0  0  0  0  0  0  0  0  0  0
   11.9380  -19.0366   24.8903 C   0  0  2  0  0  0  0  0  0  0  0  0
   11.1261  -17.8485   24.7304 N   0  0  0  0  0  0  0  0  0  0  0  0
   12.3912  -19.1227   26.3071 C   0  0  0  0  0  0  0  0  0  0  0  0
   13.0872  -20.1920   26.8271 O   0  0  0  0  0  0  0  0  0  0  0  0
   12.1395  -18.1694   27.1207 O   0  0  0  0  0  0  0  0  0  0  0  0
  2  1  1  0
  2  3  1  0
  3  4  1  6
  5  3  1  0
  5  6  1  1
  7  5  1  0
  7  8  2  0
  9  7  1  0
 10  9  1  0
 10 11  1  1
 12 11  1  0
 13 12  2  0
 14 13  1  0
 15 14  1  0
 15 20  2  0
 16 15  1  0
 17 16  2  0
 17 18  1  0
 18 19  2  0
 19 20  1  0
 20 12  1  0
 21 10  1  0
 22 21  2  0
 24 23  1  6
 24 25  1  0
 24 26  1  0
 26 27  1  1
 26 28  1  0
 27 21  1  0
 28 29  1  0
 30 28  2  0
M  END
$$$$
