IWT.pdb
     RDKit          3D

 30 31  0  0  1  0  0  0  0  0999 V2000
    3.2564  -16.9392   20.8679 C   0  0  0  0  0  0  0  0  0  0  0  0
    4.6638  -17.4406   20.8599 C   0  0  0  0  0  0  0  0  0  0  0  0
    5.6423  -16.4944   21.5227 C   0  0  2  0  0  0  0  0  0  0  0  0
    5.4922  -15.1362   20.8767 C   0  0  0  0  0  0  0  0  0  0  0  0
    7.0200  -17.0861   21.3291 C   0  0  2  0  0  0  0  0  0  0  0  0
    6.8678  -18.5244   21.6043 N   0  0  0  0  0  0  0  0  0  0  0  0
    8.0151  -16.5678   22.2657 C   0  0  0  0  0  0  0  0  0  0  0  0
    8.6154  -15.4979   21.9626 O   0  0  0  0  0  0  0  0  0  0  0  0
    8.3820  -17.1586   23.5077 N   0  0  0  0  0  0  0  0  0  0  0  0
    9.4386  -16.5932   24.3229 C   0  0  1  0  0  0  0  0  0  0  0  0
    9.0497  -16.6319   25.8012 C   0  0  0  0  0  0  0  0  0  0  0  0
    7.9227  -15.7006   26.0576 C   0  0  0  0  0  0  0  0  0  0  0  0
    6.5848  -16.0096   26.1734 C   0  0  0  0  0  0  0  0  0  0  0  0
    5.8754  -14.8769   26.4074 N   0  0  0  0  0  0  0  0  0  0  0  0
    6.7275  -13.8519   26.4439 C   0  0  0  0  0  0  0  0  0  0  0  0
    6.5061  -12.4957   26.6505 C   0  0  0  0  0  0  0  0  0  0  0  0
    7.5789  -11.6189   26.6415 C   0  0  0  0  0  0  0  0  0  0  0  0
    8.8515  -12.0788   26.4311 C   0  0  0  0  0  0  0  0  0  0  0  0
    9.0451  -13.4291   26.2285 C   0  0  0  0  0  0  0  0  0  0  0  0
    8.0117  -14.3374   26.2287 C   0  0  0  0  0  0  0  0  0  0  0  0
   10.7301  -17.2609   24.0899 C   0  0  0  0  0  0  0  0  0  0  0  0
   10.9147  -18.4188   24.5511 O   0  0  0  0  0  0  0  0  0  0  0  0
   12.3051  -17.8516   20.7762 C   0  0  0  0  0  0  0  0  0  0  0  0
   13.3667  -17.2170   21.6095 C   0  0  1  0  0  0  0  0  0  0  0  0
   13.5340  -15.8967   21.2232 O   0  0  0  0  0  0  0  0  0  0  0  0
   13.0459  -17.3372   23.0855 C   0  0  2  0  0  0  0  0  0  0  0  0
   11.7973  -16.6575   23.3600 N   0  0  0  0  0  0  0  0  0  0  0  0
   14.1400  -16.6537   23.8310 C   0  0  0  0  0  0  0  0  0  0  0  0
   15.4366  -17.1161   23.8870 O   0  0  0  0  0  0  0  0  0  0  0  0
   13.9033  -15.5719   24.4697 O   0  0  0  0  0  0  0  0  0  0  0  0
  2  1  1  0
  2  3  1  0
  3  4  1  6
  5  3  1  0
  5  6  1  1
  7  5  1  0
  7  8  2  0
  9  7  1  0
 10  9  1  0
 10 11  1  1
 12 11  1  0
 13 12  2  0
 14 13  1  0
 15 14  1  0
 15 20  2  0
 16 15  1  0
 17 16  2  0
 17 18  1  0
 18 19  2  0
 19 20  1  0
 20 12  1  0
 21 10  1  0
 22 21  2  0
 24 23  1  6
 24 25  1  0
 24 26  1  0
 26 27  1  6
 26 28  1  0
 27 21  1  0
 28 29  1  0
 30 28  2  0
M  END
$$$$
