IWT.pdb
     RDKit          3D

 30 31  0  0  1  0  0  0  0  0999 V2000
    6.7449  -12.8305   19.2431 C   0  0  0  0  0  0  0  0  0  0  0  0
    7.1682  -14.1746   19.7395 C   0  0  0  0  0  0  0  0  0  0  0  0
    8.0192  -14.1124   20.9902 C   0  0  2  0  0  0  0  0  0  0  0  0
    9.1923  -13.2000   20.7142 C   0  0  0  0  0  0  0  0  0  0  0  0
    8.4406  -15.5305   21.3016 C   0  0  2  0  0  0  0  0  0  0  0  0
    7.1907  -16.3074   21.3433 N   0  0  0  0  0  0  0  0  0  0  0  0
    9.0854  -15.6751   22.6052 C   0  0  0  0  0  0  0  0  0  0  0  0
   10.1665  -15.0523   22.8055 O   0  0  0  0  0  0  0  0  0  0  0  0
    8.6082  -16.4617   23.6915 N   0  0  0  0  0  0  0  0  0  0  0  0
    9.3496  -16.5515   24.9336 C   0  0  1  0  0  0  0  0  0  0  0  0
    8.3987  -16.4735   26.1285 C   0  0  0  0  0  0  0  0  0  0  0  0
    7.4412  -15.3538   25.9474 C   0  0  0  0  0  0  0  0  0  0  0  0
    6.1476  -15.4198   25.4773 C   0  0  0  0  0  0  0  0  0  0  0  0
    5.6058  -14.1761   25.4616 N   0  0  0  0  0  0  0  0  0  0  0  0
    6.5216  -13.3171   25.9103 C   0  0  0  0  0  0  0  0  0  0  0  0
    6.4639  -11.9399   26.0862 C   0  0  0  0  0  0  0  0  0  0  0  0
    7.5710  -11.2665   26.5767 C   0  0  0  0  0  0  0  0  0  0  0  0
    8.7177  -11.9472   26.8881 C   0  0  0  0  0  0  0  0  0  0  0  0
    8.7500  -13.3136   26.7046 C   0  0  0  0  0  0  0  0  0  0  0  0
    7.6764  -14.0251   26.2207 C   0  0  0  0  0  0  0  0  0  0  0  0
   10.1841  -17.7634   24.9898 C   0  0  0  0  0  0  0  0  0  0  0  0
    9.6332  -18.8796   25.1844 O   0  0  0  0  0  0  0  0  0  0  0  0
   12.3573  -19.1450   22.3566 C   0  0  0  0  0  0  0  0  0  0  0  0
   13.2328  -18.9804   23.5526 C   0  0  1  0  0  0  0  0  0  0  0  0
   14.0147  -17.8461   23.4040 O   0  0  0  0  0  0  0  0  0  0  0  0
   12.4133  -18.9386   24.8265 C   0  0  2  0  0  0  0  0  0  0  0  0
   11.6021  -17.7393   24.8335 N   0  0  0  0  0  0  0  0  0  0  0  0
   13.3724  -18.8777   25.9652 C   0  0  0  0  0  0  0  0  0  0  0  0
   14.1795  -19.9271   26.3465 O   0  0  0  0  0  0  0  0  0  0  0  0
   13.4831  -17.8069   26.6547 O   0  0  0  0  0  0  0  0  0  0  0  0
  2  1  1  0
  2  3  1  0
  3  4  1  6
  5  3  1  0
  5  6  1  1
  7  5  1  0
  7  8  2  0
  9  7  1  0
 10  9  1  0
 10 11  1  1
 12 11  1  0
 13 12  2  0
 14 13  1  0
 15 14  1  0
 15 20  2  0
 16 15  1  0
 17 16  2  0
 17 18  1  0
 18 19  2  0
 19 20  1  0
 20 12  1  0
 21 10  1  0
 22 21  2  0
 24 23  1  6
 24 25  1  0
 24 26  1  0
 26 27  1  6
 26 28  1  0
 27 21  1  0
 28 29  1  0
 30 28  2  0
M  END
$$$$
