IWT.pdb
     RDKit          3D

 30 31  0  0  1  0  0  0  0  0999 V2000
    7.6715  -12.1002   21.1254 C   0  0  0  0  0  0  0  0  0  0  0  0
    7.7162  -13.5808   21.3210 C   0  0  0  0  0  0  0  0  0  0  0  0
    8.6608  -14.2840   20.3695 C   0  0  2  0  0  0  0  0  0  0  0  0
    8.0904  -14.1720   18.9742 C   0  0  0  0  0  0  0  0  0  0  0  0
    8.7717  -15.7152   20.8438 C   0  0  2  0  0  0  0  0  0  0  0  0
    7.3985  -16.2447   20.8069 N   0  0  0  0  0  0  0  0  0  0  0  0
    9.2480  -15.8391   22.2200 C   0  0  0  0  0  0  0  0  0  0  0  0
   10.3307  -15.2648   22.5278 O   0  0  0  0  0  0  0  0  0  0  0  0
    8.6020  -16.5550   23.2672 N   0  0  0  0  0  0  0  0  0  0  0  0
    9.2137  -16.6834   24.5748 C   0  0  1  0  0  0  0  0  0  0  0  0
    8.1410  -16.7150   25.6641 C   0  0  0  0  0  0  0  0  0  0  0  0
    7.2792  -15.5103   25.5678 C   0  0  0  0  0  0  0  0  0  0  0  0
    6.0042  -15.4262   25.0521 C   0  0  0  0  0  0  0  0  0  0  0  0
    5.5593  -14.1479   25.1462 N   0  0  0  0  0  0  0  0  0  0  0  0
    6.5190  -13.4133   25.7096 C   0  0  0  0  0  0  0  0  0  0  0  0
    6.5589  -12.0602   26.0234 C   0  0  0  0  0  0  0  0  0  0  0  0
    7.6934  -11.5291   26.6153 C   0  0  0  0  0  0  0  0  0  0  0  0
    8.7719  -12.3263   26.8922 C   0  0  0  0  0  0  0  0  0  0  0  0
    8.7077  -13.6659   26.5711 C   0  0  0  0  0  0  0  0  0  0  0  0
    7.6035  -14.2382   25.9828 C   0  0  0  0  0  0  0  0  0  0  0  0
   10.0963  -17.8592   24.6562 C   0  0  0  0  0  0  0  0  0  0  0  0
    9.6279  -18.9505   25.0769 O   0  0  0  0  0  0  0  0  0  0  0  0
   13.1907  -18.5289   22.0655 C   0  0  0  0  0  0  0  0  0  0  0  0
   13.5628  -18.7490   23.4928 C   0  0  1  0  0  0  0  0  0  0  0  0
   14.3077  -17.6737   23.9503 O   0  0  0  0  0  0  0  0  0  0  0  0
   12.3337  -18.9884   24.3461 C   0  0  2  0  0  0  0  0  0  0  0  0
   11.4719  -17.8268   24.2790 N   0  0  0  0  0  0  0  0  0  0  0  0
   12.7996  -19.1616   25.7507 C   0  0  0  0  0  0  0  0  0  0  0  0
   13.4950  -20.2633   26.1988 O   0  0  0  0  0  0  0  0  0  0  0  0
   12.5603  -18.2578   26.6226 O   0  0  0  0  0  0  0  0  0  0  0  0
  2  1  1  0
  2  3  1  0
  3  4  1  6
  5  3  1  0
  5  6  1  1
  7  5  1  0
  7  8  2  0
  9  7  1  0
 10  9  1  0
 10 11  1  1
 12 11  1  0
 13 12  2  0
 14 13  1  0
 15 14  1  0
 15 20  2  0
 16 15  1  0
 17 16  2  0
 17 18  1  0
 18 19  2  0
 19 20  1  0
 20 12  1  0
 21 10  1  0
 22 21  2  0
 24 23  1  6
 24 25  1  0
 24 26  1  0
 26 27  1  1
 26 28  1  0
 27 21  1  0
 28 29  1  0
 30 28  2  0
M  END
$$$$
