IWT.pdb
     RDKit          3D

 30 31  0  0  1  0  0  0  0  0999 V2000
    9.3928  -14.6191   15.2786 C   0  0  0  0  0  0  0  0  0  0  0  0
    8.3964  -15.1507   16.2568 C   0  0  0  0  0  0  0  0  0  0  0  0
    8.8821  -15.1117   17.6902 C   0  0  2  0  0  0  0  0  0  0  0  0
    9.0571  -16.5361   18.1650 C   0  0  0  0  0  0  0  0  0  0  0  0
    7.8415  -14.3537   18.4827 C   0  0  2  0  0  0  0  0  0  0  0  0
    7.9756  -12.9503   18.0584 N   0  0  0  0  0  0  0  0  0  0  0  0
    8.0635  -14.3939   19.9267 C   0  0  0  0  0  0  0  0  0  0  0  0
    9.0663  -13.7809   20.3907 O   0  0  0  0  0  0  0  0  0  0  0  0
    7.2478  -15.0667   20.8797 N   0  0  0  0  0  0  0  0  0  0  0  0
    7.5985  -15.0847   22.2859 C   0  0  1  0  0  0  0  0  0  0  0  0
    6.3417  -15.2158   23.1469 C   0  0  0  0  0  0  0  0  0  0  0  0
    6.6904  -15.0830   24.5836 C   0  0  0  0  0  0  0  0  0  0  0  0
    6.8804  -16.0935   25.5009 C   0  0  0  0  0  0  0  0  0  0  0  0
    7.1860  -15.5585   26.7096 N   0  0  0  0  0  0  0  0  0  0  0  0
    7.1960  -14.2308   26.5870 C   0  0  0  0  0  0  0  0  0  0  0  0
    7.4500  -13.2356   27.5229 C   0  0  0  0  0  0  0  0  0  0  0  0
    7.3972  -11.9057   27.1379 C   0  0  0  0  0  0  0  0  0  0  0  0
    7.0974  -11.5670   25.8453 C   0  0  0  0  0  0  0  0  0  0  0  0
    6.8492  -12.5730   24.9353 C   0  0  0  0  0  0  0  0  0  0  0  0
    6.8900  -13.9067   25.2707 C   0  0  0  0  0  0  0  0  0  0  0  0
    8.5745  -16.1428   22.5959 C   0  0  0  0  0  0  0  0  0  0  0  0
    8.4236  -17.2855   22.0869 O   0  0  0  0  0  0  0  0  0  0  0  0
   11.4356  -16.9365   21.3187 C   0  0  0  0  0  0  0  0  0  0  0  0
   11.8609  -16.7379   22.7342 C   0  0  1  0  0  0  0  0  0  0  0  0
   12.4211  -15.4787   22.8793 O   0  0  0  0  0  0  0  0  0  0  0  0
   10.7026  -16.9539   23.6870 C   0  0  2  0  0  0  0  0  0  0  0  0
    9.6964  -15.9393   23.4535 N   0  0  0  0  0  0  0  0  0  0  0  0
   11.2343  -16.7953   25.0698 C   0  0  0  0  0  0  0  0  0  0  0  0
   12.0745  -17.7020   25.6782 O   0  0  0  0  0  0  0  0  0  0  0  0
   10.9162  -15.7718   25.7665 O   0  0  0  0  0  0  0  0  0  0  0  0
  2  1  1  0
  2  3  1  0
  3  4  1  1
  5  3  1  0
  5  6  1  6
  7  5  1  0
  7  8  2  0
  9  7  1  0
 10  9  1  0
 10 11  1  1
 12 11  1  0
 13 12  2  0
 14 13  1  0
 15 14  1  0
 15 20  2  0
 16 15  1  0
 17 16  2  0
 17 18  1  0
 18 19  2  0
 19 20  1  0
 20 12  1  0
 21 10  1  0
 22 21  2  0
 24 23  1  6
 24 25  1  0
 24 26  1  0
 26 27  1  6
 26 28  1  0
 27 21  1  0
 28 29  1  0
 30 28  2  0
M  END
$$$$
