IWT.pdb
     RDKit          3D

 30 31  0  0  1  0  0  0  0  0999 V2000
    6.6344  -12.7220   19.1922 C   0  0  0  0  0  0  0  0  0  0  0  0
    7.3499  -13.9670   19.6052 C   0  0  0  0  0  0  0  0  0  0  0  0
    7.9777  -13.8711   20.9795 C   0  0  2  0  0  0  0  0  0  0  0  0
    8.9464  -12.7108   20.9726 C   0  0  0  0  0  0  0  0  0  0  0  0
    8.6541  -15.1972   21.2432 C   0  0  2  0  0  0  0  0  0  0  0  0
    7.5762  -16.1991   21.1997 N   0  0  0  0  0  0  0  0  0  0  0  0
    9.2744  -15.2840   22.5637 C   0  0  0  0  0  0  0  0  0  0  0  0
   10.2709  -14.5442   22.8016 O   0  0  0  0  0  0  0  0  0  0  0  0
    8.8605  -16.1341   23.6278 N   0  0  0  0  0  0  0  0  0  0  0  0
    9.5765  -16.1599   24.8877 C   0  0  1  0  0  0  0  0  0  0  0  0
    8.6040  -16.3685   26.0491 C   0  0  0  0  0  0  0  0  0  0  0  0
    7.4888  -15.3927   25.9634 C   0  0  0  0  0  0  0  0  0  0  0  0
    6.1884  -15.6322   25.5756 C   0  0  0  0  0  0  0  0  0  0  0  0
    5.4775  -14.4780   25.6318 N   0  0  0  0  0  0  0  0  0  0  0  0
    6.2920  -13.5068   26.0460 C   0  0  0  0  0  0  0  0  0  0  0  0
    6.0536  -12.1557   26.2662 C   0  0  0  0  0  0  0  0  0  0  0  0
    7.0860  -11.3420   26.7042 C   0  0  0  0  0  0  0  0  0  0  0  0
    8.3353  -11.8591   26.9208 C   0  0  0  0  0  0  0  0  0  0  0  0
    8.5466  -13.2030   26.6951 C   0  0  0  0  0  0  0  0  0  0  0  0
    7.5532  -14.0498   26.2603 C   0  0  0  0  0  0  0  0  0  0  0  0
   10.6443  -17.1737   24.8929 C   0  0  0  0  0  0  0  0  0  0  0  0
   11.1466  -17.5308   25.9918 O   0  0  0  0  0  0  0  0  0  0  0  0
   10.8831  -20.2465   22.1146 C   0  0  0  0  0  0  0  0  0  0  0  0
   12.1606  -19.5191   22.3654 C   0  0  1  0  0  0  0  0  0  0  0  0
   12.3959  -18.6235   21.3345 O   0  0  0  0  0  0  0  0  0  0  0  0
   12.1411  -18.8328   23.7163 C   0  0  2  0  0  0  0  0  0  0  0  0
   11.1466  -17.7806   23.7033 N   0  0  0  0  0  0  0  0  0  0  0  0
   13.4850  -18.2225   23.9195 C   0  0  0  0  0  0  0  0  0  0  0  0
   14.6341  -18.9506   24.1376 O   0  0  0  0  0  0  0  0  0  0  0  0
   13.6230  -16.9518   23.8978 O   0  0  0  0  0  0  0  0  0  0  0  0
  2  1  1  0
  2  3  1  0
  3  4  1  6
  5  3  1  0
  5  6  1  1
  7  5  1  0
  7  8  2  0
  9  7  1  0
 10  9  1  0
 10 11  1  1
 12 11  1  0
 13 12  2  0
 14 13  1  0
 15 14  1  0
 15 20  2  0
 16 15  1  0
 17 16  2  0
 17 18  1  0
 18 19  2  0
 19 20  1  0
 20 12  1  0
 21 10  1  0
 22 21  2  0
 24 23  1  6
 24 25  1  0
 24 26  1  0
 26 27  1  6
 26 28  1  0
 27 21  1  0
 28 29  1  0
 30 28  2  0
M  END
$$$$
