IWT.pdb
     RDKit          3D

 30 31  0  0  1  0  0  0  0  0999 V2000
   11.8219  -19.3304   18.4598 C   0  0  0  0  0  0  0  0  0  0  0  0
   10.7507  -18.4062   18.9401 C   0  0  0  0  0  0  0  0  0  0  0  0
   10.8036  -18.1487   20.4311 C   0  0  2  0  0  0  0  0  0  0  0  0
   10.7114  -19.4802   21.1406 C   0  0  0  0  0  0  0  0  0  0  0  0
    9.6475  -17.2304   20.7562 C   0  0  2  0  0  0  0  0  0  0  0  0
    9.9285  -15.9799   20.0317 N   0  0  0  0  0  0  0  0  0  0  0  0
    9.5479  -16.8969   22.1756 C   0  0  0  0  0  0  0  0  0  0  0  0
   10.4152  -16.1190   22.6652 O   0  0  0  0  0  0  0  0  0  0  0  0
    8.5534  -17.3693   23.0779 N   0  0  0  0  0  0  0  0  0  0  0  0
    8.6087  -17.0463   24.4896 C   0  0  1  0  0  0  0  0  0  0  0  0
    7.2349  -16.5958   24.9874 C   0  0  0  0  0  0  0  0  0  0  0  0
    6.9917  -15.1819   24.6065 C   0  0  0  0  0  0  0  0  0  0  0  0
    6.5718  -14.6989   23.3862 C   0  0  0  0  0  0  0  0  0  0  0  0
    6.4698  -13.3472   23.4432 N   0  0  0  0  0  0  0  0  0  0  0  0
    6.8142  -12.9548   24.6702 C   0  0  0  0  0  0  0  0  0  0  0  0
    6.8755  -11.6856   25.2325 C   0  0  0  0  0  0  0  0  0  0  0  0
    7.2706  -11.5413   26.5526 C   0  0  0  0  0  0  0  0  0  0  0  0
    7.5999  -12.6377   27.3042 C   0  0  0  0  0  0  0  0  0  0  0  0
    7.5310  -13.8865   26.7231 C   0  0  0  0  0  0  0  0  0  0  0  0
    7.1445  -14.0794   25.4169 C   0  0  0  0  0  0  0  0  0  0  0  0
    9.1289  -18.1671   25.2905 C   0  0  0  0  0  0  0  0  0  0  0  0
    8.4201  -19.1984   25.4363 O   0  0  0  0  0  0  0  0  0  0  0  0
   11.9724  -20.2445   24.5650 C   0  0  0  0  0  0  0  0  0  0  0  0
   12.2446  -19.7191   25.9340 C   0  0  1  0  0  0  0  0  0  0  0  0
   13.1644  -18.6853   25.8609 O   0  0  0  0  0  0  0  0  0  0  0  0
   10.9627  -19.2873   26.6170 C   0  0  2  0  0  0  0  0  0  0  0  0
   10.4100  -18.1460   25.9182 N   0  0  0  0  0  0  0  0  0  0  0  0
   11.3197  -18.8759   28.0038 C   0  0  0  0  0  0  0  0  0  0  0  0
   11.6784  -19.7590   28.9986 O   0  0  0  0  0  0  0  0  0  0  0  0
   11.3046  -17.6401   28.3309 O   0  0  0  0  0  0  0  0  0  0  0  0
  2  1  1  0
  2  3  1  0
  3  4  1  1
  5  3  1  0
  5  6  1  6
  7  5  1  0
  7  8  2  0
  9  7  1  0
 10  9  1  0
 10 11  1  1
 12 11  1  0
 13 12  2  0
 14 13  1  0
 15 14  1  0
 15 20  2  0
 16 15  1  0
 17 16  2  0
 17 18  1  0
 18 19  2  0
 19 20  1  0
 20 12  1  0
 21 10  1  0
 22 21  2  0
 24 23  1  6
 24 25  1  0
 24 26  1  0
 26 27  1  6
 26 28  1  0
 27 21  1  0
 28 29  1  0
 30 28  2  0
M  END
$$$$
