IWT.pdb
     RDKit          3D

 30 31  0  0  1  0  0  0  0  0999 V2000
    9.7950  -14.7738   18.1625 C   0  0  0  0  0  0  0  0  0  0  0  0
    9.0143  -14.2839   19.3384 C   0  0  0  0  0  0  0  0  0  0  0  0
    7.7417  -15.0668   19.5829 C   0  0  2  0  0  0  0  0  0  0  0  0
    6.8326  -14.8677   18.3918 C   0  0  0  0  0  0  0  0  0  0  0  0
    7.1462  -14.5402   20.8688 C   0  0  2  0  0  0  0  0  0  0  0  0
    7.0378  -13.0842   20.6797 N   0  0  0  0  0  0  0  0  0  0  0  0
    7.9926  -14.7642   22.0390 C   0  0  0  0  0  0  0  0  0  0  0  0
    8.8795  -13.9039   22.3040 O   0  0  0  0  0  0  0  0  0  0  0  0
    7.9161  -15.8748   22.9262 N   0  0  0  0  0  0  0  0  0  0  0  0
    8.9017  -16.0680   23.9711 C   0  0  1  0  0  0  0  0  0  0  0  0
    8.2137  -16.2718   25.3214 C   0  0  0  0  0  0  0  0  0  0  0  0
    7.2959  -15.1399   25.6033 C   0  0  0  0  0  0  0  0  0  0  0  0
    5.9209  -15.1281   25.5129 C   0  0  0  0  0  0  0  0  0  0  0  0
    5.4536  -13.9009   25.8542 N   0  0  0  0  0  0  0  0  0  0  0  0
    6.4964  -13.1285   26.1606 C   0  0  0  0  0  0  0  0  0  0  0  0
    6.5529  -11.8013   26.5684 C   0  0  0  0  0  0  0  0  0  0  0  0
    7.7823  -11.2184   26.8300 C   0  0  0  0  0  0  0  0  0  0  0  0
    8.9381  -11.9394   26.6897 C   0  0  0  0  0  0  0  0  0  0  0  0
    8.8555  -13.2548   26.2837 C   0  0  0  0  0  0  0  0  0  0  0  0
    7.6583  -13.8763   26.0126 C   0  0  0  0  0  0  0  0  0  0  0  0
    9.8195  -17.1775   23.6633 C   0  0  0  0  0  0  0  0  0  0  0  0
    9.3496  -18.3343   23.4948 O   0  0  0  0  0  0  0  0  0  0  0  0
   12.4036  -17.4099   20.9148 C   0  0  0  0  0  0  0  0  0  0  0  0
   13.1124  -17.7009   22.1943 C   0  0  1  0  0  0  0  0  0  0  0  0
   13.8688  -16.6014   22.5673 O   0  0  0  0  0  0  0  0  0  0  0  0
   12.1353  -18.1083   23.2785 C   0  0  2  0  0  0  0  0  0  0  0  0
   11.2313  -17.0090   23.5446 N   0  0  0  0  0  0  0  0  0  0  0  0
   12.9312  -18.3852   24.5072 C   0  0  0  0  0  0  0  0  0  0  0  0
   13.7763  -19.4642   24.6479 O   0  0  0  0  0  0  0  0  0  0  0  0
   12.8539  -17.5998   25.5129 O   0  0  0  0  0  0  0  0  0  0  0  0
  2  1  1  0
  2  3  1  0
  3  4  1  6
  5  3  1  0
  5  6  1  6
  7  5  1  0
  7  8  2  0
  9  7  1  0
 10  9  1  0
 10 11  1  1
 12 11  1  0
 13 12  2  0
 14 13  1  0
 15 14  1  0
 15 20  2  0
 16 15  1  0
 17 16  2  0
 17 18  1  0
 18 19  2  0
 19 20  1  0
 20 12  1  0
 21 10  1  0
 22 21  2  0
 24 23  1  6
 24 25  1  0
 24 26  1  0
 26 27  1  1
 26 28  1  0
 27 21  1  0
 28 29  1  0
 30 28  2  0
M  END
$$$$
