IWT.pdb
     RDKit          3D

 30 31  0  0  1  0  0  0  0  0999 V2000
    7.5742  -12.0868   20.8362 C   0  0  0  0  0  0  0  0  0  0  0  0
    7.7904  -13.5084   21.2419 C   0  0  0  0  0  0  0  0  0  0  0  0
    8.6674  -14.2809   20.2795 C   0  0  2  0  0  0  0  0  0  0  0  0
    7.9718  -14.3184   18.9380 C   0  0  0  0  0  0  0  0  0  0  0  0
    8.8634  -15.6561   20.8762 C   0  0  2  0  0  0  0  0  0  0  0  0
    7.5153  -16.2430   20.9520 N   0  0  0  0  0  0  0  0  0  0  0  0
    9.4034  -15.6319   22.2341 C   0  0  0  0  0  0  0  0  0  0  0  0
   10.4947  -15.0251   22.4286 O   0  0  0  0  0  0  0  0  0  0  0  0
    8.8118  -16.2343   23.3802 N   0  0  0  0  0  0  0  0  0  0  0  0
    9.4747  -16.2039   24.6686 C   0  0  1  0  0  0  0  0  0  0  0  0
    8.4655  -16.4403   25.7928 C   0  0  0  0  0  0  0  0  0  0  0  0
    7.4133  -15.3938   25.7634 C   0  0  0  0  0  0  0  0  0  0  0  0
    6.0860  -15.5435   25.4248 C   0  0  0  0  0  0  0  0  0  0  0  0
    5.4542  -14.3469   25.5233 N   0  0  0  0  0  0  0  0  0  0  0  0
    6.3453  -13.4363   25.9167 C   0  0  0  0  0  0  0  0  0  0  0  0
    6.2037  -12.0761   26.1626 C   0  0  0  0  0  0  0  0  0  0  0  0
    7.3028  -11.3370   26.5691 C   0  0  0  0  0  0  0  0  0  0  0  0
    8.5236  -11.9363   26.7295 C   0  0  0  0  0  0  0  0  0  0  0  0
    8.6384  -13.2876   26.4792 C   0  0  0  0  0  0  0  0  0  0  0  0
    7.5761  -14.0623   26.0739 C   0  0  0  0  0  0  0  0  0  0  0  0
   10.5890  -17.1641   24.7368 C   0  0  0  0  0  0  0  0  0  0  0  0
   11.2486  -17.2643   25.8055 O   0  0  0  0  0  0  0  0  0  0  0  0
   10.6067  -20.8662   22.9562 C   0  0  0  0  0  0  0  0  0  0  0  0
   11.8123  -20.0387   22.6632 C   0  0  1  0  0  0  0  0  0  0  0  0
   11.6971  -19.4799   21.4004 O   0  0  0  0  0  0  0  0  0  0  0  0
   12.0220  -18.9838   23.7306 C   0  0  2  0  0  0  0  0  0  0  0  0
   10.9657  -17.9976   23.6417 N   0  0  0  0  0  0  0  0  0  0  0  0
   13.3252  -18.3206   23.4442 C   0  0  0  0  0  0  0  0  0  0  0  0
   13.4451  -17.0195   23.0075 O   0  0  0  0  0  0  0  0  0  0  0  0
   14.4199  -18.9621   23.6000 O   0  0  0  0  0  0  0  0  0  0  0  0
  2  1  1  0
  2  3  1  0
  3  4  1  6
  5  3  1  0
  5  6  1  1
  7  5  1  0
  7  8  2  0
  9  7  1  0
 10  9  1  0
 10 11  1  1
 12 11  1  0
 13 12  2  0
 14 13  1  0
 15 14  1  0
 15 20  2  0
 16 15  1  0
 17 16  2  0
 17 18  1  0
 18 19  2  0
 19 20  1  0
 20 12  1  0
 21 10  1  0
 22 21  2  0
 24 23  1  1
 24 25  1  0
 24 26  1  0
 26 27  1  6
 26 28  1  0
 27 21  1  0
 28 29  1  0
 30 28  2  0
M  END
$$$$
