IWT.pdb
     RDKit          3D

 30 31  0  0  1  0  0  0  0  0999 V2000
    9.0632  -15.6870   15.2689 C   0  0  0  0  0  0  0  0  0  0  0  0
    8.3007  -14.8216   16.2187 C   0  0  0  0  0  0  0  0  0  0  0  0
    8.7769  -14.9372   17.6512 C   0  0  2  0  0  0  0  0  0  0  0  0
    8.8490  -16.4051   18.0044 C   0  0  0  0  0  0  0  0  0  0  0  0
    7.7852  -14.1778   18.5028 C   0  0  2  0  0  0  0  0  0  0  0  0
    7.9314  -12.7676   18.1061 N   0  0  0  0  0  0  0  0  0  0  0  0
    8.0643  -14.2571   19.9352 C   0  0  0  0  0  0  0  0  0  0  0  0
    9.1248  -13.7203   20.3643 O   0  0  0  0  0  0  0  0  0  0  0  0
    7.2459  -14.8900   20.9129 N   0  0  0  0  0  0  0  0  0  0  0  0
    7.6458  -14.9412   22.3051 C   0  0  1  0  0  0  0  0  0  0  0  0
    6.4165  -14.9136   23.2140 C   0  0  0  0  0  0  0  0  0  0  0  0
    6.8328  -14.7839   24.6328 C   0  0  0  0  0  0  0  0  0  0  0  0
    7.1510  -15.7954   25.5128 C   0  0  0  0  0  0  0  0  0  0  0  0
    7.4806  -15.2635   26.7166 N   0  0  0  0  0  0  0  0  0  0  0  0
    7.3809  -13.9368   26.6272 C   0  0  0  0  0  0  0  0  0  0  0  0
    7.6084  -12.9446   27.5730 C   0  0  0  0  0  0  0  0  0  0  0  0
    7.4315  -11.6152   27.2251 C   0  0  0  0  0  0  0  0  0  0  0  0
    7.0353  -11.2741   25.9594 C   0  0  0  0  0  0  0  0  0  0  0  0
    6.8159  -12.2772   25.0388 C   0  0  0  0  0  0  0  0  0  0  0  0
    6.9784  -13.6103   25.3377 C   0  0  0  0  0  0  0  0  0  0  0  0
    8.4982  -16.1076   22.5900 C   0  0  0  0  0  0  0  0  0  0  0  0
    8.0789  -17.2598   22.3003 O   0  0  0  0  0  0  0  0  0  0  0  0
   11.7705  -17.0595   21.2902 C   0  0  0  0  0  0  0  0  0  0  0  0
   11.9473  -17.0082   22.7701 C   0  0  1  0  0  0  0  0  0  0  0  0
   12.5988  -15.8364   23.1204 O   0  0  0  0  0  0  0  0  0  0  0  0
   10.6178  -17.1501   23.4832 C   0  0  2  0  0  0  0  0  0  0  0  0
    9.7906  -15.9999   23.1849 N   0  0  0  0  0  0  0  0  0  0  0  0
   10.9026  -17.1720   24.9455 C   0  0  0  0  0  0  0  0  0  0  0  0
   11.6119  -18.1714   25.5749 O   0  0  0  0  0  0  0  0  0  0  0  0
   10.4815  -16.2265   25.6959 O   0  0  0  0  0  0  0  0  0  0  0  0
  2  1  1  0
  2  3  1  0
  3  4  1  1
  5  3  1  0
  5  6  1  6
  7  5  1  0
  7  8  2  0
  9  7  1  0
 10  9  1  0
 10 11  1  1
 12 11  1  0
 13 12  2  0
 14 13  1  0
 15 14  1  0
 15 20  2  0
 16 15  1  0
 17 16  2  0
 17 18  1  0
 18 19  2  0
 19 20  1  0
 20 12  1  0
 21 10  1  0
 22 21  2  0
 24 23  1  6
 24 25  1  0
 24 26  1  0
 26 27  1  1
 26 28  1  0
 27 21  1  0
 28 29  1  0
 30 28  2  0
M  END
$$$$
