IWT.pdb
     RDKit          3D

 30 31  0  0  1  0  0  0  0  0999 V2000
    7.6433  -12.0886   20.7398 C   0  0  0  0  0  0  0  0  0  0  0  0
    7.6268  -13.5204   21.1666 C   0  0  0  0  0  0  0  0  0  0  0  0
    8.2379  -14.4582   20.1473 C   0  0  2  0  0  0  0  0  0  0  0  0
    7.3412  -14.4770   18.9305 C   0  0  0  0  0  0  0  0  0  0  0  0
    8.3513  -15.8110   20.8124 C   0  0  2  0  0  0  0  0  0  0  0  0
    6.9719  -16.1902   21.1603 N   0  0  0  0  0  0  0  0  0  0  0  0
    9.1217  -15.7886   22.0542 C   0  0  0  0  0  0  0  0  0  0  0  0
   10.2819  -15.2886   22.0244 O   0  0  0  0  0  0  0  0  0  0  0  0
    8.6876  -16.2825   23.3167 N   0  0  0  0  0  0  0  0  0  0  0  0
    9.5595  -16.2494   24.4739 C   0  0  1  0  0  0  0  0  0  0  0  0
    8.7388  -16.3270   25.7618 C   0  0  0  0  0  0  0  0  0  0  0  0
    7.6150  -15.3587   25.7108 C   0  0  0  0  0  0  0  0  0  0  0  0
    6.3078  -15.6040   25.3505 C   0  0  0  0  0  0  0  0  0  0  0  0
    5.5903  -14.4555   25.4339 N   0  0  0  0  0  0  0  0  0  0  0  0
    6.4071  -13.4825   25.8389 C   0  0  0  0  0  0  0  0  0  0  0  0
    6.1642  -12.1353   26.0773 C   0  0  0  0  0  0  0  0  0  0  0  0
    7.2005  -11.3182   26.4996 C   0  0  0  0  0  0  0  0  0  0  0  0
    8.4582  -11.8282   26.6827 C   0  0  0  0  0  0  0  0  0  0  0  0
    8.6737  -13.1684   26.4393 C   0  0  0  0  0  0  0  0  0  0  0  0
    7.6767  -14.0182   26.0191 C   0  0  0  0  0  0  0  0  0  0  0  0
   10.5810  -17.3087   24.4235 C   0  0  0  0  0  0  0  0  0  0  0  0
   10.3228  -18.4350   24.9259 O   0  0  0  0  0  0  0  0  0  0  0  0
   12.5206  -18.4689   21.3114 C   0  0  0  0  0  0  0  0  0  0  0  0
   13.5073  -18.1506   22.3834 C   0  0  1  0  0  0  0  0  0  0  0  0
   14.1026  -16.9274   22.1192 O   0  0  0  0  0  0  0  0  0  0  0  0
   12.8547  -18.1775   23.7507 C   0  0  2  0  0  0  0  0  0  0  0  0
   11.8644  -17.1241   23.8282 N   0  0  0  0  0  0  0  0  0  0  0  0
   13.9230  -17.9088   24.7539 C   0  0  0  0  0  0  0  0  0  0  0  0
   13.9899  -16.7632   25.5163 O   0  0  0  0  0  0  0  0  0  0  0  0
   14.8509  -18.7662   24.9490 O   0  0  0  0  0  0  0  0  0  0  0  0
  2  1  1  0
  2  3  1  0
  3  4  1  6
  5  3  1  0
  5  6  1  1
  7  5  1  0
  7  8  2  0
  9  7  1  0
 10  9  1  0
 10 11  1  1
 12 11  1  0
 13 12  2  0
 14 13  1  0
 15 14  1  0
 15 20  2  0
 16 15  1  0
 17 16  2  0
 17 18  1  0
 18 19  2  0
 19 20  1  0
 20 12  1  0
 21 10  1  0
 22 21  2  0
 24 23  1  6
 24 25  1  0
 24 26  1  0
 26 27  1  6
 26 28  1  0
 27 21  1  0
 28 29  1  0
 30 28  2  0
M  END
$$$$
