IWT.pdb
     RDKit          3D

 30 31  0  0  1  0  0  0  0  0999 V2000
    6.4528  -18.8136   17.5666 C   0  0  0  0  0  0  0  0  0  0  0  0
    6.4591  -17.5059   18.2893 C   0  0  0  0  0  0  0  0  0  0  0  0
    7.5995  -17.3704   19.2758 C   0  0  2  0  0  0  0  0  0  0  0  0
    7.5440  -18.5483   20.2215 C   0  0  0  0  0  0  0  0  0  0  0  0
    7.4124  -16.0453   19.9791 C   0  0  2  0  0  0  0  0  0  0  0  0
    7.5090  -15.0263   18.9209 N   0  0  0  0  0  0  0  0  0  0  0  0
    8.4552  -15.7525   20.9603 C   0  0  0  0  0  0  0  0  0  0  0  0
    9.5923  -15.4047   20.5327 O   0  0  0  0  0  0  0  0  0  0  0  0
    8.3152  -15.8211   22.3752 N   0  0  0  0  0  0  0  0  0  0  0  0
    9.4516  -15.6170   23.2511 C   0  0  1  0  0  0  0  0  0  0  0  0
    9.3005  -14.3059   24.0234 C   0  0  0  0  0  0  0  0  0  0  0  0
    8.0105  -14.2909   24.7574 C   0  0  0  0  0  0  0  0  0  0  0  0
    7.0727  -15.2977   24.8325 C   0  0  0  0  0  0  0  0  0  0  0  0
    6.0313  -14.8923   25.6018 N   0  0  0  0  0  0  0  0  0  0  0  0
    6.2808  -13.6510   26.0201 C   0  0  0  0  0  0  0  0  0  0  0  0
    5.5350  -12.7980   26.8244 C   0  0  0  0  0  0  0  0  0  0  0  0
    6.0229  -11.5350   27.1182 C   0  0  0  0  0  0  0  0  0  0  0  0
    7.2314  -11.1233   26.6227 C   0  0  0  0  0  0  0  0  0  0  0  0
    7.9526  -11.9883   25.8267 C   0  0  0  0  0  0  0  0  0  0  0  0
    7.5093  -13.2511   25.5079 C   0  0  0  0  0  0  0  0  0  0  0  0
    9.6559  -16.7559   24.1617 C   0  0  0  0  0  0  0  0  0  0  0  0
    8.6524  -17.3773   24.6024 O   0  0  0  0  0  0  0  0  0  0  0  0
   11.2798  -19.9645   23.4852 C   0  0  0  0  0  0  0  0  0  0  0  0
   12.0217  -19.3624   24.6303 C   0  0  1  0  0  0  0  0  0  0  0  0
   13.1874  -18.7713   24.1699 O   0  0  0  0  0  0  0  0  0  0  0  0
   11.1513  -18.3801   25.3878 C   0  0  2  0  0  0  0  0  0  0  0  0
   10.9474  -17.1983   24.5766 N   0  0  0  0  0  0  0  0  0  0  0  0
   11.8928  -17.9952   26.6215 C   0  0  0  0  0  0  0  0  0  0  0  0
   12.0294  -18.8128   27.7219 O   0  0  0  0  0  0  0  0  0  0  0  0
   12.4495  -16.8473   26.7041 O   0  0  0  0  0  0  0  0  0  0  0  0
  2  1  1  0
  2  3  1  0
  3  4  1  1
  5  3  1  0
  5  6  1  6
  7  5  1  0
  7  8  2  0
  9  7  1  0
 10  9  1  0
 10 11  1  1
 12 11  1  0
 13 12  2  0
 14 13  1  0
 15 14  1  0
 15 20  2  0
 16 15  1  0
 17 16  2  0
 17 18  1  0
 18 19  2  0
 19 20  1  0
 20 12  1  0
 21 10  1  0
 22 21  2  0
 24 23  1  6
 24 25  1  0
 24 26  1  0
 26 27  1  6
 26 28  1  0
 27 21  1  0
 28 29  1  0
 30 28  2  0
M  END
$$$$
