IWT.pdb
     RDKit          3D

 30 31  0  0  1  0  0  0  0  0999 V2000
   12.3920  -18.4505   18.3550 C   0  0  0  0  0  0  0  0  0  0  0  0
   11.2044  -17.7465   18.9261 C   0  0  0  0  0  0  0  0  0  0  0  0
   11.2500  -17.6179   20.4339 C   0  0  2  0  0  0  0  0  0  0  0  0
   11.3196  -19.0089   21.0213 C   0  0  0  0  0  0  0  0  0  0  0  0
   10.0023  -16.8700   20.8455 C   0  0  2  0  0  0  0  0  0  0  0  0
   10.1185  -15.5438   20.2169 N   0  0  0  0  0  0  0  0  0  0  0  0
    9.8970  -16.6590   22.2879 C   0  0  0  0  0  0  0  0  0  0  0  0
   10.6633  -15.8073   22.8211 O   0  0  0  0  0  0  0  0  0  0  0  0
    9.0011  -17.3294   23.1679 N   0  0  0  0  0  0  0  0  0  0  0  0
    8.9926  -17.0433   24.5887 C   0  0  1  0  0  0  0  0  0  0  0  0
    7.5732  -16.7242   25.0595 C   0  0  0  0  0  0  0  0  0  0  0  0
    7.1934  -15.3509   24.6437 C   0  0  0  0  0  0  0  0  0  0  0  0
    6.7069  -14.9460   23.4197 C   0  0  0  0  0  0  0  0  0  0  0  0
    6.4820  -13.6082   23.4401 N   0  0  0  0  0  0  0  0  0  0  0  0
    6.8129  -13.1485   24.6472 C   0  0  0  0  0  0  0  0  0  0  0  0
    6.7682  -11.8623   25.1713 C   0  0  0  0  0  0  0  0  0  0  0  0
    7.1743  -11.6421   26.4775 C   0  0  0  0  0  0  0  0  0  0  0  0
    7.6179  -12.6802   27.2527 C   0  0  0  0  0  0  0  0  0  0  0  0
    7.6529  -13.9473   26.7095 C   0  0  0  0  0  0  0  0  0  0  0  0
    7.2601  -14.2147   25.4183 C   0  0  0  0  0  0  0  0  0  0  0  0
    9.5853  -18.1388   25.3740 C   0  0  0  0  0  0  0  0  0  0  0  0
    9.2653  -19.3280   25.1076 O   0  0  0  0  0  0  0  0  0  0  0  0
   12.4615  -19.7133   25.2389 C   0  0  0  0  0  0  0  0  0  0  0  0
   12.5044  -19.2737   26.6634 C   0  0  1  0  0  0  0  0  0  0  0  0
   13.3278  -18.1656   26.7835 O   0  0  0  0  0  0  0  0  0  0  0  0
   11.1107  -19.0017   27.1922 C   0  0  2  0  0  0  0  0  0  0  0  0
   10.5146  -17.9214   26.4346 N   0  0  0  0  0  0  0  0  0  0  0  0
   11.2544  -18.5721   28.6116 C   0  0  0  0  0  0  0  0  0  0  0  0
   11.6599  -19.4073   29.6295 O   0  0  0  0  0  0  0  0  0  0  0  0
   10.9957  -17.3658   28.9466 O   0  0  0  0  0  0  0  0  0  0  0  0
  2  1  1  0
  2  3  1  0
  3  4  1  1
  5  3  1  0
  5  6  1  6
  7  5  1  0
  7  8  2  0
  9  7  1  0
 10  9  1  0
 10 11  1  1
 12 11  1  0
 13 12  2  0
 14 13  1  0
 15 14  1  0
 15 20  2  0
 16 15  1  0
 17 16  2  0
 17 18  1  0
 18 19  2  0
 19 20  1  0
 20 12  1  0
 21 10  1  0
 22 21  2  0
 24 23  1  6
 24 25  1  0
 24 26  1  0
 26 27  1  6
 26 28  1  0
 27 21  1  0
 28 29  1  0
 30 28  2  0
M  END
$$$$
