WLS.pdb
     RDKit          3D

 29 30  0  0  1  0  0  0  0  0999 V2000
   24.8565  -18.9764  -10.3068 N   0  0  0  0  0  0  0  0  0  0  0  0
   25.0675  -20.4097  -10.3680 C   0  0  1  0  0  0  0  0  0  0  0  0
   25.4788  -20.7402  -11.7876 C   0  0  0  0  0  0  0  0  0  0  0  0
   24.5984  -20.0971  -12.7959 C   0  0  0  0  0  0  0  0  0  0  0  0
   24.9544  -19.2853  -13.8590 C   0  0  0  0  0  0  0  0  0  0  0  0
   23.8177  -18.9445  -14.4883 N   0  0  0  0  0  0  0  0  0  0  0  0
   22.7554  -19.4825  -13.9014 C   0  0  0  0  0  0  0  0  0  0  0  0
   21.3970  -19.4306  -14.1665 C   0  0  0  0  0  0  0  0  0  0  0  0
   20.5624  -20.1229  -13.3358 C   0  0  0  0  0  0  0  0  0  0  0  0
   21.0144  -20.8574  -12.2636 C   0  0  0  0  0  0  0  0  0  0  0  0
   22.3543  -20.9130  -11.9963 C   0  0  0  0  0  0  0  0  0  0  0  0
   23.2177  -20.2256  -12.8161 C   0  0  0  0  0  0  0  0  0  0  0  0
   26.2602  -20.7531   -9.5142 C   0  0  0  0  0  0  0  0  0  0  0  0
   26.7819  -21.8960   -9.5559 O   0  0  0  0  0  0  0  0  0  0  0  0
   29.4375  -18.2017   -4.8006 C   0  0  0  0  0  0  0  0  0  0  0  0
   28.9412  -19.4718   -5.4838 C   0  0  2  0  0  0  0  0  0  0  0  0
   30.0413  -20.4807   -5.6166 C   0  0  0  0  0  0  0  0  0  0  0  0
   28.3354  -19.1613   -6.8235 C   0  0  0  0  0  0  0  0  0  0  0  0
   27.4240  -20.2107   -7.3699 C   0  0  2  0  0  0  0  0  0  0  0  0
   26.8339  -19.7996   -8.6354 N   0  0  0  0  0  0  0  0  0  0  0  0
   26.4185  -20.6697   -6.4160 C   0  0  0  0  0  0  0  0  0  0  0  0
   25.5770  -19.8866   -5.9280 O   0  0  0  0  0  0  0  0  0  0  0  0
   26.7699  -24.3078   -4.4180 O   0  0  0  0  0  0  0  0  0  0  0  0
   25.4579  -23.9811   -4.7589 C   0  0  0  0  0  0  0  0  0  0  0  0
   25.4134  -22.4802   -4.9526 C   0  0  2  0  0  0  0  0  0  0  0  0
   26.3185  -22.0297   -5.9716 N   0  0  0  0  0  0  0  0  0  0  0  0
   25.7184  -21.8539   -3.6601 C   0  0  0  0  0  0  0  0  0  0  0  0
   24.7745  -21.5097   -2.9104 O   0  0  0  0  0  0  0  0  0  0  0  0
   27.0138  -21.6262   -3.2328 O   0  0  0  0  0  0  0  0  0  0  0  0
  2  1  1  6
  2 13  1  0
  3  2  1  0
  4  3  1  0
  4 12  1  0
  5  6  1  0
  5  4  2  0
  6  7  1  0
  7 12  2  0
  7  8  1  0
  8  9  2  0
  9 10  1  0
 11 10  2  0
 12 11  1  0
 13 14  2  0
 16 18  1  0
 16 15  1  6
 17 16  1  0
 19 18  1  1
 19 21  1  0
 20 19  1  0
 20 13  1  0
 21 22  2  0
 23 24  1  0
 25 24  1  1
 25 27  1  0
 26 25  1  0
 26 21  1  0
 27 28  2  0
 27 29  1  0
M  END
$$$$
