WLS.pdb
     RDKit          3D

 29 30  0  0  1  0  0  0  0  0999 V2000
   26.9788  -19.9145  -11.2386 N   0  0  0  0  0  0  0  0  0  0  0  0
   26.2040  -21.0772  -10.8508 C   0  0  1  0  0  0  0  0  0  0  0  0
   25.2776  -20.6439   -9.7337 C   0  0  0  0  0  0  0  0  0  0  0  0
   25.9981  -19.9407   -8.6420 C   0  0  0  0  0  0  0  0  0  0  0  0
   26.2308  -18.5841   -8.4965 C   0  0  0  0  0  0  0  0  0  0  0  0
   26.9218  -18.4262   -7.3555 N   0  0  0  0  0  0  0  0  0  0  0  0
   27.1487  -19.5898   -6.7580 C   0  0  0  0  0  0  0  0  0  0  0  0
   27.8006  -19.9448   -5.5887 C   0  0  0  0  0  0  0  0  0  0  0  0
   27.8469  -21.2715   -5.2667 C   0  0  0  0  0  0  0  0  0  0  0  0
   27.2792  -22.2512   -6.0484 C   0  0  0  0  0  0  0  0  0  0  0  0
   26.6341  -21.9078   -7.2042 C   0  0  0  0  0  0  0  0  0  0  0  0
   26.5721  -20.5794   -7.5530 C   0  0  0  0  0  0  0  0  0  0  0  0
   25.3020  -21.4533  -11.9973 C   0  0  0  0  0  0  0  0  0  0  0  0
   24.5982  -20.5903  -12.5805 O   0  0  0  0  0  0  0  0  0  0  0  0
   24.5453  -26.2668  -15.8875 C   0  0  0  0  0  0  0  0  0  0  0  0
   24.2016  -24.8309  -15.5051 C   0  0  2  0  0  0  0  0  0  0  0  0
   24.5435  -23.8792  -16.6111 C   0  0  0  0  0  0  0  0  0  0  0  0
   24.8867  -24.4349  -14.2276 C   0  0  0  0  0  0  0  0  0  0  0  0
   24.4600  -23.1232  -13.6551 C   0  0  2  0  0  0  0  0  0  0  0  0
   25.2164  -22.7920  -12.4565 N   0  0  0  0  0  0  0  0  0  0  0  0
   23.0192  -23.0151  -13.4454 C   0  0  0  0  0  0  0  0  0  0  0  0
   22.4590  -23.5614  -12.4722 O   0  0  0  0  0  0  0  0  0  0  0  0
   20.2058  -19.9305  -13.7676 O   0  0  0  0  0  0  0  0  0  0  0  0
   20.1608  -20.9154  -14.7537 C   0  0  0  0  0  0  0  0  0  0  0  0
   20.7290  -22.1782  -14.1416 C   0  0  2  0  0  0  0  0  0  0  0  0
   22.1489  -22.2870  -14.3226 N   0  0  0  0  0  0  0  0  0  0  0  0
   20.0302  -23.3202  -14.7443 C   0  0  0  0  0  0  0  0  0  0  0  0
   20.4036  -23.7431  -15.8637 O   0  0  0  0  0  0  0  0  0  0  0  0
   18.9690  -23.9531  -14.1232 O   0  0  0  0  0  0  0  0  0  0  0  0
  2  1  1  6
  2 13  1  0
  3  2  1  0
  4  3  1  0
  4 12  1  0
  5  6  1  0
  5  4  2  0
  6  7  1  0
  7 12  2  0
  7  8  1  0
  8  9  2  0
  9 10  1  0
 11 10  2  0
 12 11  1  0
 13 14  2  0
 16 18  1  0
 16 15  1  6
 17 16  1  0
 19 18  1  1
 19 21  1  0
 20 19  1  0
 20 13  1  0
 21 22  2  0
 23 24  1  0
 25 24  1  6
 25 27  1  0
 26 25  1  0
 26 21  1  0
 27 28  2  0
 27 29  1  0
M  END
$$$$
