WLS.pdb
     RDKit          3D

 29 30  0  0  1  0  0  0  0  0999 V2000
   26.2903  -21.8847  -15.2888 N   0  0  0  0  0  0  0  0  0  0  0  0
   26.2285  -21.3756  -13.9324 C   0  0  1  0  0  0  0  0  0  0  0  0
   26.7538  -19.9555  -13.9643 C   0  0  0  0  0  0  0  0  0  0  0  0
   28.1394  -19.8529  -13.4398 C   0  0  0  0  0  0  0  0  0  0  0  0
   29.2475  -19.2788  -14.0384 C   0  0  0  0  0  0  0  0  0  0  0  0
   30.2740  -19.4280  -13.1848 N   0  0  0  0  0  0  0  0  0  0  0  0
   29.9001  -20.0592  -12.0784 C   0  0  0  0  0  0  0  0  0  0  0  0
   30.5740  -20.4412  -10.9302 C   0  0  0  0  0  0  0  0  0  0  0  0
   29.8608  -21.0917   -9.9637 C   0  0  0  0  0  0  0  0  0  0  0  0
   28.5202  -21.3763  -10.0872 C   0  0  0  0  0  0  0  0  0  0  0  0
   27.8488  -21.0019  -11.2181 C   0  0  0  0  0  0  0  0  0  0  0  0
   28.5417  -20.3456  -12.2076 C   0  0  0  0  0  0  0  0  0  0  0  0
   24.7808  -21.2594  -13.5322 C   0  0  0  0  0  0  0  0  0  0  0  0
   23.8595  -21.5730  -14.3278 O   0  0  0  0  0  0  0  0  0  0  0  0
   20.5278  -19.7936  -10.4184 C   0  0  0  0  0  0  0  0  0  0  0  0
   21.5318  -20.7340   -9.7597 C   0  0  2  0  0  0  0  0  0  0  0  0
   21.5542  -20.5473   -8.2729 C   0  0  0  0  0  0  0  0  0  0  0  0
   22.9046  -20.5504  -10.3427 C   0  0  0  0  0  0  0  0  0  0  0  0
   23.0255  -20.8582  -11.7991 C   0  0  2  0  0  0  0  0  0  0  0  0
   24.4091  -20.7926  -12.2460 N   0  0  0  0  0  0  0  0  0  0  0  0
   22.1353  -20.0657  -12.6424 C   0  0  0  0  0  0  0  0  0  0  0  0
   22.2386  -18.8233  -12.7128 O   0  0  0  0  0  0  0  0  0  0  0  0
   20.2497  -21.7588  -15.7663 O   0  0  0  0  0  0  0  0  0  0  0  0
   20.4167  -20.3745  -15.7858 C   0  0  0  0  0  0  0  0  0  0  0  0
   20.2753  -19.8934  -14.3572 C   0  0  2  0  0  0  0  0  0  0  0  0
   21.0917  -20.6392  -13.4419 N   0  0  0  0  0  0  0  0  0  0  0  0
   18.8556  -19.9841  -13.9939 C   0  0  0  0  0  0  0  0  0  0  0  0
   18.5127  -20.7401  -13.0546 O   0  0  0  0  0  0  0  0  0  0  0  0
   17.8739  -19.2645  -14.6502 O   0  0  0  0  0  0  0  0  0  0  0  0
  2  1  1  6
  2 13  1  0
  3  2  1  0
  4  3  1  0
  4 12  1  0
  5  6  1  0
  5  4  2  0
  6  7  1  0
  7 12  2  0
  7  8  1  0
  8  9  2  0
  9 10  1  0
 11 10  2  0
 12 11  1  0
 13 14  2  0
 16 18  1  0
 16 15  1  6
 17 16  1  0
 19 18  1  1
 19 21  1  0
 20 19  1  0
 20 13  1  0
 21 22  2  0
 23 24  1  0
 25 24  1  6
 25 27  1  0
 26 25  1  0
 26 21  1  0
 27 28  2  0
 27 29  1  0
M  END
$$$$
