WLS.pdb
     RDKit          3D

 29 30  0  0  1  0  0  0  0  0999 V2000
   26.1339  -22.7853  -12.5048 N   0  0  0  0  0  0  0  0  0  0  0  0
   25.4837  -21.6009  -11.9785 C   0  0  1  0  0  0  0  0  0  0  0  0
   26.4757  -20.4617  -12.0865 C   0  0  0  0  0  0  0  0  0  0  0  0
   27.5747  -20.5725  -11.0939 C   0  0  0  0  0  0  0  0  0  0  0  0
   28.9189  -20.8140  -11.3190 C   0  0  0  0  0  0  0  0  0  0  0  0
   29.5202  -20.8266  -10.1180 N   0  0  0  0  0  0  0  0  0  0  0  0
   28.6532  -20.6095   -9.1364 C   0  0  0  0  0  0  0  0  0  0  0  0
   28.7794  -20.5294   -7.7594 C   0  0  0  0  0  0  0  0  0  0  0  0
   27.6486  -20.2867   -7.0325 C   0  0  0  0  0  0  0  0  0  0  0  0
   26.4100  -20.1216   -7.6087 C   0  0  0  0  0  0  0  0  0  0  0  0
   26.2783  -20.1994   -8.9675 C   0  0  0  0  0  0  0  0  0  0  0  0
   27.4000  -20.4429   -9.7242 C   0  0  0  0  0  0  0  0  0  0  0  0
   24.3477  -21.2326  -12.8969 C   0  0  0  0  0  0  0  0  0  0  0  0
   24.3748  -21.5337  -14.1170 O   0  0  0  0  0  0  0  0  0  0  0  0
   20.4776  -22.8828  -13.6813 C   0  0  0  0  0  0  0  0  0  0  0  0
   20.5215  -22.1631  -12.3373 C   0  0  2  0  0  0  0  0  0  0  0  0
   19.2603  -22.3896  -11.5602 C   0  0  0  0  0  0  0  0  0  0  0  0
   20.7803  -20.6942  -12.5210 C   0  0  0  0  0  0  0  0  0  0  0  0
   22.0354  -20.3548  -13.2557 C   0  0  2  0  0  0  0  0  0  0  0  0
   23.2110  -20.5345  -12.4165 N   0  0  0  0  0  0  0  0  0  0  0  0
   22.0068  -19.0403  -13.8905 C   0  0  0  0  0  0  0  0  0  0  0  0
   21.8112  -18.0002  -13.2278 O   0  0  0  0  0  0  0  0  0  0  0  0
   23.2861  -18.7390  -17.6712 O   0  0  0  0  0  0  0  0  0  0  0  0
   23.3197  -17.5052  -17.0224 C   0  0  0  0  0  0  0  0  0  0  0  0
   22.2750  -17.5543  -15.9276 C   0  0  2  0  0  0  0  0  0  0  0  0
   22.1975  -18.8421  -15.2982 N   0  0  0  0  0  0  0  0  0  0  0  0
   20.9864  -17.1784  -16.5227 C   0  0  0  0  0  0  0  0  0  0  0  0
   20.0576  -18.0198  -16.5498 O   0  0  0  0  0  0  0  0  0  0  0  0
   20.7537  -15.9250  -17.0588 O   0  0  0  0  0  0  0  0  0  0  0  0
  2  1  1  6
  2 13  1  0
  3  2  1  0
  4  3  1  0
  4 12  1  0
  5  6  1  0
  5  4  2  0
  6  7  1  0
  7 12  2  0
  7  8  1  0
  8  9  2  0
  9 10  1  0
 11 10  2  0
 12 11  1  0
 13 14  2  0
 16 18  1  0
 16 15  1  6
 17 16  1  0
 19 18  1  1
 19 21  1  0
 20 19  1  0
 20 13  1  0
 21 22  2  0
 23 24  1  0
 25 24  1  6
 25 27  1  0
 26 25  1  0
 26 21  1  0
 27 28  2  0
 27 29  1  0
M  END
$$$$
