WLS.pdb
     RDKit          3D

 29 30  0  0  1  0  0  0  0  0999 V2000
   24.8852  -18.9621   -8.8581 N   0  0  0  0  0  0  0  0  0  0  0  0
   25.9930  -19.8537   -9.1418 C   0  0  1  0  0  0  0  0  0  0  0  0
   25.7868  -21.1012   -8.3082 C   0  0  0  0  0  0  0  0  0  0  0  0
   25.8787  -20.8295   -6.8511 C   0  0  0  0  0  0  0  0  0  0  0  0
   24.9191  -21.0313   -5.8742 C   0  0  0  0  0  0  0  0  0  0  0  0
   25.4592  -20.6382   -4.7088 N   0  0  0  0  0  0  0  0  0  0  0  0
   26.7010  -20.1975   -4.8710 C   0  0  0  0  0  0  0  0  0  0  0  0
   27.6521  -19.6976   -3.9971 C   0  0  0  0  0  0  0  0  0  0  0  0
   28.8596  -19.3284   -4.5183 C   0  0  0  0  0  0  0  0  0  0  0  0
   29.1603  -19.4335   -5.8569 C   0  0  0  0  0  0  0  0  0  0  0  0
   28.2259  -19.9263   -6.7252 C   0  0  0  0  0  0  0  0  0  0  0  0
   27.0015  -20.3056   -6.2282 C   0  0  0  0  0  0  0  0  0  0  0  0
   25.8860  -20.3061  -10.5748 C   0  0  0  0  0  0  0  0  0  0  0  0
   25.0233  -19.8179  -11.3477 O   0  0  0  0  0  0  0  0  0  0  0  0
   29.7453  -19.5470  -12.4668 C   0  0  0  0  0  0  0  0  0  0  0  0
   29.6491  -20.9639  -11.9106 C   0  0  2  0  0  0  0  0  0  0  0  0
   30.9743  -21.6610  -11.9719 C   0  0  0  0  0  0  0  0  0  0  0  0
   28.5944  -21.7552  -12.6315 C   0  0  0  0  0  0  0  0  0  0  0  0
   27.1997  -21.2420  -12.4838 C   0  0  2  0  0  0  0  0  0  0  0  0
   26.7540  -21.2971  -11.0994 N   0  0  0  0  0  0  0  0  0  0  0  0
   26.2451  -21.8656  -13.3957 C   0  0  0  0  0  0  0  0  0  0  0  0
   26.6103  -22.3658  -14.4801 O   0  0  0  0  0  0  0  0  0  0  0  0
   22.1769  -21.4107  -12.8542 O   0  0  0  0  0  0  0  0  0  0  0  0
   22.5037  -22.6466  -13.4112 C   0  0  0  0  0  0  0  0  0  0  0  0
   23.8749  -22.4997  -14.0360 C   0  0  2  0  0  0  0  0  0  0  0  0
   24.8394  -21.9523  -13.1246 N   0  0  0  0  0  0  0  0  0  0  0  0
   23.7343  -21.6537  -15.2279 C   0  0  0  0  0  0  0  0  0  0  0  0
   24.2965  -20.5336  -15.2514 O   0  0  0  0  0  0  0  0  0  0  0  0
   23.0016  -22.0448  -16.3336 O   0  0  0  0  0  0  0  0  0  0  0  0
  2  1  1  1
  2 13  1  0
  3  2  1  0
  4  3  1  0
  4 12  1  0
  5  6  1  0
  5  4  2  0
  6  7  1  0
  7 12  2  0
  7  8  1  0
  8  9  2  0
  9 10  1  0
 11 10  2  0
 12 11  1  0
 13 14  2  0
 16 18  1  0
 16 15  1  6
 17 16  1  0
 19 18  1  1
 19 21  1  0
 20 19  1  0
 20 13  1  0
 21 22  2  0
 23 24  1  0
 25 24  1  1
 25 27  1  0
 26 25  1  0
 26 21  1  0
 27 28  2  0
 27 29  1  0
M  END
$$$$
