WLS.pdb
     RDKit          3D

 29 30  0  0  1  0  0  0  0  0999 V2000
   26.8523  -19.1631  -14.6439 N   0  0  0  0  0  0  0  0  0  0  0  0
   26.3711  -20.3779  -14.0151 C   0  0  1  0  0  0  0  0  0  0  0  0
   26.4673  -20.1737  -12.5175 C   0  0  0  0  0  0  0  0  0  0  0  0
   27.8677  -19.9837  -12.0612 C   0  0  0  0  0  0  0  0  0  0  0  0
   28.5817  -18.8044  -11.9373 C   0  0  0  0  0  0  0  0  0  0  0  0
   29.8047  -19.1333  -11.4896 N   0  0  0  0  0  0  0  0  0  0  0  0
   29.9247  -20.4442  -11.3175 C   0  0  0  0  0  0  0  0  0  0  0  0
   30.9620  -21.2532  -10.8843 C   0  0  0  0  0  0  0  0  0  0  0  0
   30.7343  -22.5989  -10.8264 C   0  0  0  0  0  0  0  0  0  0  0  0
   29.5325  -23.1700  -11.1768 C   0  0  0  0  0  0  0  0  0  0  0  0
   28.5042  -22.3770  -11.6053 C   0  0  0  0  0  0  0  0  0  0  0  0
   28.7053  -21.0187  -11.6734 C   0  0  0  0  0  0  0  0  0  0  0  0
   24.8998  -20.5159  -14.3078 C   0  0  0  0  0  0  0  0  0  0  0  0
   24.1318  -19.5219  -14.2601 O   0  0  0  0  0  0  0  0  0  0  0  0
   21.0923  -24.2171  -17.4447 C   0  0  0  0  0  0  0  0  0  0  0  0
   21.2460  -23.0655  -16.4567 C   0  0  2  0  0  0  0  0  0  0  0  0
   20.7380  -21.7812  -17.0384 C   0  0  0  0  0  0  0  0  0  0  0  0
   22.6746  -22.9236  -16.0127 C   0  0  0  0  0  0  0  0  0  0  0  0
   22.9168  -21.8881  -14.9642 C   0  0  2  0  0  0  0  0  0  0  0  0
   24.3323  -21.7703  -14.6465 N   0  0  0  0  0  0  0  0  0  0  0  0
   22.0958  -22.0595  -13.7691 C   0  0  0  0  0  0  0  0  0  0  0  0
   22.1635  -23.0949  -13.0744 O   0  0  0  0  0  0  0  0  0  0  0  0
   19.5888  -19.0274  -12.3999 O   0  0  0  0  0  0  0  0  0  0  0  0
   20.0682  -19.9174  -11.4395 C   0  0  0  0  0  0  0  0  0  0  0  0
   20.3322  -21.2295  -12.1472 C   0  0  2  0  0  0  0  0  0  0  0  0
   21.1643  -21.0720  -13.3063 N   0  0  0  0  0  0  0  0  0  0  0  0
   19.0333  -21.8136  -12.5044 C   0  0  0  0  0  0  0  0  0  0  0  0
   18.6841  -21.8361  -13.7082 O   0  0  0  0  0  0  0  0  0  0  0  0
   18.1729  -22.3436  -11.5604 O   0  0  0  0  0  0  0  0  0  0  0  0
  2  1  1  6
  2 13  1  0
  3  2  1  0
  4  3  1  0
  4 12  1  0
  5  6  1  0
  5  4  2  0
  6  7  1  0
  7 12  2  0
  7  8  1  0
  8  9  2  0
  9 10  1  0
 11 10  2  0
 12 11  1  0
 13 14  2  0
 16 18  1  0
 16 15  1  6
 17 16  1  0
 19 18  1  6
 19 21  1  0
 20 19  1  0
 20 13  1  0
 21 22  2  0
 23 24  1  0
 25 24  1  6
 25 27  1  0
 26 25  1  0
 26 21  1  0
 27 28  2  0
 27 29  1  0
M  END
$$$$
