WLS.pdb
     RDKit          3D

 29 30  0  0  1  0  0  0  0  0999 V2000
   24.4902  -19.1835   -9.7942 N   0  0  0  0  0  0  0  0  0  0  0  0
   25.2446  -19.8224  -10.8549 C   0  0  1  0  0  0  0  0  0  0  0  0
   25.8384  -21.0909  -10.2787 C   0  0  0  0  0  0  0  0  0  0  0  0
   26.9441  -20.8162   -9.3262 C   0  0  0  0  0  0  0  0  0  0  0  0
   26.8663  -20.3390   -8.0292 C   0  0  0  0  0  0  0  0  0  0  0  0
   28.1251  -20.2527   -7.5684 N   0  0  0  0  0  0  0  0  0  0  0  0
   29.0064  -20.6422   -8.4816 C   0  0  0  0  0  0  0  0  0  0  0  0
   30.3883  -20.7343   -8.4880 C   0  0  0  0  0  0  0  0  0  0  0  0
   30.9878  -21.1884   -9.6283 C   0  0  0  0  0  0  0  0  0  0  0  0
   30.2809  -21.5515  -10.7516 C   0  0  0  0  0  0  0  0  0  0  0  0
   28.9163  -21.4631  -10.7521 C   0  0  0  0  0  0  0  0  0  0  0  0
   28.2861  -21.0091   -9.6176 C   0  0  0  0  0  0  0  0  0  0  0  0
   24.2800  -20.2778  -11.9186 C   0  0  0  0  0  0  0  0  0  0  0  0
   23.0923  -20.5756  -11.6344 O   0  0  0  0  0  0  0  0  0  0  0  0
   22.7937  -17.7181  -15.4037 C   0  0  0  0  0  0  0  0  0  0  0  0
   24.2059  -18.2735  -15.5568 C   0  0  2  0  0  0  0  0  0  0  0  0
   24.8752  -17.7221  -16.7790 C   0  0  0  0  0  0  0  0  0  0  0  0
   24.1938  -19.7759  -15.5853 C   0  0  0  0  0  0  0  0  0  0  0  0
   23.6904  -20.4333  -14.3424 C   0  0  2  0  0  0  0  0  0  0  0  0
   24.6788  -20.3858  -13.2750 N   0  0  0  0  0  0  0  0  0  0  0  0
   23.1768  -21.7828  -14.5587 C   0  0  0  0  0  0  0  0  0  0  0  0
   23.9443  -22.7562  -14.7098 O   0  0  0  0  0  0  0  0  0  0  0  0
   20.4705  -23.5229  -12.6096 O   0  0  0  0  0  0  0  0  0  0  0  0
   20.0544  -23.6992  -13.9287 C   0  0  0  0  0  0  0  0  0  0  0  0
   21.2516  -23.4137  -14.8104 C   0  0  2  0  0  0  0  0  0  0  0  0
   21.7775  -22.0926  -14.6138 N   0  0  0  0  0  0  0  0  0  0  0  0
   20.8379  -23.6159  -16.2047 C   0  0  0  0  0  0  0  0  0  0  0  0
   20.9098  -22.6564  -17.0082 O   0  0  0  0  0  0  0  0  0  0  0  0
   20.3684  -24.8302  -16.6711 O   0  0  0  0  0  0  0  0  0  0  0  0
  2  1  1  1
  2 13  1  0
  3  2  1  0
  4  3  1  0
  4 12  1  0
  5  6  1  0
  5  4  2  0
  6  7  1  0
  7 12  2  0
  7  8  1  0
  8  9  2  0
  9 10  1  0
 11 10  2  0
 12 11  1  0
 13 14  2  0
 16 18  1  0
 16 15  1  6
 17 16  1  0
 19 18  1  6
 19 21  1  0
 20 19  1  0
 20 13  1  0
 21 22  2  0
 23 24  1  0
 25 24  1  1
 25 27  1  0
 26 25  1  0
 26 21  1  0
 27 28  2  0
 27 29  1  0
M  END
$$$$
