WLS.pdb
     RDKit          3D

 29 30  0  0  1  0  0  0  0  0999 V2000
   25.0321  -19.1332   -9.1944 N   0  0  0  0  0  0  0  0  0  0  0  0
   26.3713  -19.6892   -9.1885 C   0  0  1  0  0  0  0  0  0  0  0  0
   26.3155  -20.9793   -8.3972 C   0  0  0  0  0  0  0  0  0  0  0  0
   26.0939  -20.7448   -6.9476 C   0  0  0  0  0  0  0  0  0  0  0  0
   24.9612  -21.0039   -6.1955 C   0  0  0  0  0  0  0  0  0  0  0  0
   25.2336  -20.6257   -4.9357 N   0  0  0  0  0  0  0  0  0  0  0  0
   26.4649  -20.1411   -4.8277 C   0  0  0  0  0  0  0  0  0  0  0  0
   27.1954  -19.6349   -3.7654 C   0  0  0  0  0  0  0  0  0  0  0  0
   28.4701  -19.2131   -4.0169 C   0  0  0  0  0  0  0  0  0  0  0  0
   29.0448  -19.2718   -5.2657 C   0  0  0  0  0  0  0  0  0  0  0  0
   28.3292  -19.7704   -6.3189 C   0  0  0  0  0  0  0  0  0  0  0  0
   27.0434  -20.2024   -6.0947 C   0  0  0  0  0  0  0  0  0  0  0  0
   26.7249  -20.0960  -10.5952 C   0  0  0  0  0  0  0  0  0  0  0  0
   26.1957  -19.5332  -11.5869 O   0  0  0  0  0  0  0  0  0  0  0  0
   31.9392  -22.2787  -10.7662 C   0  0  0  0  0  0  0  0  0  0  0  0
   30.7281  -21.3606  -10.8952 C   0  0  2  0  0  0  0  0  0  0  0  0
   30.0888  -21.1168   -9.5620 C   0  0  0  0  0  0  0  0  0  0  0  0
   29.7317  -21.9175  -11.8726 C   0  0  0  0  0  0  0  0  0  0  0  0
   28.4892  -21.1077  -12.0478 C   0  0  2  0  0  0  0  0  0  0  0  0
   27.6655  -21.1264  -10.8480 N   0  0  0  0  0  0  0  0  0  0  0  0
   27.7277  -21.4525  -13.2449 C   0  0  0  0  0  0  0  0  0  0  0  0
   28.2530  -21.4412  -14.3777 O   0  0  0  0  0  0  0  0  0  0  0  0
   23.5994  -21.7374  -13.2604 O   0  0  0  0  0  0  0  0  0  0  0  0
   24.2105  -22.7373  -14.0162 C   0  0  0  0  0  0  0  0  0  0  0  0
   25.5953  -22.2381  -14.3700 C   0  0  2  0  0  0  0  0  0  0  0  0
   26.3428  -21.8246  -13.2163 N   0  0  0  0  0  0  0  0  0  0  0  0
   25.4414  -21.1327  -15.3242 C   0  0  0  0  0  0  0  0  0  0  0  0
   25.8222  -19.9846  -14.9952 O   0  0  0  0  0  0  0  0  0  0  0  0
   24.8894  -21.3075  -16.5800 O   0  0  0  0  0  0  0  0  0  0  0  0
  2  1  1  6
  2 13  1  0
  3  2  1  0
  4  3  1  0
  4 12  1  0
  5  6  1  0
  5  4  2  0
  6  7  1  0
  7 12  2  0
  7  8  1  0
  8  9  2  0
  9 10  1  0
 11 10  2  0
 12 11  1  0
 13 14  2  0
 16 18  1  0
 16 15  1  1
 17 16  1  0
 19 18  1  1
 19 21  1  0
 20 19  1  0
 20 13  1  0
 21 22  2  0
 23 24  1  0
 25 24  1  1
 25 27  1  0
 26 25  1  0
 26 21  1  0
 27 28  2  0
 27 29  1  0
M  END
$$$$
