WLS.pdb
     RDKit          3D

 29 30  0  0  1  0  0  0  0  0999 V2000
   25.6628  -21.3424  -14.4579 N   0  0  0  0  0  0  0  0  0  0  0  0
   25.9349  -20.2709  -13.5195 C   0  0  1  0  0  0  0  0  0  0  0  0
   24.8256  -19.2513  -13.6723 C   0  0  0  0  0  0  0  0  0  0  0  0
   24.8251  -18.6123  -15.0128 C   0  0  0  0  0  0  0  0  0  0  0  0
   23.7853  -18.5152  -15.9213 C   0  0  0  0  0  0  0  0  0  0  0  0
   24.2601  -17.8532  -16.9893 N   0  0  0  0  0  0  0  0  0  0  0  0
   25.5346  -17.5183  -16.8283 C   0  0  0  0  0  0  0  0  0  0  0  0
   26.4464  -16.8446  -17.6240 C   0  0  0  0  0  0  0  0  0  0  0  0
   27.7091  -16.6708  -17.1328 C   0  0  0  0  0  0  0  0  0  0  0  0
   28.1014  -17.1327  -15.8974 C   0  0  0  0  0  0  0  0  0  0  0  0
   27.2063  -17.7986  -15.1068 C   0  0  0  0  0  0  0  0  0  0  0  0
   25.9279  -17.9880  -15.5759 C   0  0  0  0  0  0  0  0  0  0  0  0
   25.7918  -20.8136  -12.1215 C   0  0  0  0  0  0  0  0  0  0  0  0
   25.1213  -21.8520  -11.8929 O   0  0  0  0  0  0  0  0  0  0  0  0
   26.1205  -20.3349   -6.7293 C   0  0  0  0  0  0  0  0  0  0  0  0
   27.3959  -20.8315   -7.4023 C   0  0  2  0  0  0  0  0  0  0  0  0
   28.6128  -20.4018   -6.6406 C   0  0  0  0  0  0  0  0  0  0  0  0
   27.4671  -20.3683   -8.8301 C   0  0  0  0  0  0  0  0  0  0  0  0
   26.2846  -20.7164   -9.6732 C   0  0  2  0  0  0  0  0  0  0  0  0
   26.4079  -20.1719  -11.0174 N   0  0  0  0  0  0  0  0  0  0  0  0
   25.0046  -20.3795   -9.0571 C   0  0  0  0  0  0  0  0  0  0  0  0
   24.7579  -19.2226   -8.6568 O   0  0  0  0  0  0  0  0  0  0  0  0
   21.7639  -22.6783   -9.6594 O   0  0  0  0  0  0  0  0  0  0  0  0
   21.5185  -21.3851   -9.1992 C   0  0  0  0  0  0  0  0  0  0  0  0
   22.6719  -21.0139   -8.2915 C   0  0  2  0  0  0  0  0  0  0  0  0
   23.9486  -21.3311   -8.8660 N   0  0  0  0  0  0  0  0  0  0  0  0
   22.4784  -21.7130   -7.0148 C   0  0  0  0  0  0  0  0  0  0  0  0
   23.3487  -22.5274   -6.6265 O   0  0  0  0  0  0  0  0  0  0  0  0
   21.3673  -21.5084   -6.2174 O   0  0  0  0  0  0  0  0  0  0  0  0
  2  1  1  6
  2 13  1  0
  3  2  1  0
  4  3  1  0
  4 12  1  0
  5  6  1  0
  5  4  2  0
  6  7  1  0
  7 12  2  0
  7  8  1  0
  8  9  2  0
  9 10  1  0
 11 10  2  0
 12 11  1  0
 13 14  2  0
 16 18  1  0
 16 15  1  1
 17 16  1  0
 19 18  1  1
 19 21  1  0
 20 19  1  0
 20 13  1  0
 21 22  2  0
 23 24  1  0
 25 24  1  6
 25 27  1  0
 26 25  1  0
 26 21  1  0
 27 28  2  0
 27 29  1  0
M  END
$$$$
