WLS.pdb
     RDKit          3D

 29 30  0  0  1  0  0  0  0  0999 V2000
   25.5233  -19.2892  -12.5888 N   0  0  0  0  0  0  0  0  0  0  0  0
   26.5380  -20.3227  -12.6593 C   0  0  1  0  0  0  0  0  0  0  0  0
   26.1387  -21.4078  -11.6812 C   0  0  0  0  0  0  0  0  0  0  0  0
   26.1522  -20.9338  -10.2738 C   0  0  0  0  0  0  0  0  0  0  0  0
   25.0773  -20.6601   -9.4459 C   0  0  0  0  0  0  0  0  0  0  0  0
   25.5834  -20.2604   -8.2676 N   0  0  0  0  0  0  0  0  0  0  0  0
   26.9109  -20.2590   -8.2825 C   0  0  0  0  0  0  0  0  0  0  0  0
   27.8700  -19.9359   -7.3371 C   0  0  0  0  0  0  0  0  0  0  0  0
   29.1818  -20.0519   -7.6999 C   0  0  0  0  0  0  0  0  0  0  0  0
   29.5781  -20.4710   -8.9492 C   0  0  0  0  0  0  0  0  0  0  0  0
   28.6364  -20.7916   -9.8874 C   0  0  0  0  0  0  0  0  0  0  0  0
   27.3081  -20.6840   -9.5496 C   0  0  0  0  0  0  0  0  0  0  0  0
   26.4710  -20.9646  -14.0205 C   0  0  0  0  0  0  0  0  0  0  0  0
   25.4400  -20.8705  -14.7333 O   0  0  0  0  0  0  0  0  0  0  0  0
   28.4915  -23.5868  -18.4407 C   0  0  0  0  0  0  0  0  0  0  0  0
   29.2085  -22.3521  -17.9044 C   0  0  2  0  0  0  0  0  0  0  0  0
   30.6615  -22.3677  -18.2706 C   0  0  0  0  0  0  0  0  0  0  0  0
   29.0329  -22.2309  -16.4169 C   0  0  0  0  0  0  0  0  0  0  0  0
   27.6247  -22.0504  -15.9535 C   0  0  2  0  0  0  0  0  0  0  0  0
   27.5676  -21.6960  -14.5429 N   0  0  0  0  0  0  0  0  0  0  0  0
   26.7520  -23.1759  -16.2750 C   0  0  0  0  0  0  0  0  0  0  0  0
   26.9203  -24.3000  -15.7579 O   0  0  0  0  0  0  0  0  0  0  0  0
   23.5606  -22.4407  -18.5191 O   0  0  0  0  0  0  0  0  0  0  0  0
   23.3869  -23.6848  -17.9136 C   0  0  0  0  0  0  0  0  0  0  0  0
   24.7594  -24.1651  -17.4918 C   0  0  2  0  0  0  0  0  0  0  0  0
   25.6533  -23.0826  -17.1921 N   0  0  0  0  0  0  0  0  0  0  0  0
   25.2902  -25.0053  -18.5726 C   0  0  0  0  0  0  0  0  0  0  0  0
   24.7851  -26.1351  -18.7720 O   0  0  0  0  0  0  0  0  0  0  0  0
   26.3324  -24.5985  -19.3855 O   0  0  0  0  0  0  0  0  0  0  0  0
  2  1  1  6
  2 13  1  0
  3  2  1  0
  4  3  1  0
  4 12  1  0
  5  6  1  0
  5  4  2  0
  6  7  1  0
  7 12  2  0
  7  8  1  0
  8  9  2  0
  9 10  1  0
 11 10  2  0
 12 11  1  0
 13 14  2  0
 16 18  1  0
 16 15  1  1
 17 16  1  0
 19 18  1  1
 19 21  1  0
 20 19  1  0
 20 13  1  0
 21 22  2  0
 23 24  1  0
 25 24  1  6
 25 27  1  0
 26 25  1  0
 26 21  1  0
 27 28  2  0
 27 29  1  0
M  END
$$$$
