WLS.pdb
     RDKit          3D

 29 30  0  0  1  0  0  0  0  0999 V2000
   10.1779  -20.9751   -2.0230 N   0  0  0  0  0  0  0  0  0  0  0  0
   11.5329  -20.5378   -1.7484 C   0  0  1  0  0  0  0  0  0  0  0  0
   11.4841  -19.6963   -0.4902 C   0  0  0  0  0  0  0  0  0  0  0  0
   10.8946  -18.3545   -0.7295 C   0  0  0  0  0  0  0  0  0  0  0  0
   10.1851  -17.9084   -1.8310 C   0  0  0  0  0  0  0  0  0  0  0  0
    9.8575  -16.6277   -1.5924 N   0  0  0  0  0  0  0  0  0  0  0  0
   10.3087  -16.2209   -0.4120 C   0  0  0  0  0  0  0  0  0  0  0  0
   10.2310  -15.0180    0.2702 C   0  0  0  0  0  0  0  0  0  0  0  0
   10.8236  -14.9470    1.4989 C   0  0  0  0  0  0  0  0  0  0  0  0
   11.4834  -16.0088    2.0737 C   0  0  0  0  0  0  0  0  0  0  0  0
   11.5639  -17.1993    1.4057 C   0  0  0  0  0  0  0  0  0  0  0  0
   10.9764  -17.2993    0.1667 C   0  0  0  0  0  0  0  0  0  0  0  0
   12.3607  -21.7450   -1.3923 C   0  0  0  0  0  0  0  0  0  0  0  0
   11.8537  -22.7268   -0.7930 O   0  0  0  0  0  0  0  0  0  0  0  0
   13.6215  -24.8286   -3.1921 C   0  0  0  0  0  0  0  0  0  0  0  0
   14.9467  -24.1932   -3.5998 C   0  0  2  0  0  0  0  0  0  0  0  0
   15.9478  -25.2353   -3.9968 C   0  0  0  0  0  0  0  0  0  0  0  0
   15.4877  -23.3231   -2.5004 C   0  0  0  0  0  0  0  0  0  0  0  0
   14.5215  -23.0008   -1.4082 C   0  0  2  0  0  0  0  0  0  0  0  0
   13.7383  -21.8144   -1.7206 N   0  0  0  0  0  0  0  0  0  0  0  0
   15.1349  -22.9242   -0.0855 C   0  0  0  0  0  0  0  0  0  0  0  0
   15.7857  -23.8790    0.3878 O   0  0  0  0  0  0  0  0  0  0  0  0
   14.7510  -19.5080    1.9754 O   0  0  0  0  0  0  0  0  0  0  0  0
   15.8508  -20.2080    2.4703 C   0  0  0  0  0  0  0  0  0  0  0  0
   15.6884  -21.6489    2.0352 C   0  0  2  0  0  0  0  0  0  0  0  0
   15.0412  -21.7691    0.7595 N   0  0  0  0  0  0  0  0  0  0  0  0
   14.9306  -22.3484    3.0804 C   0  0  0  0  0  0  0  0  0  0  0  0
   13.8092  -22.8338    2.8004 O   0  0  0  0  0  0  0  0  0  0  0  0
   15.4066  -22.4947    4.3705 O   0  0  0  0  0  0  0  0  0  0  0  0
  2  1  1  1
  2 13  1  0
  3  2  1  0
  4  3  1  0
  4 12  1  0
  5  6  1  0
  5  4  2  0
  6  7  1  0
  7 12  2  0
  7  8  1  0
  8  9  2  0
  9 10  1  0
 11 10  2  0
 12 11  1  0
 13 14  2  0
 16 18  1  0
 16 15  1  1
 17 16  1  0
 19 18  1  6
 19 21  1  0
 20 19  1  0
 20 13  1  0
 21 22  2  0
 23 24  1  0
 25 24  1  1
 25 27  1  0
 26 25  1  0
 26 21  1  0
 27 28  2  0
 27 29  1  0
M  END
$$$$
