WLS.pdb
     RDKit          3D

 29 30  0  0  1  0  0  0  0  0999 V2000
   22.9911  -19.6968  -12.6164 N   0  0  0  0  0  0  0  0  0  0  0  0
   24.2908  -20.2062  -12.2238 C   0  0  1  0  0  0  0  0  0  0  0  0
   24.0565  -21.5132  -11.4954 C   0  0  0  0  0  0  0  0  0  0  0  0
   23.9563  -21.3313  -10.0249 C   0  0  0  0  0  0  0  0  0  0  0  0
   22.8229  -21.3383   -9.2305 C   0  0  0  0  0  0  0  0  0  0  0  0
   23.2301  -21.1335   -7.9669 N   0  0  0  0  0  0  0  0  0  0  0  0
   24.5485  -20.9954   -7.8959 C   0  0  0  0  0  0  0  0  0  0  0  0
   25.4240  -20.7730   -6.8460 C   0  0  0  0  0  0  0  0  0  0  0  0
   26.7550  -20.6814   -7.1394 C   0  0  0  0  0  0  0  0  0  0  0  0
   27.2491  -20.8001   -8.4181 C   0  0  0  0  0  0  0  0  0  0  0  0
   26.3903  -21.0198   -9.4593 C   0  0  0  0  0  0  0  0  0  0  0  0
   25.0449  -21.1163   -9.1931 C   0  0  0  0  0  0  0  0  0  0  0  0
   25.0556  -20.5719  -13.4691 C   0  0  0  0  0  0  0  0  0  0  0  0
   24.5664  -20.3823  -14.6114 O   0  0  0  0  0  0  0  0  0  0  0  0
   28.9554  -18.5438  -13.8421 C   0  0  0  0  0  0  0  0  0  0  0  0
   29.1090  -19.8763  -13.1161 C   0  0  2  0  0  0  0  0  0  0  0  0
   30.5066  -20.0577  -12.6068 C   0  0  0  0  0  0  0  0  0  0  0  0
   28.7098  -21.0220  -14.0029 C   0  0  0  0  0  0  0  0  0  0  0  0
   27.2983  -20.9898  -14.4898 C   0  0  2  0  0  0  0  0  0  0  0  0
   26.3517  -21.1420  -13.3947 N   0  0  0  0  0  0  0  0  0  0  0  0
   27.0326  -21.9218  -15.5819 C   0  0  0  0  0  0  0  0  0  0  0  0
   27.1873  -23.1528  -15.4408 O   0  0  0  0  0  0  0  0  0  0  0  0
   24.0869  -21.8784  -18.0437 O   0  0  0  0  0  0  0  0  0  0  0  0
   25.2126  -21.9664  -18.8619 C   0  0  0  0  0  0  0  0  0  0  0  0
   26.3651  -22.3999  -17.9810 C   0  0  2  0  0  0  0  0  0  0  0  0
   26.5815  -21.5065  -16.8784 N   0  0  0  0  0  0  0  0  0  0  0  0
   27.5618  -22.4960  -18.8262 C   0  0  0  0  0  0  0  0  0  0  0  0
   27.6587  -23.4428  -19.6421 O   0  0  0  0  0  0  0  0  0  0  0  0
   28.5942  -21.5784  -18.7585 O   0  0  0  0  0  0  0  0  0  0  0  0
  2  1  1  6
  2 13  1  0
  3  2  1  0
  4  3  1  0
  4 12  1  0
  5  6  1  0
  5  4  2  0
  6  7  1  0
  7 12  2  0
  7  8  1  0
  8  9  2  0
  9 10  1  0
 11 10  2  0
 12 11  1  0
 13 14  2  0
 16 18  1  0
 16 15  1  6
 17 16  1  0
 19 18  1  1
 19 21  1  0
 20 19  1  0
 20 13  1  0
 21 22  2  0
 23 24  1  0
 25 24  1  6
 25 27  1  0
 26 25  1  0
 26 21  1  0
 27 28  2  0
 27 29  1  0
M  END
$$$$
