NIL.pdb
     RDKit          3D

 25 24  0  0  1  0  0  0  0  0999 V2000
   14.3751  -19.8796   20.7063 N   0  0  0  0  0  0  0  0  0  0  0  0
   13.0092  -19.5512   20.8718 C   0  0  0  0  0  0  0  0  0  0  0  0
   12.1551  -20.2407   20.2881 O   0  0  0  0  0  0  0  0  0  0  0  0
   12.5638  -18.4138   21.7171 C   0  0  0  0  0  0  0  0  0  0  0  0
   11.9093  -17.3420   20.8706 C   0  0  2  0  0  0  0  0  0  0  0  0
   12.9463  -16.6923   20.1038 N   0  0  0  0  0  0  0  0  0  0  0  0
   11.2021  -16.3375   21.7222 C   0  0  0  0  0  0  0  0  0  0  0  0
   11.8251  -15.4176   22.3066 O   0  0  0  0  0  0  0  0  0  0  0  0
    6.7346  -13.5794   20.2249 C   0  0  0  0  0  0  0  0  0  0  0  0
    8.0017  -14.0840   20.8473 C   0  0  0  0  0  0  0  0  0  0  0  0
    7.8971  -14.8029   22.1356 C   0  0  2  0  0  0  0  0  0  0  0  0
    7.0385  -14.0312   23.1501 C   0  0  0  0  0  0  0  0  0  0  0  0
    9.0853  -15.4080   22.7374 C   0  0  2  0  0  0  0  0  0  0  0  0
    9.8053  -16.3537   21.9251 N   0  0  0  0  0  0  0  0  0  0  0  0
    8.7660  -16.0800   24.0104 C   0  0  0  0  0  0  0  0  0  0  0  0
    8.5194  -17.3235   23.9807 O   0  0  0  0  0  0  0  0  0  0  0  0
   10.8789  -14.8103   28.5919 C   0  0  0  0  0  0  0  0  0  0  0  0
    9.8244  -14.5045   27.5092 C   0  0  2  0  0  0  0  0  0  0  0  0
    9.4864  -13.0523   27.5564 C   0  0  0  0  0  0  0  0  0  0  0  0
    8.6463  -15.3966   27.6801 C   0  0  0  0  0  0  0  0  0  0  0  0
    8.5101  -16.2959   26.4481 C   0  0  2  0  0  0  0  0  0  0  0  0
    8.7230  -15.4254   25.2653 N   0  0  0  0  0  0  0  0  0  0  0  0
    7.1599  -16.8431   26.3472 C   0  0  0  0  0  0  0  0  0  0  0  0
    6.2536  -16.3353   25.4429 O   0  0  0  0  0  0  0  0  0  0  0  0
    6.7874  -17.7839   27.0787 O   0  0  0  0  0  0  0  0  0  0  0  0
  1  2  1  0
  2  4  1  0
  3  2  2  0
  4  5  1  0
  5  6  1  1
  7  5  1  0
  8  7  2  0
  9 10  1  0
 11 10  1  0
 11 13  1  0
 11 12  1  1
 13 15  1  0
 13 14  1  6
 14  7  1  0
 15 16  2  0
 18 17  1  1
 18 20  1  0
 19 18  1  0
 21 20  1  1
 22 21  1  0
 22 15  1  0
 23 24  1  0
 23 21  1  0
 25 23  2  0
M  END
$$$$
