NIL.pdb
     RDKit          3D

 25 24  0  0  1  0  0  0  0  0999 V2000
   10.6548  -21.0910   20.4281 N   0  0  0  0  0  0  0  0  0  0  0  0
   11.7842  -20.4102   20.9399 C   0  0  0  0  0  0  0  0  0  0  0  0
   12.8105  -21.0644   21.1936 O   0  0  0  0  0  0  0  0  0  0  0  0
   11.7840  -18.9448   21.1831 C   0  0  0  0  0  0  0  0  0  0  0  0
   10.4858  -18.3241   20.7106 C   0  0  2  0  0  0  0  0  0  0  0  0
   10.5081  -18.3024   19.2668 N   0  0  0  0  0  0  0  0  0  0  0  0
   10.3281  -16.9342   21.2373 C   0  0  0  0  0  0  0  0  0  0  0  0
   11.2930  -16.1318   21.2716 O   0  0  0  0  0  0  0  0  0  0  0  0
    7.1557  -11.9752   20.5447 C   0  0  0  0  0  0  0  0  0  0  0  0
    8.0041  -12.7801   21.4826 C   0  0  0  0  0  0  0  0  0  0  0  0
    8.0565  -14.2442   21.2790 C   0  0  2  0  0  0  0  0  0  0  0  0
    6.6594  -14.8349   21.0319 C   0  0  0  0  0  0  0  0  0  0  0  0
    8.8819  -15.0779   22.1528 C   0  0  2  0  0  0  0  0  0  0  0  0
    9.1013  -16.4350   21.7253 N   0  0  0  0  0  0  0  0  0  0  0  0
    8.3369  -15.1343   23.5217 C   0  0  0  0  0  0  0  0  0  0  0  0
    7.2173  -15.7044   23.6929 O   0  0  0  0  0  0  0  0  0  0  0  0
    7.7474  -12.5495   27.3024 C   0  0  0  0  0  0  0  0  0  0  0  0
    6.9270  -12.9967   26.0756 C   0  0  2  0  0  0  0  0  0  0  0  0
    5.5507  -12.4306   26.1787 C   0  0  0  0  0  0  0  0  0  0  0  0
    6.9544  -14.4795   25.9585 C   0  0  0  0  0  0  0  0  0  0  0  0
    8.4080  -14.9612   25.9752 C   0  0  2  0  0  0  0  0  0  0  0  0
    8.9878  -14.5969   24.6587 N   0  0  0  0  0  0  0  0  0  0  0  0
    8.4754  -16.4153   26.0919 C   0  0  0  0  0  0  0  0  0  0  0  0
    9.0473  -17.0136   27.1928 O   0  0  0  0  0  0  0  0  0  0  0  0
    8.0197  -17.1574   25.1971 O   0  0  0  0  0  0  0  0  0  0  0  0
  1  2  1  0
  2  4  1  0
  3  2  2  0
  4  5  1  0
  5  6  1  6
  7  5  1  0
  8  7  2  0
  9 10  1  0
 11 10  1  0
 11 13  1  0
 11 12  1  1
 13 15  1  0
 13 14  1  6
 14  7  1  0
 15 16  2  0
 18 17  1  1
 18 20  1  0
 19 18  1  0
 21 20  1  6
 22 21  1  0
 22 15  1  0
 23 24  1  0
 23 21  1  0
 25 23  2  0
M  END
$$$$
