NIL.pdb
     RDKit          3D

 25 24  0  0  1  0  0  0  0  0999 V2000
   14.7579  -19.8876   19.5770 N   0  0  0  0  0  0  0  0  0  0  0  0
   13.4757  -19.6420   20.1219 C   0  0  0  0  0  0  0  0  0  0  0  0
   12.6100  -20.5298   20.0332 O   0  0  0  0  0  0  0  0  0  0  0  0
   13.1315  -18.3629   20.7941 C   0  0  0  0  0  0  0  0  0  0  0  0
   11.8295  -17.8082   20.2545 C   0  0  2  0  0  0  0  0  0  0  0  0
   12.0666  -17.3673   18.8999 N   0  0  0  0  0  0  0  0  0  0  0  0
   11.3448  -16.6632   21.0841 C   0  0  0  0  0  0  0  0  0  0  0  0
   12.0993  -15.7069   21.3877 O   0  0  0  0  0  0  0  0  0  0  0  0
    6.4746  -14.1241   20.2678 C   0  0  0  0  0  0  0  0  0  0  0  0
    7.8888  -14.4852   20.6099 C   0  0  0  0  0  0  0  0  0  0  0  0
    8.1555  -15.0152   21.9647 C   0  0  2  0  0  0  0  0  0  0  0  0
    7.5029  -14.1489   23.0536 C   0  0  0  0  0  0  0  0  0  0  0  0
    9.4993  -15.4675   22.3249 C   0  0  2  0  0  0  0  0  0  0  0  0
   10.0245  -16.5793   21.5762 N   0  0  0  0  0  0  0  0  0  0  0  0
    9.5872  -15.8227   23.7532 C   0  0  0  0  0  0  0  0  0  0  0  0
    9.3117  -17.0144   24.0876 O   0  0  0  0  0  0  0  0  0  0  0  0
    9.8305  -13.5871   29.4475 C   0  0  0  0  0  0  0  0  0  0  0  0
   10.1846  -14.7521   28.5013 C   0  0  2  0  0  0  0  0  0  0  0  0
   11.4729  -15.3617   28.9419 C   0  0  0  0  0  0  0  0  0  0  0  0
   10.2019  -14.2756   27.0922 C   0  0  0  0  0  0  0  0  0  0  0  0
   10.0015  -15.4684   26.1527 C   0  0  2  0  0  0  0  0  0  0  0  0
    9.9657  -14.9182   24.7749 N   0  0  0  0  0  0  0  0  0  0  0  0
    8.7147  -16.1147   26.3957 C   0  0  0  0  0  0  0  0  0  0  0  0
    7.5381  -15.5343   25.9765 O   0  0  0  0  0  0  0  0  0  0  0  0
    8.6436  -17.2092   26.9923 O   0  0  0  0  0  0  0  0  0  0  0  0
  1  2  1  0
  2  4  1  0
  3  2  2  0
  4  5  1  0
  5  6  1  6
  7  5  1  0
  8  7  2  0
  9 10  1  0
 11 10  1  0
 11 13  1  0
 11 12  1  1
 13 15  1  0
 13 14  1  6
 14  7  1  0
 15 16  2  0
 18 17  1  1
 18 20  1  0
 19 18  1  0
 21 20  1  1
 22 21  1  0
 22 15  1  0
 23 24  1  0
 23 21  1  0
 25 23  2  0
M  END
$$$$
