NIL.pdb
     RDKit          3D

 25 24  0  0  1  0  0  0  0  0999 V2000
    9.4530  -20.6847   18.7821 N   0  0  0  0  0  0  0  0  0  0  0  0
    9.3331  -20.6711   20.1915 C   0  0  0  0  0  0  0  0  0  0  0  0
    9.3675  -21.7528   20.8033 O   0  0  0  0  0  0  0  0  0  0  0  0
    9.1681  -19.4114   20.9612 C   0  0  0  0  0  0  0  0  0  0  0  0
    9.0439  -18.2258   20.0271 C   0  0  2  0  0  0  0  0  0  0  0  0
   10.0061  -18.4000   18.9643 N   0  0  0  0  0  0  0  0  0  0  0  0
    9.3073  -16.9418   20.7456 C   0  0  0  0  0  0  0  0  0  0  0  0
   10.4743  -16.5103   20.9124 O   0  0  0  0  0  0  0  0  0  0  0  0
    7.1222  -12.3269   19.2901 C   0  0  0  0  0  0  0  0  0  0  0  0
    8.0066  -13.3731   19.8989 C   0  0  0  0  0  0  0  0  0  0  0  0
    7.7861  -13.7191   21.3199 C   0  0  2  0  0  0  0  0  0  0  0  0
    7.8053  -12.4728   22.2189 C   0  0  0  0  0  0  0  0  0  0  0  0
    8.4804  -14.8616   21.9137 C   0  0  2  0  0  0  0  0  0  0  0  0
    8.2770  -16.1374   21.2784 N   0  0  0  0  0  0  0  0  0  0  0  0
    8.1372  -15.0239   23.3385 C   0  0  0  0  0  0  0  0  0  0  0  0
    7.0299  -15.5716   23.6246 O   0  0  0  0  0  0  0  0  0  0  0  0
    7.9434  -12.4156   26.8941 C   0  0  0  0  0  0  0  0  0  0  0  0
    7.0027  -12.9951   25.8183 C   0  0  2  0  0  0  0  0  0  0  0  0
    5.6370  -12.4263   26.0093 C   0  0  0  0  0  0  0  0  0  0  0  0
    7.0401  -14.4818   25.8574 C   0  0  0  0  0  0  0  0  0  0  0  0
    8.4946  -14.9534   25.7720 C   0  0  2  0  0  0  0  0  0  0  0  0
    8.9689  -14.6120   24.4079 N   0  0  0  0  0  0  0  0  0  0  0  0
    8.5825  -16.4044   25.9117 C   0  0  0  0  0  0  0  0  0  0  0  0
    8.7744  -17.2133   24.8136 O   0  0  0  0  0  0  0  0  0  0  0  0
    8.4837  -16.9533   27.0288 O   0  0  0  0  0  0  0  0  0  0  0  0
  1  2  1  0
  2  4  1  0
  3  2  2  0
  4  5  1  0
  5  6  1  6
  7  5  1  0
  8  7  2  0
  9 10  1  0
 11 10  1  0
 11 13  1  0
 11 12  1  1
 13 15  1  0
 13 14  1  6
 14  7  1  0
 15 16  2  0
 18 17  1  1
 18 20  1  0
 19 18  1  0
 21 20  1  6
 22 21  1  0
 22 15  1  0
 23 24  1  0
 23 21  1  0
 25 23  2  0
M  END
$$$$
