NIL.pdb
     RDKit          3D

 25 24  0  0  1  0  0  0  0  0999 V2000
    5.9306  -18.0079   20.4683 N   0  0  0  0  0  0  0  0  0  0  0  0
    7.3438  -17.9447   20.4701 C   0  0  0  0  0  0  0  0  0  0  0  0
    7.9606  -18.3608   19.4741 O   0  0  0  0  0  0  0  0  0  0  0  0
    8.1118  -17.3994   21.6187 C   0  0  0  0  0  0  0  0  0  0  0  0
    7.7702  -15.9418   21.8474 C   0  0  2  0  0  0  0  0  0  0  0  0
    8.1435  -15.2105   20.6593 N   0  0  0  0  0  0  0  0  0  0  0  0
    8.5005  -15.3947   23.0312 C   0  0  0  0  0  0  0  0  0  0  0  0
    9.7451  -15.2317   23.0168 O   0  0  0  0  0  0  0  0  0  0  0  0
    5.9872  -11.7734   26.4030 C   0  0  0  0  0  0  0  0  0  0  0  0
    7.0669  -12.4469   25.6106 C   0  0  0  0  0  0  0  0  0  0  0  0
    7.7662  -13.5914   26.2340 C   0  0  2  0  0  0  0  0  0  0  0  0
    8.5247  -13.1724   27.5033 C   0  0  0  0  0  0  0  0  0  0  0  0
    8.5187  -14.5324   25.4043 C   0  0  2  0  0  0  0  0  0  0  0  0
    7.8506  -15.0289   24.2297 N   0  0  0  0  0  0  0  0  0  0  0  0
    8.9643  -15.7039   26.1810 C   0  0  0  0  0  0  0  0  0  0  0  0
    8.0764  -16.4670   26.6680 O   0  0  0  0  0  0  0  0  0  0  0  0
   10.8427  -19.3482   24.9535 C   0  0  0  0  0  0  0  0  0  0  0  0
   11.7190  -18.1064   25.2143 C   0  0  2  0  0  0  0  0  0  0  0  0
   13.0228  -18.2749   24.5092 C   0  0  0  0  0  0  0  0  0  0  0  0
   11.8578  -17.8801   26.6780 C   0  0  0  0  0  0  0  0  0  0  0  0
   10.5676  -17.2560   27.2177 C   0  0  2  0  0  0  0  0  0  0  0  0
   10.3217  -16.0340   26.4125 N   0  0  0  0  0  0  0  0  0  0  0  0
   10.7318  -16.8352   28.6064 C   0  0  0  0  0  0  0  0  0  0  0  0
   10.7591  -17.7571   29.6293 O   0  0  0  0  0  0  0  0  0  0  0  0
   10.8491  -15.6290   28.9067 O   0  0  0  0  0  0  0  0  0  0  0  0
  1  2  1  0
  2  4  1  0
  3  2  2  0
  4  5  1  0
  5  6  1  6
  7  5  1  0
  8  7  2  0
  9 10  1  0
 11 10  1  0
 11 13  1  0
 11 12  1  1
 13 15  1  0
 13 14  1  6
 14  7  1  0
 15 16  2  0
 18 17  1  1
 18 20  1  0
 19 18  1  0
 21 20  1  6
 22 21  1  0
 22 15  1  0
 23 24  1  0
 23 21  1  0
 25 23  2  0
M  END
$$$$
