NIL.pdb
     RDKit          3D

 25 24  0  0  1  0  0  0  0  0999 V2000
    8.3096  -20.3815   17.7782 N   0  0  0  0  0  0  0  0  0  0  0  0
    8.9192  -20.3168   19.0530 C   0  0  0  0  0  0  0  0  0  0  0  0
    8.8798  -21.3212   19.7846 O   0  0  0  0  0  0  0  0  0  0  0  0
    9.6023  -19.0925   19.5442 C   0  0  0  0  0  0  0  0  0  0  0  0
    8.9883  -18.6231   20.8467 C   0  0  2  0  0  0  0  0  0  0  0  0
    7.5527  -18.6484   20.6910 N   0  0  0  0  0  0  0  0  0  0  0  0
    9.4380  -17.2392   21.1883 C   0  0  0  0  0  0  0  0  0  0  0  0
   10.6531  -16.9239   21.1836 O   0  0  0  0  0  0  0  0  0  0  0  0
    6.7727  -12.6318   19.5026 C   0  0  0  0  0  0  0  0  0  0  0  0
    7.8143  -13.6224   19.9283 C   0  0  0  0  0  0  0  0  0  0  0  0
    8.0507  -13.7925   21.3783 C   0  0  2  0  0  0  0  0  0  0  0  0
    8.3045  -12.4466   22.0756 C   0  0  0  0  0  0  0  0  0  0  0  0
    8.9296  -14.8586   21.8589 C   0  0  2  0  0  0  0  0  0  0  0  0
    8.5405  -16.2063   21.5349 N   0  0  0  0  0  0  0  0  0  0  0  0
    9.1088  -14.7957   23.3211 C   0  0  0  0  0  0  0  0  0  0  0  0
    9.9556  -13.9718   23.7815 O   0  0  0  0  0  0  0  0  0  0  0  0
    8.5639  -12.6009   26.6183 C   0  0  0  0  0  0  0  0  0  0  0  0
    7.3618  -13.3495   26.0081 C   0  0  2  0  0  0  0  0  0  0  0  0
    6.0998  -12.7112   26.4828 C   0  0  0  0  0  0  0  0  0  0  0  0
    7.4518  -14.8002   26.3250 C   0  0  0  0  0  0  0  0  0  0  0  0
    8.7120  -15.3819   25.6777 C   0  0  2  0  0  0  0  0  0  0  0  0
    8.3904  -15.5934   24.2446 N   0  0  0  0  0  0  0  0  0  0  0  0
    9.0371  -16.6868   26.2470 C   0  0  0  0  0  0  0  0  0  0  0  0
    9.0445  -17.8207   25.4652 O   0  0  0  0  0  0  0  0  0  0  0  0
    9.3147  -16.8128   27.4578 O   0  0  0  0  0  0  0  0  0  0  0  0
  1  2  1  0
  2  4  1  0
  3  2  2  0
  4  5  1  0
  5  6  1  6
  7  5  1  0
  8  7  2  0
  9 10  1  0
 11 10  1  0
 11 13  1  0
 11 12  1  6
 13 15  1  0
 13 14  1  1
 14  7  1  0
 15 16  2  0
 18 17  1  1
 18 20  1  0
 19 18  1  0
 21 20  1  1
 22 21  1  0
 22 15  1  0
 23 24  1  0
 23 21  1  0
 25 23  2  0
M  END
$$$$
