NIL.pdb
     RDKit          3D

 25 24  0  0  1  0  0  0  0  0999 V2000
    9.1905  -18.3376   18.0485 N   0  0  0  0  0  0  0  0  0  0  0  0
    9.1323  -17.0202   18.5605 C   0  0  0  0  0  0  0  0  0  0  0  0
    9.7602  -16.1232   17.9717 O   0  0  0  0  0  0  0  0  0  0  0  0
    8.3483  -16.6750   19.7741 C   0  0  0  0  0  0  0  0  0  0  0  0
    7.7634  -17.9211   20.4058 C   0  0  2  0  0  0  0  0  0  0  0  0
    6.7183  -18.4068   19.5354 N   0  0  0  0  0  0  0  0  0  0  0  0
    7.2017  -17.6280   21.7597 C   0  0  0  0  0  0  0  0  0  0  0  0
    6.0547  -17.1383   21.9026 O   0  0  0  0  0  0  0  0  0  0  0  0
    6.8188  -20.1346   27.2968 C   0  0  0  0  0  0  0  0  0  0  0  0
    6.7647  -18.8856   26.4696 C   0  0  0  0  0  0  0  0  0  0  0  0
    7.3797  -18.9233   25.1250 C   0  0  2  0  0  0  0  0  0  0  0  0
    8.7446  -19.6293   25.1427 C   0  0  0  0  0  0  0  0  0  0  0  0
    7.3651  -17.7312   24.2772 C   0  0  2  0  0  0  0  0  0  0  0  0
    7.9120  -17.8781   22.9536 N   0  0  0  0  0  0  0  0  0  0  0  0
    8.0664  -16.6026   24.9164 C   0  0  0  0  0  0  0  0  0  0  0  0
    9.3042  -16.4614   24.6804 O   0  0  0  0  0  0  0  0  0  0  0  0
    6.1314  -11.4301   26.3068 C   0  0  0  0  0  0  0  0  0  0  0  0
    7.3279  -12.3345   25.9485 C   0  0  2  0  0  0  0  0  0  0  0  0
    7.2430  -12.7040   24.5057 C   0  0  0  0  0  0  0  0  0  0  0  0
    7.3706  -13.5074   26.8626 C   0  0  0  0  0  0  0  0  0  0  0  0
    8.3084  -14.5687   26.2799 C   0  0  2  0  0  0  0  0  0  0  0  0
    7.4434  -15.6627   25.7729 N   0  0  0  0  0  0  0  0  0  0  0  0
    9.1636  -15.1371   27.3181 C   0  0  0  0  0  0  0  0  0  0  0  0
    8.9372  -16.4034   27.8103 O   0  0  0  0  0  0  0  0  0  0  0  0
   10.1220  -14.4916   27.7913 O   0  0  0  0  0  0  0  0  0  0  0  0
  1  2  1  0
  2  4  1  0
  3  2  2  0
  4  5  1  0
  5  6  1  6
  7  5  1  0
  8  7  2  0
  9 10  1  0
 11 10  1  0
 11 13  1  0
 11 12  1  1
 13 15  1  0
 13 14  1  6
 14  7  1  0
 15 16  2  0
 18 17  1  1
 18 20  1  0
 19 18  1  0
 21 20  1  1
 22 21  1  0
 22 15  1  0
 23 24  1  0
 23 21  1  0
 25 23  2  0
M  END
$$$$
