NIL.pdb
     RDKit          3D

 25 24  0  0  1  0  0  0  0  0999 V2000
   14.2295  -18.7491   20.9783 N   0  0  0  0  0  0  0  0  0  0  0  0
   13.1925  -19.3043   21.7640 C   0  0  0  0  0  0  0  0  0  0  0  0
   13.4087  -20.3667   22.3723 O   0  0  0  0  0  0  0  0  0  0  0  0
   11.8588  -18.6616   21.8855 C   0  0  0  0  0  0  0  0  0  0  0  0
   11.7654  -17.4479   20.9845 C   0  0  2  0  0  0  0  0  0  0  0  0
   13.1106  -17.0502   20.6408 N   0  0  0  0  0  0  0  0  0  0  0  0
   11.0611  -16.3204   21.6677 C   0  0  0  0  0  0  0  0  0  0  0  0
   11.6927  -15.4392   22.3005 O   0  0  0  0  0  0  0  0  0  0  0  0
    7.1747  -13.3058   19.2340 C   0  0  0  0  0  0  0  0  0  0  0  0
    8.2785  -13.8755   20.0733 C   0  0  0  0  0  0  0  0  0  0  0  0
    7.9195  -14.4375   21.3935 C   0  0  2  0  0  0  0  0  0  0  0  0
    6.9969  -13.4946   22.1819 C   0  0  0  0  0  0  0  0  0  0  0  0
    8.9449  -15.0625   22.2289 C   0  0  2  0  0  0  0  0  0  0  0  0
    9.6576  -16.1708   21.6489 N   0  0  0  0  0  0  0  0  0  0  0  0
    8.3894  -15.5253   23.5139 C   0  0  0  0  0  0  0  0  0  0  0  0
    8.5708  -16.7377   23.8379 O   0  0  0  0  0  0  0  0  0  0  0  0
    8.3293  -13.0706   27.5154 C   0  0  0  0  0  0  0  0  0  0  0  0
    7.1858  -12.9936   26.4837 C   0  0  2  0  0  0  0  0  0  0  0  0
    6.3260  -11.8157   26.7979 C   0  0  0  0  0  0  0  0  0  0  0  0
    6.4428  -14.2820   26.4508 C   0  0  0  0  0  0  0  0  0  0  0  0
    7.2731  -15.3254   25.6976 C   0  0  2  0  0  0  0  0  0  0  0  0
    7.6710  -14.6995   24.4123 N   0  0  0  0  0  0  0  0  0  0  0  0
    6.4687  -16.5013   25.3773 C   0  0  0  0  0  0  0  0  0  0  0  0
    6.2581  -17.4931   26.3095 O   0  0  0  0  0  0  0  0  0  0  0  0
    5.9515  -16.6431   24.2497 O   0  0  0  0  0  0  0  0  0  0  0  0
  1  2  1  0
  2  4  1  0
  3  2  2  0
  4  5  1  0
  5  6  1  1
  7  5  1  0
  8  7  2  0
  9 10  1  0
 11 10  1  0
 11 13  1  0
 11 12  1  1
 13 15  1  0
 13 14  1  6
 14  7  1  0
 15 16  2  0
 18 17  1  1
 18 20  1  0
 19 18  1  0
 21 20  1  1
 22 21  1  0
 22 15  1  0
 23 24  1  0
 23 21  1  0
 25 23  2  0
M  END
$$$$
