NIL.pdb
     RDKit          3D

 25 24  0  0  1  0  0  0  0  0999 V2000
    7.6322  -18.1809   19.0588 N   0  0  0  0  0  0  0  0  0  0  0  0
    7.0312  -17.3731   20.0524 C   0  0  0  0  0  0  0  0  0  0  0  0
    5.8271  -17.0851   19.9389 O   0  0  0  0  0  0  0  0  0  0  0  0
    7.7889  -16.8599   21.2224 C   0  0  0  0  0  0  0  0  0  0  0  0
    7.4924  -15.3922   21.4501 C   0  0  2  0  0  0  0  0  0  0  0  0
    7.9322  -14.6676   20.2809 N   0  0  0  0  0  0  0  0  0  0  0  0
    8.2011  -14.8793   22.6621 C   0  0  0  0  0  0  0  0  0  0  0  0
    9.4367  -14.6576   22.6554 O   0  0  0  0  0  0  0  0  0  0  0  0
    5.8095  -11.4928   26.4885 C   0  0  0  0  0  0  0  0  0  0  0  0
    6.7804  -12.1661   25.5658 C   0  0  0  0  0  0  0  0  0  0  0  0
    7.4233  -13.4132   26.0339 C   0  0  2  0  0  0  0  0  0  0  0  0
    8.1240  -13.2190   27.3879 C   0  0  0  0  0  0  0  0  0  0  0  0
    8.1980  -14.2340   25.1032 C   0  0  2  0  0  0  0  0  0  0  0  0
    7.5396  -14.6127   23.8802 N   0  0  0  0  0  0  0  0  0  0  0  0
    8.6772  -15.4732   25.7427 C   0  0  0  0  0  0  0  0  0  0  0  0
    7.8138  -16.3313   26.0978 O   0  0  0  0  0  0  0  0  0  0  0  0
   10.5936  -19.0108   24.0781 C   0  0  0  0  0  0  0  0  0  0  0  0
   11.3282  -17.7011   24.4285 C   0  0  2  0  0  0  0  0  0  0  0  0
   12.5701  -17.6057   23.6076 C   0  0  0  0  0  0  0  0  0  0  0  0
   11.5757  -17.6331   25.8939 C   0  0  0  0  0  0  0  0  0  0  0  0
   10.3262  -17.0895   26.5929 C   0  0  2  0  0  0  0  0  0  0  0  0
   10.0416  -15.7682   25.9802 N   0  0  0  0  0  0  0  0  0  0  0  0
   10.5786  -16.8640   28.0135 C   0  0  0  0  0  0  0  0  0  0  0  0
   10.6304  -15.5890   28.5320 O   0  0  0  0  0  0  0  0  0  0  0  0
   10.7573  -17.8189   28.7978 O   0  0  0  0  0  0  0  0  0  0  0  0
  1  2  1  0
  2  4  1  0
  3  2  2  0
  4  5  1  0
  5  6  1  6
  7  5  1  0
  8  7  2  0
  9 10  1  0
 11 10  1  0
 11 13  1  0
 11 12  1  1
 13 15  1  0
 13 14  1  6
 14  7  1  0
 15 16  2  0
 18 17  1  1
 18 20  1  0
 19 18  1  0
 21 20  1  6
 22 21  1  0
 22 15  1  0
 23 24  1  0
 23 21  1  0
 25 23  2  0
M  END
$$$$
