NIL.pdb
     RDKit          3D

 25 24  0  0  1  0  0  0  0  0999 V2000
   10.1179  -19.0498   18.8284 N   0  0  0  0  0  0  0  0  0  0  0  0
    9.2102  -18.6395   19.8328 C   0  0  0  0  0  0  0  0  0  0  0  0
    8.0066  -18.9209   19.7001 O   0  0  0  0  0  0  0  0  0  0  0  0
    9.6468  -17.8861   21.0363 C   0  0  0  0  0  0  0  0  0  0  0  0
    9.0062  -16.5141   21.0704 C   0  0  2  0  0  0  0  0  0  0  0  0
    9.5295  -15.7561   19.9581 N   0  0  0  0  0  0  0  0  0  0  0  0
    9.3081  -15.8084   22.3531 C   0  0  0  0  0  0  0  0  0  0  0  0
   10.4395  -15.3139   22.5796 O   0  0  0  0  0  0  0  0  0  0  0  0
    5.5547  -12.5859   25.1010 C   0  0  0  0  0  0  0  0  0  0  0  0
    6.8155  -13.1493   24.5177 C   0  0  0  0  0  0  0  0  0  0  0  0
    7.4574  -14.2779   25.2260 C   0  0  2  0  0  0  0  0  0  0  0  0
    7.6583  -13.9728   26.7188 C   0  0  0  0  0  0  0  0  0  0  0  0
    8.5997  -14.9671   24.6259 C   0  0  2  0  0  0  0  0  0  0  0  0
    8.3558  -15.6517   23.3831 N   0  0  0  0  0  0  0  0  0  0  0  0
    9.1910  -15.9472   25.5553 C   0  0  0  0  0  0  0  0  0  0  0  0
    8.9654  -17.1772   25.3450 O   0  0  0  0  0  0  0  0  0  0  0  0
   10.7733  -13.7596   28.2171 C   0  0  0  0  0  0  0  0  0  0  0  0
   10.5681  -15.0168   29.0861 C   0  0  2  0  0  0  0  0  0  0  0  0
   10.8546  -14.6757   30.5098 C   0  0  0  0  0  0  0  0  0  0  0  0
   11.3958  -16.1370   28.5634 C   0  0  0  0  0  0  0  0  0  0  0  0
   10.7269  -16.7204   27.3154 C   0  0  2  0  0  0  0  0  0  0  0  0
   10.0002  -15.6020   26.6649 N   0  0  0  0  0  0  0  0  0  0  0  0
    9.7357  -17.7300   27.6774 C   0  0  0  0  0  0  0  0  0  0  0  0
   10.1182  -18.9441   28.2033 O   0  0  0  0  0  0  0  0  0  0  0  0
    8.5147  -17.5233   27.5182 O   0  0  0  0  0  0  0  0  0  0  0  0
  1  2  1  0
  2  4  1  0
  3  2  2  0
  4  5  1  0
  5  6  1  6
  7  5  1  0
  8  7  2  0
  9 10  1  0
 11 10  1  0
 11 13  1  0
 11 12  1  1
 13 15  1  0
 13 14  1  6
 14  7  1  0
 15 16  2  0
 18 17  1  6
 18 20  1  0
 19 18  1  0
 21 20  1  1
 22 21  1  0
 22 15  1  0
 23 24  1  0
 23 21  1  0
 25 23  2  0
M  END
$$$$
