NIL.pdb
     RDKit          3D

 25 24  0  0  1  0  0  0  0  0999 V2000
    6.1165  -21.9406   22.1481 N   0  0  0  0  0  0  0  0  0  0  0  0
    5.7977  -20.5652   22.0593 C   0  0  0  0  0  0  0  0  0  0  0  0
    4.6172  -20.2392   21.8457 O   0  0  0  0  0  0  0  0  0  0  0  0
    6.8237  -19.5019   22.2125 C   0  0  0  0  0  0  0  0  0  0  0  0
    6.7795  -18.5428   21.0412 C   0  0  2  0  0  0  0  0  0  0  0  0
    7.0546  -19.2993   19.8421 N   0  0  0  0  0  0  0  0  0  0  0  0
    7.7899  -17.4524   21.1971 C   0  0  0  0  0  0  0  0  0  0  0  0
    9.0166  -17.6667   21.0386 O   0  0  0  0  0  0  0  0  0  0  0  0
    7.0214  -12.1675   19.4958 C   0  0  0  0  0  0  0  0  0  0  0  0
    7.6125  -13.4958   19.8612 C   0  0  0  0  0  0  0  0  0  0  0  0
    7.9625  -13.7268   21.2796 C   0  0  2  0  0  0  0  0  0  0  0  0
    8.8461  -12.6004   21.8387 C   0  0  0  0  0  0  0  0  0  0  0  0
    8.3820  -15.0554   21.7253 C   0  0  2  0  0  0  0  0  0  0  0  0
    7.4396  -16.1258   21.5284 N   0  0  0  0  0  0  0  0  0  0  0  0
    8.7519  -15.0567   23.1527 C   0  0  0  0  0  0  0  0  0  0  0  0
    9.9310  -14.7074   23.4616 O   0  0  0  0  0  0  0  0  0  0  0  0
    8.0793  -12.3154   26.3160 C   0  0  0  0  0  0  0  0  0  0  0  0
    6.9350  -13.2704   25.9205 C   0  0  2  0  0  0  0  0  0  0  0  0
    5.6459  -12.7237   26.4349 C   0  0  0  0  0  0  0  0  0  0  0  0
    7.2325  -14.6468   26.4002 C   0  0  0  0  0  0  0  0  0  0  0  0
    8.3869  -15.2297   25.5799 C   0  0  2  0  0  0  0  0  0  0  0  0
    7.8713  -15.4179   24.2012 N   0  0  0  0  0  0  0  0  0  0  0  0
    8.7730  -16.5453   26.0825 C   0  0  0  0  0  0  0  0  0  0  0  0
    8.6047  -17.6763   25.3146 O   0  0  0  0  0  0  0  0  0  0  0  0
    9.2636  -16.6834   27.2223 O   0  0  0  0  0  0  0  0  0  0  0  0
  1  2  1  0
  2  4  1  0
  3  2  2  0
  4  5  1  0
  5  6  1  6
  7  5  1  0
  8  7  2  0
  9 10  1  0
 11 10  1  0
 11 13  1  0
 11 12  1  6
 13 15  1  0
 13 14  1  1
 14  7  1  0
 15 16  2  0
 18 17  1  1
 18 20  1  0
 19 18  1  0
 21 20  1  1
 22 21  1  0
 22 15  1  0
 23 24  1  0
 23 21  1  0
 25 23  2  0
M  END
$$$$
