WLR.pdb
     RDKit          3D

 34 35  0  0  1  0  0  0  0  0999 V2000
    5.9623  -18.4704   24.1959 N   0  0  0  0  0  0  0  0  0  0  0  0
    6.3727  -17.0862   24.1621 C   0  0  1  0  0  0  0  0  0  0  0  0
    6.8495  -16.7075   25.5523 C   0  0  0  0  0  0  0  0  0  0  0  0
    6.4872  -15.3216   25.9006 C   0  0  0  0  0  0  0  0  0  0  0  0
    5.1715  -14.8515   25.9376 C   0  0  0  0  0  0  0  0  0  0  0  0
    5.1717  -13.5445   26.2435 N   0  0  0  0  0  0  0  0  0  0  0  0
    6.4322  -13.1265   26.4118 C   0  0  0  0  0  0  0  0  0  0  0  0
    6.9512  -11.8916   26.7360 C   0  0  0  0  0  0  0  0  0  0  0  0
    8.3154  -11.7393   26.8558 C   0  0  0  0  0  0  0  0  0  0  0  0
    9.1244  -12.8269   26.6482 C   0  0  0  0  0  0  0  0  0  0  0  0
    8.6126  -14.0576   26.3249 C   0  0  0  0  0  0  0  0  0  0  0  0
    7.2599  -14.2219   26.2021 C   0  0  0  0  0  0  0  0  0  0  0  0
    7.5138  -16.9919   23.1834 C   0  0  0  0  0  0  0  0  0  0  0  0
    8.2809  -17.9559   22.9352 O   0  0  0  0  0  0  0  0  0  0  0  0
    8.0014  -12.5204   19.5545 C   0  0  0  0  0  0  0  0  0  0  0  0
    8.0343  -14.0079   19.9293 C   0  0  2  0  0  0  0  0  0  0  0  0
    6.6154  -14.4289   20.1682 C   0  0  0  0  0  0  0  0  0  0  0  0
    8.9498  -14.1297   21.0862 C   0  0  0  0  0  0  0  0  0  0  0  0
    8.9617  -15.4971   21.7558 C   0  0  2  0  0  0  0  0  0  0  0  0
    7.7634  -15.7530   22.4804 N   0  0  0  0  0  0  0  0  0  0  0  0
   10.2233  -15.7230   22.4915 C   0  0  0  0  0  0  0  0  0  0  0  0
   11.3539  -15.5874   21.8979 O   0  0  0  0  0  0  0  0  0  0  0  0
   11.8043  -19.7827   29.0485 N   0  0  0  0  0  0  0  0  0  0  0  0
   12.6686  -18.8610   29.6893 C   0  0  0  0  0  0  0  0  0  0  0  0
   13.4138  -19.2053   30.6983 N   0  0  0  0  0  0  0  0  0  0  0  0
   12.7032  -17.5369   29.1958 N   0  0  0  0  0  0  0  0  0  0  0  0
   11.6239  -17.0159   28.3387 C   0  0  0  0  0  0  0  0  0  0  0  0
   12.1007  -17.1055   26.9457 C   0  0  0  0  0  0  0  0  0  0  0  0
   11.3108  -16.4416   25.9275 C   0  0  0  0  0  0  0  0  0  0  0  0
   11.6620  -16.2984   24.5099 C   0  0  2  0  0  0  0  0  0  0  0  0
   10.3088  -16.0910   23.8571 N   0  0  0  0  0  0  0  0  0  0  0  0
   12.2218  -17.4485   23.8282 C   0  0  0  0  0  0  0  0  0  0  0  0
   13.4871  -17.6268   23.7234 O   0  0  0  0  0  0  0  0  0  0  0  0
   11.4387  -18.4420   23.2532 O   0  0  0  0  0  0  0  0  0  0  0  0
  2  1  1  1
  2  3  1  0
  3  4  1  0
  4  5  2  0
  5  6  1  0
  7  8  2  0
  7  6  1  0
  9  8  1  0
 10  9  2  0
 11 10  1  0
 11 12  2  0
 12  4  1  0
 12  7  1  0
 13  2  1  0
 13 20  1  0
 14 13  2  0
 16 15  1  1
 16 17  1  0
 19 18  1  1
 18 16  1  0
 19 20  1  0
 19 21  1  0
 21 22  2  0
 21 31  1  0
 23 24  1  0
 24 26  1  0
 25 24  2  0
 26 27  1  0
 28 27  1  0
 29 28  1  0
 30 32  1  0
 30 29  1  1
 31 30  1  0
 32 34  1  0
 33 32  2  0
M  END
$$$$
