WLR.pdb
     RDKit          3D

 34 35  0  0  1  0  0  0  0  0999 V2000
    8.8508  -16.2259   24.8940 N   0  0  0  0  0  0  0  0  0  0  0  0
    7.5354  -16.6786   24.5062 C   0  0  1  0  0  0  0  0  0  0  0  0
    6.5150  -15.8478   25.2624 C   0  0  0  0  0  0  0  0  0  0  0  0
    7.1565  -14.8496   26.1372 C   0  0  0  0  0  0  0  0  0  0  0  0
    8.2221  -15.1415   26.9934 C   0  0  0  0  0  0  0  0  0  0  0  0
    8.5543  -14.0405   27.6858 N   0  0  0  0  0  0  0  0  0  0  0  0
    7.7548  -13.0293   27.3253 C   0  0  0  0  0  0  0  0  0  0  0  0
    7.6998  -11.7150   27.7364 C   0  0  0  0  0  0  0  0  0  0  0  0
    6.7633  -10.8696   27.1826 C   0  0  0  0  0  0  0  0  0  0  0  0
    5.9063  -11.3617   26.2318 C   0  0  0  0  0  0  0  0  0  0  0  0
    5.9568  -12.6689   25.8200 C   0  0  0  0  0  0  0  0  0  0  0  0
    6.8816  -13.5188   26.3627 C   0  0  0  0  0  0  0  0  0  0  0  0
    7.4059  -16.4303   23.0262 C   0  0  0  0  0  0  0  0  0  0  0  0
    6.4335  -16.8464   22.3474 O   0  0  0  0  0  0  0  0  0  0  0  0
    8.0809  -12.4825   19.4369 C   0  0  0  0  0  0  0  0  0  0  0  0
    7.7228  -13.7380   20.2428 C   0  0  2  0  0  0  0  0  0  0  0  0
    7.3386  -13.2788   21.6174 C   0  0  0  0  0  0  0  0  0  0  0  0
    8.8964  -14.6368   20.1644 C   0  0  0  0  0  0  0  0  0  0  0  0
    8.7749  -15.9247   20.9674 C   0  0  2  0  0  0  0  0  0  0  0  0
    8.4264  -15.6822   22.3260 N   0  0  0  0  0  0  0  0  0  0  0  0
    9.9399  -16.8067   20.7459 C   0  0  0  0  0  0  0  0  0  0  0  0
   11.0878  -16.5002   21.2330 O   0  0  0  0  0  0  0  0  0  0  0  0
   11.1023  -15.4853   13.7874 N   0  0  0  0  0  0  0  0  0  0  0  0
   10.0406  -16.4216   13.8455 C   0  0  0  0  0  0  0  0  0  0  0  0
    9.7088  -17.1486   12.8191 N   0  0  0  0  0  0  0  0  0  0  0  0
    9.3406  -16.5498   15.0667 N   0  0  0  0  0  0  0  0  0  0  0  0
    9.8413  -15.9189   16.3006 C   0  0  0  0  0  0  0  0  0  0  0  0
    9.7156  -16.9203   17.3764 C   0  0  0  0  0  0  0  0  0  0  0  0
   10.9344  -17.3457   18.0359 C   0  0  0  0  0  0  0  0  0  0  0  0
   11.0472  -18.3749   19.0758 C   0  0  2  0  0  0  0  0  0  0  0  0
    9.9091  -18.0189   20.0129 N   0  0  0  0  0  0  0  0  0  0  0  0
   12.2273  -18.3653   19.9172 C   0  0  0  0  0  0  0  0  0  0  0  0
   12.7463  -19.4457   20.3721 O   0  0  0  0  0  0  0  0  0  0  0  0
   12.8871  -17.1977   20.2813 O   0  0  0  0  0  0  0  0  0  0  0  0
  2  1  1  1
  2  3  1  0
  3  4  1  0
  4  5  2  0
  5  6  1  0
  7  8  2  0
  7  6  1  0
  9  8  1  0
 10  9  2  0
 11 10  1  0
 11 12  2  0
 12  4  1  0
 12  7  1  0
 13  2  1  0
 13 20  1  0
 14 13  2  0
 16 15  1  6
 16 17  1  0
 19 18  1  1
 18 16  1  0
 19 20  1  0
 19 21  1  0
 21 22  2  0
 21 31  1  0
 23 24  1  0
 24 26  1  0
 25 24  2  0
 26 27  1  0
 28 27  1  0
 29 28  1  0
 30 32  1  0
 30 29  1  6
 31 30  1  0
 32 34  1  0
 33 32  2  0
M  END
$$$$
