WLR.pdb
     RDKit          3D

 34 35  0  0  1  0  0  0  0  0999 V2000
    7.9778  -17.3663   23.8793 N   0  0  0  0  0  0  0  0  0  0  0  0
    8.7075  -16.3056   23.2249 C   0  0  1  0  0  0  0  0  0  0  0  0
    7.7536  -15.1436   23.0167 C   0  0  0  0  0  0  0  0  0  0  0  0
    7.0978  -14.7372   24.2729 C   0  0  0  0  0  0  0  0  0  0  0  0
    6.4408  -15.6278   25.1265 C   0  0  0  0  0  0  0  0  0  0  0  0
    5.9124  -14.9513   26.1585 N   0  0  0  0  0  0  0  0  0  0  0  0
    6.1912  -13.6487   26.0268 C   0  0  0  0  0  0  0  0  0  0  0  0
    5.8808  -12.5621   26.8158 C   0  0  0  0  0  0  0  0  0  0  0  0
    6.3097  -11.3074   26.4415 C   0  0  0  0  0  0  0  0  0  0  0  0
    7.0380  -11.1729   25.2874 C   0  0  0  0  0  0  0  0  0  0  0  0
    7.3489  -12.2510   24.4988 C   0  0  0  0  0  0  0  0  0  0  0  0
    6.9283  -13.5022   24.8589 C   0  0  0  0  0  0  0  0  0  0  0  0
    9.8182  -15.8986   24.1573 C   0  0  0  0  0  0  0  0  0  0  0  0
   10.7702  -15.1591   23.8021 O   0  0  0  0  0  0  0  0  0  0  0  0
   10.3228  -13.9643   28.0760 C   0  0  0  0  0  0  0  0  0  0  0  0
    9.6363  -15.3202   28.2866 C   0  0  2  0  0  0  0  0  0  0  0  0
    9.2226  -15.3806   29.7264 C   0  0  0  0  0  0  0  0  0  0  0  0
   10.6011  -16.3528   27.8458 C   0  0  0  0  0  0  0  0  0  0  0  0
   10.9654  -16.3038   26.3683 C   0  0  2  0  0  0  0  0  0  0  0  0
    9.8179  -16.3600   25.5278 N   0  0  0  0  0  0  0  0  0  0  0  0
   12.0472  -17.2593   26.0507 C   0  0  0  0  0  0  0  0  0  0  0  0
   13.0167  -17.4388   26.8734 O   0  0  0  0  0  0  0  0  0  0  0  0
   12.2382  -24.4699   20.3186 N   0  0  0  0  0  0  0  0  0  0  0  0
   12.7368  -23.9739   21.5484 C   0  0  0  0  0  0  0  0  0  0  0  0
   12.9538  -24.7540   22.5665 N   0  0  0  0  0  0  0  0  0  0  0  0
   12.9988  -22.5881   21.6429 N   0  0  0  0  0  0  0  0  0  0  0  0
   13.6312  -22.0134   22.8432 C   0  0  0  0  0  0  0  0  0  0  0  0
   13.7280  -20.5581   22.6223 C   0  0  0  0  0  0  0  0  0  0  0  0
   12.8898  -19.7033   23.4397 C   0  0  0  0  0  0  0  0  0  0  0  0
   13.3159  -18.9323   24.6133 C   0  0  2  0  0  0  0  0  0  0  0  0
   12.1192  -18.0360   24.8678 N   0  0  0  0  0  0  0  0  0  0  0  0
   14.4290  -18.0169   24.4583 C   0  0  0  0  0  0  0  0  0  0  0  0
   14.2824  -16.8489   23.9504 O   0  0  0  0  0  0  0  0  0  0  0  0
   15.7240  -18.3268   24.8555 O   0  0  0  0  0  0  0  0  0  0  0  0
  2  1  1  1
  2  3  1  0
  3  4  1  0
  4  5  2  0
  5  6  1  0
  7  8  2  0
  7  6  1  0
  9  8  1  0
 10  9  2  0
 11 10  1  0
 11 12  2  0
 12  4  1  0
 12  7  1  0
 13  2  1  0
 13 20  1  0
 14 13  2  0
 16 15  1  1
 16 17  1  0
 19 18  1  1
 18 16  1  0
 19 20  1  0
 19 21  1  0
 21 22  2  0
 21 31  1  0
 23 24  1  0
 24 26  1  0
 25 24  2  0
 26 27  1  0
 28 27  1  0
 29 28  1  0
 30 32  1  0
 30 29  1  6
 31 30  1  0
 32 34  1  0
 33 32  2  0
M  END
$$$$
