WLR.pdb
     RDKit          3D

 34 35  0  0  1  0  0  0  0  0999 V2000
    8.9483  -16.1960   24.8331 N   0  0  0  0  0  0  0  0  0  0  0  0
    7.6809  -16.8549   24.6207 C   0  0  1  0  0  0  0  0  0  0  0  0
    6.7871  -16.5390   25.8059 C   0  0  0  0  0  0  0  0  0  0  0  0
    7.3194  -15.4290   26.6170 C   0  0  0  0  0  0  0  0  0  0  0  0
    8.4436  -15.5413   27.4399 C   0  0  0  0  0  0  0  0  0  0  0  0
    8.6495  -14.3782   28.0775 N   0  0  0  0  0  0  0  0  0  0  0  0
    7.7098  -13.4976   27.7124 C   0  0  0  0  0  0  0  0  0  0  0  0
    7.4938  -12.1860   28.0767 C   0  0  0  0  0  0  0  0  0  0  0  0
    6.4339  -11.4959   27.5301 C   0  0  0  0  0  0  0  0  0  0  0  0
    5.6179  -12.1364   26.6333 C   0  0  0  0  0  0  0  0  0  0  0  0
    5.8284  -13.4415   26.2681 C   0  0  0  0  0  0  0  0  0  0  0  0
    6.8769  -14.1381   26.8042 C   0  0  0  0  0  0  0  0  0  0  0  0
    7.0911  -16.2741   23.3623 C   0  0  0  0  0  0  0  0  0  0  0  0
    6.1506  -16.8218   22.7340 O   0  0  0  0  0  0  0  0  0  0  0  0
    9.5260  -11.7186   19.9233 C   0  0  0  0  0  0  0  0  0  0  0  0
    8.9613  -13.1451   19.9157 C   0  0  2  0  0  0  0  0  0  0  0  0
    7.6663  -13.0975   19.1616 C   0  0  0  0  0  0  0  0  0  0  0  0
    8.8716  -13.5693   21.3311 C   0  0  0  0  0  0  0  0  0  0  0  0
    8.2323  -14.9330   21.5546 C   0  0  2  0  0  0  0  0  0  0  0  0
    7.6052  -15.0322   22.8287 N   0  0  0  0  0  0  0  0  0  0  0  0
    9.1639  -16.0257   21.2053 C   0  0  0  0  0  0  0  0  0  0  0  0
    9.0384  -16.6548   20.0929 O   0  0  0  0  0  0  0  0  0  0  0  0
   17.0531  -15.0781   17.6142 N   0  0  0  0  0  0  0  0  0  0  0  0
   15.8509  -14.4058   17.9459 C   0  0  0  0  0  0  0  0  0  0  0  0
   15.3775  -13.4421   17.2115 N   0  0  0  0  0  0  0  0  0  0  0  0
   15.1664  -14.8160   19.1125 N   0  0  0  0  0  0  0  0  0  0  0  0
   13.6943  -14.8633   19.1540 C   0  0  0  0  0  0  0  0  0  0  0  0
   13.3250  -16.0526   19.9448 C   0  0  0  0  0  0  0  0  0  0  0  0
   12.0383  -16.0352   20.6122 C   0  0  0  0  0  0  0  0  0  0  0  0
   11.4495  -17.1279   21.3950 C   0  0  2  0  0  0  0  0  0  0  0  0
   10.2366  -16.4658   22.0199 N   0  0  0  0  0  0  0  0  0  0  0  0
   12.2039  -17.6412   22.5212 C   0  0  0  0  0  0  0  0  0  0  0  0
   11.9456  -17.2926   23.7275 O   0  0  0  0  0  0  0  0  0  0  0  0
   13.2456  -18.5504   22.3824 O   0  0  0  0  0  0  0  0  0  0  0  0
  2  1  1  1
  2  3  1  0
  3  4  1  0
  4  5  2  0
  5  6  1  0
  7  8  2  0
  7  6  1  0
  9  8  1  0
 10  9  2  0
 11 10  1  0
 11 12  2  0
 12  4  1  0
 12  7  1  0
 13  2  1  0
 13 20  1  0
 14 13  2  0
 16 15  1  1
 16 17  1  0
 19 18  1  1
 18 16  1  0
 19 20  1  0
 19 21  1  0
 21 22  2  0
 21 31  1  0
 23 24  1  0
 24 26  1  0
 25 24  2  0
 26 27  1  0
 28 27  1  0
 29 28  1  0
 30 32  1  0
 30 29  1  1
 31 30  1  0
 32 34  1  0
 33 32  2  0
M  END
$$$$
