WLR.pdb
     RDKit          3D

 34 35  0  0  1  0  0  0  0  0999 V2000
    5.6771  -16.0232   23.2046 N   0  0  0  0  0  0  0  0  0  0  0  0
    7.0655  -15.6371   23.1091 C   0  0  1  0  0  0  0  0  0  0  0  0
    7.6786  -15.7568   24.4922 C   0  0  0  0  0  0  0  0  0  0  0  0
    7.1490  -14.7405   25.4195 C   0  0  0  0  0  0  0  0  0  0  0  0
    5.8256  -14.7167   25.8685 C   0  0  0  0  0  0  0  0  0  0  0  0
    5.6416  -13.6507   26.6632 N   0  0  0  0  0  0  0  0  0  0  0  0
    6.7873  -12.9654   26.7617 C   0  0  0  0  0  0  0  0  0  0  0  0
    7.1109  -11.8185   27.4540 C   0  0  0  0  0  0  0  0  0  0  0  0
    8.3952  -11.3242   27.3852 C   0  0  0  0  0  0  0  0  0  0  0  0
    9.3220  -11.9907   26.6255 C   0  0  0  0  0  0  0  0  0  0  0  0
    9.0046  -13.1320   25.9344 C   0  0  0  0  0  0  0  0  0  0  0  0
    7.7326  -13.6327   25.9937 C   0  0  0  0  0  0  0  0  0  0  0  0
    7.7263  -16.6095   22.1675 C   0  0  0  0  0  0  0  0  0  0  0  0
    7.0773  -17.4011   21.4386 O   0  0  0  0  0  0  0  0  0  0  0  0
    8.8071  -12.6729   19.5847 C   0  0  0  0  0  0  0  0  0  0  0  0
    8.7480  -14.2006   19.7134 C   0  0  2  0  0  0  0  0  0  0  0  0
    7.2986  -14.5758   19.7929 C   0  0  0  0  0  0  0  0  0  0  0  0
    9.5747  -14.5558   20.8889 C   0  0  0  0  0  0  0  0  0  0  0  0
    9.9008  -16.0371   21.0219 C   0  0  2  0  0  0  0  0  0  0  0  0
    9.1685  -16.6582   22.0727 N   0  0  0  0  0  0  0  0  0  0  0  0
   11.3607  -16.2664   21.0275 C   0  0  0  0  0  0  0  0  0  0  0  0
   12.0807  -15.8892   20.0333 O   0  0  0  0  0  0  0  0  0  0  0  0
   15.8018  -15.5438   17.6865 N   0  0  0  0  0  0  0  0  0  0  0  0
   15.4321  -14.2562   18.1478 C   0  0  0  0  0  0  0  0  0  0  0  0
   15.7960  -13.1731   17.5261 N   0  0  0  0  0  0  0  0  0  0  0  0
   14.6439  -14.1764   19.3183 N   0  0  0  0  0  0  0  0  0  0  0  0
   14.8332  -15.1255   20.4294 C   0  0  0  0  0  0  0  0  0  0  0  0
   13.9737  -16.2912   20.1493 C   0  0  0  0  0  0  0  0  0  0  0  0
   14.0874  -17.4311   21.0376 C   0  0  0  0  0  0  0  0  0  0  0  0
   12.9948  -18.0634   21.7859 C   0  0  2  0  0  0  0  0  0  0  0  0
   12.0775  -16.8915   22.0779 N   0  0  0  0  0  0  0  0  0  0  0  0
   13.2968  -18.6220   23.0888 C   0  0  0  0  0  0  0  0  0  0  0  0
   12.8636  -18.0913   24.1725 O   0  0  0  0  0  0  0  0  0  0  0  0
   14.0601  -19.7703   23.2610 O   0  0  0  0  0  0  0  0  0  0  0  0
  2  1  1  1
  2  3  1  0
  3  4  1  0
  4  5  2  0
  5  6  1  0
  7  8  2  0
  7  6  1  0
  9  8  1  0
 10  9  2  0
 11 10  1  0
 11 12  2  0
 12  4  1  0
 12  7  1  0
 13  2  1  0
 13 20  1  0
 14 13  2  0
 16 15  1  1
 16 17  1  0
 19 18  1  1
 18 16  1  0
 19 20  1  0
 19 21  1  0
 21 22  2  0
 21 31  1  0
 23 24  1  0
 24 26  1  0
 25 24  2  0
 26 27  1  0
 28 27  1  0
 29 28  1  0
 30 32  1  0
 30 29  1  1
 31 30  1  0
 32 34  1  0
 33 32  2  0
M  END
$$$$
