WLR.pdb
     RDKit          3D

 34 35  0  0  1  0  0  0  0  0999 V2000
    6.7303  -17.2072   25.6522 N   0  0  0  0  0  0  0  0  0  0  0  0
    7.0168  -16.0918   24.7807 C   0  0  1  0  0  0  0  0  0  0  0  0
    8.3957  -15.5660   25.1348 C   0  0  0  0  0  0  0  0  0  0  0  0
    8.3730  -14.7369   26.3536 C   0  0  0  0  0  0  0  0  0  0  0  0
    9.0711  -15.0578   27.5212 C   0  0  0  0  0  0  0  0  0  0  0  0
    8.8161  -14.1357   28.4628 N   0  0  0  0  0  0  0  0  0  0  0  0
    7.9783  -13.2154   27.9698 C   0  0  0  0  0  0  0  0  0  0  0  0
    7.4303  -12.0824   28.5315 C   0  0  0  0  0  0  0  0  0  0  0  0
    6.5875  -11.2925   27.7803 C   0  0  0  0  0  0  0  0  0  0  0  0
    6.3153  -11.6571   26.4867 C   0  0  0  0  0  0  0  0  0  0  0  0
    6.8579  -12.7838   25.9235 C   0  0  0  0  0  0  0  0  0  0  0  0
    7.6956  -13.5771   26.6591 C   0  0  0  0  0  0  0  0  0  0  0  0
    7.0158  -16.6255   23.3722 C   0  0  0  0  0  0  0  0  0  0  0  0
    7.1995  -17.8392   23.1026 O   0  0  0  0  0  0  0  0  0  0  0  0
    8.4847  -12.2333   19.4893 C   0  0  0  0  0  0  0  0  0  0  0  0
    8.0648  -13.7088   19.5156 C   0  0  2  0  0  0  0  0  0  0  0  0
    6.7369  -13.7967   18.8251 C   0  0  0  0  0  0  0  0  0  0  0  0
    8.0856  -14.1267   20.9356 C   0  0  0  0  0  0  0  0  0  0  0  0
    7.7151  -15.5825   21.1832 C   0  0  2  0  0  0  0  0  0  0  0  0
    6.7947  -15.7292   22.2590 N   0  0  0  0  0  0  0  0  0  0  0  0
    8.9175  -16.4398   21.2391 C   0  0  0  0  0  0  0  0  0  0  0  0
    8.8094  -17.6935   21.4954 O   0  0  0  0  0  0  0  0  0  0  0  0
   10.2181  -15.5595   14.2742 N   0  0  0  0  0  0  0  0  0  0  0  0
   11.2963  -16.4560   14.4768 C   0  0  0  0  0  0  0  0  0  0  0  0
   11.9639  -16.9633   13.4823 N   0  0  0  0  0  0  0  0  0  0  0  0
   11.6353  -16.7895   15.8078 N   0  0  0  0  0  0  0  0  0  0  0  0
   10.9229  -16.1870   16.9482 C   0  0  0  0  0  0  0  0  0  0  0  0
   11.0706  -17.1149   18.0854 C   0  0  0  0  0  0  0  0  0  0  0  0
   11.6771  -16.5946   19.2949 C   0  0  0  0  0  0  0  0  0  0  0  0
   11.3392  -16.9761   20.6711 C   0  0  2  0  0  0  0  0  0  0  0  0
   10.2435  -15.9888   21.0243 N   0  0  0  0  0  0  0  0  0  0  0  0
   12.3454  -16.7844   21.6966 C   0  0  0  0  0  0  0  0  0  0  0  0
   12.4516  -15.6849   22.3473 O   0  0  0  0  0  0  0  0  0  0  0  0
   13.2544  -17.7714   22.0581 O   0  0  0  0  0  0  0  0  0  0  0  0
  2  1  1  1
  2  3  1  0
  3  4  1  0
  4  5  2  0
  5  6  1  0
  7  8  2  0
  7  6  1  0
  9  8  1  0
 10  9  2  0
 11 10  1  0
 11 12  2  0
 12  4  1  0
 12  7  1  0
 13  2  1  0
 13 20  1  0
 14 13  2  0
 16 15  1  1
 16 17  1  0
 19 18  1  1
 18 16  1  0
 19 20  1  0
 19 21  1  0
 21 22  2  0
 21 31  1  0
 23 24  1  0
 24 26  1  0
 25 24  2  0
 26 27  1  0
 28 27  1  0
 29 28  1  0
 30 32  1  0
 30 29  1  6
 31 30  1  0
 32 34  1  0
 33 32  2  0
M  END
$$$$
