WLR.pdb
     RDKit          3D

 34 35  0  0  1  0  0  0  0  0999 V2000
    5.9655  -18.2934   24.1339 N   0  0  0  0  0  0  0  0  0  0  0  0
    6.4622  -16.9374   24.1198 C   0  0  1  0  0  0  0  0  0  0  0  0
    7.0668  -16.6486   25.4816 C   0  0  0  0  0  0  0  0  0  0  0  0
    6.5814  -15.3738   26.0408 C   0  0  0  0  0  0  0  0  0  0  0  0
    5.2418  -15.1258   26.3534 C   0  0  0  0  0  0  0  0  0  0  0  0
    5.1124  -13.8668   26.8007 N   0  0  0  0  0  0  0  0  0  0  0  0
    6.3096  -13.2681   26.7990 C   0  0  0  0  0  0  0  0  0  0  0  0
    6.6983  -11.9983   27.1680 C   0  0  0  0  0  0  0  0  0  0  0  0
    8.0252  -11.6400   27.0712 C   0  0  0  0  0  0  0  0  0  0  0  0
    8.9284  -12.5618   26.6076 C   0  0  0  0  0  0  0  0  0  0  0  0
    8.5464  -13.8263   26.2388 C   0  0  0  0  0  0  0  0  0  0  0  0
    7.2317  -14.1943   26.3294 C   0  0  0  0  0  0  0  0  0  0  0  0
    7.5297  -16.8733   23.0590 C   0  0  0  0  0  0  0  0  0  0  0  0
    8.2468  -17.8588   22.7528 O   0  0  0  0  0  0  0  0  0  0  0  0
    7.3197  -14.1797   19.0828 C   0  0  0  0  0  0  0  0  0  0  0  0
    7.5779  -13.5549   20.4601 C   0  0  2  0  0  0  0  0  0  0  0  0
    7.4333  -12.0712   20.2999 C   0  0  0  0  0  0  0  0  0  0  0  0
    8.9096  -14.0328   20.8956 C   0  0  0  0  0  0  0  0  0  0  0  0
    8.9185  -15.4115   21.5415 C   0  0  2  0  0  0  0  0  0  0  0  0
    7.7634  -15.6398   22.3414 N   0  0  0  0  0  0  0  0  0  0  0  0
   10.2180  -15.6930   22.1866 C   0  0  0  0  0  0  0  0  0  0  0  0
   10.4011  -15.4134   23.4265 O   0  0  0  0  0  0  0  0  0  0  0  0
   11.0072  -19.5469   27.0748 N   0  0  0  0  0  0  0  0  0  0  0  0
   12.3628  -19.9115   26.8834 C   0  0  0  0  0  0  0  0  0  0  0  0
   13.2458  -19.7952   27.8315 N   0  0  0  0  0  0  0  0  0  0  0  0
   12.7378  -20.4146   25.6169 N   0  0  0  0  0  0  0  0  0  0  0  0
   12.0639  -19.9605   24.3878 C   0  0  0  0  0  0  0  0  0  0  0  0
   12.6148  -18.6313   24.0623 C   0  0  0  0  0  0  0  0  0  0  0  0
   12.1818  -18.0164   22.8230 C   0  0  0  0  0  0  0  0  0  0  0  0
   12.5569  -16.6841   22.3355 C   0  0  2  0  0  0  0  0  0  0  0  0
   11.3355  -16.2726   21.5361 N   0  0  0  0  0  0  0  0  0  0  0  0
   13.6557  -16.5883   21.3951 C   0  0  0  0  0  0  0  0  0  0  0  0
   14.8684  -16.4329   21.7808 O   0  0  0  0  0  0  0  0  0  0  0  0
   13.4826  -16.6695   20.0187 O   0  0  0  0  0  0  0  0  0  0  0  0
  2  1  1  1
  2  3  1  0
  3  4  1  0
  4  5  2  0
  5  6  1  0
  7  8  2  0
  7  6  1  0
  9  8  1  0
 10  9  2  0
 11 10  1  0
 11 12  2  0
 12  4  1  0
 12  7  1  0
 13  2  1  0
 13 20  1  0
 14 13  2  0
 16 15  1  6
 16 17  1  0
 19 18  1  1
 18 16  1  0
 19 20  1  0
 19 21  1  0
 21 22  2  0
 21 31  1  0
 23 24  1  0
 24 26  1  0
 25 24  2  0
 26 27  1  0
 28 27  1  0
 29 28  1  0
 30 32  1  0
 30 29  1  6
 31 30  1  0
 32 34  1  0
 33 32  2  0
M  END
$$$$
