WLR.pdb
     RDKit          3D

 34 35  0  0  1  0  0  0  0  0999 V2000
    6.7589  -19.6139   19.9347 N   0  0  0  0  0  0  0  0  0  0  0  0
    6.3520  -18.4033   20.6090 C   0  0  1  0  0  0  0  0  0  0  0  0
    5.8478  -18.7854   21.9886 C   0  0  0  0  0  0  0  0  0  0  0  0
    4.5242  -19.4320   21.9319 C   0  0  0  0  0  0  0  0  0  0  0  0
    4.0564  -20.3240   22.9010 C   0  0  0  0  0  0  0  0  0  0  0  0
    2.8418  -20.7727   22.5470 N   0  0  0  0  0  0  0  0  0  0  0  0
    2.4827  -20.2161   21.3838 C   0  0  0  0  0  0  0  0  0  0  0  0
    1.3434  -20.3476   20.6195 C   0  0  0  0  0  0  0  0  0  0  0  0
    1.2288  -19.6366   19.4448 C   0  0  0  0  0  0  0  0  0  0  0  0
    2.2573  -18.8126   19.0659 C   0  0  0  0  0  0  0  0  0  0  0  0
    3.3931  -18.6788   19.8228 C   0  0  0  0  0  0  0  0  0  0  0  0
    3.5196  -19.3799   20.9909 C   0  0  0  0  0  0  0  0  0  0  0  0
    7.5782  -17.5371   20.7311 C   0  0  0  0  0  0  0  0  0  0  0  0
    8.7313  -17.9423   20.4388 O   0  0  0  0  0  0  0  0  0  0  0  0
    8.2203  -13.1849   19.4371 C   0  0  0  0  0  0  0  0  0  0  0  0
    7.3389  -13.3058   20.6871 C   0  0  2  0  0  0  0  0  0  0  0  0
    6.7996  -11.9368   20.9746 C   0  0  0  0  0  0  0  0  0  0  0  0
    8.1870  -13.9030   21.7433 C   0  0  0  0  0  0  0  0  0  0  0  0
    8.5800  -15.3551   21.5082 C   0  0  2  0  0  0  0  0  0  0  0  0
    7.4575  -16.1743   21.1998 N   0  0  0  0  0  0  0  0  0  0  0  0
    9.4674  -15.8508   22.5809 C   0  0  0  0  0  0  0  0  0  0  0  0
   10.4473  -15.1324   22.9964 O   0  0  0  0  0  0  0  0  0  0  0  0
    6.7662  -22.1870   27.6293 N   0  0  0  0  0  0  0  0  0  0  0  0
    6.7850  -20.9406   28.3025 C   0  0  0  0  0  0  0  0  0  0  0  0
    6.0975  -20.7354   29.3876 N   0  0  0  0  0  0  0  0  0  0  0  0
    7.5837  -19.9092   27.7583 N   0  0  0  0  0  0  0  0  0  0  0  0
    8.2395  -20.0656   26.4481 C   0  0  0  0  0  0  0  0  0  0  0  0
    8.8866  -18.7774   26.1354 C   0  0  0  0  0  0  0  0  0  0  0  0
    9.6396  -18.6931   24.8996 C   0  0  0  0  0  0  0  0  0  0  0  0
   10.2772  -17.4913   24.3496 C   0  0  2  0  0  0  0  0  0  0  0  0
    9.3324  -17.1041   23.2281 N   0  0  0  0  0  0  0  0  0  0  0  0
   11.5662  -17.6401   23.7037 C   0  0  0  0  0  0  0  0  0  0  0  0
   11.6817  -17.7287   22.4299 O   0  0  0  0  0  0  0  0  0  0  0  0
   12.7638  -17.6851   24.4070 O   0  0  0  0  0  0  0  0  0  0  0  0
  2  1  1  6
  2  3  1  0
  3  4  1  0
  4  5  2  0
  5  6  1  0
  7  8  2  0
  7  6  1  0
  9  8  1  0
 10  9  2  0
 11 10  1  0
 11 12  2  0
 12  4  1  0
 12  7  1  0
 13  2  1  0
 13 20  1  0
 14 13  2  0
 16 15  1  6
 16 17  1  0
 19 18  1  1
 18 16  1  0
 19 20  1  0
 19 21  1  0
 21 22  2  0
 21 31  1  0
 23 24  1  0
 24 26  1  0
 25 24  2  0
 26 27  1  0
 28 27  1  0
 29 28  1  0
 30 32  1  0
 30 29  1  6
 31 30  1  0
 32 34  1  0
 33 32  2  0
M  END
$$$$
