WLR.pdb
     RDKit          3D

 34 35  0  0  1  0  0  0  0  0999 V2000
    6.5658  -17.7895   25.1721 N   0  0  0  0  0  0  0  0  0  0  0  0
    7.0291  -16.5374   24.6213 C   0  0  1  0  0  0  0  0  0  0  0  0
    8.2902  -16.1391   25.3658 C   0  0  0  0  0  0  0  0  0  0  0  0
    8.0198  -15.1327   26.4085 C   0  0  0  0  0  0  0  0  0  0  0  0
    8.2817  -15.3353   27.7665 C   0  0  0  0  0  0  0  0  0  0  0  0
    7.8887  -14.2577   28.4637 N   0  0  0  0  0  0  0  0  0  0  0  0
    7.3772  -13.3473   27.6261 C   0  0  0  0  0  0  0  0  0  0  0  0
    6.8519  -12.0926   27.8482 C   0  0  0  0  0  0  0  0  0  0  0  0
    6.3948  -11.3501   26.7813 C   0  0  0  0  0  0  0  0  0  0  0  0
    6.4755  -11.8826   25.5202 C   0  0  0  0  0  0  0  0  0  0  0  0
    6.9969  -13.1308   25.2943 C   0  0  0  0  0  0  0  0  0  0  0  0
    7.4534  -13.8786   26.3453 C   0  0  0  0  0  0  0  0  0  0  0  0
    7.3459  -16.7883   23.1702 C   0  0  0  0  0  0  0  0  0  0  0  0
    7.2242  -17.9168   22.6308 O   0  0  0  0  0  0  0  0  0  0  0  0
    6.2404  -13.5395   20.4332 C   0  0  0  0  0  0  0  0  0  0  0  0
    7.7098  -13.4133   20.8562 C   0  0  2  0  0  0  0  0  0  0  0  0
    8.1740  -12.0560   20.4203 C   0  0  0  0  0  0  0  0  0  0  0  0
    8.4204  -14.5648   20.2558 C   0  0  0  0  0  0  0  0  0  0  0  0
    8.2347  -15.8874   20.9869 C   0  0  2  0  0  0  0  0  0  0  0  0
    7.8104  -15.7043   22.3333 N   0  0  0  0  0  0  0  0  0  0  0  0
    9.3986  -16.7766   20.7906 C   0  0  0  0  0  0  0  0  0  0  0  0
    9.6324  -17.2951   19.6393 O   0  0  0  0  0  0  0  0  0  0  0  0
   16.1767  -18.8091   18.9655 N   0  0  0  0  0  0  0  0  0  0  0  0
   15.7957  -18.2272   17.7312 C   0  0  0  0  0  0  0  0  0  0  0  0
   16.6049  -18.1831   16.7137 N   0  0  0  0  0  0  0  0  0  0  0  0
   14.4928  -17.6886   17.6304 N   0  0  0  0  0  0  0  0  0  0  0  0
   13.9368  -16.8372   18.6968 C   0  0  0  0  0  0  0  0  0  0  0  0
   13.3907  -17.7410   19.7268 C   0  0  0  0  0  0  0  0  0  0  0  0
   12.1896  -17.3147   20.4176 C   0  0  0  0  0  0  0  0  0  0  0  0
   11.4930  -18.0452   21.4827 C   0  0  2  0  0  0  0  0  0  0  0  0
   10.3282  -17.1275   21.8008 N   0  0  0  0  0  0  0  0  0  0  0  0
   12.1766  -18.2170   22.7492 C   0  0  0  0  0  0  0  0  0  0  0  0
   12.1381  -17.3244   23.6686 O   0  0  0  0  0  0  0  0  0  0  0  0
   12.9079  -19.3555   23.0656 O   0  0  0  0  0  0  0  0  0  0  0  0
  2  1  1  1
  2  3  1  0
  3  4  1  0
  4  5  2  0
  5  6  1  0
  7  8  2  0
  7  6  1  0
  9  8  1  0
 10  9  2  0
 11 10  1  0
 11 12  2  0
 12  4  1  0
 12  7  1  0
 13  2  1  0
 13 20  1  0
 14 13  2  0
 16 15  1  6
 16 17  1  0
 19 18  1  1
 18 16  1  0
 19 20  1  0
 19 21  1  0
 21 22  2  0
 21 31  1  0
 23 24  1  0
 24 26  1  0
 25 24  2  0
 26 27  1  0
 28 27  1  0
 29 28  1  0
 30 32  1  0
 30 29  1  6
 31 30  1  0
 32 34  1  0
 33 32  2  0
M  END
$$$$
