WLR.pdb
     RDKit          3D

 34 35  0  0  1  0  0  0  0  0999 V2000
    8.0960  -17.1640   21.6852 N   0  0  0  0  0  0  0  0  0  0  0  0
    7.5316  -15.8437   21.8401 C   0  0  1  0  0  0  0  0  0  0  0  0
    6.4576  -15.6690   20.7822 C   0  0  0  0  0  0  0  0  0  0  0  0
    6.9705  -14.9785   19.5849 C   0  0  0  0  0  0  0  0  0  0  0  0
    6.9905  -15.5511   18.3100 C   0  0  0  0  0  0  0  0  0  0  0  0
    7.5537  -14.6946   17.4435 N   0  0  0  0  0  0  0  0  0  0  0  0
    7.9082  -13.5767   18.0888 C   0  0  0  0  0  0  0  0  0  0  0  0
    8.5075  -12.4165   17.6479 C   0  0  0  0  0  0  0  0  0  0  0  0
    8.7559  -11.3988   18.5430 C   0  0  0  0  0  0  0  0  0  0  0  0
    8.3980  -11.5688   19.8558 C   0  0  0  0  0  0  0  0  0  0  0  0
    7.8019  -12.7216   20.2993 C   0  0  0  0  0  0  0  0  0  0  0  0
    7.5506  -13.7400   19.4208 C   0  0  0  0  0  0  0  0  0  0  0  0
    6.9149  -15.7898   23.2132 C   0  0  0  0  0  0  0  0  0  0  0  0
    5.7482  -15.3713   23.4208 O   0  0  0  0  0  0  0  0  0  0  0  0
    6.2235  -12.7846   27.4527 C   0  0  0  0  0  0  0  0  0  0  0  0
    7.4786  -13.5534   27.0191 C   0  0  2  0  0  0  0  0  0  0  0  0
    8.5389  -12.5322   26.7348 C   0  0  0  0  0  0  0  0  0  0  0  0
    7.0763  -14.4050   25.8771 C   0  0  0  0  0  0  0  0  0  0  0  0
    8.1580  -15.3458   25.3641 C   0  0  2  0  0  0  0  0  0  0  0  0
    7.6705  -16.2334   24.3636 N   0  0  0  0  0  0  0  0  0  0  0  0
    8.8973  -15.9721   26.4799 C   0  0  0  0  0  0  0  0  0  0  0  0
    8.2782  -16.3404   27.5430 O   0  0  0  0  0  0  0  0  0  0  0  0
   13.0683  -14.5336   20.9739 N   0  0  0  0  0  0  0  0  0  0  0  0
   12.3620  -15.7315   21.2446 C   0  0  0  0  0  0  0  0  0  0  0  0
   11.2182  -15.9962   20.6844 N   0  0  0  0  0  0  0  0  0  0  0  0
   12.9411  -16.6477   22.1519 N   0  0  0  0  0  0  0  0  0  0  0  0
   12.1095  -17.6085   22.8978 C   0  0  0  0  0  0  0  0  0  0  0  0
   11.6374  -16.9159   24.1117 C   0  0  0  0  0  0  0  0  0  0  0  0
   11.7908  -17.6086   25.3758 C   0  0  0  0  0  0  0  0  0  0  0  0
   10.8172  -17.6421   26.4733 C   0  0  2  0  0  0  0  0  0  0  0  0
   10.2925  -16.2192   26.4884 N   0  0  0  0  0  0  0  0  0  0  0  0
   11.3143  -17.8603   27.8172 C   0  0  0  0  0  0  0  0  0  0  0  0
   11.3694  -16.9163   28.6829 O   0  0  0  0  0  0  0  0  0  0  0  0
   11.7528  -19.0989   28.2695 O   0  0  0  0  0  0  0  0  0  0  0  0
  2  1  1  6
  2  3  1  0
  3  4  1  0
  4  5  2  0
  5  6  1  0
  7  8  2  0
  7  6  1  0
  9  8  1  0
 10  9  2  0
 11 10  1  0
 11 12  2  0
 12  4  1  0
 12  7  1  0
 13  2  1  0
 13 20  1  0
 14 13  2  0
 16 15  1  6
 16 17  1  0
 19 18  1  1
 18 16  1  0
 19 20  1  0
 19 21  1  0
 21 22  2  0
 21 31  1  0
 23 24  1  0
 24 26  1  0
 25 24  2  0
 26 27  1  0
 28 27  1  0
 29 28  1  0
 30 32  1  0
 30 29  1  6
 31 30  1  0
 32 34  1  0
 33 32  2  0
M  END
$$$$
