WLR.pdb
     RDKit          3D

 34 35  0  0  1  0  0  0  0  0999 V2000
    7.0009  -17.6782   24.8443 N   0  0  0  0  0  0  0  0  0  0  0  0
    7.3703  -16.3773   24.3373 C   0  0  1  0  0  0  0  0  0  0  0  0
    8.5329  -15.8663   25.1683 C   0  0  0  0  0  0  0  0  0  0  0  0
    8.0808  -15.0137   26.2828 C   0  0  0  0  0  0  0  0  0  0  0  0
    8.0707  -15.4261   27.6182 C   0  0  0  0  0  0  0  0  0  0  0  0
    7.5666  -14.4467   28.3853 N   0  0  0  0  0  0  0  0  0  0  0  0
    7.2418  -13.4006   27.6159 C   0  0  0  0  0  0  0  0  0  0  0  0
    6.7031  -12.1701   27.9242 C   0  0  0  0  0  0  0  0  0  0  0  0
    6.4736  -11.2584   26.9169 C   0  0  0  0  0  0  0  0  0  0  0  0
    6.7893  -11.6020   25.6274 C   0  0  0  0  0  0  0  0  0  0  0  0
    7.3251  -12.8254   25.3156 C   0  0  0  0  0  0  0  0  0  0  0  0
    7.5571  -13.7399   26.3066 C   0  0  0  0  0  0  0  0  0  0  0  0
    7.8056  -16.5719   22.9085 C   0  0  0  0  0  0  0  0  0  0  0  0
    7.9851  -17.7064   22.3988 O   0  0  0  0  0  0  0  0  0  0  0  0
    6.4935  -13.8690   19.3788 C   0  0  0  0  0  0  0  0  0  0  0  0
    7.6060  -13.2628   20.2442 C   0  0  2  0  0  0  0  0  0  0  0  0
    7.7970  -11.8495   19.7817 C   0  0  0  0  0  0  0  0  0  0  0  0
    8.7797  -14.1542   20.1052 C   0  0  0  0  0  0  0  0  0  0  0  0
    8.6363  -15.5151   20.7727 C   0  0  2  0  0  0  0  0  0  0  0  0
    8.0333  -15.4240   22.0589 N   0  0  0  0  0  0  0  0  0  0  0  0
    9.8974  -16.2824   20.7023 C   0  0  0  0  0  0  0  0  0  0  0  0
   10.1947  -16.9467   19.6444 O   0  0  0  0  0  0  0  0  0  0  0  0
   16.6732  -14.7673   17.7017 N   0  0  0  0  0  0  0  0  0  0  0  0
   15.2779  -14.5623   17.5660 C   0  0  0  0  0  0  0  0  0  0  0  0
   14.6099  -15.0316   16.5532 N   0  0  0  0  0  0  0  0  0  0  0  0
   14.6186  -13.8250   18.5756 N   0  0  0  0  0  0  0  0  0  0  0  0
   14.6943  -14.2341   19.9891 C   0  0  0  0  0  0  0  0  0  0  0  0
   14.1269  -15.5932   20.0736 C   0  0  0  0  0  0  0  0  0  0  0  0
   12.7802  -15.7213   20.5947 C   0  0  0  0  0  0  0  0  0  0  0  0
   12.2748  -16.8079   21.4416 C   0  0  2  0  0  0  0  0  0  0  0  0
   10.8581  -16.3570   21.7412 N   0  0  0  0  0  0  0  0  0  0  0  0
   12.8808  -16.9923   22.7452 C   0  0  0  0  0  0  0  0  0  0  0  0
   12.3166  -16.5823   23.8209 O   0  0  0  0  0  0  0  0  0  0  0  0
   14.1008  -17.6320   22.9285 O   0  0  0  0  0  0  0  0  0  0  0  0
  2  1  1  1
  2  3  1  0
  3  4  1  0
  4  5  2  0
  5  6  1  0
  7  8  2  0
  7  6  1  0
  9  8  1  0
 10  9  2  0
 11 10  1  0
 11 12  2  0
 12  4  1  0
 12  7  1  0
 13  2  1  0
 13 20  1  0
 14 13  2  0
 16 15  1  6
 16 17  1  0
 19 18  1  1
 18 16  1  0
 19 20  1  0
 19 21  1  0
 21 22  2  0
 21 31  1  0
 23 24  1  0
 24 26  1  0
 25 24  2  0
 26 27  1  0
 28 27  1  0
 29 28  1  0
 30 32  1  0
 30 29  1  6
 31 30  1  0
 32 34  1  0
 33 32  2  0
M  END
$$$$
