WLR.pdb
     RDKit          3D

 34 35  0  0  1  0  0  0  0  0999 V2000
    6.6304  -17.4776   24.8412 N   0  0  0  0  0  0  0  0  0  0  0  0
    7.1859  -16.2643   24.2888 C   0  0  1  0  0  0  0  0  0  0  0  0
    8.4967  -15.9855   25.0011 C   0  0  0  0  0  0  0  0  0  0  0  0
    8.3237  -15.0505   26.1276 C   0  0  0  0  0  0  0  0  0  0  0  0
    8.5551  -15.3951   27.4622 C   0  0  0  0  0  0  0  0  0  0  0  0
    8.2695  -14.3471   28.2510 N   0  0  0  0  0  0  0  0  0  0  0  0
    7.8586  -13.3206   27.4966 C   0  0  0  0  0  0  0  0  0  0  0  0
    7.4624  -12.0427   27.8275 C   0  0  0  0  0  0  0  0  0  0  0  0
    7.0900  -11.1682   26.8300 C   0  0  0  0  0  0  0  0  0  0  0  0
    7.1239  -11.5954   25.5274 C   0  0  0  0  0  0  0  0  0  0  0  0
    7.5169  -12.8662   25.1932 C   0  0  0  0  0  0  0  0  0  0  0  0
    7.8883  -13.7445   26.1744 C   0  0  0  0  0  0  0  0  0  0  0  0
    7.4400  -16.5252   22.8272 C   0  0  0  0  0  0  0  0  0  0  0  0
    7.3572  -17.6694   22.3142 O   0  0  0  0  0  0  0  0  0  0  0  0
    6.3245  -13.6812   19.8423 C   0  0  0  0  0  0  0  0  0  0  0  0
    7.7103  -13.2357   20.3272 C   0  0  2  0  0  0  0  0  0  0  0  0
    7.9731  -11.8904   19.7199 C   0  0  0  0  0  0  0  0  0  0  0  0
    8.6538  -14.3123   19.9502 C   0  0  0  0  0  0  0  0  0  0  0  0
    8.4781  -15.6179   20.7135 C   0  0  2  0  0  0  0  0  0  0  0  0
    7.7946  -15.4329   21.9483 N   0  0  0  0  0  0  0  0  0  0  0  0
    9.7464  -16.3733   20.7830 C   0  0  0  0  0  0  0  0  0  0  0  0
    9.9945  -17.3045   19.9344 O   0  0  0  0  0  0  0  0  0  0  0  0
   14.2353  -14.1778   17.0841 N   0  0  0  0  0  0  0  0  0  0  0  0
   15.4028  -14.6562   17.7285 C   0  0  0  0  0  0  0  0  0  0  0  0
   16.4518  -15.0337   17.0582 N   0  0  0  0  0  0  0  0  0  0  0  0
   15.4004  -14.7123   19.1409 N   0  0  0  0  0  0  0  0  0  0  0  0
   14.2420  -14.2394   19.9191 C   0  0  0  0  0  0  0  0  0  0  0  0
   13.2997  -15.3702   20.0164 C   0  0  0  0  0  0  0  0  0  0  0  0
   13.0439  -15.9121   21.3364 C   0  0  0  0  0  0  0  0  0  0  0  0
   12.0592  -16.9455   21.6767 C   0  0  2  0  0  0  0  0  0  0  0  0
   10.7660  -16.1558   21.7427 N   0  0  0  0  0  0  0  0  0  0  0  0
   12.1625  -17.5826   22.9745 C   0  0  0  0  0  0  0  0  0  0  0  0
   11.4871  -17.1773   23.9860 O   0  0  0  0  0  0  0  0  0  0  0  0
   12.9831  -18.6777   23.2163 O   0  0  0  0  0  0  0  0  0  0  0  0
  2  1  1  1
  2  3  1  0
  3  4  1  0
  4  5  2  0
  5  6  1  0
  7  8  2  0
  7  6  1  0
  9  8  1  0
 10  9  2  0
 11 10  1  0
 11 12  2  0
 12  4  1  0
 12  7  1  0
 13  2  1  0
 13 20  1  0
 14 13  2  0
 16 15  1  6
 16 17  1  0
 19 18  1  1
 18 16  1  0
 19 20  1  0
 19 21  1  0
 21 22  2  0
 21 31  1  0
 23 24  1  0
 24 26  1  0
 25 24  2  0
 26 27  1  0
 28 27  1  0
 29 28  1  0
 30 32  1  0
 30 29  1  1
 31 30  1  0
 32 34  1  0
 33 32  2  0
M  END
$$$$
