WLR.pdb
     RDKit          3D

 34 35  0  0  1  0  0  0  0  0999 V2000
    7.9368  -16.7801   22.2246 N   0  0  0  0  0  0  0  0  0  0  0  0
    9.3541  -16.5176   22.3131 C   0  0  1  0  0  0  0  0  0  0  0  0
    9.6635  -15.3256   21.4262 C   0  0  0  0  0  0  0  0  0  0  0  0
    8.5052  -14.9373   20.6012 C   0  0  0  0  0  0  0  0  0  0  0  0
    7.4967  -15.8251   20.2160 C   0  0  0  0  0  0  0  0  0  0  0  0
    6.6099  -15.1848   19.4378 N   0  0  0  0  0  0  0  0  0  0  0  0
    6.9864  -13.9087   19.2903 C   0  0  0  0  0  0  0  0  0  0  0  0
    6.4164  -12.8603   18.6007 C   0  0  0  0  0  0  0  0  0  0  0  0
    7.0224  -11.6231   18.6248 C   0  0  0  0  0  0  0  0  0  0  0  0
    8.1830  -11.4675   19.3384 C   0  0  0  0  0  0  0  0  0  0  0  0
    8.7543  -12.5079   20.0257 C   0  0  0  0  0  0  0  0  0  0  0  0
    8.1629  -13.7416   20.0091 C   0  0  0  0  0  0  0  0  0  0  0  0
    9.6474  -16.1787   23.7512 C   0  0  0  0  0  0  0  0  0  0  0  0
   10.8149  -16.0363   24.1939 O   0  0  0  0  0  0  0  0  0  0  0  0
    8.6054  -12.6533   26.4558 C   0  0  0  0  0  0  0  0  0  0  0  0
    7.4195  -13.5158   26.0043 C   0  0  2  0  0  0  0  0  0  0  0  0
    6.1723  -12.7807   26.3939 C   0  0  0  0  0  0  0  0  0  0  0  0
    7.6076  -14.8468   26.6243 C   0  0  0  0  0  0  0  0  0  0  0  0
    8.7607  -15.6634   26.0570 C   0  0  2  0  0  0  0  0  0  0  0  0
    8.5607  -16.0005   24.6886 N   0  0  0  0  0  0  0  0  0  0  0  0
    9.1170  -16.7828   26.9536 C   0  0  0  0  0  0  0  0  0  0  0  0
    9.6246  -16.5516   28.1102 O   0  0  0  0  0  0  0  0  0  0  0  0
   14.8444  -19.1373   23.1077 N   0  0  0  0  0  0  0  0  0  0  0  0
   13.4479  -19.3469   22.9933 C   0  0  0  0  0  0  0  0  0  0  0  0
   12.9174  -19.8754   21.9296 N   0  0  0  0  0  0  0  0  0  0  0  0
   12.6321  -18.9630   24.0819 N   0  0  0  0  0  0  0  0  0  0  0  0
   13.0493  -19.2169   25.4720 C   0  0  0  0  0  0  0  0  0  0  0  0
   11.9850  -18.6846   26.3437 C   0  0  0  0  0  0  0  0  0  0  0  0
   10.8220  -19.5219   26.5618 C   0  0  0  0  0  0  0  0  0  0  0  0
    9.6817  -19.2170   27.4338 C   0  0  2  0  0  0  0  0  0  0  0  0
    8.9414  -18.1545   26.6444 N   0  0  0  0  0  0  0  0  0  0  0  0
    9.9522  -18.5955   28.7149 C   0  0  0  0  0  0  0  0  0  0  0  0
   10.3317  -19.2755   29.7334 O   0  0  0  0  0  0  0  0  0  0  0  0
    9.8345  -17.2280   28.9320 O   0  0  0  0  0  0  0  0  0  0  0  0
  2  1  1  1
  2  3  1  0
  3  4  1  0
  4  5  2  0
  5  6  1  0
  7  8  2  0
  7  6  1  0
  9  8  1  0
 10  9  2  0
 11 10  1  0
 11 12  2  0
 12  4  1  0
 12  7  1  0
 13  2  1  0
 13 20  1  0
 14 13  2  0
 16 15  1  1
 16 17  1  0
 19 18  1  1
 18 16  1  0
 19 20  1  0
 19 21  1  0
 21 22  2  0
 21 31  1  0
 23 24  1  0
 24 26  1  0
 25 24  2  0
 26 27  1  0
 28 27  1  0
 29 28  1  0
 30 32  1  0
 30 29  1  6
 31 30  1  0
 32 34  1  0
 33 32  2  0
M  END
$$$$
