WLR.pdb
     RDKit          3D

 34 35  0  0  1  0  0  0  0  0999 V2000
    6.0420  -18.8202   23.8239 N   0  0  0  0  0  0  0  0  0  0  0  0
    6.3357  -17.4063   23.8391 C   0  0  1  0  0  0  0  0  0  0  0  0
    7.2319  -17.1293   25.0321 C   0  0  0  0  0  0  0  0  0  0  0  0
    6.7826  -15.9521   25.7973 C   0  0  0  0  0  0  0  0  0  0  0  0
    5.5731  -15.8982   26.4958 C   0  0  0  0  0  0  0  0  0  0  0  0
    5.4308  -14.6846   27.0513 N   0  0  0  0  0  0  0  0  0  0  0  0
    6.4950  -13.9299   26.7519 C   0  0  0  0  0  0  0  0  0  0  0  0
    6.8202  -12.6329   27.0858 C   0  0  0  0  0  0  0  0  0  0  0  0
    8.0085  -12.0955   26.6410 C   0  0  0  0  0  0  0  0  0  0  0  0
    8.8402  -12.8702   25.8738 C   0  0  0  0  0  0  0  0  0  0  0  0
    8.5207  -14.1612   25.5386 C   0  0  0  0  0  0  0  0  0  0  0  0
    7.3434  -14.7063   25.9732 C   0  0  0  0  0  0  0  0  0  0  0  0
    7.0708  -17.0982   22.5610 C   0  0  0  0  0  0  0  0  0  0  0  0
    8.0537  -17.7710   22.1604 O   0  0  0  0  0  0  0  0  0  0  0  0
    8.2663  -14.0200   18.6365 C   0  0  0  0  0  0  0  0  0  0  0  0
    7.8786  -13.0276   19.7405 C   0  0  2  0  0  0  0  0  0  0  0  0
    9.1487  -12.3934   20.2225 C   0  0  0  0  0  0  0  0  0  0  0  0
    7.1155  -13.7974   20.7488 C   0  0  0  0  0  0  0  0  0  0  0  0
    7.5466  -15.2485   20.9115 C   0  0  2  0  0  0  0  0  0  0  0  0
    6.6512  -15.9880   21.7346 N   0  0  0  0  0  0  0  0  0  0  0  0
    8.9788  -15.3463   21.2628 C   0  0  0  0  0  0  0  0  0  0  0  0
    9.8810  -15.1244   20.3764 O   0  0  0  0  0  0  0  0  0  0  0  0
   10.1530  -17.4024   28.5910 N   0  0  0  0  0  0  0  0  0  0  0  0
   11.5581  -17.5312   28.4634 C   0  0  0  0  0  0  0  0  0  0  0  0
   12.2384  -18.3765   29.1808 N   0  0  0  0  0  0  0  0  0  0  0  0
   12.2129  -16.7065   27.5206 N   0  0  0  0  0  0  0  0  0  0  0  0
   11.4661  -15.7101   26.7328 C   0  0  0  0  0  0  0  0  0  0  0  0
   11.6430  -16.0658   25.3122 C   0  0  0  0  0  0  0  0  0  0  0  0
   10.9145  -15.2825   24.3338 C   0  0  0  0  0  0  0  0  0  0  0  0
   10.9412  -15.4659   22.8781 C   0  0  2  0  0  0  0  0  0  0  0  0
    9.4759  -15.6758   22.5481 N   0  0  0  0  0  0  0  0  0  0  0  0
   11.6042  -16.6428   22.3528 C   0  0  0  0  0  0  0  0  0  0  0  0
   12.8177  -16.6119   21.9403 O   0  0  0  0  0  0  0  0  0  0  0  0
   10.9864  -17.8847   22.2686 O   0  0  0  0  0  0  0  0  0  0  0  0
  2  1  1  6
  2  3  1  0
  3  4  1  0
  4  5  2  0
  5  6  1  0
  7  8  2  0
  7  6  1  0
  9  8  1  0
 10  9  2  0
 11 10  1  0
 11 12  2  0
 12  4  1  0
 12  7  1  0
 13  2  1  0
 13 20  1  0
 14 13  2  0
 16 15  1  6
 16 17  1  0
 19 18  1  1
 18 16  1  0
 19 20  1  0
 19 21  1  0
 21 22  2  0
 21 31  1  0
 23 24  1  0
 24 26  1  0
 25 24  2  0
 26 27  1  0
 28 27  1  0
 29 28  1  0
 30 32  1  0
 30 29  1  1
 31 30  1  0
 32 34  1  0
 33 32  2  0
M  END
$$$$
