WLR.pdb
     RDKit          3D

 34 35  0  0  1  0  0  0  0  0999 V2000
    7.0072  -18.4466   24.9577 N   0  0  0  0  0  0  0  0  0  0  0  0
    7.0144  -17.0523   24.5817 C   0  0  1  0  0  0  0  0  0  0  0  0
    7.8978  -16.3086   25.5665 C   0  0  0  0  0  0  0  0  0  0  0  0
    7.2830  -15.0454   26.0133 C   0  0  0  0  0  0  0  0  0  0  0  0
    5.9243  -14.9086   26.3112 C   0  0  0  0  0  0  0  0  0  0  0  0
    5.6655  -13.6347   26.6456 N   0  0  0  0  0  0  0  0  0  0  0  0
    6.7952  -12.9193   26.5831 C   0  0  0  0  0  0  0  0  0  0  0  0
    7.0509  -11.5887   26.8352 C   0  0  0  0  0  0  0  0  0  0  0  0
    8.3345  -11.1068   26.6984 C   0  0  0  0  0  0  0  0  0  0  0  0
    9.3286  -11.9692   26.3129 C   0  0  0  0  0  0  0  0  0  0  0  0
    9.0789  -13.2939   26.0604 C   0  0  0  0  0  0  0  0  0  0  0  0
    7.8085  -13.7847   26.1917 C   0  0  0  0  0  0  0  0  0  0  0  0
    7.6069  -16.9749   23.1990 C   0  0  0  0  0  0  0  0  0  0  0  0
    8.1081  -17.9686   22.6153 O   0  0  0  0  0  0  0  0  0  0  0  0
    9.1046  -12.3683   19.3351 C   0  0  0  0  0  0  0  0  0  0  0  0
    8.7668  -13.8636   19.3992 C   0  0  2  0  0  0  0  0  0  0  0  0
    7.8874  -14.1628   18.2224 C   0  0  0  0  0  0  0  0  0  0  0  0
    8.1691  -14.1028   20.7322 C   0  0  0  0  0  0  0  0  0  0  0  0
    8.2740  -15.5356   21.2364 C   0  0  2  0  0  0  0  0  0  0  0  0
    7.6130  -15.7180   22.4838 N   0  0  0  0  0  0  0  0  0  0  0  0
    9.6649  -16.0294   21.1629 C   0  0  0  0  0  0  0  0  0  0  0  0
   10.0867  -16.6264   20.1071 O   0  0  0  0  0  0  0  0  0  0  0  0
   16.1030  -13.5032   18.9372 N   0  0  0  0  0  0  0  0  0  0  0  0
   15.1905  -13.8096   17.8977 C   0  0  0  0  0  0  0  0  0  0  0  0
   15.3113  -13.3025   16.7059 N   0  0  0  0  0  0  0  0  0  0  0  0
   14.1293  -14.6958   18.1918 N   0  0  0  0  0  0  0  0  0  0  0  0
   14.0423  -15.3716   19.4982 C   0  0  0  0  0  0  0  0  0  0  0  0
   13.0133  -14.6616   20.2812 C   0  0  0  0  0  0  0  0  0  0  0  0
   12.7493  -15.1410   21.6235 C   0  0  0  0  0  0  0  0  0  0  0  0
   12.0482  -16.3790   21.9830 C   0  0  2  0  0  0  0  0  0  0  0  0
   10.6255  -15.8988   22.1964 N   0  0  0  0  0  0  0  0  0  0  0  0
   12.4047  -17.0249   23.2306 C   0  0  0  0  0  0  0  0  0  0  0  0
   13.5613  -17.5443   23.4205 O   0  0  0  0  0  0  0  0  0  0  0  0
   11.5339  -17.1185   24.3095 O   0  0  0  0  0  0  0  0  0  0  0  0
  2  1  1  1
  2  3  1  0
  3  4  1  0
  4  5  2  0
  5  6  1  0
  7  8  2  0
  7  6  1  0
  9  8  1  0
 10  9  2  0
 11 10  1  0
 11 12  2  0
 12  4  1  0
 12  7  1  0
 13  2  1  0
 13 20  1  0
 14 13  2  0
 16 15  1  1
 16 17  1  0
 19 18  1  1
 18 16  1  0
 19 20  1  0
 19 21  1  0
 21 22  2  0
 21 31  1  0
 23 24  1  0
 24 26  1  0
 25 24  2  0
 26 27  1  0
 28 27  1  0
 29 28  1  0
 30 32  1  0
 30 29  1  1
 31 30  1  0
 32 34  1  0
 33 32  2  0
M  END
$$$$
