SPA.pdb
     RDKit          3D

 19 19  0  0  1  0  0  0  0  0999 V2000
   24.2037  -21.5688  -12.8019 O   0  0  0  0  0  0  0  0  0  0  0  0
   25.5026  -22.0192  -13.1379 C   0  0  0  0  0  0  0  0  0  0  0  0
   26.4565  -21.1381  -12.3085 C   0  0  2  0  0  0  0  0  0  0  0  0
   25.9404  -21.3006  -10.9351 N   0  0  0  0  0  0  0  0  0  0  0  0
   26.2427  -19.7411  -12.7026 C   0  0  0  0  0  0  0  0  0  0  0  0
   25.7243  -18.9523  -11.8547 O   0  0  0  0  0  0  0  0  0  0  0  0
   26.5855  -19.2164  -13.9868 N   0  0  0  0  0  0  0  0  0  0  0  0
   27.0739  -20.0162  -15.0898 C   0  0  0  0  0  0  0  0  0  0  0  0
   27.8554  -19.0566  -15.9635 C   0  0  0  0  0  0  0  0  0  0  0  0
   27.8909  -17.7473  -15.1677 C   0  0  0  0  0  0  0  0  0  0  0  0
   26.5409  -17.8586  -14.4680 C   0  0  1  0  0  0  0  0  0  0  0  0
   25.4176  -17.7440  -15.4288 C   0  0  0  0  0  0  0  0  0  0  0  0
   25.0449  -18.7240  -16.0960 O   0  0  0  0  0  0  0  0  0  0  0  0
   22.5663  -15.3445  -15.4796 C   0  0  0  0  0  0  0  0  0  0  0  0
   23.3229  -16.5340  -16.0205 C   0  0  2  0  0  0  0  0  0  0  0  0
   24.7161  -16.5167  -15.6332 N   0  0  0  0  0  0  0  0  0  0  0  0
   23.1967  -16.6230  -17.4893 C   0  0  0  0  0  0  0  0  0  0  0  0
   24.1832  -16.3845  -18.2159 O   0  0  0  0  0  0  0  0  0  0  0  0
   21.9848  -16.9702  -18.0458 O   0  0  0  0  0  0  0  0  0  0  0  0
  1  2  1  0
  2  3  1  0
  3  5  1  0
  3  4  1  1
  5  6  2  0
  7 11  1  0
  7  5  1  0
  8  7  1  0
  9  8  1  0
  9 10  1  0
 10 11  1  0
 11 12  1  6
 12 13  2  0
 12 16  1  0
 15 14  1  6
 15 17  1  0
 16 15  1  0
 17 18  2  0
 17 19  1  0
M  END
$$$$
