SPA.pdb
     RDKit          3D

 19 19  0  0  1  0  0  0  0  0999 V2000
   18.8630  -11.0153  -19.9070 O   0  0  0  0  0  0  0  0  0  0  0  0
   18.6288  -10.5728  -18.5833 C   0  0  0  0  0  0  0  0  0  0  0  0
   19.4007  -11.5630  -17.6901 C   0  0  2  0  0  0  0  0  0  0  0  0
   18.3318  -12.4434  -17.1785 N   0  0  0  0  0  0  0  0  0  0  0  0
   19.9470  -10.8169  -16.5511 C   0  0  0  0  0  0  0  0  0  0  0  0
   19.1943  -10.6176  -15.5493 O   0  0  0  0  0  0  0  0  0  0  0  0
   21.2791  -10.3018  -16.5039 N   0  0  0  0  0  0  0  0  0  0  0  0
   22.1896  -10.2934  -17.6289 C   0  0  0  0  0  0  0  0  0  0  0  0
   23.5764  -10.2593  -17.0199 C   0  0  0  0  0  0  0  0  0  0  0  0
   23.3435  -10.4218  -15.5138 C   0  0  0  0  0  0  0  0  0  0  0  0
   21.9990   -9.7113  -15.4039 C   0  0  1  0  0  0  0  0  0  0  0  0
   22.1281   -8.2570  -15.6617 C   0  0  0  0  0  0  0  0  0  0  0  0
   22.3719   -7.8294  -16.8028 O   0  0  0  0  0  0  0  0  0  0  0  0
   20.3033   -5.5746  -15.1499 C   0  0  0  0  0  0  0  0  0  0  0  0
   21.7662   -5.8957  -14.9578 C   0  0  2  0  0  0  0  0  0  0  0  0
   21.9805   -7.2864  -14.6242 N   0  0  0  0  0  0  0  0  0  0  0  0
   22.3743   -5.0202  -13.9355 C   0  0  0  0  0  0  0  0  0  0  0  0
   22.6663   -5.4813  -12.8129 O   0  0  0  0  0  0  0  0  0  0  0  0
   22.6145   -3.6963  -14.2328 O   0  0  0  0  0  0  0  0  0  0  0  0
  1  2  1  0
  2  3  1  0
  3  5  1  0
  3  4  1  1
  5  6  2  0
  7 11  1  0
  7  5  1  0
  8  7  1  0
  9  8  1  0
  9 10  1  0
 10 11  1  0
 11 12  1  6
 12 13  2  0
 12 16  1  0
 15 14  1  1
 15 17  1  0
 16 15  1  0
 17 18  2  0
 17 19  1  0
M  END
$$$$
