SPA.pdb
     RDKit          3D

 19 19  0  0  1  0  0  0  0  0999 V2000
   14.9318   -9.0669  -13.3294 O   0  0  0  0  0  0  0  0  0  0  0  0
   16.0706   -8.2532  -13.1198 C   0  0  0  0  0  0  0  0  0  0  0  0
   17.1057   -9.1808  -12.4546 C   0  0  2  0  0  0  0  0  0  0  0  0
   16.5402   -9.3884  -11.1070 N   0  0  0  0  0  0  0  0  0  0  0  0
   18.3570   -8.4301  -12.3023 C   0  0  0  0  0  0  0  0  0  0  0  0
   18.5636   -7.8269  -11.2053 O   0  0  0  0  0  0  0  0  0  0  0  0
   19.3579   -8.3393  -13.3180 N   0  0  0  0  0  0  0  0  0  0  0  0
   19.1956   -8.8345  -14.6683 C   0  0  0  0  0  0  0  0  0  0  0  0
   20.6013   -9.0934  -15.1703 C   0  0  0  0  0  0  0  0  0  0  0  0
   21.4982   -8.8669  -13.9484 C   0  0  0  0  0  0  0  0  0  0  0  0
   20.6846   -7.7796  -13.2554 C   0  0  1  0  0  0  0  0  0  0  0  0
   20.6915   -6.5158  -14.0305 C   0  0  0  0  0  0  0  0  0  0  0  0
   20.1233   -6.4391  -15.1331 O   0  0  0  0  0  0  0  0  0  0  0  0
   20.9489   -2.9369  -13.2361 C   0  0  0  0  0  0  0  0  0  0  0  0
   21.1258   -4.0707  -14.2175 C   0  0  2  0  0  0  0  0  0  0  0  0
   21.3435   -5.3374  -13.5547 N   0  0  0  0  0  0  0  0  0  0  0  0
   22.2230   -3.7890  -15.1653 C   0  0  0  0  0  0  0  0  0  0  0  0
   22.1371   -2.8219  -15.9497 O   0  0  0  0  0  0  0  0  0  0  0  0
   23.3364   -4.6009  -15.1740 O   0  0  0  0  0  0  0  0  0  0  0  0
  1  2  1  0
  2  3  1  0
  3  5  1  0
  3  4  1  1
  5  6  2  0
  7 11  1  0
  7  5  1  0
  8  7  1  0
  9  8  1  0
  9 10  1  0
 10 11  1  0
 11 12  1  6
 12 13  2  0
 12 16  1  0
 15 14  1  1
 15 17  1  0
 16 15  1  0
 17 18  2  0
 17 19  1  0
M  END
$$$$
