SPA.pdb
     RDKit          3D

 19 19  0  0  1  0  0  0  0  0999 V2000
   18.1577  -11.1271  -18.7492 O   0  0  0  0  0  0  0  0  0  0  0  0
   18.2995  -10.2934  -17.6145 C   0  0  0  0  0  0  0  0  0  0  0  0
   18.8637  -11.2120  -16.5136 C   0  0  2  0  0  0  0  0  0  0  0  0
   17.6630  -11.9258  -16.0363 N   0  0  0  0  0  0  0  0  0  0  0  0
   19.3441  -10.3645  -15.4166 C   0  0  0  0  0  0  0  0  0  0  0  0
   18.5484  -10.1147  -14.4604 O   0  0  0  0  0  0  0  0  0  0  0  0
   20.6575   -9.8041  -15.3618 N   0  0  0  0  0  0  0  0  0  0  0  0
   21.6442   -9.9368  -16.4123 C   0  0  0  0  0  0  0  0  0  0  0  0
   22.9837   -9.7643  -15.7259 C   0  0  0  0  0  0  0  0  0  0  0  0
   22.6496   -9.7034  -14.2314 C   0  0  0  0  0  0  0  0  0  0  0  0
   21.2849   -9.0295  -14.3209 C   0  0  1  0  0  0  0  0  0  0  0  0
   21.3985   -7.6279  -14.7906 C   0  0  0  0  0  0  0  0  0  0  0  0
   21.6339   -7.3708  -15.9835 O   0  0  0  0  0  0  0  0  0  0  0  0
   20.1796   -4.3418  -13.5131 C   0  0  0  0  0  0  0  0  0  0  0  0
   21.0143   -5.1924  -14.4402 C   0  0  2  0  0  0  0  0  0  0  0  0
   21.2450   -6.5166  -13.9066 N   0  0  0  0  0  0  0  0  0  0  0  0
   22.2974   -4.5333  -14.7578 C   0  0  0  0  0  0  0  0  0  0  0  0
   23.3474   -4.9091  -14.1971 O   0  0  0  0  0  0  0  0  0  0  0  0
   22.3225   -3.5049  -15.6746 O   0  0  0  0  0  0  0  0  0  0  0  0
  1  2  1  0
  2  3  1  0
  3  5  1  0
  3  4  1  1
  5  6  2  0
  7 11  1  0
  7  5  1  0
  8  7  1  0
  9  8  1  0
  9 10  1  0
 10 11  1  0
 11 12  1  6
 12 13  2  0
 12 16  1  0
 15 14  1  1
 15 17  1  0
 16 15  1  0
 17 18  2  0
 17 19  1  0
M  END
$$$$
