SPA.pdb
     RDKit          3D

 19 19  0  0  1  0  0  0  0  0999 V2000
   25.5622  -21.7650  -17.5661 O   0  0  0  0  0  0  0  0  0  0  0  0
   26.6098  -22.7148  -17.5084 C   0  0  0  0  0  0  0  0  0  0  0  0
   27.8761  -21.8925  -17.2014 C   0  0  2  0  0  0  0  0  0  0  0  0
   28.9627  -22.8595  -17.4527 N   0  0  0  0  0  0  0  0  0  0  0  0
   27.8792  -21.5810  -15.7677 C   0  0  0  0  0  0  0  0  0  0  0  0
   28.4419  -22.3996  -14.9783 O   0  0  0  0  0  0  0  0  0  0  0  0
   27.2856  -20.4078  -15.2080 N   0  0  0  0  0  0  0  0  0  0  0  0
   26.4584  -19.4803  -15.9498 C   0  0  0  0  0  0  0  0  0  0  0  0
   26.5691  -18.1646  -15.2071 C   0  0  0  0  0  0  0  0  0  0  0  0
   27.6344  -18.4127  -14.1335 C   0  0  0  0  0  0  0  0  0  0  0  0
   27.3616  -19.8887  -13.8657 C   0  0  1  0  0  0  0  0  0  0  0  0
   26.0446  -20.0906  -13.2154 C   0  0  0  0  0  0  0  0  0  0  0  0
   25.0218  -20.2913  -13.8921 O   0  0  0  0  0  0  0  0  0  0  0  0
   25.0423  -20.9679   -9.6770 C   0  0  0  0  0  0  0  0  0  0  0  0
   24.8417  -20.8420  -11.1683 C   0  0  2  0  0  0  0  0  0  0  0  0
   25.8873  -20.0648  -11.7960 N   0  0  0  0  0  0  0  0  0  0  0  0
   23.5159  -20.2714  -11.4816 C   0  0  0  0  0  0  0  0  0  0  0  0
   22.4796  -20.8973  -11.1776 O   0  0  0  0  0  0  0  0  0  0  0  0
   23.4359  -19.0474  -12.1095 O   0  0  0  0  0  0  0  0  0  0  0  0
  1  2  1  0
  2  3  1  0
  3  5  1  0
  3  4  1  1
  5  6  2  0
  7 11  1  0
  7  5  1  0
  8  7  1  0
  9  8  1  0
  9 10  1  0
 10 11  1  0
 11 12  1  6
 12 13  2  0
 12 16  1  0
 15 14  1  1
 15 17  1  0
 16 15  1  0
 17 18  2  0
 17 19  1  0
M  END
$$$$
