SPA.pdb
     RDKit          3D

 19 19  0  0  1  0  0  0  0  0999 V2000
   18.5625   -7.8121  -16.8192 O   0  0  0  0  0  0  0  0  0  0  0  0
   18.3692   -8.7446  -15.7723 C   0  0  0  0  0  0  0  0  0  0  0  0
   19.7657   -8.9413  -15.1516 C   0  0  2  0  0  0  0  0  0  0  0  0
   19.9731  -10.3981  -15.2683 N   0  0  0  0  0  0  0  0  0  0  0  0
   19.6781   -8.6164  -13.7236 C   0  0  0  0  0  0  0  0  0  0  0  0
   19.2887   -9.5231  -12.9260 O   0  0  0  0  0  0  0  0  0  0  0  0
   20.0070   -7.3373  -13.1780 N   0  0  0  0  0  0  0  0  0  0  0  0
   20.3654   -6.1809  -13.9713 C   0  0  0  0  0  0  0  0  0  0  0  0
   21.1907   -5.3055  -13.0507 C   0  0  0  0  0  0  0  0  0  0  0  0
   21.3863   -6.1478  -11.7854 C   0  0  0  0  0  0  0  0  0  0  0  0
   20.0666   -6.9111  -11.8024 C   0  0  1  0  0  0  0  0  0  0  0  0
   18.9145   -6.0143  -11.5447 C   0  0  0  0  0  0  0  0  0  0  0  0
   18.4956   -5.2431  -12.4246 O   0  0  0  0  0  0  0  0  0  0  0  0
   16.1412   -6.1939   -9.0276 C   0  0  0  0  0  0  0  0  0  0  0  0
   16.8478   -5.5948  -10.2200 C   0  0  2  0  0  0  0  0  0  0  0  0
   18.2367   -5.9919  -10.2876 N   0  0  0  0  0  0  0  0  0  0  0  0
   16.7314   -4.1225  -10.2243 C   0  0  0  0  0  0  0  0  0  0  0  0
   15.6150   -3.5853  -10.3768 O   0  0  0  0  0  0  0  0  0  0  0  0
   17.8622   -3.3525  -10.0591 O   0  0  0  0  0  0  0  0  0  0  0  0
  1  2  1  0
  2  3  1  0
  3  5  1  0
  3  4  1  1
  5  6  2  0
  7 11  1  0
  7  5  1  0
  8  7  1  0
  9  8  1  0
  9 10  1  0
 10 11  1  0
 11 12  1  6
 12 13  2  0
 12 16  1  0
 15 14  1  1
 15 17  1  0
 16 15  1  0
 17 18  2  0
 17 19  1  0
M  END
$$$$
