SPA.pdb
     RDKit          3D

 19 19  0  0  1  0  0  0  0  0999 V2000
   16.8260  -10.7892  -13.3129 O   0  0  0  0  0  0  0  0  0  0  0  0
   16.6262  -10.0068  -12.1506 C   0  0  0  0  0  0  0  0  0  0  0  0
   17.8398  -10.3123  -11.2517 C   0  0  2  0  0  0  0  0  0  0  0  0
   17.3218  -11.3578  -10.3474 N   0  0  0  0  0  0  0  0  0  0  0  0
   18.1173   -9.1204  -10.4424 C   0  0  0  0  0  0  0  0  0  0  0  0
   17.7633   -9.1282   -9.2240 O   0  0  0  0  0  0  0  0  0  0  0  0
   18.7645   -7.9505  -10.9468 N   0  0  0  0  0  0  0  0  0  0  0  0
   19.1264   -7.7538  -12.3343 C   0  0  0  0  0  0  0  0  0  0  0  0
   20.2665   -6.7564  -12.3119 C   0  0  0  0  0  0  0  0  0  0  0  0
   20.5925   -6.5720  -10.8258 C   0  0  0  0  0  0  0  0  0  0  0  0
   19.1936   -6.7637  -10.2507 C   0  0  1  0  0  0  0  0  0  0  0  0
   18.2904   -5.6512  -10.6310 C   0  0  0  0  0  0  0  0  0  0  0  0
   18.0075   -5.4363  -11.8219 O   0  0  0  0  0  0  0  0  0  0  0  0
   15.6103   -3.9206   -8.7209 C   0  0  0  0  0  0  0  0  0  0  0  0
   16.4675   -4.0964   -9.9515 C   0  0  2  0  0  0  0  0  0  0  0  0
   17.7074   -4.7813   -9.6598 N   0  0  0  0  0  0  0  0  0  0  0  0
   16.7359   -2.7989  -10.6040 C   0  0  0  0  0  0  0  0  0  0  0  0
   15.7977   -2.1486  -11.1091 O   0  0  0  0  0  0  0  0  0  0  0  0
   18.0260   -2.3167  -10.6490 O   0  0  0  0  0  0  0  0  0  0  0  0
  1  2  1  0
  2  3  1  0
  3  5  1  0
  3  4  1  1
  5  6  2  0
  7 11  1  0
  7  5  1  0
  8  7  1  0
  9  8  1  0
  9 10  1  0
 10 11  1  0
 11 12  1  6
 12 13  2  0
 12 16  1  0
 15 14  1  1
 15 17  1  0
 16 15  1  0
 17 18  2  0
 17 19  1  0
M  END
$$$$
