SPA.pdb
     RDKit          3D

 19 19  0  0  1  0  0  0  0  0999 V2000
   27.3438  -16.4789  -14.6709 O   0  0  0  0  0  0  0  0  0  0  0  0
   26.4611  -17.5545  -14.9289 C   0  0  0  0  0  0  0  0  0  0  0  0
   27.3353  -18.8195  -14.8298 C   0  0  2  0  0  0  0  0  0  0  0  0
   27.9649  -18.8869  -16.1633 N   0  0  0  0  0  0  0  0  0  0  0  0
   26.4449  -19.9781  -14.6981 C   0  0  0  0  0  0  0  0  0  0  0  0
   26.2208  -20.6814  -15.7301 O   0  0  0  0  0  0  0  0  0  0  0  0
   25.8153  -20.3614  -13.4739 N   0  0  0  0  0  0  0  0  0  0  0  0
   25.9187  -19.6172  -12.2368 C   0  0  0  0  0  0  0  0  0  0  0  0
   25.6614  -20.6295  -11.1394 C   0  0  0  0  0  0  0  0  0  0  0  0
   25.5858  -21.9777  -11.8641 C   0  0  0  0  0  0  0  0  0  0  0  0
   24.9865  -21.5042  -13.1837 C   0  0  1  0  0  0  0  0  0  0  0  0
   23.5914  -21.0332  -13.0112 C   0  0  0  0  0  0  0  0  0  0  0  0
   23.3453  -19.9646  -12.4263 O   0  0  0  0  0  0  0  0  0  0  0  0
   21.0063  -21.4341  -15.4389 C   0  0  0  0  0  0  0  0  0  0  0  0
   21.3070  -21.0816  -14.0018 C   0  0  2  0  0  0  0  0  0  0  0  0
   22.4739  -21.7747  -13.5024 N   0  0  0  0  0  0  0  0  0  0  0  0
   20.1410  -21.3428  -13.1337 C   0  0  0  0  0  0  0  0  0  0  0  0
   19.0948  -20.6771  -13.2770 O   0  0  0  0  0  0  0  0  0  0  0  0
   20.2201  -22.3238  -12.1692 O   0  0  0  0  0  0  0  0  0  0  0  0
  1  2  1  0
  2  3  1  0
  3  5  1  0
  3  4  1  6
  5  6  2  0
  7 11  1  0
  7  5  1  0
  8  7  1  0
  9  8  1  0
  9 10  1  0
 10 11  1  0
 11 12  1  1
 12 13  2  0
 12 16  1  0
 15 14  1  6
 15 17  1  0
 16 15  1  0
 17 18  2  0
 17 19  1  0
M  END
$$$$
