SPA.pdb
     RDKit          3D

 19 19  0  0  1  0  0  0  0  0999 V2000
   24.1070  -12.3716  -20.7912 O   0  0  0  0  0  0  0  0  0  0  0  0
   23.6561  -11.5523  -19.7289 C   0  0  0  0  0  0  0  0  0  0  0  0
   23.9230  -12.3730  -18.4524 C   0  0  2  0  0  0  0  0  0  0  0  0
   22.8744  -13.4107  -18.5057 N   0  0  0  0  0  0  0  0  0  0  0  0
   23.6438  -11.5161  -17.2947 C   0  0  0  0  0  0  0  0  0  0  0  0
   22.4684  -11.5194  -16.8168 O   0  0  0  0  0  0  0  0  0  0  0  0
   24.6197  -10.6779  -16.6727 N   0  0  0  0  0  0  0  0  0  0  0  0
   25.9554  -10.4625  -17.1870 C   0  0  0  0  0  0  0  0  0  0  0  0
   26.7865  -10.0632  -15.9850 C   0  0  0  0  0  0  0  0  0  0  0  0
   25.8494  -10.2467  -14.7862 C   0  0  0  0  0  0  0  0  0  0  0  0
   24.5280   -9.8997  -15.4630 C   0  0  1  0  0  0  0  0  0  0  0  0
   24.4669   -8.4665  -15.8374 C   0  0  0  0  0  0  0  0  0  0  0  0
   25.3264   -7.9628  -16.5804 O   0  0  0  0  0  0  0  0  0  0  0  0
   22.0609   -6.0862  -16.7264 C   0  0  0  0  0  0  0  0  0  0  0  0
   23.3096   -6.2621  -15.8959 C   0  0  2  0  0  0  0  0  0  0  0  0
   23.4300   -7.6033  -15.3686 N   0  0  0  0  0  0  0  0  0  0  0  0
   23.3667   -5.2708  -14.8026 C   0  0  0  0  0  0  0  0  0  0  0  0
   23.1102   -5.6181  -13.6314 O   0  0  0  0  0  0  0  0  0  0  0  0
   23.7043   -3.9656  -15.0879 O   0  0  0  0  0  0  0  0  0  0  0  0
  1  2  1  0
  2  3  1  0
  3  5  1  0
  3  4  1  6
  5  6  2  0
  7 11  1  0
  7  5  1  0
  8  7  1  0
  9  8  1  0
  9 10  1  0
 10 11  1  0
 11 12  1  6
 12 13  2  0
 12 16  1  0
 15 14  1  1
 15 17  1  0
 16 15  1  0
 17 18  2  0
 17 19  1  0
M  END
$$$$
