SPA.pdb
     RDKit          3D

 19 19  0  0  1  0  0  0  0  0999 V2000
   16.0271   -8.9599  -18.0374 O   0  0  0  0  0  0  0  0  0  0  0  0
   16.7274   -9.6221  -17.0011 C   0  0  0  0  0  0  0  0  0  0  0  0
   17.8805  -10.3600  -17.7082 C   0  0  2  0  0  0  0  0  0  0  0  0
   17.5456  -11.7802  -17.4844 N   0  0  0  0  0  0  0  0  0  0  0  0
   19.1196  -10.0735  -16.9768 C   0  0  0  0  0  0  0  0  0  0  0  0
   19.4253  -10.8232  -15.9998 O   0  0  0  0  0  0  0  0  0  0  0  0
   20.0036   -8.9987  -17.3013 N   0  0  0  0  0  0  0  0  0  0  0  0
   19.7530   -8.0234  -18.3409 C   0  0  0  0  0  0  0  0  0  0  0  0
   21.1196   -7.5067  -18.7414 C   0  0  0  0  0  0  0  0  0  0  0  0
   22.1093   -8.3889  -17.9727 C   0  0  0  0  0  0  0  0  0  0  0  0
   21.2756   -8.6465  -16.7225 C   0  0  1  0  0  0  0  0  0  0  0  0
   21.0949   -7.4109  -15.9233 C   0  0  0  0  0  0  0  0  0  0  0  0
   20.2890   -6.5333  -16.2767 O   0  0  0  0  0  0  0  0  0  0  0  0
   21.5368   -6.6773  -12.3363 C   0  0  0  0  0  0  0  0  0  0  0  0
   21.3459   -6.2062  -13.7581 C   0  0  2  0  0  0  0  0  0  0  0  0
   21.8290   -7.1700  -14.7220 N   0  0  0  0  0  0  0  0  0  0  0  0
   21.9868   -4.8935  -13.9754 C   0  0  0  0  0  0  0  0  0  0  0  0
   21.5830   -3.8909  -13.3508 O   0  0  0  0  0  0  0  0  0  0  0  0
   23.0296   -4.7880  -14.8700 O   0  0  0  0  0  0  0  0  0  0  0  0
  1  2  1  0
  2  3  1  0
  3  5  1  0
  3  4  1  1
  5  6  2  0
  7 11  1  0
  7  5  1  0
  8  7  1  0
  9  8  1  0
  9 10  1  0
 10 11  1  0
 11 12  1  1
 12 13  2  0
 12 16  1  0
 15 14  1  1
 15 17  1  0
 16 15  1  0
 17 18  2  0
 17 19  1  0
M  END
$$$$
