QSL.pdb
     RDKit          3D

 24 23  0  0  1  0  0  0  0  0999 V2000
    5.6617  -22.3614   23.8572 N   0  0  0  0  0  0  0  0  0  0  0  0
    7.0615  -22.0707   23.6787 C   0  0  0  0  0  0  0  0  0  0  0  0
    7.8307  -22.5465   24.5378 O   0  0  0  0  0  0  0  0  0  0  0  0
    7.4394  -21.2504   22.5158 C   0  0  0  0  0  0  0  0  0  0  0  0
    7.2736  -19.7966   22.8339 C   0  0  0  0  0  0  0  0  0  0  0  0
    7.0954  -18.9590   21.5944 C   0  0  2  0  0  0  0  0  0  0  0  0
    7.6077  -19.8337   20.4971 N   0  0  0  0  0  0  0  0  0  0  0  0
    7.9078  -17.7453   21.5503 C   0  0  0  0  0  0  0  0  0  0  0  0
    9.1859  -17.8201   21.5102 O   0  0  0  0  0  0  0  0  0  0  0  0
    6.2770  -13.9890   21.2292 O   0  0  0  0  0  0  0  0  0  0  0  0
    7.5798  -14.1480   20.7999 C   0  0  0  0  0  0  0  0  0  0  0  0
    8.2983  -15.2480   21.5692 C   0  0  2  0  0  0  0  0  0  0  0  0
    7.4221  -16.4032   21.5434 N   0  0  0  0  0  0  0  0  0  0  0  0
    8.4868  -14.7383   22.9580 C   0  0  0  0  0  0  0  0  0  0  0  0
    8.3690  -13.5000   23.1435 O   0  0  0  0  0  0  0  0  0  0  0  0
    5.8051  -12.9378   26.0047 C   0  0  0  0  0  0  0  0  0  0  0  0
    7.3046  -13.0939   25.5548 C   0  0  1  0  0  0  0  0  0  0  0  0
    8.0003  -11.9970   26.2845 C   0  0  0  0  0  0  0  0  0  0  0  0
    7.6554  -14.4831   25.8616 C   0  0  0  0  0  0  0  0  0  0  0  0
    8.9751  -15.0276   25.4404 C   0  0  2  0  0  0  0  0  0  0  0  0
    8.7843  -15.5587   24.0513 N   0  0  0  0  0  0  0  0  0  0  0  0
    9.3847  -16.1947   26.2133 C   0  0  0  0  0  0  0  0  0  0  0  0
    9.0952  -17.3703   25.7936 O   0  0  0  0  0  0  0  0  0  0  0  0
   10.0811  -16.1507   27.3853 O   0  0  0  0  0  0  0  0  0  0  0  0
  2  1  1  0
  2  3  2  0
  4  2  1  0
  5  4  1  0
  6  5  1  0
  6  7  1  6
  8  6  1  0
  9  8  2  0
 10 11  1  0
 12 11  1  6
 12 13  1  0
 13  8  1  0
 14 12  1  0
 15 14  2  0
 17 16  1  1
 18 17  1  0
 19 17  1  0
 20 19  1  1
 20 21  1  0
 21 14  1  0
 22 20  1  0
 22 24  1  0
 23 22  2  0
M  END
$$$$
