QSL.pdb
     RDKit          3D

 24 23  0  0  1  0  0  0  0  0999 V2000
   10.1369  -21.0876   25.1241 N   0  0  0  0  0  0  0  0  0  0  0  0
   11.1482  -20.1251   24.7684 C   0  0  0  0  0  0  0  0  0  0  0  0
   12.1239  -20.0489   25.5421 O   0  0  0  0  0  0  0  0  0  0  0  0
   10.9315  -19.3366   23.5440 C   0  0  0  0  0  0  0  0  0  0  0  0
    9.6189  -19.6999   22.9217 C   0  0  0  0  0  0  0  0  0  0  0  0
    9.3553  -18.9270   21.6557 C   0  0  2  0  0  0  0  0  0  0  0  0
   10.5042  -19.2889   20.7721 N   0  0  0  0  0  0  0  0  0  0  0  0
    9.4047  -17.4739   21.8006 C   0  0  0  0  0  0  0  0  0  0  0  0
   10.5272  -16.8727   21.9393 O   0  0  0  0  0  0  0  0  0  0  0  0
    6.0401  -15.1591   22.0928 O   0  0  0  0  0  0  0  0  0  0  0  0
    7.0711  -14.5863   21.3746 C   0  0  0  0  0  0  0  0  0  0  0  0
    8.4263  -15.1433   21.7887 C   0  0  2  0  0  0  0  0  0  0  0  0
    8.2867  -16.5867   21.8043 N   0  0  0  0  0  0  0  0  0  0  0  0
    8.7040  -14.6083   23.1529 C   0  0  0  0  0  0  0  0  0  0  0  0
    9.0644  -13.4068   23.2436 O   0  0  0  0  0  0  0  0  0  0  0  0
    6.0519  -12.3512   26.3724 C   0  0  0  0  0  0  0  0  0  0  0  0
    7.4442  -12.7280   25.7438 C   0  0  1  0  0  0  0  0  0  0  0  0
    8.3522  -11.6611   26.2506 C   0  0  0  0  0  0  0  0  0  0  0  0
    7.6857  -14.1155   26.1482 C   0  0  0  0  0  0  0  0  0  0  0  0
    8.9089  -14.8241   25.6819 C   0  0  2  0  0  0  0  0  0  0  0  0
    8.5850  -15.3667   24.3222 N   0  0  0  0  0  0  0  0  0  0  0  0
    9.2187  -16.0098   26.4726 C   0  0  0  0  0  0  0  0  0  0  0  0
    8.7261  -17.1446   26.1388 O   0  0  0  0  0  0  0  0  0  0  0  0
   10.0217  -16.0259   27.5751 O   0  0  0  0  0  0  0  0  0  0  0  0
  2  1  1  0
  2  3  2  0
  4  2  1  0
  5  4  1  0
  6  5  1  0
  6  7  1  6
  8  6  1  0
  9  8  2  0
 10 11  1  0
 12 11  1  1
 12 13  1  0
 13  8  1  0
 14 12  1  0
 15 14  2  0
 17 16  1  1
 18 17  1  0
 19 17  1  0
 20 19  1  1
 20 21  1  0
 21 14  1  0
 22 20  1  0
 22 24  1  0
 23 22  2  0
M  END
$$$$
