QSL.pdb
     RDKit          3D

 24 23  0  0  1  0  0  0  0  0999 V2000
   10.9603  -12.8875   19.0876 N   0  0  0  0  0  0  0  0  0  0  0  0
   10.1637  -12.9100   17.8873 C   0  0  0  0  0  0  0  0  0  0  0  0
   10.7708  -13.1961   16.8357 O   0  0  0  0  0  0  0  0  0  0  0  0
    8.7313  -12.5957   18.0195 C   0  0  0  0  0  0  0  0  0  0  0  0
    8.1879  -13.1863   19.2837 C   0  0  0  0  0  0  0  0  0  0  0  0
    8.5255  -14.6481   19.4207 C   0  0  2  0  0  0  0  0  0  0  0  0
    7.7457  -15.2977   18.3246 N   0  0  0  0  0  0  0  0  0  0  0  0
    8.0678  -15.2714   20.6605 C   0  0  0  0  0  0  0  0  0  0  0  0
    6.8604  -15.1156   21.0588 O   0  0  0  0  0  0  0  0  0  0  0  0
   10.0158  -18.2821   22.5948 O   0  0  0  0  0  0  0  0  0  0  0  0
    8.6912  -18.0324   22.8947 C   0  0  0  0  0  0  0  0  0  0  0  0
    8.3655  -16.5468   22.8224 C   0  0  2  0  0  0  0  0  0  0  0  0
    8.8484  -16.0854   21.5352 N   0  0  0  0  0  0  0  0  0  0  0  0
    9.1020  -15.8977   23.9451 C   0  0  0  0  0  0  0  0  0  0  0  0
   10.2836  -15.5261   23.7270 O   0  0  0  0  0  0  0  0  0  0  0  0
    6.9732  -12.4236   27.7490 C   0  0  0  0  0  0  0  0  0  0  0  0
    7.1961  -13.6922   26.8456 C   0  0  1  0  0  0  0  0  0  0  0  0
    6.2696  -13.4681   25.7005 C   0  0  0  0  0  0  0  0  0  0  0  0
    8.6387  -13.7350   26.5921 C   0  0  0  0  0  0  0  0  0  0  0  0
    9.3102  -15.0379   26.3329 C   0  0  2  0  0  0  0  0  0  0  0  0
    8.5511  -15.6841   25.2130 N   0  0  0  0  0  0  0  0  0  0  0  0
    9.1786  -15.9785   27.4398 C   0  0  0  0  0  0  0  0  0  0  0  0
    8.4278  -17.0091   27.3140 O   0  0  0  0  0  0  0  0  0  0  0  0
    9.8110  -15.8629   28.6427 O   0  0  0  0  0  0  0  0  0  0  0  0
  2  1  1  0
  2  3  2  0
  4  2  1  0
  5  4  1  0
  6  5  1  0
  6  7  1  6
  8  6  1  0
  9  8  2  0
 10 11  1  0
 12 11  1  6
 12 13  1  0
 13  8  1  0
 14 12  1  0
 15 14  2  0
 17 16  1  1
 18 17  1  0
 19 17  1  0
 20 19  1  1
 20 21  1  0
 21 14  1  0
 22 20  1  0
 22 24  1  0
 23 22  2  0
M  END
$$$$
