QSL.pdb
     RDKit          3D

 24 23  0  0  1  0  0  0  0  0999 V2000
    7.0147  -12.8792   17.9050 N   0  0  0  0  0  0  0  0  0  0  0  0
    8.0397  -13.6522   17.2511 C   0  0  0  0  0  0  0  0  0  0  0  0
    7.9060  -13.8038   16.0200 O   0  0  0  0  0  0  0  0  0  0  0  0
    9.1281  -14.1806   18.0903 C   0  0  0  0  0  0  0  0  0  0  0  0
    8.8513  -13.8959   19.5341 C   0  0  0  0  0  0  0  0  0  0  0  0
    9.9816  -14.3347   20.4282 C   0  0  2  0  0  0  0  0  0  0  0  0
   10.8137  -15.2082   19.5471 N   0  0  0  0  0  0  0  0  0  0  0  0
    9.5830  -15.1708   21.5582 C   0  0  0  0  0  0  0  0  0  0  0  0
    8.7299  -14.7440   22.4131 O   0  0  0  0  0  0  0  0  0  0  0  0
   11.6401  -18.5877   22.7132 O   0  0  0  0  0  0  0  0  0  0  0  0
   10.2717  -18.6103   22.8966 C   0  0  0  0  0  0  0  0  0  0  0  0
    9.6985  -17.2081   23.0499 C   0  0  2  0  0  0  0  0  0  0  0  0
   10.0546  -16.4875   21.8429 N   0  0  0  0  0  0  0  0  0  0  0  0
   10.3518  -16.6138   24.2517 C   0  0  0  0  0  0  0  0  0  0  0  0
   11.2083  -15.7127   24.0617 O   0  0  0  0  0  0  0  0  0  0  0  0
   10.9350  -13.4089   27.9177 C   0  0  0  0  0  0  0  0  0  0  0  0
    9.6726  -14.3089   28.1850 C   0  0  1  0  0  0  0  0  0  0  0  0
    8.5961  -13.3187   28.4689 C   0  0  0  0  0  0  0  0  0  0  0  0
    9.5536  -15.1654   27.0021 C   0  0  0  0  0  0  0  0  0  0  0  0
   10.5478  -16.2473   26.7640 C   0  0  2  0  0  0  0  0  0  0  0  0
   10.0631  -17.0039   25.5637 N   0  0  0  0  0  0  0  0  0  0  0  0
   10.5712  -17.2457   27.8270 C   0  0  0  0  0  0  0  0  0  0  0  0
    9.6961  -18.1816   27.8412 O   0  0  0  0  0  0  0  0  0  0  0  0
   11.4783  -17.2820   28.8450 O   0  0  0  0  0  0  0  0  0  0  0  0
  2  1  1  0
  2  3  2  0
  4  2  1  0
  5  4  1  0
  6  5  1  0
  6  7  1  6
  8  6  1  0
  9  8  2  0
 10 11  1  0
 12 11  1  6
 12 13  1  0
 13  8  1  0
 14 12  1  0
 15 14  2  0
 17 16  1  6
 18 17  1  0
 19 17  1  0
 20 19  1  1
 20 21  1  0
 21 14  1  0
 22 20  1  0
 22 24  1  0
 23 22  2  0
M  END
$$$$
