QSL.pdb
     RDKit          3D

 24 23  0  0  1  0  0  0  0  0999 V2000
    8.0232  -12.6524   16.8592 N   0  0  0  0  0  0  0  0  0  0  0  0
    8.4732  -13.8366   16.1730 C   0  0  0  0  0  0  0  0  0  0  0  0
    8.8519  -13.6734   14.9956 O   0  0  0  0  0  0  0  0  0  0  0  0
    8.4403  -15.1053   16.9196 C   0  0  0  0  0  0  0  0  0  0  0  0
    7.9137  -14.8768   18.3026 C   0  0  0  0  0  0  0  0  0  0  0  0
    8.9644  -15.1068   19.3575 C   0  0  2  0  0  0  0  0  0  0  0  0
    9.6974  -16.3147   18.8722 N   0  0  0  0  0  0  0  0  0  0  0  0
    8.4445  -15.4581   20.6771 C   0  0  0  0  0  0  0  0  0  0  0  0
    7.5343  -14.7447   21.2278 O   0  0  0  0  0  0  0  0  0  0  0  0
   10.0171  -18.4888   23.0501 O   0  0  0  0  0  0  0  0  0  0  0  0
    8.6504  -18.2974   23.1003 C   0  0  0  0  0  0  0  0  0  0  0  0
    8.2685  -16.8603   22.7727 C   0  0  2  0  0  0  0  0  0  0  0  0
    8.8495  -16.5690   21.4764 N   0  0  0  0  0  0  0  0  0  0  0  0
    8.8674  -16.0099   23.8416 C   0  0  0  0  0  0  0  0  0  0  0  0
   10.0346  -15.5800   23.6562 O   0  0  0  0  0  0  0  0  0  0  0  0
    5.9290  -12.2537   26.5721 C   0  0  0  0  0  0  0  0  0  0  0  0
    7.1070  -12.8657   25.7277 C   0  0  1  0  0  0  0  0  0  0  0  0
    7.9484  -11.6810   25.3988 C   0  0  0  0  0  0  0  0  0  0  0  0
    7.6720  -13.9251   26.5676 C   0  0  0  0  0  0  0  0  0  0  0  0
    8.7950  -14.7589   26.0583 C   0  0  2  0  0  0  0  0  0  0  0  0
    8.2038  -15.6708   25.0254 N   0  0  0  0  0  0  0  0  0  0  0  0
    9.3353  -15.6658   27.0647 C   0  0  0  0  0  0  0  0  0  0  0  0
    8.9362  -16.8827   27.1055 O   0  0  0  0  0  0  0  0  0  0  0  0
   10.2686  -15.3281   28.0003 O   0  0  0  0  0  0  0  0  0  0  0  0
  2  1  1  0
  2  3  2  0
  4  2  1  0
  5  4  1  0
  6  5  1  0
  6  7  1  6
  8  6  1  0
  9  8  2  0
 10 11  1  0
 12 11  1  1
 12 13  1  0
 13  8  1  0
 14 12  1  0
 15 14  2  0
 17 16  1  1
 18 17  1  0
 19 17  1  0
 20 19  1  1
 20 21  1  0
 21 14  1  0
 22 20  1  0
 22 24  1  0
 23 22  2  0
M  END
$$$$
