QSL.pdb
     RDKit          3D

 24 23  0  0  1  0  0  0  0  0999 V2000
    7.5457  -12.7026   16.2899 N   0  0  0  0  0  0  0  0  0  0  0  0
    8.0672  -13.9928   15.9168 C   0  0  0  0  0  0  0  0  0  0  0  0
    7.8731  -14.3375   14.7336 O   0  0  0  0  0  0  0  0  0  0  0  0
    8.7668  -14.7664   16.9560 C   0  0  0  0  0  0  0  0  0  0  0  0
    8.6477  -14.0776   18.2803 C   0  0  0  0  0  0  0  0  0  0  0  0
    9.4072  -14.7949   19.3658 C   0  0  2  0  0  0  0  0  0  0  0  0
    9.6179  -16.1644   18.8074 N   0  0  0  0  0  0  0  0  0  0  0  0
    8.6690  -14.9809   20.6129 C   0  0  0  0  0  0  0  0  0  0  0  0
    8.1987  -13.9717   21.2463 O   0  0  0  0  0  0  0  0  0  0  0  0
    8.7051  -18.4193   22.9296 O   0  0  0  0  0  0  0  0  0  0  0  0
    7.4732  -17.8169   22.7665 C   0  0  0  0  0  0  0  0  0  0  0  0
    7.6062  -16.3299   22.4676 C   0  0  2  0  0  0  0  0  0  0  0  0
    8.3877  -16.2266   21.2505 N   0  0  0  0  0  0  0  0  0  0  0  0
    8.3239  -15.7282   23.6284 C   0  0  0  0  0  0  0  0  0  0  0  0
    9.5711  -15.5960   23.5353 O   0  0  0  0  0  0  0  0  0  0  0  0
    5.7852  -11.9143   26.6992 C   0  0  0  0  0  0  0  0  0  0  0  0
    6.8806  -12.5592   25.7721 C   0  0  1  0  0  0  0  0  0  0  0  0
    7.7807  -11.4154   25.4536 C   0  0  0  0  0  0  0  0  0  0  0  0
    7.4144  -13.6895   26.5366 C   0  0  0  0  0  0  0  0  0  0  0  0
    8.4070  -14.6069   25.9131 C   0  0  2  0  0  0  0  0  0  0  0  0
    7.6869  -15.3088   24.8010 N   0  0  0  0  0  0  0  0  0  0  0  0
    8.8251  -15.6854   26.8015 C   0  0  0  0  0  0  0  0  0  0  0  0
    8.2334  -16.8206   26.7475 O   0  0  0  0  0  0  0  0  0  0  0  0
    9.8324  -15.5974   27.7170 O   0  0  0  0  0  0  0  0  0  0  0  0
  2  1  1  0
  2  3  2  0
  4  2  1  0
  5  4  1  0
  6  5  1  0
  6  7  1  6
  8  6  1  0
  9  8  2  0
 10 11  1  0
 12 11  1  1
 12 13  1  0
 13  8  1  0
 14 12  1  0
 15 14  2  0
 17 16  1  1
 18 17  1  0
 19 17  1  0
 20 19  1  1
 20 21  1  0
 21 14  1  0
 22 20  1  0
 22 24  1  0
 23 22  2  0
M  END
$$$$
