QSL.pdb
     RDKit          3D

 24 23  0  0  1  0  0  0  0  0999 V2000
    7.4086  -12.8294   16.4837 N   0  0  0  0  0  0  0  0  0  0  0  0
    8.1980  -13.9512   16.0430 C   0  0  0  0  0  0  0  0  0  0  0  0
    8.2844  -14.1050   14.8080 O   0  0  0  0  0  0  0  0  0  0  0  0
    8.8150  -14.7941   17.0807 C   0  0  0  0  0  0  0  0  0  0  0  0
    8.3916  -14.3315   18.4405 C   0  0  0  0  0  0  0  0  0  0  0  0
    9.3470  -14.7769   19.5168 C   0  0  2  0  0  0  0  0  0  0  0  0
    9.9088  -16.0557   18.9871 N   0  0  0  0  0  0  0  0  0  0  0  0
    8.7215  -15.1137   20.7936 C   0  0  0  0  0  0  0  0  0  0  0  0
    7.9878  -14.2587   21.4032 O   0  0  0  0  0  0  0  0  0  0  0  0
    9.7166  -18.4218   23.1078 O   0  0  0  0  0  0  0  0  0  0  0  0
    8.3764  -18.0944   23.0475 C   0  0  0  0  0  0  0  0  0  0  0  0
    8.1685  -16.6157   22.7500 C   0  0  2  0  0  0  0  0  0  0  0  0
    8.8322  -16.3564   21.4869 N   0  0  0  0  0  0  0  0  0  0  0  0
    8.8115  -15.8656   23.8672 C   0  0  0  0  0  0  0  0  0  0  0  0
   10.0405  -15.6172   23.7688 O   0  0  0  0  0  0  0  0  0  0  0  0
    6.0025  -12.1578   26.9176 C   0  0  0  0  0  0  0  0  0  0  0  0
    7.1346  -12.7307   25.9872 C   0  0  1  0  0  0  0  0  0  0  0  0
    7.9701  -11.5352   25.6832 C   0  0  0  0  0  0  0  0  0  0  0  0
    7.7289  -13.8374   26.7418 C   0  0  0  0  0  0  0  0  0  0  0  0
    8.7882  -14.6778   26.1195 C   0  0  2  0  0  0  0  0  0  0  0  0
    8.1245  -15.4299   25.0051 N   0  0  0  0  0  0  0  0  0  0  0  0
    9.2831  -15.7235   27.0077 C   0  0  0  0  0  0  0  0  0  0  0  0
    8.7787  -16.8999   26.9497 O   0  0  0  0  0  0  0  0  0  0  0  0
   10.2777  -15.5617   27.9270 O   0  0  0  0  0  0  0  0  0  0  0  0
  2  1  1  0
  2  3  2  0
  4  2  1  0
  5  4  1  0
  6  5  1  0
  6  7  1  6
  8  6  1  0
  9  8  2  0
 10 11  1  0
 12 11  1  1
 12 13  1  0
 13  8  1  0
 14 12  1  0
 15 14  2  0
 17 16  1  1
 18 17  1  0
 19 17  1  0
 20 19  1  1
 20 21  1  0
 21 14  1  0
 22 20  1  0
 22 24  1  0
 23 22  2  0
M  END
$$$$
