QSL.pdb
     RDKit          3D

 24 23  0  0  1  0  0  0  0  0999 V2000
    6.7796  -14.4841   15.7346 N   0  0  0  0  0  0  0  0  0  0  0  0
    8.1833  -14.1864   15.6052 C   0  0  0  0  0  0  0  0  0  0  0  0
    8.6480  -14.2437   14.4488 O   0  0  0  0  0  0  0  0  0  0  0  0
    8.9201  -13.8500   16.8348 C   0  0  0  0  0  0  0  0  0  0  0  0
    8.0029  -13.9036   18.0171 C   0  0  0  0  0  0  0  0  0  0  0  0
    8.7218  -13.6155   19.3094 C   0  0  2  0  0  0  0  0  0  0  0  0
   10.1359  -14.0034   19.0240 N   0  0  0  0  0  0  0  0  0  0  0  0
    8.3028  -14.4371   20.4427 C   0  0  0  0  0  0  0  0  0  0  0  0
    7.1279  -14.3114   20.9372 O   0  0  0  0  0  0  0  0  0  0  0  0
   10.6854  -17.3867   22.1350 O   0  0  0  0  0  0  0  0  0  0  0  0
    9.3132  -17.5185   22.2174 C   0  0  0  0  0  0  0  0  0  0  0  0
    8.6168  -16.1652   22.2604 C   0  0  2  0  0  0  0  0  0  0  0  0
    9.0898  -15.4260   21.1060 N   0  0  0  0  0  0  0  0  0  0  0  0
    9.0380  -15.5138   23.5342 C   0  0  0  0  0  0  0  0  0  0  0  0
   10.1495  -14.9255   23.5463 O   0  0  0  0  0  0  0  0  0  0  0  0
    5.6968  -12.4870   26.4727 C   0  0  0  0  0  0  0  0  0  0  0  0
    7.0445  -12.8872   25.7664 C   0  0  1  0  0  0  0  0  0  0  0  0
    7.8688  -11.6504   25.8686 C   0  0  0  0  0  0  0  0  0  0  0  0
    7.4953  -14.0985   26.4568 C   0  0  0  0  0  0  0  0  0  0  0  0
    8.6918  -14.8341   25.9638 C   0  0  2  0  0  0  0  0  0  0  0  0
    8.2678  -15.5241   24.7019 N   0  0  0  0  0  0  0  0  0  0  0  0
    9.0960  -15.9235   26.8453 C   0  0  0  0  0  0  0  0  0  0  0  0
    8.7196  -17.1216   26.5911 O   0  0  0  0  0  0  0  0  0  0  0  0
    9.8744  -15.7817   27.9563 O   0  0  0  0  0  0  0  0  0  0  0  0
  2  1  1  0
  2  3  2  0
  4  2  1  0
  5  4  1  0
  6  5  1  0
  6  7  1  6
  8  6  1  0
  9  8  2  0
 10 11  1  0
 12 11  1  6
 12 13  1  0
 13  8  1  0
 14 12  1  0
 15 14  2  0
 17 16  1  1
 18 17  1  0
 19 17  1  0
 20 19  1  1
 20 21  1  0
 21 14  1  0
 22 20  1  0
 22 24  1  0
 23 22  2  0
M  END
$$$$
