QSL.pdb
     RDKit          3D

 24 23  0  0  1  0  0  0  0  0999 V2000
   14.3333  -14.9359   18.4945 N   0  0  0  0  0  0  0  0  0  0  0  0
   13.3929  -14.3153   19.3924 C   0  0  0  0  0  0  0  0  0  0  0  0
   13.8793  -13.5407   20.2407 O   0  0  0  0  0  0  0  0  0  0  0  0
   11.9701  -14.6542   19.2225 C   0  0  0  0  0  0  0  0  0  0  0  0
   11.7906  -16.1408   19.2174 C   0  0  0  0  0  0  0  0  0  0  0  0
   10.3393  -16.5391   19.1470 C   0  0  2  0  0  0  0  0  0  0  0  0
    9.7845  -15.6721   18.0643 N   0  0  0  0  0  0  0  0  0  0  0  0
    9.5587  -16.2329   20.3436 C   0  0  0  0  0  0  0  0  0  0  0  0
    8.8515  -15.1666   20.4027 O   0  0  0  0  0  0  0  0  0  0  0  0
    9.1926  -18.9492   23.4053 O   0  0  0  0  0  0  0  0  0  0  0  0
    8.0854  -18.2014   23.0561 C   0  0  0  0  0  0  0  0  0  0  0  0
    8.4736  -16.8189   22.5500 C   0  0  2  0  0  0  0  0  0  0  0  0
    9.4805  -17.0266   21.5273 N   0  0  0  0  0  0  0  0  0  0  0  0
    9.0304  -16.0815   23.7207 C   0  0  0  0  0  0  0  0  0  0  0  0
   10.2810  -15.9712   23.7967 O   0  0  0  0  0  0  0  0  0  0  0  0
    5.8454  -12.5813   26.8496 C   0  0  0  0  0  0  0  0  0  0  0  0
    6.9803  -13.0541   25.8679 C   0  0  1  0  0  0  0  0  0  0  0  0
    7.7053  -11.7933   25.5449 C   0  0  0  0  0  0  0  0  0  0  0  0
    7.6908  -14.1165   26.5847 C   0  0  0  0  0  0  0  0  0  0  0  0
    8.8202  -14.8301   25.9285 C   0  0  2  0  0  0  0  0  0  0  0  0
    8.2410  -15.5132   24.7260 N   0  0  0  0  0  0  0  0  0  0  0  0
    9.3517  -15.9226   26.7354 C   0  0  0  0  0  0  0  0  0  0  0  0
    8.9000  -17.1109   26.5754 O   0  0  0  0  0  0  0  0  0  0  0  0
   10.3292  -15.7939   27.6780 O   0  0  0  0  0  0  0  0  0  0  0  0
  2  1  1  0
  2  3  2  0
  4  2  1  0
  5  4  1  0
  6  5  1  0
  6  7  1  6
  8  6  1  0
  9  8  2  0
 10 11  1  0
 12 11  1  1
 12 13  1  0
 13  8  1  0
 14 12  1  0
 15 14  2  0
 17 16  1  1
 18 17  1  0
 19 17  1  0
 20 19  1  1
 20 21  1  0
 21 14  1  0
 22 20  1  0
 22 24  1  0
 23 22  2  0
M  END
$$$$
