QSL.pdb
     RDKit          3D

 24 23  0  0  1  0  0  0  0  0999 V2000
    7.4748  -20.5343   20.9430 N   0  0  0  0  0  0  0  0  0  0  0  0
    7.6720  -20.1155   19.5786 C   0  0  0  0  0  0  0  0  0  0  0  0
    7.2381  -20.8907   18.7027 O   0  0  0  0  0  0  0  0  0  0  0  0
    8.3584  -18.8319   19.3570 C   0  0  0  0  0  0  0  0  0  0  0  0
    8.5562  -18.1206   20.6598 C   0  0  0  0  0  0  0  0  0  0  0  0
    9.0755  -16.7191   20.4706 C   0  0  2  0  0  0  0  0  0  0  0  0
   10.2471  -16.8936   19.5604 N   0  0  0  0  0  0  0  0  0  0  0  0
    9.5995  -16.0889   21.6802 C   0  0  0  0  0  0  0  0  0  0  0  0
   10.8261  -16.2447   22.0148 O   0  0  0  0  0  0  0  0  0  0  0  0
    7.1350  -14.3272   24.5113 O   0  0  0  0  0  0  0  0  0  0  0  0
    8.4182  -13.8238   24.4275 C   0  0  0  0  0  0  0  0  0  0  0  0
    9.3946  -14.8537   23.8760 C   0  0  2  0  0  0  0  0  0  0  0  0
    8.8678  -15.2678   22.5900 N   0  0  0  0  0  0  0  0  0  0  0  0
    9.4095  -15.9847   24.8482 C   0  0  0  0  0  0  0  0  0  0  0  0
    8.6637  -16.9682   24.6068 O   0  0  0  0  0  0  0  0  0  0  0  0
   10.7653  -20.3116   26.7077 C   0  0  0  0  0  0  0  0  0  0  0  0
   11.8481  -19.2335   27.0827 C   0  0  1  0  0  0  0  0  0  0  0  0
   13.1322  -19.8868   26.7033 C   0  0  0  0  0  0  0  0  0  0  0  0
   11.4376  -18.0155   26.3791 C   0  0  0  0  0  0  0  0  0  0  0  0
   10.3033  -17.2031   26.8978 C   0  0  2  0  0  0  0  0  0  0  0  0
   10.2017  -16.0059   26.0008 N   0  0  0  0  0  0  0  0  0  0  0  0
   10.5621  -16.6372   28.2169 C   0  0  0  0  0  0  0  0  0  0  0  0
   10.2967  -17.3219   29.2669 O   0  0  0  0  0  0  0  0  0  0  0  0
   11.0878  -15.3998   28.4468 O   0  0  0  0  0  0  0  0  0  0  0  0
  2  1  1  0
  2  3  2  0
  4  2  1  0
  5  4  1  0
  6  5  1  0
  6  7  1  6
  8  6  1  0
  9  8  2  0
 10 11  1  0
 12 11  1  1
 12 13  1  0
 13  8  1  0
 14 12  1  0
 15 14  2  0
 17 16  1  6
 18 17  1  0
 19 17  1  0
 20 19  1  6
 20 21  1  0
 21 14  1  0
 22 20  1  0
 22 24  1  0
 23 22  2  0
M  END
$$$$
