QSL.pdb
     RDKit          3D

 24 23  0  0  1  0  0  0  0  0999 V2000
   11.9559  -23.9795   24.0353 N   0  0  0  0  0  0  0  0  0  0  0  0
   12.0031  -22.5435   24.1422 C   0  0  0  0  0  0  0  0  0  0  0  0
   12.9813  -22.0749   24.7586 O   0  0  0  0  0  0  0  0  0  0  0  0
   10.9056  -21.7822   23.5227 C   0  0  0  0  0  0  0  0  0  0  0  0
   11.0251  -20.3302   23.8686 C   0  0  0  0  0  0  0  0  0  0  0  0
   10.7440  -19.4382   22.6874 C   0  0  2  0  0  0  0  0  0  0  0  0
   11.9596  -19.5871   21.8318 N   0  0  0  0  0  0  0  0  0  0  0  0
   10.6480  -18.0143   23.0010 C   0  0  0  0  0  0  0  0  0  0  0  0
   11.6177  -17.4097   23.5796 O   0  0  0  0  0  0  0  0  0  0  0  0
    7.6379  -15.5445   21.6268 O   0  0  0  0  0  0  0  0  0  0  0  0
    8.8449  -14.9970   22.0146 C   0  0  0  0  0  0  0  0  0  0  0  0
    9.4791  -15.7786   23.1571 C   0  0  2  0  0  0  0  0  0  0  0  0
    9.5385  -17.1608   22.7223 N   0  0  0  0  0  0  0  0  0  0  0  0
    8.5761  -15.6158   24.3328 C   0  0  0  0  0  0  0  0  0  0  0  0
    7.7610  -16.5432   24.5722 O   0  0  0  0  0  0  0  0  0  0  0  0
   10.2785  -12.9572   28.8677 C   0  0  0  0  0  0  0  0  0  0  0  0
    9.7334  -14.0975   27.9307 C   0  0  1  0  0  0  0  0  0  0  0  0
    9.6785  -15.2855   28.8281 C   0  0  0  0  0  0  0  0  0  0  0  0
    8.4843  -13.5723   27.3728 C   0  0  0  0  0  0  0  0  0  0  0  0
    7.7153  -14.3762   26.3839 C   0  0  2  0  0  0  0  0  0  0  0  0
    8.5902  -14.4970   25.1723 N   0  0  0  0  0  0  0  0  0  0  0  0
    6.5238  -13.6921   25.8944 C   0  0  0  0  0  0  0  0  0  0  0  0
    5.5100  -13.5486   26.6647 O   0  0  0  0  0  0  0  0  0  0  0  0
    6.3844  -13.1632   24.6448 O   0  0  0  0  0  0  0  0  0  0  0  0
  2  1  1  0
  2  3  2  0
  4  2  1  0
  5  4  1  0
  6  5  1  0
  6  7  1  6
  8  6  1  0
  9  8  2  0
 10 11  1  0
 12 11  1  6
 12 13  1  0
 13  8  1  0
 14 12  1  0
 15 14  2  0
 17 16  1  1
 18 17  1  0
 19 17  1  0
 20 19  1  1
 20 21  1  0
 21 14  1  0
 22 20  1  0
 22 24  1  0
 23 22  2  0
M  END
$$$$
