QSL.pdb
     RDKit          3D

 24 23  0  0  1  0  0  0  0  0999 V2000
    9.1000  -12.1568   19.2112 N   0  0  0  0  0  0  0  0  0  0  0  0
    8.9130  -12.8850   17.9821 C   0  0  0  0  0  0  0  0  0  0  0  0
    9.2852  -12.3042   16.9427 O   0  0  0  0  0  0  0  0  0  0  0  0
    8.3079  -14.2242   18.0741 C   0  0  0  0  0  0  0  0  0  0  0  0
    8.0308  -14.5682   19.5049 C   0  0  0  0  0  0  0  0  0  0  0  0
    8.3769  -15.9993   19.8241 C   0  0  2  0  0  0  0  0  0  0  0  0
    7.3444  -16.7880   19.0870 N   0  0  0  0  0  0  0  0  0  0  0  0
    8.2327  -16.3679   21.2306 C   0  0  0  0  0  0  0  0  0  0  0  0
    7.0706  -16.5378   21.7418 O   0  0  0  0  0  0  0  0  0  0  0  0
    9.8263  -18.5031   25.1831 O   0  0  0  0  0  0  0  0  0  0  0  0
    9.9300  -18.1179   23.8610 C   0  0  0  0  0  0  0  0  0  0  0  0
    9.0647  -16.9025   23.5568 C   0  0  2  0  0  0  0  0  0  0  0  0
    9.2936  -16.5775   22.1621 N   0  0  0  0  0  0  0  0  0  0  0  0
    9.5389  -15.8108   24.4553 C   0  0  0  0  0  0  0  0  0  0  0  0
   10.5879  -15.2006   24.1249 O   0  0  0  0  0  0  0  0  0  0  0  0
    6.2949  -12.6517   27.5898 C   0  0  0  0  0  0  0  0  0  0  0  0
    6.9991  -13.6660   26.6148 C   0  0  1  0  0  0  0  0  0  0  0  0
    6.2793  -13.4632   25.3263 C   0  0  0  0  0  0  0  0  0  0  0  0
    8.4262  -13.3417   26.6881 C   0  0  0  0  0  0  0  0  0  0  0  0
    9.4414  -14.4259   26.5901 C   0  0  2  0  0  0  0  0  0  0  0  0
    8.8834  -15.4361   25.6329 N   0  0  0  0  0  0  0  0  0  0  0  0
    9.6056  -15.1690   27.8343 C   0  0  0  0  0  0  0  0  0  0  0  0
   10.1139  -16.3450   27.8116 O   0  0  0  0  0  0  0  0  0  0  0  0
    9.2611  -14.7080   29.0710 O   0  0  0  0  0  0  0  0  0  0  0  0
  2  1  1  0
  2  3  2  0
  4  2  1  0
  5  4  1  0
  6  5  1  0
  6  7  1  6
  8  6  1  0
  9  8  2  0
 10 11  1  0
 12 11  1  1
 12 13  1  0
 13  8  1  0
 14 12  1  0
 15 14  2  0
 17 16  1  1
 18 17  1  0
 19 17  1  0
 20 19  1  1
 20 21  1  0
 21 14  1  0
 22 20  1  0
 22 24  1  0
 23 22  2  0
M  END
$$$$
