QSL.pdb
     RDKit          3D

 24 23  0  0  1  0  0  0  0  0999 V2000
   10.8118  -13.0288   18.8396 N   0  0  0  0  0  0  0  0  0  0  0  0
   12.1055  -13.6398   18.6699 C   0  0  0  0  0  0  0  0  0  0  0  0
   12.9959  -12.9071   18.1938 O   0  0  0  0  0  0  0  0  0  0  0  0
   12.2456  -15.0502   19.0688 C   0  0  0  0  0  0  0  0  0  0  0  0
   11.0624  -15.4767   19.8815 C   0  0  0  0  0  0  0  0  0  0  0  0
   11.1671  -16.9108   20.3310 C   0  0  2  0  0  0  0  0  0  0  0  0
   10.5127  -17.6779   19.2287 N   0  0  0  0  0  0  0  0  0  0  0  0
   10.4158  -17.2321   21.5423 C   0  0  0  0  0  0  0  0  0  0  0  0
    9.1990  -17.6253   21.4670 O   0  0  0  0  0  0  0  0  0  0  0  0
   11.0824  -19.7002   23.9479 O   0  0  0  0  0  0  0  0  0  0  0  0
    9.8831  -19.0159   23.9688 C   0  0  0  0  0  0  0  0  0  0  0  0
   10.0930  -17.5092   24.0339 C   0  0  2  0  0  0  0  0  0  0  0  0
   10.9021  -17.1598   22.8822 N   0  0  0  0  0  0  0  0  0  0  0  0
   10.8160  -17.2382   25.3098 C   0  0  0  0  0  0  0  0  0  0  0  0
   12.0694  -17.3422   25.3010 O   0  0  0  0  0  0  0  0  0  0  0  0
    8.6005  -13.7255   28.9099 C   0  0  0  0  0  0  0  0  0  0  0  0
    9.6190  -14.3588   27.8916 C   0  0  1  0  0  0  0  0  0  0  0  0
   10.6091  -13.2679   27.6695 C   0  0  0  0  0  0  0  0  0  0  0  0
   10.0662  -15.6047   28.5198 C   0  0  0  0  0  0  0  0  0  0  0  0
   10.9247  -16.5544   27.7604 C   0  0  2  0  0  0  0  0  0  0  0  0
   10.1777  -16.8784   26.5014 N   0  0  0  0  0  0  0  0  0  0  0  0
   11.0765  -17.8439   28.4247 C   0  0  0  0  0  0  0  0  0  0  0  0
   11.8772  -17.9581   29.4185 O   0  0  0  0  0  0  0  0  0  0  0  0
   10.4140  -18.9845   28.0775 O   0  0  0  0  0  0  0  0  0  0  0  0
  2  1  1  0
  2  3  2  0
  4  2  1  0
  5  4  1  0
  6  5  1  0
  6  7  1  6
  8  6  1  0
  9  8  2  0
 10 11  1  0
 12 11  1  6
 12 13  1  0
 13  8  1  0
 14 12  1  0
 15 14  2  0
 17 16  1  1
 18 17  1  0
 19 17  1  0
 20 19  1  1
 20 21  1  0
 21 14  1  0
 22 20  1  0
 22 24  1  0
 23 22  2  0
M  END
$$$$
