MIP.pdb
     RDKit          3D

 24 24  0  0  1  0  0  0  0  0999 V2000
   18.3513  -16.0134  -12.4131 C   0  0  0  0  0  0  0  0  0  0  0  0
   18.9930  -15.7636  -14.0941 S   0  0  0  0  0  0  0  0  0  0  0  0
   19.0057  -17.4035  -14.9074 C   0  0  0  0  0  0  0  0  0  0  0  0
   19.8253  -18.3152  -14.0290 C   0  0  0  0  0  0  0  0  0  0  0  0
   19.9763  -19.6919  -14.6477 C   0  0  2  0  0  0  0  0  0  0  0  0
   18.6978  -20.3582  -14.5438 N   0  0  0  0  0  0  0  0  0  0  0  0
   21.0119  -20.4871  -13.9412 C   0  0  0  0  0  0  0  0  0  0  0  0
   20.6646  -20.9154  -12.7856 O   0  0  0  0  0  0  0  0  0  0  0  0
   22.1517  -24.2390  -15.7240 C   0  0  0  0  0  0  0  0  0  0  0  0
   22.5223  -23.7415  -14.3213 C   0  0  0  0  0  0  0  0  0  0  0  0
   23.6636  -22.7696  -14.3865 C   0  0  2  0  0  0  0  0  0  0  0  0
   24.9059  -23.4511  -13.8949 C   0  0  0  0  0  0  0  0  0  0  0  0
   23.3233  -21.4727  -13.7528 C   0  0  2  0  0  0  0  0  0  0  0  0
   22.2857  -20.7645  -14.4767 N   0  0  0  0  0  0  0  0  0  0  0  0
   24.4213  -20.6193  -13.3171 C   0  0  0  0  0  0  0  0  0  0  0  0
   24.6313  -19.5705  -14.0374 O   0  0  0  0  0  0  0  0  0  0  0  0
   25.2933  -20.7738  -12.2209 N   0  0  0  0  0  0  0  0  0  0  0  0
   25.4146  -21.7593  -11.1777 C   0  0  0  0  0  0  0  0  0  0  0  0
   26.0565  -21.0332   -9.9968 C   0  0  0  0  0  0  0  0  0  0  0  0
   26.1896  -19.5909  -10.4558 C   0  0  0  0  0  0  0  0  0  0  0  0
   26.3884  -19.8226  -11.9425 C   0  0  1  0  0  0  0  0  0  0  0  0
   27.7065  -20.4304  -12.2413 C   0  0  0  0  0  0  0  0  0  0  0  0
   28.8879  -19.7176  -12.1757 O   0  0  0  0  0  0  0  0  0  0  0  0
   27.7617  -21.6394  -12.5676 O   0  0  0  0  0  0  0  0  0  0  0  0
  1  2  1  0
  3  2  1  0
  4  3  1  0
  5  7  1  0
  5  4  1  0
  5  6  1  1
  7  8  2  0
  9 10  1  0
 10 11  1  0
 11 12  1  1
 13 11  1  0
 13 14  1  6
 14  7  1  0
 15 16  2  0
 15 13  1  0
 17 15  1  0
 18 17  1  0
 19 18  1  0
 20 19  1  0
 20 21  1  0
 21 22  1  1
 21 17  1  0
 22 23  1  0
 24 22  2  0
M  END
$$$$
