MIP.pdb
     RDKit          3D

 24 24  0  0  1  0  0  0  0  0999 V2000
   26.5447  -28.9528  -16.7361 C   0  0  0  0  0  0  0  0  0  0  0  0
   25.5794  -27.7931  -15.7246 S   0  0  0  0  0  0  0  0  0  0  0  0
   23.9208  -27.6735  -16.4899 C   0  0  0  0  0  0  0  0  0  0  0  0
   23.1390  -26.6750  -15.6735 C   0  0  0  0  0  0  0  0  0  0  0  0
   22.6801  -25.5041  -16.5216 C   0  0  2  0  0  0  0  0  0  0  0  0
   23.8590  -24.7744  -16.9302 N   0  0  0  0  0  0  0  0  0  0  0  0
   21.7790  -24.6070  -15.7554 C   0  0  0  0  0  0  0  0  0  0  0  0
   20.7774  -25.1897  -15.2107 O   0  0  0  0  0  0  0  0  0  0  0  0
   22.0650  -19.0346  -14.6570 C   0  0  0  0  0  0  0  0  0  0  0  0
   22.6651  -20.4440  -14.7345 C   0  0  0  0  0  0  0  0  0  0  0  0
   21.8145  -21.4259  -13.9837 C   0  0  2  0  0  0  0  0  0  0  0  0
   22.6481  -22.0672  -12.9145 C   0  0  0  0  0  0  0  0  0  0  0  0
   21.0880  -22.3410  -14.8969 C   0  0  2  0  0  0  0  0  0  0  0  0
   21.9858  -23.2194  -15.6211 N   0  0  0  0  0  0  0  0  0  0  0  0
   20.0264  -21.7780  -15.7215 C   0  0  0  0  0  0  0  0  0  0  0  0
   20.3739  -21.4248  -16.9120 O   0  0  0  0  0  0  0  0  0  0  0  0
   18.6703  -21.5593  -15.4068 N   0  0  0  0  0  0  0  0  0  0  0  0
   17.8591  -21.8435  -14.2513 C   0  0  0  0  0  0  0  0  0  0  0  0
   16.4305  -21.9833  -14.7743 C   0  0  0  0  0  0  0  0  0  0  0  0
   16.5544  -21.8356  -16.2815 C   0  0  0  0  0  0  0  0  0  0  0  0
   17.7408  -20.8909  -16.3400 C   0  0  1  0  0  0  0  0  0  0  0  0
   17.3959  -19.5316  -15.8608 C   0  0  0  0  0  0  0  0  0  0  0  0
   16.5571  -18.6855  -16.5598 O   0  0  0  0  0  0  0  0  0  0  0  0
   17.8801  -19.1242  -14.7788 O   0  0  0  0  0  0  0  0  0  0  0  0
  1  2  1  0
  3  2  1  0
  4  3  1  0
  5  7  1  0
  5  4  1  0
  5  6  1  1
  7  8  2  0
  9 10  1  0
 10 11  1  0
 11 12  1  1
 13 11  1  0
 13 14  1  6
 14  7  1  0
 15 16  2  0
 15 13  1  0
 17 15  1  0
 18 17  1  0
 19 18  1  0
 20 19  1  0
 20 21  1  0
 21 22  1  1
 21 17  1  0
 22 23  1  0
 24 22  2  0
M  END
$$$$
