MIP.pdb
     RDKit          3D

 24 24  0  0  1  0  0  0  0  0999 V2000
   21.1896  -20.3502  -19.0125 C   0  0  0  0  0  0  0  0  0  0  0  0
   20.0189  -21.5281  -18.2765 S   0  0  0  0  0  0  0  0  0  0  0  0
   19.8148  -21.0485  -16.5218 C   0  0  0  0  0  0  0  0  0  0  0  0
   21.1414  -20.4923  -16.0686 C   0  0  0  0  0  0  0  0  0  0  0  0
   21.1130  -20.1204  -14.5983 C   0  0  2  0  0  0  0  0  0  0  0  0
   20.2698  -18.9546  -14.4606 N   0  0  0  0  0  0  0  0  0  0  0  0
   22.4758  -19.8123  -14.0962 C   0  0  0  0  0  0  0  0  0  0  0  0
   22.8382  -18.5927  -14.2402 O   0  0  0  0  0  0  0  0  0  0  0  0
   24.6504  -20.8040   -9.4024 C   0  0  0  0  0  0  0  0  0  0  0  0
   24.3253  -20.2452  -10.7932 C   0  0  0  0  0  0  0  0  0  0  0  0
   25.1033  -20.9696  -11.8522 C   0  0  2  0  0  0  0  0  0  0  0  0
   26.5613  -20.9084  -11.5059 C   0  0  0  0  0  0  0  0  0  0  0  0
   24.7262  -20.5271  -13.2165 C   0  0  2  0  0  0  0  0  0  0  0  0
   23.3254  -20.7676  -13.5031 N   0  0  0  0  0  0  0  0  0  0  0  0
   25.6179  -20.8749  -14.3154 C   0  0  0  0  0  0  0  0  0  0  0  0
   25.2658  -21.8989  -15.0157 O   0  0  0  0  0  0  0  0  0  0  0  0
   26.8154  -20.2556  -14.7257 N   0  0  0  0  0  0  0  0  0  0  0  0
   27.7263  -19.3359  -14.0946 C   0  0  0  0  0  0  0  0  0  0  0  0
   28.3937  -18.5684  -15.2346 C   0  0  0  0  0  0  0  0  0  0  0  0
   27.7195  -19.0843  -16.4947 C   0  0  0  0  0  0  0  0  0  0  0  0
   27.4197  -20.5042  -16.0503 C   0  0  1  0  0  0  0  0  0  0  0  0
   28.6497  -21.3216  -15.9261 C   0  0  0  0  0  0  0  0  0  0  0  0
   29.3649  -21.7631  -17.0223 O   0  0  0  0  0  0  0  0  0  0  0  0
   29.0655  -21.6298  -14.7845 O   0  0  0  0  0  0  0  0  0  0  0  0
  1  2  1  0
  3  2  1  0
  4  3  1  0
  5  7  1  0
  5  4  1  0
  5  6  1  6
  7  8  2  0
  9 10  1  0
 10 11  1  0
 11 12  1  1
 13 11  1  0
 13 14  1  6
 14  7  1  0
 15 16  2  0
 15 13  1  0
 17 15  1  0
 18 17  1  0
 19 18  1  0
 20 19  1  0
 20 21  1  0
 21 22  1  1
 21 17  1  0
 22 23  1  0
 24 22  2  0
M  END
$$$$
