MIP.pdb
     RDKit          3D

 24 24  0  0  1  0  0  0  0  0999 V2000
   25.8587  -20.6006  -20.1526 C   0  0  0  0  0  0  0  0  0  0  0  0
   24.5512  -20.8658  -18.9197 S   0  0  0  0  0  0  0  0  0  0  0  0
   25.3283  -20.6811  -17.2727 C   0  0  0  0  0  0  0  0  0  0  0  0
   26.2868  -21.8350  -17.1151 C   0  0  0  0  0  0  0  0  0  0  0  0
   26.8097  -21.9308  -15.6944 C   0  0  2  0  0  0  0  0  0  0  0  0
   27.6545  -23.1012  -15.6198 N   0  0  0  0  0  0  0  0  0  0  0  0
   25.6965  -22.0563  -14.7202 C   0  0  0  0  0  0  0  0  0  0  0  0
   25.1964  -23.2311  -14.6246 O   0  0  0  0  0  0  0  0  0  0  0  0
   26.1489  -20.9324   -9.7452 C   0  0  0  0  0  0  0  0  0  0  0  0
   25.6860  -21.4752  -11.1030 C   0  0  0  0  0  0  0  0  0  0  0  0
   24.5312  -20.6748  -11.6296 C   0  0  2  0  0  0  0  0  0  0  0  0
   23.4524  -20.6423  -10.5881 C   0  0  0  0  0  0  0  0  0  0  0  0
   24.1288  -21.1115  -12.9884 C   0  0  2  0  0  0  0  0  0  0  0  0
   25.2084  -20.9833  -13.9477 N   0  0  0  0  0  0  0  0  0  0  0  0
   22.8385  -20.6604  -13.4939 C   0  0  0  0  0  0  0  0  0  0  0  0
   22.8096  -19.4544  -13.9497 O   0  0  0  0  0  0  0  0  0  0  0  0
   21.6113  -21.3504  -13.5556 N   0  0  0  0  0  0  0  0  0  0  0  0
   21.1519  -22.6111  -13.0326 C   0  0  0  0  0  0  0  0  0  0  0  0
   20.0340  -23.0641  -13.9703 C   0  0  0  0  0  0  0  0  0  0  0  0
   19.9908  -22.0059  -15.0598 C   0  0  0  0  0  0  0  0  0  0  0  0
   20.4295  -20.7998  -14.2497 C   0  0  1  0  0  0  0  0  0  0  0  0
   19.3951  -20.3742  -13.2775 C   0  0  0  0  0  0  0  0  0  0  0  0
   18.2244  -19.7492  -13.6608 O   0  0  0  0  0  0  0  0  0  0  0  0
   19.5811  -20.5855  -12.0561 O   0  0  0  0  0  0  0  0  0  0  0  0
  1  2  1  0
  3  2  1  0
  4  3  1  0
  5  7  1  0
  5  4  1  0
  5  6  1  6
  7  8  2  0
  9 10  1  0
 10 11  1  0
 11 12  1  1
 13 11  1  0
 13 14  1  6
 14  7  1  0
 15 16  2  0
 15 13  1  0
 17 15  1  0
 18 17  1  0
 19 18  1  0
 20 19  1  0
 20 21  1  0
 21 22  1  1
 21 17  1  0
 22 23  1  0
 24 22  2  0
M  END
$$$$
