MIP.pdb
     RDKit          3D

 24 24  0  0  1  0  0  0  0  0999 V2000
   11.3332  -18.9983    7.4230 C   0  0  0  0  0  0  0  0  0  0  0  0
   10.7430  -17.2807    7.3881 S   0  0  0  0  0  0  0  0  0  0  0  0
   11.4359  -16.5112    5.8786 C   0  0  0  0  0  0  0  0  0  0  0  0
   12.9159  -16.8013    5.8858 C   0  0  0  0  0  0  0  0  0  0  0  0
   13.6261  -16.0868    4.7518 C   0  0  2  0  0  0  0  0  0  0  0  0
   13.2119  -16.7124    3.5163 N   0  0  0  0  0  0  0  0  0  0  0  0
   15.1004  -16.1891    4.8928 C   0  0  0  0  0  0  0  0  0  0  0  0
   15.6283  -17.1929    4.2986 O   0  0  0  0  0  0  0  0  0  0  0  0
   18.5216  -11.9940    4.6732 C   0  0  0  0  0  0  0  0  0  0  0  0
   17.8410  -13.3658    4.5885 C   0  0  0  0  0  0  0  0  0  0  0  0
   18.0188  -14.1272    5.8693 C   0  0  2  0  0  0  0  0  0  0  0  0
   19.4796  -14.1693    6.2062 C   0  0  0  0  0  0  0  0  0  0  0  0
   17.3059  -15.4274    5.8440 C   0  0  2  0  0  0  0  0  0  0  0  0
   15.8827  -15.2679    5.6177 N   0  0  0  0  0  0  0  0  0  0  0  0
   17.6297  -16.4012    6.8787 C   0  0  0  0  0  0  0  0  0  0  0  0
   16.8831  -16.3666    7.9295 O   0  0  0  0  0  0  0  0  0  0  0  0
   18.6453  -17.3780    6.9010 N   0  0  0  0  0  0  0  0  0  0  0  0
   19.7123  -17.7242    5.9979 C   0  0  0  0  0  0  0  0  0  0  0  0
   19.9989  -19.2041    6.2459 C   0  0  0  0  0  0  0  0  0  0  0  0
   18.9650  -19.6311    7.2741 C   0  0  0  0  0  0  0  0  0  0  0  0
   18.8089  -18.3217    8.0254 C   0  0  1  0  0  0  0  0  0  0  0  0
   20.0121  -17.9899    8.8244 C   0  0  0  0  0  0  0  0  0  0  0  0
   20.2879  -18.5869   10.0392 O   0  0  0  0  0  0  0  0  0  0  0  0
   20.8177  -17.1342    8.3887 O   0  0  0  0  0  0  0  0  0  0  0  0
  1  2  1  0
  3  2  1  0
  4  3  1  0
  5  7  1  0
  5  4  1  0
  5  6  1  6
  7  8  2  0
  9 10  1  0
 10 11  1  0
 11 12  1  6
 13 11  1  0
 13 14  1  1
 14  7  1  0
 15 16  2  0
 15 13  1  0
 17 15  1  0
 18 17  1  0
 19 18  1  0
 20 19  1  0
 20 21  1  0
 21 22  1  6
 21 17  1  0
 22 23  1  0
 24 22  2  0
M  END
$$$$
