MIP.pdb
     RDKit          3D

 24 24  0  0  1  0  0  0  0  0999 V2000
   24.8372  -17.0728  -18.2224 C   0  0  0  0  0  0  0  0  0  0  0  0
   26.3822  -16.7077  -19.1054 S   0  0  0  0  0  0  0  0  0  0  0  0
   27.6902  -17.7288  -18.3325 C   0  0  0  0  0  0  0  0  0  0  0  0
   26.9905  -18.7317  -17.4496 C   0  0  0  0  0  0  0  0  0  0  0  0
   27.9717  -19.4539  -16.5460 C   0  0  2  0  0  0  0  0  0  0  0  0
   28.7910  -20.3013  -17.3826 N   0  0  0  0  0  0  0  0  0  0  0  0
   27.2633  -20.2829  -15.5385 C   0  0  0  0  0  0  0  0  0  0  0  0
   26.8349  -21.4081  -15.9742 O   0  0  0  0  0  0  0  0  0  0  0  0
   29.0370  -21.0357  -10.6457 C   0  0  0  0  0  0  0  0  0  0  0  0
   28.3036  -21.2545  -11.9749 C   0  0  0  0  0  0  0  0  0  0  0  0
   26.9107  -20.7001  -11.9108 C   0  0  2  0  0  0  0  0  0  0  0  0
   26.1531  -21.4228  -10.8369 C   0  0  0  0  0  0  0  0  0  0  0  0
   26.2746  -20.6451  -13.2493 C   0  0  2  0  0  0  0  0  0  0  0  0
   27.0639  -19.8873  -14.2006 N   0  0  0  0  0  0  0  0  0  0  0  0
   24.8468  -20.3601  -13.3129 C   0  0  0  0  0  0  0  0  0  0  0  0
   24.5251  -19.1124  -13.2620 O   0  0  0  0  0  0  0  0  0  0  0  0
   23.7608  -21.2518  -13.4198 N   0  0  0  0  0  0  0  0  0  0  0  0
   23.6426  -22.6860  -13.3654 C   0  0  0  0  0  0  0  0  0  0  0  0
   22.4008  -23.0291  -14.1865 C   0  0  0  0  0  0  0  0  0  0  0  0
   21.9232  -21.6971  -14.7400 C   0  0  0  0  0  0  0  0  0  0  0  0
   22.3724  -20.7861  -13.6123 C   0  0  1  0  0  0  0  0  0  0  0  0
   21.5716  -20.9851  -12.3813 C   0  0  0  0  0  0  0  0  0  0  0  0
   20.2843  -20.5035  -12.2437 O   0  0  0  0  0  0  0  0  0  0  0  0
   22.0742  -21.6145  -11.4209 O   0  0  0  0  0  0  0  0  0  0  0  0
  1  2  1  0
  3  2  1  0
  4  3  1  0
  5  7  1  0
  5  4  1  0
  5  6  1  6
  7  8  2  0
  9 10  1  0
 10 11  1  0
 11 12  1  1
 13 11  1  0
 13 14  1  6
 14  7  1  0
 15 16  2  0
 15 13  1  0
 17 15  1  0
 18 17  1  0
 19 18  1  0
 20 19  1  0
 20 21  1  0
 21 22  1  1
 21 17  1  0
 22 23  1  0
 24 22  2  0
M  END
$$$$
