MIP.pdb
     RDKit          3D

 24 24  0  0  1  0  0  0  0  0999 V2000
   29.2994  -20.0508   -8.4679 C   0  0  0  0  0  0  0  0  0  0  0  0
   28.3667  -19.5636   -6.9872 S   0  0  0  0  0  0  0  0  0  0  0  0
   26.6050  -19.4698   -7.4756 C   0  0  0  0  0  0  0  0  0  0  0  0
   26.4890  -20.1627   -8.8102 C   0  0  0  0  0  0  0  0  0  0  0  0
   25.0512  -20.1999   -9.2920 C   0  0  2  0  0  0  0  0  0  0  0  0
   24.3137  -21.0598   -8.3944 N   0  0  0  0  0  0  0  0  0  0  0  0
   24.9625  -20.7300  -10.6759 C   0  0  0  0  0  0  0  0  0  0  0  0
   25.1412  -21.9936  -10.7794 O   0  0  0  0  0  0  0  0  0  0  0  0
   20.9746  -19.9478  -12.7743 C   0  0  0  0  0  0  0  0  0  0  0  0
   22.1727  -20.8874  -12.9593 C   0  0  0  0  0  0  0  0  0  0  0  0
   23.2595  -20.2143  -13.7451 C   0  0  2  0  0  0  0  0  0  0  0  0
   23.0942  -20.5644  -15.1941 C   0  0  0  0  0  0  0  0  0  0  0  0
   24.5985  -20.4515  -13.1537 C   0  0  2  0  0  0  0  0  0  0  0  0
   24.7029  -19.9283  -11.8055 N   0  0  0  0  0  0  0  0  0  0  0  0
   25.7663  -20.1773  -13.9813 C   0  0  0  0  0  0  0  0  0  0  0  0
   26.2651  -18.9937  -13.8660 O   0  0  0  0  0  0  0  0  0  0  0  0
   26.4320  -21.0183  -14.8953 N   0  0  0  0  0  0  0  0  0  0  0  0
   26.1691  -22.3395  -15.4045 C   0  0  0  0  0  0  0  0  0  0  0  0
   27.5318  -22.9110  -15.7922 C   0  0  0  0  0  0  0  0  0  0  0  0
   28.5305  -21.8423  -15.3809 C   0  0  0  0  0  0  0  0  0  0  0  0
   27.6708  -20.6088  -15.5877 C   0  0  1  0  0  0  0  0  0  0  0  0
   27.4123  -20.3428  -17.0225 C   0  0  0  0  0  0  0  0  0  0  0  0
   28.3975  -19.9131  -17.8901 O   0  0  0  0  0  0  0  0  0  0  0  0
   26.2561  -20.5116  -17.4763 O   0  0  0  0  0  0  0  0  0  0  0  0
  1  2  1  0
  3  2  1  0
  4  3  1  0
  5  7  1  0
  5  4  1  0
  5  6  1  1
  7  8  2  0
  9 10  1  0
 10 11  1  0
 11 12  1  6
 13 11  1  0
 13 14  1  1
 14  7  1  0
 15 16  2  0
 15 13  1  0
 17 15  1  0
 18 17  1  0
 19 18  1  0
 20 19  1  0
 20 21  1  0
 21 22  1  6
 21 17  1  0
 22 23  1  0
 24 22  2  0
M  END
$$$$
