MIP.pdb
     RDKit          3D

 24 24  0  0  1  0  0  0  0  0999 V2000
   23.4027  -18.4777  -18.4438 C   0  0  0  0  0  0  0  0  0  0  0  0
   24.3500  -16.9285  -18.4949 S   0  0  0  0  0  0  0  0  0  0  0  0
   25.7675  -17.1344  -17.3552 C   0  0  0  0  0  0  0  0  0  0  0  0
   25.6344  -18.5065  -16.7433 C   0  0  0  0  0  0  0  0  0  0  0  0
   26.6708  -18.7325  -15.6590 C   0  0  2  0  0  0  0  0  0  0  0  0
   27.9565  -18.8627  -16.3064 N   0  0  0  0  0  0  0  0  0  0  0  0
   26.3761  -19.9635  -14.8832 C   0  0  0  0  0  0  0  0  0  0  0  0
   26.7708  -21.0512  -15.4315 O   0  0  0  0  0  0  0  0  0  0  0  0
   25.3214  -20.6704   -9.2153 C   0  0  0  0  0  0  0  0  0  0  0  0
   25.0236  -20.3255  -10.6798 C   0  0  0  0  0  0  0  0  0  0  0  0
   25.6958  -21.2992  -11.6025 C   0  0  2  0  0  0  0  0  0  0  0  0
   27.1788  -21.2150  -11.3948 C   0  0  0  0  0  0  0  0  0  0  0  0
   25.2125  -21.1639  -12.9979 C   0  0  2  0  0  0  0  0  0  0  0  0
   25.7155  -19.9643  -13.6383 N   0  0  0  0  0  0  0  0  0  0  0  0
   23.8014  -21.4195  -13.2570 C   0  0  0  0  0  0  0  0  0  0  0  0
   23.0904  -20.3818  -13.5414 O   0  0  0  0  0  0  0  0  0  0  0  0
   23.0955  -22.6391  -13.2399 N   0  0  0  0  0  0  0  0  0  0  0  0
   23.4528  -23.9901  -12.8920 C   0  0  0  0  0  0  0  0  0  0  0  0
   22.5126  -24.8858  -13.6968 C   0  0  0  0  0  0  0  0  0  0  0  0
   21.6972  -23.9258  -14.5465 C   0  0  0  0  0  0  0  0  0  0  0  0
   21.6688  -22.7313  -13.6106 C   0  0  1  0  0  0  0  0  0  0  0  0
   20.8262  -22.9777  -12.4166 C   0  0  0  0  0  0  0  0  0  0  0  0
   19.4472  -22.9049  -12.4497 O   0  0  0  0  0  0  0  0  0  0  0  0
   21.3781  -23.2642  -11.3283 O   0  0  0  0  0  0  0  0  0  0  0  0
  1  2  1  0
  3  2  1  0
  4  3  1  0
  5  7  1  0
  5  4  1  0
  5  6  1  6
  7  8  2  0
  9 10  1  0
 10 11  1  0
 11 12  1  6
 13 11  1  0
 13 14  1  1
 14  7  1  0
 15 16  2  0
 15 13  1  0
 17 15  1  0
 18 17  1  0
 19 18  1  0
 20 19  1  0
 20 21  1  0
 21 22  1  1
 21 17  1  0
 22 23  1  0
 24 22  2  0
M  END
$$$$
