MIP.pdb
     RDKit          3D

 24 24  0  0  1  0  0  0  0  0999 V2000
   24.4652  -22.4471  -20.6063 C   0  0  0  0  0  0  0  0  0  0  0  0
   25.8551  -21.2811  -20.5151 S   0  0  0  0  0  0  0  0  0  0  0  0
   27.1049  -22.0294  -19.4067 C   0  0  0  0  0  0  0  0  0  0  0  0
   26.4403  -22.2091  -18.0648 C   0  0  0  0  0  0  0  0  0  0  0  0
   27.4189  -22.7237  -17.0263 C   0  0  2  0  0  0  0  0  0  0  0  0
   27.6906  -24.1096  -17.3335 N   0  0  0  0  0  0  0  0  0  0  0  0
   26.8538  -22.6178  -15.6575 C   0  0  0  0  0  0  0  0  0  0  0  0
   26.0703  -23.5742  -15.3245 O   0  0  0  0  0  0  0  0  0  0  0  0
   29.5312  -20.6728  -11.3908 C   0  0  0  0  0  0  0  0  0  0  0  0
   28.5701  -21.4652  -12.2857 C   0  0  0  0  0  0  0  0  0  0  0  0
   27.2933  -20.7060  -12.4976 C   0  0  2  0  0  0  0  0  0  0  0  0
   26.6612  -20.4438  -11.1629 C   0  0  0  0  0  0  0  0  0  0  0  0
   26.4342  -21.3430  -13.5249 C   0  0  2  0  0  0  0  0  0  0  0  0
   27.1403  -21.5589  -14.7727 N   0  0  0  0  0  0  0  0  0  0  0  0
   25.0827  -20.8260  -13.6976 C   0  0  0  0  0  0  0  0  0  0  0  0
   24.9592  -19.8618  -14.5450 O   0  0  0  0  0  0  0  0  0  0  0  0
   23.8857  -21.2247  -13.0699 N   0  0  0  0  0  0  0  0  0  0  0  0
   23.5811  -22.1350  -11.9962 C   0  0  0  0  0  0  0  0  0  0  0  0
   22.1504  -22.6073  -12.2491 C   0  0  0  0  0  0  0  0  0  0  0  0
   21.7536  -21.9530  -13.5618 C   0  0  0  0  0  0  0  0  0  0  0  0
   22.5698  -20.6777  -13.4583 C   0  0  1  0  0  0  0  0  0  0  0  0
   22.0474  -19.7638  -12.4152 C   0  0  0  0  0  0  0  0  0  0  0  0
   20.8815  -19.0403  -12.5742 O   0  0  0  0  0  0  0  0  0  0  0  0
   22.6823  -19.6354  -11.3420 O   0  0  0  0  0  0  0  0  0  0  0  0
  1  2  1  0
  3  2  1  0
  4  3  1  0
  5  7  1  0
  5  4  1  0
  5  6  1  6
  7  8  2  0
  9 10  1  0
 10 11  1  0
 11 12  1  1
 13 11  1  0
 13 14  1  6
 14  7  1  0
 15 16  2  0
 15 13  1  0
 17 15  1  0
 18 17  1  0
 19 18  1  0
 20 19  1  0
 20 21  1  0
 21 22  1  1
 21 17  1  0
 22 23  1  0
 24 22  2  0
M  END
$$$$
