MIP.pdb
     RDKit          3D

 24 24  0  0  1  0  0  0  0  0999 V2000
   21.5722  -22.5180  -16.9217 C   0  0  0  0  0  0  0  0  0  0  0  0
   19.7679  -22.3086  -16.8923 S   0  0  0  0  0  0  0  0  0  0  0  0
   19.4188  -20.8548  -15.8362 C   0  0  0  0  0  0  0  0  0  0  0  0
   20.7547  -20.2778  -15.4396 C   0  0  0  0  0  0  0  0  0  0  0  0
   21.0020  -20.4259  -13.9504 C   0  0  2  0  0  0  0  0  0  0  0  0
   20.0401  -19.5931  -13.2647 N   0  0  0  0  0  0  0  0  0  0  0  0
   22.3776  -19.9995  -13.5899 C   0  0  0  0  0  0  0  0  0  0  0  0
   22.5928  -18.7411  -13.6879 O   0  0  0  0  0  0  0  0  0  0  0  0
   25.1226  -20.9456   -9.2241 C   0  0  0  0  0  0  0  0  0  0  0  0
   24.6089  -20.3595  -10.5451 C   0  0  0  0  0  0  0  0  0  0  0  0
   25.3358  -20.9613  -11.7118 C   0  0  2  0  0  0  0  0  0  0  0  0
   26.8099  -20.7689  -11.5126 C   0  0  0  0  0  0  0  0  0  0  0  0
   24.7763  -20.5059  -13.0074 C   0  0  2  0  0  0  0  0  0  0  0  0
   23.3872  -20.8884  -13.1693 N   0  0  0  0  0  0  0  0  0  0  0  0
   25.5829  -20.7052  -14.2046 C   0  0  0  0  0  0  0  0  0  0  0  0
   25.2526  -21.7137  -14.9373 O   0  0  0  0  0  0  0  0  0  0  0  0
   26.6776  -19.9560  -14.6804 N   0  0  0  0  0  0  0  0  0  0  0  0
   27.5761  -19.0105  -14.0698 C   0  0  0  0  0  0  0  0  0  0  0  0
   28.0558  -18.1058  -15.2036 C   0  0  0  0  0  0  0  0  0  0  0  0
   27.2932  -18.5831  -16.4280 C   0  0  0  0  0  0  0  0  0  0  0  0
   27.1546  -20.0526  -16.0749 C   0  0  1  0  0  0  0  0  0  0  0  0
   28.4508  -20.7677  -16.1429 C   0  0  0  0  0  0  0  0  0  0  0  0
   29.1523  -20.9284  -17.3219 O   0  0  0  0  0  0  0  0  0  0  0  0
   28.9383  -21.2496  -15.0934 O   0  0  0  0  0  0  0  0  0  0  0  0
  1  2  1  0
  3  2  1  0
  4  3  1  0
  5  7  1  0
  5  4  1  0
  5  6  1  1
  7  8  2  0
  9 10  1  0
 10 11  1  0
 11 12  1  6
 13 11  1  0
 13 14  1  6
 14  7  1  0
 15 16  2  0
 15 13  1  0
 17 15  1  0
 18 17  1  0
 19 18  1  0
 20 19  1  0
 20 21  1  0
 21 22  1  1
 21 17  1  0
 22 23  1  0
 24 22  2  0
M  END
$$$$
