MIP.pdb
     RDKit          3D

 24 24  0  0  1  0  0  0  0  0999 V2000
   24.9422  -26.8320  -16.7160 C   0  0  0  0  0  0  0  0  0  0  0  0
   24.4124  -26.2280  -18.3452 S   0  0  0  0  0  0  0  0  0  0  0  0
   25.2852  -24.6453  -18.6349 C   0  0  0  0  0  0  0  0  0  0  0  0
   25.7955  -24.1813  -17.2936 C   0  0  0  0  0  0  0  0  0  0  0  0
   27.0111  -23.2863  -17.4427 C   0  0  2  0  0  0  0  0  0  0  0  0
   28.1762  -24.1401  -17.4956 N   0  0  0  0  0  0  0  0  0  0  0  0
   27.1312  -22.3490  -16.2977 C   0  0  0  0  0  0  0  0  0  0  0  0
   27.9529  -22.7162  -15.3870 O   0  0  0  0  0  0  0  0  0  0  0  0
   27.6129  -17.1071  -16.7720 C   0  0  0  0  0  0  0  0  0  0  0  0
   27.6981  -18.5357  -16.2206 C   0  0  0  0  0  0  0  0  0  0  0  0
   26.4987  -18.8519  -15.3762 C   0  0  2  0  0  0  0  0  0  0  0  0
   26.4405  -17.8775  -14.2374 C   0  0  0  0  0  0  0  0  0  0  0  0
   26.4342  -20.2905  -15.0225 C   0  0  2  0  0  0  0  0  0  0  0  0
   26.4096  -21.1428  -16.1952 N   0  0  0  0  0  0  0  0  0  0  0  0
   25.4949  -20.6945  -13.9840 C   0  0  0  0  0  0  0  0  0  0  0  0
   24.3882  -21.2071  -14.4027 O   0  0  0  0  0  0  0  0  0  0  0  0
   25.6177  -20.6046  -12.5830 N   0  0  0  0  0  0  0  0  0  0  0  0
   26.6251  -20.0672  -11.7054 C   0  0  0  0  0  0  0  0  0  0  0  0
   26.4959  -20.8507  -10.4002 C   0  0  0  0  0  0  0  0  0  0  0  0
   25.4159  -21.8836  -10.6747 C   0  0  0  0  0  0  0  0  0  0  0  0
   24.5727  -21.1016  -11.6650 C   0  0  1  0  0  0  0  0  0  0  0  0
   23.8551  -19.9763  -11.0208 C   0  0  0  0  0  0  0  0  0  0  0  0
   22.7267  -20.1585  -10.2452 O   0  0  0  0  0  0  0  0  0  0  0  0
   24.2816  -18.8085  -11.1805 O   0  0  0  0  0  0  0  0  0  0  0  0
  1  2  1  0
  3  2  1  0
  4  3  1  0
  5  7  1  0
  5  4  1  0
  5  6  1  1
  7  8  2  0
  9 10  1  0
 10 11  1  0
 11 12  1  1
 13 11  1  0
 13 14  1  6
 14  7  1  0
 15 16  2  0
 15 13  1  0
 17 15  1  0
 18 17  1  0
 19 18  1  0
 20 19  1  0
 20 21  1  0
 21 22  1  1
 21 17  1  0
 22 23  1  0
 24 22  2  0
M  END
$$$$
