MIP.pdb
     RDKit          3D

 24 24  0  0  1  0  0  0  0  0999 V2000
   21.8452  -19.3708   -9.6976 C   0  0  0  0  0  0  0  0  0  0  0  0
   21.5995  -19.6715  -11.4722 S   0  0  0  0  0  0  0  0  0  0  0  0
   23.2621  -19.8595  -12.2146 C   0  0  0  0  0  0  0  0  0  0  0  0
   24.1143  -20.5691  -11.1923 C   0  0  0  0  0  0  0  0  0  0  0  0
   25.5521  -20.6927  -11.6594 C   0  0  2  0  0  0  0  0  0  0  0  0
   25.5690  -21.6075  -12.7783 N   0  0  0  0  0  0  0  0  0  0  0  0
   26.4251  -21.2126  -10.5770 C   0  0  0  0  0  0  0  0  0  0  0  0
   26.2854  -22.4606  -10.3271 O   0  0  0  0  0  0  0  0  0  0  0  0
   31.7197  -22.2170   -8.4762 C   0  0  0  0  0  0  0  0  0  0  0  0
   30.2965  -21.8657   -8.0251 C   0  0  0  0  0  0  0  0  0  0  0  0
   29.4819  -21.3621   -9.1802 C   0  0  2  0  0  0  0  0  0  0  0  0
   30.3055  -20.3801   -9.9591 C   0  0  0  0  0  0  0  0  0  0  0  0
   28.1365  -20.9080   -8.7527 C   0  0  2  0  0  0  0  0  0  0  0  0
   27.3447  -20.4175   -9.8639 N   0  0  0  0  0  0  0  0  0  0  0  0
   28.0460  -20.0796   -7.5572 C   0  0  0  0  0  0  0  0  0  0  0  0
   27.4889  -18.9277   -7.7186 O   0  0  0  0  0  0  0  0  0  0  0  0
   28.4821  -20.3521   -6.2452 N   0  0  0  0  0  0  0  0  0  0  0  0
   29.2536  -21.4149   -5.6542 C   0  0  0  0  0  0  0  0  0  0  0  0
   28.8114  -21.4827   -4.1935 C   0  0  0  0  0  0  0  0  0  0  0  0
   27.7058  -20.4471   -4.0757 C   0  0  0  0  0  0  0  0  0  0  0  0
   28.1903  -19.4502   -5.1124 C   0  0  1  0  0  0  0  0  0  0  0  0
   29.4138  -18.7386   -4.6734 C   0  0  0  0  0  0  0  0  0  0  0  0
   29.4172  -17.8393   -3.6249 O   0  0  0  0  0  0  0  0  0  0  0  0
   30.4940  -18.9548   -5.2715 O   0  0  0  0  0  0  0  0  0  0  0  0
  1  2  1  0
  3  2  1  0
  4  3  1  0
  5  7  1  0
  5  4  1  0
  5  6  1  6
  7  8  2  0
  9 10  1  0
 10 11  1  0
 11 12  1  1
 13 11  1  0
 13 14  1  6
 14  7  1  0
 15 16  2  0
 15 13  1  0
 17 15  1  0
 18 17  1  0
 19 18  1  0
 20 19  1  0
 20 21  1  0
 21 22  1  1
 21 17  1  0
 22 23  1  0
 24 22  2  0
M  END
$$$$
