MIP.pdb
     RDKit          3D

 24 24  0  0  1  0  0  0  0  0999 V2000
   21.3311  -22.3162  -18.5491 C   0  0  0  0  0  0  0  0  0  0  0  0
   19.6341  -22.7945  -18.1115 S   0  0  0  0  0  0  0  0  0  0  0  0
   19.4200  -22.4247  -16.3315 C   0  0  0  0  0  0  0  0  0  0  0  0
   20.5147  -21.4574  -15.9563 C   0  0  0  0  0  0  0  0  0  0  0  0
   20.5795  -21.2493  -14.4551 C   0  0  2  0  0  0  0  0  0  0  0  0
   19.4195  -20.4767  -14.0725 N   0  0  0  0  0  0  0  0  0  0  0  0
   21.8138  -20.5214  -14.0671 C   0  0  0  0  0  0  0  0  0  0  0  0
   21.7327  -19.2460  -14.1471 O   0  0  0  0  0  0  0  0  0  0  0  0
   26.2874  -21.9880  -10.6250 C   0  0  0  0  0  0  0  0  0  0  0  0
   25.4051  -21.9802  -11.8795 C   0  0  0  0  0  0  0  0  0  0  0  0
   24.8005  -20.6239  -12.0956 C   0  0  2  0  0  0  0  0  0  0  0  0
   23.8570  -20.3314  -10.9670 C   0  0  0  0  0  0  0  0  0  0  0  0
   24.2609  -20.4705  -13.4683 C   0  0  2  0  0  0  0  0  0  0  0  0
   22.9962  -21.1585  -13.6402 N   0  0  0  0  0  0  0  0  0  0  0  0
   25.1808  -20.6466  -14.5847 C   0  0  0  0  0  0  0  0  0  0  0  0
   24.7999  -21.4773  -15.4946 O   0  0  0  0  0  0  0  0  0  0  0  0
   26.4325  -20.0419  -14.8160 N   0  0  0  0  0  0  0  0  0  0  0  0
   27.2770  -19.1740  -14.0365 C   0  0  0  0  0  0  0  0  0  0  0  0
   28.0964  -18.3766  -15.0498 C   0  0  0  0  0  0  0  0  0  0  0  0
   27.5733  -18.8209  -16.4053 C   0  0  0  0  0  0  0  0  0  0  0  0
   27.1914  -20.2500  -16.0660 C   0  0  1  0  0  0  0  0  0  0  0  0
   28.3792  -21.1037  -15.8285 C   0  0  0  0  0  0  0  0  0  0  0  0
   29.2345  -21.4895  -16.8423 O   0  0  0  0  0  0  0  0  0  0  0  0
   28.6260  -21.4966  -14.6640 O   0  0  0  0  0  0  0  0  0  0  0  0
  1  2  1  0
  3  2  1  0
  4  3  1  0
  5  7  1  0
  5  4  1  0
  5  6  1  6
  7  8  2  0
  9 10  1  0
 10 11  1  0
 11 12  1  1
 13 11  1  0
 13 14  1  6
 14  7  1  0
 15 16  2  0
 15 13  1  0
 17 15  1  0
 18 17  1  0
 19 18  1  0
 20 19  1  0
 20 21  1  0
 21 22  1  1
 21 17  1  0
 22 23  1  0
 24 22  2  0
M  END
$$$$
