MIP.pdb
     RDKit          3D

 24 24  0  0  1  0  0  0  0  0999 V2000
   21.8905  -17.2988  -19.4281 C   0  0  0  0  0  0  0  0  0  0  0  0
   20.5729  -18.5450  -19.5333 S   0  0  0  0  0  0  0  0  0  0  0  0
   20.1239  -18.9901  -17.8155 C   0  0  0  0  0  0  0  0  0  0  0  0
   21.3097  -18.6363  -16.9533 C   0  0  0  0  0  0  0  0  0  0  0  0
   21.0795  -19.0291  -15.5063 C   0  0  2  0  0  0  0  0  0  0  0  0
   20.1171  -18.1040  -14.9522 N   0  0  0  0  0  0  0  0  0  0  0  0
   22.3405  -18.9641  -14.7255 C   0  0  0  0  0  0  0  0  0  0  0  0
   22.7962  -17.7822  -14.5388 O   0  0  0  0  0  0  0  0  0  0  0  0
   23.6610  -20.7171   -9.9849 C   0  0  0  0  0  0  0  0  0  0  0  0
   23.6119  -19.9890  -11.3339 C   0  0  0  0  0  0  0  0  0  0  0  0
   24.4505  -20.7022  -12.3536 C   0  0  2  0  0  0  0  0  0  0  0  0
   25.8302  -20.8905  -11.7965 C   0  0  0  0  0  0  0  0  0  0  0  0
   24.3557  -20.0673  -13.6904 C   0  0  2  0  0  0  0  0  0  0  0  0
   23.0053  -20.0982  -14.2173 N   0  0  0  0  0  0  0  0  0  0  0  0
   25.3772  -20.3991  -14.6753 C   0  0  0  0  0  0  0  0  0  0  0  0
   25.0053  -21.1992  -15.6157 O   0  0  0  0  0  0  0  0  0  0  0  0
   26.7189  -19.9744  -14.7500 N   0  0  0  0  0  0  0  0  0  0  0  0
   27.5845  -19.2514  -13.8545 C   0  0  0  0  0  0  0  0  0  0  0  0
   28.6142  -18.5587  -14.7455 C   0  0  0  0  0  0  0  0  0  0  0  0
   28.1876  -18.8966  -16.1641 C   0  0  0  0  0  0  0  0  0  0  0  0
   27.5750  -20.2633  -15.9185 C   0  0  1  0  0  0  0  0  0  0  0  0
   28.5985  -21.2821  -15.5859 C   0  0  0  0  0  0  0  0  0  0  0  0
   29.4466  -21.8231  -16.5326 O   0  0  0  0  0  0  0  0  0  0  0  0
   28.7066  -21.6751  -14.4006 O   0  0  0  0  0  0  0  0  0  0  0  0
  1  2  1  0
  3  2  1  0
  4  3  1  0
  5  7  1  0
  5  4  1  0
  5  6  1  1
  7  8  2  0
  9 10  1  0
 10 11  1  0
 11 12  1  1
 13 11  1  0
 13 14  1  6
 14  7  1  0
 15 16  2  0
 15 13  1  0
 17 15  1  0
 18 17  1  0
 19 18  1  0
 20 19  1  0
 20 21  1  0
 21 22  1  1
 21 17  1  0
 22 23  1  0
 24 22  2  0
M  END
$$$$
