MIP.pdb
     RDKit          3D

 24 24  0  0  1  0  0  0  0  0999 V2000
   11.9200  -15.5927    9.4640 C   0  0  0  0  0  0  0  0  0  0  0  0
   11.4049  -13.8604    9.6477 S   0  0  0  0  0  0  0  0  0  0  0  0
   11.6122  -13.0678    8.0108 C   0  0  0  0  0  0  0  0  0  0  0  0
   12.4635  -13.9989    7.1844 C   0  0  0  0  0  0  0  0  0  0  0  0
   12.9081  -13.3422    5.8913 C   0  0  2  0  0  0  0  0  0  0  0  0
   11.7598  -13.2849    5.0153 N   0  0  0  0  0  0  0  0  0  0  0  0
   13.9935  -14.1183    5.2407 C   0  0  0  0  0  0  0  0  0  0  0  0
   13.6135  -14.8660    4.2732 O   0  0  0  0  0  0  0  0  0  0  0  0
   18.8193  -12.0079    4.1914 C   0  0  0  0  0  0  0  0  0  0  0  0
   17.5163  -12.8166    4.1682 C   0  0  0  0  0  0  0  0  0  0  0  0
   17.6739  -14.1004    4.9289 C   0  0  2  0  0  0  0  0  0  0  0  0
   18.8480  -14.8495    4.3721 C   0  0  0  0  0  0  0  0  0  0  0  0
   16.3962  -14.8467    5.0263 C   0  0  2  0  0  0  0  0  0  0  0  0
   15.3448  -14.0563    5.6362 N   0  0  0  0  0  0  0  0  0  0  0  0
   16.4467  -16.2230    5.5027 C   0  0  0  0  0  0  0  0  0  0  0  0
   16.3266  -16.3759    6.7776 O   0  0  0  0  0  0  0  0  0  0  0  0
   16.6110  -17.4168    4.7721 N   0  0  0  0  0  0  0  0  0  0  0  0
   16.8557  -17.7069    3.3829 C   0  0  0  0  0  0  0  0  0  0  0  0
   16.2755  -19.0999    3.1439 C   0  0  0  0  0  0  0  0  0  0  0  0
   15.6418  -19.4874    4.4694 C   0  0  0  0  0  0  0  0  0  0  0  0
   16.5716  -18.7470    5.4131 C   0  0  1  0  0  0  0  0  0  0  0  0
   17.9227  -19.3543    5.4559 C   0  0  0  0  0  0  0  0  0  0  0  0
   18.1877  -20.5364    6.1196 O   0  0  0  0  0  0  0  0  0  0  0  0
   18.8697  -18.7795    4.8693 O   0  0  0  0  0  0  0  0  0  0  0  0
  1  2  1  0
  3  2  1  0
  4  3  1  0
  5  7  1  0
  5  4  1  0
  5  6  1  6
  7  8  2  0
  9 10  1  0
 10 11  1  0
 11 12  1  6
 13 11  1  0
 13 14  1  1
 14  7  1  0
 15 16  2  0
 15 13  1  0
 17 15  1  0
 18 17  1  0
 19 18  1  0
 20 19  1  0
 20 21  1  0
 21 22  1  6
 21 17  1  0
 22 23  1  0
 24 22  2  0
M  END
$$$$
