MIP.pdb
     RDKit          3D

 24 24  0  0  1  0  0  0  0  0999 V2000
   23.9088  -16.0672  -16.7887 C   0  0  0  0  0  0  0  0  0  0  0  0
   25.2342  -14.8256  -16.7442 S   0  0  0  0  0  0  0  0  0  0  0  0
   26.6669  -15.6071  -15.9152 C   0  0  0  0  0  0  0  0  0  0  0  0
   26.2388  -17.0027  -15.5364 C   0  0  0  0  0  0  0  0  0  0  0  0
   27.3078  -17.7091  -14.7246 C   0  0  2  0  0  0  0  0  0  0  0  0
   28.4481  -17.9115  -15.5894 N   0  0  0  0  0  0  0  0  0  0  0  0
   26.8229  -19.0198  -14.2237 C   0  0  0  0  0  0  0  0  0  0  0  0
   27.0479  -20.0096  -15.0042 O   0  0  0  0  0  0  0  0  0  0  0  0
   26.7276  -20.1626   -8.9653 C   0  0  0  0  0  0  0  0  0  0  0  0
   26.8508  -20.4182  -10.4726 C   0  0  0  0  0  0  0  0  0  0  0  0
   25.4954  -20.5700  -11.0984 C   0  0  2  0  0  0  0  0  0  0  0  0
   24.8526  -21.8137  -10.5603 C   0  0  0  0  0  0  0  0  0  0  0  0
   25.5489  -20.4360  -12.5743 C   0  0  2  0  0  0  0  0  0  0  0  0
   26.1637  -19.1904  -12.9898 N   0  0  0  0  0  0  0  0  0  0  0  0
   24.3534  -20.7815  -13.3327 C   0  0  0  0  0  0  0  0  0  0  0  0
   23.5907  -19.7918  -13.6518 O   0  0  0  0  0  0  0  0  0  0  0  0
   23.9045  -22.0443  -13.7684 N   0  0  0  0  0  0  0  0  0  0  0  0
   24.3488  -23.3937  -13.5319 C   0  0  0  0  0  0  0  0  0  0  0  0
   23.9071  -24.1940  -14.7560 C   0  0  0  0  0  0  0  0  0  0  0  0
   23.2771  -23.1675  -15.6823 C   0  0  0  0  0  0  0  0  0  0  0  0
   22.7273  -22.2047  -14.6459 C   0  0  1  0  0  0  0  0  0  0  0  0
   21.5847  -22.7814  -13.8989 C   0  0  0  0  0  0  0  0  0  0  0  0
   20.3275  -22.9237  -14.4532 O   0  0  0  0  0  0  0  0  0  0  0  0
   21.7562  -23.1581  -12.7157 O   0  0  0  0  0  0  0  0  0  0  0  0
  1  2  1  0
  3  2  1  0
  4  3  1  0
  5  7  1  0
  5  4  1  0
  5  6  1  6
  7  8  2  0
  9 10  1  0
 10 11  1  0
 11 12  1  6
 13 11  1  0
 13 14  1  1
 14  7  1  0
 15 16  2  0
 15 13  1  0
 17 15  1  0
 18 17  1  0
 19 18  1  0
 20 19  1  0
 20 21  1  0
 21 22  1  1
 21 17  1  0
 22 23  1  0
 24 22  2  0
M  END
$$$$
