MIP.pdb
     RDKit          3D

 24 24  0  0  1  0  0  0  0  0999 V2000
   25.4404  -15.5427  -17.3667 C   0  0  0  0  0  0  0  0  0  0  0  0
   26.5065  -14.7418  -16.1330 S   0  0  0  0  0  0  0  0  0  0  0  0
   27.6872  -16.0117  -15.5464 C   0  0  0  0  0  0  0  0  0  0  0  0
   26.8747  -17.2399  -15.2208 C   0  0  0  0  0  0  0  0  0  0  0  0
   27.7444  -18.3449  -14.6522 C   0  0  2  0  0  0  0  0  0  0  0  0
   28.5909  -18.8256  -15.7206 N   0  0  0  0  0  0  0  0  0  0  0  0
   26.9188  -19.4622  -14.1289 C   0  0  0  0  0  0  0  0  0  0  0  0
   26.6873  -20.3989  -14.9706 O   0  0  0  0  0  0  0  0  0  0  0  0
   26.7273  -20.7637   -8.8191 C   0  0  0  0  0  0  0  0  0  0  0  0
   26.6994  -20.9725  -10.3384 C   0  0  0  0  0  0  0  0  0  0  0  0
   25.3618  -20.5931  -10.9025 C   0  0  2  0  0  0  0  0  0  0  0  0
   24.3227  -21.5189  -10.3434 C   0  0  0  0  0  0  0  0  0  0  0  0
   25.4023  -20.4550  -12.3784 C   0  0  2  0  0  0  0  0  0  0  0  0
   26.4161  -19.5140  -12.8133 N   0  0  0  0  0  0  0  0  0  0  0  0
   24.1346  -20.3191  -13.0842 C   0  0  0  0  0  0  0  0  0  0  0  0
   23.6969  -19.1132  -13.2159 O   0  0  0  0  0  0  0  0  0  0  0  0
   23.3114  -21.3164  -13.6442 N   0  0  0  0  0  0  0  0  0  0  0  0
   23.3656  -22.7554  -13.6638 C   0  0  0  0  0  0  0  0  0  0  0  0
   22.6243  -23.1790  -14.9307 C   0  0  0  0  0  0  0  0  0  0  0  0
   22.2495  -21.8746  -15.6138 C   0  0  0  0  0  0  0  0  0  0  0  0
   22.0768  -20.9955  -14.3887 C   0  0  1  0  0  0  0  0  0  0  0  0
   20.8745  -21.3622  -13.6036 C   0  0  0  0  0  0  0  0  0  0  0  0
   20.9496  -21.9867  -12.3738 O   0  0  0  0  0  0  0  0  0  0  0  0
   19.7395  -21.0992  -14.0659 O   0  0  0  0  0  0  0  0  0  0  0  0
  1  2  1  0
  3  2  1  0
  4  3  1  0
  5  7  1  0
  5  4  1  0
  5  6  1  6
  7  8  2  0
  9 10  1  0
 10 11  1  0
 11 12  1  6
 13 11  1  0
 13 14  1  1
 14  7  1  0
 15 16  2  0
 15 13  1  0
 17 15  1  0
 18 17  1  0
 19 18  1  0
 20 19  1  0
 20 21  1  0
 21 22  1  1
 21 17  1  0
 22 23  1  0
 24 22  2  0
M  END
$$$$
