STR.pdb
     RDKit          3D

 25 24  0  0  1  0  0  0  0  0999 V2000
    8.2981  -13.2820   14.8601 O   0  0  0  0  0  0  0  0  0  0  0  0
    7.6075  -13.3986   16.0391 C   0  0  0  0  0  0  0  0  0  0  0  0
    8.5779  -13.4989   17.1908 C   0  0  2  0  0  0  0  0  0  0  0  0
    9.8013  -14.1955   16.7732 N   0  0  0  0  0  0  0  0  0  0  0  0
    8.0416  -14.2553   18.3506 C   0  0  0  0  0  0  0  0  0  0  0  0
    6.9407  -13.9302   18.9199 O   0  0  0  0  0  0  0  0  0  0  0  0
    6.7855  -17.5389   18.5915 C   0  0  0  0  0  0  0  0  0  0  0  0
    7.9203  -17.5501   19.5966 C   0  0  1  0  0  0  0  0  0  0  0  0
    9.0434  -18.0428   18.9556 O   0  0  0  0  0  0  0  0  0  0  0  0
    8.1108  -16.1208   20.0646 C   0  0  2  0  0  0  0  0  0  0  0  0
    8.6869  -15.3896   18.9262 N   0  0  0  0  0  0  0  0  0  0  0  0
    9.1593  -16.1306   21.1247 C   0  0  0  0  0  0  0  0  0  0  0  0
   10.4004  -16.0537   20.8575 O   0  0  0  0  0  0  0  0  0  0  0  0
    9.4868  -13.6319   29.3271 N   0  0  0  0  0  0  0  0  0  0  0  0
   10.4720  -14.6449   29.3840 C   0  0  0  0  0  0  0  0  0  0  0  0
   11.3713  -14.5859   30.2982 N   0  0  0  0  0  0  0  0  0  0  0  0
   10.4513  -15.7009   28.4384 N   0  0  0  0  0  0  0  0  0  0  0  0
    9.4804  -15.7690   27.3738 C   0  0  0  0  0  0  0  0  0  0  0  0
   10.1514  -15.9363   26.0409 C   0  0  0  0  0  0  0  0  0  0  0  0
    9.2122  -16.0029   24.8865 C   0  0  0  0  0  0  0  0  0  0  0  0
    9.8703  -16.2064   23.5435 C   0  0  2  0  0  0  0  0  0  0  0  0
    8.8422  -16.2270   22.5162 N   0  0  0  0  0  0  0  0  0  0  0  0
   10.5160  -17.5493   23.6292 C   0  0  0  0  0  0  0  0  0  0  0  0
    9.9296  -18.6023   23.2964 O   0  0  0  0  0  0  0  0  0  0  0  0
   11.8175  -17.6049   24.0996 O   0  0  0  0  0  0  0  0  0  0  0  0
  2  1  1  0
  2  3  1  0
  3  4  1  6
  5  6  2  0
  5  3  1  0
  8  7  1  6
  8 10  1  0
  9  8  1  0
 10 12  1  0
 10 11  1  6
 11  5  1  0
 12 13  2  0
 15 14  1  0
 16 15  2  0
 17 15  1  0
 18 19  1  0
 18 17  1  0
 20 19  1  0
 21 20  1  1
 22 12  1  0
 22 21  1  0
 23 25  1  0
 23 21  1  0
 24 23  2  0
M  END
$$$$
