STR.pdb
     RDKit          3D

 25 24  0  0  1  0  0  0  0  0999 V2000
    8.2147  -18.4065   16.8540 O   0  0  0  0  0  0  0  0  0  0  0  0
    7.2007  -17.4961   16.7006 C   0  0  0  0  0  0  0  0  0  0  0  0
    7.7796  -16.1280   16.4339 C   0  0  2  0  0  0  0  0  0  0  0  0
    8.6782  -16.1671   15.2732 N   0  0  0  0  0  0  0  0  0  0  0  0
    8.5809  -15.5952   17.5647 C   0  0  0  0  0  0  0  0  0  0  0  0
    9.8612  -15.5580   17.5285 O   0  0  0  0  0  0  0  0  0  0  0  0
    7.5284  -12.5556   19.9709 C   0  0  0  0  0  0  0  0  0  0  0  0
    7.9328  -13.7799   20.7683 C   0  0  1  0  0  0  0  0  0  0  0  0
    6.7768  -14.4630   21.1031 O   0  0  0  0  0  0  0  0  0  0  0  0
    8.8461  -14.6033   19.8818 C   0  0  2  0  0  0  0  0  0  0  0  0
    8.0133  -15.0857   18.7700 N   0  0  0  0  0  0  0  0  0  0  0  0
    9.2501  -15.8138   20.6530 C   0  0  0  0  0  0  0  0  0  0  0  0
    8.5779  -16.8932   20.6298 O   0  0  0  0  0  0  0  0  0  0  0  0
   16.1997  -21.0768   25.1266 N   0  0  0  0  0  0  0  0  0  0  0  0
   15.8996  -19.9082   24.3888 C   0  0  0  0  0  0  0  0  0  0  0  0
   16.8644  -19.1629   23.9866 N   0  0  0  0  0  0  0  0  0  0  0  0
   14.5493  -19.5805   24.1075 N   0  0  0  0  0  0  0  0  0  0  0  0
   14.1797  -18.4433   23.3007 C   0  0  0  0  0  0  0  0  0  0  0  0
   12.6885  -18.2702   23.2625 C   0  0  0  0  0  0  0  0  0  0  0  0
   12.2235  -17.1560   22.3901 C   0  0  0  0  0  0  0  0  0  0  0  0
   10.7262  -16.9726   22.3382 C   0  0  2  0  0  0  0  0  0  0  0  0
   10.4220  -15.8451   21.4728 N   0  0  0  0  0  0  0  0  0  0  0  0
   10.3282  -16.6468   23.7394 C   0  0  0  0  0  0  0  0  0  0  0  0
   10.0257  -15.4894   24.1030 O   0  0  0  0  0  0  0  0  0  0  0  0
   10.3008  -17.6857   24.6550 O   0  0  0  0  0  0  0  0  0  0  0  0
  2  1  1  0
  2  3  1  0
  3  4  1  6
  5  6  2  0
  5  3  1  0
  8  7  1  6
  8 10  1  0
  9  8  1  0
 10 12  1  0
 10 11  1  6
 11  5  1  0
 12 13  2  0
 15 14  1  0
 16 15  2  0
 17 15  1  0
 18 19  1  0
 18 17  1  0
 20 19  1  0
 21 20  1  1
 22 12  1  0
 22 21  1  0
 23 25  1  0
 23 21  1  0
 24 23  2  0
M  END
$$$$
