STR.pdb
     RDKit          3D

 25 24  0  0  1  0  0  0  0  0999 V2000
    7.6311  -17.4847   19.1213 O   0  0  0  0  0  0  0  0  0  0  0  0
    7.6991  -18.1730   17.9371 C   0  0  0  0  0  0  0  0  0  0  0  0
    8.9016  -19.0850   17.9456 C   0  0  2  0  0  0  0  0  0  0  0  0
    9.0124  -19.8019   16.6688 N   0  0  0  0  0  0  0  0  0  0  0  0
    8.8471  -20.1242   19.0048 C   0  0  0  0  0  0  0  0  0  0  0  0
    8.0048  -21.0890   18.9636 O   0  0  0  0  0  0  0  0  0  0  0  0
   11.5383  -22.3690   20.0857 C   0  0  0  0  0  0  0  0  0  0  0  0
   11.0942  -21.6671   21.3538 C   0  0  1  0  0  0  0  0  0  0  0  0
   11.9433  -20.5936   21.5583 O   0  0  0  0  0  0  0  0  0  0  0  0
    9.6598  -21.2272   21.1369 C   0  0  2  0  0  0  0  0  0  0  0  0
    9.7083  -20.1458   20.1416 N   0  0  0  0  0  0  0  0  0  0  0  0
    9.1840  -20.6030   22.4046 C   0  0  0  0  0  0  0  0  0  0  0  0
    9.2715  -19.3535   22.6247 O   0  0  0  0  0  0  0  0  0  0  0  0
    3.2878  -25.1550   26.2879 N   0  0  0  0  0  0  0  0  0  0  0  0
    3.0654  -24.4320   25.0929 C   0  0  0  0  0  0  0  0  0  0  0  0
    2.0489  -24.7293   24.3674 N   0  0  0  0  0  0  0  0  0  0  0  0
    3.9610  -23.3990   24.7180 N   0  0  0  0  0  0  0  0  0  0  0  0
    5.1879  -23.1403   25.4311 C   0  0  0  0  0  0  0  0  0  0  0  0
    5.9595  -22.0227   24.7904 C   0  0  0  0  0  0  0  0  0  0  0  0
    7.2684  -21.7317   25.4391 C   0  0  0  0  0  0  0  0  0  0  0  0
    8.1406  -20.7490   24.6963 C   0  0  2  0  0  0  0  0  0  0  0  0
    8.5958  -21.3665   23.4618 N   0  0  0  0  0  0  0  0  0  0  0  0
    9.3084  -20.5127   25.5954 C   0  0  0  0  0  0  0  0  0  0  0  0
    9.2333  -19.8129   26.6288 O   0  0  0  0  0  0  0  0  0  0  0  0
   10.5125  -21.1030   25.2493 O   0  0  0  0  0  0  0  0  0  0  0  0
  2  1  1  0
  2  3  1  0
  3  4  1  6
  5  6  2  0
  5  3  1  0
  8  7  1  6
  8 10  1  0
  9  8  1  0
 10 12  1  0
 10 11  1  6
 11  5  1  0
 12 13  2  0
 15 14  1  0
 16 15  2  0
 17 15  1  0
 18 19  1  0
 18 17  1  0
 20 19  1  0
 21 20  1  1
 22 12  1  0
 22 21  1  0
 23 25  1  0
 23 21  1  0
 24 23  2  0
M  END
$$$$
