STR.pdb
     RDKit          3D

 25 24  0  0  1  0  0  0  0  0999 V2000
    7.7987  -19.8256   16.7852 O   0  0  0  0  0  0  0  0  0  0  0  0
    7.9450  -18.8385   17.7259 C   0  0  0  0  0  0  0  0  0  0  0  0
    8.6775  -17.6644   17.1235 C   0  0  2  0  0  0  0  0  0  0  0  0
    9.8782  -18.1182   16.4103 N   0  0  0  0  0  0  0  0  0  0  0  0
    9.1386  -16.6760   18.1310 C   0  0  0  0  0  0  0  0  0  0  0  0
   10.3070  -16.7372   18.6536 O   0  0  0  0  0  0  0  0  0  0  0  0
    8.4032  -12.4674   20.6120 C   0  0  0  0  0  0  0  0  0  0  0  0
    7.8898  -13.4646   19.5922 C   0  0  1  0  0  0  0  0  0  0  0  0
    7.8933  -12.8407   18.3570 O   0  0  0  0  0  0  0  0  0  0  0  0
    8.8235  -14.6582   19.6317 C   0  0  2  0  0  0  0  0  0  0  0  0
    8.3423  -15.5899   18.6007 N   0  0  0  0  0  0  0  0  0  0  0  0
    8.6202  -15.3454   20.9392 C   0  0  0  0  0  0  0  0  0  0  0  0
    7.4848  -15.7805   21.3119 O   0  0  0  0  0  0  0  0  0  0  0  0
   15.5246  -18.9683   21.3582 N   0  0  0  0  0  0  0  0  0  0  0  0
   14.1912  -19.4273   21.4648 C   0  0  0  0  0  0  0  0  0  0  0  0
   13.6795  -20.0815   20.4859 N   0  0  0  0  0  0  0  0  0  0  0  0
   13.4465  -19.1598   22.6411 N   0  0  0  0  0  0  0  0  0  0  0  0
   13.1005  -17.8210   23.0517 C   0  0  0  0  0  0  0  0  0  0  0  0
   11.7381  -17.4374   22.5501 C   0  0  0  0  0  0  0  0  0  0  0  0
   10.8702  -16.7873   23.5714 C   0  0  0  0  0  0  0  0  0  0  0  0
    9.5130  -16.3571   23.0702 C   0  0  2  0  0  0  0  0  0  0  0  0
    9.6884  -15.5631   21.8654 N   0  0  0  0  0  0  0  0  0  0  0  0
    8.9547  -15.4985   24.1560 C   0  0  0  0  0  0  0  0  0  0  0  0
    8.5715  -15.9615   25.2524 O   0  0  0  0  0  0  0  0  0  0  0  0
    8.8678  -14.1374   23.9150 O   0  0  0  0  0  0  0  0  0  0  0  0
  2  1  1  0
  2  3  1  0
  3  4  1  1
  5  6  2  0
  5  3  1  0
  8  7  1  1
  8 10  1  0
  9  8  1  0
 10 12  1  0
 10 11  1  6
 11  5  1  0
 12 13  2  0
 15 14  1  0
 16 15  2  0
 17 15  1  0
 18 19  1  0
 18 17  1  0
 20 19  1  0
 21 20  1  1
 22 12  1  0
 22 21  1  0
 23 25  1  0
 23 21  1  0
 24 23  2  0
M  END
$$$$
