STR.pdb
     RDKit          3D

 25 24  0  0  1  0  0  0  0  0999 V2000
    8.6575  -17.5747   13.5334 O   0  0  0  0  0  0  0  0  0  0  0  0
    8.2721  -17.1870   14.7910 C   0  0  0  0  0  0  0  0  0  0  0  0
    7.8932  -15.7261   14.7806 C   0  0  2  0  0  0  0  0  0  0  0  0
    8.1399  -15.1402   13.4570 N   0  0  0  0  0  0  0  0  0  0  0  0
    8.6661  -14.9087   15.7498 C   0  0  0  0  0  0  0  0  0  0  0  0
    9.7142  -14.2585   15.4025 O   0  0  0  0  0  0  0  0  0  0  0  0
    7.0567  -12.8992   18.8740 C   0  0  0  0  0  0  0  0  0  0  0  0
    8.2436  -13.7487   19.2835 C   0  0  1  0  0  0  0  0  0  0  0  0
    7.7535  -14.9510   19.7622 O   0  0  0  0  0  0  0  0  0  0  0  0
    9.1024  -13.9336   18.0480 C   0  0  2  0  0  0  0  0  0  0  0  0
    8.3217  -14.7733   17.1273 N   0  0  0  0  0  0  0  0  0  0  0  0
   10.2899  -14.7443   18.4428 C   0  0  0  0  0  0  0  0  0  0  0  0
   10.3222  -16.0100   18.3230 O   0  0  0  0  0  0  0  0  0  0  0  0
   19.8851  -15.4674   19.3830 N   0  0  0  0  0  0  0  0  0  0  0  0
   18.7899  -14.6179   19.1019 C   0  0  0  0  0  0  0  0  0  0  0  0
   19.0057  -13.5057   18.4981 N   0  0  0  0  0  0  0  0  0  0  0  0
   17.4819  -15.0044   19.4883 N   0  0  0  0  0  0  0  0  0  0  0  0
   16.3128  -14.2311   19.1477 C   0  0  0  0  0  0  0  0  0  0  0  0
   15.0954  -14.7525   19.8557 C   0  0  0  0  0  0  0  0  0  0  0  0
   13.8295  -14.0582   19.4891 C   0  0  0  0  0  0  0  0  0  0  0  0
   12.6207  -14.9559   19.3832 C   0  0  2  0  0  0  0  0  0  0  0  0
   11.4756  -14.1547   18.9839 N   0  0  0  0  0  0  0  0  0  0  0  0
   12.4057  -15.4787   20.7646 C   0  0  0  0  0  0  0  0  0  0  0  0
   11.5337  -15.0168   21.5326 O   0  0  0  0  0  0  0  0  0  0  0  0
   13.2174  -16.5173   21.1895 O   0  0  0  0  0  0  0  0  0  0  0  0
  2  1  1  0
  2  3  1  0
  3  4  1  6
  5  6  2  0
  5  3  1  0
  8  7  1  6
  8 10  1  0
  9  8  1  0
 10 12  1  0
 10 11  1  6
 11  5  1  0
 12 13  2  0
 15 14  1  0
 16 15  2  0
 17 15  1  0
 18 19  1  0
 18 17  1  0
 20 19  1  0
 21 20  1  1
 22 12  1  0
 22 21  1  0
 23 25  1  0
 23 21  1  0
 24 23  2  0
M  END
$$$$
