STR.pdb
     RDKit          3D

 25 24  0  0  1  0  0  0  0  0999 V2000
    8.2248  -18.4909   17.4854 O   0  0  0  0  0  0  0  0  0  0  0  0
    7.2137  -17.7099   16.9870 C   0  0  0  0  0  0  0  0  0  0  0  0
    7.7288  -16.3159   16.7230 C   0  0  2  0  0  0  0  0  0  0  0  0
    8.6429  -16.3145   15.5738 N   0  0  0  0  0  0  0  0  0  0  0  0
    8.4888  -15.7417   17.8620 C   0  0  0  0  0  0  0  0  0  0  0  0
    9.7698  -15.7512   17.8942 O   0  0  0  0  0  0  0  0  0  0  0  0
    7.1666  -12.6437   19.9959 C   0  0  0  0  0  0  0  0  0  0  0  0
    7.7091  -13.7200   20.9152 C   0  0  1  0  0  0  0  0  0  0  0  0
    6.6339  -14.4597   21.3754 O   0  0  0  0  0  0  0  0  0  0  0  0
    8.6702  -14.5585   20.0958 C   0  0  2  0  0  0  0  0  0  0  0  0
    7.8780  -15.1386   19.0011 N   0  0  0  0  0  0  0  0  0  0  0  0
    9.1047  -15.7041   20.9455 C   0  0  0  0  0  0  0  0  0  0  0  0
    8.5309  -16.8384   20.9069 O   0  0  0  0  0  0  0  0  0  0  0  0
   13.0548  -20.2855   18.4996 N   0  0  0  0  0  0  0  0  0  0  0  0
   12.5972  -21.1913   19.4845 C   0  0  0  0  0  0  0  0  0  0  0  0
   12.1637  -22.3422   19.1163 N   0  0  0  0  0  0  0  0  0  0  0  0
   12.6240  -20.8173   20.8517 N   0  0  0  0  0  0  0  0  0  0  0  0
   12.8968  -19.4675   21.2808 C   0  0  0  0  0  0  0  0  0  0  0  0
   11.6712  -18.8297   21.8690 C   0  0  0  0  0  0  0  0  0  0  0  0
   11.8122  -17.3730   22.1465 C   0  0  0  0  0  0  0  0  0  0  0  0
   10.5822  -16.7144   22.7226 C   0  0  2  0  0  0  0  0  0  0  0  0
   10.1977  -15.6070   21.8634 N   0  0  0  0  0  0  0  0  0  0  0  0
   11.0125  -16.1881   24.0514 C   0  0  0  0  0  0  0  0  0  0  0  0
   11.6106  -15.0981   24.1837 O   0  0  0  0  0  0  0  0  0  0  0  0
   10.7263  -16.9565   25.1675 O   0  0  0  0  0  0  0  0  0  0  0  0
  2  1  1  0
  2  3  1  0
  3  4  1  6
  5  6  2  0
  5  3  1  0
  8  7  1  6
  8 10  1  0
  9  8  1  0
 10 12  1  0
 10 11  1  6
 11  5  1  0
 12 13  2  0
 15 14  1  0
 16 15  2  0
 17 15  1  0
 18 19  1  0
 18 17  1  0
 20 19  1  0
 21 20  1  6
 22 12  1  0
 22 21  1  0
 23 25  1  0
 23 21  1  0
 24 23  2  0
M  END
$$$$
