STR.pdb
     RDKit          3D

 25 24  0  0  1  0  0  0  0  0999 V2000
    2.4210  -20.5156   19.0776 O   0  0  0  0  0  0  0  0  0  0  0  0
    3.3763  -19.5675   18.8144 C   0  0  0  0  0  0  0  0  0  0  0  0
    4.0354  -19.8618   17.4889 C   0  0  2  0  0  0  0  0  0  0  0  0
    3.5832  -21.1573   16.9662 N   0  0  0  0  0  0  0  0  0  0  0  0
    5.5160  -19.9376   17.5696 C   0  0  0  0  0  0  0  0  0  0  0  0
    6.1413  -21.0538   17.4983 O   0  0  0  0  0  0  0  0  0  0  0  0
    7.8773  -17.6812   15.6548 C   0  0  0  0  0  0  0  0  0  0  0  0
    8.3624  -17.6624   17.0909 C   0  0  1  0  0  0  0  0  0  0  0  0
    7.8749  -16.5107   17.6832 O   0  0  0  0  0  0  0  0  0  0  0  0
    7.8280  -18.9161   17.7548 C   0  0  2  0  0  0  0  0  0  0  0  0
    6.3622  -18.8007   17.7299 N   0  0  0  0  0  0  0  0  0  0  0  0
    8.2235  -18.8678   19.1916 C   0  0  0  0  0  0  0  0  0  0  0  0
    7.4978  -18.3203   20.0810 O   0  0  0  0  0  0  0  0  0  0  0  0
   12.3144  -22.0482   26.1068 N   0  0  0  0  0  0  0  0  0  0  0  0
   11.5536  -23.0803   25.5102 C   0  0  0  0  0  0  0  0  0  0  0  0
   11.4615  -24.2108   26.1115 N   0  0  0  0  0  0  0  0  0  0  0  0
   10.9102  -22.8524   24.2677 N   0  0  0  0  0  0  0  0  0  0  0  0
   11.5564  -22.1689   23.1741 C   0  0  0  0  0  0  0  0  0  0  0  0
   10.8573  -20.8789   22.8549 C   0  0  0  0  0  0  0  0  0  0  0  0
   10.4452  -20.7419   21.4301 C   0  0  0  0  0  0  0  0  0  0  0  0
    9.8020  -19.4223   21.0791 C   0  0  2  0  0  0  0  0  0  0  0  0
    9.4470  -19.4342   19.6697 N   0  0  0  0  0  0  0  0  0  0  0  0
   10.8631  -18.4000   21.3172 C   0  0  0  0  0  0  0  0  0  0  0  0
   11.4926  -17.8517   20.3864 O   0  0  0  0  0  0  0  0  0  0  0  0
   11.1433  -18.0623   22.6309 O   0  0  0  0  0  0  0  0  0  0  0  0
  2  1  1  0
  2  3  1  0
  3  4  1  1
  5  6  2  0
  5  3  1  0
  8  7  1  6
  8 10  1  0
  9  8  1  0
 10 12  1  0
 10 11  1  1
 11  5  1  0
 12 13  2  0
 15 14  1  0
 16 15  2  0
 17 15  1  0
 18 19  1  0
 18 17  1  0
 20 19  1  0
 21 20  1  6
 22 12  1  0
 22 21  1  0
 23 25  1  0
 23 21  1  0
 24 23  2  0
M  END
$$$$
