STR.pdb
     RDKit          3D

 25 24  0  0  1  0  0  0  0  0999 V2000
   11.6065  -13.6573   16.4944 O   0  0  0  0  0  0  0  0  0  0  0  0
   10.9658  -13.6151   17.7062 C   0  0  0  0  0  0  0  0  0  0  0  0
    9.4934  -13.8858   17.5143 C   0  0  2  0  0  0  0  0  0  0  0  0
    8.8329  -12.7264   16.9015 N   0  0  0  0  0  0  0  0  0  0  0  0
    8.7721  -14.1546   18.7841 C   0  0  0  0  0  0  0  0  0  0  0  0
    8.3215  -13.2074   19.5200 O   0  0  0  0  0  0  0  0  0  0  0  0
    6.0712  -16.8962   19.2488 C   0  0  0  0  0  0  0  0  0  0  0  0
    7.0796  -17.0340   20.3722 C   0  0  1  0  0  0  0  0  0  0  0  0
    7.9746  -18.0264   20.0130 O   0  0  0  0  0  0  0  0  0  0  0  0
    7.7546  -15.6857   20.5286 C   0  0  2  0  0  0  0  0  0  0  0  0
    8.5184  -15.4631   19.2919 N   0  0  0  0  0  0  0  0  0  0  0  0
    8.7616  -15.8107   21.6211 C   0  0  0  0  0  0  0  0  0  0  0  0
   10.0003  -15.9840   21.3907 O   0  0  0  0  0  0  0  0  0  0  0  0
    9.9408  -13.1866   29.9532 N   0  0  0  0  0  0  0  0  0  0  0  0
   10.4818  -14.4869   29.8236 C   0  0  0  0  0  0  0  0  0  0  0  0
   10.7836  -15.1425   30.8853 N   0  0  0  0  0  0  0  0  0  0  0  0
   10.6808  -15.0413   28.5341 N   0  0  0  0  0  0  0  0  0  0  0  0
    9.8149  -14.7423   27.4198 C   0  0  0  0  0  0  0  0  0  0  0  0
    9.5708  -15.9646   26.5825 C   0  0  0  0  0  0  0  0  0  0  0  0
    8.7016  -15.7304   25.3957 C   0  0  0  0  0  0  0  0  0  0  0  0
    9.3905  -15.8914   24.0624 C   0  0  2  0  0  0  0  0  0  0  0  0
    8.4044  -15.7444   23.0047 N   0  0  0  0  0  0  0  0  0  0  0  0
    9.9143  -17.2890   24.0646 C   0  0  0  0  0  0  0  0  0  0  0  0
   11.0001  -17.6016   24.6002 O   0  0  0  0  0  0  0  0  0  0  0  0
    9.1486  -18.2607   23.4419 O   0  0  0  0  0  0  0  0  0  0  0  0
  2  1  1  0
  2  3  1  0
  3  4  1  1
  5  6  2  0
  5  3  1  0
  8  7  1  6
  8 10  1  0
  9  8  1  0
 10 12  1  0
 10 11  1  6
 11  5  1  0
 12 13  2  0
 15 14  1  0
 16 15  2  0
 17 15  1  0
 18 19  1  0
 18 17  1  0
 20 19  1  0
 21 20  1  1
 22 12  1  0
 22 21  1  0
 23 25  1  0
 23 21  1  0
 24 23  2  0
M  END
$$$$
