STR.pdb
     RDKit          3D

 25 24  0  0  1  0  0  0  0  0999 V2000
   11.7773  -16.9008   10.4182 O   0  0  0  0  0  0  0  0  0  0  0  0
   10.9015  -17.4034   11.3461 C   0  0  0  0  0  0  0  0  0  0  0  0
   11.6502  -17.7846   12.6000 C   0  0  2  0  0  0  0  0  0  0  0  0
   12.4866  -18.9674   12.3599 N   0  0  0  0  0  0  0  0  0  0  0  0
   10.7601  -18.1264   13.7383 C   0  0  0  0  0  0  0  0  0  0  0  0
    9.9790  -17.2610   14.2701 O   0  0  0  0  0  0  0  0  0  0  0  0
    9.3106  -21.8268   14.0909 C   0  0  0  0  0  0  0  0  0  0  0  0
    9.6894  -21.2775   15.4521 C   0  0  1  0  0  0  0  0  0  0  0  0
   10.9454  -21.7657   15.7667 O   0  0  0  0  0  0  0  0  0  0  0  0
    9.6763  -19.7659   15.3384 C   0  0  2  0  0  0  0  0  0  0  0  0
   10.6923  -19.4212   14.3327 N   0  0  0  0  0  0  0  0  0  0  0  0
   10.1695  -19.2131   16.6325 C   0  0  0  0  0  0  0  0  0  0  0  0
   11.4058  -19.0330   16.8704 O   0  0  0  0  0  0  0  0  0  0  0  0
    7.3361  -12.6825   21.1077 N   0  0  0  0  0  0  0  0  0  0  0  0
    8.2057  -13.0271   20.0469 C   0  0  0  0  0  0  0  0  0  0  0  0
    8.4390  -12.1607   19.1288 N   0  0  0  0  0  0  0  0  0  0  0  0
    8.8012  -14.3132   20.0144 N   0  0  0  0  0  0  0  0  0  0  0  0
    8.5480  -15.3103   21.0255 C   0  0  0  0  0  0  0  0  0  0  0  0
    9.2729  -16.5887   20.7167 C   0  0  0  0  0  0  0  0  0  0  0  0
    8.8791  -17.2195   19.4260 C   0  0  0  0  0  0  0  0  0  0  0  0
    9.7791  -18.3408   18.9666 C   0  0  2  0  0  0  0  0  0  0  0  0
    9.2862  -18.8468   17.6964 N   0  0  0  0  0  0  0  0  0  0  0  0
    9.6425  -19.3982   20.0111 C   0  0  0  0  0  0  0  0  0  0  0  0
    8.8808  -20.3812   19.8803 O   0  0  0  0  0  0  0  0  0  0  0  0
   10.4003  -19.2625   21.1624 O   0  0  0  0  0  0  0  0  0  0  0  0
  2  1  1  0
  2  3  1  0
  3  4  1  6
  5  6  2  0
  5  3  1  0
  8  7  1  6
  8 10  1  0
  9  8  1  0
 10 12  1  0
 10 11  1  6
 11  5  1  0
 12 13  2  0
 15 14  1  0
 16 15  2  0
 17 15  1  0
 18 19  1  0
 18 17  1  0
 20 19  1  0
 21 20  1  1
 22 12  1  0
 22 21  1  0
 23 25  1  0
 23 21  1  0
 24 23  2  0
M  END
$$$$
