STR.pdb
     RDKit          3D

 25 24  0  0  1  0  0  0  0  0999 V2000
   14.0251  -16.7966   18.5206 O   0  0  0  0  0  0  0  0  0  0  0  0
   12.7431  -16.5839   18.9587 C   0  0  0  0  0  0  0  0  0  0  0  0
   12.3556  -15.1444   18.7224 C   0  0  2  0  0  0  0  0  0  0  0  0
   13.5523  -14.2986   18.6279 N   0  0  0  0  0  0  0  0  0  0  0  0
   11.5235  -14.5707   19.8102 C   0  0  0  0  0  0  0  0  0  0  0  0
   12.0081  -13.7626   20.6785 O   0  0  0  0  0  0  0  0  0  0  0  0
    8.0595  -12.8700   19.6300 C   0  0  0  0  0  0  0  0  0  0  0  0
    7.9659  -14.0546   20.5713 C   0  0  1  0  0  0  0  0  0  0  0  0
    7.4847  -15.1300   19.8454 O   0  0  0  0  0  0  0  0  0  0  0  0
    9.3619  -14.3057   21.1064 C   0  0  2  0  0  0  0  0  0  0  0  0
   10.1376  -14.8585   19.9861 N   0  0  0  0  0  0  0  0  0  0  0  0
    9.2657  -15.3939   22.1211 C   0  0  0  0  0  0  0  0  0  0  0  0
    9.9556  -16.4597   22.0461 O   0  0  0  0  0  0  0  0  0  0  0  0
    5.2474  -11.0957   26.0004 N   0  0  0  0  0  0  0  0  0  0  0  0
    6.0289  -11.5434   27.0908 C   0  0  0  0  0  0  0  0  0  0  0  0
    6.3465  -10.7074   28.0118 N   0  0  0  0  0  0  0  0  0  0  0  0
    6.4460  -12.8970   27.1492 N   0  0  0  0  0  0  0  0  0  0  0  0
    6.3567  -13.7851   26.0160 C   0  0  0  0  0  0  0  0  0  0  0  0
    7.5438  -14.7026   25.9541 C   0  0  0  0  0  0  0  0  0  0  0  0
    7.2791  -16.0014   25.2745 C   0  0  0  0  0  0  0  0  0  0  0  0
    8.2937  -16.3877   24.2258 C   0  0  2  0  0  0  0  0  0  0  0  0
    8.3905  -15.3148   23.2500 N   0  0  0  0  0  0  0  0  0  0  0  0
    7.7298  -17.6056   23.5729 C   0  0  0  0  0  0  0  0  0  0  0  0
    7.2361  -17.5881   22.4243 O   0  0  0  0  0  0  0  0  0  0  0  0
    7.7664  -18.7907   24.2887 O   0  0  0  0  0  0  0  0  0  0  0  0
  2  1  1  0
  2  3  1  0
  3  4  1  1
  5  6  2  0
  5  3  1  0
  8  7  1  6
  8 10  1  0
  9  8  1  0
 10 12  1  0
 10 11  1  6
 11  5  1  0
 12 13  2  0
 15 14  1  0
 16 15  2  0
 17 15  1  0
 18 19  1  0
 18 17  1  0
 20 19  1  0
 21 20  1  1
 22 12  1  0
 22 21  1  0
 23 25  1  0
 23 21  1  0
 24 23  2  0
M  END
$$$$
