STR.pdb
     RDKit          3D

 25 24  0  0  1  0  0  0  0  0999 V2000
    9.3325  -17.7843   15.5054 O   0  0  0  0  0  0  0  0  0  0  0  0
    8.1262  -17.1334   15.4639 C   0  0  0  0  0  0  0  0  0  0  0  0
    8.3531  -15.6444   15.3667 C   0  0  2  0  0  0  0  0  0  0  0  0
    9.1422  -15.3214   14.1712 N   0  0  0  0  0  0  0  0  0  0  0  0
    9.0976  -15.0839   16.5227 C   0  0  0  0  0  0  0  0  0  0  0  0
   10.3444  -14.7975   16.4500 O   0  0  0  0  0  0  0  0  0  0  0  0
    7.5980  -12.4216   19.1232 C   0  0  0  0  0  0  0  0  0  0  0  0
    8.2294  -13.6036   19.8319 C   0  0  1  0  0  0  0  0  0  0  0  0
    7.2212  -14.5058   20.1225 O   0  0  0  0  0  0  0  0  0  0  0  0
    9.2619  -14.1860   18.8869 C   0  0  2  0  0  0  0  0  0  0  0  0
    8.5077  -14.8172   17.7936 N   0  0  0  0  0  0  0  0  0  0  0  0
    9.9556  -15.2931   19.6055 C   0  0  0  0  0  0  0  0  0  0  0  0
    9.4833  -16.4727   19.6596 O   0  0  0  0  0  0  0  0  0  0  0  0
   16.7018  -12.8704   18.4896 N   0  0  0  0  0  0  0  0  0  0  0  0
   16.5256  -14.1198   17.8507 C   0  0  0  0  0  0  0  0  0  0  0  0
   17.1635  -14.3559   16.7620 N   0  0  0  0  0  0  0  0  0  0  0  0
   15.6545  -15.0838   18.4178 N   0  0  0  0  0  0  0  0  0  0  0  0
   14.9392  -14.8530   19.6489 C   0  0  0  0  0  0  0  0  0  0  0  0
   14.0965  -16.0408   20.0147 C   0  0  0  0  0  0  0  0  0  0  0  0
   13.2786  -15.8557   21.2459 C   0  0  0  0  0  0  0  0  0  0  0  0
   11.8085  -16.1566   21.0828 C   0  0  2  0  0  0  0  0  0  0  0  0
   11.2008  -15.1053   20.2840 N   0  0  0  0  0  0  0  0  0  0  0  0
   11.2504  -16.1169   22.4665 C   0  0  0  0  0  0  0  0  0  0  0  0
   10.4370  -15.2443   22.8410 O   0  0  0  0  0  0  0  0  0  0  0  0
   11.6657  -17.0970   23.3526 O   0  0  0  0  0  0  0  0  0  0  0  0
  2  1  1  0
  2  3  1  0
  3  4  1  6
  5  6  2  0
  5  3  1  0
  8  7  1  6
  8 10  1  0
  9  8  1  0
 10 12  1  0
 10 11  1  6
 11  5  1  0
 12 13  2  0
 15 14  1  0
 16 15  2  0
 17 15  1  0
 18 19  1  0
 18 17  1  0
 20 19  1  0
 21 20  1  1
 22 12  1  0
 22 21  1  0
 23 25  1  0
 23 21  1  0
 24 23  2  0
M  END
$$$$
