STR.pdb
     RDKit          3D

 25 24  0  0  1  0  0  0  0  0999 V2000
    5.6736  -18.0219   22.7889 O   0  0  0  0  0  0  0  0  0  0  0  0
    4.6443  -17.2771   22.2728 C   0  0  0  0  0  0  0  0  0  0  0  0
    4.7524  -17.2312   20.7681 C   0  0  2  0  0  0  0  0  0  0  0  0
    4.4676  -18.5513   20.1915 N   0  0  0  0  0  0  0  0  0  0  0  0
    6.1026  -16.8466   20.2845 C   0  0  0  0  0  0  0  0  0  0  0  0
    6.9572  -17.7198   19.8983 O   0  0  0  0  0  0  0  0  0  0  0  0
    7.2927  -12.8500   20.1731 C   0  0  0  0  0  0  0  0  0  0  0  0
    7.8056  -13.7864   19.0970 C   0  0  1  0  0  0  0  0  0  0  0  0
    9.0345  -13.3089   18.6764 O   0  0  0  0  0  0  0  0  0  0  0  0
    7.9118  -15.1632   19.7225 C   0  0  2  0  0  0  0  0  0  0  0  0
    6.5643  -15.4994   20.2058 N   0  0  0  0  0  0  0  0  0  0  0  0
    8.7692  -15.0410   20.9362 C   0  0  0  0  0  0  0  0  0  0  0  0
    8.3747  -14.4557   21.9942 O   0  0  0  0  0  0  0  0  0  0  0  0
   10.5916  -20.7603   26.6035 N   0  0  0  0  0  0  0  0  0  0  0  0
   11.1958  -19.5926   27.1247 C   0  0  0  0  0  0  0  0  0  0  0  0
   11.6718  -19.6189   28.3167 N   0  0  0  0  0  0  0  0  0  0  0  0
   11.2657  -18.4212   26.3294 N   0  0  0  0  0  0  0  0  0  0  0  0
   10.6025  -18.3101   25.0532 C   0  0  0  0  0  0  0  0  0  0  0  0
   11.0140  -17.0553   24.3383 C   0  0  0  0  0  0  0  0  0  0  0  0
   10.3934  -16.8843   22.9950 C   0  0  0  0  0  0  0  0  0  0  0  0
   10.8383  -15.6542   22.2419 C   0  0  2  0  0  0  0  0  0  0  0  0
   10.0955  -15.5739   20.9951 N   0  0  0  0  0  0  0  0  0  0  0  0
   12.2834  -15.8835   21.9471 C   0  0  0  0  0  0  0  0  0  0  0  0
   13.1618  -15.8828   22.8370 O   0  0  0  0  0  0  0  0  0  0  0  0
   12.6404  -16.1034   20.6271 O   0  0  0  0  0  0  0  0  0  0  0  0
  2  1  1  0
  2  3  1  0
  3  4  1  6
  5  6  2  0
  5  3  1  0
  8  7  1  1
  8 10  1  0
  9  8  1  0
 10 12  1  0
 10 11  1  1
 11  5  1  0
 12 13  2  0
 15 14  1  0
 16 15  2  0
 17 15  1  0
 18 19  1  0
 18 17  1  0
 20 19  1  0
 21 20  1  1
 22 12  1  0
 22 21  1  0
 23 25  1  0
 23 21  1  0
 24 23  2  0
M  END
$$$$
