STR.pdb
     RDKit          3D

 25 24  0  0  1  0  0  0  0  0999 V2000
   12.7908  -15.8226   21.9279 O   0  0  0  0  0  0  0  0  0  0  0  0
   12.9471  -17.1310   21.5477 C   0  0  0  0  0  0  0  0  0  0  0  0
   11.5975  -17.8009   21.4590 C   0  0  2  0  0  0  0  0  0  0  0  0
   10.7602  -17.1392   20.4505 N   0  0  0  0  0  0  0  0  0  0  0  0
   10.8323  -17.7581   22.7307 C   0  0  0  0  0  0  0  0  0  0  0  0
    9.8368  -16.9683   22.8952 O   0  0  0  0  0  0  0  0  0  0  0  0
    9.7650  -20.8903   24.8391 C   0  0  0  0  0  0  0  0  0  0  0  0
   10.4608  -19.8904   25.7414 C   0  0  1  0  0  0  0  0  0  0  0  0
   11.7849  -20.2766   25.8528 O   0  0  0  0  0  0  0  0  0  0  0  0
   10.3158  -18.5299   25.0888 C   0  0  2  0  0  0  0  0  0  0  0  0
   11.1266  -18.5742   23.8628 N   0  0  0  0  0  0  0  0  0  0  0  0
   10.9689  -17.5305   25.9821 C   0  0  0  0  0  0  0  0  0  0  0  0
   12.1939  -17.2093   25.8657 O   0  0  0  0  0  0  0  0  0  0  0  0
    5.5452  -11.9140   27.0674 N   0  0  0  0  0  0  0  0  0  0  0  0
    6.3790  -11.9696   25.9264 C   0  0  0  0  0  0  0  0  0  0  0  0
    6.0223  -11.3408   24.8656 N   0  0  0  0  0  0  0  0  0  0  0  0
    7.5853  -12.7128   25.9716 N   0  0  0  0  0  0  0  0  0  0  0  0
    8.0797  -13.3149   27.1856 C   0  0  0  0  0  0  0  0  0  0  0  0
    9.2796  -14.1753   26.9118 C   0  0  0  0  0  0  0  0  0  0  0  0
    9.9135  -14.7482   28.1319 C   0  0  0  0  0  0  0  0  0  0  0  0
   10.8985  -15.8621   27.8724 C   0  0  2  0  0  0  0  0  0  0  0  0
   10.2628  -16.8634   27.0322 N   0  0  0  0  0  0  0  0  0  0  0  0
   11.1833  -16.4467   29.2158 C   0  0  0  0  0  0  0  0  0  0  0  0
   11.8028  -15.8234   30.1052 O   0  0  0  0  0  0  0  0  0  0  0  0
   10.7330  -17.7330   29.4627 O   0  0  0  0  0  0  0  0  0  0  0  0
  2  1  1  0
  2  3  1  0
  3  4  1  6
  5  6  2  0
  5  3  1  0
  8  7  1  6
  8 10  1  0
  9  8  1  0
 10 12  1  0
 10 11  1  6
 11  5  1  0
 12 13  2  0
 15 14  1  0
 16 15  2  0
 17 15  1  0
 18 19  1  0
 18 17  1  0
 20 19  1  0
 21 20  1  1
 22 12  1  0
 22 21  1  0
 23 25  1  0
 23 21  1  0
 24 23  2  0
M  END
$$$$
