STR.pdb
     RDKit          3D

 25 24  0  0  1  0  0  0  0  0999 V2000
    7.3914  -13.3666   20.1711 O   0  0  0  0  0  0  0  0  0  0  0  0
    8.1730  -12.3496   19.6858 C   0  0  0  0  0  0  0  0  0  0  0  0
    8.7560  -12.7466   18.3515 C   0  0  2  0  0  0  0  0  0  0  0  0
    7.6859  -13.0327   17.3874 N   0  0  0  0  0  0  0  0  0  0  0  0
    9.5984  -13.9677   18.4150 C   0  0  0  0  0  0  0  0  0  0  0  0
    9.2188  -15.0792   17.9028 O   0  0  0  0  0  0  0  0  0  0  0  0
   12.2637  -14.7435   16.7810 C   0  0  0  0  0  0  0  0  0  0  0  0
   12.8453  -15.0436   18.1484 C   0  0  1  0  0  0  0  0  0  0  0  0
   13.6262  -13.9627   18.5185 O   0  0  0  0  0  0  0  0  0  0  0  0
   11.6760  -15.2524   19.0904 C   0  0  2  0  0  0  0  0  0  0  0  0
   10.8808  -14.0166   19.0376 N   0  0  0  0  0  0  0  0  0  0  0  0
   12.2230  -15.3348   20.4750 C   0  0  0  0  0  0  0  0  0  0  0  0
   12.6040  -14.3073   21.1203 O   0  0  0  0  0  0  0  0  0  0  0  0
   11.4699  -21.7424   26.7824 N   0  0  0  0  0  0  0  0  0  0  0  0
   12.1441  -20.6440   27.3647 C   0  0  0  0  0  0  0  0  0  0  0  0
   12.3294  -20.6317   28.6349 N   0  0  0  0  0  0  0  0  0  0  0  0
   12.6008  -19.5825   26.5434 N   0  0  0  0  0  0  0  0  0  0  0  0
   12.2437  -19.4717   25.1502 C   0  0  0  0  0  0  0  0  0  0  0  0
   12.7135  -18.1668   24.5745 C   0  0  0  0  0  0  0  0  0  0  0  0
   12.3529  -17.9636   23.1436 C   0  0  0  0  0  0  0  0  0  0  0  0
   12.7739  -16.6345   22.5653 C   0  0  2  0  0  0  0  0  0  0  0  0
   12.3570  -16.5757   21.1741 N   0  0  0  0  0  0  0  0  0  0  0  0
   14.2646  -16.6359   22.6391 C   0  0  0  0  0  0  0  0  0  0  0  0
   14.8880  -16.3897   23.6947 O   0  0  0  0  0  0  0  0  0  0  0  0
   14.9628  -16.9245   21.4783 O   0  0  0  0  0  0  0  0  0  0  0  0
  2  1  1  0
  2  3  1  0
  3  4  1  6
  5  6  2  0
  5  3  1  0
  8  7  1  6
  8 10  1  0
  9  8  1  0
 10 12  1  0
 10 11  1  1
 11  5  1  0
 12 13  2  0
 15 14  1  0
 16 15  2  0
 17 15  1  0
 18 19  1  0
 18 17  1  0
 20 19  1  0
 21 20  1  6
 22 12  1  0
 22 21  1  0
 23 25  1  0
 23 21  1  0
 24 23  2  0
M  END
$$$$
