QWV.pdb
     RDKit          3D

 31 32  0  0  1  0  0  0  0  0999 V2000
   27.5132  -21.2996  -18.0678 N   0  0  0  0  0  0  0  0  0  0  0  0
   28.3792  -20.1853  -17.9306 C   0  0  0  0  0  0  0  0  0  0  0  0
   29.0070  -19.8002  -18.9408 O   0  0  0  0  0  0  0  0  0  0  0  0
   28.5400  -19.4958  -16.6422 C   0  0  0  0  0  0  0  0  0  0  0  0
   27.6830  -19.9863  -15.5326 C   0  0  0  0  0  0  0  0  0  0  0  0
   28.3367  -20.9118  -14.5619 C   0  0  2  0  0  0  0  0  0  0  0  0
   28.5594  -22.1789  -15.2353 N   0  0  0  0  0  0  0  0  0  0  0  0
   27.4750  -21.1890  -13.3772 C   0  0  0  0  0  0  0  0  0  0  0  0
   26.4796  -21.9417  -13.4959 O   0  0  0  0  0  0  0  0  0  0  0  0
   27.7317  -20.6335  -12.1036 N   0  0  0  0  0  0  0  0  0  0  0  0
   26.9439  -20.7578  -10.9170 C   0  0  1  0  0  0  0  0  0  0  0  0
   27.6168  -20.2118   -9.6462 C   0  0  0  0  0  0  0  0  0  0  0  0
   26.8104  -20.4135   -8.4489 C   0  0  0  0  0  0  0  0  0  0  0  0
   25.5598  -20.9329   -8.3304 C   0  0  0  0  0  0  0  0  0  0  0  0
   25.1842  -20.9509   -7.0246 N   0  0  0  0  0  0  0  0  0  0  0  0
   26.1902  -20.4439   -6.2925 C   0  0  0  0  0  0  0  0  0  0  0  0
   26.3077  -20.2474   -4.9125 C   0  0  0  0  0  0  0  0  0  0  0  0
   27.4738  -19.7073   -4.4711 C   0  0  0  0  0  0  0  0  0  0  0  0
   28.5074  -19.3598   -5.3130 C   0  0  0  0  0  0  0  0  0  0  0  0
   28.3739  -19.5595   -6.6614 C   0  0  0  0  0  0  0  0  0  0  0  0
   27.2080  -20.1033   -7.1417 C   0  0  0  0  0  0  0  0  0  0  0  0
   25.5997  -20.2115  -10.9700 C   0  0  0  0  0  0  0  0  0  0  0  0
   25.4765  -18.9426  -10.9719 O   0  0  0  0  0  0  0  0  0  0  0  0
   21.2896  -20.3297  -13.0542 C   0  0  0  0  0  0  0  0  0  0  0  0
   22.6079  -20.9613  -12.7104 C   0  0  1  0  0  0  0  0  0  0  0  0
   23.5983  -20.5919  -13.7916 C   0  0  0  0  0  0  0  0  0  0  0  0
   23.1126  -20.4229  -11.4199 C   0  0  2  0  0  0  0  0  0  0  0  0
   24.3984  -20.9406  -11.0202 N   0  0  0  0  0  0  0  0  0  0  0  0
   22.1312  -20.7141  -10.3519 C   0  0  0  0  0  0  0  0  0  0  0  0
   21.2635  -19.7815   -9.8048 O   0  0  0  0  0  0  0  0  0  0  0  0
   22.0475  -21.8787   -9.8794 O   0  0  0  0  0  0  0  0  0  0  0  0
  2  1  1  0
  3  2  2  0
  4  2  1  0
  5  4  1  0
  6  5  1  0
  6  7  1  6
  8  6  1  0
  8  9  2  0
 10  8  1  0
 11 12  1  1
 11 10  1  0
 13 12  1  0
 13 14  2  0
 15 14  1  0
 16 15  1  0
 17 16  2  0
 18 17  1  0
 19 18  2  0
 19 20  1  0
 20 21  2  0
 21 16  1  0
 21 13  1  0
 22 11  1  0
 23 22  2  0
 25 24  1  6
 26 25  1  0
 27 25  1  0
 27 28  1  1
 28 22  1  0
 29 27  1  0
 29 30  1  0
 31 29  2  0
M  END
$$$$
