QWV.pdb
     RDKit          3D

 31 32  0  0  1  0  0  0  0  0999 V2000
   29.9264  -24.6781  -16.1257 N   0  0  0  0  0  0  0  0  0  0  0  0
   30.9456  -24.2919  -17.0325 C   0  0  0  0  0  0  0  0  0  0  0  0
   31.7485  -25.1672  -17.4228 O   0  0  0  0  0  0  0  0  0  0  0  0
   31.0624  -22.9052  -17.5064 C   0  0  0  0  0  0  0  0  0  0  0  0
   30.0798  -21.9430  -16.9451 C   0  0  0  0  0  0  0  0  0  0  0  0
   28.7303  -21.9411  -17.5814 C   0  0  2  0  0  0  0  0  0  0  0  0
   28.8607  -21.3492  -18.9009 N   0  0  0  0  0  0  0  0  0  0  0  0
   27.7492  -21.1131  -16.8231 C   0  0  0  0  0  0  0  0  0  0  0  0
   27.9780  -19.8948  -16.6366 O   0  0  0  0  0  0  0  0  0  0  0  0
   26.5518  -21.6461  -16.2952 N   0  0  0  0  0  0  0  0  0  0  0  0
   25.5324  -20.9593  -15.5651 C   0  0  1  0  0  0  0  0  0  0  0  0
   24.1545  -20.9531  -16.2485 C   0  0  0  0  0  0  0  0  0  0  0  0
   23.1508  -20.2175  -15.4895 C   0  0  0  0  0  0  0  0  0  0  0  0
   23.2142  -18.9644  -14.9664 C   0  0  0  0  0  0  0  0  0  0  0  0
   22.0471  -18.6610  -14.3401 N   0  0  0  0  0  0  0  0  0  0  0  0
   21.2233  -19.7161  -14.4556 C   0  0  0  0  0  0  0  0  0  0  0  0
   19.9176  -19.9112  -13.9931 C   0  0  0  0  0  0  0  0  0  0  0  0
   19.3423  -21.1085  -14.2796 C   0  0  0  0  0  0  0  0  0  0  0  0
   19.9846  -22.1008  -14.9874 C   0  0  0  0  0  0  0  0  0  0  0  0
   21.2630  -21.8913  -15.4320 C   0  0  0  0  0  0  0  0  0  0  0  0
   21.8746  -20.6924  -15.1595 C   0  0  0  0  0  0  0  0  0  0  0  0
   25.3351  -21.3670  -14.1855 C   0  0  0  0  0  0  0  0  0  0  0  0
   25.1590  -22.6085  -13.9550 O   0  0  0  0  0  0  0  0  0  0  0  0
   25.6464  -20.7238   -9.3112 C   0  0  0  0  0  0  0  0  0  0  0  0
   25.9557  -20.2348  -10.6969 C   0  0  1  0  0  0  0  0  0  0  0  0
   27.4053  -20.5488  -10.9901 C   0  0  0  0  0  0  0  0  0  0  0  0
   25.1180  -20.9540  -11.6925 C   0  0  2  0  0  0  0  0  0  0  0  0
   25.3166  -20.5288  -13.0567 N   0  0  0  0  0  0  0  0  0  0  0  0
   23.6904  -20.7820  -11.3452 C   0  0  0  0  0  0  0  0  0  0  0  0
   22.9788  -21.6217  -10.5023 O   0  0  0  0  0  0  0  0  0  0  0  0
   23.0403  -19.8176  -11.8290 O   0  0  0  0  0  0  0  0  0  0  0  0
  2  1  1  0
  3  2  2  0
  4  2  1  0
  5  4  1  0
  6  5  1  0
  6  7  1  6
  8  6  1  0
  8  9  2  0
 10  8  1  0
 11 12  1  6
 11 10  1  0
 13 12  1  0
 13 14  2  0
 15 14  1  0
 16 15  1  0
 17 16  2  0
 18 17  1  0
 19 18  2  0
 19 20  1  0
 20 21  2  0
 21 16  1  0
 21 13  1  0
 22 11  1  0
 23 22  2  0
 25 24  1  1
 26 25  1  0
 27 25  1  0
 27 28  1  6
 28 22  1  0
 29 27  1  0
 29 30  1  0
 31 29  2  0
M  END
$$$$
