QWV.pdb
     RDKit          3D

 31 32  0  0  1  0  0  0  0  0999 V2000
   28.6348  -22.4121  -18.4050 N   0  0  0  0  0  0  0  0  0  0  0  0
   29.3927  -21.8200  -17.3632 C   0  0  0  0  0  0  0  0  0  0  0  0
   30.5027  -22.3228  -17.0842 O   0  0  0  0  0  0  0  0  0  0  0  0
   28.8963  -20.6481  -16.6273 C   0  0  0  0  0  0  0  0  0  0  0  0
   27.9068  -20.9269  -15.5551 C   0  0  0  0  0  0  0  0  0  0  0  0
   28.4495  -21.5421  -14.3089 C   0  0  2  0  0  0  0  0  0  0  0  0
   28.8355  -22.9075  -14.6177 N   0  0  0  0  0  0  0  0  0  0  0  0
   27.4313  -21.6084  -13.2217 C   0  0  0  0  0  0  0  0  0  0  0  0
   26.4410  -22.3671  -13.3438 O   0  0  0  0  0  0  0  0  0  0  0  0
   27.5316  -20.8426  -12.0384 N   0  0  0  0  0  0  0  0  0  0  0  0
   26.5236  -20.6200  -11.0492 C   0  0  1  0  0  0  0  0  0  0  0  0
   26.9373  -19.6552   -9.9250 C   0  0  0  0  0  0  0  0  0  0  0  0
   26.5155  -20.1106   -8.6062 C   0  0  0  0  0  0  0  0  0  0  0  0
   25.3888  -20.7805   -8.2461 C   0  0  0  0  0  0  0  0  0  0  0  0
   25.3965  -21.0209   -6.9088 N   0  0  0  0  0  0  0  0  0  0  0  0
   26.5284  -20.5081   -6.3977 C   0  0  0  0  0  0  0  0  0  0  0  0
   27.0135  -20.4915   -5.0858 C   0  0  0  0  0  0  0  0  0  0  0  0
   28.2147  -19.8878   -4.8880 C   0  0  0  0  0  0  0  0  0  0  0  0
   28.9432  -19.3120   -5.9058 C   0  0  0  0  0  0  0  0  0  0  0  0
   28.4518  -19.3381   -7.1840 C   0  0  0  0  0  0  0  0  0  0  0  0
   27.2402  -19.9400   -7.4193 C   0  0  0  0  0  0  0  0  0  0  0  0
   25.2217  -20.1964  -11.5328 C   0  0  0  0  0  0  0  0  0  0  0  0
   25.1516  -19.0779  -12.1407 O   0  0  0  0  0  0  0  0  0  0  0  0
   21.0102  -20.7467  -13.6736 C   0  0  0  0  0  0  0  0  0  0  0  0
   22.3227  -21.2633  -13.1582 C   0  0  1  0  0  0  0  0  0  0  0  0
   23.3633  -21.0496  -14.2342 C   0  0  0  0  0  0  0  0  0  0  0  0
   22.7388  -20.4947  -11.9557 C   0  0  2  0  0  0  0  0  0  0  0  0
   24.0090  -20.8960  -11.4020 N   0  0  0  0  0  0  0  0  0  0  0  0
   21.7021  -20.6267  -10.9086 C   0  0  0  0  0  0  0  0  0  0  0  0
   20.6328  -19.7594  -10.7461 O   0  0  0  0  0  0  0  0  0  0  0  0
   21.7596  -21.5802  -10.0875 O   0  0  0  0  0  0  0  0  0  0  0  0
  2  1  1  0
  3  2  2  0
  4  2  1  0
  5  4  1  0
  6  5  1  0
  6  7  1  6
  8  6  1  0
  8  9  2  0
 10  8  1  0
 11 12  1  1
 11 10  1  0
 13 12  1  0
 13 14  2  0
 15 14  1  0
 16 15  1  0
 17 16  2  0
 18 17  1  0
 19 18  2  0
 19 20  1  0
 20 21  2  0
 21 16  1  0
 21 13  1  0
 22 11  1  0
 23 22  2  0
 25 24  1  6
 26 25  1  0
 27 25  1  0
 27 28  1  1
 28 22  1  0
 29 27  1  0
 29 30  1  0
 31 29  2  0
M  END
$$$$
