QWV.pdb
     RDKit          3D

 31 32  0  0  1  0  0  0  0  0999 V2000
   27.9675  -22.7229  -17.3735 N   0  0  0  0  0  0  0  0  0  0  0  0
   29.2195  -22.0763  -17.2168 C   0  0  0  0  0  0  0  0  0  0  0  0
   29.9123  -21.8802  -18.2388 O   0  0  0  0  0  0  0  0  0  0  0  0
   29.6973  -21.6447  -15.8952 C   0  0  0  0  0  0  0  0  0  0  0  0
   28.7751  -21.8962  -14.7582 C   0  0  0  0  0  0  0  0  0  0  0  0
   27.5674  -21.0228  -14.6907 C   0  0  2  0  0  0  0  0  0  0  0  0
   28.0092  -19.6749  -14.3800 N   0  0  0  0  0  0  0  0  0  0  0  0
   26.6292  -21.4383  -13.6089 C   0  0  0  0  0  0  0  0  0  0  0  0
   26.1793  -22.6082  -13.5927 O   0  0  0  0  0  0  0  0  0  0  0  0
   26.2157  -20.5600  -12.5823 N   0  0  0  0  0  0  0  0  0  0  0  0
   25.2320  -20.7931  -11.5713 C   0  0  1  0  0  0  0  0  0  0  0  0
   25.6049  -20.2473  -10.1825 C   0  0  0  0  0  0  0  0  0  0  0  0
   26.9385  -20.6523   -9.7559 C   0  0  0  0  0  0  0  0  0  0  0  0
   27.7998  -21.5283  -10.3378 C   0  0  0  0  0  0  0  0  0  0  0  0
   28.9470  -21.6050   -9.6137 N   0  0  0  0  0  0  0  0  0  0  0  0
   28.8333  -20.7787   -8.5604 C   0  0  0  0  0  0  0  0  0  0  0  0
   29.7273  -20.4909   -7.5237 C   0  0  0  0  0  0  0  0  0  0  0  0
   29.3124  -19.5915   -6.5934 C   0  0  0  0  0  0  0  0  0  0  0  0
   28.0805  -18.9763   -6.6397 C   0  0  0  0  0  0  0  0  0  0  0  0
   27.2186  -19.2710   -7.6625 C   0  0  0  0  0  0  0  0  0  0  0  0
   27.6059  -20.1762   -8.6198 C   0  0  0  0  0  0  0  0  0  0  0  0
   23.8804  -20.3522  -11.8666 C   0  0  0  0  0  0  0  0  0  0  0  0
   23.6507  -19.0983  -11.8518 O   0  0  0  0  0  0  0  0  0  0  0  0
   22.0642  -20.4170  -14.9623 C   0  0  0  0  0  0  0  0  0  0  0  0
   21.1269  -21.0835  -13.9967 C   0  0  1  0  0  0  0  0  0  0  0  0
   21.2954  -22.5793  -14.1397 C   0  0  0  0  0  0  0  0  0  0  0  0
   21.4796  -20.7115  -12.6012 C   0  0  2  0  0  0  0  0  0  0  0  0
   22.7783  -21.1702  -12.1723 N   0  0  0  0  0  0  0  0  0  0  0  0
   20.4572  -21.2515  -11.6784 C   0  0  0  0  0  0  0  0  0  0  0  0
   19.1721  -20.7485  -11.5463 O   0  0  0  0  0  0  0  0  0  0  0  0
   20.7348  -22.2364  -10.9439 O   0  0  0  0  0  0  0  0  0  0  0  0
  2  1  1  0
  3  2  2  0
  4  2  1  0
  5  4  1  0
  6  5  1  0
  6  7  1  1
  8  6  1  0
  8  9  2  0
 10  8  1  0
 11 12  1  1
 11 10  1  0
 13 12  1  0
 13 14  2  0
 15 14  1  0
 16 15  1  0
 17 16  2  0
 18 17  1  0
 19 18  2  0
 19 20  1  0
 20 21  2  0
 21 16  1  0
 21 13  1  0
 22 11  1  0
 23 22  2  0
 25 24  1  6
 26 25  1  0
 27 25  1  0
 27 28  1  1
 28 22  1  0
 29 27  1  0
 29 30  1  0
 31 29  2  0
M  END
$$$$
