QWV.pdb
     RDKit          3D

 31 32  0  0  1  0  0  0  0  0999 V2000
   26.5520  -18.4458  -16.7252 N   0  0  0  0  0  0  0  0  0  0  0  0
   27.8996  -18.2346  -17.1119 C   0  0  0  0  0  0  0  0  0  0  0  0
   28.1918  -17.1482  -17.6572 O   0  0  0  0  0  0  0  0  0  0  0  0
   28.9305  -19.2571  -16.8819 C   0  0  0  0  0  0  0  0  0  0  0  0
   28.5134  -20.4267  -16.0666 C   0  0  0  0  0  0  0  0  0  0  0  0
   28.4274  -20.1997  -14.5945 C   0  0  2  0  0  0  0  0  0  0  0  0
   29.7343  -20.4743  -14.0243 N   0  0  0  0  0  0  0  0  0  0  0  0
   27.4581  -21.1219  -13.9362 C   0  0  0  0  0  0  0  0  0  0  0  0
   27.6724  -22.3569  -13.9443 O   0  0  0  0  0  0  0  0  0  0  0  0
   26.2879  -20.6613  -13.2920 N   0  0  0  0  0  0  0  0  0  0  0  0
   25.4039  -21.3998  -12.4451 C   0  0  1  0  0  0  0  0  0  0  0  0
   26.0768  -22.0193  -11.2085 C   0  0  0  0  0  0  0  0  0  0  0  0
   26.3253  -21.0451  -10.1531 C   0  0  0  0  0  0  0  0  0  0  0  0
   25.5133  -20.0637   -9.6785 C   0  0  0  0  0  0  0  0  0  0  0  0
   26.1357  -19.3865   -8.6784 N   0  0  0  0  0  0  0  0  0  0  0  0
   27.3529  -19.9270   -8.5010 C   0  0  0  0  0  0  0  0  0  0  0  0
   28.3757  -19.6015   -7.6040 C   0  0  0  0  0  0  0  0  0  0  0  0
   29.5067  -20.3518   -7.6712 C   0  0  0  0  0  0  0  0  0  0  0  0
   29.6697  -21.3872   -8.5653 C   0  0  0  0  0  0  0  0  0  0  0  0
   28.6570  -21.6911   -9.4359 C   0  0  0  0  0  0  0  0  0  0  0  0
   27.5001  -20.9525   -9.3953 C   0  0  0  0  0  0  0  0  0  0  0  0
   24.2092  -20.7090  -11.9936 C   0  0  0  0  0  0  0  0  0  0  0  0
   24.3348  -19.5002  -11.6084 O   0  0  0  0  0  0  0  0  0  0  0  0
   20.7639  -20.2740  -14.8756 C   0  0  0  0  0  0  0  0  0  0  0  0
   21.9728  -20.8231  -14.1740 C   0  0  1  0  0  0  0  0  0  0  0  0
   23.1518  -19.9402  -14.5155 C   0  0  0  0  0  0  0  0  0  0  0  0
   21.7747  -20.7780  -12.7013 C   0  0  2  0  0  0  0  0  0  0  0  0
   22.9068  -21.2357  -11.9334 N   0  0  0  0  0  0  0  0  0  0  0  0
   20.5957  -21.5960  -12.3417 C   0  0  0  0  0  0  0  0  0  0  0  0
   19.4257  -21.0924  -11.7946 O   0  0  0  0  0  0  0  0  0  0  0  0
   20.6170  -22.8413  -12.5299 O   0  0  0  0  0  0  0  0  0  0  0  0
  2  1  1  0
  3  2  2  0
  4  2  1  0
  5  4  1  0
  6  5  1  0
  6  7  1  1
  8  6  1  0
  8  9  2  0
 10  8  1  0
 11 12  1  1
 11 10  1  0
 13 12  1  0
 13 14  2  0
 15 14  1  0
 16 15  1  0
 17 16  2  0
 18 17  1  0
 19 18  2  0
 19 20  1  0
 20 21  2  0
 21 16  1  0
 21 13  1  0
 22 11  1  0
 23 22  2  0
 25 24  1  6
 26 25  1  0
 27 25  1  0
 27 28  1  1
 28 22  1  0
 29 27  1  0
 29 30  1  0
 31 29  2  0
M  END
$$$$
