QWV.pdb
     RDKit          3D

 31 32  0  0  1  0  0  0  0  0999 V2000
   26.2273  -15.0820  -15.1685 N   0  0  0  0  0  0  0  0  0  0  0  0
   25.9055  -14.1747  -16.2093 C   0  0  0  0  0  0  0  0  0  0  0  0
   26.5082  -14.2910  -17.2985 O   0  0  0  0  0  0  0  0  0  0  0  0
   24.8935  -13.1247  -16.0230 C   0  0  0  0  0  0  0  0  0  0  0  0
   24.4051  -12.4674  -17.2623 C   0  0  0  0  0  0  0  0  0  0  0  0
   22.9248  -12.3323  -17.3906 C   0  0  2  0  0  0  0  0  0  0  0  0
   22.4899  -13.2020  -18.4690 N   0  0  0  0  0  0  0  0  0  0  0  0
   22.5131  -10.9454  -17.7510 C   0  0  0  0  0  0  0  0  0  0  0  0
   23.0388  -10.3782  -18.7375 O   0  0  0  0  0  0  0  0  0  0  0  0
   21.5405  -10.2268  -17.0200 N   0  0  0  0  0  0  0  0  0  0  0  0
   21.0903   -8.8876  -17.2392 C   0  0  1  0  0  0  0  0  0  0  0  0
   19.7405   -8.7814  -17.9689 C   0  0  0  0  0  0  0  0  0  0  0  0
   19.7968   -9.2818  -19.3367 C   0  0  0  0  0  0  0  0  0  0  0  0
   19.6984  -10.5592  -19.7910 C   0  0  0  0  0  0  0  0  0  0  0  0
   19.7924  -10.5806  -21.1464 N   0  0  0  0  0  0  0  0  0  0  0  0
   19.9515   -9.3172  -21.5751 C   0  0  0  0  0  0  0  0  0  0  0  0
   20.0929   -8.8015  -22.8677 C   0  0  0  0  0  0  0  0  0  0  0  0
   20.2346   -7.4543  -22.9740 C   0  0  0  0  0  0  0  0  0  0  0  0
   20.2427   -6.6110  -21.8846 C   0  0  0  0  0  0  0  0  0  0  0  0
   20.1031   -7.1345  -20.6267 C   0  0  0  0  0  0  0  0  0  0  0  0
   19.9581   -8.4925  -20.4829 C   0  0  0  0  0  0  0  0  0  0  0  0
   21.0268   -8.0249  -16.0730 C   0  0  0  0  0  0  0  0  0  0  0  0
   20.7167   -8.5595  -14.9579 O   0  0  0  0  0  0  0  0  0  0  0  0
   22.1750   -3.8456  -15.9933 C   0  0  0  0  0  0  0  0  0  0  0  0
   22.3023   -4.7677  -14.8149 C   0  0  1  0  0  0  0  0  0  0  0  0
   22.1032   -3.9500  -13.5588 C   0  0  0  0  0  0  0  0  0  0  0  0
   21.2406   -5.8072  -14.8611 C   0  0  2  0  0  0  0  0  0  0  0  0
   21.2738   -6.6411  -16.0378 N   0  0  0  0  0  0  0  0  0  0  0  0
   19.9150   -5.1556  -14.7789 C   0  0  0  0  0  0  0  0  0  0  0  0
   19.3487   -4.6683  -13.6111 O   0  0  0  0  0  0  0  0  0  0  0  0
   19.2209   -5.0151  -15.8206 O   0  0  0  0  0  0  0  0  0  0  0  0
  2  1  1  0
  3  2  2  0
  4  2  1  0
  5  4  1  0
  6  5  1  0
  6  7  1  6
  8  6  1  0
  8  9  2  0
 10  8  1  0
 11 12  1  1
 11 10  1  0
 13 12  1  0
 13 14  2  0
 15 14  1  0
 16 15  1  0
 17 16  2  0
 18 17  1  0
 19 18  2  0
 19 20  1  0
 20 21  2  0
 21 16  1  0
 21 13  1  0
 22 11  1  0
 23 22  2  0
 25 24  1  6
 26 25  1  0
 27 25  1  0
 27 28  1  6
 28 22  1  0
 29 27  1  0
 29 30  1  0
 31 29  2  0
M  END
$$$$
