QWV.pdb
     RDKit          3D

 31 32  0  0  1  0  0  0  0  0999 V2000
   29.4362  -23.7514  -16.8235 N   0  0  0  0  0  0  0  0  0  0  0  0
   30.0435  -22.4787  -16.9712 C   0  0  0  0  0  0  0  0  0  0  0  0
   30.8926  -22.3336  -17.8773 O   0  0  0  0  0  0  0  0  0  0  0  0
   29.6910  -21.3562  -16.0898 C   0  0  0  0  0  0  0  0  0  0  0  0
   28.7594  -21.6730  -14.9770 C   0  0  0  0  0  0  0  0  0  0  0  0
   27.5010  -20.8729  -14.9303 C   0  0  2  0  0  0  0  0  0  0  0  0
   27.8489  -19.5178  -14.5414 N   0  0  0  0  0  0  0  0  0  0  0  0
   26.5405  -21.3892  -13.9134 C   0  0  0  0  0  0  0  0  0  0  0  0
   26.1281  -22.5703  -13.9923 O   0  0  0  0  0  0  0  0  0  0  0  0
   26.0644  -20.5959  -12.8455 N   0  0  0  0  0  0  0  0  0  0  0  0
   25.0501  -20.9240  -11.8928 C   0  0  1  0  0  0  0  0  0  0  0  0
   25.3054  -20.3780  -10.4777 C   0  0  0  0  0  0  0  0  0  0  0  0
   26.6159  -20.7475   -9.9577 C   0  0  0  0  0  0  0  0  0  0  0  0
   27.5637  -21.5536  -10.5052 C   0  0  0  0  0  0  0  0  0  0  0  0
   28.6481  -21.6193   -9.6891 N   0  0  0  0  0  0  0  0  0  0  0  0
   28.4071  -20.8557   -8.6102 C   0  0  0  0  0  0  0  0  0  0  0  0
   29.1959  -20.5851   -7.4871 C   0  0  0  0  0  0  0  0  0  0  0  0
   28.6620  -19.7549   -6.5532 C   0  0  0  0  0  0  0  0  0  0  0  0
   27.4107  -19.1916   -6.6757 C   0  0  0  0  0  0  0  0  0  0  0  0
   26.6530  -19.4684   -7.7825 C   0  0  0  0  0  0  0  0  0  0  0  0
   27.1620  -20.3040   -8.7460 C   0  0  0  0  0  0  0  0  0  0  0  0
   23.6856  -20.5835  -12.2540 C   0  0  0  0  0  0  0  0  0  0  0  0
   23.4218  -19.3567  -12.4790 O   0  0  0  0  0  0  0  0  0  0  0  0
   19.3554  -21.6705  -14.2731 C   0  0  0  0  0  0  0  0  0  0  0  0
   20.6634  -22.1699  -13.7300 C   0  0  1  0  0  0  0  0  0  0  0  0
   21.5890  -22.4204  -14.8991 C   0  0  0  0  0  0  0  0  0  0  0  0
   21.2861  -21.1355  -12.8627 C   0  0  2  0  0  0  0  0  0  0  0  0
   22.6047  -21.4733  -12.3850 N   0  0  0  0  0  0  0  0  0  0  0  0
   20.4100  -20.8826  -11.6978 C   0  0  0  0  0  0  0  0  0  0  0  0
   19.5175  -19.8264  -11.5989 O   0  0  0  0  0  0  0  0  0  0  0  0
   20.4481  -21.6582  -10.7060 O   0  0  0  0  0  0  0  0  0  0  0  0
  2  1  1  0
  3  2  2  0
  4  2  1  0
  5  4  1  0
  6  5  1  0
  6  7  1  1
  8  6  1  0
  8  9  2  0
 10  8  1  0
 11 12  1  1
 11 10  1  0
 13 12  1  0
 13 14  2  0
 15 14  1  0
 16 15  1  0
 17 16  2  0
 18 17  1  0
 19 18  2  0
 19 20  1  0
 20 21  2  0
 21 16  1  0
 21 13  1  0
 22 11  1  0
 23 22  2  0
 25 24  1  6
 26 25  1  0
 27 25  1  0
 27 28  1  1
 28 22  1  0
 29 27  1  0
 29 30  1  0
 31 29  2  0
M  END
$$$$
