QWV.pdb
     RDKit          3D

 31 32  0  0  1  0  0  0  0  0999 V2000
   28.0494  -17.7000  -15.0630 N   0  0  0  0  0  0  0  0  0  0  0  0
   28.4351  -18.3153  -16.2807 C   0  0  0  0  0  0  0  0  0  0  0  0
   29.2255  -17.6981  -17.0273 O   0  0  0  0  0  0  0  0  0  0  0  0
   27.9265  -19.6408  -16.6625 C   0  0  0  0  0  0  0  0  0  0  0  0
   27.1023  -20.3378  -15.6420 C   0  0  0  0  0  0  0  0  0  0  0  0
   27.8305  -21.2888  -14.7523 C   0  0  2  0  0  0  0  0  0  0  0  0
   27.9071  -22.5680  -15.4353 N   0  0  0  0  0  0  0  0  0  0  0  0
   27.1140  -21.5199  -13.4653 C   0  0  0  0  0  0  0  0  0  0  0  0
   26.0893  -22.2417  -13.4461 O   0  0  0  0  0  0  0  0  0  0  0  0
   27.5430  -20.9537  -12.2439 N   0  0  0  0  0  0  0  0  0  0  0  0
   26.8496  -20.9350  -10.9938 C   0  0  1  0  0  0  0  0  0  0  0  0
   27.7198  -20.5381   -9.7892 C   0  0  0  0  0  0  0  0  0  0  0  0
   27.0046  -20.6267   -8.5222 C   0  0  0  0  0  0  0  0  0  0  0  0
   25.7345  -21.0448   -8.2777 C   0  0  0  0  0  0  0  0  0  0  0  0
   25.4697  -20.9781   -6.9466 N   0  0  0  0  0  0  0  0  0  0  0  0
   26.5674  -20.5171   -6.3239 C   0  0  0  0  0  0  0  0  0  0  0  0
   26.8143  -20.2706   -4.9693 C   0  0  0  0  0  0  0  0  0  0  0  0
   28.0491  -19.8011   -4.6505 C   0  0  0  0  0  0  0  0  0  0  0  0
   29.0303  -19.5691   -5.5893 C   0  0  0  0  0  0  0  0  0  0  0  0
   28.7699  -19.8164   -6.9110 C   0  0  0  0  0  0  0  0  0  0  0  0
   27.5319  -20.2911   -7.2683 C   0  0  0  0  0  0  0  0  0  0  0  0
   25.6349  -20.1416  -10.9369 C   0  0  0  0  0  0  0  0  0  0  0  0
   25.7216  -18.9049  -11.2342 O   0  0  0  0  0  0  0  0  0  0  0  0
   24.1138  -19.3478  -13.1359 C   0  0  0  0  0  0  0  0  0  0  0  0
   22.9110  -19.9593  -12.4769 C   0  0  1  0  0  0  0  0  0  0  0  0
   22.7759  -21.3796  -12.9776 C   0  0  0  0  0  0  0  0  0  0  0  0
   23.1031  -20.0066  -11.0034 C   0  0  2  0  0  0  0  0  0  0  0  0
   24.3516  -20.5951  -10.5838 N   0  0  0  0  0  0  0  0  0  0  0  0
   21.9912  -20.7654  -10.3899 C   0  0  0  0  0  0  0  0  0  0  0  0
   20.7070  -20.2743  -10.2121 O   0  0  0  0  0  0  0  0  0  0  0  0
   22.1844  -21.9433   -9.9875 O   0  0  0  0  0  0  0  0  0  0  0  0
  2  1  1  0
  3  2  2  0
  4  2  1  0
  5  4  1  0
  6  5  1  0
  6  7  1  6
  8  6  1  0
  8  9  2  0
 10  8  1  0
 11 12  1  1
 11 10  1  0
 13 12  1  0
 13 14  2  0
 15 14  1  0
 16 15  1  0
 17 16  2  0
 18 17  1  0
 19 18  2  0
 19 20  1  0
 20 21  2  0
 21 16  1  0
 21 13  1  0
 22 11  1  0
 23 22  2  0
 25 24  1  6
 26 25  1  0
 27 25  1  0
 27 28  1  6
 28 22  1  0
 29 27  1  0
 29 30  1  0
 31 29  2  0
M  END
$$$$
