QWV.pdb
     RDKit          3D

 31 32  0  0  1  0  0  0  0  0999 V2000
   28.2675  -26.0761  -16.9493 N   0  0  0  0  0  0  0  0  0  0  0  0
   29.6627  -26.0918  -17.2010 C   0  0  0  0  0  0  0  0  0  0  0  0
   30.1701  -27.1483  -17.6361 O   0  0  0  0  0  0  0  0  0  0  0  0
   30.4965  -24.9051  -16.9611 C   0  0  0  0  0  0  0  0  0  0  0  0
   29.7919  -23.7170  -16.4149 C   0  0  0  0  0  0  0  0  0  0  0  0
   28.7349  -23.1261  -17.2864 C   0  0  2  0  0  0  0  0  0  0  0  0
   29.3929  -22.4684  -18.4013 N   0  0  0  0  0  0  0  0  0  0  0  0
   27.9314  -22.0898  -16.5767 C   0  0  0  0  0  0  0  0  0  0  0  0
   28.4818  -21.0293  -16.1976 O   0  0  0  0  0  0  0  0  0  0  0  0
   26.5537  -22.2492  -16.3063 N   0  0  0  0  0  0  0  0  0  0  0  0
   25.6659  -21.3121  -15.6917 C   0  0  1  0  0  0  0  0  0  0  0  0
   24.4317  -20.9557  -16.5376 C   0  0  0  0  0  0  0  0  0  0  0  0
   23.6803  -19.8310  -15.9943 C   0  0  0  0  0  0  0  0  0  0  0  0
   24.1279  -18.6164  -15.5792 C   0  0  0  0  0  0  0  0  0  0  0  0
   23.0857  -17.8564  -15.1520 N   0  0  0  0  0  0  0  0  0  0  0  0
   21.9591  -18.5756  -15.2893 C   0  0  0  0  0  0  0  0  0  0  0  0
   20.6288  -18.2547  -14.9995 C   0  0  0  0  0  0  0  0  0  0  0  0
   19.7006  -19.2129  -15.2581 C   0  0  0  0  0  0  0  0  0  0  0  0
   20.0201  -20.4476  -15.7791 C   0  0  0  0  0  0  0  0  0  0  0  0
   21.3283  -20.7436  -16.0563 C   0  0  0  0  0  0  0  0  0  0  0  0
   22.2923  -19.7981  -15.8066 C   0  0  0  0  0  0  0  0  0  0  0  0
   25.2015  -21.6381  -14.3552 C   0  0  0  0  0  0  0  0  0  0  0  0
   24.6556  -22.7768  -14.1800 O   0  0  0  0  0  0  0  0  0  0  0  0
   25.6376  -19.1085  -10.8468 C   0  0  0  0  0  0  0  0  0  0  0  0
   25.5842  -20.6077  -10.7783 C   0  0  1  0  0  0  0  0  0  0  0  0
   24.9003  -20.9918   -9.4857 C   0  0  0  0  0  0  0  0  0  0  0  0
   24.7749  -21.1433  -11.9045 C   0  0  2  0  0  0  0  0  0  0  0  0
   25.2891  -20.8220  -13.2135 N   0  0  0  0  0  0  0  0  0  0  0  0
   23.3915  -20.6300  -11.7993 C   0  0  0  0  0  0  0  0  0  0  0  0
   22.4409  -21.1063  -10.9097 O   0  0  0  0  0  0  0  0  0  0  0  0
   23.0116  -19.6955  -12.5536 O   0  0  0  0  0  0  0  0  0  0  0  0
  2  1  1  0
  3  2  2  0
  4  2  1  0
  5  4  1  0
  6  5  1  0
  6  7  1  6
  8  6  1  0
  8  9  2  0
 10  8  1  0
 11 12  1  6
 11 10  1  0
 13 12  1  0
 13 14  2  0
 15 14  1  0
 16 15  1  0
 17 16  2  0
 18 17  1  0
 19 18  2  0
 19 20  1  0
 20 21  2  0
 21 16  1  0
 21 13  1  0
 22 11  1  0
 23 22  2  0
 25 24  1  6
 26 25  1  0
 27 25  1  0
 27 28  1  6
 28 22  1  0
 29 27  1  0
 29 30  1  0
 31 29  2  0
M  END
$$$$
