QWV.pdb
     RDKit          3D

 31 32  0  0  1  0  0  0  0  0999 V2000
   30.1220  -18.6962  -15.7426 N   0  0  0  0  0  0  0  0  0  0  0  0
   29.3267  -18.6464  -16.9153 C   0  0  0  0  0  0  0  0  0  0  0  0
   29.7747  -18.0261  -17.9040 O   0  0  0  0  0  0  0  0  0  0  0  0
   28.0126  -19.3026  -16.9768 C   0  0  0  0  0  0  0  0  0  0  0  0
   27.5895  -20.0234  -15.7488 C   0  0  0  0  0  0  0  0  0  0  0  0
   26.7845  -19.2335  -14.7720 C   0  0  2  0  0  0  0  0  0  0  0  0
   27.6148  -18.1454  -14.2872 N   0  0  0  0  0  0  0  0  0  0  0  0
   26.3829  -20.0425  -13.5857 C   0  0  0  0  0  0  0  0  0  0  0  0
   25.5993  -21.0101  -13.7303 O   0  0  0  0  0  0  0  0  0  0  0  0
   26.8524  -19.7651  -12.2821 N   0  0  0  0  0  0  0  0  0  0  0  0
   26.4438  -20.3732  -11.0544 C   0  0  1  0  0  0  0  0  0  0  0  0
   27.3435  -20.0445   -9.8510 C   0  0  0  0  0  0  0  0  0  0  0  0
   26.7845  -20.5037   -8.5856 C   0  0  0  0  0  0  0  0  0  0  0  0
   25.6903  -21.2775   -8.3579 C   0  0  0  0  0  0  0  0  0  0  0  0
   25.5301  -21.4775   -7.0235 N   0  0  0  0  0  0  0  0  0  0  0  0
   26.5201  -20.8344   -6.3819 C   0  0  0  0  0  0  0  0  0  0  0  0
   26.8079  -20.7295   -5.0170 C   0  0  0  0  0  0  0  0  0  0  0  0
   27.9021  -19.9978   -4.6796 C   0  0  0  0  0  0  0  0  0  0  0  0
   28.7079  -19.3781   -5.6095 C   0  0  0  0  0  0  0  0  0  0  0  0
   28.4100  -19.4921   -6.9415 C   0  0  0  0  0  0  0  0  0  0  0  0
   27.3108  -20.2242   -7.3176 C   0  0  0  0  0  0  0  0  0  0  0  0
   25.0682  -20.1511  -10.6462 C   0  0  0  0  0  0  0  0  0  0  0  0
   24.6958  -18.9475  -10.4517 O   0  0  0  0  0  0  0  0  0  0  0  0
   20.5481  -21.4010  -11.7020 C   0  0  0  0  0  0  0  0  0  0  0  0
   22.0275  -21.6584  -11.6856 C   0  0  1  0  0  0  0  0  0  0  0  0
   22.6108  -21.1102  -12.9683 C   0  0  0  0  0  0  0  0  0  0  0  0
   22.6597  -20.9399  -10.5480 C   0  0  2  0  0  0  0  0  0  0  0  0
   24.0848  -21.1345  -10.4382 N   0  0  0  0  0  0  0  0  0  0  0  0
   22.0234  -21.3709   -9.2838 C   0  0  0  0  0  0  0  0  0  0  0  0
   21.1978  -20.5733   -8.5065 O   0  0  0  0  0  0  0  0  0  0  0  0
   22.2212  -22.5364   -8.8492 O   0  0  0  0  0  0  0  0  0  0  0  0
  2  1  1  0
  3  2  2  0
  4  2  1  0
  5  4  1  0
  6  5  1  0
  6  7  1  1
  8  6  1  0
  8  9  2  0
 10  8  1  0
 11 12  1  1
 11 10  1  0
 13 12  1  0
 13 14  2  0
 15 14  1  0
 16 15  1  0
 17 16  2  0
 18 17  1  0
 19 18  2  0
 19 20  1  0
 20 21  2  0
 21 16  1  0
 21 13  1  0
 22 11  1  0
 23 22  2  0
 25 24  1  6
 26 25  1  0
 27 25  1  0
 27 28  1  1
 28 22  1  0
 29 27  1  0
 29 30  1  0
 31 29  2  0
M  END
$$$$
