QWV.pdb
     RDKit          3D

 31 32  0  0  1  0  0  0  0  0999 V2000
   26.7729  -17.6629  -14.6028 N   0  0  0  0  0  0  0  0  0  0  0  0
   28.1432  -17.8125  -14.9348 C   0  0  0  0  0  0  0  0  0  0  0  0
   28.5546  -17.2806  -15.9887 O   0  0  0  0  0  0  0  0  0  0  0  0
   29.0613  -18.5687  -14.0708 C   0  0  0  0  0  0  0  0  0  0  0  0
   28.5177  -18.9826  -12.7519 C   0  0  0  0  0  0  0  0  0  0  0  0
   28.7472  -20.4059  -12.3680 C   0  0  2  0  0  0  0  0  0  0  0  0
   29.2235  -21.1131  -13.5434 N   0  0  0  0  0  0  0  0  0  0  0  0
   27.4933  -21.0814  -11.9266 C   0  0  0  0  0  0  0  0  0  0  0  0
   26.8911  -21.8486  -12.7140 O   0  0  0  0  0  0  0  0  0  0  0  0
   26.9417  -20.8944  -10.6393 N   0  0  0  0  0  0  0  0  0  0  0  0
   25.6790  -21.3535  -10.1505 C   0  0  1  0  0  0  0  0  0  0  0  0
   25.5451  -21.3364   -8.6183 C   0  0  0  0  0  0  0  0  0  0  0  0
   26.2990  -20.2543   -7.9976 C   0  0  0  0  0  0  0  0  0  0  0  0
   26.3933  -18.9490   -8.3652 C   0  0  0  0  0  0  0  0  0  0  0  0
   27.1970  -18.2776   -7.4995 N   0  0  0  0  0  0  0  0  0  0  0  0
   27.6260  -19.1452   -6.5676 C   0  0  0  0  0  0  0  0  0  0  0  0
   28.4639  -18.9600   -5.4629 C   0  0  0  0  0  0  0  0  0  0  0  0
   28.7099  -20.0535   -4.6946 C   0  0  0  0  0  0  0  0  0  0  0  0
   28.1771  -21.2954   -4.9623 C   0  0  0  0  0  0  0  0  0  0  0  0
   27.3589  -21.4574   -6.0486 C   0  0  0  0  0  0  0  0  0  0  0  0
   27.0895  -20.3729   -6.8469 C   0  0  0  0  0  0  0  0  0  0  0  0
   24.4979  -20.7124  -10.7004 C   0  0  0  0  0  0  0  0  0  0  0  0
   24.5103  -19.4421  -10.8081 O   0  0  0  0  0  0  0  0  0  0  0  0
   20.8749  -20.9071  -13.9614 C   0  0  0  0  0  0  0  0  0  0  0  0
   21.9665  -21.5773  -13.1775 C   0  0  1  0  0  0  0  0  0  0  0  0
   23.1937  -21.6535  -14.0575 C   0  0  0  0  0  0  0  0  0  0  0  0
   22.3084  -20.7663  -11.9794 C   0  0  2  0  0  0  0  0  0  0  0  0
   23.3219  -21.3494  -11.1345 N   0  0  0  0  0  0  0  0  0  0  0  0
   21.0874  -20.5471  -11.1732 C   0  0  0  0  0  0  0  0  0  0  0  0
   20.6449  -21.3941  -10.1690 O   0  0  0  0  0  0  0  0  0  0  0  0
   20.3725  -19.5317  -11.3837 O   0  0  0  0  0  0  0  0  0  0  0  0
  2  1  1  0
  3  2  2  0
  4  2  1  0
  5  4  1  0
  6  5  1  0
  6  7  1  6
  8  6  1  0
  8  9  2  0
 10  8  1  0
 11 12  1  1
 11 10  1  0
 13 12  1  0
 13 14  2  0
 15 14  1  0
 16 15  1  0
 17 16  2  0
 18 17  1  0
 19 18  2  0
 19 20  1  0
 20 21  2  0
 21 16  1  0
 21 13  1  0
 22 11  1  0
 23 22  2  0
 25 24  1  6
 26 25  1  0
 27 25  1  0
 27 28  1  1
 28 22  1  0
 29 27  1  0
 29 30  1  0
 31 29  2  0
M  END
$$$$
