MDM.pdb
     RDKit          3D

 25 24  0  0  1  0  0  0  0  0999 V2000
   21.5907  -25.7743  -15.4820 C   0  0  0  0  0  0  0  0  0  0  0  0
   22.5202  -26.7462  -16.7015 S   0  0  0  0  0  0  0  0  0  0  0  0
   24.0748  -25.8937  -17.1356 C   0  0  0  0  0  0  0  0  0  0  0  0
   24.5018  -25.0719  -15.9155 C   0  0  0  0  0  0  0  0  0  0  0  0
   25.6598  -24.2121  -16.3740 C   0  0  2  0  0  0  0  0  0  0  0  0
   26.7512  -25.0927  -16.6599 N   0  0  0  0  0  0  0  0  0  0  0  0
   25.9954  -23.1598  -15.3929 C   0  0  0  0  0  0  0  0  0  0  0  0
   26.9244  -23.3959  -14.5684 O   0  0  0  0  0  0  0  0  0  0  0  0
   25.3647  -21.8986  -15.2915 N   0  0  0  0  0  0  0  0  0  0  0  0
   25.6678  -20.9070  -14.2955 C   0  0  1  0  0  0  0  0  0  0  0  0
   25.2005  -19.5708  -14.7677 C   0  0  0  0  0  0  0  0  0  0  0  0
   23.8911  -19.5715  -15.4242 C   0  0  0  0  0  0  0  0  0  0  0  0
   23.6551  -20.3495  -16.3619 O   0  0  0  0  0  0  0  0  0  0  0  0
   25.1253  -21.2585  -12.9559 C   0  0  0  0  0  0  0  0  0  0  0  0
   23.9875  -21.7836  -12.9187 O   0  0  0  0  0  0  0  0  0  0  0  0
   22.8617  -18.7206  -15.0438 O   0  0  0  0  0  0  0  0  0  0  0  0
   27.8980  -18.8253   -7.5560 C   0  0  0  0  0  0  0  0  0  0  0  0
   26.6436  -19.8810   -6.7693 S   0  0  0  0  0  0  0  0  0  0  0  0
   25.4708  -20.5096   -8.0320 C   0  0  0  0  0  0  0  0  0  0  0  0
   26.1022  -20.4733   -9.3929 C   0  0  0  0  0  0  0  0  0  0  0  0
   25.2285  -21.0713  -10.4186 C   0  0  2  0  0  0  0  0  0  0  0  0
   25.8336  -21.0258  -11.7503 N   0  0  0  0  0  0  0  0  0  0  0  0
   23.8589  -20.5900  -10.4204 C   0  0  0  0  0  0  0  0  0  0  0  0
   22.8010  -21.0970   -9.7011 O   0  0  0  0  0  0  0  0  0  0  0  0
   23.5650  -19.5876  -11.1631 O   0  0  0  0  0  0  0  0  0  0  0  0
  2  1  1  0
  3  2  1  0
  3  4  1  0
  4  5  1  0
  5  7  1  0
  5  6  1  1
  7  8  2  0
  9 10  1  0
  9  7  1  0
 10 11  1  6
 12 11  1  0
 13 12  2  0
 14 15  2  0
 14 10  1  0
 16 12  1  0
 17 18  1  0
 19 18  1  0
 20 19  1  0
 21 22  1  0
 21 20  1  1
 22 14  1  0
 23 21  1  0
 24 23  1  0
 25 23  2  0
M  END
$$$$
