MDM.pdb
     RDKit          3D

 25 24  0  0  1  0  0  0  0  0999 V2000
   21.4547  -20.8518   -8.5409 C   0  0  0  0  0  0  0  0  0  0  0  0
   22.7221  -20.8474   -7.2412 S   0  0  0  0  0  0  0  0  0  0  0  0
   24.3595  -21.2235   -7.9550 C   0  0  0  0  0  0  0  0  0  0  0  0
   24.4220  -20.5563   -9.3324 C   0  0  0  0  0  0  0  0  0  0  0  0
   25.7890  -20.8825   -9.8942 C   0  0  2  0  0  0  0  0  0  0  0  0
   26.7559  -20.2931   -9.0190 N   0  0  0  0  0  0  0  0  0  0  0  0
   25.9305  -20.4532  -11.3007 C   0  0  0  0  0  0  0  0  0  0  0  0
   26.3625  -19.2855  -11.5209 O   0  0  0  0  0  0  0  0  0  0  0  0
   25.6234  -21.2388  -12.4353 N   0  0  0  0  0  0  0  0  0  0  0  0
   25.7773  -20.8077  -13.7981 C   0  0  1  0  0  0  0  0  0  0  0  0
   26.1076  -21.9833  -14.6559 C   0  0  0  0  0  0  0  0  0  0  0  0
   26.3032  -21.6764  -16.0747 C   0  0  0  0  0  0  0  0  0  0  0  0
   27.3897  -21.2358  -16.4817 O   0  0  0  0  0  0  0  0  0  0  0  0
   24.5952  -20.0546  -14.2961 C   0  0  0  0  0  0  0  0  0  0  0  0
   23.4655  -20.5514  -14.0758 O   0  0  0  0  0  0  0  0  0  0  0  0
   25.3065  -21.8568  -17.0247 O   0  0  0  0  0  0  0  0  0  0  0  0
   24.0630  -13.4722  -15.2045 C   0  0  0  0  0  0  0  0  0  0  0  0
   23.2055  -14.1574  -16.6543 S   0  0  0  0  0  0  0  0  0  0  0  0
   22.7333  -15.9016  -16.3380 C   0  0  0  0  0  0  0  0  0  0  0  0
   23.9140  -16.6768  -15.8310 C   0  0  0  0  0  0  0  0  0  0  0  0
   23.5567  -18.0696  -15.5065 C   0  0  2  0  0  0  0  0  0  0  0  0
   24.7004  -18.8251  -14.9936 N   0  0  0  0  0  0  0  0  0  0  0  0
   22.8495  -18.7858  -16.5527 C   0  0  0  0  0  0  0  0  0  0  0  0
   23.4044  -19.5169  -17.5778 O   0  0  0  0  0  0  0  0  0  0  0  0
   21.5682  -18.7533  -16.5559 O   0  0  0  0  0  0  0  0  0  0  0  0
  2  1  1  0
  3  2  1  0
  3  4  1  0
  4  5  1  0
  5  7  1  0
  5  6  1  1
  7  8  2  0
  9 10  1  0
  9  7  1  0
 10 11  1  6
 12 11  1  0
 13 12  2  0
 14 15  2  0
 14 10  1  0
 16 12  1  0
 17 18  1  0
 19 18  1  0
 20 19  1  0
 21 22  1  0
 21 20  1  6
 22 14  1  0
 23 21  1  0
 24 23  1  0
 25 23  2  0
M  END
$$$$
