MDM.pdb
     RDKit          3D

 25 24  0  0  1  0  0  0  0  0999 V2000
   26.3854  -20.2454   -7.3560 C   0  0  0  0  0  0  0  0  0  0  0  0
   25.6847  -20.1204   -9.0261 S   0  0  0  0  0  0  0  0  0  0  0  0
   26.9757  -20.4355  -10.2775 C   0  0  0  0  0  0  0  0  0  0  0  0
   26.3482  -20.1917  -11.6533 C   0  0  0  0  0  0  0  0  0  0  0  0
   25.5180  -21.4197  -11.9587 C   0  0  2  0  0  0  0  0  0  0  0  0
   26.4191  -22.4358  -12.4104 N   0  0  0  0  0  0  0  0  0  0  0  0
   24.4290  -21.1327  -12.9150 C   0  0  0  0  0  0  0  0  0  0  0  0
   24.5966  -21.4746  -14.1205 O   0  0  0  0  0  0  0  0  0  0  0  0
   23.2028  -20.5035  -12.6002 N   0  0  0  0  0  0  0  0  0  0  0  0
   22.1183  -20.3107  -13.5242 C   0  0  1  0  0  0  0  0  0  0  0  0
   20.8635  -20.0340  -12.7654 C   0  0  0  0  0  0  0  0  0  0  0  0
   20.3924  -21.1395  -11.9277 C   0  0  0  0  0  0  0  0  0  0  0  0
   20.1132  -20.9522  -10.7331 O   0  0  0  0  0  0  0  0  0  0  0  0
   22.4117  -19.2637  -14.5391 C   0  0  0  0  0  0  0  0  0  0  0  0
   22.5018  -18.0813  -14.1323 O   0  0  0  0  0  0  0  0  0  0  0  0
   20.2348  -22.4316  -12.4114 O   0  0  0  0  0  0  0  0  0  0  0  0
   27.3667  -18.7954  -18.3061 C   0  0  0  0  0  0  0  0  0  0  0  0
   26.0946  -18.3927  -19.5416 S   0  0  0  0  0  0  0  0  0  0  0  0
   24.5334  -17.9182  -18.7034 C   0  0  0  0  0  0  0  0  0  0  0  0
   24.2104  -18.8962  -17.6121 C   0  0  0  0  0  0  0  0  0  0  0  0
   22.9526  -18.5539  -16.9238 C   0  0  2  0  0  0  0  0  0  0  0  0
   22.5887  -19.5505  -15.9159 N   0  0  0  0  0  0  0  0  0  0  0  0
   21.8407  -18.2238  -17.7970 C   0  0  0  0  0  0  0  0  0  0  0  0
   21.5478  -16.9925  -18.3371 O   0  0  0  0  0  0  0  0  0  0  0  0
   21.0200  -19.1543  -18.1187 O   0  0  0  0  0  0  0  0  0  0  0  0
  2  1  1  0
  3  2  1  0
  3  4  1  0
  4  5  1  0
  5  7  1  0
  5  6  1  6
  7  8  2  0
  9 10  1  0
  9  7  1  0
 10 11  1  1
 12 11  1  0
 13 12  2  0
 14 15  2  0
 14 10  1  0
 16 12  1  0
 17 18  1  0
 19 18  1  0
 20 19  1  0
 21 22  1  0
 21 20  1  6
 22 14  1  0
 23 21  1  0
 24 23  1  0
 25 23  2  0
M  END
$$$$
