MDM.pdb
     RDKit          3D

 25 24  0  0  1  0  0  0  0  0999 V2000
   25.1356  -25.0554  -14.6521 C   0  0  0  0  0  0  0  0  0  0  0  0
   26.0513  -24.7880  -16.1967 S   0  0  0  0  0  0  0  0  0  0  0  0
   26.8220  -23.1333  -16.1952 C   0  0  0  0  0  0  0  0  0  0  0  0
   26.3533  -22.4117  -14.9279 C   0  0  0  0  0  0  0  0  0  0  0  0
   25.4252  -21.3100  -15.3921 C   0  0  2  0  0  0  0  0  0  0  0  0
   26.2471  -20.2371  -15.8629 N   0  0  0  0  0  0  0  0  0  0  0  0
   24.4732  -20.9023  -14.3385 C   0  0  0  0  0  0  0  0  0  0  0  0
   24.9099  -20.7981  -13.1565 O   0  0  0  0  0  0  0  0  0  0  0  0
   23.1030  -20.6146  -14.5346 N   0  0  0  0  0  0  0  0  0  0  0  0
   22.1905  -20.2197  -13.4962 C   0  0  1  0  0  0  0  0  0  0  0  0
   21.5343  -18.9342  -13.8752 C   0  0  0  0  0  0  0  0  0  0  0  0
   20.6661  -19.0080  -15.0526 C   0  0  0  0  0  0  0  0  0  0  0  0
   20.8269  -19.8995  -15.9010 O   0  0  0  0  0  0  0  0  0  0  0  0
   21.2063  -21.2846  -13.1651 C   0  0  0  0  0  0  0  0  0  0  0  0
   20.7899  -21.9937  -14.1114 O   0  0  0  0  0  0  0  0  0  0  0  0
   19.6365  -18.1049  -15.2822 O   0  0  0  0  0  0  0  0  0  0  0  0
   17.6063  -25.7224   -7.6707 C   0  0  0  0  0  0  0  0  0  0  0  0
   18.7927  -24.3850   -8.0036 S   0  0  0  0  0  0  0  0  0  0  0  0
   18.5963  -23.7861   -9.7263 C   0  0  0  0  0  0  0  0  0  0  0  0
   19.7132  -22.8491  -10.0822 C   0  0  0  0  0  0  0  0  0  0  0  0
   19.6865  -22.4815  -11.5095 C   0  0  2  0  0  0  0  0  0  0  0  0
   20.7353  -21.5190  -11.8489 N   0  0  0  0  0  0  0  0  0  0  0  0
   18.3876  -22.0821  -12.0203 C   0  0  0  0  0  0  0  0  0  0  0  0
   17.4758  -22.8752  -12.6784 O   0  0  0  0  0  0  0  0  0  0  0  0
   18.0173  -20.8652  -11.8624 O   0  0  0  0  0  0  0  0  0  0  0  0
  2  1  1  0
  3  2  1  0
  3  4  1  0
  4  5  1  0
  5  7  1  0
  5  6  1  1
  7  8  2  0
  9 10  1  0
  9  7  1  0
 10 11  1  6
 12 11  1  0
 13 12  2  0
 14 15  2  0
 14 10  1  0
 16 12  1  0
 17 18  1  0
 19 18  1  0
 20 19  1  0
 21 22  1  0
 21 20  1  1
 22 14  1  0
 23 21  1  0
 24 23  1  0
 25 23  2  0
M  END
$$$$
