MDM.pdb
     RDKit          3D

 25 24  0  0  1  0  0  0  0  0999 V2000
   12.5499  -12.9759  -16.9491 C   0  0  0  0  0  0  0  0  0  0  0  0
   13.6190  -12.9037  -15.4836 S   0  0  0  0  0  0  0  0  0  0  0  0
   15.1913  -12.0701  -15.8898 C   0  0  0  0  0  0  0  0  0  0  0  0
   16.0483  -12.0667  -14.6202 C   0  0  0  0  0  0  0  0  0  0  0  0
   17.2871  -11.2636  -14.9532 C   0  0  2  0  0  0  0  0  0  0  0  0
   18.3078  -12.1968  -15.3218 N   0  0  0  0  0  0  0  0  0  0  0  0
   17.6829  -10.3657  -13.8488 C   0  0  0  0  0  0  0  0  0  0  0  0
   18.3097  -10.8703  -12.8735 O   0  0  0  0  0  0  0  0  0  0  0  0
   17.4215   -8.9779  -13.7832 N   0  0  0  0  0  0  0  0  0  0  0  0
   17.9193   -8.0963  -12.7626 C   0  0  1  0  0  0  0  0  0  0  0  0
   18.7842   -7.0529  -13.3871 C   0  0  0  0  0  0  0  0  0  0  0  0
   20.2213   -7.3322  -13.3381 C   0  0  0  0  0  0  0  0  0  0  0  0
   20.7776   -7.9448  -14.2630 O   0  0  0  0  0  0  0  0  0  0  0  0
   16.8322   -7.5117  -11.9326 C   0  0  0  0  0  0  0  0  0  0  0  0
   15.8196   -7.0831  -12.5347 O   0  0  0  0  0  0  0  0  0  0  0  0
   21.0257   -6.9365  -12.2775 O   0  0  0  0  0  0  0  0  0  0  0  0
   12.3971   -9.3898   -8.2149 C   0  0  0  0  0  0  0  0  0  0  0  0
   13.1596   -8.2268   -7.0430 S   0  0  0  0  0  0  0  0  0  0  0  0
   14.1735   -6.9962   -7.9500 C   0  0  0  0  0  0  0  0  0  0  0  0
   15.2070   -7.6896   -8.7884 C   0  0  0  0  0  0  0  0  0  0  0  0
   15.9035   -6.7512   -9.6869 C   0  0  2  0  0  0  0  0  0  0  0  0
   16.9008   -7.4251  -10.5194 N   0  0  0  0  0  0  0  0  0  0  0  0
   16.4354   -5.5621   -9.0462 C   0  0  0  0  0  0  0  0  0  0  0  0
   15.7180   -4.5085   -8.5276 O   0  0  0  0  0  0  0  0  0  0  0  0
   17.7070   -5.4444   -8.9366 O   0  0  0  0  0  0  0  0  0  0  0  0
  2  1  1  0
  3  2  1  0
  3  4  1  0
  4  5  1  0
  5  7  1  0
  5  6  1  1
  7  8  2  0
  9 10  1  0
  9  7  1  0
 10 11  1  6
 12 11  1  0
 13 12  2  0
 14 15  2  0
 14 10  1  0
 16 12  1  0
 17 18  1  0
 19 18  1  0
 20 19  1  0
 21 22  1  0
 21 20  1  1
 22 14  1  0
 23 21  1  0
 24 23  1  0
 25 23  2  0
M  END
$$$$
