MDM.pdb
     RDKit          3D

 25 24  0  0  1  0  0  0  0  0999 V2000
   29.2647  -20.5992  -12.5972 C   0  0  0  0  0  0  0  0  0  0  0  0
   29.5812  -20.8096  -14.3724 S   0  0  0  0  0  0  0  0  0  0  0  0
   29.3604  -19.2219  -15.2455 C   0  0  0  0  0  0  0  0  0  0  0  0
   28.1476  -18.5229  -14.6237 C   0  0  0  0  0  0  0  0  0  0  0  0
   26.9277  -19.2066  -15.2024 C   0  0  2  0  0  0  0  0  0  0  0  0
   26.6847  -18.6200  -16.4851 N   0  0  0  0  0  0  0  0  0  0  0  0
   25.7650  -19.1351  -14.2938 C   0  0  0  0  0  0  0  0  0  0  0  0
   25.4748  -18.0107  -13.7938 O   0  0  0  0  0  0  0  0  0  0  0  0
   24.9382  -20.2223  -13.9291 N   0  0  0  0  0  0  0  0  0  0  0  0
   23.8715  -20.1558  -12.9675 C   0  0  1  0  0  0  0  0  0  0  0  0
   22.6148  -20.6725  -13.5842 C   0  0  0  0  0  0  0  0  0  0  0  0
   21.4310  -20.6022  -12.7243 C   0  0  0  0  0  0  0  0  0  0  0  0
   21.2778  -19.6553  -11.9369 O   0  0  0  0  0  0  0  0  0  0  0  0
   24.2063  -20.8476  -11.6940 C   0  0  0  0  0  0  0  0  0  0  0  0
   24.0063  -22.0842  -11.6446 O   0  0  0  0  0  0  0  0  0  0  0  0
   20.4348  -21.5694  -12.7404 O   0  0  0  0  0  0  0  0  0  0  0  0
   28.1281  -18.5537   -7.0251 C   0  0  0  0  0  0  0  0  0  0  0  0
   27.0341  -19.5538   -5.9715 S   0  0  0  0  0  0  0  0  0  0  0  0
   25.9302  -20.5845   -7.0127 C   0  0  0  0  0  0  0  0  0  0  0  0
   25.8204  -20.0011   -8.3910 C   0  0  0  0  0  0  0  0  0  0  0  0
   24.9217  -20.7922   -9.2509 C   0  0  2  0  0  0  0  0  0  0  0  0
   24.7309  -20.1730  -10.5631 N   0  0  0  0  0  0  0  0  0  0  0  0
   23.6642  -21.1806   -8.6383 C   0  0  0  0  0  0  0  0  0  0  0  0
   23.4800  -22.1117   -7.6419 O   0  0  0  0  0  0  0  0  0  0  0  0
   22.5869  -20.6190   -9.0467 O   0  0  0  0  0  0  0  0  0  0  0  0
  2  1  1  0
  3  2  1  0
  3  4  1  0
  4  5  1  0
  5  7  1  0
  5  6  1  6
  7  8  2  0
  9 10  1  0
  9  7  1  0
 10 11  1  6
 12 11  1  0
 13 12  2  0
 14 15  2  0
 14 10  1  0
 16 12  1  0
 17 18  1  0
 19 18  1  0
 20 19  1  0
 21 22  1  0
 21 20  1  1
 22 14  1  0
 23 21  1  0
 24 23  1  0
 25 23  2  0
M  END
$$$$
