MDM.pdb
     RDKit          3D

 25 24  0  0  1  0  0  0  0  0999 V2000
    9.4235   -9.9396   -7.6479 C   0  0  0  0  0  0  0  0  0  0  0  0
   11.1748  -10.3317   -7.9212 S   0  0  0  0  0  0  0  0  0  0  0  0
   11.5103  -10.5110   -9.7065 C   0  0  0  0  0  0  0  0  0  0  0  0
   12.9781  -10.9222   -9.8569 C   0  0  0  0  0  0  0  0  0  0  0  0
   13.2251  -11.0573  -11.3440 C   0  0  2  0  0  0  0  0  0  0  0  0
   13.5366  -12.4313  -11.5963 N   0  0  0  0  0  0  0  0  0  0  0  0
   14.2629  -10.1218  -11.8240 C   0  0  0  0  0  0  0  0  0  0  0  0
   15.3842  -10.6031  -12.1549 O   0  0  0  0  0  0  0  0  0  0  0  0
   14.1137   -8.7214  -11.9482 N   0  0  0  0  0  0  0  0  0  0  0  0
   15.1327   -7.8267  -12.4260 C   0  0  1  0  0  0  0  0  0  0  0  0
   14.4923   -6.6701  -13.1180 C   0  0  0  0  0  0  0  0  0  0  0  0
   15.4260   -5.6702  -13.6416 C   0  0  0  0  0  0  0  0  0  0  0  0
   15.2631   -4.4645  -13.3966 O   0  0  0  0  0  0  0  0  0  0  0  0
   16.0677   -7.3995  -11.3510 C   0  0  0  0  0  0  0  0  0  0  0  0
   15.5794   -7.1982  -10.2141 O   0  0  0  0  0  0  0  0  0  0  0  0
   16.5224   -6.0065  -14.4247 O   0  0  0  0  0  0  0  0  0  0  0  0
   22.6471   -8.8646  -11.0823 C   0  0  0  0  0  0  0  0  0  0  0  0
   22.4832   -7.2192  -10.3255 S   0  0  0  0  0  0  0  0  0  0  0  0
   20.7573   -6.9564   -9.7622 C   0  0  0  0  0  0  0  0  0  0  0  0
   19.8002   -7.1768  -10.8968 C   0  0  0  0  0  0  0  0  0  0  0  0
   18.4117   -6.8675  -10.5104 C   0  0  2  0  0  0  0  0  0  0  0  0
   17.4573   -7.2172  -11.5633 N   0  0  0  0  0  0  0  0  0  0  0  0
   18.1973   -5.5264   -9.9976 C   0  0  0  0  0  0  0  0  0  0  0  0
   18.3184   -5.1088   -8.6921 O   0  0  0  0  0  0  0  0  0  0  0  0
   17.8537   -4.6058  -10.8205 O   0  0  0  0  0  0  0  0  0  0  0  0
  2  1  1  0
  3  2  1  0
  3  4  1  0
  4  5  1  0
  5  7  1  0
  5  6  1  1
  7  8  2  0
  9 10  1  0
  9  7  1  0
 10 11  1  1
 12 11  1  0
 13 12  2  0
 14 15  2  0
 14 10  1  0
 16 12  1  0
 17 18  1  0
 19 18  1  0
 20 19  1  0
 21 22  1  0
 21 20  1  6
 22 14  1  0
 23 21  1  0
 24 23  1  0
 25 23  2  0
M  END
$$$$
