MDM.pdb
     RDKit          3D

 25 24  0  0  1  0  0  0  0  0999 V2000
   32.7504  -22.2657  -12.5416 C   0  0  0  0  0  0  0  0  0  0  0  0
   32.6281  -23.8697  -13.3830 S   0  0  0  0  0  0  0  0  0  0  0  0
   31.5415  -23.7351  -14.8436 C   0  0  0  0  0  0  0  0  0  0  0  0
   30.4302  -22.7398  -14.4966 C   0  0  0  0  0  0  0  0  0  0  0  0
   29.6547  -22.5147  -15.7766 C   0  0  2  0  0  0  0  0  0  0  0  0
   30.5534  -21.9121  -16.7134 N   0  0  0  0  0  0  0  0  0  0  0  0
   28.4250  -21.7273  -15.5522 C   0  0  0  0  0  0  0  0  0  0  0  0
   28.5466  -20.4826  -15.3664 O   0  0  0  0  0  0  0  0  0  0  0  0
   27.1099  -22.2455  -15.5264 N   0  0  0  0  0  0  0  0  0  0  0  0
   25.9567  -21.5343  -15.0453 C   0  0  1  0  0  0  0  0  0  0  0  0
   24.7767  -21.8707  -15.8945 C   0  0  0  0  0  0  0  0  0  0  0  0
   23.5817  -21.0632  -15.6382 C   0  0  0  0  0  0  0  0  0  0  0  0
   22.4884  -21.3781  -16.1339 O   0  0  0  0  0  0  0  0  0  0  0  0
   25.7024  -21.7702  -13.5990 C   0  0  0  0  0  0  0  0  0  0  0  0
   25.4616  -22.9483  -13.2447 O   0  0  0  0  0  0  0  0  0  0  0  0
   23.6032  -19.9244  -14.8439 O   0  0  0  0  0  0  0  0  0  0  0  0
   28.3589  -20.4850   -7.4884 C   0  0  0  0  0  0  0  0  0  0  0  0
   26.8453  -19.5067   -7.7309 S   0  0  0  0  0  0  0  0  0  0  0  0
   25.7103  -20.3802   -8.8773 C   0  0  0  0  0  0  0  0  0  0  0  0
   26.1592  -20.1934  -10.2970 C   0  0  0  0  0  0  0  0  0  0  0  0
   25.2748  -20.8913  -11.2477 C   0  0  2  0  0  0  0  0  0  0  0  0
   25.7227  -20.7339  -12.6320 N   0  0  0  0  0  0  0  0  0  0  0  0
   23.8586  -20.6120  -11.0931 C   0  0  0  0  0  0  0  0  0  0  0  0
   23.0180  -20.0487  -12.0256 O   0  0  0  0  0  0  0  0  0  0  0  0
   23.2965  -20.9056   -9.9792 O   0  0  0  0  0  0  0  0  0  0  0  0
  2  1  1  0
  3  2  1  0
  3  4  1  0
  4  5  1  0
  5  7  1  0
  5  6  1  6
  7  8  2  0
  9 10  1  0
  9  7  1  0
 10 11  1  6
 12 11  1  0
 13 12  2  0
 14 15  2  0
 14 10  1  0
 16 12  1  0
 17 18  1  0
 19 18  1  0
 20 19  1  0
 21 22  1  0
 21 20  1  1
 22 14  1  0
 23 21  1  0
 24 23  1  0
 25 23  2  0
M  END
$$$$
