MDM.pdb
     RDKit          3D

 25 24  0  0  1  0  0  0  0  0999 V2000
   17.0278  -13.5539  -19.1288 C   0  0  0  0  0  0  0  0  0  0  0  0
   18.4696  -13.4034  -20.2216 S   0  0  0  0  0  0  0  0  0  0  0  0
   20.0111  -13.5937  -19.2626 C   0  0  0  0  0  0  0  0  0  0  0  0
   19.7582  -13.0087  -17.8697 C   0  0  0  0  0  0  0  0  0  0  0  0
   20.9695  -12.1613  -17.5450 C   0  0  2  0  0  0  0  0  0  0  0  0
   22.0656  -13.0567  -17.3330 N   0  0  0  0  0  0  0  0  0  0  0  0
   20.7247  -11.2521  -16.4066 C   0  0  0  0  0  0  0  0  0  0  0  0
   20.6109  -11.7640  -15.2562 O   0  0  0  0  0  0  0  0  0  0  0  0
   20.6051   -9.8458  -16.4882 N   0  0  0  0  0  0  0  0  0  0  0  0
   20.3222   -8.9802  -15.3758 C   0  0  1  0  0  0  0  0  0  0  0  0
   20.8902   -7.6265  -15.6436 C   0  0  0  0  0  0  0  0  0  0  0  0
   20.6876   -6.6491  -14.5716 C   0  0  0  0  0  0  0  0  0  0  0  0
   20.1158   -6.9750  -13.5195 O   0  0  0  0  0  0  0  0  0  0  0  0
   18.8734   -8.9332  -15.0425 C   0  0  0  0  0  0  0  0  0  0  0  0
   18.0739   -8.7444  -15.9895 O   0  0  0  0  0  0  0  0  0  0  0  0
   21.1142   -5.3311  -14.6690 O   0  0  0  0  0  0  0  0  0  0  0  0
   12.9992  -11.7401  -10.7020 C   0  0  0  0  0  0  0  0  0  0  0  0
   14.7837  -11.6787  -11.0465 S   0  0  0  0  0  0  0  0  0  0  0  0
   15.1442  -10.3466  -12.2551 C   0  0  0  0  0  0  0  0  0  0  0  0
   16.6242  -10.2280  -12.4730 C   0  0  0  0  0  0  0  0  0  0  0  0
   16.9575   -9.1104  -13.3746 C   0  0  2  0  0  0  0  0  0  0  0  0
   18.3786   -9.0908  -13.7235 N   0  0  0  0  0  0  0  0  0  0  0  0
   16.4784   -7.8082  -12.9476 C   0  0  0  0  0  0  0  0  0  0  0  0
   15.2279   -7.2745  -13.1595 O   0  0  0  0  0  0  0  0  0  0  0  0
   17.2805   -7.0436  -12.3035 O   0  0  0  0  0  0  0  0  0  0  0  0
  2  1  1  0
  3  2  1  0
  3  4  1  0
  4  5  1  0
  5  7  1  0
  5  6  1  1
  7  8  2  0
  9 10  1  0
  9  7  1  0
 10 11  1  6
 12 11  1  0
 13 12  2  0
 14 15  2  0
 14 10  1  0
 16 12  1  0
 17 18  1  0
 19 18  1  0
 20 19  1  0
 21 22  1  0
 21 20  1  1
 22 14  1  0
 23 21  1  0
 24 23  1  0
 25 23  2  0
M  END
$$$$
