MDM.pdb
     RDKit          3D

 25 24  0  0  1  0  0  0  0  0999 V2000
   32.2052  -21.7749   -8.5139 C   0  0  0  0  0  0  0  0  0  0  0  0
   32.5919  -22.9337   -9.8568 S   0  0  0  0  0  0  0  0  0  0  0  0
   32.8544  -22.0253  -11.4182 C   0  0  0  0  0  0  0  0  0  0  0  0
   31.7341  -20.9876  -11.5374 C   0  0  0  0  0  0  0  0  0  0  0  0
   30.4576  -21.7719  -11.7522 C   0  0  2  0  0  0  0  0  0  0  0  0
   30.6346  -22.5474  -12.9420 N   0  0  0  0  0  0  0  0  0  0  0  0
   29.2667  -20.8986  -11.7917 C   0  0  0  0  0  0  0  0  0  0  0  0
   29.3653  -19.7427  -11.2890 O   0  0  0  0  0  0  0  0  0  0  0  0
   28.0129  -21.2423  -12.3472 N   0  0  0  0  0  0  0  0  0  0  0  0
   26.8550  -20.3902  -12.3497 C   0  0  1  0  0  0  0  0  0  0  0  0
   25.9885  -20.7342  -13.5150 C   0  0  0  0  0  0  0  0  0  0  0  0
   24.7476  -19.9619  -13.6106 C   0  0  0  0  0  0  0  0  0  0  0  0
   24.7681  -18.7228  -13.5444 O   0  0  0  0  0  0  0  0  0  0  0  0
   26.1149  -20.4280  -11.0600 C   0  0  0  0  0  0  0  0  0  0  0  0
   25.1508  -19.6375  -10.9298 O   0  0  0  0  0  0  0  0  0  0  0  0
   23.5047  -20.5585  -13.7770 O   0  0  0  0  0  0  0  0  0  0  0  0
   27.6610  -18.9406   -3.8401 C   0  0  0  0  0  0  0  0  0  0  0  0
   27.9184  -18.9327   -5.6403 S   0  0  0  0  0  0  0  0  0  0  0  0
   26.7167  -20.0568   -6.4511 C   0  0  0  0  0  0  0  0  0  0  0  0
   27.0849  -20.2610   -7.8915 C   0  0  0  0  0  0  0  0  0  0  0  0
   26.0893  -21.0853   -8.6002 C   0  0  2  0  0  0  0  0  0  0  0  0
   26.4545  -21.3058  -10.0001 N   0  0  0  0  0  0  0  0  0  0  0  0
   24.7115  -20.6522   -8.4532 C   0  0  0  0  0  0  0  0  0  0  0  0
   23.8725  -20.9023   -7.3915 O   0  0  0  0  0  0  0  0  0  0  0  0
   24.1843  -19.9628   -9.3963 O   0  0  0  0  0  0  0  0  0  0  0  0
  2  1  1  0
  3  2  1  0
  3  4  1  0
  4  5  1  0
  5  7  1  0
  5  6  1  6
  7  8  2  0
  9 10  1  0
  9  7  1  0
 10 11  1  6
 12 11  1  0
 13 12  2  0
 14 15  2  0
 14 10  1  0
 16 12  1  0
 17 18  1  0
 19 18  1  0
 20 19  1  0
 21 22  1  0
 21 20  1  6
 22 14  1  0
 23 21  1  0
 24 23  1  0
 25 23  2  0
M  END
$$$$
