MDM.pdb
     RDKit          3D

 25 24  0  0  1  0  0  0  0  0999 V2000
   21.5920  -31.1423   -8.0584 C   0  0  0  0  0  0  0  0  0  0  0  0
   22.8218  -30.4309   -9.1886 S   0  0  0  0  0  0  0  0  0  0  0  0
   24.3083  -31.4886   -9.2506 C   0  0  0  0  0  0  0  0  0  0  0  0
   24.2744  -32.3977   -8.0183 C   0  0  0  0  0  0  0  0  0  0  0  0
   25.5778  -33.1669   -8.0292 C   0  0  2  0  0  0  0  0  0  0  0  0
   25.5313  -34.0589   -9.1475 N   0  0  0  0  0  0  0  0  0  0  0  0
   25.8333  -33.8490   -6.7439 C   0  0  0  0  0  0  0  0  0  0  0  0
   25.1015  -34.8352   -6.4432 O   0  0  0  0  0  0  0  0  0  0  0  0
   26.8333  -33.4947   -5.8094 N   0  0  0  0  0  0  0  0  0  0  0  0
   26.9957  -34.0958   -4.5136 C   0  0  1  0  0  0  0  0  0  0  0  0
   28.3254  -33.7150   -3.9534 C   0  0  0  0  0  0  0  0  0  0  0  0
   28.7031  -34.4205   -2.7265 C   0  0  0  0  0  0  0  0  0  0  0  0
   27.9536  -35.2791   -2.2353 O   0  0  0  0  0  0  0  0  0  0  0  0
   25.8757  -33.7731   -3.5896 C   0  0  0  0  0  0  0  0  0  0  0  0
   25.5696  -32.5642   -3.4613 O   0  0  0  0  0  0  0  0  0  0  0  0
   29.8949  -34.1745   -2.0575 O   0  0  0  0  0  0  0  0  0  0  0  0
   18.6883  -33.8227   -1.3375 C   0  0  0  0  0  0  0  0  0  0  0  0
   20.0348  -34.1438   -2.5168 S   0  0  0  0  0  0  0  0  0  0  0  0
   21.6485  -34.1358   -1.6445 C   0  0  0  0  0  0  0  0  0  0  0  0
   22.7634  -34.4134   -2.6098 C   0  0  0  0  0  0  0  0  0  0  0  0
   24.0720  -34.4716   -1.9336 C   0  0  2  0  0  0  0  0  0  0  0  0
   25.1608  -34.7614   -2.8675 N   0  0  0  0  0  0  0  0  0  0  0  0
   24.1206  -35.3158   -0.7536 C   0  0  0  0  0  0  0  0  0  0  0  0
   24.4324  -36.6552   -0.7047 O   0  0  0  0  0  0  0  0  0  0  0  0
   23.8460  -34.7921    0.3836 O   0  0  0  0  0  0  0  0  0  0  0  0
  2  1  1  0
  3  2  1  0
  3  4  1  0
  4  5  1  0
  5  7  1  0
  5  6  1  6
  7  8  2  0
  9 10  1  0
  9  7  1  0
 10 11  1  1
 12 11  1  0
 13 12  2  0
 14 15  2  0
 14 10  1  0
 16 12  1  0
 17 18  1  0
 19 18  1  0
 20 19  1  0
 21 22  1  0
 21 20  1  6
 22 14  1  0
 23 21  1  0
 24 23  1  0
 25 23  2  0
M  END
$$$$
