MDM.pdb
     RDKit          3D

 25 24  0  0  1  0  0  0  0  0999 V2000
   16.0257  -15.9055  -19.2255 C   0  0  0  0  0  0  0  0  0  0  0  0
   16.9398  -14.4718  -18.5895 S   0  0  0  0  0  0  0  0  0  0  0  0
   18.4118  -15.0229  -17.6613 C   0  0  0  0  0  0  0  0  0  0  0  0
   19.1260  -13.7681  -17.1497 C   0  0  0  0  0  0  0  0  0  0  0  0
   19.6912  -13.0796  -18.3732 C   0  0  2  0  0  0  0  0  0  0  0  0
   20.7493  -13.9053  -18.8703 N   0  0  0  0  0  0  0  0  0  0  0  0
   20.1129  -11.6928  -18.0875 C   0  0  0  0  0  0  0  0  0  0  0  0
   21.1432  -11.5241  -17.3744 O   0  0  0  0  0  0  0  0  0  0  0  0
   19.4614  -10.5244  -18.5447 N   0  0  0  0  0  0  0  0  0  0  0  0
   19.8297   -9.1833  -18.1802 C   0  0  1  0  0  0  0  0  0  0  0  0
   19.0882   -8.2145  -19.0395 C   0  0  0  0  0  0  0  0  0  0  0  0
   19.4258   -6.8068  -18.8154 C   0  0  0  0  0  0  0  0  0  0  0  0
   18.5414   -5.9362  -18.8231 O   0  0  0  0  0  0  0  0  0  0  0  0
   19.6441   -8.9143  -16.7292 C   0  0  0  0  0  0  0  0  0  0  0  0
   18.5475   -9.2470  -16.2209 O   0  0  0  0  0  0  0  0  0  0  0  0
   20.7258   -6.3754  -18.5869 O   0  0  0  0  0  0  0  0  0  0  0  0
   22.4624  -11.3418  -11.9645 C   0  0  0  0  0  0  0  0  0  0  0  0
   22.3916   -9.6722  -11.2473 S   0  0  0  0  0  0  0  0  0  0  0  0
   21.2362   -8.6233  -12.2117 C   0  0  0  0  0  0  0  0  0  0  0  0
   21.4335   -8.8475  -13.6823 C   0  0  0  0  0  0  0  0  0  0  0  0
   20.4927   -8.0499  -14.4894 C   0  0  2  0  0  0  0  0  0  0  0  0
   20.6403   -8.3098  -15.9220 N   0  0  0  0  0  0  0  0  0  0  0  0
   20.4698   -6.6300  -14.1878 C   0  0  0  0  0  0  0  0  0  0  0  0
   19.8423   -6.0177  -13.1273 O   0  0  0  0  0  0  0  0  0  0  0  0
   21.0877   -5.8287  -14.9746 O   0  0  0  0  0  0  0  0  0  0  0  0
  2  1  1  0
  3  2  1  0
  3  4  1  0
  4  5  1  0
  5  7  1  0
  5  6  1  1
  7  8  2  0
  9 10  1  0
  9  7  1  0
 10 11  1  6
 12 11  1  0
 13 12  2  0
 14 15  2  0
 14 10  1  0
 16 12  1  0
 17 18  1  0
 19 18  1  0
 20 19  1  0
 21 22  1  0
 21 20  1  1
 22 14  1  0
 23 21  1  0
 24 23  1  0
 25 23  2  0
M  END
$$$$
