MDM.pdb
     RDKit          3D

 25 24  0  0  1  0  0  0  0  0999 V2000
   23.4604  -13.8977  -21.5612 C   0  0  0  0  0  0  0  0  0  0  0  0
   25.0177  -13.1585  -20.9919 S   0  0  0  0  0  0  0  0  0  0  0  0
   25.2940  -13.5476  -19.2300 C   0  0  0  0  0  0  0  0  0  0  0  0
   24.0732  -13.0445  -18.4537 C   0  0  0  0  0  0  0  0  0  0  0  0
   24.6066  -12.0919  -17.4055 C   0  0  2  0  0  0  0  0  0  0  0  0
   25.4880  -12.8422  -16.5637 N   0  0  0  0  0  0  0  0  0  0  0  0
   23.5227  -11.4138  -16.6652 C   0  0  0  0  0  0  0  0  0  0  0  0
   22.7504  -12.1280  -15.9638 O   0  0  0  0  0  0  0  0  0  0  0  0
   23.2683  -10.0232  -16.6702 N   0  0  0  0  0  0  0  0  0  0  0  0
   22.1993   -9.3818  -15.9541 C   0  0  1  0  0  0  0  0  0  0  0  0
   22.6152   -7.9996  -15.5754 C   0  0  0  0  0  0  0  0  0  0  0  0
   21.6484   -7.2674  -14.7541 C   0  0  0  0  0  0  0  0  0  0  0  0
   20.9713   -6.3494  -15.2430 O   0  0  0  0  0  0  0  0  0  0  0  0
   20.9151   -9.4037  -16.7044 C   0  0  0  0  0  0  0  0  0  0  0  0
   20.9694   -9.6894  -17.9239 O   0  0  0  0  0  0  0  0  0  0  0  0
   21.4386   -7.5519  -13.4111 O   0  0  0  0  0  0  0  0  0  0  0  0
   15.7986  -13.0111  -19.6107 C   0  0  0  0  0  0  0  0  0  0  0  0
   16.2124  -12.3837  -17.9548 S   0  0  0  0  0  0  0  0  0  0  0  0
   17.8158  -11.4939  -18.0033 C   0  0  0  0  0  0  0  0  0  0  0  0
   18.1510  -10.9507  -16.6452 C   0  0  0  0  0  0  0  0  0  0  0  0
   18.3706   -9.4934  -16.6767 C   0  0  2  0  0  0  0  0  0  0  0  0
   19.6637   -9.1199  -16.1022 N   0  0  0  0  0  0  0  0  0  0  0  0
   17.2817   -8.6929  -16.1463 C   0  0  0  0  0  0  0  0  0  0  0  0
   16.4865   -7.8106  -16.8410 O   0  0  0  0  0  0  0  0  0  0  0  0
   17.0041   -8.7899  -14.8988 O   0  0  0  0  0  0  0  0  0  0  0  0
  2  1  1  0
  3  2  1  0
  3  4  1  0
  4  5  1  0
  5  7  1  0
  5  6  1  1
  7  8  2  0
  9 10  1  0
  9  7  1  0
 10 11  1  6
 12 11  1  0
 13 12  2  0
 14 15  2  0
 14 10  1  0
 16 12  1  0
 17 18  1  0
 19 18  1  0
 20 19  1  0
 21 22  1  0
 21 20  1  1
 22 14  1  0
 23 21  1  0
 24 23  1  0
 25 23  2  0
M  END
$$$$
