CTK.pdb
     RDKit          3D

 23 22  0  0  1  0  0  0  0  0999 V2000
    7.8907  -13.9674   17.3233 N   0  0  0  0  0  0  0  0  0  0  0  0
    8.7457  -13.7381   18.4472 C   0  0  1  0  0  0  0  0  0  0  0  0
    8.0009  -13.1248   19.6134 C   0  0  0  0  0  0  0  0  0  0  0  0
    8.1216  -11.3118   19.4673 S   0  0  0  0  0  0  0  0  0  0  0  0
    9.4460  -14.9844   18.8825 C   0  0  0  0  0  0  0  0  0  0  0  0
    8.7630  -16.0154   19.1136 O   0  0  0  0  0  0  0  0  0  0  0  0
   11.8207  -16.8843   17.2598 C   0  0  0  0  0  0  0  0  0  0  0  0
   12.5775  -16.6252   18.5672 C   0  0  1  0  0  0  0  0  0  0  0  0
   13.4105  -15.5386   18.3237 O   0  0  0  0  0  0  0  0  0  0  0  0
   11.5099  -16.2346   19.5893 C   0  0  2  0  0  0  0  0  0  0  0  0
   10.8414  -15.0650   19.0487 N   0  0  0  0  0  0  0  0  0  0  0  0
   12.1112  -15.9614   20.9150 C   0  0  0  0  0  0  0  0  0  0  0  0
   12.5077  -14.7921   21.1575 O   0  0  0  0  0  0  0  0  0  0  0  0
   12.2358  -16.9913   21.8832 N   0  0  0  0  0  0  0  0  0  0  0  0
   12.7358  -16.7182   23.2106 C   0  0  1  0  0  0  0  0  0  0  0  0
   12.3104  -17.8241   24.0973 C   0  0  0  0  0  0  0  0  0  0  0  0
   12.8359  -17.8175   25.4825 C   0  0  0  0  0  0  0  0  0  0  0  0
   12.4163  -19.0367   26.2847 C   0  0  0  0  0  0  0  0  0  0  0  0
   12.8787  -18.8907   27.7294 C   0  0  0  0  0  0  0  0  0  0  0  0
   12.4454  -20.0841   28.4318 N   0  0  0  0  0  0  0  0  0  0  0  0
   14.1500  -16.4223   23.1467 C   0  0  0  0  0  0  0  0  0  0  0  0
   14.7691  -15.5873   23.8558 O   0  0  0  0  0  0  0  0  0  0  0  0
   14.9347  -17.1049   22.2263 O   0  0  0  0  0  0  0  0  0  0  0  0
  2  1  1  6
  2  3  1  0
  4  3  1  0
  5  2  1  0
  5  6  2  0
  8  7  1  6
  8 10  1  0
  9  8  1  0
 10 11  1  6
 10 12  1  0
 11  5  1  0
 12 14  1  0
 13 12  2  0
 14 15  1  0
 15 21  1  0
 16 17  1  0
 15 16  1  1
 18 19  1  0
 18 17  1  0
 20 19  1  0
 21 22  2  0
 21 23  1  0
M  END
$$$$
