CTK.pdb
     RDKit          3D

 23 22  0  0  1  0  0  0  0  0999 V2000
    8.0195  -14.2446   17.6143 N   0  0  0  0  0  0  0  0  0  0  0  0
    8.8173  -13.9840   18.7729 C   0  0  1  0  0  0  0  0  0  0  0  0
    8.3545  -12.7499   19.5169 C   0  0  0  0  0  0  0  0  0  0  0  0
    8.7846  -11.2919   18.5108 S   0  0  0  0  0  0  0  0  0  0  0  0
    8.8612  -15.1563   19.6987 C   0  0  0  0  0  0  0  0  0  0  0  0
    8.0941  -16.1297   19.4824 O   0  0  0  0  0  0  0  0  0  0  0  0
    9.1598  -17.4992   19.5830 C   0  0  0  0  0  0  0  0  0  0  0  0
   10.1797  -17.5659   20.7250 C   0  0  1  0  0  0  0  0  0  0  0  0
   11.4245  -17.3448   20.1460 O   0  0  0  0  0  0  0  0  0  0  0  0
    9.8321  -16.4030   21.6545 C   0  0  2  0  0  0  0  0  0  0  0  0
    9.7235  -15.2282   20.8089 N   0  0  0  0  0  0  0  0  0  0  0  0
   10.8609  -16.2312   22.7062 C   0  0  0  0  0  0  0  0  0  0  0  0
   11.9472  -15.6806   22.3897 O   0  0  0  0  0  0  0  0  0  0  0  0
   10.6258  -16.6759   24.0330 N   0  0  0  0  0  0  0  0  0  0  0  0
   11.6008  -16.4692   25.0786 C   0  0  1  0  0  0  0  0  0  0  0  0
   10.9993  -16.9042   26.3589 C   0  0  0  0  0  0  0  0  0  0  0  0
   11.8577  -16.8359   27.5644 C   0  0  0  0  0  0  0  0  0  0  0  0
   11.1884  -17.4002   28.8052 C   0  0  0  0  0  0  0  0  0  0  0  0
   12.1471  -17.3315   29.9878 C   0  0  0  0  0  0  0  0  0  0  0  0
   11.4504  -17.8994   31.1269 N   0  0  0  0  0  0  0  0  0  0  0  0
   12.8595  -17.0699   24.6960 C   0  0  0  0  0  0  0  0  0  0  0  0
   14.0032  -16.5717   24.8607 O   0  0  0  0  0  0  0  0  0  0  0  0
   12.8465  -18.3171   24.0851 O   0  0  0  0  0  0  0  0  0  0  0  0
  2  1  1  6
  2  3  1  0
  4  3  1  0
  5  2  1  0
  5  6  2  0
  8  7  1  6
  8 10  1  0
  9  8  1  0
 10 11  1  6
 10 12  1  0
 11  5  1  0
 12 14  1  0
 13 12  2  0
 14 15  1  0
 15 21  1  0
 16 17  1  0
 15 16  1  1
 18 19  1  0
 18 17  1  0
 20 19  1  0
 21 22  2  0
 21 23  1  0
M  END
$$$$
