CTK.pdb
     RDKit          3D

 23 22  0  0  1  0  0  0  0  0999 V2000
    3.5784  -19.3419   20.0389 N   0  0  0  0  0  0  0  0  0  0  0  0
    3.7608  -18.0160   20.5443 C   0  0  1  0  0  0  0  0  0  0  0  0
    2.8454  -17.7213   21.7130 C   0  0  0  0  0  0  0  0  0  0  0  0
    3.2868  -18.8524   23.0727 S   0  0  0  0  0  0  0  0  0  0  0  0
    5.1816  -17.7513   20.9245 C   0  0  0  0  0  0  0  0  0  0  0  0
    5.9209  -18.7240   21.2248 O   0  0  0  0  0  0  0  0  0  0  0  0
    6.7499  -13.8209   21.4698 C   0  0  0  0  0  0  0  0  0  0  0  0
    7.4554  -14.8507   20.5805 C   0  0  1  0  0  0  0  0  0  0  0  0
    8.8164  -14.5844   20.6845 O   0  0  0  0  0  0  0  0  0  0  0  0
    7.1495  -16.2117   21.2058 C   0  0  2  0  0  0  0  0  0  0  0  0
    5.7398  -16.4598   20.9643 N   0  0  0  0  0  0  0  0  0  0  0  0
    7.4704  -16.2218   22.6518 C   0  0  0  0  0  0  0  0  0  0  0  0
    6.6145  -15.7651   23.4531 O   0  0  0  0  0  0  0  0  0  0  0  0
    8.7094  -16.7330   23.1181 N   0  0  0  0  0  0  0  0  0  0  0  0
    9.0708  -16.6683   24.5151 C   0  0  1  0  0  0  0  0  0  0  0  0
    8.9540  -18.0302   25.0824 C   0  0  0  0  0  0  0  0  0  0  0  0
    9.2975  -18.1957   26.5140 C   0  0  0  0  0  0  0  0  0  0  0  0
    9.2874  -19.6456   26.9655 C   0  0  0  0  0  0  0  0  0  0  0  0
    9.4924  -19.7202   28.4736 C   0  0  0  0  0  0  0  0  0  0  0  0
    9.5408  -21.1279   28.8218 N   0  0  0  0  0  0  0  0  0  0  0  0
   10.3421  -15.9940   24.6583 C   0  0  0  0  0  0  0  0  0  0  0  0
   11.1686  -15.7595   23.7389 O   0  0  0  0  0  0  0  0  0  0  0  0
   10.7235  -15.5468   25.9167 O   0  0  0  0  0  0  0  0  0  0  0  0
  2  1  1  1
  2  3  1  0
  4  3  1  0
  5  2  1  0
  5  6  2  0
  8  7  1  1
  8 10  1  0
  9  8  1  0
 10 11  1  1
 10 12  1  0
 11  5  1  0
 12 14  1  0
 13 12  2  0
 14 15  1  0
 15 21  1  0
 16 17  1  0
 15 16  1  6
 18 19  1  0
 18 17  1  0
 20 19  1  0
 21 22  2  0
 21 23  1  0
M  END
$$$$
