CTK.pdb
     RDKit          3D

 23 22  0  0  1  0  0  0  0  0999 V2000
    9.1057  -14.9442   14.1950 N   0  0  0  0  0  0  0  0  0  0  0  0
    8.3544  -15.3569   15.3404 C   0  0  1  0  0  0  0  0  0  0  0  0
    8.0292  -16.8347   15.3056 C   0  0  0  0  0  0  0  0  0  0  0  0
    6.8650  -17.1226   13.9328 S   0  0  0  0  0  0  0  0  0  0  0  0
    9.0469  -15.0128   16.6191 C   0  0  0  0  0  0  0  0  0  0  0  0
   10.2902  -14.8204   16.6035 O   0  0  0  0  0  0  0  0  0  0  0  0
    7.5522  -12.6575   19.1114 C   0  0  0  0  0  0  0  0  0  0  0  0
    8.0308  -13.8401   19.9608 C   0  0  1  0  0  0  0  0  0  0  0  0
    6.9168  -14.6475   20.1632 O   0  0  0  0  0  0  0  0  0  0  0  0
    9.0511  -14.5806   19.0961 C   0  0  2  0  0  0  0  0  0  0  0  0
    8.3748  -14.8917   17.8499 N   0  0  0  0  0  0  0  0  0  0  0  0
    9.5438  -15.8014   19.7748 C   0  0  0  0  0  0  0  0  0  0  0  0
    9.1013  -16.9145   19.3895 O   0  0  0  0  0  0  0  0  0  0  0  0
   10.4885  -15.7156   20.8302 N   0  0  0  0  0  0  0  0  0  0  0  0
   10.9411  -16.8948   21.5311 C   0  0  1  0  0  0  0  0  0  0  0  0
   12.2984  -17.2258   21.0429 C   0  0  0  0  0  0  0  0  0  0  0  0
   12.9768  -18.3834   21.6710 C   0  0  0  0  0  0  0  0  0  0  0  0
   14.3495  -18.6602   21.0835 C   0  0  0  0  0  0  0  0  0  0  0  0
   14.9187  -19.9426   21.6782 C   0  0  0  0  0  0  0  0  0  0  0  0
   16.1619  -20.2134   20.9807 N   0  0  0  0  0  0  0  0  0  0  0  0
   10.7726  -16.7090   22.9555 C   0  0  0  0  0  0  0  0  0  0  0  0
   10.9117  -17.5899   23.8432 O   0  0  0  0  0  0  0  0  0  0  0  0
   10.4234  -15.4508   23.4287 O   0  0  0  0  0  0  0  0  0  0  0  0
  2  1  1  6
  2  3  1  0
  4  3  1  0
  5  2  1  0
  5  6  2  0
  8  7  1  6
  8 10  1  0
  9  8  1  0
 10 11  1  6
 10 12  1  0
 11  5  1  0
 12 14  1  0
 13 12  2  0
 14 15  1  0
 15 21  1  0
 16 17  1  0
 15 16  1  1
 18 19  1  0
 18 17  1  0
 20 19  1  0
 21 22  2  0
 21 23  1  0
M  END
$$$$
