CTK.pdb
     RDKit          3D

 23 22  0  0  1  0  0  0  0  0999 V2000
   -7.1346  -24.3119   17.7934 N   0  0  0  0  0  0  0  0  0  0  0  0
   -6.2842  -24.0511   18.9140 C   0  0  1  0  0  0  0  0  0  0  0  0
   -6.8056  -24.6871   20.1846 C   0  0  0  0  0  0  0  0  0  0  0  0
   -8.2941  -23.7712   20.7026 S   0  0  0  0  0  0  0  0  0  0  0  0
   -4.8763  -24.4845   18.6623 C   0  0  0  0  0  0  0  0  0  0  0  0
   -4.6669  -25.6484   18.2329 O   0  0  0  0  0  0  0  0  0  0  0  0
   -2.5094  -23.1019   16.3888 C   0  0  0  0  0  0  0  0  0  0  0  0
   -1.7837  -22.9871   17.7339 C   0  0  1  0  0  0  0  0  0  0  0  0
   -2.1000  -21.7306   18.2387 O   0  0  0  0  0  0  0  0  0  0  0  0
   -2.3970  -24.0674   18.6250 C   0  0  2  0  0  0  0  0  0  0  0  0
   -3.7635  -23.6511   18.8826 N   0  0  0  0  0  0  0  0  0  0  0  0
   -1.6254  -24.2302   19.8787 C   0  0  0  0  0  0  0  0  0  0  0  0
   -2.0310  -23.6301   20.9076 O   0  0  0  0  0  0  0  0  0  0  0  0
   -0.4613  -25.0410   19.9161 N   0  0  0  0  0  0  0  0  0  0  0  0
    0.3155  -25.1848   21.1254 C   0  0  1  0  0  0  0  0  0  0  0  0
    0.4681  -26.6304   21.4031 C   0  0  0  0  0  0  0  0  0  0  0  0
    1.2472  -27.0071   22.6055 C   0  0  0  0  0  0  0  0  0  0  0  0
    1.3076  -28.5077   22.8304 C   0  0  0  0  0  0  0  0  0  0  0  0
    2.0842  -28.8097   24.1063 C   0  0  0  0  0  0  0  0  0  0  0  0
    2.1089  -30.2532   24.2513 N   0  0  0  0  0  0  0  0  0  0  0  0
    1.5229  -24.3949   21.0251 C   0  0  0  0  0  0  0  0  0  0  0  0
    1.9605  -23.8316   19.9885 O   0  0  0  0  0  0  0  0  0  0  0  0
    2.3019  -24.2176   22.1612 O   0  0  0  0  0  0  0  0  0  0  0  0
  2  1  1  6
  2  3  1  0
  4  3  1  0
  5  2  1  0
  5  6  2  0
  8  7  1  6
  8 10  1  0
  9  8  1  0
 10 11  1  1
 10 12  1  0
 11  5  1  0
 12 14  1  0
 13 12  2  0
 14 15  1  0
 15 21  1  0
 16 17  1  0
 15 16  1  6
 18 19  1  0
 18 17  1  0
 20 19  1  0
 21 22  2  0
 21 23  1  0
M  END
$$$$
