CTK.pdb
     RDKit          3D

 23 22  0  0  1  0  0  0  0  0999 V2000
    7.4391  -15.1246   17.5367 N   0  0  0  0  0  0  0  0  0  0  0  0
    8.2449  -14.4568   18.5121 C   0  0  1  0  0  0  0  0  0  0  0  0
    7.7435  -13.0588   18.8041 C   0  0  0  0  0  0  0  0  0  0  0  0
    8.7912  -12.3477   20.1155 S   0  0  0  0  0  0  0  0  0  0  0  0
    8.3536  -15.2394   19.7806 C   0  0  0  0  0  0  0  0  0  0  0  0
    7.2992  -15.5697   20.3823 O   0  0  0  0  0  0  0  0  0  0  0  0
    8.8073  -18.2388   20.2873 C   0  0  0  0  0  0  0  0  0  0  0  0
    9.9737  -17.8220   21.1898 C   0  0  1  0  0  0  0  0  0  0  0  0
   11.1152  -17.8760   20.3974 O   0  0  0  0  0  0  0  0  0  0  0  0
    9.6906  -16.3722   21.5837 C   0  0  2  0  0  0  0  0  0  0  0  0
    9.5844  -15.6291   20.3413 N   0  0  0  0  0  0  0  0  0  0  0  0
   10.7597  -15.8351   22.4568 C   0  0  0  0  0  0  0  0  0  0  0  0
   11.7321  -15.2500   21.9132 O   0  0  0  0  0  0  0  0  0  0  0  0
   10.6874  -15.9777   23.8668 N   0  0  0  0  0  0  0  0  0  0  0  0
   11.7359  -15.4806   24.7270 C   0  0  1  0  0  0  0  0  0  0  0  0
   11.2069  -15.4220   26.1079 C   0  0  0  0  0  0  0  0  0  0  0  0
   10.7579  -16.6978   26.7123 C   0  0  0  0  0  0  0  0  0  0  0  0
   11.1527  -16.8372   28.1720 C   0  0  0  0  0  0  0  0  0  0  0  0
   10.7453  -18.2111   28.6902 C   0  0  0  0  0  0  0  0  0  0  0  0
   11.3009  -18.3385   30.0246 N   0  0  0  0  0  0  0  0  0  0  0  0
   12.9461  -16.2420   24.5092 C   0  0  0  0  0  0  0  0  0  0  0  0
   13.0203  -17.3988   24.0198 O   0  0  0  0  0  0  0  0  0  0  0  0
   14.1644  -15.6759   24.8615 O   0  0  0  0  0  0  0  0  0  0  0  0
  2  1  1  6
  2  3  1  0
  4  3  1  0
  5  2  1  0
  5  6  2  0
  8  7  1  6
  8 10  1  0
  9  8  1  0
 10 11  1  6
 10 12  1  0
 11  5  1  0
 12 14  1  0
 13 12  2  0
 14 15  1  0
 15 21  1  0
 16 17  1  0
 15 16  1  1
 18 19  1  0
 18 17  1  0
 20 19  1  0
 21 22  2  0
 21 23  1  0
M  END
$$$$
