CTK.pdb
     RDKit          3D

 23 22  0  0  1  0  0  0  0  0999 V2000
    8.7789  -14.5022   15.1896 N   0  0  0  0  0  0  0  0  0  0  0  0
    8.5177  -15.3916   16.2793 C   0  0  1  0  0  0  0  0  0  0  0  0
    9.0309  -16.7895   16.0087 C   0  0  0  0  0  0  0  0  0  0  0  0
    7.9970  -17.5249   14.6998 S   0  0  0  0  0  0  0  0  0  0  0  0
    9.0760  -14.8793   17.5674 C   0  0  0  0  0  0  0  0  0  0  0  0
   10.2135  -14.3416   17.5649 O   0  0  0  0  0  0  0  0  0  0  0  0
    7.3190  -12.6891   20.0315 C   0  0  0  0  0  0  0  0  0  0  0  0
    7.7814  -13.9071   20.8387 C   0  0  1  0  0  0  0  0  0  0  0  0
    6.7141  -14.7986   20.8405 O   0  0  0  0  0  0  0  0  0  0  0  0
    8.9473  -14.5039   20.0503 C   0  0  2  0  0  0  0  0  0  0  0  0
    8.3896  -14.9679   18.7930 N   0  0  0  0  0  0  0  0  0  0  0  0
    9.5974  -15.6016   20.8027 C   0  0  0  0  0  0  0  0  0  0  0  0
    9.3433  -16.7862   20.4627 O   0  0  0  0  0  0  0  0  0  0  0  0
   10.4818  -15.3228   21.8768 N   0  0  0  0  0  0  0  0  0  0  0  0
   11.2116  -16.3770   22.5422 C   0  0  1  0  0  0  0  0  0  0  0  0
   12.6471  -16.0176   22.5324 C   0  0  0  0  0  0  0  0  0  0  0  0
   13.5785  -16.9441   23.2171 C   0  0  0  0  0  0  0  0  0  0  0  0
   15.0144  -16.4498   23.2220 C   0  0  0  0  0  0  0  0  0  0  0  0
   15.9039  -17.4490   23.9518 C   0  0  0  0  0  0  0  0  0  0  0  0
   17.2544  -16.9204   23.9065 N   0  0  0  0  0  0  0  0  0  0  0  0
   10.6035  -16.6556   23.8245 C   0  0  0  0  0  0  0  0  0  0  0  0
   10.8955  -17.6053   24.5967 O   0  0  0  0  0  0  0  0  0  0  0  0
    9.5961  -15.8166   24.2829 O   0  0  0  0  0  0  0  0  0  0  0  0
  2  1  1  6
  2  3  1  0
  4  3  1  0
  5  2  1  0
  5  6  2  0
  8  7  1  6
  8 10  1  0
  9  8  1  0
 10 11  1  6
 10 12  1  0
 11  5  1  0
 12 14  1  0
 13 12  2  0
 14 15  1  0
 15 21  1  0
 16 17  1  0
 15 16  1  1
 18 19  1  0
 18 17  1  0
 20 19  1  0
 21 22  2  0
 21 23  1  0
M  END
$$$$
