CTK.pdb
     RDKit          3D

 23 22  0  0  1  0  0  0  0  0999 V2000
    5.6149  -18.2948   17.6332 N   0  0  0  0  0  0  0  0  0  0  0  0
    5.6698  -17.6657   18.9169 C   0  0  1  0  0  0  0  0  0  0  0  0
    5.2556  -18.6048   20.0293 C   0  0  0  0  0  0  0  0  0  0  0  0
    3.4410  -18.5273   20.1848 S   0  0  0  0  0  0  0  0  0  0  0  0
    7.0200  -17.0930   19.2036 C   0  0  0  0  0  0  0  0  0  0  0  0
    8.0312  -17.6343   18.6865 O   0  0  0  0  0  0  0  0  0  0  0  0
    7.5445  -13.4395   19.2356 C   0  0  0  0  0  0  0  0  0  0  0  0
    8.3144  -13.9012   20.4778 C   0  0  1  0  0  0  0  0  0  0  0  0
    7.4702  -13.6810   21.5607 O   0  0  0  0  0  0  0  0  0  0  0  0
    8.5303  -15.4032   20.2925 C   0  0  2  0  0  0  0  0  0  0  0  0
    7.2204  -15.9704   20.0287 N   0  0  0  0  0  0  0  0  0  0  0  0
    9.1604  -16.0061   21.4897 C   0  0  0  0  0  0  0  0  0  0  0  0
    8.4125  -16.3745   22.4322 O   0  0  0  0  0  0  0  0  0  0  0  0
   10.5685  -16.1629   21.5694 N   0  0  0  0  0  0  0  0  0  0  0  0
   11.1932  -16.7653   22.7241 C   0  0  1  0  0  0  0  0  0  0  0  0
   11.8691  -18.0063   22.2846 C   0  0  0  0  0  0  0  0  0  0  0  0
   11.0035  -19.1298   21.8565 C   0  0  0  0  0  0  0  0  0  0  0  0
   11.7828  -20.2883   21.2593 C   0  0  0  0  0  0  0  0  0  0  0  0
   10.8271  -21.4097   20.8701 C   0  0  0  0  0  0  0  0  0  0  0  0
   11.6291  -22.4499   20.2534 N   0  0  0  0  0  0  0  0  0  0  0  0
   11.9949  -15.7788   23.4139 C   0  0  0  0  0  0  0  0  0  0  0  0
   12.3914  -15.8427   24.6064 O   0  0  0  0  0  0  0  0  0  0  0  0
   12.3852  -14.6362   22.7275 O   0  0  0  0  0  0  0  0  0  0  0  0
  2  1  1  6
  2  3  1  0
  4  3  1  0
  5  2  1  0
  5  6  2  0
  8  7  1  6
  8 10  1  0
  9  8  1  0
 10 11  1  1
 10 12  1  0
 11  5  1  0
 12 14  1  0
 13 12  2  0
 14 15  1  0
 15 21  1  0
 16 17  1  0
 15 16  1  6
 18 19  1  0
 18 17  1  0
 20 19  1  0
 21 22  2  0
 21 23  1  0
M  END
$$$$
