CTK.pdb
     RDKit          3D

 23 22  0  0  1  0  0  0  0  0999 V2000
    7.5139  -13.8493   16.8233 N   0  0  0  0  0  0  0  0  0  0  0  0
    8.6623  -13.8692   17.6764 C   0  0  1  0  0  0  0  0  0  0  0  0
    8.7770  -12.6085   18.5060 C   0  0  0  0  0  0  0  0  0  0  0  0
    7.5417  -12.7006   19.8433 S   0  0  0  0  0  0  0  0  0  0  0  0
    8.6813  -15.0718   18.5633 C   0  0  0  0  0  0  0  0  0  0  0  0
    7.7526  -15.9146   18.4632 O   0  0  0  0  0  0  0  0  0  0  0  0
    9.3821  -17.3494   18.0057 C   0  0  0  0  0  0  0  0  0  0  0  0
   10.1994  -17.6287   19.2718 C   0  0  1  0  0  0  0  0  0  0  0  0
   11.5332  -17.4587   18.9172 O   0  0  0  0  0  0  0  0  0  0  0  0
    9.7919  -16.5458   20.2710 C   0  0  2  0  0  0  0  0  0  0  0  0
    9.6928  -15.3123   19.5122 N   0  0  0  0  0  0  0  0  0  0  0  0
   10.7747  -16.4363   21.3737 C   0  0  0  0  0  0  0  0  0  0  0  0
   11.7158  -15.6103   21.2503 O   0  0  0  0  0  0  0  0  0  0  0  0
   10.6562  -17.2417   22.5360 N   0  0  0  0  0  0  0  0  0  0  0  0
   11.5216  -17.0473   23.6762 C   0  0  1  0  0  0  0  0  0  0  0  0
   10.9424  -17.7832   24.8221 C   0  0  0  0  0  0  0  0  0  0  0  0
   11.7100  -17.7698   26.0891 C   0  0  0  0  0  0  0  0  0  0  0  0
   11.1439  -18.7099   27.1387 C   0  0  0  0  0  0  0  0  0  0  0  0
   11.9713  -18.6199   28.4153 C   0  0  0  0  0  0  0  0  0  0  0  0
   11.4169  -19.5869   29.3442 N   0  0  0  0  0  0  0  0  0  0  0  0
   12.8865  -17.3539   23.3091 C   0  0  0  0  0  0  0  0  0  0  0  0
   13.2657  -18.3071   22.5804 O   0  0  0  0  0  0  0  0  0  0  0  0
   13.9059  -16.5408   23.7874 O   0  0  0  0  0  0  0  0  0  0  0  0
  2  1  1  1
  2  3  1  0
  4  3  1  0
  5  2  1  0
  5  6  2  0
  8  7  1  6
  8 10  1  0
  9  8  1  0
 10 11  1  6
 10 12  1  0
 11  5  1  0
 12 14  1  0
 13 12  2  0
 14 15  1  0
 15 21  1  0
 16 17  1  0
 15 16  1  1
 18 19  1  0
 18 17  1  0
 20 19  1  0
 21 22  2  0
 21 23  1  0
M  END
$$$$
