CTK.pdb
     RDKit          3D

 23 22  0  0  1  0  0  0  0  0999 V2000
    7.8578  -14.3335   17.0438 N   0  0  0  0  0  0  0  0  0  0  0  0
    8.4887  -14.1115   18.3085 C   0  0  1  0  0  0  0  0  0  0  0  0
    7.5583  -13.4467   19.3000 C   0  0  0  0  0  0  0  0  0  0  0  0
    8.3964  -11.9649   19.9518 S   0  0  0  0  0  0  0  0  0  0  0  0
    9.0417  -15.3730   18.8883 C   0  0  0  0  0  0  0  0  0  0  0  0
    8.2673  -16.3476   19.0710 O   0  0  0  0  0  0  0  0  0  0  0  0
   11.0147  -17.7143   17.7420 C   0  0  0  0  0  0  0  0  0  0  0  0
   11.8522  -17.3964   18.9857 C   0  0  1  0  0  0  0  0  0  0  0  0
   12.8401  -16.5099   18.5711 O   0  0  0  0  0  0  0  0  0  0  0  0
   10.9011  -16.6898   19.9517 C   0  0  2  0  0  0  0  0  0  0  0  0
   10.3948  -15.5283   19.2434 N   0  0  0  0  0  0  0  0  0  0  0  0
   11.5933  -16.3117   21.2053 C   0  0  0  0  0  0  0  0  0  0  0  0
   12.2105  -15.2156   21.2353 O   0  0  0  0  0  0  0  0  0  0  0  0
   11.5601  -17.1635   22.3398 N   0  0  0  0  0  0  0  0  0  0  0  0
   12.2604  -16.8223   23.5563 C   0  0  1  0  0  0  0  0  0  0  0  0
   11.7454  -17.6885   24.6401 C   0  0  0  0  0  0  0  0  0  0  0  0
   12.3906  -17.5624   25.9677 C   0  0  0  0  0  0  0  0  0  0  0  0
   11.8468  -18.5446   26.9902 C   0  0  0  0  0  0  0  0  0  0  0  0
   12.6312  -18.4256   28.2913 C   0  0  0  0  0  0  0  0  0  0  0  0
   12.0486  -19.3749   29.2213 N   0  0  0  0  0  0  0  0  0  0  0  0
   13.6865  -16.8328   23.3162 C   0  0  0  0  0  0  0  0  0  0  0  0
   14.3156  -17.6558   22.6019 O   0  0  0  0  0  0  0  0  0  0  0  0
   14.4722  -15.8560   23.9143 O   0  0  0  0  0  0  0  0  0  0  0  0
  2  1  1  6
  2  3  1  0
  4  3  1  0
  5  2  1  0
  5  6  2  0
  8  7  1  6
  8 10  1  0
  9  8  1  0
 10 11  1  6
 10 12  1  0
 11  5  1  0
 12 14  1  0
 13 12  2  0
 14 15  1  0
 15 21  1  0
 16 17  1  0
 15 16  1  1
 18 19  1  0
 18 17  1  0
 20 19  1  0
 21 22  2  0
 21 23  1  0
M  END
$$$$
