CTK.pdb
     RDKit          3D

 23 22  0  0  1  0  0  0  0  0999 V2000
    7.9598  -14.2818   17.4695 N   0  0  0  0  0  0  0  0  0  0  0  0
    8.6727  -13.9448   18.6632 C   0  0  1  0  0  0  0  0  0  0  0  0
    8.1892  -12.6438   19.2670 C   0  0  0  0  0  0  0  0  0  0  0  0
    9.4950  -11.3941   19.0306 S   0  0  0  0  0  0  0  0  0  0  0  0
    8.6115  -15.0378   19.6805 C   0  0  0  0  0  0  0  0  0  0  0  0
    7.4899  -15.5161   19.9908 O   0  0  0  0  0  0  0  0  0  0  0  0
    9.1515  -18.1026   19.6011 C   0  0  0  0  0  0  0  0  0  0  0  0
   10.1010  -17.8749   20.7825 C   0  0  1  0  0  0  0  0  0  0  0  0
   11.3763  -17.7654   20.2390 O   0  0  0  0  0  0  0  0  0  0  0  0
    9.6856  -16.5354   21.3910 C   0  0  2  0  0  0  0  0  0  0  0  0
    9.7528  -15.5641   20.3143 N   0  0  0  0  0  0  0  0  0  0  0  0
   10.5662  -16.1644   22.5227 C   0  0  0  0  0  0  0  0  0  0  0  0
   11.6363  -15.5538   22.2669 O   0  0  0  0  0  0  0  0  0  0  0  0
   10.2109  -16.4897   23.8575 N   0  0  0  0  0  0  0  0  0  0  0  0
   11.0777  -16.1641   24.9663 C   0  0  1  0  0  0  0  0  0  0  0  0
   10.2296  -15.7328   26.0998 C   0  0  0  0  0  0  0  0  0  0  0  0
   10.9031  -15.5179   27.4018 C   0  0  0  0  0  0  0  0  0  0  0  0
    9.9468  -15.1033   28.5061 C   0  0  0  0  0  0  0  0  0  0  0  0
   10.7269  -14.7935   29.7779 C   0  0  0  0  0  0  0  0  0  0  0  0
    9.7554  -14.3990   30.7810 N   0  0  0  0  0  0  0  0  0  0  0  0
   11.9986  -17.2543   25.2006 C   0  0  0  0  0  0  0  0  0  0  0  0
   13.1346  -17.1680   25.7348 O   0  0  0  0  0  0  0  0  0  0  0  0
   11.6299  -18.5358   24.8124 O   0  0  0  0  0  0  0  0  0  0  0  0
  2  1  1  6
  2  3  1  0
  4  3  1  0
  5  2  1  0
  5  6  2  0
  8  7  1  6
  8 10  1  0
  9  8  1  0
 10 11  1  6
 10 12  1  0
 11  5  1  0
 12 14  1  0
 13 12  2  0
 14 15  1  0
 15 21  1  0
 16 17  1  0
 15 16  1  1
 18 19  1  0
 18 17  1  0
 20 19  1  0
 21 22  2  0
 21 23  1  0
M  END
$$$$
