CTK.pdb
     RDKit          3D

 23 22  0  0  1  0  0  0  0  0999 V2000
    8.0104  -14.3518   16.9147 N   0  0  0  0  0  0  0  0  0  0  0  0
    8.9060  -14.1350   18.0091 C   0  0  1  0  0  0  0  0  0  0  0  0
    8.9188  -12.6891   18.4564 C   0  0  0  0  0  0  0  0  0  0  0  0
   10.1474  -12.5245   19.7929 S   0  0  0  0  0  0  0  0  0  0  0  0
    8.6025  -15.0290   19.1676 C   0  0  0  0  0  0  0  0  0  0  0  0
    7.4257  -15.0704   19.6105 O   0  0  0  0  0  0  0  0  0  0  0  0
    8.6236  -18.2609   19.3962 C   0  0  0  0  0  0  0  0  0  0  0  0
    9.4739  -18.0537   20.6543 C   0  0  1  0  0  0  0  0  0  0  0  0
   10.7886  -18.3086   20.2796 O   0  0  0  0  0  0  0  0  0  0  0  0
    9.3204  -16.5761   21.0151 C   0  0  2  0  0  0  0  0  0  0  0  0
    9.5731  -15.8335   19.7937 N   0  0  0  0  0  0  0  0  0  0  0  0
   10.2536  -16.1887   22.0980 C   0  0  0  0  0  0  0  0  0  0  0  0
   11.3837  -15.7391   21.7753 O   0  0  0  0  0  0  0  0  0  0  0  0
    9.8815  -16.3218   23.4609 N   0  0  0  0  0  0  0  0  0  0  0  0
   10.7812  -15.9434   24.5258 C   0  0  1  0  0  0  0  0  0  0  0  0
    9.9670  -15.5914   25.7104 C   0  0  0  0  0  0  0  0  0  0  0  0
   10.6943  -15.3287   26.9741 C   0  0  0  0  0  0  0  0  0  0  0  0
    9.7723  -14.9988   28.1347 C   0  0  0  0  0  0  0  0  0  0  0  0
   10.5962  -14.6289   29.3621 C   0  0  0  0  0  0  0  0  0  0  0  0
    9.6580  -14.4072   30.4466 N   0  0  0  0  0  0  0  0  0  0  0  0
   11.7938  -16.9624   24.6926 C   0  0  0  0  0  0  0  0  0  0  0  0
   12.9961  -16.7726   25.0119 O   0  0  0  0  0  0  0  0  0  0  0  0
   11.4447  -18.2913   24.4894 O   0  0  0  0  0  0  0  0  0  0  0  0
  2  1  1  6
  2  3  1  0
  4  3  1  0
  5  2  1  0
  5  6  2  0
  8  7  1  6
  8 10  1  0
  9  8  1  0
 10 11  1  6
 10 12  1  0
 11  5  1  0
 12 14  1  0
 13 12  2  0
 14 15  1  0
 15 21  1  0
 16 17  1  0
 15 16  1  1
 18 19  1  0
 18 17  1  0
 20 19  1  0
 21 22  2  0
 21 23  1  0
M  END
$$$$
