CTK.pdb
     RDKit          3D

 23 22  0  0  1  0  0  0  0  0999 V2000
    5.6923  -13.5152   27.0033 N   0  0  0  0  0  0  0  0  0  0  0  0
    6.7092  -13.1377   26.0705 C   0  0  1  0  0  0  0  0  0  0  0  0
    8.0053  -12.7687   26.7597 C   0  0  0  0  0  0  0  0  0  0  0  0
    7.6594  -11.4004   27.9134 S   0  0  0  0  0  0  0  0  0  0  0  0
    6.9548  -14.1997   25.0483 C   0  0  0  0  0  0  0  0  0  0  0  0
    6.0221  -14.9942   24.7623 O   0  0  0  0  0  0  0  0  0  0  0  0
    7.9637  -13.2041   21.8947 C   0  0  0  0  0  0  0  0  0  0  0  0
    7.4554  -14.6305   22.1312 C   0  0  1  0  0  0  0  0  0  0  0  0
    7.6620  -15.3178   20.9400 O   0  0  0  0  0  0  0  0  0  0  0  0
    8.3554  -15.2117   23.2217 C   0  0  2  0  0  0  0  0  0  0  0  0
    8.1853  -14.3583   24.3836 N   0  0  0  0  0  0  0  0  0  0  0  0
    9.7680  -15.2646   22.7795 C   0  0  0  0  0  0  0  0  0  0  0  0
   10.3288  -14.1863   22.4534 O   0  0  0  0  0  0  0  0  0  0  0  0
   10.4676  -16.4980   22.7258 N   0  0  0  0  0  0  0  0  0  0  0  0
   11.5215  -16.8055   23.6646 C   0  0  1  0  0  0  0  0  0  0  0  0
   11.0363  -17.8756   24.5643 C   0  0  0  0  0  0  0  0  0  0  0  0
   11.9691  -18.3483   25.6137 C   0  0  0  0  0  0  0  0  0  0  0  0
   11.3439  -19.3647   26.5529 C   0  0  0  0  0  0  0  0  0  0  0  0
   12.3500  -19.7679   27.6241 C   0  0  0  0  0  0  0  0  0  0  0  0
   11.6892  -20.7383   28.4769 N   0  0  0  0  0  0  0  0  0  0  0  0
   12.7556  -17.0452   22.9496 C   0  0  0  0  0  0  0  0  0  0  0  0
   12.8632  -17.3870   21.7434 O   0  0  0  0  0  0  0  0  0  0  0  0
   13.9597  -16.8939   23.6250 O   0  0  0  0  0  0  0  0  0  0  0  0
  2  1  1  1
  2  3  1  0
  4  3  1  0
  5  2  1  0
  5  6  2  0
  8  7  1  6
  8 10  1  0
  9  8  1  0
 10 11  1  1
 10 12  1  0
 11  5  1  0
 12 14  1  0
 13 12  2  0
 14 15  1  0
 15 21  1  0
 16 17  1  0
 15 16  1  6
 18 19  1  0
 18 17  1  0
 20 19  1  0
 21 22  2  0
 21 23  1  0
M  END
$$$$
