PGQ.pdb
     RDKit          3D

 21 21  0  0  1  0  0  0  0  0999 V2000
   21.0542  -12.9643  -17.7684 N   0  0  0  0  0  0  0  0  0  0  0  0
   21.0965  -14.4142  -17.9070 C   0  0  0  0  0  0  0  0  0  0  0  0
   19.9491  -14.8411  -17.0154 C   0  0  0  0  0  0  0  0  0  0  0  0
   18.9440  -13.7303  -17.2389 C   0  0  0  0  0  0  0  0  0  0  0  0
   19.6685  -12.6725  -18.0175 C   0  0  1  0  0  0  0  0  0  0  0  0
   19.2681  -11.3411  -17.4971 C   0  0  0  0  0  0  0  0  0  0  0  0
   18.2043  -10.8492  -17.9544 O   0  0  0  0  0  0  0  0  0  0  0  0
   19.9978  -10.6192  -16.5432 N   0  0  0  0  0  0  0  0  0  0  0  0
   19.4491   -9.4012  -15.9815 C   0  0  0  0  0  0  0  0  0  0  0  0
   20.5642   -8.5303  -15.4636 C   0  0  0  0  0  0  0  0  0  0  0  0
   21.4914   -9.0082  -14.7871 O   0  0  0  0  0  0  0  0  0  0  0  0
   21.2119   -2.3653  -16.8417 N   0  0  0  0  0  0  0  0  0  0  0  0
   22.2613   -2.5870  -15.9155 C   0  0  0  0  0  0  0  0  0  0  0  0
   23.0152   -1.6523  -15.5433 O   0  0  0  0  0  0  0  0  0  0  0  0
   22.4576   -3.9503  -15.3881 C   0  0  0  0  0  0  0  0  0  0  0  0
   21.3617   -4.8806  -15.9227 C   0  0  0  0  0  0  0  0  0  0  0  0
   21.6329   -6.2461  -15.3241 C   0  0  2  0  0  0  0  0  0  0  0  0
   20.5586   -7.1382  -15.7518 N   0  0  0  0  0  0  0  0  0  0  0  0
   21.6308   -6.1435  -13.8400 C   0  0  0  0  0  0  0  0  0  0  0  0
   20.5748   -6.2789  -13.2073 O   0  0  0  0  0  0  0  0  0  0  0  0
   22.8214   -5.8957  -13.1799 O   0  0  0  0  0  0  0  0  0  0  0  0
  1  2  1  0
  1  5  1  0
  2  3  1  0
  3  4  1  0
  5  4  1  0
  5  6  1  1
  6  7  2  0
  8  6  1  0
  9 10  1  0
  9  8  1  0
 10 18  1  0
 11 10  2  0
 13 12  1  0
 13 14  2  0
 15 13  1  0
 16 15  1  0
 17 16  1  6
 17 19  1  0
 18 17  1  0
 19 20  2  0
 19 21  1  0
M  END
$$$$
