PGQ.pdb
     RDKit          3D

 21 21  0  0  1  0  0  0  0  0999 V2000
   19.3782   -9.4357  -16.0663 N   0  0  0  0  0  0  0  0  0  0  0  0
   19.5875  -10.4332  -17.1077 C   0  0  0  0  0  0  0  0  0  0  0  0
   19.5144  -11.7224  -16.3164 C   0  0  0  0  0  0  0  0  0  0  0  0
   18.4576  -11.3992  -15.2808 C   0  0  0  0  0  0  0  0  0  0  0  0
   18.2004   -9.9265  -15.4034 C   0  0  1  0  0  0  0  0  0  0  0  0
   18.0386   -9.3572  -14.0420 C   0  0  0  0  0  0  0  0  0  0  0  0
   17.0346   -9.7345  -13.3845 O   0  0  0  0  0  0  0  0  0  0  0  0
   18.9271   -8.4410  -13.4634 N   0  0  0  0  0  0  0  0  0  0  0  0
   18.7700   -8.0582  -12.0746 C   0  0  0  0  0  0  0  0  0  0  0  0
   17.8355   -6.8807  -11.9723 C   0  0  0  0  0  0  0  0  0  0  0  0
   17.7306   -6.0611  -12.9013 O   0  0  0  0  0  0  0  0  0  0  0  0
   13.1638   -6.8417   -7.9418 N   0  0  0  0  0  0  0  0  0  0  0  0
   14.5129   -6.9630   -7.5253 C   0  0  0  0  0  0  0  0  0  0  0  0
   14.8096   -7.3965   -6.3830 O   0  0  0  0  0  0  0  0  0  0  0  0
   15.5778   -6.5674   -8.4659 C   0  0  0  0  0  0  0  0  0  0  0  0
   14.9595   -6.1059   -9.7915 C   0  0  0  0  0  0  0  0  0  0  0  0
   16.1071   -5.6043  -10.6447 C   0  0  2  0  0  0  0  0  0  0  0  0
   17.0595   -6.7013  -10.7947 N   0  0  0  0  0  0  0  0  0  0  0  0
   16.7699   -4.4627   -9.9586 C   0  0  0  0  0  0  0  0  0  0  0  0
   17.8731   -4.6164   -9.4172 O   0  0  0  0  0  0  0  0  0  0  0  0
   16.1379   -3.2321   -9.9345 O   0  0  0  0  0  0  0  0  0  0  0  0
  1  2  1  0
  1  5  1  0
  2  3  1  0
  3  4  1  0
  5  4  1  0
  5  6  1  1
  6  7  2  0
  8  6  1  0
  9 10  1  0
  9  8  1  0
 10 18  1  0
 11 10  2  0
 13 12  1  0
 13 14  2  0
 15 13  1  0
 16 15  1  0
 17 16  1  1
 17 19  1  0
 18 17  1  0
 19 20  2  0
 19 21  1  0
M  END
$$$$
