PGQ.pdb
     RDKit          3D

 21 21  0  0  1  0  0  0  0  0999 V2000
   21.2129  -10.9532  -16.3033 N   0  0  0  0  0  0  0  0  0  0  0  0
   20.8175  -11.8980  -17.3397 C   0  0  0  0  0  0  0  0  0  0  0  0
   20.4223  -10.9680  -18.4678 C   0  0  0  0  0  0  0  0  0  0  0  0
   21.4202   -9.8394  -18.3123 C   0  0  0  0  0  0  0  0  0  0  0  0
   22.1180  -10.0860  -17.0077 C   0  0  1  0  0  0  0  0  0  0  0  0
   22.3085   -8.7857  -16.3172 C   0  0  0  0  0  0  0  0  0  0  0  0
   23.0675   -7.9522  -16.8756 O   0  0  0  0  0  0  0  0  0  0  0  0
   21.6997   -8.4456  -15.1018 N   0  0  0  0  0  0  0  0  0  0  0  0
   21.7531   -7.0790  -14.6226 C   0  0  0  0  0  0  0  0  0  0  0  0
   20.3577   -6.5210  -14.5149 C   0  0  0  0  0  0  0  0  0  0  0  0
   19.4830   -6.8122  -15.3492 O   0  0  0  0  0  0  0  0  0  0  0  0
   17.5662   -4.8570   -9.2403 N   0  0  0  0  0  0  0  0  0  0  0  0
   16.6177   -4.4286  -10.2021 C   0  0  0  0  0  0  0  0  0  0  0  0
   15.4920   -3.9855   -9.8599 O   0  0  0  0  0  0  0  0  0  0  0  0
   16.9770   -4.5121  -11.6301 C   0  0  0  0  0  0  0  0  0  0  0  0
   18.3844   -5.1025  -11.7814 C   0  0  0  0  0  0  0  0  0  0  0  0
   18.6945   -5.0892  -13.2647 C   0  0  2  0  0  0  0  0  0  0  0  0
   20.0327   -5.6465  -13.4422 N   0  0  0  0  0  0  0  0  0  0  0  0
   18.6718   -3.6868  -13.7609 C   0  0  0  0  0  0  0  0  0  0  0  0
   19.7103   -3.0121  -13.7702 O   0  0  0  0  0  0  0  0  0  0  0  0
   17.4781   -3.1501  -14.2098 O   0  0  0  0  0  0  0  0  0  0  0  0
  1  2  1  0
  1  5  1  0
  2  3  1  0
  3  4  1  0
  5  4  1  0
  5  6  1  1
  6  7  2  0
  8  6  1  0
  9 10  1  0
  9  8  1  0
 10 18  1  0
 11 10  2  0
 13 12  1  0
 13 14  2  0
 15 13  1  0
 16 15  1  0
 17 16  1  1
 17 19  1  0
 18 17  1  0
 19 20  2  0
 19 21  1  0
M  END
$$$$
