PGQ.pdb
     RDKit          3D

 21 21  0  0  1  0  0  0  0  0999 V2000
   27.1803  -15.7538  -18.4448 N   0  0  0  0  0  0  0  0  0  0  0  0
   27.8320  -15.2094  -19.6290 C   0  0  0  0  0  0  0  0  0  0  0  0
   29.2728  -15.6160  -19.4002 C   0  0  0  0  0  0  0  0  0  0  0  0
   29.1188  -16.9690  -18.7371 C   0  0  0  0  0  0  0  0  0  0  0  0
   27.6578  -17.1099  -18.4278 C   0  0  1  0  0  0  0  0  0  0  0  0
   27.5136  -17.7439  -17.0932 C   0  0  0  0  0  0  0  0  0  0  0  0
   27.8923  -18.9390  -16.9885 O   0  0  0  0  0  0  0  0  0  0  0  0
   26.9886  -17.0943  -15.9681 N   0  0  0  0  0  0  0  0  0  0  0  0
   26.9817  -17.7640  -14.6829 C   0  0  0  0  0  0  0  0  0  0  0  0
   25.7531  -18.6281  -14.5642 C   0  0  0  0  0  0  0  0  0  0  0  0
   24.6140  -18.1296  -14.5690 O   0  0  0  0  0  0  0  0  0  0  0  0
   25.0300  -23.8114  -12.1817 N   0  0  0  0  0  0  0  0  0  0  0  0
   24.0169  -24.0524  -13.1429 C   0  0  0  0  0  0  0  0  0  0  0  0
   23.1237  -24.9162  -12.9510 O   0  0  0  0  0  0  0  0  0  0  0  0
   24.0271  -23.2631  -14.3888 C   0  0  0  0  0  0  0  0  0  0  0  0
   25.2625  -22.3547  -14.4221 C   0  0  0  0  0  0  0  0  0  0  0  0
   24.7481  -20.9327  -14.3233 C   0  0  2  0  0  0  0  0  0  0  0  0
   25.8957  -20.0375  -14.4447 N   0  0  0  0  0  0  0  0  0  0  0  0
   24.1015  -20.7328  -12.9984 C   0  0  0  0  0  0  0  0  0  0  0  0
   24.7842  -20.4263  -12.0115 O   0  0  0  0  0  0  0  0  0  0  0  0
   22.7319  -20.8940  -12.8858 O   0  0  0  0  0  0  0  0  0  0  0  0
  1  2  1  0
  1  5  1  0
  2  3  1  0
  3  4  1  0
  5  4  1  0
  5  6  1  1
  6  7  2  0
  8  6  1  0
  9 10  1  0
  9  8  1  0
 10 18  1  0
 11 10  2  0
 13 12  1  0
 13 14  2  0
 15 13  1  0
 16 15  1  0
 17 16  1  1
 17 19  1  0
 18 17  1  0
 19 20  2  0
 19 21  1  0
M  END
$$$$
