PGQ.pdb
     RDKit          3D

 21 21  0  0  1  0  0  0  0  0999 V2000
   26.5086  -19.6896  -16.5355 N   0  0  0  0  0  0  0  0  0  0  0  0
   27.7591  -19.1210  -17.0213 C   0  0  0  0  0  0  0  0  0  0  0  0
   28.6809  -19.3555  -15.8427 C   0  0  0  0  0  0  0  0  0  0  0  0
   28.1939  -20.6912  -15.3205 C   0  0  0  0  0  0  0  0  0  0  0  0
   26.9228  -20.9824  -16.0617 C   0  0  1  0  0  0  0  0  0  0  0  0
   25.9463  -21.5777  -15.1151 C   0  0  0  0  0  0  0  0  0  0  0  0
   26.2921  -22.6395  -14.5358 O   0  0  0  0  0  0  0  0  0  0  0  0
   24.6862  -21.0301  -14.8393 N   0  0  0  0  0  0  0  0  0  0  0  0
   24.3380  -20.6625  -13.4815 C   0  0  0  0  0  0  0  0  0  0  0  0
   22.9656  -20.0411  -13.4570 C   0  0  0  0  0  0  0  0  0  0  0  0
   22.4548  -19.6533  -12.3918 O   0  0  0  0  0  0  0  0  0  0  0  0
   21.3898  -14.5781  -16.2033 N   0  0  0  0  0  0  0  0  0  0  0  0
   21.4010  -15.9617  -16.5097 C   0  0  0  0  0  0  0  0  0  0  0  0
   21.4567  -16.3693  -17.6978 O   0  0  0  0  0  0  0  0  0  0  0  0
   21.3456  -16.9289  -15.3976 C   0  0  0  0  0  0  0  0  0  0  0  0
   20.9415  -18.3108  -15.9262 C   0  0  0  0  0  0  0  0  0  0  0  0
   20.9360  -19.2397  -14.7289 C   0  0  2  0  0  0  0  0  0  0  0  0
   22.2401  -19.8946  -14.6708 N   0  0  0  0  0  0  0  0  0  0  0  0
   19.8735  -20.2659  -14.9055 C   0  0  0  0  0  0  0  0  0  0  0  0
   20.1606  -21.3941  -15.3283 O   0  0  0  0  0  0  0  0  0  0  0  0
   18.5653  -19.9424  -14.5916 O   0  0  0  0  0  0  0  0  0  0  0  0
  1  2  1  0
  1  5  1  0
  2  3  1  0
  3  4  1  0
  5  4  1  0
  5  6  1  1
  6  7  2  0
  8  6  1  0
  9 10  1  0
  9  8  1  0
 10 18  1  0
 11 10  2  0
 13 12  1  0
 13 14  2  0
 15 13  1  0
 16 15  1  0
 17 16  1  6
 17 19  1  0
 18 17  1  0
 19 20  2  0
 19 21  1  0
M  END
$$$$
