PGQ.pdb
     RDKit          3D

 21 21  0  0  1  0  0  0  0  0999 V2000
   24.8298  -20.4916  -12.7151 N   0  0  0  0  0  0  0  0  0  0  0  0
   25.8303  -21.0994  -11.8475 C   0  0  0  0  0  0  0  0  0  0  0  0
   25.2143  -22.4553  -11.5722 C   0  0  0  0  0  0  0  0  0  0  0  0
   24.5452  -22.7734  -12.8932 C   0  0  0  0  0  0  0  0  0  0  0  0
   24.6194  -21.5137  -13.7041 C   0  0  1  0  0  0  0  0  0  0  0  0
   23.3373  -21.3411  -14.4325 C   0  0  0  0  0  0  0  0  0  0  0  0
   23.0879  -22.1685  -15.3467 O   0  0  0  0  0  0  0  0  0  0  0  0
   22.4103  -20.3261  -14.1603 N   0  0  0  0  0  0  0  0  0  0  0  0
   21.2203  -20.1943  -14.9769 C   0  0  0  0  0  0  0  0  0  0  0  0
   20.0565  -20.8657  -14.2950 C   0  0  0  0  0  0  0  0  0  0  0  0
   18.9003  -20.7532  -14.7381 O   0  0  0  0  0  0  0  0  0  0  0  0
   20.3055  -23.4300   -8.5336 N   0  0  0  0  0  0  0  0  0  0  0  0
   19.0373  -23.8650   -8.9926 C   0  0  0  0  0  0  0  0  0  0  0  0
   18.2860  -24.5697   -8.2718 O   0  0  0  0  0  0  0  0  0  0  0  0
   18.6070  -23.4726  -10.3477 C   0  0  0  0  0  0  0  0  0  0  0  0
   19.6812  -22.5965  -11.0041 C   0  0  0  0  0  0  0  0  0  0  0  0
   19.1989  -22.3154  -12.4130 C   0  0  2  0  0  0  0  0  0  0  0  0
   20.2814  -21.6415  -13.1252 N   0  0  0  0  0  0  0  0  0  0  0  0
   18.0101  -21.4225  -12.3585 C   0  0  0  0  0  0  0  0  0  0  0  0
   16.8906  -21.8559  -12.6631 O   0  0  0  0  0  0  0  0  0  0  0  0
   18.1734  -20.1063  -11.9642 O   0  0  0  0  0  0  0  0  0  0  0  0
  1  2  1  0
  1  5  1  0
  2  3  1  0
  3  4  1  0
  5  4  1  0
  5  6  1  1
  6  7  2  0
  8  6  1  0
  9 10  1  0
  9  8  1  0
 10 18  1  0
 11 10  2  0
 13 12  1  0
 13 14  2  0
 15 13  1  0
 16 15  1  0
 17 16  1  1
 17 19  1  0
 18 17  1  0
 19 20  2  0
 19 21  1  0
M  END
$$$$
