PGQ.pdb
     RDKit          3D

 21 21  0  0  1  0  0  0  0  0999 V2000
   26.7556  -23.6022  -15.9209 N   0  0  0  0  0  0  0  0  0  0  0  0
   27.4495  -24.3460  -16.9641 C   0  0  0  0  0  0  0  0  0  0  0  0
   27.4488  -23.3487  -18.1039 C   0  0  0  0  0  0  0  0  0  0  0  0
   27.6196  -22.0328  -17.3735 C   0  0  0  0  0  0  0  0  0  0  0  0
   27.4613  -22.3494  -15.9160 C   0  0  1  0  0  0  0  0  0  0  0  0
   26.6794  -21.2620  -15.2756 C   0  0  0  0  0  0  0  0  0  0  0  0
   27.0979  -20.0875  -15.4430 O   0  0  0  0  0  0  0  0  0  0  0  0
   25.5242  -21.4713  -14.5106 N   0  0  0  0  0  0  0  0  0  0  0  0
   24.5786  -20.3905  -14.3165 C   0  0  0  0  0  0  0  0  0  0  0  0
   23.1787  -20.8846  -14.5739 C   0  0  0  0  0  0  0  0  0  0  0  0
   22.9737  -21.9237  -15.2252 O   0  0  0  0  0  0  0  0  0  0  0  0
   19.7244  -23.1523  -11.3397 N   0  0  0  0  0  0  0  0  0  0  0  0
   19.2362  -21.8858  -11.7471 C   0  0  0  0  0  0  0  0  0  0  0  0
   18.0097  -21.6873  -11.9396 O   0  0  0  0  0  0  0  0  0  0  0  0
   20.2029  -20.7894  -11.9442 C   0  0  0  0  0  0  0  0  0  0  0  0
   19.8363  -19.9887  -13.2000 C   0  0  0  0  0  0  0  0  0  0  0  0
   20.6886  -20.5443  -14.3231 C   0  0  2  0  0  0  0  0  0  0  0  0
   22.0716  -20.1525  -14.0647 N   0  0  0  0  0  0  0  0  0  0  0  0
   20.2415  -19.9611  -15.6166 C   0  0  0  0  0  0  0  0  0  0  0  0
   19.2012  -20.3630  -16.1551 O   0  0  0  0  0  0  0  0  0  0  0  0
   21.0023  -18.9672  -16.2065 O   0  0  0  0  0  0  0  0  0  0  0  0
  1  2  1  0
  1  5  1  0
  2  3  1  0
  3  4  1  0
  5  4  1  0
  5  6  1  1
  6  7  2  0
  8  6  1  0
  9 10  1  0
  9  8  1  0
 10 18  1  0
 11 10  2  0
 13 12  1  0
 13 14  2  0
 15 13  1  0
 16 15  1  0
 17 16  1  1
 17 19  1  0
 18 17  1  0
 19 20  2  0
 19 21  1  0
M  END
$$$$
