PGQ.pdb
     RDKit          3D

 21 21  0  0  1  0  0  0  0  0999 V2000
   19.4279  -13.3816  -17.5940 N   0  0  0  0  0  0  0  0  0  0  0  0
   19.8352  -14.7000  -18.0619 C   0  0  0  0  0  0  0  0  0  0  0  0
   19.2061  -14.7446  -19.4388 C   0  0  0  0  0  0  0  0  0  0  0  0
   19.3463  -13.3080  -19.8979 C   0  0  0  0  0  0  0  0  0  0  0  0
   19.8018  -12.5360  -18.6952 C   0  0  1  0  0  0  0  0  0  0  0  0
   19.0946  -11.2310  -18.6722 C   0  0  0  0  0  0  0  0  0  0  0  0
   19.4280  -10.3891  -19.5455 O   0  0  0  0  0  0  0  0  0  0  0  0
   18.0962  -10.8953  -17.7481 N   0  0  0  0  0  0  0  0  0  0  0  0
   17.4567   -9.5964  -17.8128 C   0  0  0  0  0  0  0  0  0  0  0  0
   17.8641   -8.7671  -16.6226 C   0  0  0  0  0  0  0  0  0  0  0  0
   17.0457   -8.4731  -15.7339 O   0  0  0  0  0  0  0  0  0  0  0  0
   22.5698  -10.0313  -13.3015 N   0  0  0  0  0  0  0  0  0  0  0  0
   22.1221   -8.8512  -12.6571 C   0  0  0  0  0  0  0  0  0  0  0  0
   22.4782   -8.5693  -11.4848 O   0  0  0  0  0  0  0  0  0  0  0  0
   21.2195   -7.9466  -13.3938 C   0  0  0  0  0  0  0  0  0  0  0  0
   20.6636   -8.6584  -14.6334 C   0  0  0  0  0  0  0  0  0  0  0  0
   19.7196   -7.6779  -15.2998 C   0  0  2  0  0  0  0  0  0  0  0  0
   19.2062   -8.3117  -16.5113 N   0  0  0  0  0  0  0  0  0  0  0  0
   20.4665   -6.4440  -15.6642 C   0  0  0  0  0  0  0  0  0  0  0  0
   20.7524   -6.2149  -16.8473 O   0  0  0  0  0  0  0  0  0  0  0  0
   20.8353   -5.5599  -14.6657 O   0  0  0  0  0  0  0  0  0  0  0  0
  1  2  1  0
  1  5  1  0
  2  3  1  0
  3  4  1  0
  5  4  1  0
  5  6  1  1
  6  7  2  0
  8  6  1  0
  9 10  1  0
  9  8  1  0
 10 18  1  0
 11 10  2  0
 13 12  1  0
 13 14  2  0
 15 13  1  0
 16 15  1  0
 17 16  1  6
 17 19  1  0
 18 17  1  0
 19 20  2  0
 19 21  1  0
M  END
$$$$
