PGQ.pdb
     RDKit          3D

 21 21  0  0  1  0  0  0  0  0999 V2000
   21.1943  -12.4937  -18.6999 N   0  0  0  0  0  0  0  0  0  0  0  0
   20.7884  -13.0583  -19.9805 C   0  0  0  0  0  0  0  0  0  0  0  0
   21.0812  -11.9130  -20.9271 C   0  0  0  0  0  0  0  0  0  0  0  0
   22.3334  -11.3136  -20.3214 C   0  0  0  0  0  0  0  0  0  0  0  0
   22.5070  -11.9846  -18.9912 C   0  0  1  0  0  0  0  0  0  0  0  0
   22.9532  -10.9713  -18.0023 C   0  0  0  0  0  0  0  0  0  0  0  0
   24.0813  -10.4488  -18.1945 O   0  0  0  0  0  0  0  0  0  0  0  0
   22.1992  -10.5749  -16.8897 N   0  0  0  0  0  0  0  0  0  0  0  0
   22.7062   -9.5501  -15.9992 C   0  0  0  0  0  0  0  0  0  0  0  0
   22.0991   -8.2180  -16.3559 C   0  0  0  0  0  0  0  0  0  0  0  0
   22.1521   -7.7782  -17.5176 O   0  0  0  0  0  0  0  0  0  0  0  0
   16.4154   -3.9535  -15.5440 N   0  0  0  0  0  0  0  0  0  0  0  0
   17.2313   -5.0792  -15.2691 C   0  0  0  0  0  0  0  0  0  0  0  0
   16.7351   -6.1728  -14.8968 O   0  0  0  0  0  0  0  0  0  0  0  0
   18.6914   -4.9456  -15.4288 C   0  0  0  0  0  0  0  0  0  0  0  0
   19.3794   -6.2697  -15.0744 C   0  0  0  0  0  0  0  0  0  0  0  0
   20.7830   -6.1849  -15.6397 C   0  0  2  0  0  0  0  0  0  0  0  0
   21.4543   -7.4489  -15.3491 N   0  0  0  0  0  0  0  0  0  0  0  0
   21.5148   -5.0714  -14.9781 C   0  0  0  0  0  0  0  0  0  0  0  0
   21.3542   -3.9049  -15.3620 O   0  0  0  0  0  0  0  0  0  0  0  0
   22.3740   -5.3573  -13.9319 O   0  0  0  0  0  0  0  0  0  0  0  0
  1  2  1  0
  1  5  1  0
  2  3  1  0
  3  4  1  0
  5  4  1  0
  5  6  1  1
  6  7  2  0
  8  6  1  0
  9 10  1  0
  9  8  1  0
 10 18  1  0
 11 10  2  0
 13 12  1  0
 13 14  2  0
 15 13  1  0
 16 15  1  0
 17 16  1  1
 17 19  1  0
 18 17  1  0
 19 20  2  0
 19 21  1  0
M  END
$$$$
