PGQ.pdb
     RDKit          3D

 21 21  0  0  1  0  0  0  0  0999 V2000
   29.5393  -22.2430  -16.5265 N   0  0  0  0  0  0  0  0  0  0  0  0
   29.8908  -23.3319  -17.4288 C   0  0  0  0  0  0  0  0  0  0  0  0
   28.5447  -23.9870  -17.6577 C   0  0  0  0  0  0  0  0  0  0  0  0
   27.6092  -22.7959  -17.6618 C   0  0  0  0  0  0  0  0  0  0  0  0
   28.4315  -21.6273  -17.2055 C   0  0  1  0  0  0  0  0  0  0  0  0
   27.6061  -20.7907  -16.2985 C   0  0  0  0  0  0  0  0  0  0  0  0
   26.5496  -20.3050  -16.7787 O   0  0  0  0  0  0  0  0  0  0  0  0
   27.9357  -20.5195  -14.9638 N   0  0  0  0  0  0  0  0  0  0  0  0
   27.0630  -19.6908  -14.1565 C   0  0  0  0  0  0  0  0  0  0  0  0
   26.1614  -20.5619  -13.3207 C   0  0  0  0  0  0  0  0  0  0  0  0
   25.5844  -21.5475  -13.8121 O   0  0  0  0  0  0  0  0  0  0  0  0
   28.0350  -20.9633   -7.2290 N   0  0  0  0  0  0  0  0  0  0  0  0
   27.0906  -20.2783   -8.0334 C   0  0  0  0  0  0  0  0  0  0  0  0
   26.5551  -19.2081   -7.6478 O   0  0  0  0  0  0  0  0  0  0  0  0
   26.7411  -20.8485   -9.3480 C   0  0  0  0  0  0  0  0  0  0  0  0
   25.2691  -20.5606   -9.6681 C   0  0  0  0  0  0  0  0  0  0  0  0
   25.0485  -21.0106  -11.0983 C   0  0  2  0  0  0  0  0  0  0  0  0
   25.9654  -20.2541  -11.9467 N   0  0  0  0  0  0  0  0  0  0  0  0
   23.6460  -20.7155  -11.4976 C   0  0  0  0  0  0  0  0  0  0  0  0
   23.3890  -19.7110  -12.1749 O   0  0  0  0  0  0  0  0  0  0  0  0
   22.6375  -21.5766  -11.1026 O   0  0  0  0  0  0  0  0  0  0  0  0
  1  2  1  0
  1  5  1  0
  2  3  1  0
  3  4  1  0
  5  4  1  0
  5  6  1  1
  6  7  2  0
  8  6  1  0
  9 10  1  0
  9  8  1  0
 10 18  1  0
 11 10  2  0
 13 12  1  0
 13 14  2  0
 15 13  1  0
 16 15  1  0
 17 16  1  1
 17 19  1  0
 18 17  1  0
 19 20  2  0
 19 21  1  0
M  END
$$$$
