PGQ.pdb
     RDKit          3D

 21 21  0  0  1  0  0  0  0  0999 V2000
   23.0791  -10.7346  -16.4029 N   0  0  0  0  0  0  0  0  0  0  0  0
   23.9163  -11.9024  -16.6449 C   0  0  0  0  0  0  0  0  0  0  0  0
   24.8686  -11.8460  -15.4686 C   0  0  0  0  0  0  0  0  0  0  0  0
   23.9744  -11.3273  -14.3616 C   0  0  0  0  0  0  0  0  0  0  0  0
   22.6969  -10.9105  -15.0280 C   0  0  1  0  0  0  0  0  0  0  0  0
   22.2261   -9.6477  -14.4055 C   0  0  0  0  0  0  0  0  0  0  0  0
   21.8098   -9.7196  -13.2205 O   0  0  0  0  0  0  0  0  0  0  0  0
   22.2215   -8.4062  -15.0553 N   0  0  0  0  0  0  0  0  0  0  0  0
   21.7287   -7.2302  -14.3665 C   0  0  0  0  0  0  0  0  0  0  0  0
   20.4107   -6.8057  -14.9604 C   0  0  0  0  0  0  0  0  0  0  0  0
   19.8307   -5.7780  -14.5686 O   0  0  0  0  0  0  0  0  0  0  0  0
   18.8842   -6.8205  -20.7719 N   0  0  0  0  0  0  0  0  0  0  0  0
   17.6053   -6.6020  -20.2018 C   0  0  0  0  0  0  0  0  0  0  0  0
   16.6154   -6.2922  -20.9123 O   0  0  0  0  0  0  0  0  0  0  0  0
   17.4521   -6.7459  -18.7420 C   0  0  0  0  0  0  0  0  0  0  0  0
   18.8040   -7.0927  -18.1060 C   0  0  0  0  0  0  0  0  0  0  0  0
   18.5522   -7.2279  -16.6177 C   0  0  2  0  0  0  0  0  0  0  0  0
   19.8178   -7.5915  -15.9860 N   0  0  0  0  0  0  0  0  0  0  0  0
   17.5532   -8.3048  -16.3822 C   0  0  0  0  0  0  0  0  0  0  0  0
   17.9276   -9.4548  -16.1153 O   0  0  0  0  0  0  0  0  0  0  0  0
   16.2053   -8.0036  -16.4655 O   0  0  0  0  0  0  0  0  0  0  0  0
  1  2  1  0
  1  5  1  0
  2  3  1  0
  3  4  1  0
  5  4  1  0
  5  6  1  1
  6  7  2  0
  8  6  1  0
  9 10  1  0
  9  8  1  0
 10 18  1  0
 11 10  2  0
 13 12  1  0
 13 14  2  0
 15 13  1  0
 16 15  1  0
 17 16  1  6
 17 19  1  0
 18 17  1  0
 19 20  2  0
 19 21  1  0
M  END
$$$$
