PGQ.pdb
     RDKit          3D

 21 21  0  0  1  0  0  0  0  0999 V2000
   26.7548  -22.2792  -15.4013 N   0  0  0  0  0  0  0  0  0  0  0  0
   27.5128  -22.4094  -16.6389 C   0  0  0  0  0  0  0  0  0  0  0  0
   27.1009  -21.1568  -17.3838 C   0  0  0  0  0  0  0  0  0  0  0  0
   26.9677  -20.1495  -16.2606 C   0  0  0  0  0  0  0  0  0  0  0  0
   27.0686  -20.9381  -14.9887 C   0  0  1  0  0  0  0  0  0  0  0  0
   26.0842  -20.4001  -14.0165 C   0  0  0  0  0  0  0  0  0  0  0  0
   26.1995  -19.1869  -13.7042 O   0  0  0  0  0  0  0  0  0  0  0  0
   25.0550  -21.1571  -13.4409 N   0  0  0  0  0  0  0  0  0  0  0  0
   23.9523  -20.4926  -12.7757 C   0  0  0  0  0  0  0  0  0  0  0  0
   22.7320  -20.5204  -13.6590 C   0  0  0  0  0  0  0  0  0  0  0  0
   22.5438  -19.6460  -14.5227 O   0  0  0  0  0  0  0  0  0  0  0  0
   19.6873  -24.8458  -12.1854 N   0  0  0  0  0  0  0  0  0  0  0  0
   18.6031  -23.9435  -12.3223 C   0  0  0  0  0  0  0  0  0  0  0  0
   17.5691  -24.0495  -11.6149 O   0  0  0  0  0  0  0  0  0  0  0  0
   18.7084  -22.8636  -13.3213 C   0  0  0  0  0  0  0  0  0  0  0  0
   19.9912  -23.0359  -14.1442 C   0  0  0  0  0  0  0  0  0  0  0  0
   20.5717  -21.6476  -14.3236 C   0  0  2  0  0  0  0  0  0  0  0  0
   21.7778  -21.5629  -13.5045 N   0  0  0  0  0  0  0  0  0  0  0  0
   19.5846  -20.6363  -13.8585 C   0  0  0  0  0  0  0  0  0  0  0  0
   19.7208  -20.0949  -12.7530 O   0  0  0  0  0  0  0  0  0  0  0  0
   18.5169  -20.3110  -14.6762 O   0  0  0  0  0  0  0  0  0  0  0  0
  1  2  1  0
  1  5  1  0
  2  3  1  0
  3  4  1  0
  5  4  1  0
  5  6  1  1
  6  7  2  0
  8  6  1  0
  9 10  1  0
  9  8  1  0
 10 18  1  0
 11 10  2  0
 13 12  1  0
 13 14  2  0
 15 13  1  0
 16 15  1  0
 17 16  1  1
 17 19  1  0
 18 17  1  0
 19 20  2  0
 19 21  1  0
M  END
$$$$
