PGQ.pdb
     RDKit          3D

 21 21  0  0  1  0  0  0  0  0999 V2000
   15.9532  -13.3224  -15.9503 N   0  0  0  0  0  0  0  0  0  0  0  0
   14.9194  -14.2931  -16.2848 C   0  0  0  0  0  0  0  0  0  0  0  0
   15.3668  -14.7576  -17.6551 C   0  0  0  0  0  0  0  0  0  0  0  0
   16.8752  -14.7400  -17.5188 C   0  0  0  0  0  0  0  0  0  0  0  0
   17.1609  -14.0567  -16.2144 C   0  0  1  0  0  0  0  0  0  0  0  0
   18.3366  -13.1678  -16.3910 C   0  0  0  0  0  0  0  0  0  0  0  0
   19.4539  -13.7267  -16.5388 O   0  0  0  0  0  0  0  0  0  0  0  0
   18.2681  -11.7682  -16.4014 N   0  0  0  0  0  0  0  0  0  0  0  0
   19.4763  -10.9853  -16.5670 C   0  0  0  0  0  0  0  0  0  0  0  0
   19.5987   -9.9912  -15.4414 C   0  0  0  0  0  0  0  0  0  0  0  0
   18.9689  -10.1416  -14.3800 O   0  0  0  0  0  0  0  0  0  0  0  0
   23.5206   -4.5580  -15.1240 N   0  0  0  0  0  0  0  0  0  0  0  0
   22.3891   -4.6951  -14.2818 C   0  0  0  0  0  0  0  0  0  0  0  0
   21.6777   -3.7052  -13.9739 O   0  0  0  0  0  0  0  0  0  0  0  0
   22.0549   -6.0355  -13.7654 C   0  0  0  0  0  0  0  0  0  0  0  0
   21.8180   -7.0015  -14.9329 C   0  0  0  0  0  0  0  0  0  0  0  0
   20.6711   -7.9001  -14.5160 C   0  0  2  0  0  0  0  0  0  0  0  0
   20.4479   -8.8612  -15.5928 N   0  0  0  0  0  0  0  0  0  0  0  0
   19.4459   -7.0787  -14.3228 C   0  0  0  0  0  0  0  0  0  0  0  0
   19.0799   -6.7639  -13.1823 O   0  0  0  0  0  0  0  0  0  0  0  0
   18.7244   -6.6735  -15.4318 O   0  0  0  0  0  0  0  0  0  0  0  0
  1  2  1  0
  1  5  1  0
  2  3  1  0
  3  4  1  0
  5  4  1  0
  5  6  1  6
  6  7  2  0
  8  6  1  0
  9 10  1  0
  9  8  1  0
 10 18  1  0
 11 10  2  0
 13 12  1  0
 13 14  2  0
 15 13  1  0
 16 15  1  0
 17 16  1  6
 17 19  1  0
 18 17  1  0
 19 20  2  0
 19 21  1  0
M  END
$$$$
