PGQ.pdb
     RDKit          3D

 21 21  0  0  1  0  0  0  0  0999 V2000
   28.1723  -22.0141  -17.4782 N   0  0  0  0  0  0  0  0  0  0  0  0
   28.5052  -21.7377  -18.8696 C   0  0  0  0  0  0  0  0  0  0  0  0
   27.4406  -20.7280  -19.2448 C   0  0  0  0  0  0  0  0  0  0  0  0
   27.2836  -19.9411  -17.9603 C   0  0  0  0  0  0  0  0  0  0  0  0
   28.0609  -20.6932  -16.9211 C   0  0  1  0  0  0  0  0  0  0  0  0
   27.2938  -20.6780  -15.6502 C   0  0  0  0  0  0  0  0  0  0  0  0
   26.8705  -19.5608  -15.2559 O   0  0  0  0  0  0  0  0  0  0  0  0
   27.0224  -21.8189  -14.8832 N   0  0  0  0  0  0  0  0  0  0  0  0
   26.2307  -21.7075  -13.6746 C   0  0  0  0  0  0  0  0  0  0  0  0
   24.7645  -21.7499  -14.0192 C   0  0  0  0  0  0  0  0  0  0  0  0
   24.2886  -22.6832  -14.6888 O   0  0  0  0  0  0  0  0  0  0  0  0
   21.9148  -21.1574   -9.9215 N   0  0  0  0  0  0  0  0  0  0  0  0
   21.0999  -21.9923  -10.7259 C   0  0  0  0  0  0  0  0  0  0  0  0
   20.5184  -22.9987  -10.2467 O   0  0  0  0  0  0  0  0  0  0  0  0
   20.9427  -21.6572  -12.1537 C   0  0  0  0  0  0  0  0  0  0  0  0
   21.7805  -20.4188  -12.4953 C   0  0  0  0  0  0  0  0  0  0  0  0
   22.4678  -20.7197  -13.8120 C   0  0  2  0  0  0  0  0  0  0  0  0
   23.9084  -20.7066  -13.5723 N   0  0  0  0  0  0  0  0  0  0  0  0
   22.1204  -19.6652  -14.8022 C   0  0  0  0  0  0  0  0  0  0  0  0
   22.8758  -18.6990  -14.9748 O   0  0  0  0  0  0  0  0  0  0  0  0
   20.9458  -19.7796  -15.5245 O   0  0  0  0  0  0  0  0  0  0  0  0
  1  2  1  0
  1  5  1  0
  2  3  1  0
  3  4  1  0
  5  4  1  0
  5  6  1  1
  6  7  2  0
  8  6  1  0
  9 10  1  0
  9  8  1  0
 10 18  1  0
 11 10  2  0
 13 12  1  0
 13 14  2  0
 15 13  1  0
 16 15  1  0
 17 16  1  1
 17 19  1  0
 18 17  1  0
 19 20  2  0
 19 21  1  0
M  END
$$$$
