LCH.pdb
     RDKit          3D

 25 25  0  0  1  0  0  0  0  0999 V2000
   17.3401  -20.7145    2.1530 C   0  0  0  0  0  0  0  0  0  0  0  0
   17.1227  -19.3228    1.5576 C   0  0  2  0  0  0  0  0  0  0  0  0
   18.3612  -18.9878    0.7683 C   0  0  0  0  0  0  0  0  0  0  0  0
   17.0267  -18.3277    2.6991 C   0  0  0  0  0  0  0  0  0  0  0  0
   15.8622  -18.6550    3.6254 C   0  0  2  0  0  0  0  0  0  0  0  0
   14.6485  -18.3615    2.8817 N   0  0  0  0  0  0  0  0  0  0  0  0
   15.9573  -17.7251    4.7758 C   0  0  0  0  0  0  0  0  0  0  0  0
   15.4611  -16.5766    4.6765 O   0  0  0  0  0  0  0  0  0  0  0  0
   16.5881  -18.0624    6.0069 N   0  0  0  0  0  0  0  0  0  0  0  0
   16.6188  -17.1525    7.1151 C   0  0  1  0  0  0  0  0  0  0  0  0
   16.3624  -17.9128    8.4147 C   0  0  0  0  0  0  0  0  0  0  0  0
   17.5328  -19.3094    8.4770 S   0  0  0  0  0  0  0  0  0  0  0  0
   17.9296  -16.4577    7.2454 C   0  0  0  0  0  0  0  0  0  0  0  0
   18.9749  -16.9064    6.7423 O   0  0  0  0  0  0  0  0  0  0  0  0
   17.9175  -15.2508    7.9789 N   0  0  0  0  0  0  0  0  0  0  0  0
   19.1684  -14.4736    8.2164 C   0  0  1  0  0  0  0  0  0  0  0  0
   19.0684  -13.2871    7.3436 C   0  0  0  0  0  0  0  0  0  0  0  0
   20.1352  -12.2975    7.3946 C   0  0  0  0  0  0  0  0  0  0  0  0
   21.3308  -12.3166    8.0358 C   0  0  0  0  0  0  0  0  0  0  0  0
   22.0146  -11.1690    7.7183 N   0  0  0  0  0  0  0  0  0  0  0  0
   21.2257  -10.4847    6.8969 C   0  0  0  0  0  0  0  0  0  0  0  0
   20.0964  -11.1424    6.6900 N   0  0  0  0  0  0  0  0  0  0  0  0
   19.2356  -14.1867    9.6760 C   0  0  0  0  0  0  0  0  0  0  0  0
   20.4805  -13.8354   10.2217 O   0  0  0  0  0  0  0  0  0  0  0  0
   18.2670  -14.2357   10.4398 O   0  0  0  0  0  0  0  0  0  0  0  0
  2  1  1  1
  2  3  1  0
  2  4  1  0
  5  4  1  0
  5  6  1  6
  5  7  1  0
  7  8  2  0
  9  7  1  0
  9 10  1  0
 10 13  1  0
 10 11  1  1
 12 11  1  0
 13 15  1  0
 13 14  2  0
 15 16  1  0
 16 23  1  0
 17 18  1  0
 16 17  1  6
 18 22  1  0
 18 19  2  0
 19 20  1  0
 21 20  1  0
 22 21  2  0
 23 25  2  0
 23 24  1  0
M  END
$$$$
