LCH.pdb
     RDKit          3D

 25 25  0  0  1  0  0  0  0  0999 V2000
   27.0806  -20.4485   -4.0006 C   0  0  0  0  0  0  0  0  0  0  0  0
   27.9191  -20.2609   -5.2655 C   0  0  2  0  0  0  0  0  0  0  0  0
   28.9010  -19.1553   -4.9779 C   0  0  0  0  0  0  0  0  0  0  0  0
   27.0030  -19.7797   -6.3753 C   0  0  0  0  0  0  0  0  0  0  0  0
   27.2506  -20.5426   -7.6706 C   0  0  2  0  0  0  0  0  0  0  0  0
   28.6530  -20.3514   -8.0004 N   0  0  0  0  0  0  0  0  0  0  0  0
   26.4194  -19.8950   -8.7132 C   0  0  0  0  0  0  0  0  0  0  0  0
   26.6283  -18.6917   -9.0018 O   0  0  0  0  0  0  0  0  0  0  0  0
   25.3812  -20.5675   -9.4182 N   0  0  0  0  0  0  0  0  0  0  0  0
   24.9940  -20.1809  -10.7440 C   0  0  1  0  0  0  0  0  0  0  0  0
   26.1504  -20.4247  -11.7115 C   0  0  0  0  0  0  0  0  0  0  0  0
   26.8263  -22.0806  -11.3575 S   0  0  0  0  0  0  0  0  0  0  0  0
   23.8169  -20.9468  -11.2397 C   0  0  0  0  0  0  0  0  0  0  0  0
   23.4985  -22.0553  -10.7738 O   0  0  0  0  0  0  0  0  0  0  0  0
   23.0772  -20.3375  -12.2772 N   0  0  0  0  0  0  0  0  0  0  0  0
   21.8718  -20.9942  -12.8609 C   0  0  1  0  0  0  0  0  0  0  0  0
   22.2950  -22.3671  -13.2008 C   0  0  0  0  0  0  0  0  0  0  0  0
   23.4870  -22.5424  -14.0184 C   0  0  0  0  0  0  0  0  0  0  0  0
   24.3791  -21.6350  -14.4893 C   0  0  0  0  0  0  0  0  0  0  0  0
   25.3719  -22.3063  -15.1593 N   0  0  0  0  0  0  0  0  0  0  0  0
   25.0637  -23.5962  -15.0799 C   0  0  0  0  0  0  0  0  0  0  0  0
   23.9397  -23.7593  -14.4011 N   0  0  0  0  0  0  0  0  0  0  0  0
   20.7850  -20.8952  -11.8479 C   0  0  0  0  0  0  0  0  0  0  0  0
   20.7812  -19.7820  -10.9923 O   0  0  0  0  0  0  0  0  0  0  0  0
   19.8838  -21.7278  -11.7109 O   0  0  0  0  0  0  0  0  0  0  0  0
  2  1  1  1
  2  3  1  0
  2  4  1  0
  5  4  1  0
  5  6  1  6
  5  7  1  0
  7  8  2  0
  9  7  1  0
  9 10  1  0
 10 13  1  0
 10 11  1  6
 12 11  1  0
 13 15  1  0
 13 14  2  0
 15 16  1  0
 16 23  1  0
 17 18  1  0
 16 17  1  1
 18 22  1  0
 18 19  2  0
 19 20  1  0
 21 20  1  0
 22 21  2  0
 23 25  2  0
 23 24  1  0
M  END
$$$$
