LCH.pdb
     RDKit          3D

 25 25  0  0  1  0  0  0  0  0999 V2000
   16.8846  -13.6463  -17.0341 C   0  0  0  0  0  0  0  0  0  0  0  0
   18.0894  -14.2802  -16.3376 C   0  0  2  0  0  0  0  0  0  0  0  0
   17.5457  -15.1838  -15.2620 C   0  0  0  0  0  0  0  0  0  0  0  0
   18.8758  -13.1781  -15.6526 C   0  0  0  0  0  0  0  0  0  0  0  0
   19.3499  -12.1300  -16.6516 C   0  0  2  0  0  0  0  0  0  0  0  0
   20.3325  -12.7835  -17.5000 N   0  0  0  0  0  0  0  0  0  0  0  0
   20.0230  -11.0669  -15.8681 C   0  0  0  0  0  0  0  0  0  0  0  0
   19.3813  -10.4697  -14.9701 O   0  0  0  0  0  0  0  0  0  0  0  0
   21.3762  -10.6764  -16.0768 N   0  0  0  0  0  0  0  0  0  0  0  0
   21.9783   -9.6081  -15.3330 C   0  0  1  0  0  0  0  0  0  0  0  0
   23.4994   -9.7378  -15.3823 C   0  0  0  0  0  0  0  0  0  0  0  0
   23.9742  -11.0931  -14.2589 S   0  0  0  0  0  0  0  0  0  0  0  0
   21.6185   -8.2665  -15.8704 C   0  0  0  0  0  0  0  0  0  0  0  0
   21.5267   -8.0395  -17.0899 O   0  0  0  0  0  0  0  0  0  0  0  0
   21.3857   -7.2591  -14.9083 N   0  0  0  0  0  0  0  0  0  0  0  0
   21.0023   -5.8747  -15.3103 C   0  0  1  0  0  0  0  0  0  0  0  0
   19.6125   -5.6983  -14.8447 C   0  0  0  0  0  0  0  0  0  0  0  0
   19.0093   -4.3773  -14.9486 C   0  0  0  0  0  0  0  0  0  0  0  0
   19.1527   -3.2747  -14.1709 C   0  0  0  0  0  0  0  0  0  0  0  0
   18.4214   -2.2526  -14.7238 N   0  0  0  0  0  0  0  0  0  0  0  0
   17.8556   -2.7530  -15.8169 C   0  0  0  0  0  0  0  0  0  0  0  0
   18.1947   -4.0228  -15.9699 N   0  0  0  0  0  0  0  0  0  0  0  0
   21.9995   -4.9502  -14.7037 C   0  0  0  0  0  0  0  0  0  0  0  0
   22.6444   -5.3579  -13.5251 O   0  0  0  0  0  0  0  0  0  0  0  0
   22.2990   -3.8470  -15.1700 O   0  0  0  0  0  0  0  0  0  0  0  0
  2  1  1  1
  2  3  1  0
  2  4  1  0
  5  4  1  0
  5  6  1  6
  5  7  1  0
  7  8  2  0
  9  7  1  0
  9 10  1  0
 10 13  1  0
 10 11  1  6
 12 11  1  0
 13 15  1  0
 13 14  2  0
 15 16  1  0
 16 23  1  0
 17 18  1  0
 16 17  1  1
 18 22  1  0
 18 19  2  0
 19 20  1  0
 21 20  1  0
 22 21  2  0
 23 25  2  0
 23 24  1  0
M  END
$$$$
