LCH.pdb
     RDKit          3D

 25 25  0  0  1  0  0  0  0  0999 V2000
   28.4450  -13.0693  -15.6830 C   0  0  0  0  0  0  0  0  0  0  0  0
   28.5345  -11.9621  -16.7340 C   0  0  2  0  0  0  0  0  0  0  0  0
   29.9762  -11.5292  -16.7898 C   0  0  0  0  0  0  0  0  0  0  0  0
   27.7214  -10.7776  -16.2460 C   0  0  0  0  0  0  0  0  0  0  0  0
   26.2454  -11.1321  -16.1160 C   0  0  2  0  0  0  0  0  0  0  0  0
   25.8953  -11.8844  -17.3092 N   0  0  0  0  0  0  0  0  0  0  0  0
   25.4971   -9.8525  -16.1183 C   0  0  0  0  0  0  0  0  0  0  0  0
   25.7142   -9.0155  -15.2088 O   0  0  0  0  0  0  0  0  0  0  0  0
   24.5310   -9.5107  -17.1067 N   0  0  0  0  0  0  0  0  0  0  0  0
   23.8265   -8.2618  -17.0756 C   0  0  1  0  0  0  0  0  0  0  0  0
   23.8778   -7.6055  -18.4538 C   0  0  0  0  0  0  0  0  0  0  0  0
   25.5820   -7.0150  -18.7208 S   0  0  0  0  0  0  0  0  0  0  0  0
   22.3940   -8.4251  -16.7025 C   0  0  0  0  0  0  0  0  0  0  0  0
   21.6429   -9.2321  -17.2784 O   0  0  0  0  0  0  0  0  0  0  0  0
   21.9339   -7.6046  -15.6489 N   0  0  0  0  0  0  0  0  0  0  0  0
   20.5624   -7.7622  -15.0839 C   0  0  1  0  0  0  0  0  0  0  0  0
   20.7332   -8.5447  -13.8437 C   0  0  0  0  0  0  0  0  0  0  0  0
   19.5716   -8.7552  -12.9916 C   0  0  0  0  0  0  0  0  0  0  0  0
   18.2568   -8.4987  -13.2075 C   0  0  0  0  0  0  0  0  0  0  0  0
   17.5422   -8.9382  -12.1207 N   0  0  0  0  0  0  0  0  0  0  0  0
   18.4316   -9.4490  -11.2762 C   0  0  0  0  0  0  0  0  0  0  0  0
   19.6519   -9.3497  -11.7781 N   0  0  0  0  0  0  0  0  0  0  0  0
   20.0035   -6.3941  -14.9019 C   0  0  0  0  0  0  0  0  0  0  0  0
   18.6071   -6.2497  -14.8851 O   0  0  0  0  0  0  0  0  0  0  0  0
   20.6878   -5.3761  -14.7627 O   0  0  0  0  0  0  0  0  0  0  0  0
  2  1  1  1
  2  3  1  0
  2  4  1  0
  5  4  1  0
  5  6  1  6
  5  7  1  0
  7  8  2  0
  9  7  1  0
  9 10  1  0
 10 13  1  0
 10 11  1  6
 12 11  1  0
 13 15  1  0
 13 14  2  0
 15 16  1  0
 16 23  1  0
 17 18  1  0
 16 17  1  1
 18 22  1  0
 18 19  2  0
 19 20  1  0
 21 20  1  0
 22 21  2  0
 23 25  2  0
 23 24  1  0
M  END
$$$$
