LCH.pdb
     RDKit          3D

 25 25  0  0  1  0  0  0  0  0999 V2000
   16.7290  -14.3291  -11.9221 C   0  0  0  0  0  0  0  0  0  0  0  0
   15.6687  -14.4342  -13.0190 C   0  0  2  0  0  0  0  0  0  0  0  0
   16.0067  -15.6533  -13.8368 C   0  0  0  0  0  0  0  0  0  0  0  0
   15.8027  -13.2252  -13.9262 C   0  0  0  0  0  0  0  0  0  0  0  0
   15.5819  -11.9275  -13.1592 C   0  0  2  0  0  0  0  0  0  0  0  0
   14.1639  -11.8697  -12.8458 N   0  0  0  0  0  0  0  0  0  0  0  0
   15.9141  -10.8209  -14.0877 C   0  0  0  0  0  0  0  0  0  0  0  0
   15.1979  -10.6376  -15.1018 O   0  0  0  0  0  0  0  0  0  0  0  0
   17.0152   -9.9390  -13.8948 N   0  0  0  0  0  0  0  0  0  0  0  0
   17.2363   -8.8075  -14.7479 C   0  0  1  0  0  0  0  0  0  0  0  0
   16.0256   -7.8778  -14.6967 C   0  0  0  0  0  0  0  0  0  0  0  0
   16.3816   -6.4484  -15.7711 S   0  0  0  0  0  0  0  0  0  0  0  0
   18.4337   -8.0177  -14.3475 C   0  0  0  0  0  0  0  0  0  0  0  0
   18.6333   -7.6585  -13.1735 O   0  0  0  0  0  0  0  0  0  0  0  0
   19.3365   -7.6975  -15.3854 N   0  0  0  0  0  0  0  0  0  0  0  0
   20.5963   -6.9462  -15.1147 C   0  0  1  0  0  0  0  0  0  0  0  0
   21.6487   -7.6534  -15.8709 C   0  0  0  0  0  0  0  0  0  0  0  0
   22.1643   -8.9054  -15.3354 C   0  0  0  0  0  0  0  0  0  0  0  0
   21.8669   -9.5672  -14.1888 C   0  0  0  0  0  0  0  0  0  0  0  0
   22.5751  -10.7433  -14.1677 N   0  0  0  0  0  0  0  0  0  0  0  0
   23.2802  -10.7698  -15.2934 C   0  0  0  0  0  0  0  0  0  0  0  0
   23.0487   -9.6796  -16.0067 N   0  0  0  0  0  0  0  0  0  0  0  0
   20.3600   -5.5334  -15.5215 C   0  0  0  0  0  0  0  0  0  0  0  0
   21.2322   -4.5507  -15.0268 O   0  0  0  0  0  0  0  0  0  0  0  0
   19.4472   -5.1679  -16.2680 O   0  0  0  0  0  0  0  0  0  0  0  0
  2  1  1  1
  2  3  1  0
  2  4  1  0
  5  4  1  0
  5  6  1  6
  5  7  1  0
  7  8  2  0
  9  7  1  0
  9 10  1  0
 10 13  1  0
 10 11  1  1
 12 11  1  0
 13 15  1  0
 13 14  2  0
 15 16  1  0
 16 23  1  0
 17 18  1  0
 16 17  1  6
 18 22  1  0
 18 19  2  0
 19 20  1  0
 21 20  1  0
 22 21  2  0
 23 25  2  0
 23 24  1  0
M  END
$$$$
