LCH.pdb
     RDKit          3D

 25 25  0  0  1  0  0  0  0  0999 V2000
   16.4336  -15.7001  -17.6182 C   0  0  0  0  0  0  0  0  0  0  0  0
   17.4934  -16.3913  -16.7594 C   0  0  2  0  0  0  0  0  0  0  0  0
   16.7568  -17.1755  -15.7051 C   0  0  0  0  0  0  0  0  0  0  0  0
   18.3016  -15.3209  -16.0499 C   0  0  0  0  0  0  0  0  0  0  0  0
   18.9792  -14.3858  -17.0436 C   0  0  2  0  0  0  0  0  0  0  0  0
   19.9614  -15.1842  -17.7577 N   0  0  0  0  0  0  0  0  0  0  0  0
   19.6859  -13.3551  -16.2465 C   0  0  0  0  0  0  0  0  0  0  0  0
   19.0375  -12.6732  -15.4161 O   0  0  0  0  0  0  0  0  0  0  0  0
   21.0791  -13.0880  -16.3685 N   0  0  0  0  0  0  0  0  0  0  0  0
   21.7084  -12.0137  -15.6567 C   0  0  1  0  0  0  0  0  0  0  0  0
   23.2239  -12.2029  -15.6705 C   0  0  0  0  0  0  0  0  0  0  0  0
   23.9586  -10.8439  -14.7023 S   0  0  0  0  0  0  0  0  0  0  0  0
   21.4106  -10.6827  -16.2548 C   0  0  0  0  0  0  0  0  0  0  0  0
   21.5734  -10.4440  -17.4646 O   0  0  0  0  0  0  0  0  0  0  0  0
   20.9291   -9.6995  -15.3624 N   0  0  0  0  0  0  0  0  0  0  0  0
   20.5736   -8.3297  -15.8340 C   0  0  1  0  0  0  0  0  0  0  0  0
   19.1301   -8.1805  -15.5630 C   0  0  0  0  0  0  0  0  0  0  0  0
   18.5103   -6.8849  -15.8023 C   0  0  0  0  0  0  0  0  0  0  0  0
   18.9501   -5.8087  -16.5018 C   0  0  0  0  0  0  0  0  0  0  0  0
   17.9688   -4.8484  -16.4877 N   0  0  0  0  0  0  0  0  0  0  0  0
   16.9626   -5.3593  -15.7865 C   0  0  0  0  0  0  0  0  0  0  0  0
   17.2659   -6.5772  -15.3674 N   0  0  0  0  0  0  0  0  0  0  0  0
   21.4592   -7.3743  -15.1129 C   0  0  0  0  0  0  0  0  0  0  0  0
   21.6822   -6.1157  -15.6937 O   0  0  0  0  0  0  0  0  0  0  0  0
   22.0104   -7.6150  -14.0347 O   0  0  0  0  0  0  0  0  0  0  0  0
  2  1  1  6
  2  3  1  0
  2  4  1  0
  5  4  1  0
  5  6  1  1
  5  7  1  0
  7  8  2  0
  9  7  1  0
  9 10  1  0
 10 13  1  0
 10 11  1  6
 12 11  1  0
 13 15  1  0
 13 14  2  0
 15 16  1  0
 16 23  1  0
 17 18  1  0
 16 17  1  1
 18 22  1  0
 18 19  2  0
 19 20  1  0
 21 20  1  0
 22 21  2  0
 23 25  2  0
 23 24  1  0
M  END
$$$$
