LCH.pdb
     RDKit          3D

 25 25  0  0  1  0  0  0  0  0999 V2000
   36.7804  -34.3265  -10.1264 C   0  0  0  0  0  0  0  0  0  0  0  0
   35.5583  -34.9129  -10.8342 C   0  0  2  0  0  0  0  0  0  0  0  0
   35.0619  -33.8607  -11.7911 C   0  0  0  0  0  0  0  0  0  0  0  0
   34.4719  -35.1365   -9.7988 C   0  0  0  0  0  0  0  0  0  0  0  0
   34.7871  -36.3346   -8.9121 C   0  0  2  0  0  0  0  0  0  0  0  0
   35.0122  -37.4599   -9.8038 N   0  0  0  0  0  0  0  0  0  0  0  0
   33.5733  -36.5982   -8.1031 C   0  0  0  0  0  0  0  0  0  0  0  0
   32.6136  -37.2166   -8.6240 O   0  0  0  0  0  0  0  0  0  0  0  0
   33.4287  -36.1848   -6.7483 N   0  0  0  0  0  0  0  0  0  0  0  0
   32.2086  -36.3870   -6.0220 C   0  0  1  0  0  0  0  0  0  0  0  0
   32.5233  -36.6980   -4.5601 C   0  0  0  0  0  0  0  0  0  0  0  0
   33.4929  -35.3042   -3.8958 S   0  0  0  0  0  0  0  0  0  0  0  0
   31.3230  -35.1901   -6.0521 C   0  0  0  0  0  0  0  0  0  0  0  0
   31.7677  -34.0345   -6.1702 O   0  0  0  0  0  0  0  0  0  0  0  0
   29.9384  -35.4445   -5.9377 N   0  0  0  0  0  0  0  0  0  0  0  0
   28.9436  -34.3332   -5.9164 C   0  0  1  0  0  0  0  0  0  0  0  0
   28.4684  -34.2013   -7.3079 C   0  0  0  0  0  0  0  0  0  0  0  0
   27.3611  -33.2955   -7.5791 C   0  0  0  0  0  0  0  0  0  0  0  0
   26.7536  -32.3774   -6.7861 C   0  0  0  0  0  0  0  0  0  0  0  0
   25.7987  -31.7251   -7.5263 N   0  0  0  0  0  0  0  0  0  0  0  0
   25.8480  -32.2566   -8.7429 C   0  0  0  0  0  0  0  0  0  0  0  0
   26.7764  -33.1980   -8.7961 N   0  0  0  0  0  0  0  0  0  0  0  0
   27.9001  -34.6982   -4.9189 C   0  0  0  0  0  0  0  0  0  0  0  0
   27.2291  -33.6579   -4.2567 O   0  0  0  0  0  0  0  0  0  0  0  0
   27.5836  -35.8575   -4.6359 O   0  0  0  0  0  0  0  0  0  0  0  0
  2  1  1  1
  2  3  1  0
  2  4  1  0
  5  4  1  0
  5  6  1  6
  5  7  1  0
  7  8  2  0
  9  7  1  0
  9 10  1  0
 10 13  1  0
 10 11  1  1
 12 11  1  0
 13 15  1  0
 13 14  2  0
 15 16  1  0
 16 23  1  0
 17 18  1  0
 16 17  1  6
 18 22  1  0
 18 19  2  0
 19 20  1  0
 21 20  1  0
 22 21  2  0
 23 25  2  0
 23 24  1  0
M  END
$$$$
