LCH.pdb
     RDKit          3D

 25 25  0  0  1  0  0  0  0  0999 V2000
   25.4319  -22.3774  -11.6144 C   0  0  0  0  0  0  0  0  0  0  0  0
   26.3390  -21.2000  -11.2546 C   0  0  2  0  0  0  0  0  0  0  0  0
   25.8458  -20.6554   -9.9396 C   0  0  0  0  0  0  0  0  0  0  0  0
   26.1459  -20.1157  -12.2983 C   0  0  0  0  0  0  0  0  0  0  0  0
   26.2465  -20.6789  -13.7103 C   0  0  2  0  0  0  0  0  0  0  0  0
   27.4979  -20.1874  -14.2622 N   0  0  0  0  0  0  0  0  0  0  0  0
   25.1210  -20.1002  -14.4821 C   0  0  0  0  0  0  0  0  0  0  0  0
   24.9128  -18.8640  -14.4261 O   0  0  0  0  0  0  0  0  0  0  0  0
   24.2478  -20.8758  -15.2965 N   0  0  0  0  0  0  0  0  0  0  0  0
   23.1107  -20.2965  -15.9510 C   0  0  1  0  0  0  0  0  0  0  0  0
   23.0547  -20.7682  -17.4026 C   0  0  0  0  0  0  0  0  0  0  0  0
   21.8379  -19.7273  -18.2745 S   0  0  0  0  0  0  0  0  0  0  0  0
   21.8255  -20.6739  -15.3001 C   0  0  0  0  0  0  0  0  0  0  0  0
   21.5957  -21.8283  -14.8978 O   0  0  0  0  0  0  0  0  0  0  0  0
   20.8753  -19.6377  -15.1647 N   0  0  0  0  0  0  0  0  0  0  0  0
   19.5948  -19.8492  -14.4293 C   0  0  1  0  0  0  0  0  0  0  0  0
   19.6774  -18.9852  -13.2351 C   0  0  0  0  0  0  0  0  0  0  0  0
   20.4577  -19.4490  -12.0967 C   0  0  0  0  0  0  0  0  0  0  0  0
   21.1957  -20.5751  -11.9290 C   0  0  0  0  0  0  0  0  0  0  0  0
   21.7982  -20.5223  -10.6963 N   0  0  0  0  0  0  0  0  0  0  0  0
   21.4166  -19.3740  -10.1479 C   0  0  0  0  0  0  0  0  0  0  0  0
   20.6144  -18.7164  -10.9694 N   0  0  0  0  0  0  0  0  0  0  0  0
   18.4890  -19.5273  -15.3732 C   0  0  0  0  0  0  0  0  0  0  0  0
   17.1713  -19.7595  -14.9480 O   0  0  0  0  0  0  0  0  0  0  0  0
   18.6540  -19.0671  -16.5068 O   0  0  0  0  0  0  0  0  0  0  0  0
  2  1  1  6
  2  3  1  0
  2  4  1  0
  5  4  1  0
  5  6  1  6
  5  7  1  0
  7  8  2  0
  9  7  1  0
  9 10  1  0
 10 13  1  0
 10 11  1  6
 12 11  1  0
 13 15  1  0
 13 14  2  0
 15 16  1  0
 16 23  1  0
 17 18  1  0
 16 17  1  1
 18 22  1  0
 18 19  2  0
 19 20  1  0
 21 20  1  0
 22 21  2  0
 23 25  2  0
 23 24  1  0
M  END
$$$$
