LCH.pdb
     RDKit          3D

 25 25  0  0  1  0  0  0  0  0999 V2000
   35.3874  -34.6174  -19.1040 C   0  0  0  0  0  0  0  0  0  0  0  0
   35.8670  -33.4296  -19.9393 C   0  0  2  0  0  0  0  0  0  0  0  0
   37.3590  -33.3394  -19.7527 C   0  0  0  0  0  0  0  0  0  0  0  0
   35.2580  -32.1658  -19.3610 C   0  0  0  0  0  0  0  0  0  0  0  0
   33.7392  -32.1757  -19.4803 C   0  0  2  0  0  0  0  0  0  0  0  0
   33.4354  -32.0210  -20.8931 N   0  0  0  0  0  0  0  0  0  0  0  0
   33.2457  -30.9841  -18.7497 C   0  0  0  0  0  0  0  0  0  0  0  0
   33.4946  -30.8713  -17.5249 O   0  0  0  0  0  0  0  0  0  0  0  0
   32.4940  -29.9428  -19.3644 N   0  0  0  0  0  0  0  0  0  0  0  0
   31.9937  -28.8273  -18.6146 C   0  0  1  0  0  0  0  0  0  0  0  0
   32.3095  -27.5269  -19.3510 C   0  0  0  0  0  0  0  0  0  0  0  0
   34.1235  -27.3849  -19.4671 S   0  0  0  0  0  0  0  0  0  0  0  0
   30.5193  -28.8905  -18.4148 C   0  0  0  0  0  0  0  0  0  0  0  0
   29.7333  -29.1754  -19.3359 O   0  0  0  0  0  0  0  0  0  0  0  0
   30.0611  -28.6061  -17.1095 N   0  0  0  0  0  0  0  0  0  0  0  0
   28.6209  -28.7404  -16.7452 C   0  0  1  0  0  0  0  0  0  0  0  0
   28.5942  -29.6084  -15.5513 C   0  0  0  0  0  0  0  0  0  0  0  0
   27.6767  -30.7388  -15.5367 C   0  0  0  0  0  0  0  0  0  0  0  0
   26.8522  -31.2225  -16.4996 C   0  0  0  0  0  0  0  0  0  0  0  0
   26.2360  -32.3517  -16.0196 N   0  0  0  0  0  0  0  0  0  0  0  0
   26.6972  -32.5278  -14.7861 C   0  0  0  0  0  0  0  0  0  0  0  0
   27.5607  -31.5738  -14.4776 N   0  0  0  0  0  0  0  0  0  0  0  0
   28.0895  -27.3640  -16.5441 C   0  0  0  0  0  0  0  0  0  0  0  0
   26.7040  -27.1692  -16.6601 O   0  0  0  0  0  0  0  0  0  0  0  0
   28.7875  -26.3807  -16.2797 O   0  0  0  0  0  0  0  0  0  0  0  0
  2  1  1  1
  2  3  1  0
  2  4  1  0
  5  4  1  0
  5  6  1  6
  5  7  1  0
  7  8  2  0
  9  7  1  0
  9 10  1  0
 10 13  1  0
 10 11  1  6
 12 11  1  0
 13 15  1  0
 13 14  2  0
 15 16  1  0
 16 23  1  0
 17 18  1  0
 16 17  1  1
 18 22  1  0
 18 19  2  0
 19 20  1  0
 21 20  1  0
 22 21  2  0
 23 25  2  0
 23 24  1  0
M  END
$$$$
