LCH.pdb
     RDKit          3D

 25 25  0  0  1  0  0  0  0  0999 V2000
   23.1197  -16.3012  -17.6369 C   0  0  0  0  0  0  0  0  0  0  0  0
   23.5622  -16.5145  -16.1888 C   0  0  2  0  0  0  0  0  0  0  0  0
   22.3725  -17.0633  -15.4455 C   0  0  0  0  0  0  0  0  0  0  0  0
   23.8898  -15.1601  -15.5882 C   0  0  0  0  0  0  0  0  0  0  0  0
   25.0335  -14.4834  -16.3334 C   0  0  2  0  0  0  0  0  0  0  0  0
   26.2445  -15.1991  -15.9682 N   0  0  0  0  0  0  0  0  0  0  0  0
   25.1199  -13.0973  -15.8151 C   0  0  0  0  0  0  0  0  0  0  0  0
   26.0785  -12.7820  -15.0691 O   0  0  0  0  0  0  0  0  0  0  0  0
   24.1647  -12.0858  -16.1180 N   0  0  0  0  0  0  0  0  0  0  0  0
   24.3754  -10.7141  -15.7561 C   0  0  1  0  0  0  0  0  0  0  0  0
   25.6520  -10.1963  -16.4157 C   0  0  0  0  0  0  0  0  0  0  0  0
   25.7989   -8.4231  -16.0173 S   0  0  0  0  0  0  0  0  0  0  0  0
   23.2530   -9.8334  -16.1835 C   0  0  0  0  0  0  0  0  0  0  0  0
   22.9575   -9.6632  -17.3797 O   0  0  0  0  0  0  0  0  0  0  0  0
   22.5380   -9.1978  -15.1445 N   0  0  0  0  0  0  0  0  0  0  0  0
   21.3138   -8.3926  -15.4237 C   0  0  1  0  0  0  0  0  0  0  0  0
   20.2580   -8.9684  -14.5675 C   0  0  0  0  0  0  0  0  0  0  0  0
   19.5842  -10.1783  -15.0170 C   0  0  0  0  0  0  0  0  0  0  0  0
   19.7551  -10.9222  -16.1388 C   0  0  0  0  0  0  0  0  0  0  0  0
   18.9216  -12.0112  -16.0714 N   0  0  0  0  0  0  0  0  0  0  0  0
   18.2692  -11.9058  -14.9187 C   0  0  0  0  0  0  0  0  0  0  0  0
   18.6511  -10.8163  -14.2723 N   0  0  0  0  0  0  0  0  0  0  0  0
   21.6527   -6.9693  -15.1468 C   0  0  0  0  0  0  0  0  0  0  0  0
   20.6921   -5.9919  -15.4518 O   0  0  0  0  0  0  0  0  0  0  0  0
   22.7241   -6.5907  -14.6642 O   0  0  0  0  0  0  0  0  0  0  0  0
  2  1  1  6
  2  3  1  0
  2  4  1  0
  5  4  1  0
  5  6  1  1
  5  7  1  0
  7  8  2  0
  9  7  1  0
  9 10  1  0
 10 13  1  0
 10 11  1  6
 12 11  1  0
 13 15  1  0
 13 14  2  0
 15 16  1  0
 16 23  1  0
 17 18  1  0
 16 17  1  1
 18 22  1  0
 18 19  2  0
 19 20  1  0
 21 20  1  0
 22 21  2  0
 23 25  2  0
 23 24  1  0
M  END
$$$$
