LCH.pdb
     RDKit          3D

 25 25  0  0  1  0  0  0  0  0999 V2000
   28.1932  -17.0332  -16.0185 C   0  0  0  0  0  0  0  0  0  0  0  0
   27.5603  -17.9713  -17.0472 C   0  0  2  0  0  0  0  0  0  0  0  0
   26.4946  -17.1810  -17.7605 C   0  0  0  0  0  0  0  0  0  0  0  0
   26.8699  -19.0977  -16.3009 C   0  0  0  0  0  0  0  0  0  0  0  0
   27.8668  -19.9296  -15.5039 C   0  0  2  0  0  0  0  0  0  0  0  0
   28.4883  -20.8440  -16.4472 N   0  0  0  0  0  0  0  0  0  0  0  0
   27.0802  -20.7136  -14.5221 C   0  0  0  0  0  0  0  0  0  0  0  0
   26.8352  -21.9213  -14.7595 O   0  0  0  0  0  0  0  0  0  0  0  0
   26.5777  -20.1695  -13.3061 N   0  0  0  0  0  0  0  0  0  0  0  0
   25.9050  -20.9826  -12.3349 C   0  0  1  0  0  0  0  0  0  0  0  0
   25.9608  -20.3055  -10.9669 C   0  0  0  0  0  0  0  0  0  0  0  0
   25.1081  -21.3931   -9.7777 S   0  0  0  0  0  0  0  0  0  0  0  0
   24.4721  -21.2063  -12.6736 C   0  0  0  0  0  0  0  0  0  0  0  0
   23.6978  -21.8239  -11.9212 O   0  0  0  0  0  0  0  0  0  0  0  0
   24.0397  -20.6728  -13.9078 N   0  0  0  0  0  0  0  0  0  0  0  0
   22.6321  -20.2215  -14.1085 C   0  0  1  0  0  0  0  0  0  0  0  0
   22.4116  -19.1576  -13.1090 C   0  0  0  0  0  0  0  0  0  0  0  0
   21.6531  -19.4807  -11.9089 C   0  0  0  0  0  0  0  0  0  0  0  0
   20.4304  -20.0497  -11.7606 C   0  0  0  0  0  0  0  0  0  0  0  0
   20.1812  -20.2053  -10.4194 N   0  0  0  0  0  0  0  0  0  0  0  0
   21.2502  -19.7321   -9.7881 C   0  0  0  0  0  0  0  0  0  0  0  0
   22.1430  -19.2939  -10.6609 N   0  0  0  0  0  0  0  0  0  0  0  0
   22.5068  -19.7960  -15.5299 C   0  0  0  0  0  0  0  0  0  0  0  0
   23.6836  -19.6618  -16.2837 O   0  0  0  0  0  0  0  0  0  0  0  0
   21.4343  -19.5544  -16.0916 O   0  0  0  0  0  0  0  0  0  0  0  0
  2  1  1  1
  2  3  1  0
  2  4  1  0
  5  4  1  0
  5  6  1  6
  5  7  1  0
  7  8  2  0
  9  7  1  0
  9 10  1  0
 10 13  1  0
 10 11  1  1
 12 11  1  0
 13 15  1  0
 13 14  2  0
 15 16  1  0
 16 23  1  0
 17 18  1  0
 16 17  1  1
 18 22  1  0
 18 19  2  0
 19 20  1  0
 21 20  1  0
 22 21  2  0
 23 25  2  0
 23 24  1  0
M  END
$$$$
