CEY.pdb
     RDKit          3D

 28 28  0  0  1  0  0  0  0  0999 V2000
    7.3587  -15.7550   19.7906 N   0  0  0  0  0  0  0  0  0  0  0  0
    7.9972  -15.1957   20.9497 C   0  0  1  0  0  0  0  0  0  0  0  0
    7.0890  -14.2260   21.6631 C   0  0  0  0  0  0  0  0  0  0  0  0
    8.0063  -13.4793   23.0432 S   0  0  0  0  0  0  0  0  0  0  0  0
    8.5264  -16.2308   21.8833 C   0  0  0  0  0  0  0  0  0  0  0  0
    7.8244  -17.2383   22.0645 O   0  0  0  0  0  0  0  0  0  0  0  0
    9.7683  -16.0357   22.5082 N   0  0  0  0  0  0  0  0  0  0  0  0
   10.5546  -17.1249   23.0286 C   0  0  1  0  0  0  0  0  0  0  0  0
   11.8373  -17.3258   22.3021 C   0  0  0  0  0  0  0  0  0  0  0  0
   12.6519  -18.4803   22.8262 C   0  0  0  0  0  0  0  0  0  0  0  0
   13.9129  -18.5271   22.0305 C   0  0  0  0  0  0  0  0  0  0  0  0
   14.9809  -18.0013   22.4238 O   0  0  0  0  0  0  0  0  0  0  0  0
   10.6378  -17.1989   24.4985 C   0  0  0  0  0  0  0  0  0  0  0  0
   10.9071  -18.2030   25.1904 O   0  0  0  0  0  0  0  0  0  0  0  0
   13.9352  -19.1766   20.7918 O   0  0  0  0  0  0  0  0  0  0  0  0
    6.0683  -11.0613   26.4982 O   0  0  0  0  0  0  0  0  0  0  0  0
    6.6469  -12.3280   26.5609 C   0  0  0  0  0  0  0  0  0  0  0  0
    8.0202  -12.4558   26.7062 C   0  0  0  0  0  0  0  0  0  0  0  0
    8.6209  -13.6847   26.7714 C   0  0  0  0  0  0  0  0  0  0  0  0
    7.8670  -14.8538   26.6933 C   0  0  0  0  0  0  0  0  0  0  0  0
    8.5574  -16.1389   26.7566 C   0  0  0  0  0  0  0  0  0  0  0  0
   10.0628  -16.0582   26.6550 C   0  0  2  0  0  0  0  0  0  0  0  0
   10.3853  -15.9939   25.2361 N   0  0  0  0  0  0  0  0  0  0  0  0
   10.6475  -17.2879   27.2202 C   0  0  0  0  0  0  0  0  0  0  0  0
   11.0612  -18.1754   26.4466 O   0  0  0  0  0  0  0  0  0  0  0  0
    6.5137  -14.7289   26.5497 C   0  0  0  0  0  0  0  0  0  0  0  0
    5.9125  -13.4910   26.4847 C   0  0  0  0  0  0  0  0  0  0  0  0
   10.7645  -17.5154   28.5866 O   0  0  0  0  0  0  0  0  0  0  0  0
  2  5  1  0
  2  1  1  6
  3  2  1  0
  3  4  1  0
  5  6  2  0
  7  5  1  0
  7  8  1  0
  8 13  1  0
  8  9  1  6
 10  9  1  0
 10 11  1  0
 11 15  1  0
 11 12  2  0
 13 14  2  0
 16 17  1  0
 17 27  2  0
 18 17  1  0
 18 19  2  0
 19 20  1  0
 20 26  2  0
 20 21  1  0
 22 21  1  6
 22 23  1  0
 22 24  1  0
 23 13  1  0
 24 25  2  0
 24 28  1  0
 27 26  1  0
M  END
$$$$
