CEY.pdb
     RDKit          3D

 28 28  0  0  1  0  0  0  0  0999 V2000
    7.7059  -15.5519   17.3381 N   0  0  0  0  0  0  0  0  0  0  0  0
    8.6902  -15.0570   18.2602 C   0  0  1  0  0  0  0  0  0  0  0  0
    8.3325  -13.6792   18.7584 C   0  0  0  0  0  0  0  0  0  0  0  0
    8.3126  -12.5375   17.3442 S   0  0  0  0  0  0  0  0  0  0  0  0
    8.9547  -15.9914   19.3916 C   0  0  0  0  0  0  0  0  0  0  0  0
    7.9747  -16.5735   19.8829 O   0  0  0  0  0  0  0  0  0  0  0  0
   10.2689  -16.1762   19.8496 N   0  0  0  0  0  0  0  0  0  0  0  0
   10.5736  -16.8800   21.0692 C   0  0  1  0  0  0  0  0  0  0  0  0
   11.7721  -17.7550   20.9612 C   0  0  0  0  0  0  0  0  0  0  0  0
   11.5900  -18.9113   20.0119 C   0  0  0  0  0  0  0  0  0  0  0  0
   12.8694  -19.6783   20.0013 C   0  0  0  0  0  0  0  0  0  0  0  0
   13.7858  -19.4540   19.1757 O   0  0  0  0  0  0  0  0  0  0  0  0
   10.4808  -16.0777   22.3023 C   0  0  0  0  0  0  0  0  0  0  0  0
   11.2486  -15.1634   22.6684 O   0  0  0  0  0  0  0  0  0  0  0  0
   13.0839  -20.6947   20.9382 O   0  0  0  0  0  0  0  0  0  0  0  0
    6.1676  -11.3035   28.2196 O   0  0  0  0  0  0  0  0  0  0  0  0
    6.6249  -12.1102   27.1788 C   0  0  0  0  0  0  0  0  0  0  0  0
    6.0081  -13.3255   26.9221 C   0  0  0  0  0  0  0  0  0  0  0  0
    6.4319  -14.1421   25.9076 C   0  0  0  0  0  0  0  0  0  0  0  0
    7.5032  -13.7759   25.0956 C   0  0  0  0  0  0  0  0  0  0  0  0
    7.9227  -14.6876   24.0349 C   0  0  0  0  0  0  0  0  0  0  0  0
    9.1522  -15.5074   24.3497 C   0  0  2  0  0  0  0  0  0  0  0  0
    9.3941  -16.3622   23.1955 N   0  0  0  0  0  0  0  0  0  0  0  0
    8.8735  -16.3581   25.5212 C   0  0  0  0  0  0  0  0  0  0  0  0
    9.2389  -15.9750   26.6512 O   0  0  0  0  0  0  0  0  0  0  0  0
    8.1119  -12.5786   25.3480 C   0  0  0  0  0  0  0  0  0  0  0  0
    7.6830  -11.7594   26.3692 C   0  0  0  0  0  0  0  0  0  0  0  0
    8.2169  -17.5802   25.4339 O   0  0  0  0  0  0  0  0  0  0  0  0
  2  5  1  0
  2  1  1  1
  3  2  1  0
  3  4  1  0
  5  6  2  0
  7  5  1  0
  7  8  1  0
  8 13  1  0
  8  9  1  6
 10  9  1  0
 10 11  1  0
 11 15  1  0
 11 12  2  0
 13 14  2  0
 16 17  1  0
 17 27  2  0
 18 17  1  0
 18 19  2  0
 19 20  1  0
 20 26  2  0
 20 21  1  0
 22 21  1  6
 22 23  1  0
 22 24  1  0
 23 13  1  0
 24 25  2  0
 24 28  1  0
 27 26  1  0
M  END
$$$$
