CEY.pdb
     RDKit          3D

 28 28  0  0  1  0  0  0  0  0999 V2000
    7.0585  -13.0332   18.8154 N   0  0  0  0  0  0  0  0  0  0  0  0
    8.2595  -13.8207   18.7769 C   0  0  1  0  0  0  0  0  0  0  0  0
    9.4867  -12.9476   18.6988 C   0  0  0  0  0  0  0  0  0  0  0  0
    9.6463  -12.0297   20.2595 S   0  0  0  0  0  0  0  0  0  0  0  0
    8.3572  -14.7949   19.9014 C   0  0  0  0  0  0  0  0  0  0  0  0
    7.7017  -14.5421   20.9247 O   0  0  0  0  0  0  0  0  0  0  0  0
    9.1654  -15.9349   19.7672 N   0  0  0  0  0  0  0  0  0  0  0  0
    9.3142  -16.9085   20.8186 C   0  0  1  0  0  0  0  0  0  0  0  0
    9.6836  -18.2613   20.3214 C   0  0  0  0  0  0  0  0  0  0  0  0
    9.7759  -19.2988   21.4107 C   0  0  0  0  0  0  0  0  0  0  0  0
   10.2048  -20.5751   20.7684 C   0  0  0  0  0  0  0  0  0  0  0  0
    9.4188  -21.5324   20.5747 O   0  0  0  0  0  0  0  0  0  0  0  0
   10.0495  -16.4458   22.0094 C   0  0  0  0  0  0  0  0  0  0  0  0
   11.1922  -15.9432   22.0437 O   0  0  0  0  0  0  0  0  0  0  0  0
   11.5310  -20.7395   20.3550 O   0  0  0  0  0  0  0  0  0  0  0  0
   10.7633  -14.6544   30.7023 O   0  0  0  0  0  0  0  0  0  0  0  0
   10.2921  -14.8879   29.4113 C   0  0  0  0  0  0  0  0  0  0  0  0
   10.5618  -16.0945   28.7832 C   0  0  0  0  0  0  0  0  0  0  0  0
   10.1141  -16.3566   27.5158 C   0  0  0  0  0  0  0  0  0  0  0  0
    9.3684  -15.4133   26.8121 C   0  0  0  0  0  0  0  0  0  0  0  0
    8.9244  -15.7379   25.4593 C   0  0  0  0  0  0  0  0  0  0  0  0
   10.0336  -16.0639   24.4865 C   0  0  2  0  0  0  0  0  0  0  0  0
    9.3978  -16.5779   23.2812 N   0  0  0  0  0  0  0  0  0  0  0  0
   10.8820  -17.1219   25.0646 C   0  0  0  0  0  0  0  0  0  0  0  0
   10.5363  -18.3144   24.9395 O   0  0  0  0  0  0  0  0  0  0  0  0
    9.1023  -14.2238   27.4300 C   0  0  0  0  0  0  0  0  0  0  0  0
    9.5541  -13.9634   28.7052 C   0  0  0  0  0  0  0  0  0  0  0  0
   12.0622  -16.8596   25.7509 O   0  0  0  0  0  0  0  0  0  0  0  0
  2  5  1  0
  2  1  1  1
  3  2  1  0
  3  4  1  0
  5  6  2  0
  7  5  1  0
  7  8  1  0
  8 13  1  0
  8  9  1  6
 10  9  1  0
 10 11  1  0
 11 15  1  0
 11 12  2  0
 13 14  2  0
 16 17  1  0
 17 27  2  0
 18 17  1  0
 18 19  2  0
 19 20  1  0
 20 26  2  0
 20 21  1  0
 22 21  1  1
 22 23  1  0
 22 24  1  0
 23 13  1  0
 24 25  2  0
 24 28  1  0
 27 26  1  0
M  END
$$$$
