CEY.pdb
     RDKit          3D

 28 28  0  0  1  0  0  0  0  0999 V2000
    7.1272  -17.6565   19.0489 N   0  0  0  0  0  0  0  0  0  0  0  0
    8.2757  -16.8405   19.3306 C   0  0  1  0  0  0  0  0  0  0  0  0
    7.9254  -15.3738   19.3115 C   0  0  0  0  0  0  0  0  0  0  0  0
    6.9255  -14.9966   20.7818 S   0  0  0  0  0  0  0  0  0  0  0  0
    8.9651  -17.2174   20.5977 C   0  0  0  0  0  0  0  0  0  0  0  0
    8.2622  -17.6988   21.5003 O   0  0  0  0  0  0  0  0  0  0  0  0
   10.3496  -17.0207   20.7226 N   0  0  0  0  0  0  0  0  0  0  0  0
   11.0544  -17.2311   21.9613 C   0  0  1  0  0  0  0  0  0  0  0  0
   12.4787  -17.6168   21.7709 C   0  0  0  0  0  0  0  0  0  0  0  0
   12.6655  -18.7960   20.8511 C   0  0  0  0  0  0  0  0  0  0  0  0
   14.1344  -18.9968   20.6848 C   0  0  0  0  0  0  0  0  0  0  0  0
   14.7824  -19.8358   21.3540 O   0  0  0  0  0  0  0  0  0  0  0  0
   10.8022  -16.2272   23.0107 C   0  0  0  0  0  0  0  0  0  0  0  0
   10.9325  -14.9886   22.9184 O   0  0  0  0  0  0  0  0  0  0  0  0
   14.8442  -18.2327   19.7525 O   0  0  0  0  0  0  0  0  0  0  0  0
    5.8325  -11.5074   27.9578 O   0  0  0  0  0  0  0  0  0  0  0  0
    6.4740  -12.4226   27.1247 C   0  0  0  0  0  0  0  0  0  0  0  0
    7.8584  -12.4318   27.0418 C   0  0  0  0  0  0  0  0  0  0  0  0
    8.5203  -13.3174   26.2337 C   0  0  0  0  0  0  0  0  0  0  0  0
    7.8198  -14.2436   25.4638 C   0  0  0  0  0  0  0  0  0  0  0  0
    8.5728  -15.1583   24.6103 C   0  0  0  0  0  0  0  0  0  0  0  0
    9.7886  -15.7784   25.2587 C   0  0  2  0  0  0  0  0  0  0  0  0
   10.3558  -16.7047   24.2883 N   0  0  0  0  0  0  0  0  0  0  0  0
    9.3620  -16.5381   26.4481 C   0  0  0  0  0  0  0  0  0  0  0  0
    9.2282  -15.9403   27.5352 O   0  0  0  0  0  0  0  0  0  0  0  0
    6.4556  -14.2351   25.5446 C   0  0  0  0  0  0  0  0  0  0  0  0
    5.7928  -13.3430   26.3587 C   0  0  0  0  0  0  0  0  0  0  0  0
    9.0972  -17.9025   26.4236 O   0  0  0  0  0  0  0  0  0  0  0  0
  2  5  1  0
  2  1  1  1
  3  2  1  0
  3  4  1  0
  5  6  2  0
  7  5  1  0
  7  8  1  0
  8 13  1  0
  8  9  1  6
 10  9  1  0
 10 11  1  0
 11 15  1  0
 11 12  2  0
 13 14  2  0
 16 17  1  0
 17 27  2  0
 18 17  1  0
 18 19  2  0
 19 20  1  0
 20 26  2  0
 20 21  1  0
 22 21  1  6
 22 23  1  0
 22 24  1  0
 23 13  1  0
 24 25  2  0
 24 28  1  0
 27 26  1  0
M  END
$$$$
