CEY.pdb
     RDKit          3D

 28 28  0  0  1  0  0  0  0  0999 V2000
    6.6624  -16.5336   20.0375 N   0  0  0  0  0  0  0  0  0  0  0  0
    7.4356  -15.6293   20.8428 C   0  0  1  0  0  0  0  0  0  0  0  0
    6.5599  -14.5898   21.4962 C   0  0  0  0  0  0  0  0  0  0  0  0
    7.6248  -13.3625   22.3108 S   0  0  0  0  0  0  0  0  0  0  0  0
    8.2927  -16.3247   21.8452 C   0  0  0  0  0  0  0  0  0  0  0  0
    7.7198  -17.0658   22.6596 O   0  0  0  0  0  0  0  0  0  0  0  0
    9.6820  -16.1230   21.8333 N   0  0  0  0  0  0  0  0  0  0  0  0
   10.5619  -16.7263   22.8014 C   0  0  1  0  0  0  0  0  0  0  0  0
   11.9512  -16.9100   22.3016 C   0  0  0  0  0  0  0  0  0  0  0  0
   12.0330  -17.7229   21.0352 C   0  0  0  0  0  0  0  0  0  0  0  0
   13.4708  -17.7822   20.6418 C   0  0  0  0  0  0  0  0  0  0  0  0
   14.0205  -16.8916   19.9516 O   0  0  0  0  0  0  0  0  0  0  0  0
   10.4439  -16.2043   24.1749 C   0  0  0  0  0  0  0  0  0  0  0  0
   10.8567  -15.1066   24.6040 O   0  0  0  0  0  0  0  0  0  0  0  0
   14.2627  -18.8627   21.0444 O   0  0  0  0  0  0  0  0  0  0  0  0
    6.1150  -11.1241   26.0016 O   0  0  0  0  0  0  0  0  0  0  0  0
    6.6444  -12.4005   26.1850 C   0  0  0  0  0  0  0  0  0  0  0  0
    5.8506  -13.5171   25.9697 C   0  0  0  0  0  0  0  0  0  0  0  0
    6.3390  -14.7851   26.1405 C   0  0  0  0  0  0  0  0  0  0  0  0
    7.6574  -14.9956   26.5386 C   0  0  0  0  0  0  0  0  0  0  0  0
    8.1255  -16.3672   26.7172 C   0  0  0  0  0  0  0  0  0  0  0  0
    9.6092  -16.5652   26.5105 C   0  0  2  0  0  0  0  0  0  0  0  0
    9.7840  -17.0337   25.1425 N   0  0  0  0  0  0  0  0  0  0  0  0
   10.0863  -17.6096   27.4353 C   0  0  0  0  0  0  0  0  0  0  0  0
   10.3727  -18.7368   26.9833 O   0  0  0  0  0  0  0  0  0  0  0  0
    8.4403  -13.8958   26.7514 C   0  0  0  0  0  0  0  0  0  0  0  0
    7.9460  -12.6216   26.5785 C   0  0  0  0  0  0  0  0  0  0  0  0
   10.2363  -17.4038   28.8019 O   0  0  0  0  0  0  0  0  0  0  0  0
  2  5  1  0
  2  1  1  1
  3  2  1  0
  3  4  1  0
  5  6  2  0
  7  5  1  0
  7  8  1  0
  8 13  1  0
  8  9  1  6
 10  9  1  0
 10 11  1  0
 11 15  1  0
 11 12  2  0
 13 14  2  0
 16 17  1  0
 17 27  2  0
 18 17  1  0
 18 19  2  0
 19 20  1  0
 20 26  2  0
 20 21  1  0
 22 21  1  1
 22 23  1  0
 22 24  1  0
 23 13  1  0
 24 25  2  0
 24 28  1  0
 27 26  1  0
M  END
$$$$
