CEY.pdb
     RDKit          3D

 28 28  0  0  1  0  0  0  0  0999 V2000
    9.6360  -18.0986   15.0058 N   0  0  0  0  0  0  0  0  0  0  0  0
    9.7780  -17.1421   16.0685 C   0  0  1  0  0  0  0  0  0  0  0  0
    8.7495  -16.0445   15.9607 C   0  0  0  0  0  0  0  0  0  0  0  0
    8.9791  -15.1875   14.3743 S   0  0  0  0  0  0  0  0  0  0  0  0
    9.7664  -17.7656   17.4228 C   0  0  0  0  0  0  0  0  0  0  0  0
    9.3229  -18.9219   17.5073 O   0  0  0  0  0  0  0  0  0  0  0  0
   10.2457  -17.0427   18.5266 N   0  0  0  0  0  0  0  0  0  0  0  0
   10.6547  -17.6792   19.7526 C   0  0  1  0  0  0  0  0  0  0  0  0
   11.6134  -18.7978   19.5447 C   0  0  0  0  0  0  0  0  0  0  0  0
   12.0492  -19.4632   20.8248 C   0  0  0  0  0  0  0  0  0  0  0  0
   13.0477  -20.5097   20.4597 C   0  0  0  0  0  0  0  0  0  0  0  0
   14.2846  -20.3221   20.5411 O   0  0  0  0  0  0  0  0  0  0  0  0
   10.9752  -16.7648   20.8634 C   0  0  0  0  0  0  0  0  0  0  0  0
   12.0257  -16.1087   21.0227 O   0  0  0  0  0  0  0  0  0  0  0  0
   12.6165  -21.7603   20.0051 O   0  0  0  0  0  0  0  0  0  0  0  0
    7.5346  -12.3201   17.9871 O   0  0  0  0  0  0  0  0  0  0  0  0
    7.8240  -12.9465   19.1983 C   0  0  0  0  0  0  0  0  0  0  0  0
    8.9221  -12.5417   19.9424 C   0  0  0  0  0  0  0  0  0  0  0  0
    9.2348  -13.1353   21.1363 C   0  0  0  0  0  0  0  0  0  0  0  0
    8.4548  -14.1716   21.6451 C   0  0  0  0  0  0  0  0  0  0  0  0
    8.8378  -14.7781   22.9170 C   0  0  0  0  0  0  0  0  0  0  0  0
   10.1370  -15.5490   22.8887 C   0  0  2  0  0  0  0  0  0  0  0  0
    9.9832  -16.5947   21.8865 N   0  0  0  0  0  0  0  0  0  0  0  0
   10.3487  -16.1792   24.2046 C   0  0  0  0  0  0  0  0  0  0  0  0
   10.1473  -17.4041   24.3312 O   0  0  0  0  0  0  0  0  0  0  0  0
    7.3726  -14.5713   20.9125 C   0  0  0  0  0  0  0  0  0  0  0  0
    7.0608  -13.9720   19.7119 C   0  0  0  0  0  0  0  0  0  0  0  0
   10.7661  -15.4732   25.3269 O   0  0  0  0  0  0  0  0  0  0  0  0
  2  5  1  0
  2  1  1  6
  3  2  1  0
  3  4  1  0
  5  6  2  0
  7  5  1  0
  7  8  1  0
  8 13  1  0
  8  9  1  6
 10  9  1  0
 10 11  1  0
 11 15  1  0
 11 12  2  0
 13 14  2  0
 16 17  1  0
 17 27  2  0
 18 17  1  0
 18 19  2  0
 19 20  1  0
 20 26  2  0
 20 21  1  0
 22 21  1  1
 22 23  1  0
 22 24  1  0
 23 13  1  0
 24 25  2  0
 24 28  1  0
 27 26  1  0
M  END
$$$$
