CEY.pdb
     RDKit          3D

 28 28  0  0  1  0  0  0  0  0999 V2000
    7.5693  -15.6849   17.7565 N   0  0  0  0  0  0  0  0  0  0  0  0
    8.6523  -15.1743   18.5505 C   0  0  1  0  0  0  0  0  0  0  0  0
    8.3580  -13.7824   19.0507 C   0  0  0  0  0  0  0  0  0  0  0  0
    8.2449  -12.6640   17.6224 S   0  0  0  0  0  0  0  0  0  0  0  0
    9.0375  -16.0826   19.6684 C   0  0  0  0  0  0  0  0  0  0  0  0
    8.1184  -16.6746   20.2562 O   0  0  0  0  0  0  0  0  0  0  0  0
   10.3913  -16.2336   20.0083 N   0  0  0  0  0  0  0  0  0  0  0  0
   10.8206  -16.9342   21.1916 C   0  0  1  0  0  0  0  0  0  0  0  0
   12.0988  -17.6732   21.0081 C   0  0  0  0  0  0  0  0  0  0  0  0
   12.0812  -18.6261   19.8405 C   0  0  0  0  0  0  0  0  0  0  0  0
   13.4570  -19.1876   19.7093 C   0  0  0  0  0  0  0  0  0  0  0  0
   14.3109  -18.7093   18.9258 O   0  0  0  0  0  0  0  0  0  0  0  0
   10.6971  -16.1806   22.4524 C   0  0  0  0  0  0  0  0  0  0  0  0
   11.3431  -15.1678   22.7937 O   0  0  0  0  0  0  0  0  0  0  0  0
   13.8386  -20.2920   20.4783 O   0  0  0  0  0  0  0  0  0  0  0  0
    5.7701  -11.5147   27.8001 O   0  0  0  0  0  0  0  0  0  0  0  0
    6.3884  -12.3371   26.8596 C   0  0  0  0  0  0  0  0  0  0  0  0
    5.7369  -13.4699   26.3953 C   0  0  0  0  0  0  0  0  0  0  0  0
    6.3153  -14.2992   25.4716 C   0  0  0  0  0  0  0  0  0  0  0  0
    7.5851  -14.0298   24.9654 C   0  0  0  0  0  0  0  0  0  0  0  0
    8.1614  -14.9518   23.9907 C   0  0  0  0  0  0  0  0  0  0  0  0
    9.3142  -15.7824   24.5047 C   0  0  2  0  0  0  0  0  0  0  0  0
    9.7323  -16.6450   23.4080 N   0  0  0  0  0  0  0  0  0  0  0  0
    8.8389  -16.6247   25.6174 C   0  0  0  0  0  0  0  0  0  0  0  0
    8.3087  -17.7253   25.3630 O   0  0  0  0  0  0  0  0  0  0  0  0
    8.2280  -12.9139   25.4226 C   0  0  0  0  0  0  0  0  0  0  0  0
    7.6432  -12.0817   26.3517 C   0  0  0  0  0  0  0  0  0  0  0  0
    8.9508  -16.2542   26.9525 O   0  0  0  0  0  0  0  0  0  0  0  0
  2  5  1  0
  2  1  1  1
  3  2  1  0
  3  4  1  0
  5  6  2  0
  7  5  1  0
  7  8  1  0
  8 13  1  0
  8  9  1  6
 10  9  1  0
 10 11  1  0
 11 15  1  0
 11 12  2  0
 13 14  2  0
 16 17  1  0
 17 27  2  0
 18 17  1  0
 18 19  2  0
 19 20  1  0
 20 26  2  0
 20 21  1  0
 22 21  1  6
 22 23  1  0
 22 24  1  0
 23 13  1  0
 24 25  2  0
 24 28  1  0
 27 26  1  0
M  END
$$$$
