CEY.pdb
     RDKit          3D

 28 28  0  0  1  0  0  0  0  0999 V2000
    7.5105  -15.7234   17.2761 N   0  0  0  0  0  0  0  0  0  0  0  0
    8.5804  -15.1700   18.0591 C   0  0  1  0  0  0  0  0  0  0  0  0
    8.3174  -13.7262   18.4059 C   0  0  0  0  0  0  0  0  0  0  0  0
    8.2635  -12.7600   16.8673 S   0  0  0  0  0  0  0  0  0  0  0  0
    8.8908  -15.9728   19.2766 C   0  0  0  0  0  0  0  0  0  0  0  0
    7.9266  -16.4071   19.9264 O   0  0  0  0  0  0  0  0  0  0  0  0
   10.2280  -16.2043   19.6361 N   0  0  0  0  0  0  0  0  0  0  0  0
   10.5988  -16.8608   20.8636 C   0  0  1  0  0  0  0  0  0  0  0  0
   11.8408  -17.6717   20.7467 C   0  0  0  0  0  0  0  0  0  0  0  0
   12.1943  -18.4171   22.0079 C   0  0  0  0  0  0  0  0  0  0  0  0
   13.4354  -19.1955   21.7264 C   0  0  0  0  0  0  0  0  0  0  0  0
   13.4441  -20.2136   20.9950 O   0  0  0  0  0  0  0  0  0  0  0  0
   10.4904  -16.0352   22.0800 C   0  0  0  0  0  0  0  0  0  0  0  0
   11.2882  -15.1578   22.4711 O   0  0  0  0  0  0  0  0  0  0  0  0
   14.6535  -18.7974   22.2872 O   0  0  0  0  0  0  0  0  0  0  0  0
    6.0191  -11.3000   28.0103 O   0  0  0  0  0  0  0  0  0  0  0  0
    6.4591  -12.1526   26.9991 C   0  0  0  0  0  0  0  0  0  0  0  0
    6.9789  -11.6257   25.8262 C   0  0  0  0  0  0  0  0  0  0  0  0
    7.4202  -12.4345   24.8130 C   0  0  0  0  0  0  0  0  0  0  0  0
    7.3607  -13.8217   24.9286 C   0  0  0  0  0  0  0  0  0  0  0  0
    7.8339  -14.6389   23.8148 C   0  0  0  0  0  0  0  0  0  0  0  0
    9.1201  -15.3875   24.0763 C   0  0  2  0  0  0  0  0  0  0  0  0
    9.3480  -16.2468   22.9225 N   0  0  0  0  0  0  0  0  0  0  0  0
    8.9478  -16.2327   25.2719 C   0  0  0  0  0  0  0  0  0  0  0  0
    8.5000  -17.3898   25.1388 O   0  0  0  0  0  0  0  0  0  0  0  0
    6.8483  -14.3419   26.0838 C   0  0  0  0  0  0  0  0  0  0  0  0
    6.4054  -13.5254   27.1012 C   0  0  0  0  0  0  0  0  0  0  0  0
    9.2613  -15.8046   26.5567 O   0  0  0  0  0  0  0  0  0  0  0  0
  2  5  1  0
  2  1  1  1
  3  2  1  0
  3  4  1  0
  5  6  2  0
  7  5  1  0
  7  8  1  0
  8 13  1  0
  8  9  1  6
 10  9  1  0
 10 11  1  0
 11 15  1  0
 11 12  2  0
 13 14  2  0
 16 17  1  0
 17 27  2  0
 18 17  1  0
 18 19  2  0
 19 20  1  0
 20 26  2  0
 20 21  1  0
 22 21  1  6
 22 23  1  0
 22 24  1  0
 23 13  1  0
 24 25  2  0
 24 28  1  0
 27 26  1  0
M  END
$$$$
