CEY.pdb
     RDKit          3D

 28 28  0  0  1  0  0  0  0  0999 V2000
    9.4090  -14.3143   17.3295 N   0  0  0  0  0  0  0  0  0  0  0  0
    8.8593  -13.7518   18.5319 C   0  0  1  0  0  0  0  0  0  0  0  0
    7.4412  -13.2841   18.3212 C   0  0  0  0  0  0  0  0  0  0  0  0
    6.8877  -12.4159   19.8191 S   0  0  0  0  0  0  0  0  0  0  0  0
    8.9607  -14.6659   19.7054 C   0  0  0  0  0  0  0  0  0  0  0  0
    8.5947  -14.2167   20.8031 O   0  0  0  0  0  0  0  0  0  0  0  0
    9.4531  -15.9692   19.5328 N   0  0  0  0  0  0  0  0  0  0  0  0
    9.5615  -16.9080   20.6201 C   0  0  1  0  0  0  0  0  0  0  0  0
    9.9440  -18.2771   20.1810 C   0  0  0  0  0  0  0  0  0  0  0  0
    9.9540  -19.2874   21.2993 C   0  0  0  0  0  0  0  0  0  0  0  0
   10.3751  -20.5919   20.7108 C   0  0  0  0  0  0  0  0  0  0  0  0
    9.6076  -21.3006   20.0177 O   0  0  0  0  0  0  0  0  0  0  0  0
   10.2557  -16.4078   21.8204 C   0  0  0  0  0  0  0  0  0  0  0  0
   11.4051  -15.9234   21.8817 O   0  0  0  0  0  0  0  0  0  0  0  0
   11.6726  -21.0696   20.9238 O   0  0  0  0  0  0  0  0  0  0  0  0
   10.8384  -14.4507   30.5228 O   0  0  0  0  0  0  0  0  0  0  0  0
   10.4167  -14.8224   29.2472 C   0  0  0  0  0  0  0  0  0  0  0  0
   10.0663  -13.8498   28.3228 C   0  0  0  0  0  0  0  0  0  0  0  0
    9.6480  -14.1801   27.0613 C   0  0  0  0  0  0  0  0  0  0  0  0
    9.5606  -15.5125   26.6634 C   0  0  0  0  0  0  0  0  0  0  0  0
    9.0983  -15.8114   25.3109 C   0  0  0  0  0  0  0  0  0  0  0  0
   10.1967  -16.0428   24.2995 C   0  0  2  0  0  0  0  0  0  0  0  0
    9.5498  -16.4752   23.0682 N   0  0  0  0  0  0  0  0  0  0  0  0
   11.0719  -17.1264   24.7825 C   0  0  0  0  0  0  0  0  0  0  0  0
   10.7016  -18.3108   24.6515 O   0  0  0  0  0  0  0  0  0  0  0  0
    9.9054  -16.4716   27.5737 C   0  0  0  0  0  0  0  0  0  0  0  0
   10.3259  -16.1359   28.8420 C   0  0  0  0  0  0  0  0  0  0  0  0
   12.3040  -16.8971   25.3841 O   0  0  0  0  0  0  0  0  0  0  0  0
  2  5  1  0
  2  1  1  6
  3  2  1  0
  3  4  1  0
  5  6  2  0
  7  5  1  0
  7  8  1  0
  8 13  1  0
  8  9  1  6
 10  9  1  0
 10 11  1  0
 11 15  1  0
 11 12  2  0
 13 14  2  0
 16 17  1  0
 17 27  2  0
 18 17  1  0
 18 19  2  0
 19 20  1  0
 20 26  2  0
 20 21  1  0
 22 21  1  1
 22 23  1  0
 22 24  1  0
 23 13  1  0
 24 25  2  0
 24 28  1  0
 27 26  1  0
M  END
$$$$
