CEY.pdb
     RDKit          3D

 28 28  0  0  1  0  0  0  0  0999 V2000
    7.1031  -15.8955   18.6147 N   0  0  0  0  0  0  0  0  0  0  0  0
    8.3438  -15.4355   19.1744 C   0  0  1  0  0  0  0  0  0  0  0  0
    8.2939  -13.9601   19.4825 C   0  0  0  0  0  0  0  0  0  0  0  0
    8.0290  -13.0515   17.9308 S   0  0  0  0  0  0  0  0  0  0  0  0
    8.7778  -16.2239   20.3631 C   0  0  0  0  0  0  0  0  0  0  0  0
    7.9014  -16.5304   21.1869 O   0  0  0  0  0  0  0  0  0  0  0  0
   10.1274  -16.5835   20.5056 N   0  0  0  0  0  0  0  0  0  0  0  0
   10.6513  -17.1672   21.7140 C   0  0  1  0  0  0  0  0  0  0  0  0
   11.9576  -17.8523   21.5196 C   0  0  0  0  0  0  0  0  0  0  0  0
   11.9650  -18.8176   20.3622 C   0  0  0  0  0  0  0  0  0  0  0  0
   13.3085  -18.7258   19.7204 C   0  0  0  0  0  0  0  0  0  0  0  0
   13.4721  -18.8012   18.4797 O   0  0  0  0  0  0  0  0  0  0  0  0
   10.5479  -16.3252   22.9195 C   0  0  0  0  0  0  0  0  0  0  0  0
   11.1078  -15.2281   23.1250 O   0  0  0  0  0  0  0  0  0  0  0  0
   14.4503  -18.5483   20.5089 O   0  0  0  0  0  0  0  0  0  0  0  0
    5.9471  -11.2914   28.1063 O   0  0  0  0  0  0  0  0  0  0  0  0
    6.5838  -12.1719   27.2331 C   0  0  0  0  0  0  0  0  0  0  0  0
    5.9352  -12.5976   26.0836 C   0  0  0  0  0  0  0  0  0  0  0  0
    6.5317  -13.4618   25.2045 C   0  0  0  0  0  0  0  0  0  0  0  0
    7.8177  -13.9444   25.4382 C   0  0  0  0  0  0  0  0  0  0  0  0
    8.4040  -14.8725   24.4754 C   0  0  0  0  0  0  0  0  0  0  0  0
    9.3327  -15.9049   25.0710 C   0  0  2  0  0  0  0  0  0  0  0  0
    9.7156  -16.8002   23.9879 N   0  0  0  0  0  0  0  0  0  0  0  0
    8.5993  -16.6778   26.0899 C   0  0  0  0  0  0  0  0  0  0  0  0
    8.4079  -16.1726   27.2147 O   0  0  0  0  0  0  0  0  0  0  0  0
    8.4576  -13.5257   26.5709 C   0  0  0  0  0  0  0  0  0  0  0  0
    7.8547  -12.6561   27.4531 C   0  0  0  0  0  0  0  0  0  0  0  0
    8.1026  -17.9560   25.8623 O   0  0  0  0  0  0  0  0  0  0  0  0
  2  5  1  0
  2  1  1  1
  3  2  1  0
  3  4  1  0
  5  6  2  0
  7  5  1  0
  7  8  1  0
  8 13  1  0
  8  9  1  6
 10  9  1  0
 10 11  1  0
 11 15  1  0
 11 12  2  0
 13 14  2  0
 16 17  1  0
 17 27  2  0
 18 17  1  0
 18 19  2  0
 19 20  1  0
 20 26  2  0
 20 21  1  0
 22 21  1  6
 22 23  1  0
 22 24  1  0
 23 13  1  0
 24 25  2  0
 24 28  1  0
 27 26  1  0
M  END
$$$$
