CEY.pdb
     RDKit          3D

 28 28  0  0  1  0  0  0  0  0999 V2000
    7.2642  -14.8351   17.5540 N   0  0  0  0  0  0  0  0  0  0  0  0
    8.2227  -14.4569   18.5552 C   0  0  1  0  0  0  0  0  0  0  0  0
    7.9927  -13.0442   19.0302 C   0  0  0  0  0  0  0  0  0  0  0  0
    9.2450  -12.6423   20.2848 S   0  0  0  0  0  0  0  0  0  0  0  0
    8.2818  -15.4113   19.6992 C   0  0  0  0  0  0  0  0  0  0  0  0
    7.4670  -16.3476   19.6950 O   0  0  0  0  0  0  0  0  0  0  0  0
    9.2326  -15.2232   20.7149 N   0  0  0  0  0  0  0  0  0  0  0  0
    9.8536  -16.3221   21.4093 C   0  0  1  0  0  0  0  0  0  0  0  0
   10.4576  -17.3303   20.4969 C   0  0  0  0  0  0  0  0  0  0  0  0
   10.9999  -18.5411   21.2118 C   0  0  0  0  0  0  0  0  0  0  0  0
   11.5516  -19.4568   20.1714 C   0  0  0  0  0  0  0  0  0  0  0  0
   10.8305  -20.0186   19.3135 O   0  0  0  0  0  0  0  0  0  0  0  0
   10.6721  -15.9503   22.5775 C   0  0  0  0  0  0  0  0  0  0  0  0
   11.6952  -15.2343   22.5861 O   0  0  0  0  0  0  0  0  0  0  0  0
   12.9251  -19.7181   20.1262 O   0  0  0  0  0  0  0  0  0  0  0  0
    5.4489  -11.6442   27.7439 O   0  0  0  0  0  0  0  0  0  0  0  0
    6.2267  -12.4356   26.9002 C   0  0  0  0  0  0  0  0  0  0  0  0
    5.6228  -13.3857   26.0902 C   0  0  0  0  0  0  0  0  0  0  0  0
    6.3570  -14.1795   25.2498 C   0  0  0  0  0  0  0  0  0  0  0  0
    7.7432  -14.0575   25.1810 C   0  0  0  0  0  0  0  0  0  0  0  0
    8.4803  -14.9357   24.2768 C   0  0  0  0  0  0  0  0  0  0  0  0
    9.7282  -15.5520   24.8650 C   0  0  2  0  0  0  0  0  0  0  0  0
   10.2652  -16.4563   23.8574 N   0  0  0  0  0  0  0  0  0  0  0  0
    9.3588  -16.3352   26.0582 C   0  0  0  0  0  0  0  0  0  0  0  0
    9.3757  -15.7828   27.1770 O   0  0  0  0  0  0  0  0  0  0  0  0
    8.3392  -13.1218   25.9790 C   0  0  0  0  0  0  0  0  0  0  0  0
    7.5977  -12.3247   26.8232 C   0  0  0  0  0  0  0  0  0  0  0  0
    8.9877  -17.6738   26.0036 O   0  0  0  0  0  0  0  0  0  0  0  0
  2  5  1  0
  2  1  1  6
  3  2  1  0
  3  4  1  0
  5  6  2  0
  7  5  1  0
  7  8  1  0
  8 13  1  0
  8  9  1  6
 10  9  1  0
 10 11  1  0
 11 15  1  0
 11 12  2  0
 13 14  2  0
 16 17  1  0
 17 27  2  0
 18 17  1  0
 18 19  2  0
 19 20  1  0
 20 26  2  0
 20 21  1  0
 22 21  1  6
 22 23  1  0
 22 24  1  0
 23 13  1  0
 24 25  2  0
 24 28  1  0
 27 26  1  0
M  END
$$$$
