CEY.pdb
     RDKit          3D

 28 28  0  0  1  0  0  0  0  0999 V2000
    7.8546  -14.9308   16.7542 N   0  0  0  0  0  0  0  0  0  0  0  0
    9.0209  -14.8029   17.5834 C   0  0  1  0  0  0  0  0  0  0  0  0
    9.3133  -13.3580   17.9011 C   0  0  0  0  0  0  0  0  0  0  0  0
    8.0519  -12.7518   19.0608 S   0  0  0  0  0  0  0  0  0  0  0  0
    8.9510  -15.6279   18.8234 C   0  0  0  0  0  0  0  0  0  0  0  0
    7.8200  -15.9011   19.2557 O   0  0  0  0  0  0  0  0  0  0  0  0
   10.1358  -16.0565   19.4426 N   0  0  0  0  0  0  0  0  0  0  0  0
   10.1417  -16.7883   20.6835 C   0  0  1  0  0  0  0  0  0  0  0  0
   11.0401  -17.9742   20.6643 C   0  0  0  0  0  0  0  0  0  0  0  0
   12.5017  -17.6208   20.5633 C   0  0  0  0  0  0  0  0  0  0  0  0
   13.2616  -18.9030   20.5004 C   0  0  0  0  0  0  0  0  0  0  0  0
   13.8988  -19.3604   21.4784 O   0  0  0  0  0  0  0  0  0  0  0  0
   10.2032  -15.9635   21.9037 C   0  0  0  0  0  0  0  0  0  0  0  0
   10.9482  -14.9843   22.1170 O   0  0  0  0  0  0  0  0  0  0  0  0
   13.2825  -19.6469   19.3160 O   0  0  0  0  0  0  0  0  0  0  0  0
    5.8637  -11.4969   28.1002 O   0  0  0  0  0  0  0  0  0  0  0  0
    6.3384  -12.2889   27.0559 C   0  0  0  0  0  0  0  0  0  0  0  0
    5.7785  -13.5361   26.8227 C   0  0  0  0  0  0  0  0  0  0  0  0
    6.2208  -14.3394   25.8055 C   0  0  0  0  0  0  0  0  0  0  0  0
    7.2541  -13.9269   24.9669 C   0  0  0  0  0  0  0  0  0  0  0  0
    7.6959  -14.8259   23.9043 C   0  0  0  0  0  0  0  0  0  0  0  0
    9.0952  -15.3705   24.0724 C   0  0  2  0  0  0  0  0  0  0  0  0
    9.3159  -16.3064   22.9784 N   0  0  0  0  0  0  0  0  0  0  0  0
    9.1734  -16.1042   25.3488 C   0  0  0  0  0  0  0  0  0  0  0  0
    9.4943  -15.4880   26.3853 O   0  0  0  0  0  0  0  0  0  0  0  0
    7.8067  -12.6982   25.1961 C   0  0  0  0  0  0  0  0  0  0  0  0
    7.3593  -11.8925   26.2201 C   0  0  0  0  0  0  0  0  0  0  0  0
    8.9054  -17.4636   25.4616 O   0  0  0  0  0  0  0  0  0  0  0  0
  2  5  1  0
  2  1  1  1
  3  2  1  0
  3  4  1  0
  5  6  2  0
  7  5  1  0
  7  8  1  0
  8 13  1  0
  8  9  1  6
 10  9  1  0
 10 11  1  0
 11 15  1  0
 11 12  2  0
 13 14  2  0
 16 17  1  0
 17 27  2  0
 18 17  1  0
 18 19  2  0
 19 20  1  0
 20 26  2  0
 20 21  1  0
 22 21  1  6
 22 23  1  0
 22 24  1  0
 23 13  1  0
 24 25  2  0
 24 28  1  0
 27 26  1  0
M  END
$$$$
