CEY.pdb
     RDKit          3D

 28 28  0  0  1  0  0  0  0  0999 V2000
    6.8005  -16.1117   20.3431 N   0  0  0  0  0  0  0  0  0  0  0  0
    8.0314  -15.5000   20.7614 C   0  0  1  0  0  0  0  0  0  0  0  0
    7.8130  -14.0768   21.2098 C   0  0  0  0  0  0  0  0  0  0  0  0
    6.8659  -14.0956   22.7610 S   0  0  0  0  0  0  0  0  0  0  0  0
    8.7553  -16.2905   21.7978 C   0  0  0  0  0  0  0  0  0  0  0  0
    8.0682  -17.0096   22.5404 O   0  0  0  0  0  0  0  0  0  0  0  0
   10.1527  -16.1971   21.8951 N   0  0  0  0  0  0  0  0  0  0  0  0
   10.9096  -16.9033   22.8971 C   0  0  1  0  0  0  0  0  0  0  0  0
   12.2859  -17.2568   22.4559 C   0  0  0  0  0  0  0  0  0  0  0  0
   12.3205  -18.0902   21.2007 C   0  0  0  0  0  0  0  0  0  0  0  0
   13.7057  -18.0052   20.6535 C   0  0  0  0  0  0  0  0  0  0  0  0
   13.9442  -17.7051   19.4598 O   0  0  0  0  0  0  0  0  0  0  0  0
   10.7980  -16.3696   24.2665 C   0  0  0  0  0  0  0  0  0  0  0  0
   11.3722  -15.3644   24.7348 O   0  0  0  0  0  0  0  0  0  0  0  0
   14.8027  -18.2654   21.4816 O   0  0  0  0  0  0  0  0  0  0  0  0
    5.8112  -11.5502   25.4995 O   0  0  0  0  0  0  0  0  0  0  0  0
    6.4461  -12.7458   25.8319 C   0  0  0  0  0  0  0  0  0  0  0  0
    5.9204  -13.9534   25.3972 C   0  0  0  0  0  0  0  0  0  0  0  0
    6.5188  -15.1460   25.7056 C   0  0  0  0  0  0  0  0  0  0  0  0
    7.6825  -15.1848   26.4709 C   0  0  0  0  0  0  0  0  0  0  0  0
    8.2746  -16.4831   26.7810 C   0  0  0  0  0  0  0  0  0  0  0  0
    9.7633  -16.5774   26.5400 C   0  0  2  0  0  0  0  0  0  0  0  0
    9.9385  -17.0675   25.1797 N   0  0  0  0  0  0  0  0  0  0  0  0
   10.3388  -17.5594   27.4770 C   0  0  0  0  0  0  0  0  0  0  0  0
   10.3675  -17.2923   28.6956 O   0  0  0  0  0  0  0  0  0  0  0  0
    8.2011  -13.9955   26.9000 C   0  0  0  0  0  0  0  0  0  0  0  0
    7.5966  -12.7975   26.5878 C   0  0  0  0  0  0  0  0  0  0  0  0
   10.8583  -18.7833   27.0710 O   0  0  0  0  0  0  0  0  0  0  0  0
  2  5  1  0
  2  1  1  1
  3  2  1  0
  3  4  1  0
  5  6  2  0
  7  5  1  0
  7  8  1  0
  8 13  1  0
  8  9  1  6
 10  9  1  0
 10 11  1  0
 11 15  1  0
 11 12  2  0
 13 14  2  0
 16 17  1  0
 17 27  2  0
 18 17  1  0
 18 19  2  0
 19 20  1  0
 20 26  2  0
 20 21  1  0
 22 21  1  1
 22 23  1  0
 22 24  1  0
 23 13  1  0
 24 25  2  0
 24 28  1  0
 27 26  1  0
M  END
$$$$
