CEY.pdb
     RDKit          3D

 28 28  0  0  1  0  0  0  0  0999 V2000
    7.7899  -13.3669   17.2077 N   0  0  0  0  0  0  0  0  0  0  0  0
    8.7801  -14.3851   17.4246 C   0  0  1  0  0  0  0  0  0  0  0  0
   10.1757  -13.8184   17.3523 C   0  0  0  0  0  0  0  0  0  0  0  0
   10.4608  -12.7878   18.8221 S   0  0  0  0  0  0  0  0  0  0  0  0
    8.5688  -15.1474   18.6884 C   0  0  0  0  0  0  0  0  0  0  0  0
    7.4412  -15.0836   19.2035 O   0  0  0  0  0  0  0  0  0  0  0  0
    9.6245  -15.8923   19.2375 N   0  0  0  0  0  0  0  0  0  0  0  0
    9.4434  -16.7938   20.3465 C   0  0  1  0  0  0  0  0  0  0  0  0
   10.0351  -18.1392   20.1153 C   0  0  0  0  0  0  0  0  0  0  0  0
    9.9272  -19.0572   21.3057 C   0  0  0  0  0  0  0  0  0  0  0  0
   10.5113  -20.3698   20.9042 C   0  0  0  0  0  0  0  0  0  0  0  0
   11.4848  -20.8878   21.5007 O   0  0  0  0  0  0  0  0  0  0  0  0
    9.6853  -16.2130   21.6795 C   0  0  0  0  0  0  0  0  0  0  0  0
   10.7898  -16.0081   22.2252 O   0  0  0  0  0  0  0  0  0  0  0  0
    9.9723  -21.0743   19.8226 O   0  0  0  0  0  0  0  0  0  0  0  0
    6.9459  -11.5428   28.8320 O   0  0  0  0  0  0  0  0  0  0  0  0
    7.0806  -12.2661   27.6480 C   0  0  0  0  0  0  0  0  0  0  0  0
    6.4108  -11.8552   26.5052 C   0  0  0  0  0  0  0  0  0  0  0  0
    6.5212  -12.5424   25.3258 C   0  0  0  0  0  0  0  0  0  0  0  0
    7.3150  -13.6839   25.2354 C   0  0  0  0  0  0  0  0  0  0  0  0
    7.3898  -14.3864   23.9575 C   0  0  0  0  0  0  0  0  0  0  0  0
    8.7043  -15.0816   23.6895 C   0  0  2  0  0  0  0  0  0  0  0  0
    8.5377  -15.8332   22.4531 N   0  0  0  0  0  0  0  0  0  0  0  0
    8.9787  -16.0268   24.7871 C   0  0  0  0  0  0  0  0  0  0  0  0
    8.4199  -17.1426   24.7822 O   0  0  0  0  0  0  0  0  0  0  0  0
    7.9751  -14.0898   26.3610 C   0  0  0  0  0  0  0  0  0  0  0  0
    7.8621  -13.3961   27.5459 C   0  0  0  0  0  0  0  0  0  0  0  0
    9.8377  -15.7386   25.8414 O   0  0  0  0  0  0  0  0  0  0  0  0
  2  5  1  0
  2  1  1  1
  3  2  1  0
  3  4  1  0
  5  6  2  0
  7  5  1  0
  7  8  1  0
  8 13  1  0
  8  9  1  6
 10  9  1  0
 10 11  1  0
 11 15  1  0
 11 12  2  0
 13 14  2  0
 16 17  1  0
 17 27  2  0
 18 17  1  0
 18 19  2  0
 19 20  1  0
 20 26  2  0
 20 21  1  0
 22 21  1  1
 22 23  1  0
 22 24  1  0
 23 13  1  0
 24 25  2  0
 24 28  1  0
 27 26  1  0
M  END
$$$$
