CEY.pdb
     RDKit          3D

 28 28  0  0  1  0  0  0  0  0999 V2000
    6.6647  -16.4878   19.1919 N   0  0  0  0  0  0  0  0  0  0  0  0
    8.0537  -16.1247   19.2455 C   0  0  1  0  0  0  0  0  0  0  0  0
    8.2441  -14.6461   19.0181 C   0  0  0  0  0  0  0  0  0  0  0  0
    7.5268  -13.7452   20.4244 S   0  0  0  0  0  0  0  0  0  0  0  0
    8.7280  -16.5724   20.4977 C   0  0  0  0  0  0  0  0  0  0  0  0
    8.0057  -16.7670   21.4883 O   0  0  0  0  0  0  0  0  0  0  0  0
   10.1200  -16.7542   20.5126 N   0  0  0  0  0  0  0  0  0  0  0  0
   10.8350  -17.1737   21.6908 C   0  0  1  0  0  0  0  0  0  0  0  0
   12.1772  -17.7432   21.3944 C   0  0  0  0  0  0  0  0  0  0  0  0
   12.8210  -18.4160   22.5793 C   0  0  0  0  0  0  0  0  0  0  0  0
   14.1631  -18.8953   22.1383 C   0  0  0  0  0  0  0  0  0  0  0  0
   15.1880  -18.7880   22.8524 O   0  0  0  0  0  0  0  0  0  0  0  0
   10.7774  -16.2412   22.8310 C   0  0  0  0  0  0  0  0  0  0  0  0
   11.1596  -15.0526   22.8549 O   0  0  0  0  0  0  0  0  0  0  0  0
   14.3151  -19.4928   20.8826 O   0  0  0  0  0  0  0  0  0  0  0  0
    5.9233  -11.3368   27.7690 O   0  0  0  0  0  0  0  0  0  0  0  0
    6.6126  -12.2242   26.9442 C   0  0  0  0  0  0  0  0  0  0  0  0
    5.9591  -13.3261   26.4130 C   0  0  0  0  0  0  0  0  0  0  0  0
    6.6062  -14.2174   25.5991 C   0  0  0  0  0  0  0  0  0  0  0  0
    7.9506  -14.0447   25.2765 C   0  0  0  0  0  0  0  0  0  0  0  0
    8.5967  -15.0298   24.4137 C   0  0  0  0  0  0  0  0  0  0  0  0
    9.7218  -15.8027   25.0616 C   0  0  2  0  0  0  0  0  0  0  0  0
   10.2234  -16.7336   24.0600 N   0  0  0  0  0  0  0  0  0  0  0  0
    9.1822  -16.5720   26.1976 C   0  0  0  0  0  0  0  0  0  0  0  0
    8.6643  -17.6872   25.9851 O   0  0  0  0  0  0  0  0  0  0  0  0
    8.5955  -12.9594   25.7997 C   0  0  0  0  0  0  0  0  0  0  0  0
    7.9415  -12.0646   26.6180 C   0  0  0  0  0  0  0  0  0  0  0  0
    9.2197  -16.1162   27.5104 O   0  0  0  0  0  0  0  0  0  0  0  0
  2  5  1  0
  2  1  1  1
  3  2  1  0
  3  4  1  0
  5  6  2  0
  7  5  1  0
  7  8  1  0
  8 13  1  0
  8  9  1  6
 10  9  1  0
 10 11  1  0
 11 15  1  0
 11 12  2  0
 13 14  2  0
 16 17  1  0
 17 27  2  0
 18 17  1  0
 18 19  2  0
 19 20  1  0
 20 26  2  0
 20 21  1  0
 22 21  1  6
 22 23  1  0
 22 24  1  0
 23 13  1  0
 24 25  2  0
 24 28  1  0
 27 26  1  0
M  END
$$$$
