CEY.pdb
     RDKit          3D

 28 28  0  0  1  0  0  0  0  0999 V2000
    7.7892  -14.5256   18.3684 N   0  0  0  0  0  0  0  0  0  0  0  0
    8.7019  -14.5418   19.4779 C   0  0  1  0  0  0  0  0  0  0  0  0
    8.6668  -13.2394   20.2372 C   0  0  0  0  0  0  0  0  0  0  0  0
    8.8815  -11.8735   19.0574 S   0  0  0  0  0  0  0  0  0  0  0  0
    8.4976  -15.7057   20.3870 C   0  0  0  0  0  0  0  0  0  0  0  0
    7.6397  -16.5382   20.0530 O   0  0  0  0  0  0  0  0  0  0  0  0
    9.2632  -15.8174   21.5585 N   0  0  0  0  0  0  0  0  0  0  0  0
    9.4646  -17.0722   22.2370 C   0  0  1  0  0  0  0  0  0  0  0  0
    9.7980  -18.1930   21.3171 C   0  0  0  0  0  0  0  0  0  0  0  0
   10.9916  -17.9170   20.4393 C   0  0  0  0  0  0  0  0  0  0  0  0
   11.2119  -19.1308   19.6006 C   0  0  0  0  0  0  0  0  0  0  0  0
   10.7816  -19.2295   18.4273 O   0  0  0  0  0  0  0  0  0  0  0  0
   10.2676  -17.0020   23.4711 C   0  0  0  0  0  0  0  0  0  0  0  0
   10.6625  -17.9579   24.1710 O   0  0  0  0  0  0  0  0  0  0  0  0
   11.9237  -20.2187   20.1171 O   0  0  0  0  0  0  0  0  0  0  0  0
    5.2827  -11.3235   27.5674 O   0  0  0  0  0  0  0  0  0  0  0  0
    6.0788  -12.1408   26.7666 C   0  0  0  0  0  0  0  0  0  0  0  0
    7.2529  -11.6439   26.2208 C   0  0  0  0  0  0  0  0  0  0  0  0
    8.0581  -12.4196   25.4301 C   0  0  0  0  0  0  0  0  0  0  0  0
    7.7215  -13.7416   25.1465 C   0  0  0  0  0  0  0  0  0  0  0  0
    8.6087  -14.5225   24.2889 C   0  0  0  0  0  0  0  0  0  0  0  0
    9.8620  -15.0295   24.9635 C   0  0  2  0  0  0  0  0  0  0  0  0
   10.6495  -15.6996   23.9377 N   0  0  0  0  0  0  0  0  0  0  0  0
    9.4862  -16.0149   25.9937 C   0  0  0  0  0  0  0  0  0  0  0  0
    9.3913  -15.6457   27.1819 O   0  0  0  0  0  0  0  0  0  0  0  0
    6.5646  -14.2321   25.6836 C   0  0  0  0  0  0  0  0  0  0  0  0
    5.7569  -13.4490   26.4788 C   0  0  0  0  0  0  0  0  0  0  0  0
    9.2283  -17.3509   25.7093 O   0  0  0  0  0  0  0  0  0  0  0  0
  2  5  1  0
  2  1  1  6
  3  2  1  0
  3  4  1  0
  5  6  2  0
  7  5  1  0
  7  8  1  0
  8 13  1  0
  8  9  1  6
 10  9  1  0
 10 11  1  0
 11 15  1  0
 11 12  2  0
 13 14  2  0
 16 17  1  0
 17 27  2  0
 18 17  1  0
 18 19  2  0
 19 20  1  0
 20 26  2  0
 20 21  1  0
 22 21  1  6
 22 23  1  0
 22 24  1  0
 23 13  1  0
 24 25  2  0
 24 28  1  0
 27 26  1  0
M  END
$$$$
