HIE.pdb
     RDKit          3D

 28 28  0  0  1  0  0  0  0  0999 V2000
   24.3098  -34.0493  -14.0187 N   0  0  0  0  0  0  0  0  0  0  0  0
   23.4165  -34.3000  -12.9391 C   0  0  1  0  0  0  0  0  0  0  0  0
   23.1169  -35.7471  -12.8100 C   0  0  0  0  0  0  0  0  0  0  0  0
   22.2426  -36.1341  -13.9467 C   0  0  0  0  0  0  0  0  0  0  0  0
   20.9228  -35.8131  -14.1891 C   0  0  0  0  0  0  0  0  0  0  0  0
   20.5393  -36.3921  -15.3525 N   0  0  0  0  0  0  0  0  0  0  0  0
   21.5973  -37.0594  -15.8242 C   0  0  0  0  0  0  0  0  0  0  0  0
   22.6197  -36.9063  -14.9833 N   0  0  0  0  0  0  0  0  0  0  0  0
   24.0162  -33.7095  -11.6737 C   0  0  0  0  0  0  0  0  0  0  0  0
   25.2526  -33.7651  -11.5292 O   0  0  0  0  0  0  0  0  0  0  0  0
   22.3883  -28.8495  -10.3193 C   0  0  0  0  0  0  0  0  0  0  0  0
   23.0858  -30.1547  -10.4629 C   0  0  0  0  0  0  0  0  0  0  0  0
   22.9630  -31.1045   -9.3256 C   0  0  2  0  0  0  0  0  0  0  0  0
   23.5629  -30.5334   -8.0377 C   0  0  0  0  0  0  0  0  0  0  0  0
   23.5720  -32.4464   -9.5062 C   0  0  2  0  0  0  0  0  0  0  0  0
   23.2159  -33.1190  -10.6964 N   0  0  0  0  0  0  0  0  0  0  0  0
   23.7320  -33.2583   -8.2878 C   0  0  0  0  0  0  0  0  0  0  0  0
   22.7765  -33.9536   -7.8802 O   0  0  0  0  0  0  0  0  0  0  0  0
   24.9050  -33.3120   -7.5321 N   0  0  0  0  0  0  0  0  0  0  0  0
   25.0211  -34.0862   -6.2722 C   0  0  1  0  0  0  0  0  0  0  0  0
   26.4346  -33.9275   -5.8153 C   0  0  0  0  0  0  0  0  0  0  0  0
   26.6882  -34.6583   -4.5335 C   0  0  0  0  0  0  0  0  0  0  0  0
   28.0484  -34.5109   -3.9870 C   0  0  0  0  0  0  0  0  0  0  0  0
   28.4389  -35.0930   -2.9509 O   0  0  0  0  0  0  0  0  0  0  0  0
   24.0050  -33.6355   -5.3090 C   0  0  0  0  0  0  0  0  0  0  0  0
   23.3206  -34.4921   -4.6995 O   0  0  0  0  0  0  0  0  0  0  0  0
   28.9927  -33.6818   -4.6307 O   0  0  0  0  0  0  0  0  0  0  0  0
   23.7662  -32.3063   -5.0388 O   0  0  0  0  0  0  0  0  0  0  0  0
  2  1  1  6
  3  2  1  0
  4  5  2  0
  4  3  1  0
  6  5  1  0
  7  8  2  0
  7  6  1  0
  8  4  1  0
  9  2  1  0
 10  9  2  0
 12 11  1  0
 13 15  1  0
 13 12  1  0
 13 14  1  1
 15 16  1  6
 16  9  1  0
 17 15  1  0
 18 17  2  0
 19 17  1  0
 20 25  1  0
 20 19  1  0
 20 21  1  1
 22 21  1  0
 23 27  1  0
 23 22  1  0
 24 23  2  0
 25 28  1  0
 26 25  2  0
M  END
$$$$
