HIE.pdb
     RDKit          3D

 28 28  0  0  1  0  0  0  0  0999 V2000
   15.1968  -13.8284  -16.8160 N   0  0  0  0  0  0  0  0  0  0  0  0
   16.4025  -13.0961  -16.6255 C   0  0  1  0  0  0  0  0  0  0  0  0
   17.1149  -12.8840  -17.9092 C   0  0  0  0  0  0  0  0  0  0  0  0
   17.5601  -14.2106  -18.4073 C   0  0  0  0  0  0  0  0  0  0  0  0
   18.4279  -15.1180  -17.8354 C   0  0  0  0  0  0  0  0  0  0  0  0
   18.5352  -16.1938  -18.6520 N   0  0  0  0  0  0  0  0  0  0  0  0
   17.7512  -15.9614  -19.7096 C   0  0  0  0  0  0  0  0  0  0  0  0
   17.1655  -14.7730  -19.5653 N   0  0  0  0  0  0  0  0  0  0  0  0
   16.0655  -11.7935  -15.9189 C   0  0  0  0  0  0  0  0  0  0  0  0
   15.0720  -11.1526  -16.3122 O   0  0  0  0  0  0  0  0  0  0  0  0
   15.7820  -11.6709  -10.6161 C   0  0  0  0  0  0  0  0  0  0  0  0
   15.7317  -11.3969  -12.0766 C   0  0  0  0  0  0  0  0  0  0  0  0
   16.6906  -10.3875  -12.5985 C   0  0  2  0  0  0  0  0  0  0  0  0
   16.4810   -9.0144  -11.9540 C   0  0  0  0  0  0  0  0  0  0  0  0
   16.6899  -10.1604  -14.0657 C   0  0  2  0  0  0  0  0  0  0  0  0
   16.8381  -11.3200  -14.8590 N   0  0  0  0  0  0  0  0  0  0  0  0
   17.3451   -8.9274  -14.5341 C   0  0  0  0  0  0  0  0  0  0  0  0
   18.5931   -8.8565  -14.5409 O   0  0  0  0  0  0  0  0  0  0  0  0
   16.6572   -7.7990  -14.9851 N   0  0  0  0  0  0  0  0  0  0  0  0
   17.3327   -6.5252  -15.3335 C   0  0  1  0  0  0  0  0  0  0  0  0
   16.3221   -5.7059  -16.0682 C   0  0  0  0  0  0  0  0  0  0  0  0
   16.8566   -4.3530  -16.4219 C   0  0  0  0  0  0  0  0  0  0  0  0
   15.8950   -3.4525  -17.0816 C   0  0  0  0  0  0  0  0  0  0  0  0
   14.7114   -3.7736  -17.3280 O   0  0  0  0  0  0  0  0  0  0  0  0
   17.8764   -5.8955  -14.1206 C   0  0  0  0  0  0  0  0  0  0  0  0
   17.2118   -5.9453  -13.0578 O   0  0  0  0  0  0  0  0  0  0  0  0
   16.2837   -2.1530  -17.4733 O   0  0  0  0  0  0  0  0  0  0  0  0
   19.0918   -5.2485  -14.0927 O   0  0  0  0  0  0  0  0  0  0  0  0
  2  1  1  6
  3  2  1  0
  4  5  2  0
  4  3  1  0
  6  5  1  0
  7  8  2  0
  7  6  1  0
  8  4  1  0
  9  2  1  0
 10  9  2  0
 12 11  1  0
 13 15  1  0
 13 12  1  0
 13 14  1  1
 15 16  1  6
 16  9  1  0
 17 15  1  0
 18 17  2  0
 19 17  1  0
 20 25  1  0
 20 19  1  0
 20 21  1  1
 22 21  1  0
 23 27  1  0
 23 22  1  0
 24 23  2  0
 25 28  1  0
 26 25  2  0
M  END
$$$$
