HIE.pdb
     RDKit          3D

 28 28  0  0  1  0  0  0  0  0999 V2000
   13.5825  -20.0959    1.1832 N   0  0  0  0  0  0  0  0  0  0  0  0
   14.0471  -18.9851    1.9426 C   0  0  1  0  0  0  0  0  0  0  0  0
   13.1013  -18.6417    3.0324 C   0  0  0  0  0  0  0  0  0  0  0  0
   11.8315  -18.1903    2.4078 C   0  0  0  0  0  0  0  0  0  0  0  0
   10.6237  -18.8482    2.2982 C   0  0  0  0  0  0  0  0  0  0  0  0
    9.7470  -18.0458    1.6475 N   0  0  0  0  0  0  0  0  0  0  0  0
   10.3949  -16.9128    1.3582 C   0  0  0  0  0  0  0  0  0  0  0  0
   11.6447  -16.9969    1.8129 N   0  0  0  0  0  0  0  0  0  0  0  0
   15.4419  -19.3043    2.4546 C   0  0  0  0  0  0  0  0  0  0  0  0
   15.6706  -20.4634    2.8504 O   0  0  0  0  0  0  0  0  0  0  0  0
   21.1985  -17.0277    1.8145 C   0  0  0  0  0  0  0  0  0  0  0  0
   20.1994  -17.8411    2.5567 C   0  0  0  0  0  0  0  0  0  0  0  0
   18.7696  -17.6092    2.2210 C   0  0  2  0  0  0  0  0  0  0  0  0
   18.3718  -16.1414    2.4008 C   0  0  0  0  0  0  0  0  0  0  0  0
   17.7681  -18.4047    2.9749 C   0  0  2  0  0  0  0  0  0  0  0  0
   16.4451  -18.3362    2.4842 N   0  0  0  0  0  0  0  0  0  0  0  0
   17.9497  -18.4647    4.4352 C   0  0  0  0  0  0  0  0  0  0  0  0
   17.3571  -17.6405    5.1648 O   0  0  0  0  0  0  0  0  0  0  0  0
   18.7569  -19.4006    5.0852 N   0  0  0  0  0  0  0  0  0  0  0  0
   18.9204  -19.4434    6.5589 C   0  0  1  0  0  0  0  0  0  0  0  0
   19.0450  -20.8874    6.9217 C   0  0  0  0  0  0  0  0  0  0  0  0
   19.2459  -21.0737    8.3935 C   0  0  0  0  0  0  0  0  0  0  0  0
   19.5334  -22.4554    8.8165 C   0  0  0  0  0  0  0  0  0  0  0  0
   19.6919  -23.4006    8.0126 O   0  0  0  0  0  0  0  0  0  0  0  0
   20.0576  -18.6032    6.9638 C   0  0  0  0  0  0  0  0  0  0  0  0
   21.0399  -18.4936    6.1914 O   0  0  0  0  0  0  0  0  0  0  0  0
   19.6445  -22.7762   10.1869 O   0  0  0  0  0  0  0  0  0  0  0  0
   20.0976  -17.9224    8.1604 O   0  0  0  0  0  0  0  0  0  0  0  0
  2  1  1  1
  3  2  1  0
  4  5  2  0
  4  3  1  0
  6  5  1  0
  7  8  2  0
  7  6  1  0
  8  4  1  0
  9  2  1  0
 10  9  2  0
 12 11  1  0
 13 15  1  0
 13 12  1  0
 13 14  1  1
 15 16  1  1
 16  9  1  0
 17 15  1  0
 18 17  2  0
 19 17  1  0
 20 25  1  0
 20 19  1  0
 20 21  1  6
 22 21  1  0
 23 27  1  0
 23 22  1  0
 24 23  2  0
 25 28  1  0
 26 25  2  0
M  END
$$$$
