HIE.pdb
     RDKit          3D

 28 28  0  0  1  0  0  0  0  0999 V2000
   28.1932  -21.1369  -16.1254 N   0  0  0  0  0  0  0  0  0  0  0  0
   27.5623  -20.2270  -15.2308 C   0  0  1  0  0  0  0  0  0  0  0  0
   27.0060  -19.0568  -15.9530 C   0  0  0  0  0  0  0  0  0  0  0  0
   28.1315  -18.3610  -16.6278 C   0  0  0  0  0  0  0  0  0  0  0  0
   28.4529  -18.3053  -17.9684 C   0  0  0  0  0  0  0  0  0  0  0  0
   29.5688  -17.5516  -18.1187 N   0  0  0  0  0  0  0  0  0  0  0  0
   29.9344  -17.1469  -16.8982 C   0  0  0  0  0  0  0  0  0  0  0  0
   29.0743  -17.6308  -16.0026 N   0  0  0  0  0  0  0  0  0  0  0  0
   26.5083  -20.9847  -14.4407 C   0  0  0  0  0  0  0  0  0  0  0  0
   25.8040  -21.8144  -15.0476 O   0  0  0  0  0  0  0  0  0  0  0  0
   25.2431  -20.3491   -8.4615 C   0  0  0  0  0  0  0  0  0  0  0  0
   25.3735  -20.0791   -9.9178 C   0  0  0  0  0  0  0  0  0  0  0  0
   25.5654  -21.2605  -10.7999 C   0  0  2  0  0  0  0  0  0  0  0  0
   27.0056  -21.7789  -10.7543 C   0  0  0  0  0  0  0  0  0  0  0  0
   25.2347  -21.0833  -12.2363 C   0  0  2  0  0  0  0  0  0  0  0  0
   26.3262  -20.7668  -13.0755 N   0  0  0  0  0  0  0  0  0  0  0  0
   23.9411  -20.4447  -12.5329 C   0  0  0  0  0  0  0  0  0  0  0  0
   23.8992  -19.2183  -12.7715 O   0  0  0  0  0  0  0  0  0  0  0  0
   22.7226  -21.1258  -12.5693 N   0  0  0  0  0  0  0  0  0  0  0  0
   21.4381  -20.4682  -12.9123 C   0  0  1  0  0  0  0  0  0  0  0  0
   21.0457  -20.9963  -14.2537 C   0  0  0  0  0  0  0  0  0  0  0  0
   19.7479  -20.4141  -14.7206 C   0  0  0  0  0  0  0  0  0  0  0  0
   19.2621  -20.9241  -16.0147 C   0  0  0  0  0  0  0  0  0  0  0  0
   19.9486  -21.6490  -16.7684 O   0  0  0  0  0  0  0  0  0  0  0  0
   20.4535  -20.6988  -11.8442 C   0  0  0  0  0  0  0  0  0  0  0  0
   20.6204  -21.6630  -11.0593 O   0  0  0  0  0  0  0  0  0  0  0  0
   17.9638  -20.6050  -16.4682 O   0  0  0  0  0  0  0  0  0  0  0  0
   19.3469  -19.8999  -11.6600 O   0  0  0  0  0  0  0  0  0  0  0  0
  2  1  1  6
  3  2  1  0
  4  5  2  0
  4  3  1  0
  6  5  1  0
  7  8  2  0
  7  6  1  0
  8  4  1  0
  9  2  1  0
 10  9  2  0
 12 11  1  0
 13 15  1  0
 13 12  1  0
 13 14  1  6
 15 16  1  1
 16  9  1  0
 17 15  1  0
 18 17  2  0
 19 17  1  0
 20 25  1  0
 20 19  1  0
 20 21  1  6
 22 21  1  0
 23 27  1  0
 23 22  1  0
 24 23  2  0
 25 28  1  0
 26 25  2  0
M  END
$$$$
