HIE.pdb
     RDKit          3D

 28 28  0  0  1  0  0  0  0  0999 V2000
   23.2797  -15.8283  -17.9036 N   0  0  0  0  0  0  0  0  0  0  0  0
   23.0467  -14.5109  -18.3901 C   0  0  1  0  0  0  0  0  0  0  0  0
   21.7549  -14.4225  -19.1140 C   0  0  0  0  0  0  0  0  0  0  0  0
   21.8682  -15.2401  -20.3488 C   0  0  0  0  0  0  0  0  0  0  0  0
   21.9635  -14.8361  -21.6646 C   0  0  0  0  0  0  0  0  0  0  0  0
   22.0466  -15.9344  -22.4536 N   0  0  0  0  0  0  0  0  0  0  0  0
   22.0039  -16.9994  -21.6467 C   0  0  0  0  0  0  0  0  0  0  0  0
   21.8970  -16.5858  -20.3843 N   0  0  0  0  0  0  0  0  0  0  0  0
   23.1310  -13.5457  -17.2194 C   0  0  0  0  0  0  0  0  0  0  0  0
   22.4366  -13.7828  -16.2124 O   0  0  0  0  0  0  0  0  0  0  0  0
   27.8344  -11.7832  -15.4125 C   0  0  0  0  0  0  0  0  0  0  0  0
   26.4217  -12.1366  -15.7129 C   0  0  0  0  0  0  0  0  0  0  0  0
   25.4949  -11.0058  -15.9828 C   0  0  2  0  0  0  0  0  0  0  0  0
   25.3996  -10.0490  -14.7911 C   0  0  0  0  0  0  0  0  0  0  0  0
   24.0984  -11.3574  -16.3439 C   0  0  2  0  0  0  0  0  0  0  0  0
   23.9588  -12.4243  -17.2594 N   0  0  0  0  0  0  0  0  0  0  0  0
   23.1531  -10.2339  -16.4593 C   0  0  0  0  0  0  0  0  0  0  0  0
   23.1670   -9.5191  -17.4848 O   0  0  0  0  0  0  0  0  0  0  0  0
   22.2146   -9.8977  -15.4814 N   0  0  0  0  0  0  0  0  0  0  0  0
   21.2404   -8.7907  -15.6416 C   0  0  1  0  0  0  0  0  0  0  0  0
   19.9042   -9.3583  -15.2887 C   0  0  0  0  0  0  0  0  0  0  0  0
   19.4366  -10.3502  -16.3079 C   0  0  0  0  0  0  0  0  0  0  0  0
   18.1330  -10.9745  -16.0222 C   0  0  0  0  0  0  0  0  0  0  0  0
   17.4394  -10.6885  -15.0213 O   0  0  0  0  0  0  0  0  0  0  0  0
   21.6548   -7.6344  -14.8325 C   0  0  0  0  0  0  0  0  0  0  0  0
   22.4239   -7.8164  -13.8583 O   0  0  0  0  0  0  0  0  0  0  0  0
   17.5999  -11.9494  -16.8933 O   0  0  0  0  0  0  0  0  0  0  0  0
   21.2377   -6.3483  -15.0947 O   0  0  0  0  0  0  0  0  0  0  0  0
  2  1  1  1
  3  2  1  0
  4  5  2  0
  4  3  1  0
  6  5  1  0
  7  8  2  0
  7  6  1  0
  8  4  1  0
  9  2  1  0
 10  9  2  0
 12 11  1  0
 13 15  1  0
 13 12  1  0
 13 14  1  1
 15 16  1  6
 16  9  1  0
 17 15  1  0
 18 17  2  0
 19 17  1  0
 20 25  1  0
 20 19  1  0
 20 21  1  1
 22 21  1  0
 23 27  1  0
 23 22  1  0
 24 23  2  0
 25 28  1  0
 26 25  2  0
M  END
$$$$
