HIE.pdb
     RDKit          3D

 28 28  0  0  1  0  0  0  0  0999 V2000
   28.6978  -23.5881  -15.7722 N   0  0  0  0  0  0  0  0  0  0  0  0
   27.4677  -23.3513  -16.4483 C   0  0  1  0  0  0  0  0  0  0  0  0
   26.6272  -24.5731  -16.4854 C   0  0  0  0  0  0  0  0  0  0  0  0
   27.3799  -25.6213  -17.2208 C   0  0  0  0  0  0  0  0  0  0  0  0
   27.9453  -26.7893  -16.7522 C   0  0  0  0  0  0  0  0  0  0  0  0
   28.5337  -27.4356  -17.7875 N   0  0  0  0  0  0  0  0  0  0  0  0
   28.3389  -26.6863  -18.8773 C   0  0  0  0  0  0  0  0  0  0  0  0
   27.6475  -25.5980  -18.5403 N   0  0  0  0  0  0  0  0  0  0  0  0
   26.7703  -22.1792  -15.7781 C   0  0  0  0  0  0  0  0  0  0  0  0
   26.4018  -22.3139  -14.5955 O   0  0  0  0  0  0  0  0  0  0  0  0
   28.9378  -17.5859  -16.7576 C   0  0  0  0  0  0  0  0  0  0  0  0
   28.1018  -18.5579  -16.0047 C   0  0  0  0  0  0  0  0  0  0  0  0
   26.6421  -18.5403  -16.2870 C   0  0  2  0  0  0  0  0  0  0  0  0
   25.9197  -17.4506  -15.4897 C   0  0  0  0  0  0  0  0  0  0  0  0
   25.8970  -19.7996  -16.0354 C   0  0  2  0  0  0  0  0  0  0  0  0
   26.5448  -20.9822  -16.4570 N   0  0  0  0  0  0  0  0  0  0  0  0
   24.4340  -19.7329  -16.1911 C   0  0  0  0  0  0  0  0  0  0  0  0
   23.9396  -19.6283  -17.3344 O   0  0  0  0  0  0  0  0  0  0  0  0
   23.5313  -19.7798  -15.1267 N   0  0  0  0  0  0  0  0  0  0  0  0
   22.0628  -19.6728  -15.3060 C   0  0  1  0  0  0  0  0  0  0  0  0
   21.4492  -20.3134  -14.1039 C   0  0  0  0  0  0  0  0  0  0  0  0
   19.9562  -20.2038  -14.1186 C   0  0  0  0  0  0  0  0  0  0  0  0
   19.2341  -21.4364  -13.7580 C   0  0  0  0  0  0  0  0  0  0  0  0
   19.7788  -22.4114  -13.1947 O   0  0  0  0  0  0  0  0  0  0  0  0
   21.6828  -18.2681  -15.5204 C   0  0  0  0  0  0  0  0  0  0  0  0
   22.3220  -17.3665  -14.9270 O   0  0  0  0  0  0  0  0  0  0  0  0
   17.8577  -21.5691  -14.0430 O   0  0  0  0  0  0  0  0  0  0  0  0
   20.6507  -17.8893  -16.3498 O   0  0  0  0  0  0  0  0  0  0  0  0
  2  1  1  1
  3  2  1  0
  4  5  2  0
  4  3  1  0
  6  5  1  0
  7  8  2  0
  7  6  1  0
  8  4  1  0
  9  2  1  0
 10  9  2  0
 12 11  1  0
 13 15  1  0
 13 12  1  0
 13 14  1  1
 15 16  1  6
 16  9  1  0
 17 15  1  0
 18 17  2  0
 19 17  1  0
 20 25  1  0
 20 19  1  0
 20 21  1  1
 22 21  1  0
 23 27  1  0
 23 22  1  0
 24 23  2  0
 25 28  1  0
 26 25  2  0
M  END
$$$$
