HIE.pdb
     RDKit          3D

 28 28  0  0  1  0  0  0  0  0999 V2000
   24.5439  -10.7890  -21.1805 N   0  0  0  0  0  0  0  0  0  0  0  0
   24.7798   -9.5081  -20.6061 C   0  0  1  0  0  0  0  0  0  0  0  0
   24.1363   -8.4327  -21.3998 C   0  0  0  0  0  0  0  0  0  0  0  0
   24.8018   -8.3861  -22.7270 C   0  0  0  0  0  0  0  0  0  0  0  0
   24.2504   -8.4597  -23.9895 C   0  0  0  0  0  0  0  0  0  0  0  0
   25.2449   -8.3749  -24.9058 N   0  0  0  0  0  0  0  0  0  0  0  0
   26.3908   -8.2513  -24.2285 C   0  0  0  0  0  0  0  0  0  0  0  0
   26.1279   -8.2577  -22.9220 N   0  0  0  0  0  0  0  0  0  0  0  0
   24.3061   -9.5357  -19.1623 C   0  0  0  0  0  0  0  0  0  0  0  0
   23.1879  -10.0297  -18.9211 O   0  0  0  0  0  0  0  0  0  0  0  0
   27.1730  -11.7862  -15.6107 C   0  0  0  0  0  0  0  0  0  0  0  0
   26.0956  -11.0842  -16.3571 C   0  0  0  0  0  0  0  0  0  0  0  0
   25.7188   -9.7315  -15.8682 C   0  0  2  0  0  0  0  0  0  0  0  0
   25.0313   -9.7897  -14.5012 C   0  0  0  0  0  0  0  0  0  0  0  0
   24.8301   -8.9273  -16.7444 C   0  0  2  0  0  0  0  0  0  0  0  0
   25.0920   -9.0267  -18.1291 N   0  0  0  0  0  0  0  0  0  0  0  0
   24.4168   -7.6135  -16.2228 C   0  0  0  0  0  0  0  0  0  0  0  0
   25.1991   -6.6423  -16.3082 O   0  0  0  0  0  0  0  0  0  0  0  0
   23.1806   -7.3636  -15.6234 N   0  0  0  0  0  0  0  0  0  0  0  0
   22.7946   -6.0350  -15.0885 C   0  0  1  0  0  0  0  0  0  0  0  0
   21.7699   -5.4897  -16.0292 C   0  0  0  0  0  0  0  0  0  0  0  0
   21.3147   -4.1230  -15.6215 C   0  0  0  0  0  0  0  0  0  0  0  0
   20.2903   -3.5187  -16.4910 C   0  0  0  0  0  0  0  0  0  0  0  0
   20.4442   -3.3543  -17.7215 O   0  0  0  0  0  0  0  0  0  0  0  0
   22.3471   -6.1646  -13.6934 C   0  0  0  0  0  0  0  0  0  0  0  0
   21.8651   -7.2563  -13.3069 O   0  0  0  0  0  0  0  0  0  0  0  0
   19.0578   -3.0886  -15.9532 O   0  0  0  0  0  0  0  0  0  0  0  0
   22.4332   -5.1370  -12.7805 O   0  0  0  0  0  0  0  0  0  0  0  0
  2  1  1  6
  3  2  1  0
  4  5  2  0
  4  3  1  0
  6  5  1  0
  7  8  2  0
  7  6  1  0
  8  4  1  0
  9  2  1  0
 10  9  2  0
 12 11  1  0
 13 15  1  0
 13 12  1  0
 13 14  1  1
 15 16  1  6
 16  9  1  0
 17 15  1  0
 18 17  2  0
 19 17  1  0
 20 25  1  0
 20 19  1  0
 20 21  1  6
 22 21  1  0
 23 27  1  0
 23 22  1  0
 24 23  2  0
 25 28  1  0
 26 25  2  0
M  END
$$$$
