HIE.pdb
     RDKit          3D

 28 28  0  0  1  0  0  0  0  0999 V2000
   16.7492  -11.7979  -15.9616 N   0  0  0  0  0  0  0  0  0  0  0  0
   17.4178  -10.8847  -15.0983 C   0  0  1  0  0  0  0  0  0  0  0  0
   18.4515  -10.1098  -15.8272 C   0  0  0  0  0  0  0  0  0  0  0  0
   19.5100  -11.0576  -16.2603 C   0  0  0  0  0  0  0  0  0  0  0  0
   19.6960  -12.3820  -15.9211 C   0  0  0  0  0  0  0  0  0  0  0  0
   20.7979  -12.8454  -16.5589 N   0  0  0  0  0  0  0  0  0  0  0  0
   21.2876  -11.8315  -17.2796 C   0  0  0  0  0  0  0  0  0  0  0  0
   20.5172  -10.7586  -17.1023 N   0  0  0  0  0  0  0  0  0  0  0  0
   16.3751   -9.9974  -14.4389 C   0  0  0  0  0  0  0  0  0  0  0  0
   15.3880   -9.6499  -15.1154 O   0  0  0  0  0  0  0  0  0  0  0  0
   13.6011  -10.8679   -9.9853 C   0  0  0  0  0  0  0  0  0  0  0  0
   14.1543  -10.3053  -11.2456 C   0  0  0  0  0  0  0  0  0  0  0  0
   15.1557   -9.2153  -11.1055 C   0  0  2  0  0  0  0  0  0  0  0  0
   14.5901   -8.0155  -10.3403 C   0  0  0  0  0  0  0  0  0  0  0  0
   15.7318   -8.6710  -12.3609 C   0  0  2  0  0  0  0  0  0  0  0  0
   16.5080   -9.5787  -13.1155 N   0  0  0  0  0  0  0  0  0  0  0  0
   16.1760   -7.2675  -12.3188 C   0  0  0  0  0  0  0  0  0  0  0  0
   15.4431   -6.4043  -11.7892 O   0  0  0  0  0  0  0  0  0  0  0  0
   17.3897   -6.8152  -12.8406 N   0  0  0  0  0  0  0  0  0  0  0  0
   17.8051   -5.3917  -12.8059 C   0  0  1  0  0  0  0  0  0  0  0  0
   19.2869   -5.3953  -12.6146 C   0  0  0  0  0  0  0  0  0  0  0  0
   20.0126   -5.5841  -13.9103 C   0  0  0  0  0  0  0  0  0  0  0  0
   21.4784   -5.4588  -13.8312 C   0  0  0  0  0  0  0  0  0  0  0  0
   22.0860   -5.1561  -12.7805 O   0  0  0  0  0  0  0  0  0  0  0  0
   17.3394   -4.7016  -14.0184 C   0  0  0  0  0  0  0  0  0  0  0  0
   16.9938   -5.3835  -15.0130 O   0  0  0  0  0  0  0  0  0  0  0  0
   22.2787   -5.6821  -14.9728 O   0  0  0  0  0  0  0  0  0  0  0  0
   17.2614   -3.3301  -14.1169 O   0  0  0  0  0  0  0  0  0  0  0  0
  2  1  1  6
  3  2  1  0
  4  5  2  0
  4  3  1  0
  6  5  1  0
  7  8  2  0
  7  6  1  0
  8  4  1  0
  9  2  1  0
 10  9  2  0
 12 11  1  0
 13 15  1  0
 13 12  1  0
 13 14  1  6
 15 16  1  1
 16  9  1  0
 17 15  1  0
 18 17  2  0
 19 17  1  0
 20 25  1  0
 20 19  1  0
 20 21  1  6
 22 21  1  0
 23 27  1  0
 23 22  1  0
 24 23  2  0
 25 28  1  0
 26 25  2  0
M  END
$$$$
