HIE.pdb
     RDKit          3D

 28 28  0  0  1  0  0  0  0  0999 V2000
   26.5963  -20.4742  -17.2374 N   0  0  0  0  0  0  0  0  0  0  0  0
   25.8144  -19.5345  -16.5079 C   0  0  1  0  0  0  0  0  0  0  0  0
   24.9835  -18.7039  -17.4135 C   0  0  0  0  0  0  0  0  0  0  0  0
   25.8990  -17.8765  -18.2403 C   0  0  0  0  0  0  0  0  0  0  0  0
   26.8230  -16.9298  -17.8485 C   0  0  0  0  0  0  0  0  0  0  0  0
   27.4307  -16.4302  -18.9516 N   0  0  0  0  0  0  0  0  0  0  0  0
   26.8967  -17.0523  -20.0075 C   0  0  0  0  0  0  0  0  0  0  0  0
   25.9782  -17.9199  -19.5838 N   0  0  0  0  0  0  0  0  0  0  0  0
   24.9875  -20.2925  -15.4827 C   0  0  0  0  0  0  0  0  0  0  0  0
   24.1700  -21.1369  -15.8967 O   0  0  0  0  0  0  0  0  0  0  0  0
   27.4579  -21.0129  -10.7542 C   0  0  0  0  0  0  0  0  0  0  0  0
   26.4863  -21.3468  -11.8290 C   0  0  0  0  0  0  0  0  0  0  0  0
   25.1536  -20.6923  -11.7493 C   0  0  2  0  0  0  0  0  0  0  0  0
   24.2225  -21.4111  -10.7688 C   0  0  0  0  0  0  0  0  0  0  0  0
   24.3958  -20.5614  -13.0192 C   0  0  2  0  0  0  0  0  0  0  0  0
   25.1315  -20.0588  -14.1156 N   0  0  0  0  0  0  0  0  0  0  0  0
   22.9877  -20.1470  -12.8977 C   0  0  0  0  0  0  0  0  0  0  0  0
   22.7163  -18.9588  -12.6200 O   0  0  0  0  0  0  0  0  0  0  0  0
   21.9014  -21.0064  -13.0750 N   0  0  0  0  0  0  0  0  0  0  0  0
   20.4911  -20.5506  -13.0158 C   0  0  1  0  0  0  0  0  0  0  0  0
   19.9673  -20.6367  -14.4123 C   0  0  0  0  0  0  0  0  0  0  0  0
   18.5382  -20.1986  -14.4962 C   0  0  0  0  0  0  0  0  0  0  0  0
   17.9035  -20.3809  -15.8133 C   0  0  0  0  0  0  0  0  0  0  0  0
   17.9568  -21.4510  -16.4589 O   0  0  0  0  0  0  0  0  0  0  0  0
   19.7469  -21.3437  -12.0256 C   0  0  0  0  0  0  0  0  0  0  0  0
   20.1013  -22.5259  -11.8009 O   0  0  0  0  0  0  0  0  0  0  0  0
   17.1889  -19.3230  -16.4162 O   0  0  0  0  0  0  0  0  0  0  0  0
   18.6702  -20.8478  -11.3247 O   0  0  0  0  0  0  0  0  0  0  0  0
  2  1  1  6
  3  2  1  0
  4  5  2  0
  4  3  1  0
  6  5  1  0
  7  8  2  0
  7  6  1  0
  8  4  1  0
  9  2  1  0
 10  9  2  0
 12 11  1  0
 13 15  1  0
 13 12  1  0
 13 14  1  1
 15 16  1  6
 16  9  1  0
 17 15  1  0
 18 17  2  0
 19 17  1  0
 20 25  1  0
 20 19  1  0
 20 21  1  6
 22 21  1  0
 23 27  1  0
 23 22  1  0
 24 23  2  0
 25 28  1  0
 26 25  2  0
M  END
$$$$
