HIE.pdb
     RDKit          3D

 28 28  0  0  1  0  0  0  0  0999 V2000
   19.4418  -14.0029  -17.1639 N   0  0  0  0  0  0  0  0  0  0  0  0
   19.8425  -12.7757  -17.7638 C   0  0  1  0  0  0  0  0  0  0  0  0
   18.6923  -12.0791  -18.3900 C   0  0  0  0  0  0  0  0  0  0  0  0
   18.1894  -12.9340  -19.4957 C   0  0  0  0  0  0  0  0  0  0  0  0
   18.7907  -13.2672  -20.6920 C   0  0  0  0  0  0  0  0  0  0  0  0
   17.9556  -14.0737  -21.3905 N   0  0  0  0  0  0  0  0  0  0  0  0
   16.8581  -14.2391  -20.6453 C   0  0  0  0  0  0  0  0  0  0  0  0
   16.9958  -13.5569  -19.5089 N   0  0  0  0  0  0  0  0  0  0  0  0
   20.5370  -11.9307  -16.7087 C   0  0  0  0  0  0  0  0  0  0  0  0
   19.9140  -11.6716  -15.6611 O   0  0  0  0  0  0  0  0  0  0  0  0
   25.5405  -13.1060  -15.3229 C   0  0  0  0  0  0  0  0  0  0  0  0
   24.1557  -12.5872  -15.4773 C   0  0  0  0  0  0  0  0  0  0  0  0
   24.0183  -11.1493  -15.8296 C   0  0  2  0  0  0  0  0  0  0  0  0
   24.6285  -10.2388  -14.7603 C   0  0  0  0  0  0  0  0  0  0  0  0
   22.6411  -10.6468  -16.0641 C   0  0  2  0  0  0  0  0  0  0  0  0
   21.8341  -11.4546  -16.8961 N   0  0  0  0  0  0  0  0  0  0  0  0
   22.4919   -9.1864  -16.1823 C   0  0  0  0  0  0  0  0  0  0  0  0
   22.9356   -8.6011  -17.1939 O   0  0  0  0  0  0  0  0  0  0  0  0
   21.8737   -8.3830  -15.2220 N   0  0  0  0  0  0  0  0  0  0  0  0
   21.7535   -6.9106  -15.3547 C   0  0  1  0  0  0  0  0  0  0  0  0
   20.3900   -6.6528  -15.9085 C   0  0  0  0  0  0  0  0  0  0  0  0
   19.3299   -6.7978  -14.8614 C   0  0  0  0  0  0  0  0  0  0  0  0
   17.9487   -6.6091  -15.3382 C   0  0  0  0  0  0  0  0  0  0  0  0
   17.4585   -7.2507  -16.2936 O   0  0  0  0  0  0  0  0  0  0  0  0
   22.0288   -6.2644  -14.0624 C   0  0  0  0  0  0  0  0  0  0  0  0
   21.9805   -6.9524  -13.0146 O   0  0  0  0  0  0  0  0  0  0  0  0
   17.0989   -5.6685  -14.7166 O   0  0  0  0  0  0  0  0  0  0  0  0
   22.3417   -4.9285  -13.9442 O   0  0  0  0  0  0  0  0  0  0  0  0
  2  1  1  1
  3  2  1  0
  4  5  2  0
  4  3  1  0
  6  5  1  0
  7  8  2  0
  7  6  1  0
  8  4  1  0
  9  2  1  0
 10  9  2  0
 12 11  1  0
 13 15  1  0
 13 12  1  0
 13 14  1  1
 15 16  1  6
 16  9  1  0
 17 15  1  0
 18 17  2  0
 19 17  1  0
 20 25  1  0
 20 19  1  0
 20 21  1  1
 22 21  1  0
 23 27  1  0
 23 22  1  0
 24 23  2  0
 25 28  1  0
 26 25  2  0
M  END
$$$$
