HIE.pdb
     RDKit          3D

 28 28  0  0  1  0  0  0  0  0999 V2000
   21.5308  -14.4593  -18.2287 N   0  0  0  0  0  0  0  0  0  0  0  0
   21.3437  -13.0642  -18.4411 C   0  0  1  0  0  0  0  0  0  0  0  0
   19.9168  -12.7414  -18.6866 C   0  0  0  0  0  0  0  0  0  0  0  0
   19.5248  -13.3634  -19.9772 C   0  0  0  0  0  0  0  0  0  0  0  0
   19.1337  -14.6591  -20.2453 C   0  0  0  0  0  0  0  0  0  0  0  0
   18.8719  -14.7708  -21.5700 N   0  0  0  0  0  0  0  0  0  0  0  0
   19.0951  -13.5707  -22.1150 C   0  0  0  0  0  0  0  0  0  0  0  0
   19.4867  -12.7252  -21.1622 N   0  0  0  0  0  0  0  0  0  0  0  0
   21.9181  -12.3166  -17.2493 C   0  0  0  0  0  0  0  0  0  0  0  0
   21.5643  -12.6710  -16.1083 O   0  0  0  0  0  0  0  0  0  0  0  0
   26.8413  -10.3021  -14.6503 C   0  0  0  0  0  0  0  0  0  0  0  0
   25.4303   -9.9784  -14.9896 C   0  0  0  0  0  0  0  0  0  0  0  0
   24.8266  -10.7334  -16.1193 C   0  0  2  0  0  0  0  0  0  0  0  0
   25.6277  -10.5622  -17.4130 C   0  0  0  0  0  0  0  0  0  0  0  0
   23.4173  -10.4139  -16.4599 C   0  0  2  0  0  0  0  0  0  0  0  0
   22.8168  -11.2634  -17.4156 N   0  0  0  0  0  0  0  0  0  0  0  0
   23.0661   -8.9843  -16.5044 C   0  0  0  0  0  0  0  0  0  0  0  0
   23.3269   -8.3168  -17.5286 O   0  0  0  0  0  0  0  0  0  0  0  0
   22.4452   -8.2985  -15.4584 N   0  0  0  0  0  0  0  0  0  0  0  0
   22.0392   -6.8750  -15.5526 C   0  0  1  0  0  0  0  0  0  0  0  0
   20.5862   -6.8790  -15.9003 C   0  0  0  0  0  0  0  0  0  0  0  0
   20.0528   -5.4904  -16.0694 C   0  0  0  0  0  0  0  0  0  0  0  0
   18.6444   -5.4078  -16.4938 C   0  0  0  0  0  0  0  0  0  0  0  0
   18.2925   -5.0526  -17.6405 O   0  0  0  0  0  0  0  0  0  0  0  0
   22.3750   -6.1721  -14.3050 C   0  0  0  0  0  0  0  0  0  0  0  0
   22.4648   -6.8294  -13.2403 O   0  0  0  0  0  0  0  0  0  0  0  0
   17.6056   -5.7361  -15.5958 O   0  0  0  0  0  0  0  0  0  0  0  0
   22.5996   -4.8145  -14.2469 O   0  0  0  0  0  0  0  0  0  0  0  0
  2  1  1  1
  3  2  1  0
  4  5  2  0
  4  3  1  0
  6  5  1  0
  7  8  2  0
  7  6  1  0
  8  4  1  0
  9  2  1  0
 10  9  2  0
 12 11  1  0
 13 15  1  0
 13 12  1  0
 13 14  1  6
 15 16  1  6
 16  9  1  0
 17 15  1  0
 18 17  2  0
 19 17  1  0
 20 25  1  0
 20 19  1  0
 20 21  1  1
 22 21  1  0
 23 27  1  0
 23 22  1  0
 24 23  2  0
 25 28  1  0
 26 25  2  0
M  END
$$$$
