HIE.pdb
     RDKit          3D

 28 28  0  0  1  0  0  0  0  0999 V2000
   13.0116  -12.6249    5.2489 N   0  0  0  0  0  0  0  0  0  0  0  0
   13.9624  -12.6576    6.3078 C   0  0  1  0  0  0  0  0  0  0  0  0
   13.3180  -12.9851    7.6031 C   0  0  0  0  0  0  0  0  0  0  0  0
   12.4074  -11.8654    7.9546 C   0  0  0  0  0  0  0  0  0  0  0  0
   11.0286  -11.8316    7.9884 C   0  0  0  0  0  0  0  0  0  0  0  0
   10.6314  -10.5925    8.3662 N   0  0  0  0  0  0  0  0  0  0  0  0
   11.7390   -9.8704    8.5634 C   0  0  0  0  0  0  0  0  0  0  0  0
   12.8051  -10.6312    8.3173 N   0  0  0  0  0  0  0  0  0  0  0  0
   15.0619  -13.6380    5.9346 C   0  0  0  0  0  0  0  0  0  0  0  0
   14.7372  -14.6883    5.3482 O   0  0  0  0  0  0  0  0  0  0  0  0
   20.5991  -11.8109    6.2429 C   0  0  0  0  0  0  0  0  0  0  0  0
   19.3153  -12.4628    6.6137 C   0  0  0  0  0  0  0  0  0  0  0  0
   18.7789  -13.4688    5.6593 C   0  0  2  0  0  0  0  0  0  0  0  0
   18.4793  -12.8532    4.2896 C   0  0  0  0  0  0  0  0  0  0  0  0
   17.5460  -14.1878    6.0683 C   0  0  2  0  0  0  0  0  0  0  0  0
   16.3991  -13.3797    6.2338 N   0  0  0  0  0  0  0  0  0  0  0  0
   17.7272  -15.3113    7.0032 C   0  0  0  0  0  0  0  0  0  0  0  0
   17.5696  -15.1249    8.2292 O   0  0  0  0  0  0  0  0  0  0  0  0
   18.0711  -16.6069    6.6118 N   0  0  0  0  0  0  0  0  0  0  0  0
   18.2699  -17.7172    7.5751 C   0  0  1  0  0  0  0  0  0  0  0  0
   17.7677  -18.9505    6.8977 C   0  0  0  0  0  0  0  0  0  0  0  0
   17.9613  -20.1677    7.7476 C   0  0  0  0  0  0  0  0  0  0  0  0
   17.5119  -21.4329    7.1411 C   0  0  0  0  0  0  0  0  0  0  0  0
   17.0389  -21.5107    5.9856 O   0  0  0  0  0  0  0  0  0  0  0  0
   19.6781  -17.7722    7.9962 C   0  0  0  0  0  0  0  0  0  0  0  0
   20.5684  -17.3956    7.1968 O   0  0  0  0  0  0  0  0  0  0  0  0
   17.6001  -22.6435    7.8623 O   0  0  0  0  0  0  0  0  0  0  0  0
   20.0719  -18.2198    9.2377 O   0  0  0  0  0  0  0  0  0  0  0  0
  2  1  1  6
  3  2  1  0
  4  5  2  0
  4  3  1  0
  6  5  1  0
  7  8  2  0
  7  6  1  0
  8  4  1  0
  9  2  1  0
 10  9  2  0
 12 11  1  0
 13 15  1  0
 13 12  1  0
 13 14  1  6
 15 16  1  1
 16  9  1  0
 17 15  1  0
 18 17  2  0
 19 17  1  0
 20 25  1  0
 20 19  1  0
 20 21  1  6
 22 21  1  0
 23 27  1  0
 23 22  1  0
 24 23  2  0
 25 28  1  0
 26 25  2  0
M  END
$$$$
