FIT.pdb
     RDKit          3D

 27 27  0  0  1  0  0  0  0  0999 V2000
    5.6890  -17.6168   25.4121 N   0  0  0  0  0  0  0  0  0  0  0  0
    6.2608  -16.3039   25.1955 C   0  0  1  0  0  0  0  0  0  0  0  0
    6.9008  -15.8629   26.4944 C   0  0  0  0  0  0  0  0  0  0  0  0
    6.7460  -14.3891   26.6166 C   0  0  0  0  0  0  0  0  0  0  0  0
    7.8469  -13.5677   26.7839 C   0  0  0  0  0  0  0  0  0  0  0  0
    7.7317  -12.1979   26.8999 C   0  0  0  0  0  0  0  0  0  0  0  0
    6.4966  -11.6038   26.8512 C   0  0  0  0  0  0  0  0  0  0  0  0
    5.3995  -12.4044   26.6860 C   0  0  0  0  0  0  0  0  0  0  0  0
    5.5099  -13.7785   26.5692 C   0  0  0  0  0  0  0  0  0  0  0  0
    7.2592  -16.3751   24.1090 C   0  0  0  0  0  0  0  0  0  0  0  0
    7.8344  -17.4719   23.8467 O   0  0  0  0  0  0  0  0  0  0  0  0
    7.3568  -12.3378   20.3488 C   0  0  0  0  0  0  0  0  0  0  0  0
    7.2180  -13.7538   20.8552 C   0  0  0  0  0  0  0  0  0  0  0  0
    8.5883  -14.2080   21.3249 C   0  0  2  0  0  0  0  0  0  0  0  0
    9.5015  -14.4738   20.1524 C   0  0  0  0  0  0  0  0  0  0  0  0
    8.5159  -15.4288   22.1792 C   0  0  2  0  0  0  0  0  0  0  0  0
    7.6253  -15.2531   23.3153 N   0  0  0  0  0  0  0  0  0  0  0  0
    9.9075  -15.7505   22.6702 C   0  0  0  0  0  0  0  0  0  0  0  0
   10.5103  -14.9732   23.4439 O   0  0  0  0  0  0  0  0  0  0  0  0
   13.5470  -19.2097   22.9147 C   0  0  0  0  0  0  0  0  0  0  0  0
   12.1693  -18.8018   22.5136 C   0  0  1  0  0  0  0  0  0  0  0  0
   11.2640  -19.5416   23.2782 O   0  0  0  0  0  0  0  0  0  0  0  0
   11.8966  -17.3490   22.6057 C   0  0  2  0  0  0  0  0  0  0  0  0
   10.5631  -16.9423   22.2648 N   0  0  0  0  0  0  0  0  0  0  0  0
   12.9749  -16.4765   22.0510 C   0  0  0  0  0  0  0  0  0  0  0  0
   12.9922  -16.2250   20.7002 O   0  0  0  0  0  0  0  0  0  0  0  0
   13.8584  -15.9617   22.7533 O   0  0  0  0  0  0  0  0  0  0  0  0
  2  1  1  1
  3  2  1  0
  4  9  2  0
  4  3  1  0
  5  4  1  0
  6  7  1  0
  6  5  2  0
  7  8  2  0
  8  9  1  0
 10 17  1  0
 10  2  1  0
 11 10  2  0
 13 14  1  0
 13 12  1  0
 14 15  1  6
 16 14  1  0
 16 17  1  1
 18 16  1  0
 19 18  2  0
 21 20  1  1
 21 22  1  0
 21 23  1  0
 23 24  1  6
 24 18  1  0
 25 23  1  0
 25 26  1  0
 27 25  2  0
M  END
$$$$
