FIT.pdb
     RDKit          3D

 27 27  0  0  1  0  0  0  0  0999 V2000
    6.3034  -17.8892   26.1288 N   0  0  0  0  0  0  0  0  0  0  0  0
    6.6775  -16.5841   25.6245 C   0  0  1  0  0  0  0  0  0  0  0  0
    7.7030  -16.0028   26.5741 C   0  0  0  0  0  0  0  0  0  0  0  0
    7.4970  -14.5319   26.6432 C   0  0  0  0  0  0  0  0  0  0  0  0
    8.5718  -13.6640   26.7220 C   0  0  0  0  0  0  0  0  0  0  0  0
    8.4092  -12.2957   26.7873 C   0  0  0  0  0  0  0  0  0  0  0  0
    7.1510  -11.7502   26.7754 C   0  0  0  0  0  0  0  0  0  0  0  0
    6.0792  -12.5970   26.6978 C   0  0  0  0  0  0  0  0  0  0  0  0
    6.2373  -13.9699   26.6321 C   0  0  0  0  0  0  0  0  0  0  0  0
    7.2337  -16.7236   24.2630 C   0  0  0  0  0  0  0  0  0  0  0  0
    7.3986  -17.8734   23.7596 O   0  0  0  0  0  0  0  0  0  0  0  0
    7.3974  -12.2408   20.9246 C   0  0  0  0  0  0  0  0  0  0  0  0
    6.9741  -13.5883   21.4592 C   0  0  0  0  0  0  0  0  0  0  0  0
    8.1654  -14.5219   21.3414 C   0  0  2  0  0  0  0  0  0  0  0  0
    8.4898  -14.8052   19.8944 C   0  0  0  0  0  0  0  0  0  0  0  0
    7.9446  -15.8115   22.0581 C   0  0  2  0  0  0  0  0  0  0  0  0
    7.6067  -15.6117   23.4583 N   0  0  0  0  0  0  0  0  0  0  0  0
    9.2048  -16.6374   21.9529 C   0  0  0  0  0  0  0  0  0  0  0  0
    9.3015  -17.5549   21.1073 O   0  0  0  0  0  0  0  0  0  0  0  0
   11.1957  -17.2644   20.2446 C   0  0  0  0  0  0  0  0  0  0  0  0
   12.1882  -16.9751   21.3201 C   0  0  1  0  0  0  0  0  0  0  0  0
   12.8328  -15.7786   20.9974 O   0  0  0  0  0  0  0  0  0  0  0  0
   11.6298  -16.9376   22.6913 C   0  0  2  0  0  0  0  0  0  0  0  0
   10.3080  -16.3913   22.8112 N   0  0  0  0  0  0  0  0  0  0  0  0
   12.5892  -16.4835   23.7424 C   0  0  0  0  0  0  0  0  0  0  0  0
   13.8140  -17.1001   23.8302 O   0  0  0  0  0  0  0  0  0  0  0  0
   12.3356  -15.5697   24.5421 O   0  0  0  0  0  0  0  0  0  0  0  0
  2  1  1  1
  3  2  1  0
  4  9  2  0
  4  3  1  0
  5  4  1  0
  6  7  1  0
  6  5  2  0
  7  8  2  0
  8  9  1  0
 10 17  1  0
 10  2  1  0
 11 10  2  0
 13 14  1  0
 13 12  1  0
 14 15  1  6
 16 14  1  0
 16 17  1  1
 18 16  1  0
 19 18  2  0
 21 20  1  6
 21 22  1  0
 21 23  1  0
 23 24  1  6
 24 18  1  0
 25 23  1  0
 25 26  1  0
 27 25  2  0
M  END
$$$$
