FIT.pdb
     RDKit          3D

 27 27  0  0  1  0  0  0  0  0999 V2000
    9.5682  -17.4502   21.0624 N   0  0  0  0  0  0  0  0  0  0  0  0
    9.0673  -16.1516   21.4627 C   0  0  1  0  0  0  0  0  0  0  0  0
    7.6954  -15.9798   20.8465 C   0  0  0  0  0  0  0  0  0  0  0  0
    7.5811  -14.5873   20.3380 C   0  0  0  0  0  0  0  0  0  0  0  0
    8.3395  -14.1553   19.2642 C   0  0  0  0  0  0  0  0  0  0  0  0
    8.2531  -12.8694   18.7725 C   0  0  0  0  0  0  0  0  0  0  0  0
    7.3949  -11.9679   19.3484 C   0  0  0  0  0  0  0  0  0  0  0  0
    6.6390  -12.3818   20.4110 C   0  0  0  0  0  0  0  0  0  0  0  0
    6.7221  -13.6704   20.9076 C   0  0  0  0  0  0  0  0  0  0  0  0
    8.9996  -16.0834   22.9369 C   0  0  0  0  0  0  0  0  0  0  0  0
    9.5906  -16.9542   23.6403 O   0  0  0  0  0  0  0  0  0  0  0  0
    7.4404  -12.0152   27.3497 C   0  0  0  0  0  0  0  0  0  0  0  0
    8.2873  -13.1958   26.9375 C   0  0  0  0  0  0  0  0  0  0  0  0
    7.8208  -13.6353   25.5614 C   0  0  2  0  0  0  0  0  0  0  0  0
    6.3933  -14.1252   25.6050 C   0  0  0  0  0  0  0  0  0  0  0  0
    8.6899  -14.7019   24.9850 C   0  0  2  0  0  0  0  0  0  0  0  0
    8.2894  -15.0685   23.6360 N   0  0  0  0  0  0  0  0  0  0  0  0
    8.6168  -15.9140   25.8832 C   0  0  0  0  0  0  0  0  0  0  0  0
    7.5128  -16.4073   26.2061 O   0  0  0  0  0  0  0  0  0  0  0  0
   10.7282  -20.1432   27.0764 C   0  0  0  0  0  0  0  0  0  0  0  0
   10.5953  -18.8583   26.3303 C   0  0  1  0  0  0  0  0  0  0  0  0
    9.9706  -19.1334   25.1116 O   0  0  0  0  0  0  0  0  0  0  0  0
    9.8975  -17.7786   27.0658 C   0  0  2  0  0  0  0  0  0  0  0  0
    9.7990  -16.5210   26.3814 N   0  0  0  0  0  0  0  0  0  0  0  0
   10.2603  -17.6745   28.5112 C   0  0  0  0  0  0  0  0  0  0  0  0
   10.7841  -16.4929   28.9778 O   0  0  0  0  0  0  0  0  0  0  0  0
   10.1080  -18.6054   29.3169 O   0  0  0  0  0  0  0  0  0  0  0  0
  2  1  1  1
  3  2  1  0
  4  9  2  0
  4  3  1  0
  5  4  1  0
  6  7  1  0
  6  5  2  0
  7  8  2  0
  8  9  1  0
 10 17  1  0
 10  2  1  0
 11 10  2  0
 13 14  1  0
 13 12  1  0
 14 15  1  1
 16 14  1  0
 16 17  1  6
 18 16  1  0
 19 18  2  0
 21 20  1  1
 21 22  1  0
 21 23  1  0
 23 24  1  6
 24 18  1  0
 25 23  1  0
 25 26  1  0
 27 25  2  0
M  END
$$$$
