FIT.pdb
     RDKit          3D

 27 27  0  0  1  0  0  0  0  0999 V2000
    9.3944  -16.9851   21.2398 N   0  0  0  0  0  0  0  0  0  0  0  0
    8.8576  -15.7751   21.8274 C   0  0  1  0  0  0  0  0  0  0  0  0
    7.4363  -15.6164   21.3313 C   0  0  0  0  0  0  0  0  0  0  0  0
    7.3472  -14.3466   20.5629 C   0  0  0  0  0  0  0  0  0  0  0  0
    6.9769  -14.3440   19.2296 C   0  0  0  0  0  0  0  0  0  0  0  0
    6.8863  -13.1809   18.4935 C   0  0  0  0  0  0  0  0  0  0  0  0
    7.1671  -11.9723   19.0778 C   0  0  0  0  0  0  0  0  0  0  0  0
    7.5345  -11.9604   20.3956 C   0  0  0  0  0  0  0  0  0  0  0  0
    7.6267  -13.1242   21.1379 C   0  0  0  0  0  0  0  0  0  0  0  0
    8.8969  -15.8839   23.3001 C   0  0  0  0  0  0  0  0  0  0  0  0
    9.8608  -16.4771   23.8672 O   0  0  0  0  0  0  0  0  0  0  0  0
    6.3499  -11.7566   25.8615 C   0  0  0  0  0  0  0  0  0  0  0  0
    7.3678  -12.7115   25.2846 C   0  0  0  0  0  0  0  0  0  0  0  0
    7.3058  -13.9922   26.0975 C   0  0  2  0  0  0  0  0  0  0  0  0
    7.6817  -13.7377   27.5374 C   0  0  0  0  0  0  0  0  0  0  0  0
    8.1879  -15.0579   25.5394 C   0  0  2  0  0  0  0  0  0  0  0  0
    7.8876  -15.3468   24.1462 N   0  0  0  0  0  0  0  0  0  0  0  0
    8.0076  -16.3082   26.3672 C   0  0  0  0  0  0  0  0  0  0  0  0
    6.9307  -16.9452   26.3407 O   0  0  0  0  0  0  0  0  0  0  0  0
    8.0816  -18.9976   25.5776 C   0  0  0  0  0  0  0  0  0  0  0  0
    9.2052  -19.1669   26.5441 C   0  0  1  0  0  0  0  0  0  0  0  0
   10.3948  -19.2156   25.8136 O   0  0  0  0  0  0  0  0  0  0  0  0
    9.2674  -18.1450   27.6143 C   0  0  2  0  0  0  0  0  0  0  0  0
    9.0561  -16.7890   27.1943 N   0  0  0  0  0  0  0  0  0  0  0  0
   10.3865  -18.3287   28.5867 C   0  0  0  0  0  0  0  0  0  0  0  0
   10.4495  -19.4958   29.3091 O   0  0  0  0  0  0  0  0  0  0  0  0
   11.2690  -17.4770   28.7729 O   0  0  0  0  0  0  0  0  0  0  0  0
  2  1  1  6
  3  2  1  0
  4  9  2  0
  4  3  1  0
  5  4  1  0
  6  7  1  0
  6  5  2  0
  7  8  2  0
  8  9  1  0
 10 17  1  0
 10  2  1  0
 11 10  2  0
 13 14  1  0
 13 12  1  0
 14 15  1  1
 16 14  1  0
 16 17  1  6
 18 16  1  0
 19 18  2  0
 21 20  1  6
 21 22  1  0
 21 23  1  0
 23 24  1  6
 24 18  1  0
 25 23  1  0
 25 26  1  0
 27 25  2  0
M  END
$$$$
