FIT.pdb
     RDKit          3D

 27 27  0  0  1  0  0  0  0  0999 V2000
    7.7126  -19.3731   27.4006 N   0  0  0  0  0  0  0  0  0  0  0  0
    8.1453  -17.9981   27.5416 C   0  0  1  0  0  0  0  0  0  0  0  0
    9.6262  -18.0138   27.8550 C   0  0  0  0  0  0  0  0  0  0  0  0
    9.9836  -16.7200   28.4945 C   0  0  0  0  0  0  0  0  0  0  0  0
   10.2884  -15.6069   27.7309 C   0  0  0  0  0  0  0  0  0  0  0  0
   10.6232  -14.3949   28.2981 C   0  0  0  0  0  0  0  0  0  0  0  0
   10.6631  -14.2604   29.6624 C   0  0  0  0  0  0  0  0  0  0  0  0
   10.3640  -15.3531   30.4294 C   0  0  0  0  0  0  0  0  0  0  0  0
   10.0276  -16.5707   29.8651 C   0  0  0  0  0  0  0  0  0  0  0  0
    7.8758  -17.2663   26.2870 C   0  0  0  0  0  0  0  0  0  0  0  0
    7.4985  -17.8943   25.2545 O   0  0  0  0  0  0  0  0  0  0  0  0
    6.3337  -11.9175   26.4232 C   0  0  0  0  0  0  0  0  0  0  0  0
    6.2701  -13.3966   26.1250 C   0  0  0  0  0  0  0  0  0  0  0  0
    7.3947  -13.7169   25.1569 C   0  0  2  0  0  0  0  0  0  0  0  0
    7.1627  -13.0547   23.8200 C   0  0  0  0  0  0  0  0  0  0  0  0
    7.5653  -15.1852   24.9560 C   0  0  2  0  0  0  0  0  0  0  0  0
    8.0185  -15.8565   26.1637 N   0  0  0  0  0  0  0  0  0  0  0  0
    8.5686  -15.4016   23.8481 C   0  0  0  0  0  0  0  0  0  0  0  0
    8.4018  -14.8827   22.7214 O   0  0  0  0  0  0  0  0  0  0  0  0
   12.5149  -15.1127   24.3415 C   0  0  0  0  0  0  0  0  0  0  0  0
   12.1546  -16.3957   23.6711 C   0  0  1  0  0  0  0  0  0  0  0  0
   12.3823  -17.4321   24.5795 O   0  0  0  0  0  0  0  0  0  0  0  0
   10.7804  -16.4484   23.1214 C   0  0  2  0  0  0  0  0  0  0  0  0
    9.7237  -16.1987   24.0599 N   0  0  0  0  0  0  0  0  0  0  0  0
   10.5269  -17.5852   22.1859 C   0  0  0  0  0  0  0  0  0  0  0  0
    9.5241  -18.4759   22.4844 O   0  0  0  0  0  0  0  0  0  0  0  0
   11.1778  -17.7643   21.1451 O   0  0  0  0  0  0  0  0  0  0  0  0
  2  1  1  6
  3  2  1  0
  4  9  2  0
  4  3  1  0
  5  4  1  0
  6  7  1  0
  6  5  2  0
  7  8  2  0
  8  9  1  0
 10 17  1  0
 10  2  1  0
 11 10  2  0
 13 14  1  0
 13 12  1  0
 14 15  1  6
 16 14  1  0
 16 17  1  1
 18 16  1  0
 19 18  2  0
 21 20  1  1
 21 22  1  0
 21 23  1  0
 23 24  1  1
 24 18  1  0
 25 23  1  0
 25 26  1  0
 27 25  2  0
M  END
$$$$
