FIT.pdb
     RDKit          3D

 27 27  0  0  1  0  0  0  0  0999 V2000
    5.5076  -17.8528   25.0711 N   0  0  0  0  0  0  0  0  0  0  0  0
    6.0545  -16.5119   25.0521 C   0  0  1  0  0  0  0  0  0  0  0  0
    6.6071  -16.2229   26.4314 C   0  0  0  0  0  0  0  0  0  0  0  0
    6.7321  -14.7495   26.5869 C   0  0  0  0  0  0  0  0  0  0  0  0
    5.6152  -13.9328   26.5670 C   0  0  0  0  0  0  0  0  0  0  0  0
    5.7026  -12.5635   26.7089 C   0  0  0  0  0  0  0  0  0  0  0  0
    6.9251  -11.9649   26.8769 C   0  0  0  0  0  0  0  0  0  0  0  0
    8.0378  -12.7608   26.8984 C   0  0  0  0  0  0  0  0  0  0  0  0
    7.9552  -14.1345   26.7565 C   0  0  0  0  0  0  0  0  0  0  0  0
    7.1149  -16.4275   24.0269 C   0  0  0  0  0  0  0  0  0  0  0  0
    7.8606  -17.4254   23.8017 O   0  0  0  0  0  0  0  0  0  0  0  0
    7.1771  -12.3454   20.1196 C   0  0  0  0  0  0  0  0  0  0  0  0
    7.0550  -13.6879   20.8005 C   0  0  0  0  0  0  0  0  0  0  0  0
    8.3992  -14.0054   21.4304 C   0  0  2  0  0  0  0  0  0  0  0  0
    9.4819  -14.0894   20.3816 C   0  0  0  0  0  0  0  0  0  0  0  0
    8.3704  -15.2763   22.2111 C   0  0  2  0  0  0  0  0  0  0  0  0
    7.3568  -15.2585   23.2537 N   0  0  0  0  0  0  0  0  0  0  0  0
    9.7318  -15.4865   22.8304 C   0  0  0  0  0  0  0  0  0  0  0  0
    9.9146  -15.3034   24.0548 O   0  0  0  0  0  0  0  0  0  0  0  0
   11.0782  -17.1627   24.7308 C   0  0  0  0  0  0  0  0  0  0  0  0
   11.8366  -17.5971   23.5219 C   0  0  1  0  0  0  0  0  0  0  0  0
   11.1930  -18.7181   22.9925 O   0  0  0  0  0  0  0  0  0  0  0  0
   12.0294  -16.5471   22.4953 C   0  0  2  0  0  0  0  0  0  0  0  0
   10.8350  -15.8967   22.0371 N   0  0  0  0  0  0  0  0  0  0  0  0
   12.9988  -16.9023   21.4156 C   0  0  0  0  0  0  0  0  0  0  0  0
   14.3337  -16.9914   21.7288 O   0  0  0  0  0  0  0  0  0  0  0  0
   12.6565  -17.1258   20.2443 O   0  0  0  0  0  0  0  0  0  0  0  0
  2  1  1  1
  3  2  1  0
  4  9  2  0
  4  3  1  0
  5  4  1  0
  6  7  1  0
  6  5  2  0
  7  8  2  0
  8  9  1  0
 10 17  1  0
 10  2  1  0
 11 10  2  0
 13 14  1  0
 13 12  1  0
 14 15  1  6
 16 14  1  0
 16 17  1  1
 18 16  1  0
 19 18  2  0
 21 20  1  1
 21 22  1  0
 21 23  1  0
 23 24  1  6
 24 18  1  0
 25 23  1  0
 25 26  1  0
 27 25  2  0
M  END
$$$$
