FIT.pdb
     RDKit          3D

 27 27  0  0  1  0  0  0  0  0999 V2000
    5.7282  -17.8902   25.4811 N   0  0  0  0  0  0  0  0  0  0  0  0
    6.3048  -16.5843   25.2367 C   0  0  1  0  0  0  0  0  0  0  0  0
    7.1797  -16.2405   26.4232 C   0  0  0  0  0  0  0  0  0  0  0  0
    7.2476  -14.7599   26.5420 C   0  0  0  0  0  0  0  0  0  0  0  0
    6.0966  -13.9993   26.6488 C   0  0  0  0  0  0  0  0  0  0  0  0
    6.1309  -12.6248   26.7601 C   0  0  0  0  0  0  0  0  0  0  0  0
    7.3327  -11.9641   26.7679 C   0  0  0  0  0  0  0  0  0  0  0  0
    8.4787  -12.7040   26.6630 C   0  0  0  0  0  0  0  0  0  0  0  0
    8.4493  -14.0827   26.5511 C   0  0  0  0  0  0  0  0  0  0  0  0
    7.0936  -16.6205   23.9881 C   0  0  0  0  0  0  0  0  0  0  0  0
    7.3499  -17.7282   23.4313 O   0  0  0  0  0  0  0  0  0  0  0  0
    7.4239  -12.0302   20.7783 C   0  0  0  0  0  0  0  0  0  0  0  0
    7.0713  -13.4404   21.1879 C   0  0  0  0  0  0  0  0  0  0  0  0
    8.3720  -14.1924   21.4053 C   0  0  2  0  0  0  0  0  0  0  0  0
    9.1300  -14.3483   20.1090 C   0  0  0  0  0  0  0  0  0  0  0  0
    8.1516  -15.5375   22.0116 C   0  0  2  0  0  0  0  0  0  0  0  0
    7.5984  -15.4519   23.3537 N   0  0  0  0  0  0  0  0  0  0  0  0
    9.4748  -16.2644   22.0534 C   0  0  0  0  0  0  0  0  0  0  0  0
   10.0563  -16.5993   20.9970 O   0  0  0  0  0  0  0  0  0  0  0  0
   11.9983  -15.9631   21.2800 C   0  0  0  0  0  0  0  0  0  0  0  0
   12.4593  -16.3125   22.6551 C   0  0  1  0  0  0  0  0  0  0  0  0
   12.9272  -15.1434   23.2598 O   0  0  0  0  0  0  0  0  0  0  0  0
   11.4492  -16.9924   23.4983 C   0  0  2  0  0  0  0  0  0  0  0  0
   10.0888  -16.5842   23.2924 N   0  0  0  0  0  0  0  0  0  0  0  0
   11.8410  -17.1547   24.9307 C   0  0  0  0  0  0  0  0  0  0  0  0
   10.9547  -16.7665   25.9064 O   0  0  0  0  0  0  0  0  0  0  0  0
   12.9311  -17.6286   25.2855 O   0  0  0  0  0  0  0  0  0  0  0  0
  2  1  1  1
  3  2  1  0
  4  9  2  0
  4  3  1  0
  5  4  1  0
  6  7  1  0
  6  5  2  0
  7  8  2  0
  8  9  1  0
 10 17  1  0
 10  2  1  0
 11 10  2  0
 13 14  1  0
 13 12  1  0
 14 15  1  6
 16 14  1  0
 16 17  1  1
 18 16  1  0
 19 18  2  0
 21 20  1  6
 21 22  1  0
 21 23  1  0
 23 24  1  1
 24 18  1  0
 25 23  1  0
 25 26  1  0
 27 25  2  0
M  END
$$$$
