FIT.pdb
     RDKit          3D

 27 27  0  0  1  0  0  0  0  0999 V2000
    9.2498  -19.0060   27.1226 N   0  0  0  0  0  0  0  0  0  0  0  0
    9.2764  -17.5587   27.1707 C   0  0  1  0  0  0  0  0  0  0  0  0
   10.7013  -17.1359   27.4575 C   0  0  0  0  0  0  0  0  0  0  0  0
   10.6826  -16.1487   28.5691 C   0  0  0  0  0  0  0  0  0  0  0  0
   10.4632  -14.8043   28.3256 C   0  0  0  0  0  0  0  0  0  0  0  0
   10.4408  -13.8674   29.3378 C   0  0  0  0  0  0  0  0  0  0  0  0
   10.6397  -14.2538   30.6386 C   0  0  0  0  0  0  0  0  0  0  0  0
   10.8577  -15.5802   30.8935 C   0  0  0  0  0  0  0  0  0  0  0  0
   10.8811  -16.5235   29.8817 C   0  0  0  0  0  0  0  0  0  0  0  0
    8.8111  -17.0148   25.8784 C   0  0  0  0  0  0  0  0  0  0  0  0
    8.5457  -17.7972   24.9192 O   0  0  0  0  0  0  0  0  0  0  0  0
    6.2040  -12.1924   25.6305 C   0  0  0  0  0  0  0  0  0  0  0  0
    6.4557  -13.6635   25.3997 C   0  0  0  0  0  0  0  0  0  0  0  0
    7.5995  -13.7820   24.4086 C   0  0  2  0  0  0  0  0  0  0  0  0
    7.1645  -13.3561   23.0270 C   0  0  0  0  0  0  0  0  0  0  0  0
    8.1508  -15.1667   24.3462 C   0  0  2  0  0  0  0  0  0  0  0  0
    8.6375  -15.6237   25.6380 N   0  0  0  0  0  0  0  0  0  0  0  0
    9.2796  -15.1859   23.3429 C   0  0  0  0  0  0  0  0  0  0  0  0
   10.3924  -14.6848   23.6199 O   0  0  0  0  0  0  0  0  0  0  0  0
   11.7912  -16.5742   23.0791 C   0  0  0  0  0  0  0  0  0  0  0  0
   11.1174  -17.1931   21.9008 C   0  0  1  0  0  0  0  0  0  0  0  0
   10.5436  -18.3962   22.3186 O   0  0  0  0  0  0  0  0  0  0  0  0
   10.1264  -16.3265   21.2221 C   0  0  2  0  0  0  0  0  0  0  0  0
    9.1034  -15.7728   22.0627 N   0  0  0  0  0  0  0  0  0  0  0  0
    9.6398  -16.8470   19.9091 C   0  0  0  0  0  0  0  0  0  0  0  0
   10.5568  -17.1011   18.9179 O   0  0  0  0  0  0  0  0  0  0  0  0
    8.4426  -17.0660   19.6686 O   0  0  0  0  0  0  0  0  0  0  0  0
  2  1  1  6
  3  2  1  0
  4  9  2  0
  4  3  1  0
  5  4  1  0
  6  7  1  0
  6  5  2  0
  7  8  2  0
  8  9  1  0
 10 17  1  0
 10  2  1  0
 11 10  2  0
 13 14  1  0
 13 12  1  0
 14 15  1  6
 16 14  1  0
 16 17  1  1
 18 16  1  0
 19 18  2  0
 21 20  1  1
 21 22  1  0
 21 23  1  0
 23 24  1  1
 24 18  1  0
 25 23  1  0
 25 26  1  0
 27 25  2  0
M  END
$$$$
