FIT.pdb
     RDKit          3D

 27 27  0  0  1  0  0  0  0  0999 V2000
    5.5972  -17.8691   25.1713 N   0  0  0  0  0  0  0  0  0  0  0  0
    6.0524  -16.4960   25.1001 C   0  0  1  0  0  0  0  0  0  0  0  0
    6.4715  -16.0794   26.4937 C   0  0  0  0  0  0  0  0  0  0  0  0
    6.6357  -14.6018   26.5117 C   0  0  0  0  0  0  0  0  0  0  0  0
    5.5384  -13.7612   26.4482 C   0  0  0  0  0  0  0  0  0  0  0  0
    5.6622  -12.3874   26.4631 C   0  0  0  0  0  0  0  0  0  0  0  0
    6.9029  -11.8084   26.5428 C   0  0  0  0  0  0  0  0  0  0  0  0
    7.9966  -12.6280   26.6061 C   0  0  0  0  0  0  0  0  0  0  0  0
    7.8774  -14.0062   26.5915 C   0  0  0  0  0  0  0  0  0  0  0  0
    7.1837  -16.4010   24.1548 C   0  0  0  0  0  0  0  0  0  0  0  0
    7.9969  -17.3643   24.0395 O   0  0  0  0  0  0  0  0  0  0  0  0
    7.1340  -12.4575   20.1982 C   0  0  0  0  0  0  0  0  0  0  0  0
    7.0703  -13.7954   20.8960 C   0  0  0  0  0  0  0  0  0  0  0  0
    8.4504  -14.0840   21.4587 C   0  0  2  0  0  0  0  0  0  0  0  0
    9.4620  -14.2527   20.3508 C   0  0  0  0  0  0  0  0  0  0  0  0
    8.4634  -15.2974   22.3264 C   0  0  2  0  0  0  0  0  0  0  0  0
    7.4228  -15.2590   23.3414 N   0  0  0  0  0  0  0  0  0  0  0  0
    9.8166  -15.3944   22.9903 C   0  0  0  0  0  0  0  0  0  0  0  0
   10.2333  -14.4780   23.7338 O   0  0  0  0  0  0  0  0  0  0  0  0
   11.2131  -18.3348   25.1960 C   0  0  0  0  0  0  0  0  0  0  0  0
   12.1036  -18.0899   24.0245 C   0  0  1  0  0  0  0  0  0  0  0  0
   11.9144  -19.1348   23.1170 O   0  0  0  0  0  0  0  0  0  0  0  0
   11.9322  -16.7699   23.3752 C   0  0  2  0  0  0  0  0  0  0  0  0
   10.6463  -16.5276   22.7856 N   0  0  0  0  0  0  0  0  0  0  0  0
   13.0920  -16.3299   22.5427 C   0  0  0  0  0  0  0  0  0  0  0  0
   12.9240  -16.2139   21.1839 O   0  0  0  0  0  0  0  0  0  0  0  0
   14.2044  -16.0588   23.0200 O   0  0  0  0  0  0  0  0  0  0  0  0
  2  1  1  1
  3  2  1  0
  4  9  2  0
  4  3  1  0
  5  4  1  0
  6  7  1  0
  6  5  2  0
  7  8  2  0
  8  9  1  0
 10 17  1  0
 10  2  1  0
 11 10  2  0
 13 14  1  0
 13 12  1  0
 14 15  1  6
 16 14  1  0
 16 17  1  1
 18 16  1  0
 19 18  2  0
 21 20  1  1
 21 22  1  0
 21 23  1  0
 23 24  1  6
 24 18  1  0
 25 23  1  0
 25 26  1  0
 27 25  2  0
M  END
$$$$
