FIT.pdb
     RDKit          3D

 27 27  0  0  1  0  0  0  0  0999 V2000
    8.2482  -19.4096   27.5119 N   0  0  0  0  0  0  0  0  0  0  0  0
    8.4970  -17.9929   27.6810 C   0  0  1  0  0  0  0  0  0  0  0  0
    9.9049  -17.8355   28.2143 C   0  0  0  0  0  0  0  0  0  0  0  0
   10.0500  -16.4582   28.7553 C   0  0  0  0  0  0  0  0  0  0  0  0
    9.7606  -16.1776   30.0790 C   0  0  0  0  0  0  0  0  0  0  0  0
    9.8863  -14.9093   30.6067 C   0  0  0  0  0  0  0  0  0  0  0  0
   10.3104  -13.8728   29.8150 C   0  0  0  0  0  0  0  0  0  0  0  0
   10.6000  -14.1363   28.5041 C   0  0  0  0  0  0  0  0  0  0  0  0
   10.4755  -15.4066   27.9704 C   0  0  0  0  0  0  0  0  0  0  0  0
    8.3417  -17.3074   26.3816 C   0  0  0  0  0  0  0  0  0  0  0  0
    8.5015  -17.9495   25.3023 O   0  0  0  0  0  0  0  0  0  0  0  0
    7.4824  -11.6440   25.6684 C   0  0  0  0  0  0  0  0  0  0  0  0
    8.1241  -13.0110   25.6915 C   0  0  0  0  0  0  0  0  0  0  0  0
    7.1477  -13.9855   25.0581 C   0  0  2  0  0  0  0  0  0  0  0  0
    5.8507  -14.0304   25.8296 C   0  0  0  0  0  0  0  0  0  0  0  0
    7.7099  -15.3638   24.9596 C   0  0  2  0  0  0  0  0  0  0  0  0
    8.0138  -15.9284   26.2648 N   0  0  0  0  0  0  0  0  0  0  0  0
    8.9679  -15.3072   24.1257 C   0  0  0  0  0  0  0  0  0  0  0  0
    9.9727  -14.6756   24.5228 O   0  0  0  0  0  0  0  0  0  0  0  0
   11.5604  -17.6859   23.2552 C   0  0  0  0  0  0  0  0  0  0  0  0
   10.9037  -17.3129   21.9688 C   0  0  1  0  0  0  0  0  0  0  0  0
   10.0711  -18.3690   21.5911 O   0  0  0  0  0  0  0  0  0  0  0  0
   10.1708  -16.0261   21.9921 C   0  0  2  0  0  0  0  0  0  0  0  0
    9.0387  -15.9695   22.8723 N   0  0  0  0  0  0  0  0  0  0  0  0
    9.9465  -15.4126   20.6486 C   0  0  0  0  0  0  0  0  0  0  0  0
   11.0321  -15.1787   19.8393 O   0  0  0  0  0  0  0  0  0  0  0  0
    8.8225  -15.1055   20.2230 O   0  0  0  0  0  0  0  0  0  0  0  0
  2  1  1  6
  3  2  1  0
  4  9  2  0
  4  3  1  0
  5  4  1  0
  6  7  1  0
  6  5  2  0
  7  8  2  0
  8  9  1  0
 10 17  1  0
 10  2  1  0
 11 10  2  0
 13 14  1  0
 13 12  1  0
 14 15  1  1
 16 14  1  0
 16 17  1  1
 18 16  1  0
 19 18  2  0
 21 20  1  1
 21 22  1  0
 21 23  1  0
 23 24  1  6
 24 18  1  0
 25 23  1  0
 25 26  1  0
 27 25  2  0
M  END
$$$$
