WVQ.pdb
     RDKit          3D

 31 32  0  0  1  0  0  0  0  0999 V2000
   27.7998  -21.1394  -16.3568 N   0  0  0  0  0  0  0  0  0  0  0  0
   27.3594  -20.3234  -15.2691 C   0  0  1  0  0  0  0  0  0  0  0  0
   26.5801  -19.1294  -15.7192 C   0  0  0  0  0  0  0  0  0  0  0  0
   27.2431  -18.2845  -16.7262 C   0  0  0  0  0  0  0  0  0  0  0  0
   26.6353  -17.6743  -17.8393 C   0  0  0  0  0  0  0  0  0  0  0  0
   27.5450  -16.9613  -18.5182 N   0  0  0  0  0  0  0  0  0  0  0  0
   28.7471  -17.0554  -17.9222 C   0  0  0  0  0  0  0  0  0  0  0  0
   29.9732  -16.5111  -18.2505 C   0  0  0  0  0  0  0  0  0  0  0  0
   31.0695  -16.7769  -17.4637 C   0  0  0  0  0  0  0  0  0  0  0  0
   30.9108  -17.5830  -16.3651 C   0  0  0  0  0  0  0  0  0  0  0  0
   29.6795  -18.1165  -16.0537 C   0  0  0  0  0  0  0  0  0  0  0  0
   28.5555  -17.8770  -16.8117 C   0  0  0  0  0  0  0  0  0  0  0  0
   26.5519  -21.1376  -14.2983 C   0  0  0  0  0  0  0  0  0  0  0  0
   26.0344  -22.2193  -14.7113 O   0  0  0  0  0  0  0  0  0  0  0  0
   25.6237  -19.5767  -10.4160 C   0  0  0  0  0  0  0  0  0  0  0  0
   25.7854  -21.0732  -10.6585 C   0  0  2  0  0  0  0  0  0  0  0  0
   27.2268  -21.3895  -10.4000 C   0  0  0  0  0  0  0  0  0  0  0  0
   25.4607  -21.4115  -12.1067 C   0  0  2  0  0  0  0  0  0  0  0  0
   26.4075  -20.6584  -12.9722 N   0  0  0  0  0  0  0  0  0  0  0  0
   24.1158  -20.8378  -12.3946 C   0  0  0  0  0  0  0  0  0  0  0  0
   24.0938  -19.6621  -12.9244 O   0  0  0  0  0  0  0  0  0  0  0  0
   20.7668  -22.9890  -16.3814 N   0  0  0  0  0  0  0  0  0  0  0  0
   19.8328  -21.9707  -15.9253 C   0  0  0  0  0  0  0  0  0  0  0  0
   18.8147  -21.8088  -16.6168 O   0  0  0  0  0  0  0  0  0  0  0  0
   20.1244  -21.2070  -14.7235 C   0  0  0  0  0  0  0  0  0  0  0  0
   21.3967  -21.5434  -14.0378 C   0  0  0  0  0  0  0  0  0  0  0  0
   21.6500  -20.8599  -12.7137 C   0  0  2  0  0  0  0  0  0  0  0  0
   22.8892  -21.4668  -12.1427 N   0  0  0  0  0  0  0  0  0  0  0  0
   20.6042  -20.9985  -11.7034 C   0  0  0  0  0  0  0  0  0  0  0  0
   20.7596  -21.7558  -10.6866 O   0  0  0  0  0  0  0  0  0  0  0  0
   19.4140  -20.3176  -11.8112 O   0  0  0  0  0  0  0  0  0  0  0  0
  2  1  1  6
  2 13  1  0
  3  2  1  0
  4  5  2  0
  4  3  1  0
  6  5  1  0
  7 12  2  0
  7  6  1  0
  8  7  1  0
  9 10  1  0
  9  8  2  0
 10 11  2  0
 11 12  1  0
 12  4  1  0
 13 14  2  0
 16 18  1  0
 16 15  1  6
 16 17  1  0
 19 13  1  0
 18 19  1  6
 20 18  1  0
 20 21  2  0
 22 23  1  0
 23 25  1  0
 24 23  2  0
 25 26  1  0
 27 26  1  6
 27 29  1  0
 27 28  1  0
 28 20  1  0
 29 31  1  0
 30 29  2  0
M  END
$$$$
