WVQ.pdb
     RDKit          3D

 31 32  0  0  1  0  0  0  0  0999 V2000
   23.1007  -20.3345  -15.4018 N   0  0  0  0  0  0  0  0  0  0  0  0
   22.9391  -21.4534  -14.5270 C   0  0  1  0  0  0  0  0  0  0  0  0
   24.1979  -21.8091  -13.8030 C   0  0  0  0  0  0  0  0  0  0  0  0
   25.2882  -22.3259  -14.6467 C   0  0  0  0  0  0  0  0  0  0  0  0
   26.3214  -21.5728  -15.2349 C   0  0  0  0  0  0  0  0  0  0  0  0
   27.1449  -22.3849  -15.9124 N   0  0  0  0  0  0  0  0  0  0  0  0
   26.7234  -23.6586  -15.8159 C   0  0  0  0  0  0  0  0  0  0  0  0
   27.2314  -24.8300  -16.3424 C   0  0  0  0  0  0  0  0  0  0  0  0
   26.5907  -26.0219  -16.0964 C   0  0  0  0  0  0  0  0  0  0  0  0
   25.4546  -26.0114  -15.3276 C   0  0  0  0  0  0  0  0  0  0  0  0
   24.9633  -24.8327  -14.8109 C   0  0  0  0  0  0  0  0  0  0  0  0
   25.5717  -23.6174  -15.0305 C   0  0  0  0  0  0  0  0  0  0  0  0
   21.8292  -21.1952  -13.5478 C   0  0  0  0  0  0  0  0  0  0  0  0
   21.6695  -20.0104  -13.1244 O   0  0  0  0  0  0  0  0  0  0  0  0
   18.1343  -22.1771  -14.1287 C   0  0  0  0  0  0  0  0  0  0  0  0
   18.8412  -21.2019  -13.1939 C   0  0  2  0  0  0  0  0  0  0  0  0
   19.5927  -20.2468  -14.0699 C   0  0  0  0  0  0  0  0  0  0  0  0
   19.8346  -21.9433  -12.3105 C   0  0  2  0  0  0  0  0  0  0  0  0
   21.0175  -22.2852  -13.1452 N   0  0  0  0  0  0  0  0  0  0  0  0
   19.2084  -23.2478  -11.9544 C   0  0  0  0  0  0  0  0  0  0  0  0
   19.2634  -24.1751  -12.8491 O   0  0  0  0  0  0  0  0  0  0  0  0
   18.0548  -25.3568   -6.2097 N   0  0  0  0  0  0  0  0  0  0  0  0
   19.2963  -24.9751   -6.8656 C   0  0  0  0  0  0  0  0  0  0  0  0
   20.2735  -24.7834   -6.1246 O   0  0  0  0  0  0  0  0  0  0  0  0
   19.3372  -24.8329   -8.3115 C   0  0  0  0  0  0  0  0  0  0  0  0
   18.0844  -25.1753   -9.0294 C   0  0  0  0  0  0  0  0  0  0  0  0
   18.0754  -24.9349  -10.5217 C   0  0  2  0  0  0  0  0  0  0  0  0
   18.5760  -23.5450  -10.7397 N   0  0  0  0  0  0  0  0  0  0  0  0
   16.7770  -25.0281  -11.1843 C   0  0  0  0  0  0  0  0  0  0  0  0
   16.0903  -23.9842  -11.4490 O   0  0  0  0  0  0  0  0  0  0  0  0
   16.2476  -26.2445  -11.5475 O   0  0  0  0  0  0  0  0  0  0  0  0
  2  1  1  1
  2 13  1  0
  3  2  1  0
  4  5  2  0
  4  3  1  0
  6  5  1  0
  7 12  2  0
  7  6  1  0
  8  7  1  0
  9 10  1  0
  9  8  2  0
 10 11  2  0
 11 12  1  0
 12  4  1  0
 13 14  2  0
 16 18  1  0
 16 15  1  6
 16 17  1  0
 19 13  1  0
 18 19  1  6
 20 18  1  0
 20 21  2  0
 22 23  1  0
 23 25  1  0
 24 23  2  0
 25 26  1  0
 27 26  1  1
 27 29  1  0
 27 28  1  0
 28 20  1  0
 29 31  1  0
 30 29  2  0
M  END
$$$$
