WVQ.pdb
     RDKit          3D

 31 32  0  0  1  0  0  0  0  0999 V2000
   28.5075  -21.1651  -15.6146 N   0  0  0  0  0  0  0  0  0  0  0  0
   27.4431  -20.3557  -15.1097 C   0  0  1  0  0  0  0  0  0  0  0  0
   26.5943  -19.7729  -16.1938 C   0  0  0  0  0  0  0  0  0  0  0  0
   27.1528  -18.5885  -16.8666 C   0  0  0  0  0  0  0  0  0  0  0  0
   27.6217  -18.5208  -18.1918 C   0  0  0  0  0  0  0  0  0  0  0  0
   28.0334  -17.2746  -18.4639 N   0  0  0  0  0  0  0  0  0  0  0  0
   27.8689  -16.4861  -17.3867 C   0  0  0  0  0  0  0  0  0  0  0  0
   28.1501  -15.1494  -17.1831 C   0  0  0  0  0  0  0  0  0  0  0  0
   27.8902  -14.5769  -15.9598 C   0  0  0  0  0  0  0  0  0  0  0  0
   27.3540  -15.3588  -14.9684 C   0  0  0  0  0  0  0  0  0  0  0  0
   27.0799  -16.6904  -15.1907 C   0  0  0  0  0  0  0  0  0  0  0  0
   27.3229  -17.3048  -16.3985 C   0  0  0  0  0  0  0  0  0  0  0  0
   26.5965  -21.1440  -14.1511 C   0  0  0  0  0  0  0  0  0  0  0  0
   26.4694  -22.3899  -14.3514 O   0  0  0  0  0  0  0  0  0  0  0  0
   24.5515  -21.5727   -9.7539 C   0  0  0  0  0  0  0  0  0  0  0  0
   25.5488  -20.9663  -10.7348 C   0  0  2  0  0  0  0  0  0  0  0  0
   25.4859  -19.4825  -10.5379 C   0  0  0  0  0  0  0  0  0  0  0  0
   25.1443  -21.2891  -12.1663 C   0  0  2  0  0  0  0  0  0  0  0  0
   25.9820  -20.4590  -13.0730 N   0  0  0  0  0  0  0  0  0  0  0  0
   23.7509  -20.7920  -12.3455 C   0  0  0  0  0  0  0  0  0  0  0  0
   23.5820  -19.5155  -12.2713 O   0  0  0  0  0  0  0  0  0  0  0  0
   19.3491  -23.0236  -16.1205 N   0  0  0  0  0  0  0  0  0  0  0  0
   20.1266  -23.7928  -15.1608 C   0  0  0  0  0  0  0  0  0  0  0  0
   20.1473  -25.0224  -15.3291 O   0  0  0  0  0  0  0  0  0  0  0  0
   20.8180  -23.1126  -14.0782 C   0  0  0  0  0  0  0  0  0  0  0  0
   20.7352  -21.6311  -14.0896 C   0  0  0  0  0  0  0  0  0  0  0  0
   21.3301  -20.9136  -12.8995 C   0  0  2  0  0  0  0  0  0  0  0  0
   22.6247  -21.5897  -12.5887 N   0  0  0  0  0  0  0  0  0  0  0  0
   20.5374  -20.9283  -11.6726 C   0  0  0  0  0  0  0  0  0  0  0  0
   20.8664  -21.6595  -10.6784 O   0  0  0  0  0  0  0  0  0  0  0  0
   19.4079  -20.1541  -11.5443 O   0  0  0  0  0  0  0  0  0  0  0  0
  2  1  1  6
  2 13  1  0
  3  2  1  0
  4  5  2  0
  4  3  1  0
  6  5  1  0
  7 12  2  0
  7  6  1  0
  8  7  1  0
  9 10  1  0
  9  8  2  0
 10 11  2  0
 11 12  1  0
 12  4  1  0
 13 14  2  0
 16 18  1  0
 16 15  1  1
 16 17  1  0
 19 13  1  0
 18 19  1  6
 20 18  1  0
 20 21  2  0
 22 23  1  0
 23 25  1  0
 24 23  2  0
 25 26  1  0
 27 26  1  6
 27 29  1  0
 27 28  1  0
 28 20  1  0
 29 31  1  0
 30 29  2  0
M  END
$$$$
