WVQ.pdb
     RDKit          3D

 31 32  0  0  1  0  0  0  0  0999 V2000
   27.9760  -22.3782  -10.4891 N   0  0  0  0  0  0  0  0  0  0  0  0
   27.0953  -21.2866  -10.2138 C   0  0  1  0  0  0  0  0  0  0  0  0
   27.7960  -20.1180   -9.5982 C   0  0  0  0  0  0  0  0  0  0  0  0
   28.5511  -20.4096   -8.3685 C   0  0  0  0  0  0  0  0  0  0  0  0
   29.7410  -21.1549   -8.2726 C   0  0  0  0  0  0  0  0  0  0  0  0
   30.1528  -21.1894   -6.9975 N   0  0  0  0  0  0  0  0  0  0  0  0
   29.3001  -20.5030   -6.2159 C   0  0  0  0  0  0  0  0  0  0  0  0
   29.2986  -20.2666   -4.8552 C   0  0  0  0  0  0  0  0  0  0  0  0
   28.2845  -19.5270   -4.2931 C   0  0  0  0  0  0  0  0  0  0  0  0
   27.2945  -19.0412   -5.1091 C   0  0  0  0  0  0  0  0  0  0  0  0
   27.3134  -19.2873   -6.4644 C   0  0  0  0  0  0  0  0  0  0  0  0
   28.3083  -20.0214   -7.0699 C   0  0  0  0  0  0  0  0  0  0  0  0
   26.3784  -20.8650  -11.4651 C   0  0  0  0  0  0  0  0  0  0  0  0
   27.0557  -20.3141  -12.3850 O   0  0  0  0  0  0  0  0  0  0  0  0
   23.2747  -22.9908  -12.5521 C   0  0  0  0  0  0  0  0  0  0  0  0
   23.9527  -22.0512  -13.5430 C   0  0  2  0  0  0  0  0  0  0  0  0
   25.1950  -22.7496  -14.0049 C   0  0  0  0  0  0  0  0  0  0  0  0
   24.3469  -20.7524  -12.8541 C   0  0  2  0  0  0  0  0  0  0  0  0
   24.9840  -21.1020  -11.5561 N   0  0  0  0  0  0  0  0  0  0  0  0
   23.0821  -20.0484  -12.5000 C   0  0  0  0  0  0  0  0  0  0  0  0
   22.3416  -20.6116  -11.6067 O   0  0  0  0  0  0  0  0  0  0  0  0
   18.2085  -17.6381  -14.1842 N   0  0  0  0  0  0  0  0  0  0  0  0
   19.0071  -16.4256  -14.2810 C   0  0  0  0  0  0  0  0  0  0  0  0
   18.3877  -15.3521  -14.2132 O   0  0  0  0  0  0  0  0  0  0  0  0
   20.4473  -16.5192  -14.4536 C   0  0  0  0  0  0  0  0  0  0  0  0
   20.9983  -17.8939  -14.5457 C   0  0  0  0  0  0  0  0  0  0  0  0
   21.1730  -18.6388  -13.2420 C   0  0  2  0  0  0  0  0  0  0  0  0
   22.6405  -18.8375  -13.0497 N   0  0  0  0  0  0  0  0  0  0  0  0
   20.5512  -19.9581  -13.1622 C   0  0  0  0  0  0  0  0  0  0  0  0
   20.9663  -20.9320  -13.8769 O   0  0  0  0  0  0  0  0  0  0  0  0
   19.4959  -20.1988  -12.3136 O   0  0  0  0  0  0  0  0  0  0  0  0
  2  1  1  6
  2 13  1  0
  3  2  1  0
  4  5  2  0
  4  3  1  0
  6  5  1  0
  7 12  2  0
  7  6  1  0
  8  7  1  0
  9 10  1  0
  9  8  2  0
 10 11  2  0
 11 12  1  0
 12  4  1  0
 13 14  2  0
 16 18  1  0
 16 15  1  1
 16 17  1  0
 19 13  1  0
 18 19  1  1
 20 18  1  0
 20 21  2  0
 22 23  1  0
 23 25  1  0
 24 23  2  0
 25 26  1  0
 27 26  1  6
 27 29  1  0
 27 28  1  0
 28 20  1  0
 29 31  1  0
 30 29  2  0
M  END
$$$$
