WVQ.pdb
     RDKit          3D

 31 32  0  0  1  0  0  0  0  0999 V2000
   28.3796  -21.8517  -16.3487 N   0  0  0  0  0  0  0  0  0  0  0  0
   27.6683  -20.8135  -15.6711 C   0  0  1  0  0  0  0  0  0  0  0  0
   26.8280  -19.9897  -16.5935 C   0  0  0  0  0  0  0  0  0  0  0  0
   27.3654  -18.6583  -16.9191 C   0  0  0  0  0  0  0  0  0  0  0  0
   28.1504  -18.3222  -18.0377 C   0  0  0  0  0  0  0  0  0  0  0  0
   28.4337  -17.0123  -18.0156 N   0  0  0  0  0  0  0  0  0  0  0  0
   27.8798  -16.4361  -16.9338 C   0  0  0  0  0  0  0  0  0  0  0  0
   27.9008  -15.1304  -16.4842 C   0  0  0  0  0  0  0  0  0  0  0  0
   27.2490  -14.8002  -15.3190 C   0  0  0  0  0  0  0  0  0  0  0  0
   26.5909  -15.7879  -14.6310 C   0  0  0  0  0  0  0  0  0  0  0  0
   26.5810  -17.0847  -15.0956 C   0  0  0  0  0  0  0  0  0  0  0  0
   27.2187  -17.4603  -16.2565 C   0  0  0  0  0  0  0  0  0  0  0  0
   26.8232  -21.3907  -14.5711 C   0  0  0  0  0  0  0  0  0  0  0  0
   26.1876  -22.4628  -14.8059 O   0  0  0  0  0  0  0  0  0  0  0  0
   25.4510  -21.3678   -9.8469 C   0  0  0  0  0  0  0  0  0  0  0  0
   26.4652  -21.0563  -10.9418 C   0  0  2  0  0  0  0  0  0  0  0  0
   26.8181  -19.6081  -10.7910 C   0  0  0  0  0  0  0  0  0  0  0  0
   25.8426  -21.2695  -12.3144 C   0  0  2  0  0  0  0  0  0  0  0  0
   26.7767  -20.7107  -13.3284 N   0  0  0  0  0  0  0  0  0  0  0  0
   24.6268  -20.4101  -12.3769 C   0  0  0  0  0  0  0  0  0  0  0  0
   24.7932  -19.2101  -12.8195 O   0  0  0  0  0  0  0  0  0  0  0  0
   21.2923  -23.1588  -15.5193 N   0  0  0  0  0  0  0  0  0  0  0  0
   20.7952  -21.8360  -15.8662 C   0  0  0  0  0  0  0  0  0  0  0  0
   19.8706  -21.7953  -16.6933 O   0  0  0  0  0  0  0  0  0  0  0  0
   21.3867  -20.6572  -15.2552 C   0  0  0  0  0  0  0  0  0  0  0  0
   22.4379  -20.9150  -14.2401 C   0  0  0  0  0  0  0  0  0  0  0  0
   22.1872  -20.3635  -12.8552 C   0  0  2  0  0  0  0  0  0  0  0  0
   23.3333  -20.7974  -12.0019 N   0  0  0  0  0  0  0  0  0  0  0  0
   20.9673  -20.8145  -12.1902 C   0  0  0  0  0  0  0  0  0  0  0  0
   19.9230  -20.0803  -12.1498 O   0  0  0  0  0  0  0  0  0  0  0  0
   20.9000  -22.0472  -11.5838 O   0  0  0  0  0  0  0  0  0  0  0  0
  2  1  1  6
  2 13  1  0
  3  2  1  0
  4  5  2  0
  4  3  1  0
  6  5  1  0
  7 12  2  0
  7  6  1  0
  8  7  1  0
  9 10  1  0
  9  8  2  0
 10 11  2  0
 11 12  1  0
 12  4  1  0
 13 14  2  0
 16 18  1  0
 16 15  1  1
 16 17  1  0
 19 13  1  0
 18 19  1  6
 20 18  1  0
 20 21  2  0
 22 23  1  0
 23 25  1  0
 24 23  2  0
 25 26  1  0
 27 26  1  6
 27 29  1  0
 27 28  1  0
 28 20  1  0
 29 31  1  0
 30 29  2  0
M  END
$$$$
