WVQ.pdb
     RDKit          3D

 31 32  0  0  1  0  0  0  0  0999 V2000
   27.8861  -21.2540  -12.9984 N   0  0  0  0  0  0  0  0  0  0  0  0
   26.4652  -21.1038  -12.9622 C   0  0  1  0  0  0  0  0  0  0  0  0
   26.0382  -19.6990  -12.6799 C   0  0  0  0  0  0  0  0  0  0  0  0
   26.3211  -19.2134  -11.3192 C   0  0  0  0  0  0  0  0  0  0  0  0
   26.7234  -17.9134  -10.9602 C   0  0  0  0  0  0  0  0  0  0  0  0
   26.8629  -17.8333   -9.6295 N   0  0  0  0  0  0  0  0  0  0  0  0
   26.5756  -19.0179   -9.0608 C   0  0  0  0  0  0  0  0  0  0  0  0
   26.5844  -19.4219   -7.7401 C   0  0  0  0  0  0  0  0  0  0  0  0
   26.2526  -20.7180   -7.4217 C   0  0  0  0  0  0  0  0  0  0  0  0
   25.9196  -21.5798   -8.4359 C   0  0  0  0  0  0  0  0  0  0  0  0
   25.9162  -21.1581   -9.7473 C   0  0  0  0  0  0  0  0  0  0  0  0
   26.2405  -19.8708  -10.1121 C   0  0  0  0  0  0  0  0  0  0  0  0
   25.8557  -21.5859  -14.2480 C   0  0  0  0  0  0  0  0  0  0  0  0
   26.4676  -21.3351  -15.3302 O   0  0  0  0  0  0  0  0  0  0  0  0
   23.4529  -24.7119  -14.0381 C   0  0  0  0  0  0  0  0  0  0  0  0
   23.9780  -24.2957  -15.4076 C   0  0  2  0  0  0  0  0  0  0  0  0
   25.3458  -24.8935  -15.5350 C   0  0  0  0  0  0  0  0  0  0  0  0
   24.0950  -22.7802  -15.4900 C   0  0  2  0  0  0  0  0  0  0  0  0
   24.6297  -22.2947  -14.1895 N   0  0  0  0  0  0  0  0  0  0  0  0
   22.7078  -22.2425  -15.5757 C   0  0  0  0  0  0  0  0  0  0  0  0
   22.1014  -22.0355  -14.4563 O   0  0  0  0  0  0  0  0  0  0  0  0
   20.0601  -17.7404  -17.0213 N   0  0  0  0  0  0  0  0  0  0  0  0
   18.9247  -18.4758  -17.5573 C   0  0  0  0  0  0  0  0  0  0  0  0
   17.8534  -17.8536  -17.6349 O   0  0  0  0  0  0  0  0  0  0  0  0
   19.0856  -19.8631  -17.9598 C   0  0  0  0  0  0  0  0  0  0  0  0
   20.4456  -20.4314  -17.7882 C   0  0  0  0  0  0  0  0  0  0  0  0
   20.6263  -21.4173  -16.6567 C   0  0  2  0  0  0  0  0  0  0  0  0
   22.0197  -21.9442  -16.7594 N   0  0  0  0  0  0  0  0  0  0  0  0
   19.7335  -22.5734  -16.6571 C   0  0  0  0  0  0  0  0  0  0  0  0
   20.0589  -23.6634  -17.2380 O   0  0  0  0  0  0  0  0  0  0  0  0
   18.5097  -22.5293  -16.0308 O   0  0  0  0  0  0  0  0  0  0  0  0
  2  1  1  6
  2 13  1  0
  3  2  1  0
  4  5  2  0
  4  3  1  0
  6  5  1  0
  7 12  2  0
  7  6  1  0
  8  7  1  0
  9 10  1  0
  9  8  2  0
 10 11  2  0
 11 12  1  0
 12  4  1  0
 13 14  2  0
 16 18  1  0
 16 15  1  1
 16 17  1  0
 19 13  1  0
 18 19  1  1
 20 18  1  0
 20 21  2  0
 22 23  1  0
 23 25  1  0
 24 23  2  0
 25 26  1  0
 27 26  1  6
 27 29  1  0
 27 28  1  0
 28 20  1  0
 29 31  1  0
 30 29  2  0
M  END
$$$$
