WVQ.pdb
     RDKit          3D

 31 32  0  0  1  0  0  0  0  0999 V2000
   28.2239  -20.8648   -9.8826 N   0  0  0  0  0  0  0  0  0  0  0  0
   26.8013  -20.9849   -9.8121 C   0  0  1  0  0  0  0  0  0  0  0  0
   26.1939  -20.0817   -8.7871 C   0  0  0  0  0  0  0  0  0  0  0  0
   27.0973  -19.6543   -7.7060 C   0  0  0  0  0  0  0  0  0  0  0  0
   27.7173  -18.3971   -7.5801 C   0  0  0  0  0  0  0  0  0  0  0  0
   28.4483  -18.3627   -6.4571 N   0  0  0  0  0  0  0  0  0  0  0  0
   28.3582  -19.5377   -5.8088 C   0  0  0  0  0  0  0  0  0  0  0  0
   28.9311  -19.9761   -4.6310 C   0  0  0  0  0  0  0  0  0  0  0  0
   28.6799  -21.2525   -4.1847 C   0  0  0  0  0  0  0  0  0  0  0  0
   27.8594  -22.0604   -4.9304 C   0  0  0  0  0  0  0  0  0  0  0  0
   27.2969  -21.6051   -6.1025 C   0  0  0  0  0  0  0  0  0  0  0  0
   27.5198  -20.3357   -6.5867 C   0  0  0  0  0  0  0  0  0  0  0  0
   26.1879  -20.7313  -11.1600 C   0  0  0  0  0  0  0  0  0  0  0  0
   26.7457  -19.8831  -11.9203 O   0  0  0  0  0  0  0  0  0  0  0  0
   23.9169  -23.6019  -12.7569 C   0  0  0  0  0  0  0  0  0  0  0  0
   24.4352  -22.4737  -13.6418 C   0  0  2  0  0  0  0  0  0  0  0  0
   25.8374  -22.8428  -14.0188 C   0  0  0  0  0  0  0  0  0  0  0  0
   24.4639  -21.1646  -12.8656 C   0  0  2  0  0  0  0  0  0  0  0  0
   25.0188  -21.4496  -11.5151 N   0  0  0  0  0  0  0  0  0  0  0  0
   23.0466  -20.7649  -12.6374 C   0  0  0  0  0  0  0  0  0  0  0  0
   22.5711  -20.9810  -11.4581 O   0  0  0  0  0  0  0  0  0  0  0  0
   21.3668  -16.0281  -14.5897 N   0  0  0  0  0  0  0  0  0  0  0  0
   20.2224  -16.1778  -13.7036 C   0  0  0  0  0  0  0  0  0  0  0  0
   19.7532  -15.1310  -13.2295 O   0  0  0  0  0  0  0  0  0  0  0  0
   19.6984  -17.5026  -13.4154 C   0  0  0  0  0  0  0  0  0  0  0  0
   20.4087  -18.6327  -14.0638 C   0  0  0  0  0  0  0  0  0  0  0  0
   20.8287  -19.7710  -13.1623 C   0  0  2  0  0  0  0  0  0  0  0  0
   22.2011  -20.1772  -13.5879 N   0  0  0  0  0  0  0  0  0  0  0  0
   19.9973  -20.9713  -13.2056 C   0  0  0  0  0  0  0  0  0  0  0  0
   20.2425  -21.9194  -14.0257 O   0  0  0  0  0  0  0  0  0  0  0  0
   18.9203  -21.1234  -12.3637 O   0  0  0  0  0  0  0  0  0  0  0  0
  2  1  1  6
  2 13  1  0
  3  2  1  0
  4  5  2  0
  4  3  1  0
  6  5  1  0
  7 12  2  0
  7  6  1  0
  8  7  1  0
  9 10  1  0
  9  8  2  0
 10 11  2  0
 11 12  1  0
 12  4  1  0
 13 14  2  0
 16 18  1  0
 16 15  1  1
 16 17  1  0
 19 13  1  0
 18 19  1  1
 20 18  1  0
 20 21  2  0
 22 23  1  0
 23 25  1  0
 24 23  2  0
 25 26  1  0
 27 26  1  6
 27 29  1  0
 27 28  1  0
 28 20  1  0
 29 31  1  0
 30 29  2  0
M  END
$$$$
