WVQ.pdb
     RDKit          3D

 31 32  0  0  1  0  0  0  0  0999 V2000
   28.1585  -20.0467   -9.8285 N   0  0  0  0  0  0  0  0  0  0  0  0
   26.8538  -20.6027   -9.6504 C   0  0  1  0  0  0  0  0  0  0  0  0
   26.1059  -19.9740   -8.5185 C   0  0  0  0  0  0  0  0  0  0  0  0
   26.9403  -19.4228   -7.4380 C   0  0  0  0  0  0  0  0  0  0  0  0
   27.2060  -18.0622   -7.1957 C   0  0  0  0  0  0  0  0  0  0  0  0
   27.9842  -17.9384   -6.1114 N   0  0  0  0  0  0  0  0  0  0  0  0
   28.2640  -19.1508   -5.6004 C   0  0  0  0  0  0  0  0  0  0  0  0
   29.0220  -19.5281   -4.5093 C   0  0  0  0  0  0  0  0  0  0  0  0
   29.1591  -20.8619   -4.2031 C   0  0  0  0  0  0  0  0  0  0  0  0
   28.5325  -21.7871   -4.9989 C   0  0  0  0  0  0  0  0  0  0  0  0
   27.7803  -21.3913   -6.0829 C   0  0  0  0  0  0  0  0  0  0  0  0
   27.6151  -20.0683   -6.4262 C   0  0  0  0  0  0  0  0  0  0  0  0
   26.0617  -20.4953  -10.9225 C   0  0  0  0  0  0  0  0  0  0  0  0
   26.2613  -19.4885  -11.6675 O   0  0  0  0  0  0  0  0  0  0  0  0
   26.0254  -22.9471  -13.7546 C   0  0  0  0  0  0  0  0  0  0  0  0
   24.5990  -22.7618  -13.2490 C   0  0  2  0  0  0  0  0  0  0  0  0
   23.7172  -22.7709  -14.4601 C   0  0  0  0  0  0  0  0  0  0  0  0
   24.4575  -21.4176  -12.5488 C   0  0  2  0  0  0  0  0  0  0  0  0
   25.1320  -21.5209  -11.2270 N   0  0  0  0  0  0  0  0  0  0  0  0
   23.0099  -21.2380  -12.2441 C   0  0  0  0  0  0  0  0  0  0  0  0
   22.5243  -21.9765  -11.3047 O   0  0  0  0  0  0  0  0  0  0  0  0
   19.3054  -16.2788  -13.4612 N   0  0  0  0  0  0  0  0  0  0  0  0
   18.4183  -17.1680  -12.7267 C   0  0  0  0  0  0  0  0  0  0  0  0
   17.2959  -16.7177  -12.4473 O   0  0  0  0  0  0  0  0  0  0  0  0
   18.8708  -18.4991  -12.3576 C   0  0  0  0  0  0  0  0  0  0  0  0
   20.2457  -18.8556  -12.7874 C   0  0  0  0  0  0  0  0  0  0  0  0
   20.7435  -20.2253  -12.3859 C   0  0  2  0  0  0  0  0  0  0  0  0
   22.1460  -20.3402  -12.8854 N   0  0  0  0  0  0  0  0  0  0  0  0
   20.0056  -21.3653  -12.9241 C   0  0  0  0  0  0  0  0  0  0  0  0
   19.0341  -21.8902  -12.2821 O   0  0  0  0  0  0  0  0  0  0  0  0
   20.3309  -21.9141  -14.1426 O   0  0  0  0  0  0  0  0  0  0  0  0
  2  1  1  6
  2 13  1  0
  3  2  1  0
  4  5  2  0
  4  3  1  0
  6  5  1  0
  7 12  2  0
  7  6  1  0
  8  7  1  0
  9 10  1  0
  9  8  2  0
 10 11  2  0
 11 12  1  0
 12  4  1  0
 13 14  2  0
 16 18  1  0
 16 15  1  6
 16 17  1  0
 19 13  1  0
 18 19  1  1
 20 18  1  0
 20 21  2  0
 22 23  1  0
 23 25  1  0
 24 23  2  0
 25 26  1  0
 27 26  1  6
 27 29  1  0
 27 28  1  0
 28 20  1  0
 29 31  1  0
 30 29  2  0
M  END
$$$$
