WVQ.pdb
     RDKit          3D

 31 32  0  0  1  0  0  0  0  0999 V2000
   28.5606  -22.1337  -10.9030 N   0  0  0  0  0  0  0  0  0  0  0  0
   27.4572  -21.3598  -10.4267 C   0  0  1  0  0  0  0  0  0  0  0  0
   27.8836  -20.2000   -9.5851 C   0  0  0  0  0  0  0  0  0  0  0  0
   28.6918  -20.5401   -8.4025 C   0  0  0  0  0  0  0  0  0  0  0  0
   29.8867  -21.2836   -8.3898 C   0  0  0  0  0  0  0  0  0  0  0  0
   30.3533  -21.3704   -7.1362 N   0  0  0  0  0  0  0  0  0  0  0  0
   29.5334  -20.7216   -6.2901 C   0  0  0  0  0  0  0  0  0  0  0  0
   29.5900  -20.5433   -4.9218 C   0  0  0  0  0  0  0  0  0  0  0  0
   28.5992  -19.8327   -4.2855 C   0  0  0  0  0  0  0  0  0  0  0  0
   27.5736  -19.3171   -5.0367 C   0  0  0  0  0  0  0  0  0  0  0  0
   27.5346  -19.5053   -6.4008 C   0  0  0  0  0  0  0  0  0  0  0  0
   28.5044  -20.2086   -7.0793 C   0  0  0  0  0  0  0  0  0  0  0  0
   26.6146  -20.8875  -11.5775 C   0  0  0  0  0  0  0  0  0  0  0  0
   27.1698  -20.1851  -12.4758 O   0  0  0  0  0  0  0  0  0  0  0  0
   23.7255  -23.2878  -12.6482 C   0  0  0  0  0  0  0  0  0  0  0  0
   24.2612  -22.2248  -13.6009 C   0  0  2  0  0  0  0  0  0  0  0  0
   25.5697  -22.7409  -14.1167 C   0  0  0  0  0  0  0  0  0  0  0  0
   24.5076  -20.9219  -12.8535 C   0  0  2  0  0  0  0  0  0  0  0  0
   25.2441  -21.2480  -11.6029 N   0  0  0  0  0  0  0  0  0  0  0  0
   23.1768  -20.4173  -12.4117 C   0  0  0  0  0  0  0  0  0  0  0  0
   22.8451  -20.6643  -11.1900 O   0  0  0  0  0  0  0  0  0  0  0  0
   19.8158  -15.6224  -14.7020 N   0  0  0  0  0  0  0  0  0  0  0  0
   18.9601  -16.1182  -13.6346 C   0  0  0  0  0  0  0  0  0  0  0  0
   17.9264  -15.4683  -13.4116 O   0  0  0  0  0  0  0  0  0  0  0  0
   19.3421  -17.3097  -12.8950 C   0  0  0  0  0  0  0  0  0  0  0  0
   20.6028  -17.9617  -13.3279 C   0  0  0  0  0  0  0  0  0  0  0  0
   21.0111  -19.2068  -12.5744 C   0  0  2  0  0  0  0  0  0  0  0  0
   22.2704  -19.7021  -13.2057 N   0  0  0  0  0  0  0  0  0  0  0  0
   20.0607  -20.3159  -12.5941 C   0  0  0  0  0  0  0  0  0  0  0  0
   20.0625  -21.1749  -13.5394 O   0  0  0  0  0  0  0  0  0  0  0  0
   19.1296  -20.4748  -11.5944 O   0  0  0  0  0  0  0  0  0  0  0  0
  2  1  1  6
  2 13  1  0
  3  2  1  0
  4  5  2  0
  4  3  1  0
  6  5  1  0
  7 12  2  0
  7  6  1  0
  8  7  1  0
  9 10  1  0
  9  8  2  0
 10 11  2  0
 11 12  1  0
 12  4  1  0
 13 14  2  0
 16 18  1  0
 16 15  1  1
 16 17  1  0
 19 13  1  0
 18 19  1  1
 20 18  1  0
 20 21  2  0
 22 23  1  0
 23 25  1  0
 24 23  2  0
 25 26  1  0
 27 26  1  6
 27 29  1  0
 27 28  1  0
 28 20  1  0
 29 31  1  0
 30 29  2  0
M  END
$$$$
