WVQ.pdb
     RDKit          3D

 31 32  0  0  1  0  0  0  0  0999 V2000
   28.0733  -22.5750  -14.3304 N   0  0  0  0  0  0  0  0  0  0  0  0
   27.0186  -21.7311  -13.8629 C   0  0  1  0  0  0  0  0  0  0  0  0
   27.5082  -20.3994  -13.3913 C   0  0  0  0  0  0  0  0  0  0  0  0
   28.1786  -20.4001  -12.0806 C   0  0  0  0  0  0  0  0  0  0  0  0
   29.5635  -20.4931  -11.8479 C   0  0  0  0  0  0  0  0  0  0  0  0
   29.8066  -20.4364  -10.5309 N   0  0  0  0  0  0  0  0  0  0  0  0
   28.6528  -20.3095   -9.8513 C   0  0  0  0  0  0  0  0  0  0  0  0
   28.3969  -20.2202   -8.4970 C   0  0  0  0  0  0  0  0  0  0  0  0
   27.0997  -20.1049   -8.0547 C   0  0  0  0  0  0  0  0  0  0  0  0
   26.0885  -20.0818   -8.9815 C   0  0  0  0  0  0  0  0  0  0  0  0
   26.3637  -20.1718  -10.3283 C   0  0  0  0  0  0  0  0  0  0  0  0
   27.6460  -20.2877  -10.8159 C   0  0  0  0  0  0  0  0  0  0  0  0
   25.9771  -21.5556  -14.9314 C   0  0  0  0  0  0  0  0  0  0  0  0
   26.3509  -21.1289  -16.0658 O   0  0  0  0  0  0  0  0  0  0  0  0
   21.8690  -23.0088  -16.9201 C   0  0  0  0  0  0  0  0  0  0  0  0
   23.1499  -23.1108  -16.0994 C   0  0  2  0  0  0  0  0  0  0  0  0
   22.7893  -23.8433  -14.8432 C   0  0  0  0  0  0  0  0  0  0  0  0
   23.6528  -21.7222  -15.7308 C   0  0  2  0  0  0  0  0  0  0  0  0
   24.6313  -21.8736  -14.6206 N   0  0  0  0  0  0  0  0  0  0  0  0
   22.4980  -20.9842  -15.1457 C   0  0  0  0  0  0  0  0  0  0  0  0
   22.1147  -21.3544  -13.9712 O   0  0  0  0  0  0  0  0  0  0  0  0
   20.5445  -15.1422  -16.3720 N   0  0  0  0  0  0  0  0  0  0  0  0
   19.6066  -15.5758  -15.3475 C   0  0  0  0  0  0  0  0  0  0  0  0
   18.7853  -14.7296  -14.9599 O   0  0  0  0  0  0  0  0  0  0  0  0
   19.6726  -16.9338  -14.8337 C   0  0  0  0  0  0  0  0  0  0  0  0
   20.6937  -17.8111  -15.4579 C   0  0  0  0  0  0  0  0  0  0  0  0
   20.7249  -19.2480  -14.9897 C   0  0  2  0  0  0  0  0  0  0  0  0
   21.8065  -19.9314  -15.7598 N   0  0  0  0  0  0  0  0  0  0  0  0
   19.5031  -20.0219  -15.1944 C   0  0  0  0  0  0  0  0  0  0  0  0
   19.2119  -20.5129  -16.3371 O   0  0  0  0  0  0  0  0  0  0  0  0
   18.6223  -20.2499  -14.1629 O   0  0  0  0  0  0  0  0  0  0  0  0
  2  1  1  6
  2 13  1  0
  3  2  1  0
  4  5  2  0
  4  3  1  0
  6  5  1  0
  7 12  2  0
  7  6  1  0
  8  7  1  0
  9 10  1  0
  9  8  2  0
 10 11  2  0
 11 12  1  0
 12  4  1  0
 13 14  2  0
 16 18  1  0
 16 15  1  6
 16 17  1  0
 19 13  1  0
 18 19  1  1
 20 18  1  0
 20 21  2  0
 22 23  1  0
 23 25  1  0
 24 23  2  0
 25 26  1  0
 27 26  1  6
 27 29  1  0
 27 28  1  0
 28 20  1  0
 29 31  1  0
 30 29  2  0
M  END
$$$$
