WVQ.pdb
     RDKit          3D

 31 32  0  0  1  0  0  0  0  0999 V2000
   27.7426  -21.7957  -10.7768 N   0  0  0  0  0  0  0  0  0  0  0  0
   26.6758  -21.2044  -10.0315 C   0  0  1  0  0  0  0  0  0  0  0  0
   27.1467  -20.1450   -9.0873 C   0  0  0  0  0  0  0  0  0  0  0  0
   28.1994  -20.5598   -8.1454 C   0  0  0  0  0  0  0  0  0  0  0  0
   29.2728  -21.4283   -8.4180 C   0  0  0  0  0  0  0  0  0  0  0  0
   30.0425  -21.5537   -7.3278 N   0  0  0  0  0  0  0  0  0  0  0  0
   29.5459  -20.8120   -6.3216 C   0  0  0  0  0  0  0  0  0  0  0  0
   29.9799  -20.6283   -5.0234 C   0  0  0  0  0  0  0  0  0  0  0  0
   29.2703  -19.8086   -4.1771 C   0  0  0  0  0  0  0  0  0  0  0  0
   28.1410  -19.1918   -4.6527 C   0  0  0  0  0  0  0  0  0  0  0  0
   27.7240  -19.3872   -5.9510 C   0  0  0  0  0  0  0  0  0  0  0  0
   28.4030  -20.1977   -6.8327 C   0  0  0  0  0  0  0  0  0  0  0  0
   25.6338  -20.6493  -10.9607 C   0  0  0  0  0  0  0  0  0  0  0  0
   25.9542  -19.6712  -11.7018 O   0  0  0  0  0  0  0  0  0  0  0  0
   24.2190  -22.3466  -13.5703 C   0  0  0  0  0  0  0  0  0  0  0  0
   23.9178  -20.8718  -13.3278 C   0  0  2  0  0  0  0  0  0  0  0  0
   25.2253  -20.1495  -13.4422 C   0  0  0  0  0  0  0  0  0  0  0  0
   23.3663  -20.6694  -11.9235 C   0  0  2  0  0  0  0  0  0  0  0  0
   24.3470  -21.2435  -10.9635 N   0  0  0  0  0  0  0  0  0  0  0  0
   22.1502  -21.5230  -11.8084 C   0  0  0  0  0  0  0  0  0  0  0  0
   22.3484  -22.7856  -11.6356 O   0  0  0  0  0  0  0  0  0  0  0  0
   19.2714  -23.4870   -8.4287 N   0  0  0  0  0  0  0  0  0  0  0  0
   17.9530  -23.3261   -9.0229 C   0  0  0  0  0  0  0  0  0  0  0  0
   17.0648  -24.0858   -8.6050 O   0  0  0  0  0  0  0  0  0  0  0  0
   17.7400  -22.3208  -10.0509 C   0  0  0  0  0  0  0  0  0  0  0  0
   18.9358  -21.5333  -10.4411 C   0  0  0  0  0  0  0  0  0  0  0  0
   19.7275  -22.0500  -11.6205 C   0  0  2  0  0  0  0  0  0  0  0  0
   20.8258  -21.0690  -11.8683 N   0  0  0  0  0  0  0  0  0  0  0  0
   18.9964  -22.1960  -12.8767 C   0  0  0  0  0  0  0  0  0  0  0  0
   18.4057  -23.2877  -13.1779 O   0  0  0  0  0  0  0  0  0  0  0  0
   18.9178  -21.1620  -13.7802 O   0  0  0  0  0  0  0  0  0  0  0  0
  2  1  1  6
  2 13  1  0
  3  2  1  0
  4  5  2  0
  4  3  1  0
  6  5  1  0
  7 12  2  0
  7  6  1  0
  8  7  1  0
  9 10  1  0
  9  8  2  0
 10 11  2  0
 11 12  1  0
 12  4  1  0
 13 14  2  0
 16 18  1  0
 16 15  1  1
 16 17  1  0
 19 13  1  0
 18 19  1  1
 20 18  1  0
 20 21  2  0
 22 23  1  0
 23 25  1  0
 24 23  2  0
 25 26  1  0
 27 26  1  1
 27 29  1  0
 27 28  1  0
 28 20  1  0
 29 31  1  0
 30 29  2  0
M  END
$$$$
