WVQ.pdb
     RDKit          3D

 31 32  0  0  1  0  0  0  0  0999 V2000
   28.1213  -20.8411  -10.5381 N   0  0  0  0  0  0  0  0  0  0  0  0
   26.8064  -21.1723  -10.0859 C   0  0  1  0  0  0  0  0  0  0  0  0
   26.6046  -20.8862   -8.6324 C   0  0  0  0  0  0  0  0  0  0  0  0
   27.8365  -20.7454   -7.8386 C   0  0  0  0  0  0  0  0  0  0  0  0
   29.1187  -21.2048   -8.1929 C   0  0  0  0  0  0  0  0  0  0  0  0
   29.9984  -20.8752   -7.2369 N   0  0  0  0  0  0  0  0  0  0  0  0
   29.3784  -20.2122   -6.2444 C   0  0  0  0  0  0  0  0  0  0  0  0
   29.8571  -19.6853   -5.0609 C   0  0  0  0  0  0  0  0  0  0  0  0
   28.9934  -19.0515   -4.1984 C   0  0  0  0  0  0  0  0  0  0  0  0
   27.6686  -18.9608   -4.5429 C   0  0  0  0  0  0  0  0  0  0  0  0
   27.2100  -19.4923   -5.7281 C   0  0  0  0  0  0  0  0  0  0  0  0
   28.0379  -20.1342   -6.6213 C   0  0  0  0  0  0  0  0  0  0  0  0
   25.7745  -20.4528  -10.9074 C   0  0  0  0  0  0  0  0  0  0  0  0
   25.6700  -19.1965  -10.7687 O   0  0  0  0  0  0  0  0  0  0  0  0
   25.0400  -22.4241  -14.2452 C   0  0  0  0  0  0  0  0  0  0  0  0
   24.9369  -20.9034  -14.2061 C   0  0  2  0  0  0  0  0  0  0  0  0
   26.3397  -20.3830  -14.2824 C   0  0  0  0  0  0  0  0  0  0  0  0
   24.3157  -20.4499  -12.8926 C   0  0  2  0  0  0  0  0  0  0  0  0
   24.9698  -21.2108  -11.7944 N   0  0  0  0  0  0  0  0  0  0  0  0
   22.8973  -20.9066  -12.9035 C   0  0  0  0  0  0  0  0  0  0  0  0
   22.6882  -22.1403  -12.5908 O   0  0  0  0  0  0  0  0  0  0  0  0
   19.0949  -22.0037  -10.2989 N   0  0  0  0  0  0  0  0  0  0  0  0
   17.9701  -21.4855  -11.0628 C   0  0  0  0  0  0  0  0  0  0  0  0
   16.8590  -21.9765  -10.8076 O   0  0  0  0  0  0  0  0  0  0  0  0
   18.1884  -20.4542  -12.0635 C   0  0  0  0  0  0  0  0  0  0  0  0
   19.5909  -19.9963  -12.2232 C   0  0  0  0  0  0  0  0  0  0  0  0
   20.4364  -20.7506  -13.2236 C   0  0  2  0  0  0  0  0  0  0  0  0
   21.7865  -20.1125  -13.2184 N   0  0  0  0  0  0  0  0  0  0  0  0
   19.9664  -20.7400  -14.6065 C   0  0  0  0  0  0  0  0  0  0  0  0
   20.3989  -19.8821  -15.4482 O   0  0  0  0  0  0  0  0  0  0  0  0
   19.0407  -21.6547  -15.0519 O   0  0  0  0  0  0  0  0  0  0  0  0
  2  1  1  6
  2 13  1  0
  3  2  1  0
  4  5  2  0
  4  3  1  0
  6  5  1  0
  7 12  2  0
  7  6  1  0
  8  7  1  0
  9 10  1  0
  9  8  2  0
 10 11  2  0
 11 12  1  0
 12  4  1  0
 13 14  2  0
 16 18  1  0
 16 15  1  1
 16 17  1  0
 19 13  1  0
 18 19  1  1
 20 18  1  0
 20 21  2  0
 22 23  1  0
 23 25  1  0
 24 23  2  0
 25 26  1  0
 27 26  1  1
 27 29  1  0
 27 28  1  0
 28 20  1  0
 29 31  1  0
 30 29  2  0
M  END
$$$$
