ISF.pdb
     RDKit          3D

 26 26  0  0  1  0  0  0  0  0999 V2000
    7.8153  -11.7193   21.1749 C   0  0  0  0  0  0  0  0  0  0  0  0
    7.4194  -13.1743   21.2275 C   0  0  0  0  0  0  0  0  0  0  0  0
    8.2531  -14.0383   20.3380 C   0  0  2  0  0  0  0  0  0  0  0  0
    8.1359  -13.5450   18.9262 C   0  0  0  0  0  0  0  0  0  0  0  0
    7.9122  -15.5065   20.4660 C   0  0  2  0  0  0  0  0  0  0  0  0
    6.5219  -15.6598   20.0210 N   0  0  0  0  0  0  0  0  0  0  0  0
    8.0867  -16.0058   21.8372 C   0  0  0  0  0  0  0  0  0  0  0  0
    7.1164  -15.9137   22.6439 O   0  0  0  0  0  0  0  0  0  0  0  0
   11.4582  -18.2364   23.1413 O   0  0  0  0  0  0  0  0  0  0  0  0
   10.1655  -18.4879   23.5325 C   0  0  0  0  0  0  0  0  0  0  0  0
    9.3085  -17.2429   23.5880 C   0  0  2  0  0  0  0  0  0  0  0  0
    9.2889  -16.5909   22.3168 N   0  0  0  0  0  0  0  0  0  0  0  0
    9.7434  -16.3395   24.6873 C   0  0  0  0  0  0  0  0  0  0  0  0
   10.5414  -15.4098   24.4048 O   0  0  0  0  0  0  0  0  0  0  0  0
    9.3077  -16.4747   26.0185 N   0  0  0  0  0  0  0  0  0  0  0  0
    9.8857  -15.7649   27.1500 C   0  0  1  0  0  0  0  0  0  0  0  0
    8.7901  -15.1129   27.9303 C   0  0  0  0  0  0  0  0  0  0  0  0
    8.0802  -14.0241   27.2411 C   0  0  0  0  0  0  0  0  0  0  0  0
    8.5876  -12.7454   27.1748 C   0  0  0  0  0  0  0  0  0  0  0  0
    7.9214  -11.7405   26.5134 C   0  0  0  0  0  0  0  0  0  0  0  0
    6.7149  -11.9680   25.8864 C   0  0  0  0  0  0  0  0  0  0  0  0
    6.2268  -13.2528   25.9654 C   0  0  0  0  0  0  0  0  0  0  0  0
    6.8754  -14.2760   26.6219 C   0  0  0  0  0  0  0  0  0  0  0  0
   10.6786  -16.6425   28.0121 C   0  0  0  0  0  0  0  0  0  0  0  0
   10.8286  -18.0072   27.8055 O   0  0  0  0  0  0  0  0  0  0  0  0
   11.2689  -16.1614   29.0040 O   0  0  0  0  0  0  0  0  0  0  0  0
  1  2  1  0
  2  3  1  0
  3  5  1  0
  3  4  1  6
  5  7  1  0
  5  6  1  1
  7  8  2  0
  9 10  1  0
 11 10  1  6
 12 11  1  0
 12  7  1  0
 13 11  1  0
 13 14  2  0
 15 13  1  0
 16 15  1  0
 16 24  1  0
 16 17  1  1
 18 19  2  0
 18 17  1  0
 20 19  1  0
 21 22  1  0
 21 20  2  0
 22 23  2  0
 23 18  1  0
 24 25  1  0
 26 24  2  0
M  END
$$$$
