ISF.pdb
     RDKit          3D

 26 26  0  0  1  0  0  0  0  0999 V2000
    7.4652  -11.8902   19.4062 C   0  0  0  0  0  0  0  0  0  0  0  0
    7.7021  -13.3706   19.2373 C   0  0  0  0  0  0  0  0  0  0  0  0
    7.9390  -14.0752   20.5335 C   0  0  2  0  0  0  0  0  0  0  0  0
    9.1633  -13.5036   21.1851 C   0  0  0  0  0  0  0  0  0  0  0  0
    8.0185  -15.5773   20.3739 C   0  0  2  0  0  0  0  0  0  0  0  0
    6.7919  -15.9967   19.6854 N   0  0  0  0  0  0  0  0  0  0  0  0
    8.1664  -16.2715   21.6608 C   0  0  0  0  0  0  0  0  0  0  0  0
    7.2297  -16.1856   22.5070 O   0  0  0  0  0  0  0  0  0  0  0  0
   11.3920  -18.8589   22.7878 O   0  0  0  0  0  0  0  0  0  0  0  0
   10.1144  -18.9311   23.2878 C   0  0  0  0  0  0  0  0  0  0  0  0
    9.4163  -17.5902   23.3304 C   0  0  2  0  0  0  0  0  0  0  0  0
    9.3068  -17.0401   22.0163 N   0  0  0  0  0  0  0  0  0  0  0  0
   10.0868  -16.6650   24.2835 C   0  0  0  0  0  0  0  0  0  0  0  0
   11.0751  -16.0074   23.8692 O   0  0  0  0  0  0  0  0  0  0  0  0
    9.6710  -16.4920   25.6167 N   0  0  0  0  0  0  0  0  0  0  0  0
   10.4823  -15.8815   26.6593 C   0  0  1  0  0  0  0  0  0  0  0  0
   10.5143  -14.4017   26.4512 C   0  0  0  0  0  0  0  0  0  0  0  0
    9.2033  -13.7343   26.4306 C   0  0  0  0  0  0  0  0  0  0  0  0
    8.8715  -12.7434   27.3278 C   0  0  0  0  0  0  0  0  0  0  0  0
    7.6483  -12.1164   27.2872 C   0  0  0  0  0  0  0  0  0  0  0  0
    6.6985  -12.4516   26.3459 C   0  0  0  0  0  0  0  0  0  0  0  0
    7.0515  -13.4441   25.4596 C   0  0  0  0  0  0  0  0  0  0  0  0
    8.2702  -14.0867   25.4801 C   0  0  0  0  0  0  0  0  0  0  0  0
    9.9960  -16.2012   28.0024 C   0  0  0  0  0  0  0  0  0  0  0  0
    8.9028  -17.0172   28.2601 O   0  0  0  0  0  0  0  0  0  0  0  0
   10.5818  -15.7240   28.9989 O   0  0  0  0  0  0  0  0  0  0  0  0
  1  2  1  0
  2  3  1  0
  3  5  1  0
  3  4  1  6
  5  7  1  0
  5  6  1  1
  7  8  2  0
  9 10  1  0
 11 10  1  6
 12 11  1  0
 12  7  1  0
 13 11  1  0
 13 14  2  0
 15 13  1  0
 16 15  1  0
 16 24  1  0
 16 17  1  6
 18 19  2  0
 18 17  1  0
 20 19  1  0
 21 22  1  0
 21 20  2  0
 22 23  2  0
 23 18  1  0
 24 25  1  0
 26 24  2  0
M  END
$$$$
