ISF.pdb
     RDKit          3D

 26 26  0  0  1  0  0  0  0  0999 V2000
    8.0325  -11.9821   19.3024 C   0  0  0  0  0  0  0  0  0  0  0  0
    7.6666  -13.4458   19.2928 C   0  0  0  0  0  0  0  0  0  0  0  0
    7.9415  -14.1245   20.5953 C   0  0  2  0  0  0  0  0  0  0  0  0
    9.3860  -13.9336   20.9518 C   0  0  0  0  0  0  0  0  0  0  0  0
    7.5366  -15.5819   20.5895 C   0  0  2  0  0  0  0  0  0  0  0  0
    6.1292  -15.6300   20.1755 N   0  0  0  0  0  0  0  0  0  0  0  0
    7.7249  -16.2220   21.8990 C   0  0  0  0  0  0  0  0  0  0  0  0
    6.9091  -15.9533   22.8279 O   0  0  0  0  0  0  0  0  0  0  0  0
   10.6344  -19.2303   22.8495 O   0  0  0  0  0  0  0  0  0  0  0  0
    9.3904  -19.1189   23.4218 C   0  0  0  0  0  0  0  0  0  0  0  0
    8.8970  -17.6913   23.4978 C   0  0  2  0  0  0  0  0  0  0  0  0
    8.7762  -17.1323   22.1884 N   0  0  0  0  0  0  0  0  0  0  0  0
    9.7584  -16.8716   24.3921 C   0  0  0  0  0  0  0  0  0  0  0  0
   10.6698  -16.1847   23.8645 O   0  0  0  0  0  0  0  0  0  0  0  0
    9.6032  -16.8285   25.7901 N   0  0  0  0  0  0  0  0  0  0  0  0
   10.4511  -16.0599   26.6892 C   0  0  1  0  0  0  0  0  0  0  0  0
   10.3198  -14.6071   26.3634 C   0  0  0  0  0  0  0  0  0  0  0  0
    8.9861  -14.0252   26.5804 C   0  0  0  0  0  0  0  0  0  0  0  0
    7.9089  -14.3450   25.7839 C   0  0  0  0  0  0  0  0  0  0  0  0
    6.6637  -13.8062   26.0078 C   0  0  0  0  0  0  0  0  0  0  0  0
    6.4374  -12.9211   27.0402 C   0  0  0  0  0  0  0  0  0  0  0  0
    7.5278  -12.6159   27.8232 C   0  0  0  0  0  0  0  0  0  0  0  0
    8.7846  -13.1425   27.6189 C   0  0  0  0  0  0  0  0  0  0  0  0
   10.1332  -16.3016   28.0973 C   0  0  0  0  0  0  0  0  0  0  0  0
    9.1442  -17.1732   28.5330 O   0  0  0  0  0  0  0  0  0  0  0  0
   10.7758  -15.6999   28.9855 O   0  0  0  0  0  0  0  0  0  0  0  0
  1  2  1  0
  2  3  1  0
  3  5  1  0
  3  4  1  6
  5  7  1  0
  5  6  1  1
  7  8  2  0
  9 10  1  0
 11 10  1  6
 12 11  1  0
 12  7  1  0
 13 11  1  0
 13 14  2  0
 15 13  1  0
 16 15  1  0
 16 24  1  0
 16 17  1  6
 18 19  2  0
 18 17  1  0
 20 19  1  0
 21 22  1  0
 21 20  2  0
 22 23  2  0
 23 18  1  0
 24 25  1  0
 26 24  2  0
M  END
$$$$
