ISF.pdb
     RDKit          3D

 26 26  0  0  1  0  0  0  0  0999 V2000
    7.4865  -11.8013   19.6641 C   0  0  0  0  0  0  0  0  0  0  0  0
    7.8236  -13.2630   19.5027 C   0  0  0  0  0  0  0  0  0  0  0  0
    7.9845  -13.9723   20.8080 C   0  0  2  0  0  0  0  0  0  0  0  0
    9.0163  -13.2578   21.6297 C   0  0  0  0  0  0  0  0  0  0  0  0
    8.2995  -15.4419   20.6374 C   0  0  2  0  0  0  0  0  0  0  0  0
    7.2444  -16.0063   19.7872 N   0  0  0  0  0  0  0  0  0  0  0  0
    8.3799  -16.1516   21.9218 C   0  0  0  0  0  0  0  0  0  0  0  0
    7.3083  -16.3900   22.5507 O   0  0  0  0  0  0  0  0  0  0  0  0
   11.6818  -18.3251   23.2297 O   0  0  0  0  0  0  0  0  0  0  0  0
   10.4063  -18.5338   23.6953 C   0  0  0  0  0  0  0  0  0  0  0  0
    9.5841  -17.2663   23.7646 C   0  0  2  0  0  0  0  0  0  0  0  0
    9.5981  -16.5903   22.5060 N   0  0  0  0  0  0  0  0  0  0  0  0
   10.0310  -16.3964   24.8859 C   0  0  0  0  0  0  0  0  0  0  0  0
   10.9164  -15.5363   24.6472 O   0  0  0  0  0  0  0  0  0  0  0  0
    9.5139  -16.4893   26.1914 N   0  0  0  0  0  0  0  0  0  0  0  0
   10.0078  -15.7271   27.3286 C   0  0  1  0  0  0  0  0  0  0  0  0
    8.8529  -15.0812   28.0236 C   0  0  0  0  0  0  0  0  0  0  0  0
    8.0891  -14.1130   27.2213 C   0  0  0  0  0  0  0  0  0  0  0  0
    8.5062  -12.8114   27.0515 C   0  0  0  0  0  0  0  0  0  0  0  0
    7.7912  -11.9210   26.2854 C   0  0  0  0  0  0  0  0  0  0  0  0
    6.6238  -12.2913   25.6525 C   0  0  0  0  0  0  0  0  0  0  0  0
    6.2259  -13.5964   25.8359 C   0  0  0  0  0  0  0  0  0  0  0  0
    6.9250  -14.5067   26.5983 C   0  0  0  0  0  0  0  0  0  0  0  0
   10.7730  -16.5537   28.2632 C   0  0  0  0  0  0  0  0  0  0  0  0
   11.5308  -16.0462   29.3099 O   0  0  0  0  0  0  0  0  0  0  0  0
   10.7625  -17.7977   28.1356 O   0  0  0  0  0  0  0  0  0  0  0  0
  1  2  1  0
  2  3  1  0
  3  5  1  0
  3  4  1  6
  5  7  1  0
  5  6  1  6
  7  8  2  0
  9 10  1  0
 11 10  1  6
 12 11  1  0
 12  7  1  0
 13 11  1  0
 13 14  2  0
 15 13  1  0
 16 15  1  0
 16 24  1  0
 16 17  1  1
 18 19  2  0
 18 17  1  0
 20 19  1  0
 21 22  1  0
 21 20  2  0
 22 23  2  0
 23 18  1  0
 24 25  1  0
 26 24  2  0
M  END
$$$$
