ISF.pdb
     RDKit          3D

 26 26  0  0  1  0  0  0  0  0999 V2000
    8.3065  -11.7019   19.1788 C   0  0  0  0  0  0  0  0  0  0  0  0
    8.1467  -13.1989   19.0796 C   0  0  0  0  0  0  0  0  0  0  0  0
    8.1343  -13.8740   20.4126 C   0  0  2  0  0  0  0  0  0  0  0  0
    9.3697  -13.4857   21.1698 C   0  0  0  0  0  0  0  0  0  0  0  0
    7.9718  -15.3740   20.3043 C   0  0  2  0  0  0  0  0  0  0  0  0
    6.7124  -15.6141   19.5896 N   0  0  0  0  0  0  0  0  0  0  0  0
    7.9692  -16.0345   21.6171 C   0  0  0  0  0  0  0  0  0  0  0  0
    6.9378  -15.9359   22.3432 O   0  0  0  0  0  0  0  0  0  0  0  0
   10.9590  -18.7080   22.9777 O   0  0  0  0  0  0  0  0  0  0  0  0
    9.6415  -18.7805   23.3603 C   0  0  0  0  0  0  0  0  0  0  0  0
    8.9575  -17.4320   23.3945 C   0  0  2  0  0  0  0  0  0  0  0  0
    9.0636  -16.7838   22.1256 N   0  0  0  0  0  0  0  0  0  0  0  0
    9.4761  -16.5944   24.5095 C   0  0  0  0  0  0  0  0  0  0  0  0
   10.4165  -15.7980   24.2598 O   0  0  0  0  0  0  0  0  0  0  0  0
    8.9682  -16.6502   25.8207 N   0  0  0  0  0  0  0  0  0  0  0  0
    9.5169  -15.9114   26.9482 C   0  0  1  0  0  0  0  0  0  0  0  0
    8.4014  -15.2431   27.6850 C   0  0  0  0  0  0  0  0  0  0  0  0
    7.7183  -14.1612   26.9587 C   0  0  0  0  0  0  0  0  0  0  0  0
    8.3122  -12.9383   26.7378 C   0  0  0  0  0  0  0  0  0  0  0  0
    7.6688  -11.9412   26.0432 C   0  0  0  0  0  0  0  0  0  0  0  0
    6.3994  -12.1207   25.5363 C   0  0  0  0  0  0  0  0  0  0  0  0
    5.8252  -13.3501   25.7689 C   0  0  0  0  0  0  0  0  0  0  0  0
    6.4495  -14.3645   26.4616 C   0  0  0  0  0  0  0  0  0  0  0  0
   10.2899  -16.7658   27.8508 C   0  0  0  0  0  0  0  0  0  0  0  0
   10.4172  -18.1403   27.7022 O   0  0  0  0  0  0  0  0  0  0  0  0
   10.8834  -16.2539   28.8253 O   0  0  0  0  0  0  0  0  0  0  0  0
  1  2  1  0
  2  3  1  0
  3  5  1  0
  3  4  1  6
  5  7  1  0
  5  6  1  1
  7  8  2  0
  9 10  1  0
 11 10  1  6
 12 11  1  0
 12  7  1  0
 13 11  1  0
 13 14  2  0
 15 13  1  0
 16 15  1  0
 16 24  1  0
 16 17  1  1
 18 19  2  0
 18 17  1  0
 20 19  1  0
 21 22  1  0
 21 20  2  0
 22 23  2  0
 23 18  1  0
 24 25  1  0
 26 24  2  0
M  END
$$$$
