ISF.pdb
     RDKit          3D

 26 26  0  0  1  0  0  0  0  0999 V2000
    7.1109  -11.9217   19.3425 C   0  0  0  0  0  0  0  0  0  0  0  0
    7.6337  -13.3308   19.2098 C   0  0  0  0  0  0  0  0  0  0  0  0
    7.7701  -14.0287   20.5239 C   0  0  2  0  0  0  0  0  0  0  0  0
    8.6661  -13.2218   21.4163 C   0  0  0  0  0  0  0  0  0  0  0  0
    8.2386  -15.4595   20.3777 C   0  0  2  0  0  0  0  0  0  0  0  0
    7.3260  -16.1103   19.4301 N   0  0  0  0  0  0  0  0  0  0  0  0
    8.2668  -16.1749   21.6612 C   0  0  0  0  0  0  0  0  0  0  0  0
    7.1693  -16.4351   22.2343 O   0  0  0  0  0  0  0  0  0  0  0  0
   11.4672  -18.4342   23.0438 O   0  0  0  0  0  0  0  0  0  0  0  0
   10.1651  -18.6072   23.4463 C   0  0  0  0  0  0  0  0  0  0  0  0
    9.3946  -17.3091   23.5400 C   0  0  2  0  0  0  0  0  0  0  0  0
    9.4615  -16.5961   22.3037 N   0  0  0  0  0  0  0  0  0  0  0  0
    9.8546  -16.4933   24.6961 C   0  0  0  0  0  0  0  0  0  0  0  0
   10.7731  -15.6576   24.4990 O   0  0  0  0  0  0  0  0  0  0  0  0
    9.3150  -16.6113   25.9904 N   0  0  0  0  0  0  0  0  0  0  0  0
    9.8974  -16.0136   27.1827 C   0  0  1  0  0  0  0  0  0  0  0  0
    8.8310  -15.2864   27.9365 C   0  0  0  0  0  0  0  0  0  0  0  0
    8.2282  -14.1403   27.2382 C   0  0  0  0  0  0  0  0  0  0  0  0
    7.0513  -14.2498   26.5311 C   0  0  0  0  0  0  0  0  0  0  0  0
    6.4901  -13.1667   25.8964 C   0  0  0  0  0  0  0  0  0  0  0  0
    7.0805  -11.9218   25.9392 C   0  0  0  0  0  0  0  0  0  0  0  0
    8.2556  -11.8355   26.6512 C   0  0  0  0  0  0  0  0  0  0  0  0
    8.8372  -12.9058   27.2953 C   0  0  0  0  0  0  0  0  0  0  0  0
   10.5489  -17.0041   28.0410 C   0  0  0  0  0  0  0  0  0  0  0  0
   11.3293  -16.6847   29.1439 O   0  0  0  0  0  0  0  0  0  0  0  0
   10.4119  -18.2215   27.7897 O   0  0  0  0  0  0  0  0  0  0  0  0
  1  2  1  0
  2  3  1  0
  3  5  1  0
  3  4  1  1
  5  7  1  0
  5  6  1  6
  7  8  2  0
  9 10  1  0
 11 10  1  6
 12 11  1  0
 12  7  1  0
 13 11  1  0
 13 14  2  0
 15 13  1  0
 16 15  1  0
 16 24  1  0
 16 17  1  1
 18 19  2  0
 18 17  1  0
 20 19  1  0
 21 22  1  0
 21 20  2  0
 22 23  2  0
 23 18  1  0
 24 25  1  0
 26 24  2  0
M  END
$$$$
