ISF.pdb
     RDKit          3D

 26 26  0  0  1  0  0  0  0  0999 V2000
    7.5922  -12.0895   20.1575 C   0  0  0  0  0  0  0  0  0  0  0  0
    7.5218  -13.5749   19.9024 C   0  0  0  0  0  0  0  0  0  0  0  0
    8.5568  -14.0506   18.9354 C   0  0  2  0  0  0  0  0  0  0  0  0
    8.4204  -13.2819   17.6545 C   0  0  0  0  0  0  0  0  0  0  0  0
    8.5072  -15.5467   18.7182 C   0  0  2  0  0  0  0  0  0  0  0  0
    7.2313  -15.8371   18.0533 N   0  0  0  0  0  0  0  0  0  0  0  0
    8.6332  -16.3007   19.9734 C   0  0  0  0  0  0  0  0  0  0  0  0
    7.6506  -16.3199   20.7701 O   0  0  0  0  0  0  0  0  0  0  0  0
   12.0345  -18.6259   21.1935 O   0  0  0  0  0  0  0  0  0  0  0  0
   10.7292  -18.9357   21.4895 C   0  0  0  0  0  0  0  0  0  0  0  0
    9.8385  -17.7179   21.5943 C   0  0  2  0  0  0  0  0  0  0  0  0
    9.8012  -17.0157   20.3506 N   0  0  0  0  0  0  0  0  0  0  0  0
   10.2483  -16.8483   22.7298 C   0  0  0  0  0  0  0  0  0  0  0  0
   10.9431  -15.8324   22.4728 O   0  0  0  0  0  0  0  0  0  0  0  0
    9.8982  -17.1062   24.0682 N   0  0  0  0  0  0  0  0  0  0  0  0
   10.4110  -16.3649   25.2108 C   0  0  1  0  0  0  0  0  0  0  0  0
    9.2620  -15.8697   26.0286 C   0  0  0  0  0  0  0  0  0  0  0  0
    9.6223  -15.1293   27.2479 C   0  0  0  0  0  0  0  0  0  0  0  0
    9.9607  -15.7686   28.4200 C   0  0  0  0  0  0  0  0  0  0  0  0
   10.3112  -15.0645   29.5480 C   0  0  0  0  0  0  0  0  0  0  0  0
   10.3397  -13.6863   29.5565 C   0  0  0  0  0  0  0  0  0  0  0  0
    9.9980  -13.0686   28.3745 C   0  0  0  0  0  0  0  0  0  0  0  0
    9.6435  -13.7518   27.2317 C   0  0  0  0  0  0  0  0  0  0  0  0
   11.3192  -17.1662   26.0326 C   0  0  0  0  0  0  0  0  0  0  0  0
   12.4763  -16.6730   26.6202 O   0  0  0  0  0  0  0  0  0  0  0  0
   11.0626  -18.3732   26.2355 O   0  0  0  0  0  0  0  0  0  0  0  0
  1  2  1  0
  2  3  1  0
  3  5  1  0
  3  4  1  6
  5  7  1  0
  5  6  1  1
  7  8  2  0
  9 10  1  0
 11 10  1  6
 12 11  1  0
 12  7  1  0
 13 11  1  0
 13 14  2  0
 15 13  1  0
 16 15  1  0
 16 24  1  0
 16 17  1  1
 18 19  2  0
 18 17  1  0
 20 19  1  0
 21 22  1  0
 21 20  2  0
 22 23  2  0
 23 18  1  0
 24 25  1  0
 26 24  2  0
M  END
$$$$
