ISF.pdb
     RDKit          3D

 26 26  0  0  1  0  0  0  0  0999 V2000
    7.9609  -11.9042   20.4121 C   0  0  0  0  0  0  0  0  0  0  0  0
    7.4942  -13.3372   20.3402 C   0  0  0  0  0  0  0  0  0  0  0  0
    8.3800  -14.1978   19.4990 C   0  0  2  0  0  0  0  0  0  0  0  0
    8.4205  -13.6444   18.1054 C   0  0  0  0  0  0  0  0  0  0  0  0
    7.9755  -15.6551   19.5293 C   0  0  2  0  0  0  0  0  0  0  0  0
    6.6354  -15.7361   18.9360 N   0  0  0  0  0  0  0  0  0  0  0  0
    7.9865  -16.2126   20.8891 C   0  0  0  0  0  0  0  0  0  0  0  0
    6.9744  -16.0319   21.6264 O   0  0  0  0  0  0  0  0  0  0  0  0
   10.7896  -19.0430   22.4221 O   0  0  0  0  0  0  0  0  0  0  0  0
    9.4720  -18.9099   22.7876 C   0  0  0  0  0  0  0  0  0  0  0  0
    8.9883  -17.4773   22.7560 C   0  0  2  0  0  0  0  0  0  0  0  0
    9.0736  -16.9486   21.4314 N   0  0  0  0  0  0  0  0  0  0  0  0
    9.7131  -16.6432   23.7523 C   0  0  0  0  0  0  0  0  0  0  0  0
   10.7323  -16.0166   23.3658 O   0  0  0  0  0  0  0  0  0  0  0  0
    9.3155  -16.5227   25.0968 N   0  0  0  0  0  0  0  0  0  0  0  0
   10.1180  -15.9017   26.1401 C   0  0  1  0  0  0  0  0  0  0  0  0
   10.0529  -14.4161   25.9888 C   0  0  0  0  0  0  0  0  0  0  0  0
    8.7153  -13.8207   26.1329 C   0  0  0  0  0  0  0  0  0  0  0  0
    8.3996  -12.9709   27.1699 C   0  0  0  0  0  0  0  0  0  0  0  0
    7.1500  -12.4083   27.2838 C   0  0  0  0  0  0  0  0  0  0  0  0
    6.1563  -12.6698   26.3648 C   0  0  0  0  0  0  0  0  0  0  0  0
    6.4939  -13.5214   25.3372 C   0  0  0  0  0  0  0  0  0  0  0  0
    7.7384  -14.0972   25.2016 C   0  0  0  0  0  0  0  0  0  0  0  0
    9.6921  -16.3007   27.4823 C   0  0  0  0  0  0  0  0  0  0  0  0
   10.3294  -15.9049   28.6505 O   0  0  0  0  0  0  0  0  0  0  0  0
    8.6954  -17.0440   27.6163 O   0  0  0  0  0  0  0  0  0  0  0  0
  1  2  1  0
  2  3  1  0
  3  5  1  0
  3  4  1  6
  5  7  1  0
  5  6  1  1
  7  8  2  0
  9 10  1  0
 11 10  1  6
 12 11  1  0
 12  7  1  0
 13 11  1  0
 13 14  2  0
 15 13  1  0
 16 15  1  0
 16 24  1  0
 16 17  1  1
 18 19  2  0
 18 17  1  0
 20 19  1  0
 21 22  1  0
 21 20  2  0
 22 23  2  0
 23 18  1  0
 24 25  1  0
 26 24  2  0
M  END
$$$$
