ISF.pdb
     RDKit          3D

 26 26  0  0  1  0  0  0  0  0999 V2000
    7.0747  -11.9936   19.5594 C   0  0  0  0  0  0  0  0  0  0  0  0
    7.4052  -13.4651   19.5151 C   0  0  0  0  0  0  0  0  0  0  0  0
    7.6871  -14.0407   20.8649 C   0  0  2  0  0  0  0  0  0  0  0  0
    8.8080  -13.2726   21.5005 C   0  0  0  0  0  0  0  0  0  0  0  0
    7.9606  -15.5277   20.8185 C   0  0  2  0  0  0  0  0  0  0  0  0
    6.8348  -16.1444   20.1067 N   0  0  0  0  0  0  0  0  0  0  0  0
    8.1229  -16.1108   22.1577 C   0  0  0  0  0  0  0  0  0  0  0  0
    7.1172  -16.1583   22.9239 O   0  0  0  0  0  0  0  0  0  0  0  0
   11.4601  -18.3450   23.3430 O   0  0  0  0  0  0  0  0  0  0  0  0
   10.2109  -18.5188   23.8876 C   0  0  0  0  0  0  0  0  0  0  0  0
    9.4020  -17.2419   23.9389 C   0  0  2  0  0  0  0  0  0  0  0  0
    9.3506  -16.6290   22.6493 N   0  0  0  0  0  0  0  0  0  0  0  0
    9.9161  -16.3219   24.9892 C   0  0  0  0  0  0  0  0  0  0  0  0
   10.7769  -15.4687   24.6548 O   0  0  0  0  0  0  0  0  0  0  0  0
    9.4882  -16.3605   26.3292 N   0  0  0  0  0  0  0  0  0  0  0  0
   10.1451  -15.6613   27.4236 C   0  0  1  0  0  0  0  0  0  0  0  0
    9.1298  -14.8583   28.1709 C   0  0  0  0  0  0  0  0  0  0  0  0
    8.4197  -13.8393   27.3823 C   0  0  0  0  0  0  0  0  0  0  0  0
    8.9515  -12.5900   27.1510 C   0  0  0  0  0  0  0  0  0  0  0  0
    8.2842  -11.6523   26.3983 C   0  0  0  0  0  0  0  0  0  0  0  0
    7.0522  -11.9207   25.8410 C   0  0  0  0  0  0  0  0  0  0  0  0
    6.5400  -13.1750   26.0851 C   0  0  0  0  0  0  0  0  0  0  0  0
    7.1892  -14.1310   26.8355 C   0  0  0  0  0  0  0  0  0  0  0  0
   10.8448  -16.5749   28.3280 C   0  0  0  0  0  0  0  0  0  0  0  0
   11.7223  -16.1646   29.3225 O   0  0  0  0  0  0  0  0  0  0  0  0
   10.6605  -17.8072   28.2220 O   0  0  0  0  0  0  0  0  0  0  0  0
  1  2  1  0
  2  3  1  0
  3  5  1  0
  3  4  1  6
  5  7  1  0
  5  6  1  1
  7  8  2  0
  9 10  1  0
 11 10  1  6
 12 11  1  0
 12  7  1  0
 13 11  1  0
 13 14  2  0
 15 13  1  0
 16 15  1  0
 16 24  1  0
 16 17  1  1
 18 19  2  0
 18 17  1  0
 20 19  1  0
 21 22  1  0
 21 20  2  0
 22 23  2  0
 23 18  1  0
 24 25  1  0
 26 24  2  0
M  END
$$$$
