ISF.pdb
     RDKit          3D

 26 26  0  0  1  0  0  0  0  0999 V2000
    7.7329  -11.8343   18.8146 C   0  0  0  0  0  0  0  0  0  0  0  0
    7.8197  -13.3358   18.6948 C   0  0  0  0  0  0  0  0  0  0  0  0
    7.9986  -14.0169   20.0126 C   0  0  2  0  0  0  0  0  0  0  0  0
    9.2478  -13.5022   20.6644 C   0  0  0  0  0  0  0  0  0  0  0  0
    7.9886  -15.5249   19.8950 C   0  0  2  0  0  0  0  0  0  0  0  0
    6.7605  -15.8867   19.1772 N   0  0  0  0  0  0  0  0  0  0  0  0
    8.0519  -16.1905   21.2038 C   0  0  0  0  0  0  0  0  0  0  0  0
    7.0419  -16.1310   21.9635 O   0  0  0  0  0  0  0  0  0  0  0  0
   11.0026  -18.9883   22.4051 O   0  0  0  0  0  0  0  0  0  0  0  0
    9.7050  -18.9476   22.8546 C   0  0  0  0  0  0  0  0  0  0  0  0
    9.1528  -17.5428   22.9496 C   0  0  2  0  0  0  0  0  0  0  0  0
    9.1878  -16.9030   21.6726 N   0  0  0  0  0  0  0  0  0  0  0  0
    9.8553  -16.7591   24.0012 C   0  0  0  0  0  0  0  0  0  0  0  0
   10.9009  -16.1413   23.6756 O   0  0  0  0  0  0  0  0  0  0  0  0
    9.4090  -16.6766   25.3333 N   0  0  0  0  0  0  0  0  0  0  0  0
   10.1967  -16.1411   26.4337 C   0  0  1  0  0  0  0  0  0  0  0  0
   10.0999  -14.6495   26.4245 C   0  0  0  0  0  0  0  0  0  0  0  0
    8.7377  -14.1006   26.5117 C   0  0  0  0  0  0  0  0  0  0  0  0
    7.6559  -14.7304   25.9372 C   0  0  0  0  0  0  0  0  0  0  0  0
    6.3852  -14.2148   26.0401 C   0  0  0  0  0  0  0  0  0  0  0  0
    6.1368  -13.0436   26.7233 C   0  0  0  0  0  0  0  0  0  0  0  0
    7.2323  -12.4313   27.2893 C   0  0  0  0  0  0  0  0  0  0  0  0
    8.5144  -12.9282   27.2001 C   0  0  0  0  0  0  0  0  0  0  0  0
    9.7776  -16.6753   27.7303 C   0  0  0  0  0  0  0  0  0  0  0  0
   10.4122  -16.3889   28.9315 O   0  0  0  0  0  0  0  0  0  0  0  0
    8.7899  -17.4399   27.7909 O   0  0  0  0  0  0  0  0  0  0  0  0
  1  2  1  0
  2  3  1  0
  3  5  1  0
  3  4  1  6
  5  7  1  0
  5  6  1  1
  7  8  2  0
  9 10  1  0
 11 10  1  6
 12 11  1  0
 12  7  1  0
 13 11  1  0
 13 14  2  0
 15 13  1  0
 16 15  1  0
 16 24  1  0
 16 17  1  1
 18 19  2  0
 18 17  1  0
 20 19  1  0
 21 22  1  0
 21 20  2  0
 22 23  2  0
 23 18  1  0
 24 25  1  0
 26 24  2  0
M  END
$$$$
