ANR.pdb
     RDKit          3D

 25 24  0  0  1  0  0  0  0  0999 V2000
   18.0473  -11.9703  -15.2115 C   0  0  0  0  0  0  0  0  0  0  0  0
   17.4174  -10.6044  -15.0993 C   0  0  2  0  0  0  0  0  0  0  0  0
   17.6060   -9.8275  -16.3155 N   0  0  0  0  0  0  0  0  0  0  0  0
   17.9978   -9.8818  -13.9270 C   0  0  0  0  0  0  0  0  0  0  0  0
   17.7985  -10.3492  -12.7769 O   0  0  0  0  0  0  0  0  0  0  0  0
   20.8359   -6.9007  -10.8587 N   0  0  0  0  0  0  0  0  0  0  0  0
   21.2209   -6.5770  -12.1769 C   0  0  0  0  0  0  0  0  0  0  0  0
   22.1661   -5.7854  -12.3600 O   0  0  0  0  0  0  0  0  0  0  0  0
   20.5145   -7.1673  -13.3103 C   0  0  0  0  0  0  0  0  0  0  0  0
   19.3706   -8.0613  -12.9096 C   0  0  2  0  0  0  0  0  0  0  0  0
   18.7557   -8.7044  -14.0521 N   0  0  0  0  0  0  0  0  0  0  0  0
   18.3546   -7.1896  -12.2505 C   0  0  0  0  0  0  0  0  0  0  0  0
   17.7067   -6.3609  -12.9503 O   0  0  0  0  0  0  0  0  0  0  0  0
   11.7518   -9.5670   -7.8158 N   0  0  0  0  0  0  0  0  0  0  0  0
   11.6650   -8.1774   -7.5911 C   0  0  0  0  0  0  0  0  0  0  0  0
   10.6396   -7.6094   -7.0431 N   0  0  0  0  0  0  0  0  0  0  0  0
   12.7534   -7.3240   -7.9793 N   0  0  0  0  0  0  0  0  0  0  0  0
   13.9055   -7.9202   -8.6039 C   0  0  0  0  0  0  0  0  0  0  0  0
   14.8491   -6.8103   -9.0530 C   0  0  0  0  0  0  0  0  0  0  0  0
   16.0336   -7.4233   -9.7098 C   0  0  0  0  0  0  0  0  0  0  0  0
   16.9910   -6.4284  -10.2923 C   0  0  2  0  0  0  0  0  0  0  0  0
   18.0737   -7.2383  -10.8792 N   0  0  0  0  0  0  0  0  0  0  0  0
   17.5208   -5.5556   -9.2431 C   0  0  0  0  0  0  0  0  0  0  0  0
   16.8960   -4.3947   -8.8549 O   0  0  0  0  0  0  0  0  0  0  0  0
   18.6091   -5.8536   -8.6430 O   0  0  0  0  0  0  0  0  0  0  0  0
  2  1  1  6
  2  3  1  0
  4  2  1  0
  5  4  2  0
  6  7  1  0
  7  9  1  0
  8  7  2  0
 10  9  1  6
 10 11  1  0
 11  4  1  0
 12 10  1  0
 12 22  1  0
 13 12  2  0
 15 16  2  0
 15 14  1  0
 17 15  1  0
 18 17  1  0
 19 18  1  0
 21 20  1  1
 20 19  1  0
 21 22  1  0
 21 23  1  0
 23 24  1  0
 25 23  2  0
M  END
$$$$
