ANR.pdb
     RDKit          3D

 25 24  0  0  1  0  0  0  0  0999 V2000
   27.4909  -20.4984  -17.6955 C   0  0  0  0  0  0  0  0  0  0  0  0
   28.2978  -20.8530  -16.4714 C   0  0  2  0  0  0  0  0  0  0  0  0
   29.2231  -21.9441  -16.7390 N   0  0  0  0  0  0  0  0  0  0  0  0
   27.3753  -21.2176  -15.3538 C   0  0  0  0  0  0  0  0  0  0  0  0
   26.7563  -22.3100  -15.4204 O   0  0  0  0  0  0  0  0  0  0  0  0
   25.1495  -21.6451  -10.7549 N   0  0  0  0  0  0  0  0  0  0  0  0
   25.8893  -20.4449  -10.7027 C   0  0  0  0  0  0  0  0  0  0  0  0
   25.9549  -19.8142   -9.6297 O   0  0  0  0  0  0  0  0  0  0  0  0
   26.5686  -19.9527  -11.8978 C   0  0  0  0  0  0  0  0  0  0  0  0
   26.3467  -20.8112  -13.1153 C   0  0  2  0  0  0  0  0  0  0  0  0
   27.1687  -20.3951  -14.2325 N   0  0  0  0  0  0  0  0  0  0  0  0
   24.9124  -20.6546  -13.4957 C   0  0  0  0  0  0  0  0  0  0  0  0
   24.5660  -19.6639  -14.1991 O   0  0  0  0  0  0  0  0  0  0  0  0
   17.5541  -24.3542  -10.1328 N   0  0  0  0  0  0  0  0  0  0  0  0
   17.2931  -24.0872  -11.4928 C   0  0  0  0  0  0  0  0  0  0  0  0
   16.3084  -24.6169  -12.1441 N   0  0  0  0  0  0  0  0  0  0  0  0
   18.1453  -23.1866  -12.2181 N   0  0  0  0  0  0  0  0  0  0  0  0
   19.5689  -23.2811  -12.0242 C   0  0  0  0  0  0  0  0  0  0  0  0
   20.2564  -22.2769  -12.9423 C   0  0  0  0  0  0  0  0  0  0  0  0
   21.7222  -22.3298  -12.7000 C   0  0  0  0  0  0  0  0  0  0  0  0
   22.5146  -21.3768  -13.5425 C   0  0  2  0  0  0  0  0  0  0  0  0
   23.9126  -21.5572  -13.1117 N   0  0  0  0  0  0  0  0  0  0  0  0
   22.0815  -19.9996  -13.2991 C   0  0  0  0  0  0  0  0  0  0  0  0
   22.4094  -19.3071  -12.1582 O   0  0  0  0  0  0  0  0  0  0  0  0
   21.3655  -19.3854  -14.1612 O   0  0  0  0  0  0  0  0  0  0  0  0
  2  1  1  6
  2  3  1  0
  4  2  1  0
  5  4  2  0
  6  7  1  0
  7  9  1  0
  8  7  2  0
 10  9  1  1
 10 11  1  0
 11  4  1  0
 12 10  1  0
 12 22  1  0
 13 12  2  0
 15 16  2  0
 15 14  1  0
 17 15  1  0
 18 17  1  0
 19 18  1  0
 21 20  1  1
 20 19  1  0
 21 22  1  0
 21 23  1  0
 23 24  1  0
 25 23  2  0
M  END
$$$$
