ANR.pdb
     RDKit          3D

 25 24  0  0  1  0  0  0  0  0999 V2000
   25.5533   -8.3418  -19.1193 C   0  0  0  0  0  0  0  0  0  0  0  0
   24.1009   -7.9545  -19.2448 C   0  0  2  0  0  0  0  0  0  0  0  0
   23.9395   -6.7263  -20.0087 N   0  0  0  0  0  0  0  0  0  0  0  0
   23.5061   -7.8000  -17.8826 C   0  0  0  0  0  0  0  0  0  0  0  0
   23.4845   -8.8007  -17.1216 O   0  0  0  0  0  0  0  0  0  0  0  0
   21.4575   -5.9592  -13.5232 N   0  0  0  0  0  0  0  0  0  0  0  0
   22.2375   -4.9433  -14.1149 C   0  0  0  0  0  0  0  0  0  0  0  0
   22.5003   -3.9157  -13.4602 O   0  0  0  0  0  0  0  0  0  0  0  0
   22.7286   -5.1011  -15.4809 C   0  0  0  0  0  0  0  0  0  0  0  0
   22.4305   -6.4515  -16.0775 C   0  0  2  0  0  0  0  0  0  0  0  0
   22.9702   -6.5876  -17.4144 N   0  0  0  0  0  0  0  0  0  0  0  0
   20.9449   -6.5708  -16.1497 C   0  0  0  0  0  0  0  0  0  0  0  0
   20.2543   -5.5383  -16.3803 O   0  0  0  0  0  0  0  0  0  0  0  0
   15.7339  -13.4345  -14.1856 N   0  0  0  0  0  0  0  0  0  0  0  0
   14.9034  -12.5723  -14.9310 C   0  0  0  0  0  0  0  0  0  0  0  0
   13.7430  -12.9212  -15.3852 N   0  0  0  0  0  0  0  0  0  0  0  0
   15.3400  -11.2339  -15.2166 N   0  0  0  0  0  0  0  0  0  0  0  0
   16.7480  -10.9409  -15.1485 C   0  0  0  0  0  0  0  0  0  0  0  0
   16.9766   -9.5157  -15.6392 C   0  0  0  0  0  0  0  0  0  0  0  0
   18.4300   -9.2113  -15.5704 C   0  0  0  0  0  0  0  0  0  0  0  0
   18.7936   -7.8519  -16.0858 C   0  0  2  0  0  0  0  0  0  0  0  0
   20.2616   -7.7807  -15.9738 N   0  0  0  0  0  0  0  0  0  0  0  0
   18.1704   -6.8119  -15.2652 C   0  0  0  0  0  0  0  0  0  0  0  0
   17.1312   -6.0328  -15.7143 O   0  0  0  0  0  0  0  0  0  0  0  0
   18.5862   -6.5903  -14.0772 O   0  0  0  0  0  0  0  0  0  0  0  0
  2  1  1  1
  2  3  1  0
  4  2  1  0
  5  4  2  0
  6  7  1  0
  7  9  1  0
  8  7  2  0
 10  9  1  6
 10 11  1  0
 11  4  1  0
 12 10  1  0
 12 22  1  0
 13 12  2  0
 15 16  2  0
 15 14  1  0
 17 15  1  0
 18 17  1  0
 19 18  1  0
 21 20  1  1
 20 19  1  0
 21 22  1  0
 21 23  1  0
 23 24  1  0
 25 23  2  0
M  END
$$$$
