ANR.pdb
     RDKit          3D

 25 24  0  0  1  0  0  0  0  0999 V2000
   34.1544   -8.3580  -17.8501 C   0  0  0  0  0  0  0  0  0  0  0  0
   34.8340   -8.9629  -16.6470 C   0  0  2  0  0  0  0  0  0  0  0  0
   33.8671   -9.4977  -15.6998 N   0  0  0  0  0  0  0  0  0  0  0  0
   35.6911   -7.9320  -15.9870 C   0  0  0  0  0  0  0  0  0  0  0  0
   36.6999   -7.5067  -16.6054 O   0  0  0  0  0  0  0  0  0  0  0  0
   37.6924   -4.4602  -12.7280 N   0  0  0  0  0  0  0  0  0  0  0  0
   36.2961   -4.4828  -12.5268 C   0  0  0  0  0  0  0  0  0  0  0  0
   35.7684   -3.6116  -11.8084 O   0  0  0  0  0  0  0  0  0  0  0  0
   35.4837   -5.5195  -13.1571 C   0  0  0  0  0  0  0  0  0  0  0  0
   36.2600   -6.4107  -14.0906 C   0  0  2  0  0  0  0  0  0  0  0  0
   35.4206   -7.4168  -14.7072 N   0  0  0  0  0  0  0  0  0  0  0  0
   37.2973   -7.0967  -13.2662 C   0  0  0  0  0  0  0  0  0  0  0  0
   36.9917   -8.1545  -12.6466 O   0  0  0  0  0  0  0  0  0  0  0  0
   37.7341  -10.1623   -6.7022 N   0  0  0  0  0  0  0  0  0  0  0  0
   39.1238  -10.3021   -6.8972 C   0  0  0  0  0  0  0  0  0  0  0  0
   39.9025  -10.9005   -6.0546 N   0  0  0  0  0  0  0  0  0  0  0  0
   39.7346   -9.7637   -8.0808 N   0  0  0  0  0  0  0  0  0  0  0  0
   38.9457   -8.9164   -8.9368 C   0  0  0  0  0  0  0  0  0  0  0  0
   39.7822   -8.5322  -10.1520 C   0  0  0  0  0  0  0  0  0  0  0  0
   38.9445   -7.7222  -11.0751 C   0  0  0  0  0  0  0  0  0  0  0  0
   39.6186   -7.3803  -12.3691 C   0  0  2  0  0  0  0  0  0  0  0  0
   38.6109   -6.6278  -13.1378 N   0  0  0  0  0  0  0  0  0  0  0  0
   39.9972   -8.6000  -13.0849 C   0  0  0  0  0  0  0  0  0  0  0  0
   40.9749   -9.4541  -12.6342 O   0  0  0  0  0  0  0  0  0  0  0  0
   39.4166   -8.9137  -14.1793 O   0  0  0  0  0  0  0  0  0  0  0  0
  2  1  1  6
  2  3  1  0
  4  2  1  0
  5  4  2  0
  6  7  1  0
  7  9  1  0
  8  7  2  0
 10  9  1  1
 10 11  1  0
 11  4  1  0
 12 10  1  0
 12 22  1  0
 13 12  2  0
 15 16  2  0
 15 14  1  0
 17 15  1  0
 18 17  1  0
 19 18  1  0
 21 20  1  1
 20 19  1  0
 21 22  1  0
 21 23  1  0
 23 24  1  0
 25 23  2  0
M  END
$$$$
