ANR.pdb
     RDKit          3D

 25 24  0  0  1  0  0  0  0  0999 V2000
   18.5951  -11.1101  -15.0300 C   0  0  0  0  0  0  0  0  0  0  0  0
   17.8171   -9.8413  -14.7849 C   0  0  2  0  0  0  0  0  0  0  0  0
   17.9309   -8.9199  -15.9057 N   0  0  0  0  0  0  0  0  0  0  0  0
   18.3023   -9.1929  -13.5291 C   0  0  0  0  0  0  0  0  0  0  0  0
   18.0950   -9.7767  -12.4349 O   0  0  0  0  0  0  0  0  0  0  0  0
   20.9134   -6.4366  -10.0932 N   0  0  0  0  0  0  0  0  0  0  0  0
   21.4024   -6.0606  -11.3621 C   0  0  0  0  0  0  0  0  0  0  0  0
   22.3856   -5.2982  -11.4363 O   0  0  0  0  0  0  0  0  0  0  0  0
   20.7579   -6.5635  -12.5720 C   0  0  0  0  0  0  0  0  0  0  0  0
   19.5375   -7.4037  -12.3013 C   0  0  2  0  0  0  0  0  0  0  0  0
   18.9794   -7.9609  -13.5159 N   0  0  0  0  0  0  0  0  0  0  0  0
   18.5234   -6.5014  -11.6820 C   0  0  0  0  0  0  0  0  0  0  0  0
   17.9587   -5.6262  -12.3972 O   0  0  0  0  0  0  0  0  0  0  0  0
   12.5417   -9.9149   -7.7821 N   0  0  0  0  0  0  0  0  0  0  0  0
   12.3172   -9.4380   -9.0901 C   0  0  0  0  0  0  0  0  0  0  0  0
   11.2394   -9.6870   -9.7615 N   0  0  0  0  0  0  0  0  0  0  0  0
   13.3166   -8.6332   -9.7360 N   0  0  0  0  0  0  0  0  0  0  0  0
   14.3078   -7.9820   -8.9197 C   0  0  0  0  0  0  0  0  0  0  0  0
   15.1745   -7.0998   -9.8111 C   0  0  0  0  0  0  0  0  0  0  0  0
   16.2277   -6.4624   -8.9777 C   0  0  0  0  0  0  0  0  0  0  0  0
   17.1914   -5.6172   -9.7540 C   0  0  2  0  0  0  0  0  0  0  0  0
   18.1558   -6.5701  -10.3322 N   0  0  0  0  0  0  0  0  0  0  0  0
   17.8766   -4.6774   -8.8646 C   0  0  0  0  0  0  0  0  0  0  0  0
   17.3172   -3.4868   -8.4667 O   0  0  0  0  0  0  0  0  0  0  0  0
   19.0461   -4.9418   -8.4224 O   0  0  0  0  0  0  0  0  0  0  0  0
  2  1  1  6
  2  3  1  0
  4  2  1  0
  5  4  2  0
  6  7  1  0
  7  9  1  0
  8  7  2  0
 10  9  1  6
 10 11  1  0
 11  4  1  0
 12 10  1  0
 12 22  1  0
 13 12  2  0
 15 16  2  0
 15 14  1  0
 17 15  1  0
 18 17  1  0
 19 18  1  0
 21 20  1  1
 20 19  1  0
 21 22  1  0
 21 23  1  0
 23 24  1  0
 25 23  2  0
M  END
$$$$
