ANR.pdb
     RDKit          3D

 25 24  0  0  1  0  0  0  0  0999 V2000
   38.6167  -11.1196  -16.5808 C   0  0  0  0  0  0  0  0  0  0  0  0
   37.7391  -10.5516  -17.6682 C   0  0  2  0  0  0  0  0  0  0  0  0
   38.3511   -9.3901  -18.2965 N   0  0  0  0  0  0  0  0  0  0  0  0
   36.4066  -10.1901  -17.0965 C   0  0  0  0  0  0  0  0  0  0  0  0
   35.6887  -11.1080  -16.6243 O   0  0  0  0  0  0  0  0  0  0  0  0
   32.2258   -7.7675  -15.3490 N   0  0  0  0  0  0  0  0  0  0  0  0
   33.3259   -6.8984  -15.1905 C   0  0  0  0  0  0  0  0  0  0  0  0
   33.1751   -5.8299  -14.5667 O   0  0  0  0  0  0  0  0  0  0  0  0
   34.6250   -7.2538  -15.7543 C   0  0  0  0  0  0  0  0  0  0  0  0
   34.6151   -8.5474  -16.5257 C   0  0  2  0  0  0  0  0  0  0  0  0
   35.9203   -8.8715  -17.0627 N   0  0  0  0  0  0  0  0  0  0  0  0
   33.6656   -8.3627  -17.6618 C   0  0  0  0  0  0  0  0  0  0  0  0
   34.0197   -7.6646  -18.6535 O   0  0  0  0  0  0  0  0  0  0  0  0
   27.3055  -13.6245  -20.3616 N   0  0  0  0  0  0  0  0  0  0  0  0
   27.3342  -12.6412  -21.3722 C   0  0  0  0  0  0  0  0  0  0  0  0
   26.6520  -12.7293  -22.4683 N   0  0  0  0  0  0  0  0  0  0  0  0
   28.1522  -11.4722  -21.2053 N   0  0  0  0  0  0  0  0  0  0  0  0
   29.0742  -11.4304  -20.1003 C   0  0  0  0  0  0  0  0  0  0  0  0
   29.7608  -10.0694  -20.0858 C   0  0  0  0  0  0  0  0  0  0  0  0
   30.7155  -10.0250  -18.9472 C   0  0  0  0  0  0  0  0  0  0  0  0
   31.4994   -8.7509  -18.8576 C   0  0  2  0  0  0  0  0  0  0  0  0
   32.3844   -8.9278  -17.6923 N   0  0  0  0  0  0  0  0  0  0  0  0
   30.6018   -7.6138  -18.6461 C   0  0  0  0  0  0  0  0  0  0  0  0
   30.2515   -6.7452  -19.6519 O   0  0  0  0  0  0  0  0  0  0  0  0
   30.1066   -7.3876  -17.4899 O   0  0  0  0  0  0  0  0  0  0  0  0
  2  1  1  1
  2  3  1  0
  4  2  1  0
  5  4  2  0
  6  7  1  0
  7  9  1  0
  8  7  2  0
 10  9  1  6
 10 11  1  0
 11  4  1  0
 12 10  1  0
 12 22  1  0
 13 12  2  0
 15 16  2  0
 15 14  1  0
 17 15  1  0
 18 17  1  0
 19 18  1  0
 21 20  1  1
 20 19  1  0
 21 22  1  0
 21 23  1  0
 23 24  1  0
 25 23  2  0
M  END
$$$$
