ANR.pdb
     RDKit          3D

 25 24  0  0  1  0  0  0  0  0999 V2000
   30.7071  -20.5030  -10.6681 C   0  0  0  0  0  0  0  0  0  0  0  0
   29.8430  -21.5231  -11.3667 C   0  0  2  0  0  0  0  0  0  0  0  0
   30.5868  -22.2421  -12.3904 N   0  0  0  0  0  0  0  0  0  0  0  0
   28.6562  -20.8435  -11.9690 C   0  0  0  0  0  0  0  0  0  0  0  0
   27.8578  -20.2438  -11.2048 O   0  0  0  0  0  0  0  0  0  0  0  0
   27.3486  -17.3283  -13.8093 N   0  0  0  0  0  0  0  0  0  0  0  0
   27.7669  -17.9281  -15.0159 C   0  0  0  0  0  0  0  0  0  0  0  0
   28.2066  -17.2096  -15.9346 O   0  0  0  0  0  0  0  0  0  0  0  0
   27.6825  -19.3765  -15.1795 C   0  0  0  0  0  0  0  0  0  0  0  0
   27.2869  -20.1043  -13.9216 C   0  0  2  0  0  0  0  0  0  0  0  0
   28.3925  -20.8444  -13.3499 N   0  0  0  0  0  0  0  0  0  0  0  0
   26.2148  -21.0694  -14.3027 C   0  0  0  0  0  0  0  0  0  0  0  0
   26.5387  -22.1920  -14.7835 O   0  0  0  0  0  0  0  0  0  0  0  0
   18.9514  -24.5979  -13.5857 N   0  0  0  0  0  0  0  0  0  0  0  0
   18.4488  -23.3108  -13.3035 C   0  0  0  0  0  0  0  0  0  0  0  0
   17.1850  -23.0420  -13.2319 N   0  0  0  0  0  0  0  0  0  0  0  0
   19.3606  -22.2235  -13.0798 N   0  0  0  0  0  0  0  0  0  0  0  0
   20.3263  -21.9148  -14.1020 C   0  0  0  0  0  0  0  0  0  0  0  0
   21.6295  -22.6371  -13.7796 C   0  0  0  0  0  0  0  0  0  0  0  0
   22.7089  -21.6288  -13.6123 C   0  0  0  0  0  0  0  0  0  0  0  0
   23.8263  -21.7613  -14.6021 C   0  0  2  0  0  0  0  0  0  0  0  0
   24.8486  -20.7979  -14.1557 N   0  0  0  0  0  0  0  0  0  0  0  0
   23.3593  -21.4201  -15.9470 C   0  0  0  0  0  0  0  0  0  0  0  0
   23.2657  -20.1246  -16.3959 O   0  0  0  0  0  0  0  0  0  0  0  0
   23.0137  -22.3402  -16.7639 O   0  0  0  0  0  0  0  0  0  0  0  0
  2  1  1  6
  2  3  1  0
  4  2  1  0
  5  4  2  0
  6  7  1  0
  7  9  1  0
  8  7  2  0
 10  9  1  6
 10 11  1  0
 11  4  1  0
 12 10  1  0
 12 22  1  0
 13 12  2  0
 15 16  2  0
 15 14  1  0
 17 15  1  0
 18 17  1  0
 19 18  1  0
 21 20  1  1
 20 19  1  0
 21 22  1  0
 21 23  1  0
 23 24  1  0
 25 23  2  0
M  END
$$$$
