ANR.pdb
     RDKit          3D

 25 24  0  0  1  0  0  0  0  0999 V2000
   17.6749   -4.2226  -17.1202 C   0  0  0  0  0  0  0  0  0  0  0  0
   18.4220   -4.8346  -15.9616 C   0  0  2  0  0  0  0  0  0  0  0  0
   19.8455   -4.9465  -16.2429 N   0  0  0  0  0  0  0  0  0  0  0  0
   17.8474   -6.1788  -15.6513 C   0  0  0  0  0  0  0  0  0  0  0  0
   16.8474   -6.5683  -16.3065 O   0  0  0  0  0  0  0  0  0  0  0  0
   17.0257  -10.9875  -14.1211 N   0  0  0  0  0  0  0  0  0  0  0  0
   18.3913  -10.7765  -14.4065 C   0  0  0  0  0  0  0  0  0  0  0  0
   19.1566  -11.7569  -14.4883 O   0  0  0  0  0  0  0  0  0  0  0  0
   18.8958   -9.4204  -14.6027 C   0  0  0  0  0  0  0  0  0  0  0  0
   17.8465   -8.3544  -14.4262 C   0  0  2  0  0  0  0  0  0  0  0  0
   18.3741   -7.0265  -14.6611 N   0  0  0  0  0  0  0  0  0  0  0  0
   17.3826   -8.4385  -13.0106 C   0  0  0  0  0  0  0  0  0  0  0  0
   17.8103   -7.5969  -12.1709 O   0  0  0  0  0  0  0  0  0  0  0  0
   15.0521   -5.1486   -7.4646 N   0  0  0  0  0  0  0  0  0  0  0  0
   13.7524   -5.6897   -7.5469 C   0  0  0  0  0  0  0  0  0  0  0  0
   12.8605   -5.5391   -6.6214 N   0  0  0  0  0  0  0  0  0  0  0  0
   13.3699   -6.4510   -8.7035 N   0  0  0  0  0  0  0  0  0  0  0  0
   14.3911   -6.8324   -9.6439 C   0  0  0  0  0  0  0  0  0  0  0  0
   13.7426   -7.6108  -10.7831 C   0  0  0  0  0  0  0  0  0  0  0  0
   14.7888   -7.9693  -11.7765 C   0  0  0  0  0  0  0  0  0  0  0  0
   15.6130   -9.1603  -11.3916 C   0  0  2  0  0  0  0  0  0  0  0  0
   16.4861   -9.4121  -12.5522 N   0  0  0  0  0  0  0  0  0  0  0  0
   14.7517  -10.3177  -11.1430 C   0  0  0  0  0  0  0  0  0  0  0  0
   14.5866  -10.8679   -9.8944 O   0  0  0  0  0  0  0  0  0  0  0  0
   14.1132  -10.8666  -12.1043 O   0  0  0  0  0  0  0  0  0  0  0  0
  2  1  1  6
  2  3  1  0
  4  2  1  0
  5  4  2  0
  6  7  1  0
  7  9  1  0
  8  7  2  0
 10  9  1  1
 10 11  1  0
 11  4  1  0
 12 10  1  0
 12 22  1  0
 13 12  2  0
 15 16  2  0
 15 14  1  0
 17 15  1  0
 18 17  1  0
 19 18  1  0
 21 20  1  6
 20 19  1  0
 21 22  1  0
 21 23  1  0
 23 24  1  0
 25 23  2  0
M  END
$$$$
