ANR.pdb
     RDKit          3D

 25 24  0  0  1  0  0  0  0  0999 V2000
   28.1641  -27.2842  -16.3759 C   0  0  0  0  0  0  0  0  0  0  0  0
   26.6683  -27.4342  -16.4989 C   0  0  2  0  0  0  0  0  0  0  0  0
   26.2483  -27.4771  -17.8917 N   0  0  0  0  0  0  0  0  0  0  0  0
   25.9934  -26.3061  -15.7882 C   0  0  0  0  0  0  0  0  0  0  0  0
   26.2297  -26.1426  -14.5641 O   0  0  0  0  0  0  0  0  0  0  0  0
   26.8059  -22.9320  -15.9768 N   0  0  0  0  0  0  0  0  0  0  0  0
   25.6676  -22.3964  -16.6157 C   0  0  0  0  0  0  0  0  0  0  0  0
   25.7733  -21.3378  -17.2651 O   0  0  0  0  0  0  0  0  0  0  0  0
   24.3820  -23.0809  -16.5126 C   0  0  0  0  0  0  0  0  0  0  0  0
   24.4385  -24.3541  -15.7098 C   0  0  2  0  0  0  0  0  0  0  0  0
   25.1072  -25.4205  -16.4259 N   0  0  0  0  0  0  0  0  0  0  0  0
   23.0267  -24.7643  -15.4551 C   0  0  0  0  0  0  0  0  0  0  0  0
   22.4976  -25.6428  -16.1931 O   0  0  0  0  0  0  0  0  0  0  0  0
   18.8992  -27.2190   -8.5643 N   0  0  0  0  0  0  0  0  0  0  0  0
   18.1127  -27.7282   -9.6184 C   0  0  0  0  0  0  0  0  0  0  0  0
   17.1885  -28.6180   -9.4492 N   0  0  0  0  0  0  0  0  0  0  0  0
   18.3248  -27.2548  -10.9580 N   0  0  0  0  0  0  0  0  0  0  0  0
   19.6117  -26.7054  -11.2973 C   0  0  0  0  0  0  0  0  0  0  0  0
   19.5542  -26.1659  -12.7220 C   0  0  0  0  0  0  0  0  0  0  0  0
   20.8771  -25.5830  -13.0686 C   0  0  0  0  0  0  0  0  0  0  0  0
   20.8427  -24.6427  -14.2349 C   0  0  2  0  0  0  0  0  0  0  0  0
   22.2422  -24.2228  -14.4288 N   0  0  0  0  0  0  0  0  0  0  0  0
   20.0019  -23.4834  -13.9308 C   0  0  0  0  0  0  0  0  0  0  0  0
   18.6287  -23.5333  -13.9553 O   0  0  0  0  0  0  0  0  0  0  0  0
   20.5332  -22.3613  -13.6280 O   0  0  0  0  0  0  0  0  0  0  0  0
  2  1  1  6
  2  3  1  0
  4  2  1  0
  5  4  2  0
  6  7  1  0
  7  9  1  0
  8  7  2  0
 10  9  1  6
 10 11  1  0
 11  4  1  0
 12 10  1  0
 12 22  1  0
 13 12  2  0
 15 16  2  0
 15 14  1  0
 17 15  1  0
 18 17  1  0
 19 18  1  0
 21 20  1  1
 20 19  1  0
 21 22  1  0
 21 23  1  0
 23 24  1  0
 25 23  2  0
M  END
$$$$
