ANR.pdb
     RDKit          3D

 25 24  0  0  1  0  0  0  0  0999 V2000
   24.5775  -19.8809  -19.8693 C   0  0  0  0  0  0  0  0  0  0  0  0
   24.6521  -20.3836  -18.4492 C   0  0  2  0  0  0  0  0  0  0  0  0
   23.6141  -19.7922  -17.6178 N   0  0  0  0  0  0  0  0  0  0  0  0
   26.0026  -20.0842  -17.8839 C   0  0  0  0  0  0  0  0  0  0  0  0
   26.9289  -20.9127  -18.0751 O   0  0  0  0  0  0  0  0  0  0  0  0
   27.9296  -15.6631  -18.6563 N   0  0  0  0  0  0  0  0  0  0  0  0
   28.4712  -16.7896  -18.0019 C   0  0  0  0  0  0  0  0  0  0  0  0
   29.3858  -17.4339  -18.5515 O   0  0  0  0  0  0  0  0  0  0  0  0
   27.9605  -17.1907  -16.6942 C   0  0  0  0  0  0  0  0  0  0  0  0
   27.6001  -18.6506  -16.6085 C   0  0  2  0  0  0  0  0  0  0  0  0
   26.2837  -18.9193  -17.1487 N   0  0  0  0  0  0  0  0  0  0  0  0
   27.6023  -19.0093  -15.1602 C   0  0  0  0  0  0  0  0  0  0  0  0
   28.6809  -18.9294  -14.5072 O   0  0  0  0  0  0  0  0  0  0  0  0
   20.6935  -21.2627  -10.7889 N   0  0  0  0  0  0  0  0  0  0  0  0
   21.4265  -21.7753  -11.8793 C   0  0  0  0  0  0  0  0  0  0  0  0
   20.8958  -22.4898  -12.8186 N   0  0  0  0  0  0  0  0  0  0  0  0
   22.8343  -21.5078  -11.9798 N   0  0  0  0  0  0  0  0  0  0  0  0
   23.4579  -20.7131  -10.9539 C   0  0  0  0  0  0  0  0  0  0  0  0
   24.9449  -20.5887  -11.2661 C   0  0  0  0  0  0  0  0  0  0  0  0
   25.1033  -20.0483  -12.6420 C   0  0  0  0  0  0  0  0  0  0  0  0
   26.5290  -19.8537  -13.0606 C   0  0  2  0  0  0  0  0  0  0  0  0
   26.4592  -19.4362  -14.4724 N   0  0  0  0  0  0  0  0  0  0  0  0
   27.2724  -21.1091  -12.9380 C   0  0  0  0  0  0  0  0  0  0  0  0
   28.0170  -21.4275  -11.8277 O   0  0  0  0  0  0  0  0  0  0  0  0
   27.2524  -21.9671  -13.8850 O   0  0  0  0  0  0  0  0  0  0  0  0
  2  1  1  6
  2  3  1  0
  4  2  1  0
  5  4  2  0
  6  7  1  0
  7  9  1  0
  8  7  2  0
 10  9  1  1
 10 11  1  0
 11  4  1  0
 12 10  1  0
 12 22  1  0
 13 12  2  0
 15 16  2  0
 15 14  1  0
 17 15  1  0
 18 17  1  0
 19 18  1  0
 21 20  1  6
 20 19  1  0
 21 22  1  0
 21 23  1  0
 23 24  1  0
 25 23  2  0
M  END
$$$$
