ANR.pdb
     RDKit          3D

 25 24  0  0  1  0  0  0  0  0999 V2000
   27.7638  -22.0776  -11.4096 C   0  0  0  0  0  0  0  0  0  0  0  0
   26.5325  -21.2357  -11.1862 C   0  0  2  0  0  0  0  0  0  0  0  0
   25.7621  -21.7078  -10.0452 N   0  0  0  0  0  0  0  0  0  0  0  0
   25.6903  -21.2456  -12.4205 C   0  0  0  0  0  0  0  0  0  0  0  0
   26.2380  -20.9827  -13.5213 O   0  0  0  0  0  0  0  0  0  0  0  0
   24.5914  -24.0877  -14.2615 N   0  0  0  0  0  0  0  0  0  0  0  0
   23.2271  -24.0495  -13.9039 C   0  0  0  0  0  0  0  0  0  0  0  0
   22.5843  -25.1150  -13.8329 O   0  0  0  0  0  0  0  0  0  0  0  0
   22.5813  -22.7708  -13.6212 C   0  0  0  0  0  0  0  0  0  0  0  0
   23.5308  -21.6016  -13.6222 C   0  0  2  0  0  0  0  0  0  0  0  0
   24.3147  -21.5354  -12.4064 N   0  0  0  0  0  0  0  0  0  0  0  0
   22.6947  -20.3694  -13.7168 C   0  0  0  0  0  0  0  0  0  0  0  0
   21.9791  -20.0330  -12.7314 O   0  0  0  0  0  0  0  0  0  0  0  0
   23.9294  -12.6118  -16.0031 N   0  0  0  0  0  0  0  0  0  0  0  0
   22.5527  -12.6251  -16.3084 C   0  0  0  0  0  0  0  0  0  0  0  0
   21.8657  -11.5527  -16.5377 N   0  0  0  0  0  0  0  0  0  0  0  0
   21.8502  -13.8763  -16.3755 N   0  0  0  0  0  0  0  0  0  0  0  0
   22.6066  -15.0962  -16.2631 C   0  0  0  0  0  0  0  0  0  0  0  0
   21.6439  -16.2770  -16.3194 C   0  0  0  0  0  0  0  0  0  0  0  0
   22.3982  -17.5257  -16.0335 C   0  0  0  0  0  0  0  0  0  0  0  0
   21.8618  -18.3108  -14.8752 C   0  0  2  0  0  0  0  0  0  0  0  0
   22.6572  -19.5515  -14.8533 N   0  0  0  0  0  0  0  0  0  0  0  0
   20.4453  -18.6188  -15.0801 C   0  0  0  0  0  0  0  0  0  0  0  0
   20.0169  -19.6707  -15.8539 O   0  0  0  0  0  0  0  0  0  0  0  0
   19.5418  -17.8989  -14.5337 O   0  0  0  0  0  0  0  0  0  0  0  0
  2  1  1  6
  2  3  1  0
  4  2  1  0
  5  4  2  0
  6  7  1  0
  7  9  1  0
  8  7  2  0
 10  9  1  1
 10 11  1  0
 11  4  1  0
 12 10  1  0
 12 22  1  0
 13 12  2  0
 15 16  2  0
 15 14  1  0
 17 15  1  0
 18 17  1  0
 19 18  1  0
 21 20  1  6
 20 19  1  0
 21 22  1  0
 21 23  1  0
 23 24  1  0
 25 23  2  0
M  END
$$$$
