ANR.pdb
     RDKit          3D

 25 24  0  0  1  0  0  0  0  0999 V2000
   20.0365  -19.0951  -17.4224 C   0  0  0  0  0  0  0  0  0  0  0  0
   19.4953  -17.8630  -18.1036 C   0  0  2  0  0  0  0  0  0  0  0  0
   18.7736  -18.1995  -19.3218 N   0  0  0  0  0  0  0  0  0  0  0  0
   20.6193  -16.9267  -18.4085 C   0  0  0  0  0  0  0  0  0  0  0  0
   21.5210  -17.3100  -19.1966 O   0  0  0  0  0  0  0  0  0  0  0  0
   20.0546  -13.3746  -19.8973 N   0  0  0  0  0  0  0  0  0  0  0  0
   20.4990  -12.6794  -18.7528 C   0  0  0  0  0  0  0  0  0  0  0  0
   20.0646  -11.5331  -18.5276 O   0  0  0  0  0  0  0  0  0  0  0  0
   21.4584  -13.3030  -17.8458 C   0  0  0  0  0  0  0  0  0  0  0  0
   21.7867  -14.7293  -18.2016 C   0  0  2  0  0  0  0  0  0  0  0  0
   20.7139  -15.6380  -17.8546 N   0  0  0  0  0  0  0  0  0  0  0  0
   22.9982  -15.1006  -17.4137 C   0  0  0  0  0  0  0  0  0  0  0  0
   22.8561  -15.6989  -16.3101 O   0  0  0  0  0  0  0  0  0  0  0  0
   26.7155  -21.7898  -17.2564 N   0  0  0  0  0  0  0  0  0  0  0  0
   27.7462  -21.0891  -16.5964 C   0  0  0  0  0  0  0  0  0  0  0  0
   28.7729  -21.6704  -16.0651 N   0  0  0  0  0  0  0  0  0  0  0  0
   27.6810  -19.6578  -16.4926 N   0  0  0  0  0  0  0  0  0  0  0  0
   26.5349  -18.9803  -17.0408 C   0  0  0  0  0  0  0  0  0  0  0  0
   26.6333  -17.4973  -16.7015 C   0  0  0  0  0  0  0  0  0  0  0  0
   25.4311  -16.8023  -17.2322 C   0  0  0  0  0  0  0  0  0  0  0  0
   25.4716  -15.3119  -17.0811 C   0  0  2  0  0  0  0  0  0  0  0  0
   24.3043  -14.8195  -17.8343 N   0  0  0  0  0  0  0  0  0  0  0  0
   26.7082  -14.7749  -17.6519 C   0  0  0  0  0  0  0  0  0  0  0  0
   27.8531  -14.5970  -16.9129 O   0  0  0  0  0  0  0  0  0  0  0  0
   26.7606  -14.4449  -18.8855 O   0  0  0  0  0  0  0  0  0  0  0  0
  2  1  1  6
  2  3  1  0
  4  2  1  0
  5  4  2  0
  6  7  1  0
  7  9  1  0
  8  7  2  0
 10  9  1  1
 10 11  1  0
 11  4  1  0
 12 10  1  0
 12 22  1  0
 13 12  2  0
 15 16  2  0
 15 14  1  0
 17 15  1  0
 18 17  1  0
 19 18  1  0
 21 20  1  6
 20 19  1  0
 21 22  1  0
 21 23  1  0
 23 24  1  0
 25 23  2  0
M  END
$$$$
