NSV.pdb
     RDKit          3D

 22 21  0  0  1  0  0  0  0  0999 V2000
    8.0846  -13.0133   16.2394 N   0  0  0  0  0  0  0  0  0  0  0  0
    8.0720  -13.9226   17.3174 C   0  0  0  0  0  0  0  0  0  0  0  0
    8.3541  -15.1433   17.1709 O   0  0  0  0  0  0  0  0  0  0  0  0
    7.7131  -13.4316   18.6840 C   0  0  0  0  0  0  0  0  0  0  0  0
    8.6277  -14.0472   19.7229 C   0  0  2  0  0  0  0  0  0  0  0  0
    9.1420  -15.3210   19.3089 N   0  0  0  0  0  0  0  0  0  0  0  0
    7.8277  -14.1688   20.9927 C   0  0  0  0  0  0  0  0  0  0  0  0
    7.2720  -13.1686   21.5196 O   0  0  0  0  0  0  0  0  0  0  0  0
    8.0529  -17.6954   23.4167 O   0  0  0  0  0  0  0  0  0  0  0  0
    6.8429  -17.0593   23.1539 C   0  0  0  0  0  0  0  0  0  0  0  0
    7.0630  -15.5757   22.9576 C   0  0  2  0  0  0  0  0  0  0  0  0
    7.6674  -15.4137   21.6468 N   0  0  0  0  0  0  0  0  0  0  0  0
    7.8733  -14.9566   24.0183 C   0  0  0  0  0  0  0  0  0  0  0  0
    9.1094  -14.7812   23.7880 O   0  0  0  0  0  0  0  0  0  0  0  0
    6.2513  -13.1849   27.4503 C   0  0  0  0  0  0  0  0  0  0  0  0
    7.6094  -12.8041   26.9262 C   0  0  2  0  0  0  0  0  0  0  0  0
    7.3865  -11.7738   25.8302 C   0  0  0  0  0  0  0  0  0  0  0  0
    8.2614  -14.0059   26.2945 C   0  0  2  0  0  0  0  0  0  0  0  0
    7.3729  -14.5491   25.2609 N   0  0  0  0  0  0  0  0  0  0  0  0
    8.5732  -15.0455   27.3101 C   0  0  0  0  0  0  0  0  0  0  0  0
    9.4979  -14.8092   28.3146 O   0  0  0  0  0  0  0  0  0  0  0  0
    8.0116  -16.1616   27.2878 O   0  0  0  0  0  0  0  0  0  0  0  0
  2  1  1  0
  2  4  1  0
  3  2  2  0
  5  4  1  0
  5  6  1  6
  7  8  2  0
  7  5  1  0
  9 10  1  0
 11 10  1  1
 11 12  1  0
 12  7  1  0
 13 14  2  0
 13 11  1  0
 16 15  1  6
 17 16  1  0
 18 16  1  0
 18 19  1  6
 19 13  1  0
 20 18  1  0
 21 20  1  0
 22 20  2  0
M  END
$$$$
