NSV.pdb
     RDKit          3D

 22 21  0  0  1  0  0  0  0  0999 V2000
    6.6348  -13.6955   18.2347 N   0  0  0  0  0  0  0  0  0  0  0  0
    7.7474  -13.8000   19.0950 C   0  0  0  0  0  0  0  0  0  0  0  0
    8.9326  -13.8117   18.6632 O   0  0  0  0  0  0  0  0  0  0  0  0
    7.5239  -13.9008   20.5706 C   0  0  0  0  0  0  0  0  0  0  0  0
    8.5066  -14.8744   21.1878 C   0  0  2  0  0  0  0  0  0  0  0  0
    8.4789  -16.1567   20.5448 N   0  0  0  0  0  0  0  0  0  0  0  0
    8.1515  -14.9882   22.6467 C   0  0  0  0  0  0  0  0  0  0  0  0
    7.9075  -13.9698   23.3467 O   0  0  0  0  0  0  0  0  0  0  0  0
    8.3303  -18.7518   24.5818 O   0  0  0  0  0  0  0  0  0  0  0  0
    7.3330  -17.8339   24.8988 C   0  0  0  0  0  0  0  0  0  0  0  0
    7.8428  -16.4218   24.7141 C   0  0  2  0  0  0  0  0  0  0  0  0
    8.0775  -16.2459   23.2916 N   0  0  0  0  0  0  0  0  0  0  0  0
    9.0423  -16.1213   25.5117 C   0  0  0  0  0  0  0  0  0  0  0  0
   10.1673  -16.1754   24.9258 O   0  0  0  0  0  0  0  0  0  0  0  0
    9.0978  -14.2889   29.3007 C   0  0  0  0  0  0  0  0  0  0  0  0
   10.2845  -14.3619   28.3783 C   0  0  2  0  0  0  0  0  0  0  0  0
   10.1127  -13.2551   27.3499 C   0  0  0  0  0  0  0  0  0  0  0  0
   10.2693  -15.6746   27.6402 C   0  0  2  0  0  0  0  0  0  0  0  0
    9.0252  -15.7805   26.8696 N   0  0  0  0  0  0  0  0  0  0  0  0
   10.3989  -16.8211   28.5774 C   0  0  0  0  0  0  0  0  0  0  0  0
   11.5600  -17.0208   29.3068 O   0  0  0  0  0  0  0  0  0  0  0  0
    9.4659  -17.6375   28.7348 O   0  0  0  0  0  0  0  0  0  0  0  0
  2  1  1  0
  2  4  1  0
  3  2  2  0
  5  4  1  0
  5  6  1  6
  7  8  2  0
  7  5  1  0
  9 10  1  0
 11 10  1  6
 11 12  1  0
 12  7  1  0
 13 14  2  0
 13 11  1  0
 16 15  1  1
 17 16  1  0
 18 16  1  0
 18 19  1  1
 19 13  1  0
 20 18  1  0
 21 20  1  0
 22 20  2  0
M  END
$$$$
