NSV.pdb
     RDKit          3D

 22 21  0  0  1  0  0  0  0  0999 V2000
    7.8658  -17.4786   16.2389 N   0  0  0  0  0  0  0  0  0  0  0  0
    8.5590  -16.8024   17.2641 C   0  0  0  0  0  0  0  0  0  0  0  0
    9.8042  -16.6064   17.2180 O   0  0  0  0  0  0  0  0  0  0  0  0
    7.8000  -16.2972   18.4499 C   0  0  0  0  0  0  0  0  0  0  0  0
    8.5707  -16.5700   19.7251 C   0  0  2  0  0  0  0  0  0  0  0  0
    8.8589  -17.9648   19.8990 N   0  0  0  0  0  0  0  0  0  0  0  0
    7.7376  -16.0396   20.8616 C   0  0  0  0  0  0  0  0  0  0  0  0
    7.4128  -14.8244   20.9291 O   0  0  0  0  0  0  0  0  0  0  0  0
    6.9218  -18.4410   24.2614 O   0  0  0  0  0  0  0  0  0  0  0  0
    5.9169  -17.6709   23.6826 C   0  0  0  0  0  0  0  0  0  0  0  0
    6.5077  -16.4343   23.0426 C   0  0  2  0  0  0  0  0  0  0  0  0
    7.2849  -16.8861   21.9018 N   0  0  0  0  0  0  0  0  0  0  0  0
    7.3105  -15.6200   23.9686 C   0  0  0  0  0  0  0  0  0  0  0  0
    8.5733  -15.6604   23.8443 O   0  0  0  0  0  0  0  0  0  0  0  0
    5.9711  -12.1856   25.7309 C   0  0  0  0  0  0  0  0  0  0  0  0
    6.7930  -13.0516   26.6467 C   0  0  2  0  0  0  0  0  0  0  0  0
    7.7298  -12.1256   27.4065 C   0  0  0  0  0  0  0  0  0  0  0  0
    7.6436  -13.9866   25.8278 C   0  0  2  0  0  0  0  0  0  0  0  0
    6.7757  -14.8058   24.9743 N   0  0  0  0  0  0  0  0  0  0  0  0
    8.4833  -14.8518   26.6972 C   0  0  0  0  0  0  0  0  0  0  0  0
    9.7822  -14.4943   27.0211 O   0  0  0  0  0  0  0  0  0  0  0  0
    8.0432  -15.9256   27.1608 O   0  0  0  0  0  0  0  0  0  0  0  0
  2  1  1  0
  2  4  1  0
  3  2  2  0
  5  4  1  0
  5  6  1  1
  7  8  2  0
  7  5  1  0
  9 10  1  0
 11 10  1  1
 11 12  1  0
 12  7  1  0
 13 14  2  0
 13 11  1  0
 16 15  1  6
 17 16  1  0
 18 16  1  0
 18 19  1  1
 19 13  1  0
 20 18  1  0
 21 20  1  0
 22 20  2  0
M  END
$$$$
