NSV.pdb
     RDKit          3D

 22 21  0  0  1  0  0  0  0  0999 V2000
   12.9641  -17.6971   17.6098 N   0  0  0  0  0  0  0  0  0  0  0  0
   12.5611  -17.6627   18.9608 C   0  0  0  0  0  0  0  0  0  0  0  0
   13.0622  -18.4253   19.8317 O   0  0  0  0  0  0  0  0  0  0  0  0
   11.5043  -16.6925   19.3842 C   0  0  0  0  0  0  0  0  0  0  0  0
   10.3100  -17.4289   19.9551 C   0  0  2  0  0  0  0  0  0  0  0  0
    9.5159  -18.0513   18.9350 N   0  0  0  0  0  0  0  0  0  0  0  0
    9.5059  -16.4213   20.7331 C   0  0  0  0  0  0  0  0  0  0  0  0
    9.7222  -15.1846   20.6299 O   0  0  0  0  0  0  0  0  0  0  0  0
    6.2733  -17.7166   23.1669 O   0  0  0  0  0  0  0  0  0  0  0  0
    6.1905  -16.6609   22.2635 C   0  0  0  0  0  0  0  0  0  0  0  0
    7.5059  -15.9163   22.2061 C   0  0  2  0  0  0  0  0  0  0  0  0
    8.4730  -16.8234   21.6133 N   0  0  0  0  0  0  0  0  0  0  0  0
    7.9530  -15.4120   23.5141 C   0  0  0  0  0  0  0  0  0  0  0  0
    8.9223  -16.0100   24.0752 O   0  0  0  0  0  0  0  0  0  0  0  0
    7.6318  -12.2113   27.2707 C   0  0  0  0  0  0  0  0  0  0  0  0
    7.1178  -12.6674   25.9320 C   0  0  2  0  0  0  0  0  0  0  0  0
    5.6539  -13.0321   26.1224 C   0  0  0  0  0  0  0  0  0  0  0  0
    7.8464  -13.9165   25.5110 C   0  0  2  0  0  0  0  0  0  0  0  0
    7.3823  -14.3198   24.1788 N   0  0  0  0  0  0  0  0  0  0  0  0
    7.6383  -15.0168   26.4885 C   0  0  0  0  0  0  0  0  0  0  0  0
    8.5346  -15.2335   27.5228 O   0  0  0  0  0  0  0  0  0  0  0  0
    6.6504  -15.7777   26.4064 O   0  0  0  0  0  0  0  0  0  0  0  0
  2  1  1  0
  2  4  1  0
  3  2  2  0
  5  4  1  0
  5  6  1  6
  7  8  2  0
  7  5  1  0
  9 10  1  0
 11 10  1  1
 11 12  1  0
 12  7  1  0
 13 14  2  0
 13 11  1  0
 16 15  1  1
 17 16  1  0
 18 16  1  0
 18 19  1  6
 19 13  1  0
 20 18  1  0
 21 20  1  0
 22 20  2  0
M  END
$$$$
