NSV.pdb
     RDKit          3D

 22 21  0  0  1  0  0  0  0  0999 V2000
    7.7397  -22.0294   18.5479 N   0  0  0  0  0  0  0  0  0  0  0  0
    8.7281  -21.8177   19.5313 C   0  0  0  0  0  0  0  0  0  0  0  0
    9.1986  -22.7599   20.2256 O   0  0  0  0  0  0  0  0  0  0  0  0
    9.2415  -20.4325   19.7658 C   0  0  0  0  0  0  0  0  0  0  0  0
    8.5127  -19.4427   18.8806 C   0  0  2  0  0  0  0  0  0  0  0  0
    9.3576  -18.9081   17.8515 N   0  0  0  0  0  0  0  0  0  0  0  0
    7.9922  -18.3527   19.7795 C   0  0  0  0  0  0  0  0  0  0  0  0
    8.5985  -17.2556   19.9038 O   0  0  0  0  0  0  0  0  0  0  0  0
    4.5826  -19.0320   22.1777 O   0  0  0  0  0  0  0  0  0  0  0  0
    4.7559  -17.8171   21.5206 C   0  0  0  0  0  0  0  0  0  0  0  0
    6.2287  -17.4990   21.3877 C   0  0  2  0  0  0  0  0  0  0  0  0
    6.7988  -18.5169   20.5226 N   0  0  0  0  0  0  0  0  0  0  0  0
    6.9307  -17.4165   22.6783 C   0  0  0  0  0  0  0  0  0  0  0  0
    7.6746  -18.3914   23.0068 O   0  0  0  0  0  0  0  0  0  0  0  0
    6.2856  -14.4111   25.6467 C   0  0  0  0  0  0  0  0  0  0  0  0
    7.6739  -14.8888   25.3169 C   0  0  2  0  0  0  0  0  0  0  0  0
    8.1832  -14.0147   24.1816 C   0  0  0  0  0  0  0  0  0  0  0  0
    7.6122  -16.3049   24.8079 C   0  0  2  0  0  0  0  0  0  0  0  0
    6.8331  -16.3373   23.5650 N   0  0  0  0  0  0  0  0  0  0  0  0
    7.0144  -17.2153   25.8194 C   0  0  0  0  0  0  0  0  0  0  0  0
    7.7385  -17.6288   26.9261 O   0  0  0  0  0  0  0  0  0  0  0  0
    5.8429  -17.6340   25.7018 O   0  0  0  0  0  0  0  0  0  0  0  0
  2  1  1  0
  2  4  1  0
  3  2  2  0
  5  4  1  0
  5  6  1  6
  7  8  2  0
  7  5  1  0
  9 10  1  0
 11 10  1  1
 11 12  1  0
 12  7  1  0
 13 14  2  0
 13 11  1  0
 16 15  1  6
 17 16  1  0
 18 16  1  0
 18 19  1  6
 19 13  1  0
 20 18  1  0
 21 20  1  0
 22 20  2  0
M  END
$$$$
