NSV.pdb
     RDKit          3D

 22 21  0  0  1  0  0  0  0  0999 V2000
   10.5030  -18.6270   18.8097 N   0  0  0  0  0  0  0  0  0  0  0  0
    9.9079  -17.3785   18.5344 C   0  0  0  0  0  0  0  0  0  0  0  0
   10.3608  -16.5971   17.6538 O   0  0  0  0  0  0  0  0  0  0  0  0
    8.6984  -16.9585   19.3079 C   0  0  0  0  0  0  0  0  0  0  0  0
    8.3442  -18.0059   20.3433 C   0  0  2  0  0  0  0  0  0  0  0  0
    7.7178  -19.1575   19.7602 N   0  0  0  0  0  0  0  0  0  0  0  0
    7.4381  -17.3412   21.3455 C   0  0  0  0  0  0  0  0  0  0  0  0
    6.1890  -17.3108   21.1858 O   0  0  0  0  0  0  0  0  0  0  0  0
    7.3183  -18.1729   24.9346 O   0  0  0  0  0  0  0  0  0  0  0  0
    6.4236  -17.3999   24.2000 C   0  0  0  0  0  0  0  0  0  0  0  0
    7.1344  -16.2104   23.5936 C   0  0  2  0  0  0  0  0  0  0  0  0
    7.9540  -16.7226   22.5094 N   0  0  0  0  0  0  0  0  0  0  0  0
    7.9259  -15.4405   24.5662 C   0  0  0  0  0  0  0  0  0  0  0  0
    9.1597  -15.7199   24.6736 O   0  0  0  0  0  0  0  0  0  0  0  0
    6.2828  -12.5389   27.1869 C   0  0  0  0  0  0  0  0  0  0  0  0
    7.6510  -12.3397   26.5930 C   0  0  2  0  0  0  0  0  0  0  0  0
    7.4557  -11.6260   25.2646 C   0  0  0  0  0  0  0  0  0  0  0  0
    8.2743  -13.6794   26.3020 C   0  0  2  0  0  0  0  0  0  0  0  0
    7.4102  -14.4231   25.3784 N   0  0  0  0  0  0  0  0  0  0  0  0
    8.4896  -14.4561   27.5509 C   0  0  0  0  0  0  0  0  0  0  0  0
    9.4148  -14.0461   28.4975 O   0  0  0  0  0  0  0  0  0  0  0  0
    7.8436  -15.5002   27.7837 O   0  0  0  0  0  0  0  0  0  0  0  0
  2  1  1  0
  2  4  1  0
  3  2  2  0
  5  4  1  0
  5  6  1  6
  7  8  2  0
  7  5  1  0
  9 10  1  0
 11 10  1  1
 11 12  1  0
 12  7  1  0
 13 14  2  0
 13 11  1  0
 16 15  1  6
 17 16  1  0
 18 16  1  0
 18 19  1  6
 19 13  1  0
 20 18  1  0
 21 20  1  0
 22 20  2  0
M  END
$$$$
