NSV.pdb
     RDKit          3D

 22 21  0  0  1  0  0  0  0  0999 V2000
    9.6521  -13.6448   17.1604 N   0  0  0  0  0  0  0  0  0  0  0  0
    8.2430  -13.6382   17.2180 C   0  0  0  0  0  0  0  0  0  0  0  0
    7.5301  -13.3690   16.2128 O   0  0  0  0  0  0  0  0  0  0  0  0
    7.5625  -13.9602   18.5106 C   0  0  0  0  0  0  0  0  0  0  0  0
    8.5863  -14.1909   19.6028 C   0  0  2  0  0  0  0  0  0  0  0  0
    9.3787  -15.3636   19.3673 N   0  0  0  0  0  0  0  0  0  0  0  0
    7.8269  -14.2972   20.8987 C   0  0  0  0  0  0  0  0  0  0  0  0
    7.2188  -13.3089   21.3888 O   0  0  0  0  0  0  0  0  0  0  0  0
    8.2518  -17.6651   23.5630 O   0  0  0  0  0  0  0  0  0  0  0  0
    7.0180  -17.1485   23.1777 C   0  0  0  0  0  0  0  0  0  0  0  0
    7.1304  -15.6627   22.9174 C   0  0  2  0  0  0  0  0  0  0  0  0
    7.7655  -15.5136   21.6197 N   0  0  0  0  0  0  0  0  0  0  0  0
    7.8539  -14.9347   23.9718 C   0  0  0  0  0  0  0  0  0  0  0  0
    9.0835  -14.6855   23.7772 O   0  0  0  0  0  0  0  0  0  0  0  0
    5.9526  -12.9749   27.1427 C   0  0  0  0  0  0  0  0  0  0  0  0
    7.2988  -12.5550   26.6179 C   0  0  2  0  0  0  0  0  0  0  0  0
    7.0450  -11.6950   25.3897 C   0  0  0  0  0  0  0  0  0  0  0  0
    8.0673  -13.7707   26.1706 C   0  0  2  0  0  0  0  0  0  0  0  0
    7.2779  -14.4997   25.1716 N   0  0  0  0  0  0  0  0  0  0  0  0
    8.3938  -14.6545   27.3203 C   0  0  0  0  0  0  0  0  0  0  0  0
    9.2572  -14.2371   28.3205 O   0  0  0  0  0  0  0  0  0  0  0  0
    7.9001  -15.7983   27.4185 O   0  0  0  0  0  0  0  0  0  0  0  0
  2  1  1  0
  2  4  1  0
  3  2  2  0
  5  4  1  0
  5  6  1  6
  7  8  2  0
  7  5  1  0
  9 10  1  0
 11 10  1  1
 11 12  1  0
 12  7  1  0
 13 14  2  0
 13 11  1  0
 16 15  1  6
 17 16  1  0
 18 16  1  0
 18 19  1  6
 19 13  1  0
 20 18  1  0
 21 20  1  0
 22 20  2  0
M  END
$$$$
