NSV.pdb
     RDKit          3D

 22 21  0  0  1  0  0  0  0  0999 V2000
   12.1238  -18.8719   16.7044 N   0  0  0  0  0  0  0  0  0  0  0  0
   10.7298  -19.0825   16.7375 C   0  0  0  0  0  0  0  0  0  0  0  0
   10.1752  -20.0154   16.0947 O   0  0  0  0  0  0  0  0  0  0  0  0
    9.8723  -18.1738   17.5599 C   0  0  0  0  0  0  0  0  0  0  0  0
    9.3400  -18.9064   18.7742 C   0  0  2  0  0  0  0  0  0  0  0  0
    8.4140  -19.9439   18.4213 N   0  0  0  0  0  0  0  0  0  0  0  0
    8.6915  -17.8743   19.6582 C   0  0  0  0  0  0  0  0  0  0  0  0
    9.3262  -16.8672   20.0701 O   0  0  0  0  0  0  0  0  0  0  0  0
    4.8041  -18.5276   21.2577 O   0  0  0  0  0  0  0  0  0  0  0  0
    5.1901  -17.2769   20.7840 C   0  0  0  0  0  0  0  0  0  0  0  0
    6.6774  -17.0800   20.9763 C   0  0  2  0  0  0  0  0  0  0  0  0
    7.3405  -17.9941   20.0629 N   0  0  0  0  0  0  0  0  0  0  0  0
    7.1205  -17.2720   22.3662 C   0  0  0  0  0  0  0  0  0  0  0  0
    7.5660  -18.4161   22.6891 O   0  0  0  0  0  0  0  0  0  0  0  0
    6.6264  -14.3878   25.4786 C   0  0  0  0  0  0  0  0  0  0  0  0
    7.8379  -15.2788   25.4278 C   0  0  2  0  0  0  0  0  0  0  0  0
    8.8744  -14.5658   24.5736 C   0  0  0  0  0  0  0  0  0  0  0  0
    7.4866  -16.5686   24.7341 C   0  0  2  0  0  0  0  0  0  0  0  0
    7.0837  -16.2795   23.3531 N   0  0  0  0  0  0  0  0  0  0  0  0
    6.4017  -17.2880   25.4517 C   0  0  0  0  0  0  0  0  0  0  0  0
    6.6608  -17.9974   26.6134 O   0  0  0  0  0  0  0  0  0  0  0  0
    5.2257  -17.2743   25.0291 O   0  0  0  0  0  0  0  0  0  0  0  0
  2  1  1  0
  2  4  1  0
  3  2  2  0
  5  4  1  0
  5  6  1  6
  7  8  2  0
  7  5  1  0
  9 10  1  0
 11 10  1  1
 11 12  1  0
 12  7  1  0
 13 14  2  0
 13 11  1  0
 16 15  1  6
 17 16  1  0
 18 16  1  0
 18 19  1  6
 19 13  1  0
 20 18  1  0
 21 20  1  0
 22 20  2  0
M  END
$$$$
