NSV.pdb
     RDKit          3D

 22 21  0  0  1  0  0  0  0  0999 V2000
    9.1287  -12.6917   17.7503 N   0  0  0  0  0  0  0  0  0  0  0  0
    8.2177  -13.7567   17.5932 C   0  0  0  0  0  0  0  0  0  0  0  0
    8.0905  -14.3776   16.5026 O   0  0  0  0  0  0  0  0  0  0  0  0
    7.3696  -14.1706   18.7538 C   0  0  0  0  0  0  0  0  0  0  0  0
    8.0355  -15.2953   19.5194 C   0  0  2  0  0  0  0  0  0  0  0  0
    8.0106  -16.5348   18.7972 N   0  0  0  0  0  0  0  0  0  0  0  0
    7.3133  -15.4163   20.8351 C   0  0  0  0  0  0  0  0  0  0  0  0
    6.0589  -15.3279   20.9085 O   0  0  0  0  0  0  0  0  0  0  0  0
    8.5657  -17.8100   23.7426 O   0  0  0  0  0  0  0  0  0  0  0  0
    7.2910  -17.2649   23.6179 C   0  0  0  0  0  0  0  0  0  0  0  0
    7.3808  -15.7803   23.3426 C   0  0  2  0  0  0  0  0  0  0  0  0
    8.0156  -15.6346   22.0444 N   0  0  0  0  0  0  0  0  0  0  0  0
    8.0912  -15.0305   24.3906 C   0  0  0  0  0  0  0  0  0  0  0  0
    9.3347  -14.8309   24.2310 O   0  0  0  0  0  0  0  0  0  0  0  0
    6.1449  -13.1029   27.5546 C   0  0  0  0  0  0  0  0  0  0  0  0
    7.5023  -12.6518   27.0876 C   0  0  2  0  0  0  0  0  0  0  0  0
    7.2752  -11.7104   25.9151 C   0  0  0  0  0  0  0  0  0  0  0  0
    8.2789  -13.8363   26.5756 C   0  0  2  0  0  0  0  0  0  0  0  0
    7.4884  -14.5239   25.5484 N   0  0  0  0  0  0  0  0  0  0  0  0
    8.6235  -14.7717   27.6782 C   0  0  0  0  0  0  0  0  0  0  0  0
    9.4733  -14.3871   28.7029 O   0  0  0  0  0  0  0  0  0  0  0  0
    8.1579  -15.9309   27.7135 O   0  0  0  0  0  0  0  0  0  0  0  0
  2  1  1  0
  2  4  1  0
  3  2  2  0
  5  4  1  0
  5  6  1  6
  7  8  2  0
  7  5  1  0
  9 10  1  0
 11 10  1  1
 11 12  1  0
 12  7  1  0
 13 14  2  0
 13 11  1  0
 16 15  1  6
 17 16  1  0
 18 16  1  0
 18 19  1  6
 19 13  1  0
 20 18  1  0
 21 20  1  0
 22 20  2  0
M  END
$$$$
