NSV.pdb
     RDKit          3D

 22 21  0  0  1  0  0  0  0  0999 V2000
    9.4725  -13.8494   17.2756 N   0  0  0  0  0  0  0  0  0  0  0  0
    8.0699  -13.7518   17.3853 C   0  0  0  0  0  0  0  0  0  0  0  0
    7.3368  -13.4640   16.4000 O   0  0  0  0  0  0  0  0  0  0  0  0
    7.4213  -13.9961   18.7108 C   0  0  0  0  0  0  0  0  0  0  0  0
    8.4641  -14.3480   19.7516 C   0  0  2  0  0  0  0  0  0  0  0  0
    9.1573  -15.5644   19.4380 N   0  0  0  0  0  0  0  0  0  0  0  0
    7.7464  -14.4541   21.0711 C   0  0  0  0  0  0  0  0  0  0  0  0
    7.0527  -13.5043   21.5219 O   0  0  0  0  0  0  0  0  0  0  0  0
    8.4139  -17.7470   23.7702 O   0  0  0  0  0  0  0  0  0  0  0  0
    7.1506  -17.2476   23.4663 C   0  0  0  0  0  0  0  0  0  0  0  0
    7.2289  -15.7648   23.1780 C   0  0  2  0  0  0  0  0  0  0  0  0
    7.8224  -15.6271   21.8595 N   0  0  0  0  0  0  0  0  0  0  0  0
    7.9704  -15.0065   24.1979 C   0  0  0  0  0  0  0  0  0  0  0  0
    9.2200  -14.8589   24.0287 O   0  0  0  0  0  0  0  0  0  0  0  0
    6.1395  -12.9040   27.3458 C   0  0  0  0  0  0  0  0  0  0  0  0
    7.5111  -12.5423   26.8439 C   0  0  2  0  0  0  0  0  0  0  0  0
    7.3152  -11.6295   25.6436 C   0  0  0  0  0  0  0  0  0  0  0  0
    8.2149  -13.7832   26.3611 C   0  0  2  0  0  0  0  0  0  0  0  0
    7.3910  -14.4383   25.3390 N   0  0  0  0  0  0  0  0  0  0  0  0
    8.4899  -14.7178   27.4839 C   0  0  0  0  0  0  0  0  0  0  0  0
    9.3695  -14.3770   28.4989 O   0  0  0  0  0  0  0  0  0  0  0  0
    7.9368  -15.8367   27.5454 O   0  0  0  0  0  0  0  0  0  0  0  0
  2  1  1  0
  2  4  1  0
  3  2  2  0
  5  4  1  0
  5  6  1  6
  7  8  2  0
  7  5  1  0
  9 10  1  0
 11 10  1  1
 11 12  1  0
 12  7  1  0
 13 14  2  0
 13 11  1  0
 16 15  1  6
 17 16  1  0
 18 16  1  0
 18 19  1  6
 19 13  1  0
 20 18  1  0
 21 20  1  0
 22 20  2  0
M  END
$$$$
