GHF.pdb
     RDKit          3D

 26 27  0  0  1  0  0  0  0  0999 V2000
   21.0134  -17.3710  -14.7381 N   0  0  0  0  0  0  0  0  0  0  0  0
   22.4418  -17.3662  -14.9663 C   0  0  0  0  0  0  0  0  0  0  0  0
   23.0975  -18.5621  -14.3590 C   0  0  0  0  0  0  0  0  0  0  0  0
   22.3191  -19.4074  -13.8308 O   0  0  0  0  0  0  0  0  0  0  0  0
   24.5048  -18.7432  -14.3712 N   0  0  0  0  0  0  0  0  0  0  0  0
   25.0592  -19.9570  -13.8674 C   0  0  1  0  0  0  0  0  0  0  0  0
   26.0975  -20.6094  -14.7017 C   0  0  0  0  0  0  0  0  0  0  0  0
   25.6424  -21.1999  -15.9693 C   0  0  0  0  0  0  0  0  0  0  0  0
   24.4197  -21.3149  -16.5532 C   0  0  0  0  0  0  0  0  0  0  0  0
   24.5847  -21.9672  -17.7376 N   0  0  0  0  0  0  0  0  0  0  0  0
   25.8717  -22.2498  -17.8863 C   0  0  0  0  0  0  0  0  0  0  0  0
   26.5237  -21.7975  -16.8354 N   0  0  0  0  0  0  0  0  0  0  0  0
   25.7507  -19.6150  -12.5609 C   0  0  0  0  0  0  0  0  0  0  0  0
   26.3705  -18.5294  -12.5026 O   0  0  0  0  0  0  0  0  0  0  0  0
   25.6986  -20.4845  -11.4538 N   0  0  0  0  0  0  0  0  0  0  0  0
   26.5229  -20.1828  -10.2893 C   0  0  1  0  0  0  0  0  0  0  0  0
   25.6121  -19.9308   -9.1204 C   0  0  0  0  0  0  0  0  0  0  0  0
   26.3322  -19.6905   -7.8588 C   0  0  0  0  0  0  0  0  0  0  0  0
   26.8157  -18.4348   -7.5222 C   0  0  0  0  0  0  0  0  0  0  0  0
   27.4852  -18.2000   -6.3448 C   0  0  0  0  0  0  0  0  0  0  0  0
   27.6890  -19.2361   -5.4629 C   0  0  0  0  0  0  0  0  0  0  0  0
   27.2130  -20.5112   -5.7763 C   0  0  0  0  0  0  0  0  0  0  0  0
   26.5464  -20.7319   -6.9547 C   0  0  0  0  0  0  0  0  0  0  0  0
   27.4589  -21.2922  -10.0116 C   0  0  0  0  0  0  0  0  0  0  0  0
   28.7487  -21.0962   -9.5761 O   0  0  0  0  0  0  0  0  0  0  0  0
   27.1050  -22.5021  -10.1679 O   0  0  0  0  0  0  0  0  0  0  0  0
  2  1  1  0
  3  2  1  0
  3  4  2  0
  5  3  1  0
  6  5  1  0
  6 13  1  0
  6  7  1  6
  8  7  1  0
  9  8  2  0
 10 11  1  0
 10  9  1  0
 11 12  2  0
 12  8  1  0
 13 15  1  0
 13 14  2  0
 15 16  1  0
 16 17  1  1
 16 24  1  0
 18 17  1  0
 19 18  2  0
 20 19  1  0
 21 20  2  0
 21 22  1  0
 22 23  2  0
 23 18  1  0
 24 26  2  0
 24 25  1  0
M  END
$$$$
