GHF.pdb
     RDKit          3D

 26 27  0  0  1  0  0  0  0  0999 V2000
   29.0484  -22.7792  -17.6039 N   0  0  0  0  0  0  0  0  0  0  0  0
   27.8066  -22.8315  -16.8639 C   0  0  0  0  0  0  0  0  0  0  0  0
   27.8728  -22.0033  -15.6235 C   0  0  0  0  0  0  0  0  0  0  0  0
   28.9482  -22.0865  -14.9633 O   0  0  0  0  0  0  0  0  0  0  0  0
   26.7994  -21.1737  -15.2076 N   0  0  0  0  0  0  0  0  0  0  0  0
   26.9455  -20.3743  -14.0354 C   0  0  1  0  0  0  0  0  0  0  0  0
   26.5810  -18.9420  -14.1586 C   0  0  0  0  0  0  0  0  0  0  0  0
   27.3907  -18.1382  -15.0864 C   0  0  0  0  0  0  0  0  0  0  0  0
   28.4803  -18.4197  -15.8499 C   0  0  0  0  0  0  0  0  0  0  0  0
   28.8250  -17.2830  -16.5168 N   0  0  0  0  0  0  0  0  0  0  0  0
   27.9753  -16.3228  -16.1784 C   0  0  0  0  0  0  0  0  0  0  0  0
   27.1065  -16.8160  -15.3205 N   0  0  0  0  0  0  0  0  0  0  0  0
   25.9972  -20.9418  -12.9958 C   0  0  0  0  0  0  0  0  0  0  0  0
   24.9397  -21.4704  -13.4063 O   0  0  0  0  0  0  0  0  0  0  0  0
   26.2932  -20.8775  -11.6201 N   0  0  0  0  0  0  0  0  0  0  0  0
   25.3704  -21.4989  -10.6773 C   0  0  1  0  0  0  0  0  0  0  0  0
   26.1688  -22.0408   -9.5248 C   0  0  0  0  0  0  0  0  0  0  0  0
   26.7783  -20.9915   -8.6907 C   0  0  0  0  0  0  0  0  0  0  0  0
   26.0068  -20.1049   -7.9542 C   0  0  0  0  0  0  0  0  0  0  0  0
   26.5668  -19.1250   -7.1693 C   0  0  0  0  0  0  0  0  0  0  0  0
   27.9361  -19.0094   -7.1039 C   0  0  0  0  0  0  0  0  0  0  0  0
   28.7375  -19.8888   -7.8354 C   0  0  0  0  0  0  0  0  0  0  0  0
   28.1658  -20.8622   -8.6147 C   0  0  0  0  0  0  0  0  0  0  0  0
   24.3585  -20.5242  -10.2188 C   0  0  0  0  0  0  0  0  0  0  0  0
   24.4405  -19.1764  -10.4803 O   0  0  0  0  0  0  0  0  0  0  0  0
   23.3472  -20.8975   -9.5469 O   0  0  0  0  0  0  0  0  0  0  0  0
  2  1  1  0
  3  2  1  0
  3  4  2  0
  5  3  1  0
  6  5  1  0
  6 13  1  0
  6  7  1  6
  8  7  1  0
  9  8  2  0
 10 11  1  0
 10  9  1  0
 11 12  2  0
 12  8  1  0
 13 15  1  0
 13 14  2  0
 15 16  1  0
 16 17  1  1
 16 24  1  0
 18 17  1  0
 19 18  2  0
 20 19  1  0
 21 20  2  0
 21 22  1  0
 22 23  2  0
 23 18  1  0
 24 26  2  0
 24 25  1  0
M  END
$$$$
