GHF.pdb
     RDKit          3D

 26 27  0  0  1  0  0  0  0  0999 V2000
   19.9034  -13.3479  -20.6077 N   0  0  0  0  0  0  0  0  0  0  0  0
   19.7336  -13.8465  -19.2606 C   0  0  0  0  0  0  0  0  0  0  0  0
   19.2289  -12.7829  -18.3424 C   0  0  0  0  0  0  0  0  0  0  0  0
   18.2341  -12.1228  -18.7595 O   0  0  0  0  0  0  0  0  0  0  0  0
   19.8245  -12.5254  -17.0806 N   0  0  0  0  0  0  0  0  0  0  0  0
   19.2488  -11.5428  -16.2217 C   0  0  1  0  0  0  0  0  0  0  0  0
   18.7097  -12.0261  -14.9273 C   0  0  0  0  0  0  0  0  0  0  0  0
   17.4689  -12.8131  -14.9882 C   0  0  0  0  0  0  0  0  0  0  0  0
   16.6461  -13.1704  -16.0102 C   0  0  0  0  0  0  0  0  0  0  0  0
   15.6258  -13.9043  -15.4848 N   0  0  0  0  0  0  0  0  0  0  0  0
   15.8081  -14.0006  -14.1749 C   0  0  0  0  0  0  0  0  0  0  0  0
   16.9092  -13.3521  -13.8568 N   0  0  0  0  0  0  0  0  0  0  0  0
   20.3578  -10.5735  -15.8577 C   0  0  0  0  0  0  0  0  0  0  0  0
   21.5117  -11.0396  -15.7254 O   0  0  0  0  0  0  0  0  0  0  0  0
   20.1014   -9.2004  -15.6751 N   0  0  0  0  0  0  0  0  0  0  0  0
   21.2291   -8.3026  -15.4542 C   0  0  1  0  0  0  0  0  0  0  0  0
   21.4070   -7.4586  -16.6852 C   0  0  0  0  0  0  0  0  0  0  0  0
   22.4586   -6.4373  -16.5473 C   0  0  0  0  0  0  0  0  0  0  0  0
   23.7874   -6.7150  -16.8318 C   0  0  0  0  0  0  0  0  0  0  0  0
   24.7754   -5.7668  -16.7102 C   0  0  0  0  0  0  0  0  0  0  0  0
   24.4484   -4.4972  -16.2935 C   0  0  0  0  0  0  0  0  0  0  0  0
   23.1180   -4.1896  -15.9999 C   0  0  0  0  0  0  0  0  0  0  0  0
   22.1418   -5.1452  -16.1255 C   0  0  0  0  0  0  0  0  0  0  0  0
   21.0027   -7.4659  -14.2572 C   0  0  0  0  0  0  0  0  0  0  0  0
   22.0158   -7.0647  -13.4180 O   0  0  0  0  0  0  0  0  0  0  0  0
   19.8360   -7.0735  -13.9439 O   0  0  0  0  0  0  0  0  0  0  0  0
  2  1  1  0
  3  2  1  0
  3  4  2  0
  5  3  1  0
  6  5  1  0
  6 13  1  0
  6  7  1  1
  8  7  1  0
  9  8  2  0
 10 11  1  0
 10  9  1  0
 11 12  2  0
 12  8  1  0
 13 15  1  0
 13 14  2  0
 15 16  1  0
 16 17  1  6
 16 24  1  0
 18 17  1  0
 19 18  2  0
 20 19  1  0
 21 20  2  0
 21 22  1  0
 22 23  2  0
 23 18  1  0
 24 26  2  0
 24 25  1  0
M  END
$$$$
