GHF.pdb
     RDKit          3D

 26 27  0  0  1  0  0  0  0  0999 V2000
   22.2945  -18.3863  -14.2173 N   0  0  0  0  0  0  0  0  0  0  0  0
   21.6790  -19.5021  -13.5329 C   0  0  0  0  0  0  0  0  0  0  0  0
   22.6408  -20.1787  -12.6132 C   0  0  0  0  0  0  0  0  0  0  0  0
   22.1248  -20.8928  -11.7059 O   0  0  0  0  0  0  0  0  0  0  0  0
   24.0461  -20.0329  -12.7449 N   0  0  0  0  0  0  0  0  0  0  0  0
   24.9100  -20.9875  -12.1310 C   0  0  1  0  0  0  0  0  0  0  0  0
   25.9528  -21.5919  -12.9952 C   0  0  0  0  0  0  0  0  0  0  0  0
   25.5244  -22.7036  -13.8574 C   0  0  0  0  0  0  0  0  0  0  0  0
   24.3339  -23.3374  -14.0313 C   0  0  0  0  0  0  0  0  0  0  0  0
   24.5153  -24.3134  -14.9641 N   0  0  0  0  0  0  0  0  0  0  0  0
   25.7810  -24.2879  -15.3588 C   0  0  0  0  0  0  0  0  0  0  0  0
   26.4036  -23.3285  -14.7062 N   0  0  0  0  0  0  0  0  0  0  0  0
   25.6682  -20.2557  -11.0393 C   0  0  0  0  0  0  0  0  0  0  0  0
   25.9651  -19.0577  -11.2462 O   0  0  0  0  0  0  0  0  0  0  0  0
   26.0255  -20.8978   -9.8375 N   0  0  0  0  0  0  0  0  0  0  0  0
   26.9446  -20.2206   -8.9302 C   0  0  1  0  0  0  0  0  0  0  0  0
   26.3487  -20.2465   -7.5505 C   0  0  0  0  0  0  0  0  0  0  0  0
   27.2600  -19.7415   -6.5101 C   0  0  0  0  0  0  0  0  0  0  0  0
   27.4447  -18.3832   -6.2986 C   0  0  0  0  0  0  0  0  0  0  0  0
   28.2899  -17.9023   -5.3268 C   0  0  0  0  0  0  0  0  0  0  0  0
   28.9811  -18.7870   -4.5316 C   0  0  0  0  0  0  0  0  0  0  0  0
   28.8143  -20.1604   -4.7227 C   0  0  0  0  0  0  0  0  0  0  0  0
   27.9676  -20.6270   -5.6960 C   0  0  0  0  0  0  0  0  0  0  0  0
   28.2727  -20.8683   -8.9541 C   0  0  0  0  0  0  0  0  0  0  0  0
   29.4485  -20.1793   -8.7683 O   0  0  0  0  0  0  0  0  0  0  0  0
   28.3884  -22.1175   -9.1532 O   0  0  0  0  0  0  0  0  0  0  0  0
  2  1  1  0
  3  2  1  0
  3  4  2  0
  5  3  1  0
  6  5  1  0
  6 13  1  0
  6  7  1  6
  8  7  1  0
  9  8  2  0
 10 11  1  0
 10  9  1  0
 11 12  2  0
 12  8  1  0
 13 15  1  0
 13 14  2  0
 15 16  1  0
 16 17  1  1
 16 24  1  0
 18 17  1  0
 19 18  2  0
 20 19  1  0
 21 20  2  0
 21 22  1  0
 22 23  2  0
 23 18  1  0
 24 26  2  0
 24 25  1  0
M  END
$$$$
