GHF.pdb
     RDKit          3D

 26 27  0  0  1  0  0  0  0  0999 V2000
   28.5026  -17.8617  -14.8308 N   0  0  0  0  0  0  0  0  0  0  0  0
   28.1235  -19.2139  -14.4842 C   0  0  0  0  0  0  0  0  0  0  0  0
   27.1372  -19.2360  -13.3636 C   0  0  0  0  0  0  0  0  0  0  0  0
   26.5469  -18.1425  -13.1286 O   0  0  0  0  0  0  0  0  0  0  0  0
   26.8753  -20.4075  -12.6071 N   0  0  0  0  0  0  0  0  0  0  0  0
   25.9032  -20.3651  -11.5640 C   0  0  1  0  0  0  0  0  0  0  0  0
   24.7635  -21.3071  -11.6797 C   0  0  0  0  0  0  0  0  0  0  0  0
   23.7959  -21.0348  -12.7531 C   0  0  0  0  0  0  0  0  0  0  0  0
   23.7022  -20.0547  -13.6911 C   0  0  0  0  0  0  0  0  0  0  0  0
   22.5850  -20.2950  -14.4326 N   0  0  0  0  0  0  0  0  0  0  0  0
   22.0009  -21.3917  -13.9697 C   0  0  0  0  0  0  0  0  0  0  0  0
   22.7123  -21.8510  -12.9613 N   0  0  0  0  0  0  0  0  0  0  0  0
   26.6167  -20.7538  -10.2827 C   0  0  0  0  0  0  0  0  0  0  0  0
   27.8363  -21.0238  -10.3600 O   0  0  0  0  0  0  0  0  0  0  0  0
   25.9349  -20.8093   -9.0513 N   0  0  0  0  0  0  0  0  0  0  0  0
   26.7122  -20.9831   -7.8297 C   0  0  1  0  0  0  0  0  0  0  0  0
   27.6295  -19.8014   -7.6833 C   0  0  0  0  0  0  0  0  0  0  0  0
   28.2905  -19.7332   -6.3693 C   0  0  0  0  0  0  0  0  0  0  0  0
   29.3227  -20.5938   -6.0261 C   0  0  0  0  0  0  0  0  0  0  0  0
   29.9487  -20.5348   -4.8037 C   0  0  0  0  0  0  0  0  0  0  0  0
   29.5474  -19.5959   -3.8816 C   0  0  0  0  0  0  0  0  0  0  0  0
   28.5102  -18.7166   -4.2004 C   0  0  0  0  0  0  0  0  0  0  0  0
   27.8940  -18.7862   -5.4240 C   0  0  0  0  0  0  0  0  0  0  0  0
   25.8204  -21.1193   -6.6592 C   0  0  0  0  0  0  0  0  0  0  0  0
   24.5883  -20.5133   -6.5784 O   0  0  0  0  0  0  0  0  0  0  0  0
   26.1616  -21.8165   -5.6537 O   0  0  0  0  0  0  0  0  0  0  0  0
  2  1  1  0
  3  2  1  0
  3  4  2  0
  5  3  1  0
  6  5  1  0
  6 13  1  0
  6  7  1  6
  8  7  1  0
  9  8  2  0
 10 11  1  0
 10  9  1  0
 11 12  2  0
 12  8  1  0
 13 15  1  0
 13 14  2  0
 15 16  1  0
 16 17  1  1
 16 24  1  0
 18 17  1  0
 19 18  2  0
 20 19  1  0
 21 20  2  0
 21 22  1  0
 22 23  2  0
 23 18  1  0
 24 26  2  0
 24 25  1  0
M  END
$$$$
