GHF.pdb
     RDKit          3D

 26 27  0  0  1  0  0  0  0  0999 V2000
   10.4428  -23.6848  -12.6599 N   0  0  0  0  0  0  0  0  0  0  0  0
    9.8315  -22.4398  -12.2492 C   0  0  0  0  0  0  0  0  0  0  0  0
   10.3885  -21.9584  -10.9504 C   0  0  0  0  0  0  0  0  0  0  0  0
   10.8674  -22.8505  -10.1928 O   0  0  0  0  0  0  0  0  0  0  0  0
   10.3832  -20.5874  -10.5848 N   0  0  0  0  0  0  0  0  0  0  0  0
   10.9227  -20.1966   -9.3235 C   0  0  1  0  0  0  0  0  0  0  0  0
   12.1122  -19.3113   -9.3556 C   0  0  0  0  0  0  0  0  0  0  0  0
   13.3361  -19.8808   -9.9389 C   0  0  0  0  0  0  0  0  0  0  0  0
   13.6746  -21.1339  -10.3446 C   0  0  0  0  0  0  0  0  0  0  0  0
   14.9563  -21.0898  -10.8038 N   0  0  0  0  0  0  0  0  0  0  0  0
   15.4022  -19.8465  -10.6872 C   0  0  0  0  0  0  0  0  0  0  0  0
   14.4447  -19.1052  -10.1700 N   0  0  0  0  0  0  0  0  0  0  0  0
    9.8462  -19.3968   -8.6140 C   0  0  0  0  0  0  0  0  0  0  0  0
    9.1576  -18.6141   -9.3065 O   0  0  0  0  0  0  0  0  0  0  0  0
    9.6276  -19.5282   -7.2287 N   0  0  0  0  0  0  0  0  0  0  0  0
    8.5647  -18.7434   -6.6116 C   0  0  1  0  0  0  0  0  0  0  0  0
    7.8692  -19.6079   -5.5976 C   0  0  0  0  0  0  0  0  0  0  0  0
    6.8291  -18.8958   -4.8367 C   0  0  0  0  0  0  0  0  0  0  0  0
    5.5440  -18.7339   -5.3328 C   0  0  0  0  0  0  0  0  0  0  0  0
    4.5652  -18.0745   -4.6279 C   0  0  0  0  0  0  0  0  0  0  0  0
    4.8572  -17.5532   -3.3886 C   0  0  0  0  0  0  0  0  0  0  0  0
    6.1433  -17.7014   -2.8646 C   0  0  0  0  0  0  0  0  0  0  0  0
    7.1108  -18.3618   -3.5785 C   0  0  0  0  0  0  0  0  0  0  0  0
    9.1137  -17.5207   -5.9890 C   0  0  0  0  0  0  0  0  0  0  0  0
    8.4116  -16.3411   -5.9022 O   0  0  0  0  0  0  0  0  0  0  0  0
   10.2847  -17.5056   -5.4972 O   0  0  0  0  0  0  0  0  0  0  0  0
  2  1  1  0
  3  2  1  0
  3  4  2  0
  5  3  1  0
  6  5  1  0
  6 13  1  0
  6  7  1  6
  8  7  1  0
  9  8  2  0
 10 11  1  0
 10  9  1  0
 11 12  2  0
 12  8  1  0
 13 15  1  0
 13 14  2  0
 15 16  1  0
 16 17  1  1
 16 24  1  0
 18 17  1  0
 19 18  2  0
 20 19  1  0
 21 20  2  0
 21 22  1  0
 22 23  2  0
 23 18  1  0
 24 26  2  0
 24 25  1  0
M  END
$$$$
