GHF.pdb
     RDKit          3D

 26 27  0  0  1  0  0  0  0  0999 V2000
   17.9133  -14.5159  -18.6374 N   0  0  0  0  0  0  0  0  0  0  0  0
   19.2224  -14.1989  -19.1646 C   0  0  0  0  0  0  0  0  0  0  0  0
   19.4232  -12.7241  -19.2819 C   0  0  0  0  0  0  0  0  0  0  0  0
   20.3723  -12.3562  -20.0324 O   0  0  0  0  0  0  0  0  0  0  0  0
   18.6035  -11.7904  -18.5965 N   0  0  0  0  0  0  0  0  0  0  0  0
   18.8507  -10.3943  -18.7526 C   0  0  1  0  0  0  0  0  0  0  0  0
   17.7453   -9.5834  -19.3186 C   0  0  0  0  0  0  0  0  0  0  0  0
   17.6020   -9.6035  -20.7820 C   0  0  0  0  0  0  0  0  0  0  0  0
   18.3829  -10.0883  -21.7842 C   0  0  0  0  0  0  0  0  0  0  0  0
   17.7570   -9.8218  -22.9644 N   0  0  0  0  0  0  0  0  0  0  0  0
   16.6206   -9.1899  -22.7044 C   0  0  0  0  0  0  0  0  0  0  0  0
   16.5090   -9.0491  -21.3999 N   0  0  0  0  0  0  0  0  0  0  0  0
   19.0901   -9.8327  -17.3636 C   0  0  0  0  0  0  0  0  0  0  0  0
   18.4259  -10.3199  -16.4215 O   0  0  0  0  0  0  0  0  0  0  0  0
   20.0238   -8.8019  -17.1400 N   0  0  0  0  0  0  0  0  0  0  0  0
   20.2220   -8.3224  -15.7772 C   0  0  1  0  0  0  0  0  0  0  0  0
   21.6891   -8.4003  -15.4594 C   0  0  0  0  0  0  0  0  0  0  0  0
   22.0217   -7.9161  -14.1093 C   0  0  0  0  0  0  0  0  0  0  0  0
   22.0465   -8.7671  -13.0144 C   0  0  0  0  0  0  0  0  0  0  0  0
   22.3601   -8.3251  -11.7510 C   0  0  0  0  0  0  0  0  0  0  0  0
   22.6610   -6.9974  -11.5530 C   0  0  0  0  0  0  0  0  0  0  0  0
   22.6436   -6.1178  -12.6377 C   0  0  0  0  0  0  0  0  0  0  0  0
   22.3290   -6.5720  -13.8933 C   0  0  0  0  0  0  0  0  0  0  0  0
   19.7130   -6.9428  -15.6307 C   0  0  0  0  0  0  0  0  0  0  0  0
   19.2124   -6.4477  -14.4491 O   0  0  0  0  0  0  0  0  0  0  0  0
   19.7145   -6.1367  -16.6124 O   0  0  0  0  0  0  0  0  0  0  0  0
  2  1  1  0
  3  2  1  0
  3  4  2  0
  5  3  1  0
  6  5  1  0
  6 13  1  0
  6  7  1  1
  8  7  1  0
  9  8  2  0
 10 11  1  0
 10  9  1  0
 11 12  2  0
 12  8  1  0
 13 15  1  0
 13 14  2  0
 15 16  1  0
 16 17  1  6
 16 24  1  0
 18 17  1  0
 19 18  2  0
 20 19  1  0
 21 20  2  0
 21 22  1  0
 22 23  2  0
 23 18  1  0
 24 26  2  0
 24 25  1  0
M  END
$$$$
