GHF.pdb
     RDKit          3D

 26 27  0  0  1  0  0  0  0  0999 V2000
   20.0184  -11.2831  -16.2406 N   0  0  0  0  0  0  0  0  0  0  0  0
   21.0600  -10.9154  -17.1746 C   0  0  0  0  0  0  0  0  0  0  0  0
   21.1058   -9.4389  -17.3904 C   0  0  0  0  0  0  0  0  0  0  0  0
   22.2589   -8.9392  -17.5320 O   0  0  0  0  0  0  0  0  0  0  0  0
   19.9325   -8.6423  -17.4346 N   0  0  0  0  0  0  0  0  0  0  0  0
   20.0333   -7.2661  -17.7960 C   0  0  1  0  0  0  0  0  0  0  0  0
   18.8566   -6.6696  -18.4738 C   0  0  0  0  0  0  0  0  0  0  0  0
   19.0321   -5.3145  -19.0175 C   0  0  0  0  0  0  0  0  0  0  0  0
   20.0854   -4.6745  -19.5921 C   0  0  0  0  0  0  0  0  0  0  0  0
   19.6834   -3.4111  -19.9048 N   0  0  0  0  0  0  0  0  0  0  0  0
   18.4178   -3.2690  -19.5356 C   0  0  0  0  0  0  0  0  0  0  0  0
   18.0083   -4.4005  -19.0007 N   0  0  0  0  0  0  0  0  0  0  0  0
   20.1926   -6.4837  -16.5059 C   0  0  0  0  0  0  0  0  0  0  0  0
   19.3378   -6.6666  -15.6103 O   0  0  0  0  0  0  0  0  0  0  0  0
   21.2612   -5.5848  -16.3204 N   0  0  0  0  0  0  0  0  0  0  0  0
   21.4196   -4.9471  -15.0185 C   0  0  1  0  0  0  0  0  0  0  0  0
   22.7551   -5.3480  -14.4573 C   0  0  0  0  0  0  0  0  0  0  0  0
   22.9250   -6.8056  -14.3360 C   0  0  0  0  0  0  0  0  0  0  0  0
   23.7426   -7.5193  -15.1996 C   0  0  0  0  0  0  0  0  0  0  0  0
   23.9109   -8.8794  -15.0914 C   0  0  0  0  0  0  0  0  0  0  0  0
   23.2520   -9.5668  -14.0984 C   0  0  0  0  0  0  0  0  0  0  0  0
   22.4220   -8.8734  -13.2147 C   0  0  0  0  0  0  0  0  0  0  0  0
   22.2630   -7.5161  -13.3337 C   0  0  0  0  0  0  0  0  0  0  0  0
   21.3068   -3.4786  -15.1400 C   0  0  0  0  0  0  0  0  0  0  0  0
   21.1893   -2.8311  -16.3477 O   0  0  0  0  0  0  0  0  0  0  0  0
   21.3150   -2.7339  -14.1110 O   0  0  0  0  0  0  0  0  0  0  0  0
  2  1  1  0
  3  2  1  0
  3  4  2  0
  5  3  1  0
  6  5  1  0
  6 13  1  0
  6  7  1  1
  8  7  1  0
  9  8  2  0
 10 11  1  0
 10  9  1  0
 11 12  2  0
 12  8  1  0
 13 15  1  0
 13 14  2  0
 15 16  1  0
 16 17  1  6
 16 24  1  0
 18 17  1  0
 19 18  2  0
 20 19  1  0
 21 20  2  0
 21 22  1  0
 22 23  2  0
 23 18  1  0
 24 26  2  0
 24 25  1  0
M  END
$$$$
