GHF.pdb
     RDKit          3D

 26 27  0  0  1  0  0  0  0  0999 V2000
   20.7733  -16.1784  -18.3258 N   0  0  0  0  0  0  0  0  0  0  0  0
   20.2688  -14.9587  -18.9174 C   0  0  0  0  0  0  0  0  0  0  0  0
   21.3304  -13.9126  -19.0052 C   0  0  0  0  0  0  0  0  0  0  0  0
   22.4677  -14.2446  -18.5628 O   0  0  0  0  0  0  0  0  0  0  0  0
   21.0837  -12.6258  -19.5498 N   0  0  0  0  0  0  0  0  0  0  0  0
   22.1476  -11.6781  -19.6175 C   0  0  1  0  0  0  0  0  0  0  0  0
   22.3813  -11.0349  -20.9333 C   0  0  0  0  0  0  0  0  0  0  0  0
   22.7494  -11.9281  -22.0420 C   0  0  0  0  0  0  0  0  0  0  0  0
   23.3511  -13.1466  -22.0912 C   0  0  0  0  0  0  0  0  0  0  0  0
   23.4505  -13.5082  -23.4008 N   0  0  0  0  0  0  0  0  0  0  0  0
   22.9264  -12.5434  -24.1443 C   0  0  0  0  0  0  0  0  0  0  0  0
   22.4999  -11.5857  -23.3475 N   0  0  0  0  0  0  0  0  0  0  0  0
   21.7868  -10.5449  -18.6753 C   0  0  0  0  0  0  0  0  0  0  0  0
   20.5804  -10.4081  -18.3719 O   0  0  0  0  0  0  0  0  0  0  0  0
   22.7704   -9.6781  -18.1598 N   0  0  0  0  0  0  0  0  0  0  0  0
   22.3623   -8.6353  -17.2257 C   0  0  1  0  0  0  0  0  0  0  0  0
   23.2329   -8.7306  -16.0041 C   0  0  0  0  0  0  0  0  0  0  0  0
   22.9590   -7.6820  -15.0074 C   0  0  0  0  0  0  0  0  0  0  0  0
   23.3967   -6.3775  -15.1815 C   0  0  0  0  0  0  0  0  0  0  0  0
   23.1421   -5.3909  -14.2587 C   0  0  0  0  0  0  0  0  0  0  0  0
   22.4310   -5.6947  -13.1208 C   0  0  0  0  0  0  0  0  0  0  0  0
   21.9782   -7.0004  -12.9195 C   0  0  0  0  0  0  0  0  0  0  0  0
   22.2391   -7.9755  -13.8484 C   0  0  0  0  0  0  0  0  0  0  0  0
   22.4642   -7.3022  -17.8555 C   0  0  0  0  0  0  0  0  0  0  0  0
   21.6149   -6.2626  -17.5563 O   0  0  0  0  0  0  0  0  0  0  0  0
   23.3602   -7.0538  -18.7209 O   0  0  0  0  0  0  0  0  0  0  0  0
  2  1  1  0
  3  2  1  0
  3  4  2  0
  5  3  1  0
  6  5  1  0
  6 13  1  0
  6  7  1  6
  8  7  1  0
  9  8  2  0
 10 11  1  0
 10  9  1  0
 11 12  2  0
 12  8  1  0
 13 15  1  0
 13 14  2  0
 15 16  1  0
 16 17  1  1
 16 24  1  0
 18 17  1  0
 19 18  2  0
 20 19  1  0
 21 20  2  0
 21 22  1  0
 22 23  2  0
 23 18  1  0
 24 26  2  0
 24 25  1  0
M  END
$$$$
