GHF.pdb
     RDKit          3D

 26 27  0  0  1  0  0  0  0  0999 V2000
   27.0154  -21.2647  -16.9343 N   0  0  0  0  0  0  0  0  0  0  0  0
   27.0732  -22.4104  -16.0532 C   0  0  0  0  0  0  0  0  0  0  0  0
   27.6453  -23.6041  -16.7437 C   0  0  0  0  0  0  0  0  0  0  0  0
   27.8288  -23.4837  -17.9892 O   0  0  0  0  0  0  0  0  0  0  0  0
   27.9645  -24.8003  -16.0506 N   0  0  0  0  0  0  0  0  0  0  0  0
   28.4604  -25.9214  -16.7798 C   0  0  1  0  0  0  0  0  0  0  0  0
   29.7558  -26.4862  -16.3298 C   0  0  0  0  0  0  0  0  0  0  0  0
   30.9437  -25.6443  -16.5367 C   0  0  0  0  0  0  0  0  0  0  0  0
   31.1338  -24.4397  -17.1382 C   0  0  0  0  0  0  0  0  0  0  0  0
   32.4575  -24.1322  -17.0431 N   0  0  0  0  0  0  0  0  0  0  0  0
   33.0727  -25.1163  -16.4016 C   0  0  0  0  0  0  0  0  0  0  0  0
   32.1814  -26.0338  -16.0891 N   0  0  0  0  0  0  0  0  0  0  0  0
   27.4516  -27.0410  -16.6036 C   0  0  0  0  0  0  0  0  0  0  0  0
   26.8588  -27.1163  -15.5040 O   0  0  0  0  0  0  0  0  0  0  0  0
   27.1901  -27.9622  -17.6367 N   0  0  0  0  0  0  0  0  0  0  0  0
   26.1090  -28.9243  -17.4576 C   0  0  1  0  0  0  0  0  0  0  0  0
   24.8306  -28.1622  -17.2473 C   0  0  0  0  0  0  0  0  0  0  0  0
   23.6357  -29.0218  -17.2145 C   0  0  0  0  0  0  0  0  0  0  0  0
   23.2144  -29.6417  -16.0474 C   0  0  0  0  0  0  0  0  0  0  0  0
   22.0977  -30.4423  -16.0062 C   0  0  0  0  0  0  0  0  0  0  0  0
   21.3655  -30.6435  -17.1534 C   0  0  0  0  0  0  0  0  0  0  0  0
   21.7668  -30.0318  -18.3430 C   0  0  0  0  0  0  0  0  0  0  0  0
   22.8832  -29.2351  -18.3703 C   0  0  0  0  0  0  0  0  0  0  0  0
   26.0123  -29.8235  -18.6264 C   0  0  0  0  0  0  0  0  0  0  0  0
   25.5966  -31.1315  -18.5362 O   0  0  0  0  0  0  0  0  0  0  0  0
   26.3173  -29.4185  -19.7911 O   0  0  0  0  0  0  0  0  0  0  0  0
  2  1  1  0
  3  2  1  0
  3  4  2  0
  5  3  1  0
  6  5  1  0
  6 13  1  0
  6  7  1  1
  8  7  1  0
  9  8  2  0
 10 11  1  0
 10  9  1  0
 11 12  2  0
 12  8  1  0
 13 15  1  0
 13 14  2  0
 15 16  1  0
 16 17  1  6
 16 24  1  0
 18 17  1  0
 19 18  2  0
 20 19  1  0
 21 20  2  0
 21 22  1  0
 22 23  2  0
 23 18  1  0
 24 26  2  0
 24 25  1  0
M  END
$$$$
