GHF.pdb
     RDKit          3D

 26 27  0  0  1  0  0  0  0  0999 V2000
   28.1005  -21.6700  -15.7984 N   0  0  0  0  0  0  0  0  0  0  0  0
   26.9000  -22.1190  -15.1280 C   0  0  0  0  0  0  0  0  0  0  0  0
   26.5486  -21.2308  -13.9806 C   0  0  0  0  0  0  0  0  0  0  0  0
   26.8479  -20.0098  -14.1183 O   0  0  0  0  0  0  0  0  0  0  0  0
   25.9185  -21.7211  -12.8075 N   0  0  0  0  0  0  0  0  0  0  0  0
   25.3178  -20.8008  -11.8982 C   0  0  1  0  0  0  0  0  0  0  0  0
   23.8460  -20.8903  -11.7382 C   0  0  0  0  0  0  0  0  0  0  0  0
   23.0350  -20.1709  -12.7318 C   0  0  0  0  0  0  0  0  0  0  0  0
   23.3495  -19.3282  -13.7517 C   0  0  0  0  0  0  0  0  0  0  0  0
   22.1862  -18.9468  -14.3491 N   0  0  0  0  0  0  0  0  0  0  0  0
   21.1779  -19.5344  -13.7197 C   0  0  0  0  0  0  0  0  0  0  0  0
   21.6663  -20.2736  -12.7455 N   0  0  0  0  0  0  0  0  0  0  0  0
   25.8898  -21.1028  -10.5258 C   0  0  0  0  0  0  0  0  0  0  0  0
   25.8732  -22.2941  -10.1427 O   0  0  0  0  0  0  0  0  0  0  0  0
   26.4202  -20.0830   -9.7114 N   0  0  0  0  0  0  0  0  0  0  0  0
   26.8713  -20.4258   -8.3677 C   0  0  1  0  0  0  0  0  0  0  0  0
   27.8414  -19.3713   -7.9136 C   0  0  0  0  0  0  0  0  0  0  0  0
   28.3146  -19.5673   -6.5331 C   0  0  0  0  0  0  0  0  0  0  0  0
   29.1502  -20.6200   -6.1906 C   0  0  0  0  0  0  0  0  0  0  0  0
   29.6006  -20.8085   -4.9056 C   0  0  0  0  0  0  0  0  0  0  0  0
   29.2170  -19.9312   -3.9176 C   0  0  0  0  0  0  0  0  0  0  0  0
   28.3759  -18.8621   -4.2341 C   0  0  0  0  0  0  0  0  0  0  0  0
   27.9337  -18.6855   -5.5206 C   0  0  0  0  0  0  0  0  0  0  0  0
   25.7229  -20.5332   -7.4437 C   0  0  0  0  0  0  0  0  0  0  0  0
   25.7060  -21.3811   -6.3609 O   0  0  0  0  0  0  0  0  0  0  0  0
   24.6775  -19.8320   -7.6143 O   0  0  0  0  0  0  0  0  0  0  0  0
  2  1  1  0
  3  2  1  0
  3  4  2  0
  5  3  1  0
  6  5  1  0
  6 13  1  0
  6  7  1  1
  8  7  1  0
  9  8  2  0
 10 11  1  0
 10  9  1  0
 11 12  2  0
 12  8  1  0
 13 15  1  0
 13 14  2  0
 15 16  1  0
 16 17  1  1
 16 24  1  0
 18 17  1  0
 19 18  2  0
 20 19  1  0
 21 20  2  0
 21 22  1  0
 22 23  2  0
 23 18  1  0
 24 26  2  0
 24 25  1  0
M  END
$$$$
