GHF.pdb
     RDKit          3D

 26 27  0  0  1  0  0  0  0  0999 V2000
   12.8159  -16.4214    4.4092 N   0  0  0  0  0  0  0  0  0  0  0  0
   13.4619  -15.1992    4.8346 C   0  0  0  0  0  0  0  0  0  0  0  0
   14.9491  -15.3272    4.8064 C   0  0  0  0  0  0  0  0  0  0  0  0
   15.4586  -15.5736    3.6756 O   0  0  0  0  0  0  0  0  0  0  0  0
   15.7447  -15.1823    5.9723 N   0  0  0  0  0  0  0  0  0  0  0  0
   17.1595  -15.3373    5.8786 C   0  0  1  0  0  0  0  0  0  0  0  0
   17.9812  -14.4948    6.7812 C   0  0  0  0  0  0  0  0  0  0  0  0
   18.7702  -13.4299    6.1440 C   0  0  0  0  0  0  0  0  0  0  0  0
   18.9556  -13.0613    4.8483 C   0  0  0  0  0  0  0  0  0  0  0  0
   19.8055  -11.9968    4.8368 N   0  0  0  0  0  0  0  0  0  0  0  0
   20.1392  -11.7116    6.0880 C   0  0  0  0  0  0  0  0  0  0  0  0
   19.5281  -12.5605    6.8880 N   0  0  0  0  0  0  0  0  0  0  0  0
   17.4715  -16.7692    6.2717 C   0  0  0  0  0  0  0  0  0  0  0  0
   16.6581  -17.3518    7.0233 O   0  0  0  0  0  0  0  0  0  0  0  0
   18.6319  -17.4206    5.8095 N   0  0  0  0  0  0  0  0  0  0  0  0
   18.8853  -18.7889    6.2454 C   0  0  1  0  0  0  0  0  0  0  0  0
   19.8239  -19.4300    5.2619 C   0  0  0  0  0  0  0  0  0  0  0  0
   20.0861  -20.8511    5.5444 C   0  0  0  0  0  0  0  0  0  0  0  0
   21.1579  -21.2539    6.3271 C   0  0  0  0  0  0  0  0  0  0  0  0
   21.4080  -22.5778    6.5999 C   0  0  0  0  0  0  0  0  0  0  0  0
   20.5754  -23.5447    6.0854 C   0  0  0  0  0  0  0  0  0  0  0  0
   19.4884  -23.1676    5.2937 C   0  0  0  0  0  0  0  0  0  0  0  0
   19.2501  -21.8428    5.0293 C   0  0  0  0  0  0  0  0  0  0  0  0
   19.4463  -18.8051    7.6125 C   0  0  0  0  0  0  0  0  0  0  0  0
   19.0204  -19.6744    8.5896 O   0  0  0  0  0  0  0  0  0  0  0  0
   20.3661  -17.9977    7.9524 O   0  0  0  0  0  0  0  0  0  0  0  0
  2  1  1  0
  3  2  1  0
  3  4  2  0
  5  3  1  0
  6  5  1  0
  6 13  1  0
  6  7  1  1
  8  7  1  0
  9  8  2  0
 10 11  1  0
 10  9  1  0
 11 12  2  0
 12  8  1  0
 13 15  1  0
 13 14  2  0
 15 16  1  0
 16 17  1  6
 16 24  1  0
 18 17  1  0
 19 18  2  0
 20 19  1  0
 21 20  2  0
 21 22  1  0
 22 23  2  0
 23 18  1  0
 24 26  2  0
 24 25  1  0
M  END
$$$$
