TNC.pdb
     RDKit          3D

 22 21  0  0  1  0  0  0  0  0999 V2000
   15.5410  -14.3143  -14.2953 C   0  0  0  0  0  0  0  0  0  0  0  0
   16.3769  -13.1587  -14.7961 C   0  0  1  0  0  0  0  0  0  0  0  0
   17.7103  -13.4638  -14.5682 O   0  0  0  0  0  0  0  0  0  0  0  0
   16.0793  -12.9597  -16.2823 C   0  0  2  0  0  0  0  0  0  0  0  0
   16.3052  -14.1668  -17.0166 N   0  0  0  0  0  0  0  0  0  0  0  0
   16.7569  -11.7870  -16.8316 C   0  0  0  0  0  0  0  0  0  0  0  0
   17.3363  -11.8904  -17.9429 O   0  0  0  0  0  0  0  0  0  0  0  0
   16.2678   -5.9864  -17.7302 N   0  0  0  0  0  0  0  0  0  0  0  0
   16.8965   -7.2389  -17.8969 C   0  0  0  0  0  0  0  0  0  0  0  0
   17.9334   -7.3051  -18.5997 O   0  0  0  0  0  0  0  0  0  0  0  0
   16.3400   -8.4384  -17.2518 C   0  0  0  0  0  0  0  0  0  0  0  0
   17.3613   -9.3745  -16.6671 C   0  0  2  0  0  0  0  0  0  0  0  0
   16.7600  -10.5596  -16.1247 N   0  0  0  0  0  0  0  0  0  0  0  0
   18.2452   -8.6792  -15.7358 C   0  0  0  0  0  0  0  0  0  0  0  0
   17.8171   -8.2774  -14.6347 O   0  0  0  0  0  0  0  0  0  0  0  0
   19.6260   -8.4096  -15.9975 N   0  0  0  0  0  0  0  0  0  0  0  0
   20.4379   -7.6378  -15.0870 C   0  0  1  0  0  0  0  0  0  0  0  0
   21.9068   -7.9988  -15.1848 C   0  0  0  0  0  0  0  0  0  0  0  0
   22.0917   -9.6136  -14.3418 S   0  0  0  0  0  0  0  0  0  0  0  0
   20.3029   -6.1887  -15.3503 C   0  0  0  0  0  0  0  0  0  0  0  0
   19.5204   -5.6983  -16.3682 O   0  0  0  0  0  0  0  0  0  0  0  0
   20.9254   -5.3893  -14.6171 O   0  0  0  0  0  0  0  0  0  0  0  0
  2  1  1  6
  2  3  1  0
  4  2  1  0
  4  6  1  0
  4  5  1  6
  6  7  2  0
  6 13  1  0
  9 11  1  0
  9  8  1  0
 10  9  2  0
 12 11  1  1
 12 14  1  0
 13 12  1  0
 14 16  1  0
 14 15  2  0
 16 17  1  0
 17 20  1  0
 17 18  1  6
 18 19  1  0
 20 21  1  0
 22 20  2  0
M  END
$$$$
