TNC.pdb
     RDKit          3D

 22 21  0  0  1  0  0  0  0  0999 V2000
   26.7434  -16.6054  -16.6214 C   0  0  0  0  0  0  0  0  0  0  0  0
   26.9411  -16.8559  -18.0989 C   0  0  1  0  0  0  0  0  0  0  0  0
   27.6702  -15.7973  -18.6193 O   0  0  0  0  0  0  0  0  0  0  0  0
   27.6674  -18.1906  -18.2665 C   0  0  2  0  0  0  0  0  0  0  0  0
   28.0877  -18.3792  -19.6211 N   0  0  0  0  0  0  0  0  0  0  0  0
   26.9074  -19.3093  -17.7122 C   0  0  0  0  0  0  0  0  0  0  0  0
   25.8897  -19.7126  -18.3310 O   0  0  0  0  0  0  0  0  0  0  0  0
   28.0070  -24.1039  -16.1413 N   0  0  0  0  0  0  0  0  0  0  0  0
   28.3024  -22.7441  -15.9058 C   0  0  0  0  0  0  0  0  0  0  0  0
   29.3493  -22.2596  -16.3986 O   0  0  0  0  0  0  0  0  0  0  0  0
   27.3916  -21.9175  -15.0986 C   0  0  0  0  0  0  0  0  0  0  0  0
   26.5357  -20.9644  -15.8861 C   0  0  2  0  0  0  0  0  0  0  0  0
   27.3107  -19.9250  -16.5021 N   0  0  0  0  0  0  0  0  0  0  0  0
   25.4160  -20.4742  -15.0872 C   0  0  0  0  0  0  0  0  0  0  0  0
   25.5631  -19.5033  -14.3171 O   0  0  0  0  0  0  0  0  0  0  0  0
   24.1041  -21.0447  -15.1186 N   0  0  0  0  0  0  0  0  0  0  0  0
   22.9628  -20.3631  -14.5558 C   0  0  1  0  0  0  0  0  0  0  0  0
   22.6984  -19.0344  -15.2357 C   0  0  0  0  0  0  0  0  0  0  0  0
   21.2078  -18.3385  -14.4317 S   0  0  0  0  0  0  0  0  0  0  0  0
   21.7404  -21.1878  -14.6691 C   0  0  0  0  0  0  0  0  0  0  0  0
   20.7310  -21.1344  -13.7378 O   0  0  0  0  0  0  0  0  0  0  0  0
   21.6295  -21.9575  -15.6487 O   0  0  0  0  0  0  0  0  0  0  0  0
  2  1  1  1
  2  3  1  0
  4  2  1  0
  4  6  1  0
  4  5  1  6
  6  7  2  0
  6 13  1  0
  9 11  1  0
  9  8  1  0
 10  9  2  0
 12 11  1  1
 12 14  1  0
 13 12  1  0
 14 16  1  0
 14 15  2  0
 16 17  1  0
 17 20  1  0
 17 18  1  6
 18 19  1  0
 20 21  1  0
 22 20  2  0
M  END
$$$$
