TNC.pdb
     RDKit          3D

 22 21  0  0  1  0  0  0  0  0999 V2000
   18.1806  -10.1710  -11.9342 C   0  0  0  0  0  0  0  0  0  0  0  0
   16.8637  -10.3447  -12.6555 C   0  0  1  0  0  0  0  0  0  0  0  0
   16.7232  -11.6871  -12.9739 O   0  0  0  0  0  0  0  0  0  0  0  0
   15.7450   -9.8522  -11.7375 C   0  0  2  0  0  0  0  0  0  0  0  0
   14.4614  -10.2263  -12.2471 N   0  0  0  0  0  0  0  0  0  0  0  0
   15.8738   -8.4316  -11.4187 C   0  0  0  0  0  0  0  0  0  0  0  0
   15.6423   -7.5874  -12.3215 O   0  0  0  0  0  0  0  0  0  0  0  0
   14.1400   -7.5058   -7.1918 N   0  0  0  0  0  0  0  0  0  0  0  0
   14.5617   -6.5265   -8.1165 C   0  0  0  0  0  0  0  0  0  0  0  0
   13.6938   -5.8353   -8.7016 O   0  0  0  0  0  0  0  0  0  0  0  0
   15.9951   -6.3256   -8.3802 C   0  0  0  0  0  0  0  0  0  0  0  0
   16.4290   -6.6310   -9.7872 C   0  0  2  0  0  0  0  0  0  0  0  0
   16.2523   -8.0164  -10.1185 N   0  0  0  0  0  0  0  0  0  0  0  0
   17.7742   -6.1265  -10.0479 C   0  0  0  0  0  0  0  0  0  0  0  0
   18.6630   -6.2094   -9.1759 O   0  0  0  0  0  0  0  0  0  0  0  0
   18.1723   -5.5166  -11.2797 N   0  0  0  0  0  0  0  0  0  0  0  0
   19.5592   -5.2699  -11.5949 C   0  0  1  0  0  0  0  0  0  0  0  0
   20.3282   -6.5542  -11.8333 C   0  0  0  0  0  0  0  0  0  0  0  0
   22.0235   -6.0520  -12.3091 S   0  0  0  0  0  0  0  0  0  0  0  0
   19.6892   -4.4263  -12.8026 C   0  0  0  0  0  0  0  0  0  0  0  0
   20.6729   -3.4748  -12.9299 O   0  0  0  0  0  0  0  0  0  0  0  0
   18.8721   -4.5905  -13.7351 O   0  0  0  0  0  0  0  0  0  0  0  0
  2  1  1  1
  2  3  1  0
  4  2  1  0
  4  6  1  0
  4  5  1  6
  6  7  2  0
  6 13  1  0
  9 11  1  0
  9  8  1  0
 10  9  2  0
 12 11  1  1
 12 14  1  0
 13 12  1  0
 14 16  1  0
 14 15  2  0
 16 17  1  0
 17 20  1  0
 17 18  1  6
 18 19  1  0
 20 21  1  0
 22 20  2  0
M  END
$$$$
