TNC.pdb
     RDKit          3D

 22 21  0  0  1  0  0  0  0  0999 V2000
   20.6026  -13.8340  -18.8093 C   0  0  0  0  0  0  0  0  0  0  0  0
   20.3216  -12.3575  -18.6487 C   0  0  1  0  0  0  0  0  0  0  0  0
   18.9859  -12.1400  -18.9514 O   0  0  0  0  0  0  0  0  0  0  0  0
   20.6569  -11.9587  -17.2115 C   0  0  2  0  0  0  0  0  0  0  0  0
   20.0039  -12.8206  -16.2745 N   0  0  0  0  0  0  0  0  0  0  0  0
   20.4429  -10.5338  -16.9668 C   0  0  0  0  0  0  0  0  0  0  0  0
   21.1245   -9.7009  -17.6172 O   0  0  0  0  0  0  0  0  0  0  0  0
   18.4369   -6.0470  -15.2897 N   0  0  0  0  0  0  0  0  0  0  0  0
   17.5274   -7.0696  -14.9451 C   0  0  0  0  0  0  0  0  0  0  0  0
   16.3990   -6.7493  -14.5007 O   0  0  0  0  0  0  0  0  0  0  0  0
   17.9040   -8.4822  -15.1104 C   0  0  0  0  0  0  0  0  0  0  0  0
   19.2344   -8.7095  -15.7735 C   0  0  2  0  0  0  0  0  0  0  0  0
   19.4866  -10.1017  -16.0155 N   0  0  0  0  0  0  0  0  0  0  0  0
   20.3077   -8.0293  -15.0542 C   0  0  0  0  0  0  0  0  0  0  0  0
   20.6588   -8.4187  -13.9218 O   0  0  0  0  0  0  0  0  0  0  0  0
   21.0212   -6.9003  -15.5681 N   0  0  0  0  0  0  0  0  0  0  0  0
   22.1502   -6.3307  -14.8717 C   0  0  1  0  0  0  0  0  0  0  0  0
   23.2577   -5.9177  -15.8206 C   0  0  0  0  0  0  0  0  0  0  0  0
   23.8937   -7.4648  -16.5654 S   0  0  0  0  0  0  0  0  0  0  0  0
   21.7489   -5.1414  -14.0894 C   0  0  0  0  0  0  0  0  0  0  0  0
   22.4774   -4.6911  -13.0144 O   0  0  0  0  0  0  0  0  0  0  0  0
   20.7100   -4.5307  -14.4239 O   0  0  0  0  0  0  0  0  0  0  0  0
  2  1  1  1
  2  3  1  0
  4  2  1  0
  4  6  1  0
  4  5  1  1
  6  7  2  0
  6 13  1  0
  9 11  1  0
  9  8  1  0
 10  9  2  0
 12 11  1  1
 12 14  1  0
 13 12  1  0
 14 16  1  0
 14 15  2  0
 16 17  1  0
 17 20  1  0
 17 18  1  6
 18 19  1  0
 20 21  1  0
 22 20  2  0
M  END
$$$$
