TNC.pdb
     RDKit          3D

 22 21  0  0  1  0  0  0  0  0999 V2000
   21.5084  -11.6152  -15.9544 C   0  0  0  0  0  0  0  0  0  0  0  0
   20.4303  -11.8974  -16.9756 C   0  0  1  0  0  0  0  0  0  0  0  0
   20.6796  -13.1444  -17.5287 O   0  0  0  0  0  0  0  0  0  0  0  0
   19.0751  -11.8429  -16.2702 C   0  0  2  0  0  0  0  0  0  0  0  0
   18.0289  -12.2979  -17.1337 N   0  0  0  0  0  0  0  0  0  0  0  0
   18.8221  -10.5417  -15.6544 C   0  0  0  0  0  0  0  0  0  0  0  0
   18.7016   -9.5352  -16.3985 O   0  0  0  0  0  0  0  0  0  0  0  0
   15.7475   -9.3573  -13.6036 N   0  0  0  0  0  0  0  0  0  0  0  0
   16.3976   -9.3464  -12.3510 C   0  0  0  0  0  0  0  0  0  0  0  0
   15.7021   -9.4152  -11.3093 O   0  0  0  0  0  0  0  0  0  0  0  0
   17.8644   -9.2586  -12.2787 C   0  0  0  0  0  0  0  0  0  0  0  0
   18.5582   -9.1436  -13.6079 C   0  0  2  0  0  0  0  0  0  0  0  0
   18.7157  -10.4190  -14.2473 N   0  0  0  0  0  0  0  0  0  0  0  0
   19.7980   -8.3809  -13.4939 C   0  0  0  0  0  0  0  0  0  0  0  0
   20.7358   -8.7969  -12.7835 O   0  0  0  0  0  0  0  0  0  0  0  0
   20.0337   -7.1377  -14.1623 N   0  0  0  0  0  0  0  0  0  0  0  0
   21.2928   -6.4401  -14.0527 C   0  0  1  0  0  0  0  0  0  0  0  0
   22.1003   -6.5139  -15.3334 C   0  0  0  0  0  0  0  0  0  0  0  0
   23.5690   -5.4524  -15.0714 S   0  0  0  0  0  0  0  0  0  0  0  0
   21.0844   -5.0134  -13.7232 C   0  0  0  0  0  0  0  0  0  0  0  0
   21.9687   -4.3037  -12.9464 O   0  0  0  0  0  0  0  0  0  0  0  0
   20.0663   -4.4409  -14.1705 O   0  0  0  0  0  0  0  0  0  0  0  0
  2  1  1  1
  2  3  1  0
  4  2  1  0
  4  6  1  0
  4  5  1  6
  6  7  2  0
  6 13  1  0
  9 11  1  0
  9  8  1  0
 10  9  2  0
 12 11  1  1
 12 14  1  0
 13 12  1  0
 14 16  1  0
 14 15  2  0
 16 17  1  0
 17 20  1  0
 17 18  1  6
 18 19  1  0
 20 21  1  0
 22 20  2  0
M  END
$$$$
