TNC.pdb
     RDKit          3D

 22 21  0  0  1  0  0  0  0  0999 V2000
   26.0639  -20.5579  -17.3706 C   0  0  0  0  0  0  0  0  0  0  0  0
   26.8189  -20.6790  -16.0667 C   0  0  1  0  0  0  0  0  0  0  0  0
   28.1510  -20.9247  -16.3640 O   0  0  0  0  0  0  0  0  0  0  0  0
   26.6359  -19.3790  -15.2835 C   0  0  2  0  0  0  0  0  0  0  0  0
   27.5049  -19.3378  -14.1476 N   0  0  0  0  0  0  0  0  0  0  0  0
   25.2326  -19.1094  -14.9761 C   0  0  0  0  0  0  0  0  0  0  0  0
   24.7424  -19.5911  -13.9230 O   0  0  0  0  0  0  0  0  0  0  0  0
   20.5302  -16.9237  -14.9605 N   0  0  0  0  0  0  0  0  0  0  0  0
   21.3060  -16.2380  -15.9195 C   0  0  0  0  0  0  0  0  0  0  0  0
   20.8339  -15.2044  -16.4508 O   0  0  0  0  0  0  0  0  0  0  0  0
   22.6438  -16.7325  -16.2805 C   0  0  0  0  0  0  0  0  0  0  0  0
   23.0947  -17.9503  -15.5223 C   0  0  2  0  0  0  0  0  0  0  0  0
   24.4424  -18.3214  -15.8484 N   0  0  0  0  0  0  0  0  0  0  0  0
   22.1323  -19.0407  -15.6508 C   0  0  0  0  0  0  0  0  0  0  0  0
   22.4095  -20.0559  -16.3216 O   0  0  0  0  0  0  0  0  0  0  0  0
   20.8376  -19.0375  -15.0413 N   0  0  0  0  0  0  0  0  0  0  0  0
   20.2473  -20.2382  -14.4994 C   0  0  1  0  0  0  0  0  0  0  0  0
   21.0686  -20.8167  -13.3643 C   0  0  0  0  0  0  0  0  0  0  0  0
   20.1463  -22.2793  -12.7621 S   0  0  0  0  0  0  0  0  0  0  0  0
   18.8824  -19.9789  -13.9924 C   0  0  0  0  0  0  0  0  0  0  0  0
   17.8230  -20.8047  -14.2834 O   0  0  0  0  0  0  0  0  0  0  0  0
   18.6943  -18.9715  -13.2753 O   0  0  0  0  0  0  0  0  0  0  0  0
  2  1  1  6
  2  3  1  0
  4  2  1  0
  4  6  1  0
  4  5  1  1
  6  7  2  0
  6 13  1  0
  9 11  1  0
  9  8  1  0
 10  9  2  0
 12 11  1  6
 12 14  1  0
 13 12  1  0
 14 16  1  0
 14 15  2  0
 16 17  1  0
 17 20  1  0
 17 18  1  1
 18 19  1  0
 20 21  1  0
 22 20  2  0
M  END
$$$$
