TNC.pdb
     RDKit          3D

 22 21  0  0  1  0  0  0  0  0999 V2000
   16.2264  -12.7501  -10.4706 C   0  0  0  0  0  0  0  0  0  0  0  0
   16.1155  -11.2545  -10.6594 C   0  0  1  0  0  0  0  0  0  0  0  0
   16.2566  -10.9815  -12.0116 O   0  0  0  0  0  0  0  0  0  0  0  0
   14.7581  -10.8022  -10.1209 C   0  0  2  0  0  0  0  0  0  0  0  0
   13.6906  -11.4979  -10.7716 N   0  0  0  0  0  0  0  0  0  0  0  0
   14.6168   -9.3474  -10.1241 C   0  0  0  0  0  0  0  0  0  0  0  0
   14.0141   -8.8019  -11.0834 O   0  0  0  0  0  0  0  0  0  0  0  0
   14.7230   -4.3512   -8.8153 N   0  0  0  0  0  0  0  0  0  0  0  0
   14.7266   -5.1159   -7.6290 C   0  0  0  0  0  0  0  0  0  0  0  0
   14.5423   -4.5323   -6.5341 O   0  0  0  0  0  0  0  0  0  0  0  0
   14.9403   -6.5703   -7.6863 C   0  0  0  0  0  0  0  0  0  0  0  0
   15.0808   -7.1357   -9.0726 C   0  0  2  0  0  0  0  0  0  0  0  0
   15.1493   -8.5695   -9.0669 N   0  0  0  0  0  0  0  0  0  0  0  0
   16.1728   -6.4934   -9.7984 C   0  0  0  0  0  0  0  0  0  0  0  0
   17.2870   -6.3357   -9.2590 O   0  0  0  0  0  0  0  0  0  0  0  0
   16.0617   -6.0080  -11.1400 N   0  0  0  0  0  0  0  0  0  0  0  0
   17.1753   -5.3938  -11.8231 C   0  0  1  0  0  0  0  0  0  0  0  0
   17.3423   -5.9228  -13.2338 C   0  0  0  0  0  0  0  0  0  0  0  0
   17.7281   -7.7049  -13.0672 S   0  0  0  0  0  0  0  0  0  0  0  0
   17.0094   -3.9262  -11.9000 C   0  0  0  0  0  0  0  0  0  0  0  0
   15.8867   -3.2896  -11.4275 O   0  0  0  0  0  0  0  0  0  0  0  0
   17.9266   -3.2489  -12.4140 O   0  0  0  0  0  0  0  0  0  0  0  0
  2  1  1  6
  2  3  1  0
  4  2  1  0
  4  6  1  0
  4  5  1  6
  6  7  2  0
  6 13  1  0
  9 11  1  0
  9  8  1  0
 10  9  2  0
 12 11  1  1
 12 14  1  0
 13 12  1  0
 14 16  1  0
 14 15  2  0
 16 17  1  0
 17 20  1  0
 17 18  1  6
 18 19  1  0
 20 21  1  0
 22 20  2  0
M  END
$$$$
