TNC.pdb
     RDKit          3D

 22 21  0  0  1  0  0  0  0  0999 V2000
   24.0217  -22.9170  -14.6270 C   0  0  0  0  0  0  0  0  0  0  0  0
   22.7658  -22.0759  -14.6370 C   0  0  1  0  0  0  0  0  0  0  0  0
   21.7202  -22.8721  -15.0796 O   0  0  0  0  0  0  0  0  0  0  0  0
   22.5283  -21.5513  -13.2209 C   0  0  2  0  0  0  0  0  0  0  0  0
   21.2494  -20.9182  -13.1163 N   0  0  0  0  0  0  0  0  0  0  0  0
   23.6421  -20.7385  -12.7363 C   0  0  0  0  0  0  0  0  0  0  0  0
   23.7012  -19.5301  -13.0792 O   0  0  0  0  0  0  0  0  0  0  0  0
   24.1576  -20.1319   -9.3043 N   0  0  0  0  0  0  0  0  0  0  0  0
   25.3939  -20.7725   -9.0740 C   0  0  0  0  0  0  0  0  0  0  0  0
   25.6660  -21.1596   -7.9123 O   0  0  0  0  0  0  0  0  0  0  0  0
   26.3381  -20.9803  -10.1829 C   0  0  0  0  0  0  0  0  0  0  0  0
   25.8218  -20.5810  -11.5376 C   0  0  2  0  0  0  0  0  0  0  0  0
   24.6343  -21.3026  -11.8975 N   0  0  0  0  0  0  0  0  0  0  0  0
   26.8776  -20.6377  -12.5446 C   0  0  0  0  0  0  0  0  0  0  0  0
   27.8735  -21.3711  -12.3792 O   0  0  0  0  0  0  0  0  0  0  0  0
   26.8602  -19.8845  -13.7613 N   0  0  0  0  0  0  0  0  0  0  0  0
   27.7666  -20.1705  -14.8478 C   0  0  1  0  0  0  0  0  0  0  0  0
   27.5429  -21.5521  -15.4299 C   0  0  0  0  0  0  0  0  0  0  0  0
   28.7536  -21.7333  -16.7915 S   0  0  0  0  0  0  0  0  0  0  0  0
   27.6186  -19.1833  -15.9390 C   0  0  0  0  0  0  0  0  0  0  0  0
   28.6776  -18.7936  -16.7237 O   0  0  0  0  0  0  0  0  0  0  0  0
   26.4880  -18.6911  -16.1481 O   0  0  0  0  0  0  0  0  0  0  0  0
  2  1  1  1
  2  3  1  0
  4  2  1  0
  4  6  1  0
  4  5  1  6
  6  7  2  0
  6 13  1  0
  9 11  1  0
  9  8  1  0
 10  9  2  0
 12 11  1  1
 12 14  1  0
 13 12  1  0
 14 16  1  0
 14 15  2  0
 16 17  1  0
 17 20  1  0
 17 18  1  6
 18 19  1  0
 20 21  1  0
 22 20  2  0
M  END
$$$$
