TNC.pdb
     RDKit          3D

 22 21  0  0  1  0  0  0  0  0999 V2000
   26.8364  -21.7878  -16.5207 C   0  0  0  0  0  0  0  0  0  0  0  0
   27.9962  -20.8186  -16.5337 C   0  0  1  0  0  0  0  0  0  0  0  0
   29.0483  -21.4181  -17.2095 O   0  0  0  0  0  0  0  0  0  0  0  0
   27.5367  -19.5293  -17.2147 C   0  0  2  0  0  0  0  0  0  0  0  0
   28.6356  -18.6349  -17.4140 N   0  0  0  0  0  0  0  0  0  0  0  0
   26.3863  -18.9271  -16.5437 C   0  0  0  0  0  0  0  0  0  0  0  0
   26.5439  -18.4427  -15.3940 O   0  0  0  0  0  0  0  0  0  0  0  0
   22.2495  -15.4880  -16.1126 N   0  0  0  0  0  0  0  0  0  0  0  0
   22.1092  -16.6425  -16.9121 C   0  0  0  0  0  0  0  0  0  0  0  0
   20.9577  -17.0903  -17.1288 O   0  0  0  0  0  0  0  0  0  0  0  0
   23.2972  -17.2997  -17.4787 C   0  0  0  0  0  0  0  0  0  0  0  0
   23.9811  -18.2737  -16.5596 C   0  0  2  0  0  0  0  0  0  0  0  0
   25.1201  -18.8911  -17.1774 N   0  0  0  0  0  0  0  0  0  0  0  0
   23.0287  -19.2230  -15.9905 C   0  0  0  0  0  0  0  0  0  0  0  0
   22.7118  -20.2556  -16.6153 O   0  0  0  0  0  0  0  0  0  0  0  0
   22.4012  -19.0553  -14.7153 N   0  0  0  0  0  0  0  0  0  0  0  0
   21.5346  -20.0641  -14.1537 C   0  0  1  0  0  0  0  0  0  0  0  0
   21.6289  -20.1211  -12.6420 C   0  0  0  0  0  0  0  0  0  0  0  0
   20.4330  -21.3993  -12.1049 S   0  0  0  0  0  0  0  0  0  0  0  0
   20.1226  -19.8154  -14.5164 C   0  0  0  0  0  0  0  0  0  0  0  0
   19.2334  -20.8382  -14.7451 O   0  0  0  0  0  0  0  0  0  0  0  0
   19.7326  -18.6313  -14.6166 O   0  0  0  0  0  0  0  0  0  0  0  0
  2  1  1  6
  2  3  1  0
  4  2  1  0
  4  6  1  0
  4  5  1  1
  6  7  2  0
  6 13  1  0
  9 11  1  0
  9  8  1  0
 10  9  2  0
 12 11  1  6
 12 14  1  0
 13 12  1  0
 14 16  1  0
 14 15  2  0
 16 17  1  0
 17 20  1  0
 17 18  1  1
 18 19  1  0
 20 21  1  0
 22 20  2  0
M  END
$$$$
