TNC.pdb
     RDKit          3D

 22 21  0  0  1  0  0  0  0  0999 V2000
   15.5557  -10.3508  -17.7054 C   0  0  0  0  0  0  0  0  0  0  0  0
   15.3876  -11.6131  -16.8910 C   0  0  1  0  0  0  0  0  0  0  0  0
   14.6971  -12.5337  -17.6647 O   0  0  0  0  0  0  0  0  0  0  0  0
   16.7757  -12.1193  -16.4984 C   0  0  2  0  0  0  0  0  0  0  0  0
   16.6981  -13.4172  -15.9012 N   0  0  0  0  0  0  0  0  0  0  0  0
   17.5214  -11.1395  -15.7109 C   0  0  0  0  0  0  0  0  0  0  0  0
   17.1497  -10.9034  -14.5330 O   0  0  0  0  0  0  0  0  0  0  0  0
   21.8790   -8.4442  -13.6578 N   0  0  0  0  0  0  0  0  0  0  0  0
   21.5422   -8.4141  -15.0280 C   0  0  0  0  0  0  0  0  0  0  0  0
   21.8900   -7.4228  -15.7135 O   0  0  0  0  0  0  0  0  0  0  0  0
   20.7993   -9.5308  -15.6326 C   0  0  0  0  0  0  0  0  0  0  0  0
   19.3023   -9.4011  -15.5737 C   0  0  2  0  0  0  0  0  0  0  0  0
   18.6397  -10.4702  -16.2654 N   0  0  0  0  0  0  0  0  0  0  0  0
   18.8692   -8.0695  -15.9876 C   0  0  0  0  0  0  0  0  0  0  0  0
   18.8633   -7.7507  -17.1940 O   0  0  0  0  0  0  0  0  0  0  0  0
   18.4315   -7.0549  -15.0783 N   0  0  0  0  0  0  0  0  0  0  0  0
   18.0356   -5.7432  -15.5329 C   0  0  1  0  0  0  0  0  0  0  0  0
   16.8136   -5.2286  -14.7984 C   0  0  0  0  0  0  0  0  0  0  0  0
   15.4015   -6.2299  -15.3951 S   0  0  0  0  0  0  0  0  0  0  0  0
   19.1281   -4.7634  -15.3488 C   0  0  0  0  0  0  0  0  0  0  0  0
   19.0078   -3.4500  -15.7356 O   0  0  0  0  0  0  0  0  0  0  0  0
   20.1944   -5.1515  -14.8228 O   0  0  0  0  0  0  0  0  0  0  0  0
  2  1  1  6
  2  3  1  0
  4  2  1  0
  4  6  1  0
  4  5  1  1
  6  7  2  0
  6 13  1  0
  9 11  1  0
  9  8  1  0
 10  9  2  0
 12 11  1  6
 12 14  1  0
 13 12  1  0
 14 16  1  0
 14 15  2  0
 16 17  1  0
 17 20  1  0
 17 18  1  1
 18 19  1  0
 20 21  1  0
 22 20  2  0
M  END
$$$$
