TNC.pdb
     RDKit          3D

 22 21  0  0  1  0  0  0  0  0999 V2000
   24.9948  -17.4754  -17.8391 C   0  0  0  0  0  0  0  0  0  0  0  0
   24.9199  -18.7868  -18.5869 C   0  0  1  0  0  0  0  0  0  0  0  0
   26.1917  -19.0900  -19.0491 O   0  0  0  0  0  0  0  0  0  0  0  0
   24.3867  -19.8544  -17.6314 C   0  0  2  0  0  0  0  0  0  0  0  0
   24.5305  -21.1627  -18.1924 N   0  0  0  0  0  0  0  0  0  0  0  0
   23.0387  -19.5499  -17.1557 C   0  0  0  0  0  0  0  0  0  0  0  0
   22.1346  -19.3335  -18.0025 O   0  0  0  0  0  0  0  0  0  0  0  0
   20.4046  -21.7555  -15.2554 N   0  0  0  0  0  0  0  0  0  0  0  0
   20.7409  -21.1769  -14.0128 C   0  0  0  0  0  0  0  0  0  0  0  0
   20.6725  -21.8844  -12.9793 O   0  0  0  0  0  0  0  0  0  0  0  0
   21.1655  -19.7701  -13.9418 C   0  0  0  0  0  0  0  0  0  0  0  0
   21.4638  -19.1308  -15.2697 C   0  0  2  0  0  0  0  0  0  0  0  0
   22.7584  -19.4995  -15.7682 N   0  0  0  0  0  0  0  0  0  0  0  0
   21.2338  -17.6895  -15.2273 C   0  0  0  0  0  0  0  0  0  0  0  0
   21.9732  -16.9487  -14.5479 O   0  0  0  0  0  0  0  0  0  0  0  0
   20.1797  -17.0292  -15.9350 N   0  0  0  0  0  0  0  0  0  0  0  0
   20.0014  -15.5979  -15.8752 C   0  0  1  0  0  0  0  0  0  0  0  0
   20.6841  -14.8884  -17.0276 C   0  0  0  0  0  0  0  0  0  0  0  0
   20.2807  -13.1120  -16.8429 S   0  0  0  0  0  0  0  0  0  0  0  0
   18.5671  -15.2382  -15.8998 C   0  0  0  0  0  0  0  0  0  0  0  0
   18.0806  -14.1203  -15.2652 O   0  0  0  0  0  0  0  0  0  0  0  0
   17.7767  -15.9821  -16.5212 O   0  0  0  0  0  0  0  0  0  0  0  0
  2  1  1  1
  2  3  1  0
  4  2  1  0
  4  6  1  0
  4  5  1  6
  6  7  2  0
  6 13  1  0
  9 11  1  0
  9  8  1  0
 10  9  2  0
 12 11  1  1
 12 14  1  0
 13 12  1  0
 14 16  1  0
 14 15  2  0
 16 17  1  0
 17 20  1  0
 17 18  1  6
 18 19  1  0
 20 21  1  0
 22 20  2  0
M  END
$$$$
