NCK.pdb
     RDKit          3D

 24 23  0  0  1  0  0  0  0  0999 V2000
    6.0835  -18.8181   16.4017 N   0  0  0  0  0  0  0  0  0  0  0  0
    6.7014  -19.6838   17.3540 C   0  0  0  0  0  0  0  0  0  0  0  0
    6.4708  -20.9122   17.2746 O   0  0  0  0  0  0  0  0  0  0  0  0
    7.5731  -19.1028   18.3776 C   0  0  0  0  0  0  0  0  0  0  0  0
    7.5749  -17.5988   18.3662 C   0  0  2  0  0  0  0  0  0  0  0  0
    8.1361  -17.1489   17.0938 N   0  0  0  0  0  0  0  0  0  0  0  0
    8.4814  -17.0935   19.4641 C   0  0  0  0  0  0  0  0  0  0  0  0
    9.5377  -17.7178   19.7600 O   0  0  0  0  0  0  0  0  0  0  0  0
    8.1303  -15.9118   20.1557 N   0  0  0  0  0  0  0  0  0  0  0  0
    8.9253  -15.3337   21.2222 C   0  0  1  0  0  0  0  0  0  0  0  0
    8.3207  -14.0357   21.7220 C   0  0  0  0  0  0  0  0  0  0  0  0
    7.0088  -14.3450   22.9268 S   0  0  0  0  0  0  0  0  0  0  0  0
    9.0721  -16.3009   22.3303 C   0  0  0  0  0  0  0  0  0  0  0  0
    8.3526  -17.3429   22.3366 O   0  0  0  0  0  0  0  0  0  0  0  0
    9.9764  -16.1413   23.4047 N   0  0  0  0  0  0  0  0  0  0  0  0
   10.6855  -17.2466   23.9964 C   0  0  1  0  0  0  0  0  0  0  0  0
   11.5053  -18.0189   22.9907 C   0  0  0  0  0  0  0  0  0  0  0  0
   12.2552  -19.1683   23.5912 C   0  0  0  0  0  0  0  0  0  0  0  0
   13.3893  -19.5081   22.6488 C   0  0  0  0  0  0  0  0  0  0  0  0
   14.2630  -20.6164   23.1711 C   0  0  0  0  0  0  0  0  0  0  0  0
   15.3385  -20.8923   22.2398 N   0  0  0  0  0  0  0  0  0  0  0  0
   11.4653  -16.8510   25.1772 C   0  0  0  0  0  0  0  0  0  0  0  0
   12.1858  -15.8214   25.1689 O   0  0  0  0  0  0  0  0  0  0  0  0
   11.4164  -17.6115   26.3211 O   0  0  0  0  0  0  0  0  0  0  0  0
  2  4  1  0
  2  1  1  0
  3  2  2  0
  4  5  1  0
  5  7  1  0
  5  6  1  6
  7  9  1  0
  7  8  2  0
  9 10  1  0
 10 13  1  0
 10 11  1  1
 12 11  1  0
 13 15  1  0
 13 14  2  0
 15 16  1  0
 16 22  1  0
 16 17  1  6
 18 17  1  0
 19 18  1  0
 20 19  1  0
 21 20  1  0
 22 24  1  0
 23 22  2  0
M  END
$$$$
