NCK.pdb
     RDKit          3D

 24 23  0  0  1  0  0  0  0  0999 V2000
   11.2067  -19.0676   17.9505 N   0  0  0  0  0  0  0  0  0  0  0  0
   12.3923  -18.8627   18.7190 C   0  0  0  0  0  0  0  0  0  0  0  0
   13.4744  -19.3017   18.2666 O   0  0  0  0  0  0  0  0  0  0  0  0
   12.2938  -18.1527   19.9963 C   0  0  0  0  0  0  0  0  0  0  0  0
   11.0339  -17.3413   20.1245 C   0  0  2  0  0  0  0  0  0  0  0  0
   11.1175  -16.2125   19.1998 N   0  0  0  0  0  0  0  0  0  0  0  0
   10.9462  -16.7752   21.5225 C   0  0  0  0  0  0  0  0  0  0  0  0
   11.9909  -16.6006   22.2090 O   0  0  0  0  0  0  0  0  0  0  0  0
    9.6780  -16.4437   22.0513 N   0  0  0  0  0  0  0  0  0  0  0  0
    9.4747  -15.8945   23.3781 C   0  0  1  0  0  0  0  0  0  0  0  0
    8.2315  -15.0274   23.4338 C   0  0  0  0  0  0  0  0  0  0  0  0
    7.8685  -14.5103   25.1276 S   0  0  0  0  0  0  0  0  0  0  0  0
    9.3953  -16.9839   24.3740 C   0  0  0  0  0  0  0  0  0  0  0  0
    8.5973  -17.9459   24.1710 O   0  0  0  0  0  0  0  0  0  0  0  0
   10.1620  -17.0280   25.5606 N   0  0  0  0  0  0  0  0  0  0  0  0
   10.0836  -18.1187   26.4982 C   0  0  1  0  0  0  0  0  0  0  0  0
   11.2186  -18.1142   27.4941 C   0  0  0  0  0  0  0  0  0  0  0  0
   11.1874  -19.2777   28.4371 C   0  0  0  0  0  0  0  0  0  0  0  0
   12.3901  -19.1529   29.3468 C   0  0  0  0  0  0  0  0  0  0  0  0
   12.4038  -20.1937   30.4336 C   0  0  0  0  0  0  0  0  0  0  0  0
   13.5500  -20.0034   31.2996 N   0  0  0  0  0  0  0  0  0  0  0  0
    8.7666  -18.2171   27.1422 C   0  0  0  0  0  0  0  0  0  0  0  0
    8.3391  -19.3104   27.5906 O   0  0  0  0  0  0  0  0  0  0  0  0
    7.9747  -17.1003   27.2643 O   0  0  0  0  0  0  0  0  0  0  0  0
  2  4  1  0
  2  1  1  0
  3  2  2  0
  4  5  1  0
  5  7  1  0
  5  6  1  6
  7  9  1  0
  7  8  2  0
  9 10  1  0
 10 13  1  0
 10 11  1  6
 12 11  1  0
 13 15  1  0
 13 14  2  0
 15 16  1  0
 16 22  1  0
 16 17  1  1
 18 17  1  0
 19 18  1  0
 20 19  1  0
 21 20  1  0
 22 24  1  0
 23 22  2  0
M  END
$$$$
