NCK.pdb
     RDKit          3D

 24 23  0  0  1  0  0  0  0  0999 V2000
    7.9110  -11.7080   18.2706 N   0  0  0  0  0  0  0  0  0  0  0  0
    8.5260  -12.9964   18.2661 C   0  0  0  0  0  0  0  0  0  0  0  0
    7.7852  -14.0061   18.2720 O   0  0  0  0  0  0  0  0  0  0  0  0
    9.9881  -13.0826   18.2555 C   0  0  0  0  0  0  0  0  0  0  0  0
   10.4996  -14.4640   18.5592 C   0  0  2  0  0  0  0  0  0  0  0  0
    9.6802  -15.4291   17.8289 N   0  0  0  0  0  0  0  0  0  0  0  0
   10.3254  -14.7467   20.0331 C   0  0  0  0  0  0  0  0  0  0  0  0
   11.0618  -14.1770   20.8854 O   0  0  0  0  0  0  0  0  0  0  0  0
    9.3266  -15.6583   20.4446 N   0  0  0  0  0  0  0  0  0  0  0  0
    9.0519  -15.9837   21.8310 C   0  0  1  0  0  0  0  0  0  0  0  0
    7.5789  -16.2704   22.0509 C   0  0  0  0  0  0  0  0  0  0  0  0
    6.5650  -14.8244   21.6646 S   0  0  0  0  0  0  0  0  0  0  0  0
    9.8761  -17.1343   22.2575 C   0  0  0  0  0  0  0  0  0  0  0  0
   10.2278  -17.9922   21.3951 O   0  0  0  0  0  0  0  0  0  0  0  0
   10.3073  -17.3488   23.5864 N   0  0  0  0  0  0  0  0  0  0  0  0
   11.0309  -18.5271   23.9895 C   0  0  1  0  0  0  0  0  0  0  0  0
   11.5167  -18.4531   25.4173 C   0  0  0  0  0  0  0  0  0  0  0  0
   12.2511  -19.6812   25.8604 C   0  0  0  0  0  0  0  0  0  0  0  0
   12.6695  -19.4620   27.2980 C   0  0  0  0  0  0  0  0  0  0  0  0
   13.3899  -20.6490   27.8782 C   0  0  0  0  0  0  0  0  0  0  0  0
   13.7797  -20.3821   29.2482 N   0  0  0  0  0  0  0  0  0  0  0  0
   10.2950  -19.7670   23.7062 C   0  0  0  0  0  0  0  0  0  0  0  0
    9.0596  -19.8560   23.9184 O   0  0  0  0  0  0  0  0  0  0  0  0
   10.9567  -20.8598   23.1989 O   0  0  0  0  0  0  0  0  0  0  0  0
  2  4  1  0
  2  1  1  0
  3  2  2  0
  4  5  1  0
  5  7  1  0
  5  6  1  6
  7  9  1  0
  7  8  2  0
  9 10  1  0
 10 13  1  0
 10 11  1  6
 12 11  1  0
 13 15  1  0
 13 14  2  0
 15 16  1  0
 16 22  1  0
 16 17  1  1
 18 17  1  0
 19 18  1  0
 20 19  1  0
 21 20  1  0
 22 24  1  0
 23 22  2  0
M  END
$$$$
