NCK.pdb
     RDKit          3D

 24 23  0  0  1  0  0  0  0  0999 V2000
   15.3397  -19.3268   16.4559 N   0  0  0  0  0  0  0  0  0  0  0  0
   15.2138  -17.9088   16.3477 C   0  0  0  0  0  0  0  0  0  0  0  0
   15.3982  -17.3818   15.2268 O   0  0  0  0  0  0  0  0  0  0  0  0
   14.8770  -17.1349   17.5448 C   0  0  0  0  0  0  0  0  0  0  0  0
   13.5227  -17.4736   18.1043 C   0  0  2  0  0  0  0  0  0  0  0  0
   12.5123  -17.1223   17.1083 N   0  0  0  0  0  0  0  0  0  0  0  0
   13.2639  -16.6273   19.3288 C   0  0  0  0  0  0  0  0  0  0  0  0
   14.0598  -15.7004   19.6461 O   0  0  0  0  0  0  0  0  0  0  0  0
   12.1182  -16.8879   20.1146 N   0  0  0  0  0  0  0  0  0  0  0  0
   11.8092  -16.1904   21.3482 C   0  0  1  0  0  0  0  0  0  0  0  0
   10.3121  -16.1068   21.5767 C   0  0  0  0  0  0  0  0  0  0  0  0
    9.5786  -17.7527   21.7225 S   0  0  0  0  0  0  0  0  0  0  0  0
   12.4743  -16.8541   22.4893 C   0  0  0  0  0  0  0  0  0  0  0  0
   12.5500  -18.1180   22.5068 O   0  0  0  0  0  0  0  0  0  0  0  0
   13.0425  -16.1638   23.5840 N   0  0  0  0  0  0  0  0  0  0  0  0
   13.6534  -16.8406   24.6990 C   0  0  1  0  0  0  0  0  0  0  0  0
   15.0167  -16.2886   25.0404 C   0  0  0  0  0  0  0  0  0  0  0  0
   15.9806  -16.3328   23.8946 C   0  0  0  0  0  0  0  0  0  0  0  0
   17.2609  -15.6717   24.3569 C   0  0  0  0  0  0  0  0  0  0  0  0
   18.3058  -15.6151   23.2755 C   0  0  0  0  0  0  0  0  0  0  0  0
   19.4478  -14.8403   23.7177 N   0  0  0  0  0  0  0  0  0  0  0  0
   12.7662  -16.9191   25.8677 C   0  0  0  0  0  0  0  0  0  0  0  0
   11.6949  -16.2644   25.9193 O   0  0  0  0  0  0  0  0  0  0  0  0
   13.1007  -17.7200   26.9335 O   0  0  0  0  0  0  0  0  0  0  0  0
  2  4  1  0
  2  1  1  0
  3  2  2  0
  4  5  1  0
  5  7  1  0
  5  6  1  6
  7  9  1  0
  7  8  2  0
  9 10  1  0
 10 13  1  0
 10 11  1  1
 12 11  1  0
 13 15  1  0
 13 14  2  0
 15 16  1  0
 16 22  1  0
 16 17  1  1
 18 17  1  0
 19 18  1  0
 20 19  1  0
 21 20  1  0
 22 24  1  0
 23 22  2  0
M  END
$$$$
