NCK.pdb
     RDKit          3D

 24 23  0  0  1  0  0  0  0  0999 V2000
    9.3147  -20.0530   15.7028 N   0  0  0  0  0  0  0  0  0  0  0  0
    9.8148  -19.1348   16.6749 C   0  0  0  0  0  0  0  0  0  0  0  0
   10.6212  -18.2540   16.2978 O   0  0  0  0  0  0  0  0  0  0  0  0
    9.3669  -19.2609   18.0637 C   0  0  0  0  0  0  0  0  0  0  0  0
    8.4636  -18.1390   18.4964 C   0  0  2  0  0  0  0  0  0  0  0  0
    7.9928  -17.4405   17.3019 N   0  0  0  0  0  0  0  0  0  0  0  0
    9.2571  -17.1485   19.3160 C   0  0  0  0  0  0  0  0  0  0  0  0
   10.4523  -16.8788   19.0127 O   0  0  0  0  0  0  0  0  0  0  0  0
    8.6427  -16.5280   20.4275 N   0  0  0  0  0  0  0  0  0  0  0  0
    9.3212  -15.5993   21.3111 C   0  0  1  0  0  0  0  0  0  0  0  0
    8.3347  -14.8300   22.1687 C   0  0  0  0  0  0  0  0  0  0  0  0
    7.2900  -15.9494   23.1299 S   0  0  0  0  0  0  0  0  0  0  0  0
   10.2957  -16.3201   22.1571 C   0  0  0  0  0  0  0  0  0  0  0  0
   10.0627  -17.5235   22.4749 O   0  0  0  0  0  0  0  0  0  0  0  0
   11.4926  -15.7494   22.6464 N   0  0  0  0  0  0  0  0  0  0  0  0
   12.4304  -16.4828   23.4571 C   0  0  1  0  0  0  0  0  0  0  0  0
   13.8538  -16.0148   23.2700 C   0  0  0  0  0  0  0  0  0  0  0  0
   14.8469  -16.7922   24.0783 C   0  0  0  0  0  0  0  0  0  0  0  0
   16.2118  -16.1968   23.8091 C   0  0  0  0  0  0  0  0  0  0  0  0
   17.3080  -16.8983   24.5646 C   0  0  0  0  0  0  0  0  0  0  0  0
   18.5641  -16.1945   24.4000 N   0  0  0  0  0  0  0  0  0  0  0  0
   12.0342  -16.5370   24.8710 C   0  0  0  0  0  0  0  0  0  0  0  0
   12.4620  -17.4385   25.6348 O   0  0  0  0  0  0  0  0  0  0  0  0
   11.1796  -15.5902   25.3833 O   0  0  0  0  0  0  0  0  0  0  0  0
  2  4  1  0
  2  1  1  0
  3  2  2  0
  4  5  1  0
  5  7  1  0
  5  6  1  6
  7  9  1  0
  7  8  2  0
  9 10  1  0
 10 13  1  0
 10 11  1  1
 12 11  1  0
 13 15  1  0
 13 14  2  0
 15 16  1  0
 16 22  1  0
 16 17  1  1
 18 17  1  0
 19 18  1  0
 20 19  1  0
 21 20  1  0
 22 24  1  0
 23 22  2  0
M  END
$$$$
