NCK.pdb
     RDKit          3D

 24 23  0  0  1  0  0  0  0  0999 V2000
    9.3724  -18.0944   13.8152 N   0  0  0  0  0  0  0  0  0  0  0  0
    9.9803  -16.8046   13.8856 C   0  0  0  0  0  0  0  0  0  0  0  0
   10.4500  -16.3131   12.8339 O   0  0  0  0  0  0  0  0  0  0  0  0
   10.0293  -16.1149   15.1768 C   0  0  0  0  0  0  0  0  0  0  0  0
    9.3576  -16.8830   16.2817 C   0  0  2  0  0  0  0  0  0  0  0  0
    7.9182  -16.8903   16.0279 N   0  0  0  0  0  0  0  0  0  0  0  0
    9.5818  -16.1677   17.5934 C   0  0  0  0  0  0  0  0  0  0  0  0
   10.7526  -15.9546   18.0142 O   0  0  0  0  0  0  0  0  0  0  0  0
    8.4624  -15.7404   18.3432 N   0  0  0  0  0  0  0  0  0  0  0  0
    8.5544  -15.1346   19.6578 C   0  0  1  0  0  0  0  0  0  0  0  0
    7.2308  -14.5268   20.0810 C   0  0  0  0  0  0  0  0  0  0  0  0
    7.2526  -14.0600   21.8273 S   0  0  0  0  0  0  0  0  0  0  0  0
    9.0098  -16.1328   20.6483 C   0  0  0  0  0  0  0  0  0  0  0  0
    8.5085  -17.2953   20.6251 O   0  0  0  0  0  0  0  0  0  0  0  0
    9.9843  -15.8758   21.6393 N   0  0  0  0  0  0  0  0  0  0  0  0
   10.3830  -16.8596   22.6128 C   0  0  1  0  0  0  0  0  0  0  0  0
   11.7797  -17.3820   22.3756 C   0  0  0  0  0  0  0  0  0  0  0  0
   12.2003  -18.4263   23.3638 C   0  0  0  0  0  0  0  0  0  0  0  0
   13.5926  -18.8767   22.9784 C   0  0  0  0  0  0  0  0  0  0  0  0
   14.1505  -19.9051   23.9248 C   0  0  0  0  0  0  0  0  0  0  0  0
   15.3947  -20.4413   23.4106 N   0  0  0  0  0  0  0  0  0  0  0  0
   10.1769  -16.4037   23.9944 C   0  0  0  0  0  0  0  0  0  0  0  0
    9.8818  -15.2094   24.2507 O   0  0  0  0  0  0  0  0  0  0  0  0
   10.3058  -17.2889   25.0380 O   0  0  0  0  0  0  0  0  0  0  0  0
  2  4  1  0
  2  1  1  0
  3  2  2  0
  4  5  1  0
  5  7  1  0
  5  6  1  6
  7  9  1  0
  7  8  2  0
  9 10  1  0
 10 13  1  0
 10 11  1  1
 12 11  1  0
 13 15  1  0
 13 14  2  0
 15 16  1  0
 16 22  1  0
 16 17  1  1
 18 17  1  0
 19 18  1  0
 20 19  1  0
 21 20  1  0
 22 24  1  0
 23 22  2  0
M  END
$$$$
