NCK.pdb
     RDKit          3D

 24 23  0  0  1  0  0  0  0  0999 V2000
    7.3754  -17.7463   17.7000 N   0  0  0  0  0  0  0  0  0  0  0  0
    6.7863  -17.2694   18.9098 C   0  0  0  0  0  0  0  0  0  0  0  0
    5.5378  -17.1924   18.9703 O   0  0  0  0  0  0  0  0  0  0  0  0
    7.6613  -16.8918   20.0220 C   0  0  0  0  0  0  0  0  0  0  0  0
    7.4904  -15.4591   20.4468 C   0  0  2  0  0  0  0  0  0  0  0  0
    7.9261  -14.5985   19.3489 N   0  0  0  0  0  0  0  0  0  0  0  0
    8.3917  -15.1785   21.6264 C   0  0  0  0  0  0  0  0  0  0  0  0
    9.6453  -15.2682   21.5096 O   0  0  0  0  0  0  0  0  0  0  0  0
    7.8118  -14.8143   22.8630 N   0  0  0  0  0  0  0  0  0  0  0  0
    8.5741  -14.5780   24.0740 C   0  0  1  0  0  0  0  0  0  0  0  0
    7.8253  -13.6702   25.0310 C   0  0  0  0  0  0  0  0  0  0  0  0
    6.1493  -14.2765   25.3333 S   0  0  0  0  0  0  0  0  0  0  0  0
    8.9061  -15.8623   24.7261 C   0  0  0  0  0  0  0  0  0  0  0  0
    8.0572  -16.8015   24.7027 O   0  0  0  0  0  0  0  0  0  0  0  0
   10.1282  -16.1207   25.3874 N   0  0  0  0  0  0  0  0  0  0  0  0
   10.4298  -17.3898   25.9983 C   0  0  1  0  0  0  0  0  0  0  0  0
   11.4887  -18.1613   25.2476 C   0  0  0  0  0  0  0  0  0  0  0  0
   11.7411  -19.5266   25.8098 C   0  0  0  0  0  0  0  0  0  0  0  0
   12.7937  -20.1833   24.9434 C   0  0  0  0  0  0  0  0  0  0  0  0
   13.1047  -21.5902   25.3775 C   0  0  0  0  0  0  0  0  0  0  0  0
   14.0855  -22.1859   24.4924 N   0  0  0  0  0  0  0  0  0  0  0  0
   10.7269  -17.2706   27.4323 C   0  0  0  0  0  0  0  0  0  0  0  0
   10.9645  -16.1549   27.9593 O   0  0  0  0  0  0  0  0  0  0  0  0
   10.7490  -18.3923   28.2264 O   0  0  0  0  0  0  0  0  0  0  0  0
  2  4  1  0
  2  1  1  0
  3  2  2  0
  4  5  1  0
  5  7  1  0
  5  6  1  6
  7  9  1  0
  7  8  2  0
  9 10  1  0
 10 13  1  0
 10 11  1  1
 12 11  1  0
 13 15  1  0
 13 14  2  0
 15 16  1  0
 16 22  1  0
 16 17  1  6
 18 17  1  0
 19 18  1  0
 20 19  1  0
 21 20  1  0
 22 24  1  0
 23 22  2  0
M  END
$$$$
