NCK.pdb
     RDKit          3D

 24 23  0  0  1  0  0  0  0  0999 V2000
    7.2461  -17.0219   19.2708 N   0  0  0  0  0  0  0  0  0  0  0  0
    7.4706  -17.7450   20.4811 C   0  0  0  0  0  0  0  0  0  0  0  0
    7.2708  -18.9813   20.4780 O   0  0  0  0  0  0  0  0  0  0  0  0
    7.9216  -17.0153   21.6683 C   0  0  0  0  0  0  0  0  0  0  0  0
    7.9360  -15.5239   21.4737 C   0  0  2  0  0  0  0  0  0  0  0  0
    8.9476  -15.2006   20.4696 N   0  0  0  0  0  0  0  0  0  0  0  0
    8.3508  -14.8573   22.7644 C   0  0  0  0  0  0  0  0  0  0  0  0
    9.5574  -14.8749   23.1349 O   0  0  0  0  0  0  0  0  0  0  0  0
    7.3691  -14.2136   23.5518 N   0  0  0  0  0  0  0  0  0  0  0  0
    7.6444  -13.5809   24.8275 C   0  0  1  0  0  0  0  0  0  0  0  0
    6.4665  -12.7495   25.2985 C   0  0  0  0  0  0  0  0  0  0  0  0
    6.7763  -12.0409   26.9326 S   0  0  0  0  0  0  0  0  0  0  0  0
    7.9987  -14.6013   25.8366 C   0  0  0  0  0  0  0  0  0  0  0  0
    7.5659  -15.7828   25.6948 O   0  0  0  0  0  0  0  0  0  0  0  0
    8.8020  -14.3459   26.9712 N   0  0  0  0  0  0  0  0  0  0  0  0
    9.5270  -15.3817   27.6610 C   0  0  1  0  0  0  0  0  0  0  0  0
   10.5274  -16.0832   26.7738 C   0  0  0  0  0  0  0  0  0  0  0  0
   11.3226  -17.1330   27.4876 C   0  0  0  0  0  0  0  0  0  0  0  0
   12.2430  -17.7709   26.4699 C   0  0  0  0  0  0  0  0  0  0  0  0
   13.1361  -18.8200   27.0752 C   0  0  0  0  0  0  0  0  0  0  0  0
   14.1051  -19.2805   26.1010 N   0  0  0  0  0  0  0  0  0  0  0  0
   10.1196  -14.9137   28.9215 C   0  0  0  0  0  0  0  0  0  0  0  0
   10.6921  -15.7087   29.7086 O   0  0  0  0  0  0  0  0  0  0  0  0
   10.0548  -13.5833   29.2606 O   0  0  0  0  0  0  0  0  0  0  0  0
  2  4  1  0
  2  1  1  0
  3  2  2  0
  4  5  1  0
  5  7  1  0
  5  6  1  6
  7  9  1  0
  7  8  2  0
  9 10  1  0
 10 13  1  0
 10 11  1  1
 12 11  1  0
 13 15  1  0
 13 14  2  0
 15 16  1  0
 16 22  1  0
 16 17  1  6
 18 17  1  0
 19 18  1  0
 20 19  1  0
 21 20  1  0
 22 24  1  0
 23 22  2  0
M  END
$$$$
