NCK.pdb
     RDKit          3D

 24 23  0  0  1  0  0  0  0  0999 V2000
   12.7981  -21.8970   19.0963 N   0  0  0  0  0  0  0  0  0  0  0  0
   14.0972  -21.3588   19.3426 C   0  0  0  0  0  0  0  0  0  0  0  0
   15.0936  -22.0450   19.0189 O   0  0  0  0  0  0  0  0  0  0  0  0
   14.2096  -20.0354   19.9600 C   0  0  0  0  0  0  0  0  0  0  0  0
   12.8755  -19.3975   20.2345 C   0  0  2  0  0  0  0  0  0  0  0  0
   12.6350  -18.3772   19.2160 N   0  0  0  0  0  0  0  0  0  0  0  0
   12.9239  -18.6978   21.5727 C   0  0  0  0  0  0  0  0  0  0  0  0
   13.9114  -17.9749   21.8816 O   0  0  0  0  0  0  0  0  0  0  0  0
   11.8481  -18.8641   22.4743 N   0  0  0  0  0  0  0  0  0  0  0  0
   11.7628  -18.2002   23.7610 C   0  0  1  0  0  0  0  0  0  0  0  0
   10.5784  -17.2544   23.8183 C   0  0  0  0  0  0  0  0  0  0  0  0
    9.0546  -18.0807   23.3049 S   0  0  0  0  0  0  0  0  0  0  0  0
   11.6839  -19.2004   24.8464 C   0  0  0  0  0  0  0  0  0  0  0  0
   10.9897  -20.2448   24.6712 O   0  0  0  0  0  0  0  0  0  0  0  0
   12.3414  -19.0704   26.0909 N   0  0  0  0  0  0  0  0  0  0  0  0
   12.1528  -20.0029   27.1723 C   0  0  1  0  0  0  0  0  0  0  0  0
   13.2287  -19.8985   28.2266 C   0  0  0  0  0  0  0  0  0  0  0  0
   13.0874  -20.9091   29.3232 C   0  0  0  0  0  0  0  0  0  0  0  0
   14.2642  -20.7283   30.2572 C   0  0  0  0  0  0  0  0  0  0  0  0
   14.2906  -21.7527   31.3593 C   0  0  0  0  0  0  0  0  0  0  0  0
   15.5538  -21.6989   32.0675 N   0  0  0  0  0  0  0  0  0  0  0  0
   10.7984  -19.9452   27.7389 C   0  0  0  0  0  0  0  0  0  0  0  0
   10.3234  -20.9064   28.3945 O   0  0  0  0  0  0  0  0  0  0  0  0
   10.0231  -18.8248   27.5572 O   0  0  0  0  0  0  0  0  0  0  0  0
  2  4  1  0
  2  1  1  0
  3  2  2  0
  4  5  1  0
  5  7  1  0
  5  6  1  6
  7  9  1  0
  7  8  2  0
  9 10  1  0
 10 13  1  0
 10 11  1  6
 12 11  1  0
 13 15  1  0
 13 14  2  0
 15 16  1  0
 16 22  1  0
 16 17  1  1
 18 17  1  0
 19 18  1  0
 20 19  1  0
 21 20  1  0
 22 24  1  0
 23 22  2  0
M  END
$$$$
