NCK.pdb
     RDKit          3D

 24 23  0  0  1  0  0  0  0  0999 V2000
    6.3202  -16.4873   18.3110 N   0  0  0  0  0  0  0  0  0  0  0  0
    7.5431  -15.7508   18.3128 C   0  0  0  0  0  0  0  0  0  0  0  0
    8.0340  -15.4153   17.2106 O   0  0  0  0  0  0  0  0  0  0  0  0
    8.1688  -15.4212   19.5954 C   0  0  0  0  0  0  0  0  0  0  0  0
    7.4059  -14.3856   20.3749 C   0  0  2  0  0  0  0  0  0  0  0  0
    7.4851  -13.1165   19.6544 N   0  0  0  0  0  0  0  0  0  0  0  0
    8.0683  -14.1851   21.7179 C   0  0  0  0  0  0  0  0  0  0  0  0
    9.3260  -14.2122   21.8216 O   0  0  0  0  0  0  0  0  0  0  0  0
    7.2602  -13.9670   22.8569 N   0  0  0  0  0  0  0  0  0  0  0  0
    7.7807  -13.8467   24.2054 C   0  0  1  0  0  0  0  0  0  0  0  0
    6.7508  -13.2493   25.1449 C   0  0  0  0  0  0  0  0  0  0  0  0
    7.3524  -13.2295   26.8496 S   0  0  0  0  0  0  0  0  0  0  0  0
    8.2319  -15.1656   24.6972 C   0  0  0  0  0  0  0  0  0  0  0  0
    7.4835  -16.1732   24.5301 O   0  0  0  0  0  0  0  0  0  0  0  0
    9.4639  -15.3854   25.3542 N   0  0  0  0  0  0  0  0  0  0  0  0
    9.8537  -16.6736   25.8672 C   0  0  1  0  0  0  0  0  0  0  0  0
   10.9433  -17.3223   25.0476 C   0  0  0  0  0  0  0  0  0  0  0  0
   11.3873  -18.6464   25.5896 C   0  0  0  0  0  0  0  0  0  0  0  0
   12.4347  -19.1922   24.6436 C   0  0  0  0  0  0  0  0  0  0  0  0
   12.9169  -20.5609   25.0421 C   0  0  0  0  0  0  0  0  0  0  0  0
   14.0020  -20.9842   24.1798 N   0  0  0  0  0  0  0  0  0  0  0  0
   10.1700  -16.6387   27.3017 C   0  0  0  0  0  0  0  0  0  0  0  0
   10.3624  -15.5513   27.9016 O   0  0  0  0  0  0  0  0  0  0  0  0
   10.2606  -17.8098   28.0155 O   0  0  0  0  0  0  0  0  0  0  0  0
  2  4  1  0
  2  1  1  0
  3  2  2  0
  4  5  1  0
  5  7  1  0
  5  6  1  6
  7  9  1  0
  7  8  2  0
  9 10  1  0
 10 13  1  0
 10 11  1  1
 12 11  1  0
 13 15  1  0
 13 14  2  0
 15 16  1  0
 16 22  1  0
 16 17  1  6
 18 17  1  0
 19 18  1  0
 20 19  1  0
 21 20  1  0
 22 24  1  0
 23 22  2  0
M  END
$$$$
