NCK.pdb
     RDKit          3D

 24 23  0  0  1  0  0  0  0  0999 V2000
    9.6247  -17.8854   14.1405 N   0  0  0  0  0  0  0  0  0  0  0  0
    9.7209  -16.4623   14.0800 C   0  0  0  0  0  0  0  0  0  0  0  0
    9.9188  -15.9291   12.9643 O   0  0  0  0  0  0  0  0  0  0  0  0
    9.5856  -15.6906   15.3175 C   0  0  0  0  0  0  0  0  0  0  0  0
    9.3001  -16.5487   16.5194 C   0  0  2  0  0  0  0  0  0  0  0  0
    7.8591  -16.7841   16.5848 N   0  0  0  0  0  0  0  0  0  0  0  0
    9.6931  -15.7993   17.7710 C   0  0  0  0  0  0  0  0  0  0  0  0
   10.9041  -15.7259   18.1193 O   0  0  0  0  0  0  0  0  0  0  0  0
    8.6859  -15.1818   18.5470 N   0  0  0  0  0  0  0  0  0  0  0  0
    8.9301  -14.5413   19.8252 C   0  0  1  0  0  0  0  0  0  0  0  0
    7.7784  -13.6367   20.2199 C   0  0  0  0  0  0  0  0  0  0  0  0
    7.5816  -12.2762   19.0458 S   0  0  0  0  0  0  0  0  0  0  0  0
    9.1732  -15.5605   20.8678 C   0  0  0  0  0  0  0  0  0  0  0  0
    8.5119  -16.6399   20.8388 O   0  0  0  0  0  0  0  0  0  0  0  0
   10.1098  -15.4119   21.9158 N   0  0  0  0  0  0  0  0  0  0  0  0
   10.6590  -16.5331   22.6341 C   0  0  1  0  0  0  0  0  0  0  0  0
   11.3606  -17.5179   21.7297 C   0  0  0  0  0  0  0  0  0  0  0  0
   11.9141  -18.7044   22.4576 C   0  0  0  0  0  0  0  0  0  0  0  0
   12.5174  -19.6276   21.4215 C   0  0  0  0  0  0  0  0  0  0  0  0
   13.0723  -20.8897   22.0245 C   0  0  0  0  0  0  0  0  0  0  0  0
   13.6681  -21.7199   20.9969 N   0  0  0  0  0  0  0  0  0  0  0  0
   11.4891  -16.1221   23.7747 C   0  0  0  0  0  0  0  0  0  0  0  0
   12.1134  -15.0315   23.7684 O   0  0  0  0  0  0  0  0  0  0  0  0
   11.5950  -16.9354   24.8777 O   0  0  0  0  0  0  0  0  0  0  0  0
  2  4  1  0
  2  1  1  0
  3  2  2  0
  4  5  1  0
  5  7  1  0
  5  6  1  1
  7  9  1  0
  7  8  2  0
  9 10  1  0
 10 13  1  0
 10 11  1  1
 12 11  1  0
 13 15  1  0
 13 14  2  0
 15 16  1  0
 16 22  1  0
 16 17  1  6
 18 17  1  0
 19 18  1  0
 20 19  1  0
 21 20  1  0
 22 24  1  0
 23 22  2  0
M  END
$$$$
