NCK.pdb
     RDKit          3D

 24 23  0  0  1  0  0  0  0  0999 V2000
   12.3433  -18.9618   17.3235 N   0  0  0  0  0  0  0  0  0  0  0  0
   11.0704  -18.3653   17.5724 C   0  0  0  0  0  0  0  0  0  0  0  0
   10.0844  -18.7807   16.9216 O   0  0  0  0  0  0  0  0  0  0  0  0
   10.9719  -17.2989   18.5716 C   0  0  0  0  0  0  0  0  0  0  0  0
   10.5620  -17.7991   19.9295 C   0  0  2  0  0  0  0  0  0  0  0  0
    9.2341  -18.3993   19.8174 N   0  0  0  0  0  0  0  0  0  0  0  0
   10.4506  -16.6288   20.8786 C   0  0  0  0  0  0  0  0  0  0  0  0
   11.4370  -15.8654   21.0719 O   0  0  0  0  0  0  0  0  0  0  0  0
    9.2264  -16.4007   21.5473 N   0  0  0  0  0  0  0  0  0  0  0  0
    9.0558  -15.4287   22.6103 C   0  0  1  0  0  0  0  0  0  0  0  0
    7.6170  -14.9580   22.7041 C   0  0  0  0  0  0  0  0  0  0  0  0
    7.3396  -13.9947   24.2085 S   0  0  0  0  0  0  0  0  0  0  0  0
    9.5027  -15.9988   23.8988 C   0  0  0  0  0  0  0  0  0  0  0  0
    8.8760  -16.9857   24.3851 O   0  0  0  0  0  0  0  0  0  0  0  0
   10.6017  -15.5099   24.6411 N   0  0  0  0  0  0  0  0  0  0  0  0
   10.8791  -15.9311   25.9903 C   0  0  1  0  0  0  0  0  0  0  0  0
   10.0669  -15.1764   27.0154 C   0  0  0  0  0  0  0  0  0  0  0  0
   10.2273  -15.7047   28.4079 C   0  0  0  0  0  0  0  0  0  0  0  0
   10.3344  -14.5119   29.3329 C   0  0  0  0  0  0  0  0  0  0  0  0
   10.5389  -14.9106   30.7695 C   0  0  0  0  0  0  0  0  0  0  0  0
   10.7730  -13.7390   31.5896 N   0  0  0  0  0  0  0  0  0  0  0  0
   10.7880  -17.3880   26.1578 C   0  0  0  0  0  0  0  0  0  0  0  0
   11.8051  -18.0807   26.4125 O   0  0  0  0  0  0  0  0  0  0  0  0
    9.5737  -18.0204   26.0366 O   0  0  0  0  0  0  0  0  0  0  0  0
  2  4  1  0
  2  1  1  0
  3  2  2  0
  4  5  1  0
  5  7  1  0
  5  6  1  6
  7  9  1  0
  7  8  2  0
  9 10  1  0
 10 13  1  0
 10 11  1  1
 12 11  1  0
 13 15  1  0
 13 14  2  0
 15 16  1  0
 16 22  1  0
 16 17  1  1
 18 17  1  0
 19 18  1  0
 20 19  1  0
 21 20  1  0
 22 24  1  0
 23 22  2  0
M  END
$$$$
