NCK.pdb
     RDKit          3D

 24 23  0  0  1  0  0  0  0  0999 V2000
    5.8287  -16.1406   19.3680 N   0  0  0  0  0  0  0  0  0  0  0  0
    7.1592  -15.9954   18.8710 C   0  0  0  0  0  0  0  0  0  0  0  0
    7.5993  -16.8718   18.0922 O   0  0  0  0  0  0  0  0  0  0  0  0
    7.9487  -14.8353   19.2906 C   0  0  0  0  0  0  0  0  0  0  0  0
    7.2134  -13.9357   20.2457 C   0  0  2  0  0  0  0  0  0  0  0  0
    7.0785  -12.6188   19.6263 N   0  0  0  0  0  0  0  0  0  0  0  0
    8.0366  -13.7629   21.5008 C   0  0  0  0  0  0  0  0  0  0  0  0
    9.1235  -13.1218   21.4701 O   0  0  0  0  0  0  0  0  0  0  0  0
    7.5729  -14.3291   22.7101 N   0  0  0  0  0  0  0  0  0  0  0  0
    8.2715  -14.2139   23.9759 C   0  0  1  0  0  0  0  0  0  0  0  0
    7.4296  -13.4894   25.0087 C   0  0  0  0  0  0  0  0  0  0  0  0
    5.7904  -14.2366   25.1591 S   0  0  0  0  0  0  0  0  0  0  0  0
    8.6608  -15.5526   24.4669 C   0  0  0  0  0  0  0  0  0  0  0  0
    7.8223  -16.4992   24.4024 O   0  0  0  0  0  0  0  0  0  0  0  0
    9.9278  -15.8564   25.0148 N   0  0  0  0  0  0  0  0  0  0  0  0
   10.2853  -17.1772   25.4646 C   0  0  1  0  0  0  0  0  0  0  0  0
   11.5508  -17.6900   24.8201 C   0  0  0  0  0  0  0  0  0  0  0  0
   11.4707  -17.7625   23.3261 C   0  0  0  0  0  0  0  0  0  0  0  0
   12.8275  -18.2047   22.8228 C   0  0  0  0  0  0  0  0  0  0  0  0
   12.8766  -18.3272   21.3238 C   0  0  0  0  0  0  0  0  0  0  0  0
   14.1941  -18.7525   20.8955 N   0  0  0  0  0  0  0  0  0  0  0  0
   10.3118  -17.2876   26.9295 C   0  0  0  0  0  0  0  0  0  0  0  0
   10.1792  -16.2759   27.6631 O   0  0  0  0  0  0  0  0  0  0  0  0
   10.4841  -18.5147   27.5245 O   0  0  0  0  0  0  0  0  0  0  0  0
  2  4  1  0
  2  1  1  0
  3  2  2  0
  4  5  1  0
  5  7  1  0
  5  6  1  6
  7  9  1  0
  7  8  2  0
  9 10  1  0
 10 13  1  0
 10 11  1  1
 12 11  1  0
 13 15  1  0
 13 14  2  0
 15 16  1  0
 16 22  1  0
 16 17  1  1
 18 17  1  0
 19 18  1  0
 20 19  1  0
 21 20  1  0
 22 24  1  0
 23 22  2  0
M  END
$$$$
