PVL.pdb
     RDKit          3D

 23 23  0  0  1  0  0  0  0  0999 V2000
   31.2143  -21.7307  -13.5078 N   0  0  0  0  0  0  0  0  0  0  0  0
   32.5255  -21.7306  -12.9703 C   0  0  0  0  0  0  0  0  0  0  0  0
   32.3204  -22.0067  -11.4955 C   0  0  0  0  0  0  0  0  0  0  0  0
   31.1957  -23.0385  -11.5435 C   0  0  0  0  0  0  0  0  0  0  0  0
   30.2995  -22.4028  -12.6097 C   0  0  1  0  0  0  0  0  0  0  0  0
   29.4905  -21.3787  -11.9206 C   0  0  0  0  0  0  0  0  0  0  0  0
   29.9661  -20.2364  -11.6802 O   0  0  0  0  0  0  0  0  0  0  0  0
   26.6792  -19.6359  -12.9347 C   0  0  0  0  0  0  0  0  0  0  0  0
   26.1326  -20.2859  -11.6853 C   0  0  1  0  0  0  0  0  0  0  0  0
   25.3236  -21.5151  -12.0340 C   0  0  0  0  0  0  0  0  0  0  0  0
   27.3459  -20.6744  -10.8315 C   0  0  2  0  0  0  0  0  0  0  0  0
   28.1558  -21.6584  -11.5161 N   0  0  0  0  0  0  0  0  0  0  0  0
   26.8806  -21.0821   -9.4985 C   0  0  0  0  0  0  0  0  0  0  0  0
   26.5867  -22.3055   -9.2708 O   0  0  0  0  0  0  0  0  0  0  0  0
   28.5936  -20.5271   -5.1158 C   0  0  0  0  0  0  0  0  0  0  0  0
   28.0690  -19.3035   -5.8054 C   0  0  2  0  0  0  0  0  0  0  0  0
   28.2280  -18.1032   -4.9047 C   0  0  0  0  0  0  0  0  0  0  0  0
   26.6202  -19.4330   -6.1362 C   0  0  0  0  0  0  0  0  0  0  0  0
   26.2972  -20.5883   -7.0708 C   0  0  2  0  0  0  0  0  0  0  0  0
   26.7253  -20.1955   -8.4080 N   0  0  0  0  0  0  0  0  0  0  0  0
   24.8220  -20.7280   -7.0493 C   0  0  0  0  0  0  0  0  0  0  0  0
   24.0639  -20.2351   -7.9207 O   0  0  0  0  0  0  0  0  0  0  0  0
   24.2573  -21.4570   -5.9891 O   0  0  0  0  0  0  0  0  0  0  0  0
  2  3  1  0
  2  1  1  0
  3  4  1  0
  4  5  1  0
  5  1  1  0
  5  6  1  1
  6 12  1  0
  6  7  2  0
  9  8  1  6
  9 11  1  0
  9 10  1  0
 11 13  1  0
 11 12  1  6
 13 14  2  0
 16 18  1  0
 16 15  1  1
 17 16  1  0
 19 18  1  1
 19 21  1  0
 20 19  1  0
 20 13  1  0
 21 23  1  0
 22 21  2  0
M  END
$$$$
