PVL.pdb
     RDKit          3D

 23 23  0  0  1  0  0  0  0  0999 V2000
   22.7099  -21.1581  -13.9748 N   0  0  0  0  0  0  0  0  0  0  0  0
   21.3549  -21.5467  -13.8295 C   0  0  0  0  0  0  0  0  0  0  0  0
   20.9953  -21.1150  -12.4232 C   0  0  0  0  0  0  0  0  0  0  0  0
   21.7297  -19.7795  -12.3291 C   0  0  0  0  0  0  0  0  0  0  0  0
   23.0597  -20.1629  -12.9835 C   0  0  1  0  0  0  0  0  0  0  0  0
   23.8688  -20.8164  -11.9364 C   0  0  0  0  0  0  0  0  0  0  0  0
   23.3950  -21.7644  -11.2541 O   0  0  0  0  0  0  0  0  0  0  0  0
   28.0253  -20.1264  -11.7617 C   0  0  0  0  0  0  0  0  0  0  0  0
   27.3943  -21.4240  -11.3141 C   0  0  1  0  0  0  0  0  0  0  0  0
   28.2632  -22.1123  -10.2853 C   0  0  0  0  0  0  0  0  0  0  0  0
   26.0366  -21.0583  -10.7020 C   0  0  2  0  0  0  0  0  0  0  0  0
   25.2015  -20.3919  -11.6774 N   0  0  0  0  0  0  0  0  0  0  0  0
   26.2602  -20.2988   -9.4639 C   0  0  0  0  0  0  0  0  0  0  0  0
   26.1353  -19.0262   -9.4636 O   0  0  0  0  0  0  0  0  0  0  0  0
   28.8991  -21.5060   -3.9800 C   0  0  0  0  0  0  0  0  0  0  0  0
   28.1777  -20.5042   -4.8308 C   0  0  2  0  0  0  0  0  0  0  0  0
   27.0449  -19.8902   -4.0453 C   0  0  0  0  0  0  0  0  0  0  0  0
   27.5943  -21.1327   -6.0514 C   0  0  0  0  0  0  0  0  0  0  0  0
   26.9812  -20.1415   -7.0281 C   0  0  2  0  0  0  0  0  0  0  0  0
   26.6168  -20.8854   -8.2279 N   0  0  0  0  0  0  0  0  0  0  0  0
   28.0570  -19.1768   -7.3569 C   0  0  0  0  0  0  0  0  0  0  0  0
   29.0306  -19.4481   -8.1024 O   0  0  0  0  0  0  0  0  0  0  0  0
   27.9661  -17.8915   -6.7964 O   0  0  0  0  0  0  0  0  0  0  0  0
  2  3  1  0
  2  1  1  0
  3  4  1  0
  4  5  1  0
  5  1  1  0
  5  6  1  1
  6 12  1  0
  6  7  2  0
  9  8  1  1
  9 11  1  0
  9 10  1  0
 11 13  1  0
 11 12  1  6
 13 14  2  0
 16 18  1  0
 16 15  1  1
 17 16  1  0
 19 18  1  1
 19 21  1  0
 20 19  1  0
 20 13  1  0
 21 23  1  0
 22 21  2  0
M  END
$$$$
