PVL.pdb
     RDKit          3D

 23 23  0  0  1  0  0  0  0  0999 V2000
   27.4890  -19.5028  -16.2934 N   0  0  0  0  0  0  0  0  0  0  0  0
   28.8554  -19.1527  -16.4298 C   0  0  0  0  0  0  0  0  0  0  0  0
   29.5110  -19.7339  -15.1946 C   0  0  0  0  0  0  0  0  0  0  0  0
   28.7658  -21.0603  -15.0633 C   0  0  0  0  0  0  0  0  0  0  0  0
   27.3372  -20.5902  -15.3500 C   0  0  1  0  0  0  0  0  0  0  0  0
   26.8165  -20.0367  -14.0850 C   0  0  0  0  0  0  0  0  0  0  0  0
   26.9795  -18.8200  -13.7987 O   0  0  0  0  0  0  0  0  0  0  0  0
   23.8052  -19.2995  -13.5650 C   0  0  0  0  0  0  0  0  0  0  0  0
   23.9118  -20.1799  -12.3420 C   0  0  1  0  0  0  0  0  0  0  0  0
   23.3125  -21.5420  -12.6118 C   0  0  0  0  0  0  0  0  0  0  0  0
   25.4076  -20.3112  -12.0304 C   0  0  2  0  0  0  0  0  0  0  0  0
   26.1169  -20.8643  -13.1634 N   0  0  0  0  0  0  0  0  0  0  0  0
   25.5700  -21.0627  -10.7779 C   0  0  0  0  0  0  0  0  0  0  0  0
   25.6146  -22.3405  -10.8007 O   0  0  0  0  0  0  0  0  0  0  0  0
   28.6270  -20.5403   -7.5483 C   0  0  0  0  0  0  0  0  0  0  0  0
   27.5043  -19.5495   -7.4729 C   0  0  2  0  0  0  0  0  0  0  0  0
   27.7760  -18.5542   -6.3716 C   0  0  0  0  0  0  0  0  0  0  0  0
   26.2012  -20.2114   -7.1741 C   0  0  0  0  0  0  0  0  0  0  0  0
   25.7435  -21.1924   -8.2420 C   0  0  2  0  0  0  0  0  0  0  0  0
   25.6839  -20.4626   -9.5028 N   0  0  0  0  0  0  0  0  0  0  0  0
   24.3761  -21.6092   -7.8514 C   0  0  0  0  0  0  0  0  0  0  0  0
   23.3336  -21.1840   -8.4080 O   0  0  0  0  0  0  0  0  0  0  0  0
   24.2578  -22.5333   -6.7995 O   0  0  0  0  0  0  0  0  0  0  0  0
  2  3  1  0
  2  1  1  0
  3  4  1  0
  4  5  1  0
  5  1  1  0
  5  6  1  1
  6 12  1  0
  6  7  2  0
  9  8  1  6
  9 11  1  0
  9 10  1  0
 11 13  1  0
 11 12  1  6
 13 14  2  0
 16 18  1  0
 16 15  1  1
 17 16  1  0
 19 18  1  1
 19 21  1  0
 20 19  1  0
 20 13  1  0
 21 23  1  0
 22 21  2  0
M  END
$$$$
