PVL.pdb
     RDKit          3D

 23 23  0  0  1  0  0  0  0  0999 V2000
   19.2507  -13.0310  -19.8915 N   0  0  0  0  0  0  0  0  0  0  0  0
   18.5831  -12.3810  -20.9592 C   0  0  0  0  0  0  0  0  0  0  0  0
   19.2603  -11.0296  -21.0504 C   0  0  0  0  0  0  0  0  0  0  0  0
   20.7151  -11.4118  -20.7874 C   0  0  0  0  0  0  0  0  0  0  0  0
   20.5245  -12.3954  -19.6297 C   0  0  1  0  0  0  0  0  0  0  0  0
   20.3933  -11.5815  -18.4057 C   0  0  0  0  0  0  0  0  0  0  0  0
   19.2573  -11.2547  -17.9680 O   0  0  0  0  0  0  0  0  0  0  0  0
   23.8339  -10.7820  -16.1237 C   0  0  0  0  0  0  0  0  0  0  0  0
   22.4926  -10.9234  -15.4432 C   0  0  1  0  0  0  0  0  0  0  0  0
   22.4451  -10.0926  -14.1804 C   0  0  0  0  0  0  0  0  0  0  0  0
   21.4430  -10.4263  -16.4447 C   0  0  2  0  0  0  0  0  0  0  0  0
   21.5464  -11.1512  -17.6923 N   0  0  0  0  0  0  0  0  0  0  0  0
   21.5578   -8.9666  -16.5714 C   0  0  0  0  0  0  0  0  0  0  0  0
   22.5593   -8.4550  -17.1798 O   0  0  0  0  0  0  0  0  0  0  0  0
   19.9996   -5.6962  -18.9907 C   0  0  0  0  0  0  0  0  0  0  0  0
   19.0336   -6.3835  -18.0730 C   0  0  2  0  0  0  0  0  0  0  0  0
   17.6330   -5.8932  -18.3476 C   0  0  0  0  0  0  0  0  0  0  0  0
   19.3382   -6.1051  -16.6395 C   0  0  0  0  0  0  0  0  0  0  0  0
   20.7027   -6.6005  -16.1868 C   0  0  2  0  0  0  0  0  0  0  0  0
   20.6144   -8.0497  -16.0535 N   0  0  0  0  0  0  0  0  0  0  0  0
   20.9313   -5.9982  -14.8522 C   0  0  0  0  0  0  0  0  0  0  0  0
   20.6236   -6.5616  -13.7728 O   0  0  0  0  0  0  0  0  0  0  0  0
   21.5280   -4.7267  -14.8106 O   0  0  0  0  0  0  0  0  0  0  0  0
  2  3  1  0
  2  1  1  0
  3  4  1  0
  4  5  1  0
  5  1  1  0
  5  6  1  1
  6 12  1  0
  6  7  2  0
  9  8  1  6
  9 11  1  0
  9 10  1  0
 11 13  1  0
 11 12  1  6
 13 14  2  0
 16 18  1  0
 16 15  1  6
 17 16  1  0
 19 18  1  1
 19 21  1  0
 20 19  1  0
 20 13  1  0
 21 23  1  0
 22 21  2  0
M  END
$$$$
