PVL.pdb
     RDKit          3D

 23 23  0  0  1  0  0  0  0  0999 V2000
   43.6906  -13.4398   -8.1088 N   0  0  0  0  0  0  0  0  0  0  0  0
   43.1234  -13.8340   -9.3462 C   0  0  0  0  0  0  0  0  0  0  0  0
   42.7256  -12.5288  -10.0029 C   0  0  0  0  0  0  0  0  0  0  0  0
   43.9004  -11.6342   -9.6138 C   0  0  0  0  0  0  0  0  0  0  0  0
   44.0697  -12.0434   -8.1482 C   0  0  1  0  0  0  0  0  0  0  0  0
   43.0740  -11.2712   -7.3799 C   0  0  0  0  0  0  0  0  0  0  0  0
   41.8428  -11.5175   -7.4906 O   0  0  0  0  0  0  0  0  0  0  0  0
   44.2944   -8.0440   -4.8353 C   0  0  0  0  0  0  0  0  0  0  0  0
   43.1627   -8.9582   -4.4286 C   0  0  1  0  0  0  0  0  0  0  0  0
   42.1400   -8.2073   -3.6056 C   0  0  0  0  0  0  0  0  0  0  0  0
   42.5271   -9.4672   -5.7282 C   0  0  2  0  0  0  0  0  0  0  0  0
   43.4834  -10.2345   -6.4960 N   0  0  0  0  0  0  0  0  0  0  0  0
   41.9336   -8.3307   -6.4463 C   0  0  0  0  0  0  0  0  0  0  0  0
   42.5668   -7.7856   -7.4143 O   0  0  0  0  0  0  0  0  0  0  0  0
   37.8478   -7.5078   -8.6302 C   0  0  0  0  0  0  0  0  0  0  0  0
   37.7800   -7.6361   -7.1380 C   0  0  2  0  0  0  0  0  0  0  0  0
   36.3535   -7.4662   -6.6761 C   0  0  0  0  0  0  0  0  0  0  0  0
   38.6042   -6.5970   -6.4552 C   0  0  0  0  0  0  0  0  0  0  0  0
   40.0784   -6.6303   -6.8266 C   0  0  2  0  0  0  0  0  0  0  0  0
   40.6720   -7.7709   -6.1394 N   0  0  0  0  0  0  0  0  0  0  0  0
   40.6607   -5.3774   -6.2907 C   0  0  0  0  0  0  0  0  0  0  0  0
   40.7723   -4.3204   -6.9596 O   0  0  0  0  0  0  0  0  0  0  0  0
   41.1060   -5.3900   -4.9580 O   0  0  0  0  0  0  0  0  0  0  0  0
  2  3  1  0
  2  1  1  0
  3  4  1  0
  4  5  1  0
  5  1  1  0
  5  6  1  1
  6 12  1  0
  6  7  2  0
  9  8  1  6
  9 11  1  0
  9 10  1  0
 11 13  1  0
 11 12  1  6
 13 14  2  0
 16 18  1  0
 16 15  1  6
 17 16  1  0
 19 18  1  1
 19 21  1  0
 20 19  1  0
 20 13  1  0
 21 23  1  0
 22 21  2  0
M  END
$$$$
