PVL.pdb
     RDKit          3D

 23 23  0  0  1  0  0  0  0  0999 V2000
   21.4516  -20.2665  -15.2109 N   0  0  0  0  0  0  0  0  0  0  0  0
   20.4025  -20.5631  -16.1162 C   0  0  0  0  0  0  0  0  0  0  0  0
   20.8362  -19.9092  -17.4115 C   0  0  0  0  0  0  0  0  0  0  0  0
   22.3359  -20.1965  -17.3977 C   0  0  0  0  0  0  0  0  0  0  0  0
   22.6499  -19.8907  -15.9308 C   0  0  1  0  0  0  0  0  0  0  0  0
   22.8094  -18.4269  -15.8328 C   0  0  0  0  0  0  0  0  0  0  0  0
   21.8042  -17.6760  -15.7112 O   0  0  0  0  0  0  0  0  0  0  0  0
   26.6277  -16.8017  -16.2577 C   0  0  0  0  0  0  0  0  0  0  0  0
   25.7343  -16.1129  -15.2530 C   0  0  1  0  0  0  0  0  0  0  0  0
   25.9814  -14.6209  -15.2543 C   0  0  0  0  0  0  0  0  0  0  0  0
   24.2914  -16.4116  -15.6783 C   0  0  2  0  0  0  0  0  0  0  0  0
   24.1013  -17.8328  -15.8705 N   0  0  0  0  0  0  0  0  0  0  0  0
   23.9569  -15.5839  -16.8456 C   0  0  0  0  0  0  0  0  0  0  0  0
   24.2722  -15.9787  -18.0203 O   0  0  0  0  0  0  0  0  0  0  0  0
   19.3122  -12.9688  -19.1709 C   0  0  0  0  0  0  0  0  0  0  0  0
   20.8027  -13.0760  -19.2928 C   0  0  2  0  0  0  0  0  0  0  0  0
   21.1589  -13.8051  -20.5651 C   0  0  0  0  0  0  0  0  0  0  0  0
   21.3980  -13.8340  -18.1542 C   0  0  0  0  0  0  0  0  0  0  0  0
   22.8729  -13.5473  -17.9205 C   0  0  2  0  0  0  0  0  0  0  0  0
   23.2904  -14.3392  -16.7697 N   0  0  0  0  0  0  0  0  0  0  0  0
   22.9582  -12.1072  -17.5819 C   0  0  0  0  0  0  0  0  0  0  0  0
   22.8183  -11.6568  -16.4179 O   0  0  0  0  0  0  0  0  0  0  0  0
   23.2119  -11.2100  -18.6331 O   0  0  0  0  0  0  0  0  0  0  0  0
  2  3  1  0
  2  1  1  0
  3  4  1  0
  4  5  1  0
  5  1  1  0
  5  6  1  6
  6 12  1  0
  6  7  2  0
  9  8  1  6
  9 11  1  0
  9 10  1  0
 11 13  1  0
 11 12  1  6
 13 14  2  0
 16 18  1  0
 16 15  1  1
 17 16  1  0
 19 18  1  1
 19 21  1  0
 20 19  1  0
 20 13  1  0
 21 23  1  0
 22 21  2  0
M  END
$$$$
