PVL.pdb
     RDKit          3D

 23 23  0  0  1  0  0  0  0  0999 V2000
   28.9241  -21.0436  -15.5368 N   0  0  0  0  0  0  0  0  0  0  0  0
   28.6549  -20.5085  -16.8211 C   0  0  0  0  0  0  0  0  0  0  0  0
   27.5511  -19.5006  -16.5776 C   0  0  0  0  0  0  0  0  0  0  0  0
   27.9963  -18.8928  -15.2493 C   0  0  0  0  0  0  0  0  0  0  0  0
   28.4173  -20.1632  -14.5056 C   0  0  1  0  0  0  0  0  0  0  0  0
   27.1825  -20.7557  -13.9562 C   0  0  0  0  0  0  0  0  0  0  0  0
   26.5023  -21.5718  -14.6346 O   0  0  0  0  0  0  0  0  0  0  0  0
   25.7693  -19.4755  -10.2043 C   0  0  0  0  0  0  0  0  0  0  0  0
   25.6311  -20.9455  -10.5242 C   0  0  1  0  0  0  0  0  0  0  0  0
   24.3649  -21.5067   -9.9169 C   0  0  0  0  0  0  0  0  0  0  0  0
   25.5791  -21.0542  -12.0531 C   0  0  2  0  0  0  0  0  0  0  0  0
   26.7355  -20.4205  -12.6480 N   0  0  0  0  0  0  0  0  0  0  0  0
   24.2861  -20.5390  -12.5245 C   0  0  0  0  0  0  0  0  0  0  0  0
   24.1236  -19.2824  -12.6973 O   0  0  0  0  0  0  0  0  0  0  0  0
   19.8474  -22.5621  -16.1669 C   0  0  0  0  0  0  0  0  0  0  0  0
   20.2763  -21.4853  -15.2159 C   0  0  2  0  0  0  0  0  0  0  0  0
   20.5616  -20.2152  -15.9793 C   0  0  0  0  0  0  0  0  0  0  0  0
   21.5182  -21.8599  -14.4792 C   0  0  0  0  0  0  0  0  0  0  0  0
   21.9170  -20.8742  -13.3922 C   0  0  2  0  0  0  0  0  0  0  0  0
   23.1659  -21.3526  -12.8116 N   0  0  0  0  0  0  0  0  0  0  0  0
   20.8448  -20.9396  -12.3713 C   0  0  0  0  0  0  0  0  0  0  0  0
   20.7258  -21.8793  -11.5466 O   0  0  0  0  0  0  0  0  0  0  0  0
   19.9197  -19.8825  -12.3370 O   0  0  0  0  0  0  0  0  0  0  0  0
  2  3  1  0
  2  1  1  0
  3  4  1  0
  4  5  1  0
  5  1  1  0
  5  6  1  6
  6 12  1  0
  6  7  2  0
  9  8  1  6
  9 11  1  0
  9 10  1  0
 11 13  1  0
 11 12  1  6
 13 14  2  0
 16 18  1  0
 16 15  1  6
 17 16  1  0
 19 18  1  6
 19 21  1  0
 20 19  1  0
 20 13  1  0
 21 23  1  0
 22 21  2  0
M  END
$$$$
