PVL.pdb
     RDKit          3D

 23 23  0  0  1  0  0  0  0  0999 V2000
   27.5942  -24.4798  -17.3387 N   0  0  0  0  0  0  0  0  0  0  0  0
   27.1181  -25.7342  -16.8826 C   0  0  0  0  0  0  0  0  0  0  0  0
   25.9273  -25.3843  -16.0150 C   0  0  0  0  0  0  0  0  0  0  0  0
   25.3049  -24.2434  -16.8167 C   0  0  0  0  0  0  0  0  0  0  0  0
   26.5690  -23.4678  -17.1972 C   0  0  1  0  0  0  0  0  0  0  0  0
   26.9083  -22.6238  -16.0351 C   0  0  0  0  0  0  0  0  0  0  0  0
   27.7755  -22.9964  -15.1996 O   0  0  0  0  0  0  0  0  0  0  0  0
   26.7500  -18.2199  -13.8950 C   0  0  0  0  0  0  0  0  0  0  0  0
   26.5708  -19.0364  -15.1533 C   0  0  1  0  0  0  0  0  0  0  0  0
   27.6828  -18.7504  -16.1376 C   0  0  0  0  0  0  0  0  0  0  0  0
   26.6078  -20.5084  -14.7248 C   0  0  2  0  0  0  0  0  0  0  0  0
   26.2659  -21.3704  -15.8352 N   0  0  0  0  0  0  0  0  0  0  0  0
   25.7658  -20.6799  -13.5326 C   0  0  0  0  0  0  0  0  0  0  0  0
   24.5052  -20.8523  -13.6601 O   0  0  0  0  0  0  0  0  0  0  0  0
   26.1178  -19.3187   -7.5410 C   0  0  0  0  0  0  0  0  0  0  0  0
   25.4211  -20.1454   -8.5796 C   0  0  2  0  0  0  0  0  0  0  0  0
   25.2667  -21.5623   -8.0838 C   0  0  0  0  0  0  0  0  0  0  0  0
   26.1907  -20.1935   -9.8566 C   0  0  0  0  0  0  0  0  0  0  0  0
   25.4359  -20.8295  -11.0133 C   0  0  2  0  0  0  0  0  0  0  0  0
   26.2574  -20.6675  -12.2070 N   0  0  0  0  0  0  0  0  0  0  0  0
   24.1889  -20.0435  -11.1658 C   0  0  0  0  0  0  0  0  0  0  0  0
   23.0704  -20.4239  -10.7399 O   0  0  0  0  0  0  0  0  0  0  0  0
   24.2816  -18.8056  -11.8242 O   0  0  0  0  0  0  0  0  0  0  0  0
  2  3  1  0
  2  1  1  0
  3  4  1  0
  4  5  1  0
  5  1  1  0
  5  6  1  1
  6 12  1  0
  6  7  2  0
  9  8  1  1
  9 11  1  0
  9 10  1  0
 11 13  1  0
 11 12  1  6
 13 14  2  0
 16 18  1  0
 16 15  1  1
 17 16  1  0
 19 18  1  1
 19 21  1  0
 20 19  1  0
 20 13  1  0
 21 23  1  0
 22 21  2  0
M  END
$$$$
