PVL.pdb
     RDKit          3D

 23 23  0  0  1  0  0  0  0  0999 V2000
   17.6615  -24.8186   -9.1672 N   0  0  0  0  0  0  0  0  0  0  0  0
   18.1814  -23.5344   -9.4649 C   0  0  0  0  0  0  0  0  0  0  0  0
   18.6731  -23.0161   -8.1296 C   0  0  0  0  0  0  0  0  0  0  0  0
   19.2684  -24.2850   -7.5233 C   0  0  0  0  0  0  0  0  0  0  0  0
   18.1812  -25.2940   -7.9026 C   0  0  1  0  0  0  0  0  0  0  0  0
   17.1180  -25.1658   -6.8872 C   0  0  0  0  0  0  0  0  0  0  0  0
   16.1571  -24.3681   -7.0578 O   0  0  0  0  0  0  0  0  0  0  0  0
   14.9537  -27.2508   -6.6150 C   0  0  0  0  0  0  0  0  0  0  0  0
   15.1623  -27.2486   -5.1188 C   0  0  1  0  0  0  0  0  0  0  0  0
   15.8740  -28.5081   -4.6777 C   0  0  0  0  0  0  0  0  0  0  0  0
   16.0191  -26.0169   -4.8015 C   0  0  2  0  0  0  0  0  0  0  0  0
   17.1539  -25.9422   -5.6958 N   0  0  0  0  0  0  0  0  0  0  0  0
   16.3632  -26.0299   -3.3728 C   0  0  0  0  0  0  0  0  0  0  0  0
   17.4628  -26.5548   -2.9852 O   0  0  0  0  0  0  0  0  0  0  0  0
   16.8109  -22.8975    0.3290 C   0  0  0  0  0  0  0  0  0  0  0  0
   15.4818  -23.0471   -0.3483 C   0  0  2  0  0  0  0  0  0  0  0  0
   14.4655  -22.1546    0.3208 C   0  0  0  0  0  0  0  0  0  0  0  0
   14.9755  -24.4481   -0.2705 C   0  0  0  0  0  0  0  0  0  0  0  0
   15.8795  -25.4733   -0.9368 C   0  0  2  0  0  0  0  0  0  0  0  0
   15.5436  -25.4890   -2.3555 N   0  0  0  0  0  0  0  0  0  0  0  0
   15.5250  -26.7800   -0.3344 C   0  0  0  0  0  0  0  0  0  0  0  0
   16.0111  -27.2041    0.7431 O   0  0  0  0  0  0  0  0  0  0  0  0
   14.5902  -27.5750   -1.0191 O   0  0  0  0  0  0  0  0  0  0  0  0
  2  3  1  0
  2  1  1  0
  3  4  1  0
  4  5  1  0
  5  1  1  0
  5  6  1  1
  6 12  1  0
  6  7  2  0
  9  8  1  6
  9 11  1  0
  9 10  1  0
 11 13  1  0
 11 12  1  6
 13 14  2  0
 16 18  1  0
 16 15  1  1
 17 16  1  0
 19 18  1  1
 19 21  1  0
 20 19  1  0
 20 13  1  0
 21 23  1  0
 22 21  2  0
M  END
$$$$
