PVL.pdb
     RDKit          3D

 23 23  0  0  1  0  0  0  0  0999 V2000
   22.7789  -20.7218  -13.7413 N   0  0  0  0  0  0  0  0  0  0  0  0
   21.5697  -21.4572  -13.8126 C   0  0  0  0  0  0  0  0  0  0  0  0
   21.1194  -21.5688  -12.3710 C   0  0  0  0  0  0  0  0  0  0  0  0
   21.4874  -20.1849  -11.8405 C   0  0  0  0  0  0  0  0  0  0  0  0
   22.8675  -20.0149  -12.4812 C   0  0  1  0  0  0  0  0  0  0  0  0
   23.8230  -20.7315  -11.6143 C   0  0  0  0  0  0  0  0  0  0  0  0
   23.6074  -21.9233  -11.2652 O   0  0  0  0  0  0  0  0  0  0  0  0
   27.0392  -21.7721  -12.2759 C   0  0  0  0  0  0  0  0  0  0  0  0
   27.3102  -20.9291  -11.0519 C   0  0  1  0  0  0  0  0  0  0  0  0
   27.8440  -19.5706  -11.4476 C   0  0  0  0  0  0  0  0  0  0  0  0
   25.9698  -20.7799  -10.3218 C   0  0  2  0  0  0  0  0  0  0  0  0
   25.0090  -20.0929  -11.1571 N   0  0  0  0  0  0  0  0  0  0  0  0
   26.2059  -20.1526   -9.0140 C   0  0  0  0  0  0  0  0  0  0  0  0
   25.9488  -18.9115   -8.8449 O   0  0  0  0  0  0  0  0  0  0  0  0
   27.3136  -19.8639   -3.8018 C   0  0  0  0  0  0  0  0  0  0  0  0
   28.3145  -20.7475   -4.4838 C   0  0  2  0  0  0  0  0  0  0  0  0
   29.5794  -19.9704   -4.7545 C   0  0  0  0  0  0  0  0  0  0  0  0
   27.8054  -21.2541   -5.7913 C   0  0  0  0  0  0  0  0  0  0  0  0
   27.0886  -20.2055   -6.6273 C   0  0  2  0  0  0  0  0  0  0  0  0
   26.7148  -20.8379   -7.8868 N   0  0  0  0  0  0  0  0  0  0  0  0
   28.0874  -19.1427   -6.8895 C   0  0  0  0  0  0  0  0  0  0  0  0
   29.0493  -19.2734   -7.6863 O   0  0  0  0  0  0  0  0  0  0  0  0
   27.9335  -17.9272   -6.2015 O   0  0  0  0  0  0  0  0  0  0  0  0
  2  3  1  0
  2  1  1  0
  3  4  1  0
  4  5  1  0
  5  1  1  0
  5  6  1  1
  6 12  1  0
  6  7  2  0
  9  8  1  6
  9 11  1  0
  9 10  1  0
 11 13  1  0
 11 12  1  6
 13 14  2  0
 16 18  1  0
 16 15  1  6
 17 16  1  0
 19 18  1  1
 19 21  1  0
 20 19  1  0
 20 13  1  0
 21 23  1  0
 22 21  2  0
M  END
$$$$
