PVL.pdb
     RDKit          3D

 23 23  0  0  1  0  0  0  0  0999 V2000
   32.0989  -16.9956  -19.1835 N   0  0  0  0  0  0  0  0  0  0  0  0
   33.2180  -17.5444  -19.8576 C   0  0  0  0  0  0  0  0  0  0  0  0
   32.7292  -18.8905  -20.3500 C   0  0  0  0  0  0  0  0  0  0  0  0
   31.3021  -18.5483  -20.7720 C   0  0  0  0  0  0  0  0  0  0  0  0
   30.8829  -17.6652  -19.5936 C   0  0  1  0  0  0  0  0  0  0  0  0
   30.4697  -18.5794  -18.5113 C   0  0  0  0  0  0  0  0  0  0  0  0
   31.3113  -19.0168  -17.6811 O   0  0  0  0  0  0  0  0  0  0  0  0
   26.3825  -19.5460  -18.0672 C   0  0  0  0  0  0  0  0  0  0  0  0
   27.2735  -19.5090  -16.8478 C   0  0  1  0  0  0  0  0  0  0  0  0
   26.7983  -20.5009  -15.8098 C   0  0  0  0  0  0  0  0  0  0  0  0
   28.6824  -19.8783  -17.3280 C   0  0  2  0  0  0  0  0  0  0  0  0
   29.1121  -18.9836  -18.3805 N   0  0  0  0  0  0  0  0  0  0  0  0
   28.7065  -21.3035  -17.6856 C   0  0  0  0  0  0  0  0  0  0  0  0
   28.2996  -21.6801  -18.8378 O   0  0  0  0  0  0  0  0  0  0  0  0
   32.2693  -24.1751  -17.4893 C   0  0  0  0  0  0  0  0  0  0  0  0
   31.5895  -23.8909  -16.1836 C   0  0  2  0  0  0  0  0  0  0  0  0
   32.3338  -24.5735  -15.0623 C   0  0  0  0  0  0  0  0  0  0  0  0
   30.1858  -24.3957  -16.1690 C   0  0  0  0  0  0  0  0  0  0  0  0
   29.2771  -23.7346  -17.1934 C   0  0  2  0  0  0  0  0  0  0  0  0
   29.1597  -22.3290  -16.8241 N   0  0  0  0  0  0  0  0  0  0  0  0
   27.9567  -24.3915  -17.0492 C   0  0  0  0  0  0  0  0  0  0  0  0
   27.6191  -25.4215  -17.6835 O   0  0  0  0  0  0  0  0  0  0  0  0
   27.0446  -23.8180  -16.1471 O   0  0  0  0  0  0  0  0  0  0  0  0
  2  3  1  0
  2  1  1  0
  3  4  1  0
  4  5  1  0
  5  1  1  0
  5  6  1  1
  6 12  1  0
  6  7  2  0
  9  8  1  6
  9 11  1  0
  9 10  1  0
 11 13  1  0
 11 12  1  6
 13 14  2  0
 16 18  1  0
 16 15  1  6
 17 16  1  0
 19 18  1  1
 19 21  1  0
 20 19  1  0
 20 13  1  0
 21 23  1  0
 22 21  2  0
M  END
$$$$
