PVL.pdb
     RDKit          3D

 23 23  0  0  1  0  0  0  0  0999 V2000
   26.8481  -19.1224  -15.6930 N   0  0  0  0  0  0  0  0  0  0  0  0
   28.0641  -18.4770  -16.0295 C   0  0  0  0  0  0  0  0  0  0  0  0
   29.0075  -18.8582  -14.9078 C   0  0  0  0  0  0  0  0  0  0  0  0
   28.6112  -20.3140  -14.6727 C   0  0  0  0  0  0  0  0  0  0  0  0
   27.0869  -20.1873  -14.7421 C   0  0  1  0  0  0  0  0  0  0  0  0
   26.6438  -19.7281  -13.4114 C   0  0  0  0  0  0  0  0  0  0  0  0
   26.6610  -18.5034  -13.1138 O   0  0  0  0  0  0  0  0  0  0  0  0
   23.4731  -19.7762  -12.3216 C   0  0  0  0  0  0  0  0  0  0  0  0
   24.0879  -20.5436  -11.1748 C   0  0  1  0  0  0  0  0  0  0  0  0
   23.8672  -22.0297  -11.3484 C   0  0  0  0  0  0  0  0  0  0  0  0
   25.5878  -20.2248  -11.1933 C   0  0  2  0  0  0  0  0  0  0  0  0
   26.1849  -20.6581  -12.4377 N   0  0  0  0  0  0  0  0  0  0  0  0
   26.2100  -20.7856   -9.9857 C   0  0  0  0  0  0  0  0  0  0  0  0
   26.5966  -22.0044   -9.9734 O   0  0  0  0  0  0  0  0  0  0  0  0
   28.2199  -18.6657   -4.4973 C   0  0  0  0  0  0  0  0  0  0  0  0
   27.9805  -19.8568   -5.3758 C   0  0  2  0  0  0  0  0  0  0  0  0
   29.2729  -20.6093   -5.5776 C   0  0  0  0  0  0  0  0  0  0  0  0
   27.4729  -19.4593   -6.7210 C   0  0  0  0  0  0  0  0  0  0  0  0
   26.9591  -20.6195   -7.5590 C   0  0  2  0  0  0  0  0  0  0  0  0
   26.4214  -20.0576   -8.7923 N   0  0  0  0  0  0  0  0  0  0  0  0
   25.8580  -21.2293   -6.7769 C   0  0  0  0  0  0  0  0  0  0  0  0
   26.0362  -22.0851   -5.8752 O   0  0  0  0  0  0  0  0  0  0  0  0
   24.5485  -20.8141   -7.0723 O   0  0  0  0  0  0  0  0  0  0  0  0
  2  3  1  0
  2  1  1  0
  3  4  1  0
  4  5  1  0
  5  1  1  0
  5  6  1  1
  6 12  1  0
  6  7  2  0
  9  8  1  6
  9 11  1  0
  9 10  1  0
 11 13  1  0
 11 12  1  6
 13 14  2  0
 16 18  1  0
 16 15  1  1
 17 16  1  0
 19 18  1  1
 19 21  1  0
 20 19  1  0
 20 13  1  0
 21 23  1  0
 22 21  2  0
M  END
$$$$
