PVL.pdb
     RDKit          3D

 23 23  0  0  1  0  0  0  0  0999 V2000
   25.7844  -22.8436  -16.8266 N   0  0  0  0  0  0  0  0  0  0  0  0
   26.8010  -23.6525  -17.3927 C   0  0  0  0  0  0  0  0  0  0  0  0
   27.3951  -24.3834  -16.2068 C   0  0  0  0  0  0  0  0  0  0  0  0
   26.1418  -24.6781  -15.3857 C   0  0  0  0  0  0  0  0  0  0  0  0
   25.4196  -23.3342  -15.5146 C   0  0  1  0  0  0  0  0  0  0  0  0
   26.0154  -22.4397  -14.5033 C   0  0  0  0  0  0  0  0  0  0  0  0
   27.1932  -22.0109  -14.6365 O   0  0  0  0  0  0  0  0  0  0  0  0
   24.8798  -19.2731  -14.0665 C   0  0  0  0  0  0  0  0  0  0  0  0
   24.7652  -19.7531  -12.6387 C   0  0  1  0  0  0  0  0  0  0  0  0
   23.3444  -20.1675  -12.3278 C   0  0  0  0  0  0  0  0  0  0  0  0
   25.7087  -20.9550  -12.5075 C   0  0  2  0  0  0  0  0  0  0  0  0
   25.2717  -22.0403  -13.3583 N   0  0  0  0  0  0  0  0  0  0  0  0
   25.8419  -21.3044  -11.0862 C   0  0  0  0  0  0  0  0  0  0  0  0
   25.2430  -22.3347  -10.6228 O   0  0  0  0  0  0  0  0  0  0  0  0
   26.8808  -19.7492   -5.8695 C   0  0  0  0  0  0  0  0  0  0  0  0
   28.0529  -20.1658   -6.7064 C   0  0  2  0  0  0  0  0  0  0  0  0
   29.2622  -19.3429   -6.3354 C   0  0  0  0  0  0  0  0  0  0  0  0
   27.7947  -19.9612   -8.1613 C   0  0  0  0  0  0  0  0  0  0  0  0
   26.7331  -20.8837   -8.7396 C   0  0  2  0  0  0  0  0  0  0  0  0
   26.6069  -20.5633  -10.1564 N   0  0  0  0  0  0  0  0  0  0  0  0
   25.4712  -20.5372   -8.0441 C   0  0  0  0  0  0  0  0  0  0  0  0
   24.7728  -19.5331   -8.3292 O   0  0  0  0  0  0  0  0  0  0  0  0
   25.0465  -21.3912   -7.0123 O   0  0  0  0  0  0  0  0  0  0  0  0
  2  3  1  0
  2  1  1  0
  3  4  1  0
  4  5  1  0
  5  1  1  0
  5  6  1  1
  6 12  1  0
  6  7  2  0
  9  8  1  6
  9 11  1  0
  9 10  1  0
 11 13  1  0
 11 12  1  6
 13 14  2  0
 16 18  1  0
 16 15  1  1
 17 16  1  0
 19 18  1  1
 19 21  1  0
 20 19  1  0
 20 13  1  0
 21 23  1  0
 22 21  2  0
M  END
$$$$
