PVL.pdb
     RDKit          3D

 23 23  0  0  1  0  0  0  0  0999 V2000
   24.1967  -14.3724  -17.3018 N   0  0  0  0  0  0  0  0  0  0  0  0
   25.5361  -14.3980  -16.8397 C   0  0  0  0  0  0  0  0  0  0  0  0
   25.5767  -13.3319  -15.7650 C   0  0  0  0  0  0  0  0  0  0  0  0
   24.2209  -13.5397  -15.0938 C   0  0  0  0  0  0  0  0  0  0  0  0
   23.3392  -13.7253  -16.3317 C   0  0  1  0  0  0  0  0  0  0  0  0
   23.0201  -12.3717  -16.8254 C   0  0  0  0  0  0  0  0  0  0  0  0
   23.8319  -11.7453  -17.5585 O   0  0  0  0  0  0  0  0  0  0  0  0
   20.0285  -12.1571  -18.2060 C   0  0  0  0  0  0  0  0  0  0  0  0
   20.1706  -10.6702  -17.9805 C   0  0  1  0  0  0  0  0  0  0  0  0
   18.9319  -10.1106  -17.3174 C   0  0  0  0  0  0  0  0  0  0  0  0
   21.3898  -10.4836  -17.0691 C   0  0  2  0  0  0  0  0  0  0  0  0
   21.7879  -11.7467  -16.4868 N   0  0  0  0  0  0  0  0  0  0  0  0
   21.0995   -9.4226  -16.0946 C   0  0  0  0  0  0  0  0  0  0  0  0
   20.4323   -9.6912  -15.0374 O   0  0  0  0  0  0  0  0  0  0  0  0
   22.1640   -3.3011  -15.6299 C   0  0  0  0  0  0  0  0  0  0  0  0
   21.7056   -4.5531  -14.9443 C   0  0  2  0  0  0  0  0  0  0  0  0
   22.4669   -4.7357  -13.6542 C   0  0  0  0  0  0  0  0  0  0  0  0
   21.9418   -5.7627  -15.7849 C   0  0  0  0  0  0  0  0  0  0  0  0
   21.2608   -7.0205  -15.2689 C   0  0  2  0  0  0  0  0  0  0  0  0
   21.5137   -8.0786  -16.2397 N   0  0  0  0  0  0  0  0  0  0  0  0
   19.8108   -6.7157  -15.2422 C   0  0  0  0  0  0  0  0  0  0  0  0
   19.0878   -6.6836  -16.2685 O   0  0  0  0  0  0  0  0  0  0  0  0
   19.2287   -6.4521  -13.9907 O   0  0  0  0  0  0  0  0  0  0  0  0
  2  3  1  0
  2  1  1  0
  3  4  1  0
  4  5  1  0
  5  1  1  0
  5  6  1  6
  6 12  1  0
  6  7  2  0
  9  8  1  1
  9 11  1  0
  9 10  1  0
 11 13  1  0
 11 12  1  1
 13 14  2  0
 16 18  1  0
 16 15  1  6
 17 16  1  0
 19 18  1  6
 19 21  1  0
 20 19  1  0
 20 13  1  0
 21 23  1  0
 22 21  2  0
M  END
$$$$
