PVL.pdb
     RDKit          3D

 23 23  0  0  1  0  0  0  0  0999 V2000
   28.1237  -21.6497  -17.9605 N   0  0  0  0  0  0  0  0  0  0  0  0
   29.1608  -22.5795  -18.2217 C   0  0  0  0  0  0  0  0  0  0  0  0
   29.1911  -23.4558  -16.9870 C   0  0  0  0  0  0  0  0  0  0  0  0
   27.7002  -23.5897  -16.6853 C   0  0  0  0  0  0  0  0  0  0  0  0
   27.2535  -22.1433  -16.9144 C   0  0  1  0  0  0  0  0  0  0  0  0
   27.5597  -21.4085  -15.6718 C   0  0  0  0  0  0  0  0  0  0  0  0
   28.7391  -21.0491  -15.4099 O   0  0  0  0  0  0  0  0  0  0  0  0
   26.6792  -18.1824  -14.9282 C   0  0  0  0  0  0  0  0  0  0  0  0
   26.0282  -18.8971  -13.7673 C   0  0  1  0  0  0  0  0  0  0  0  0
   24.5631  -19.1459  -14.0481 C   0  0  0  0  0  0  0  0  0  0  0  0
   26.7707  -20.2292  -13.6058 C   0  0  2  0  0  0  0  0  0  0  0  0
   26.5294  -21.0877  -14.7449 N   0  0  0  0  0  0  0  0  0  0  0  0
   26.4167  -20.8185  -12.3069 C   0  0  0  0  0  0  0  0  0  0  0  0
   25.6207  -21.8179  -12.2544 O   0  0  0  0  0  0  0  0  0  0  0  0
   25.7235  -21.1828   -7.1932 C   0  0  0  0  0  0  0  0  0  0  0  0
   27.1072  -20.6198   -7.3195 C   0  0  2  0  0  0  0  0  0  0  0  0
   27.2338  -19.3821   -6.4655 C   0  0  0  0  0  0  0  0  0  0  0  0
   27.4216  -20.2340   -8.7258 C   0  0  0  0  0  0  0  0  0  0  0  0
   26.5308  -20.8957   -9.7655 C   0  0  2  0  0  0  0  0  0  0  0  0
   26.9035  -20.3497  -11.0650 N   0  0  0  0  0  0  0  0  0  0  0  0
   25.1465  -20.4806   -9.4378 C   0  0  0  0  0  0  0  0  0  0  0  0
   24.6869  -19.3375   -9.6816 O   0  0  0  0  0  0  0  0  0  0  0  0
   24.3151  -21.4316   -8.8221 O   0  0  0  0  0  0  0  0  0  0  0  0
  2  3  1  0
  2  1  1  0
  3  4  1  0
  4  5  1  0
  5  1  1  0
  5  6  1  1
  6 12  1  0
  6  7  2  0
  9  8  1  6
  9 11  1  0
  9 10  1  0
 11 13  1  0
 11 12  1  6
 13 14  2  0
 16 18  1  0
 16 15  1  6
 17 16  1  0
 19 18  1  1
 19 21  1  0
 20 19  1  0
 20 13  1  0
 21 23  1  0
 22 21  2  0
M  END
$$$$
