PVL.pdb
     RDKit          3D

 23 23  0  0  1  0  0  0  0  0999 V2000
   18.0131  -12.6038  -17.6108 N   0  0  0  0  0  0  0  0  0  0  0  0
   16.7864  -12.0099  -17.9989 C   0  0  0  0  0  0  0  0  0  0  0  0
   17.1468  -10.5656  -18.2776 C   0  0  0  0  0  0  0  0  0  0  0  0
   18.5059  -10.7276  -18.9548 C   0  0  0  0  0  0  0  0  0  0  0  0
   19.1288  -11.7906  -18.0459 C   0  0  1  0  0  0  0  0  0  0  0  0
   19.6663  -11.0754  -16.8722 C   0  0  0  0  0  0  0  0  0  0  0  0
   18.9151  -10.7592  -15.9108 O   0  0  0  0  0  0  0  0  0  0  0  0
   23.8220  -10.6243  -16.5018 C   0  0  0  0  0  0  0  0  0  0  0  0
   22.9564  -10.7158  -15.2671 C   0  0  1  0  0  0  0  0  0  0  0  0
   23.5883   -9.9654  -14.1161 C   0  0  0  0  0  0  0  0  0  0  0  0
   21.6077  -10.0851  -15.6344 C   0  0  2  0  0  0  0  0  0  0  0  0
   21.0446  -10.7306  -16.8001 N   0  0  0  0  0  0  0  0  0  0  0  0
   21.7793   -8.6310  -15.7606 C   0  0  0  0  0  0  0  0  0  0  0  0
   22.2226   -8.1322  -16.8513 O   0  0  0  0  0  0  0  0  0  0  0  0
   18.7982   -3.6529  -15.0468 C   0  0  0  0  0  0  0  0  0  0  0  0
   20.1994   -4.1858  -15.0656 C   0  0  2  0  0  0  0  0  0  0  0  0
   20.8602   -3.8359  -16.3764 C   0  0  0  0  0  0  0  0  0  0  0  0
   20.2288   -5.6707  -14.9254 C   0  0  0  0  0  0  0  0  0  0  0  0
   21.6285   -6.2598  -14.8480 C   0  0  2  0  0  0  0  0  0  0  0  0
   21.4832   -7.7060  -14.7330 N   0  0  0  0  0  0  0  0  0  0  0  0
   22.2255   -5.7262  -13.6011 C   0  0  0  0  0  0  0  0  0  0  0  0
   22.1143   -6.2851  -12.4819 O   0  0  0  0  0  0  0  0  0  0  0  0
   22.9545   -4.5285  -13.6946 O   0  0  0  0  0  0  0  0  0  0  0  0
  2  3  1  0
  2  1  1  0
  3  4  1  0
  4  5  1  0
  5  1  1  0
  5  6  1  1
  6 12  1  0
  6  7  2  0
  9  8  1  6
  9 11  1  0
  9 10  1  0
 11 13  1  0
 11 12  1  6
 13 14  2  0
 16 18  1  0
 16 15  1  6
 17 16  1  0
 19 18  1  1
 19 21  1  0
 20 19  1  0
 20 13  1  0
 21 23  1  0
 22 21  2  0
M  END
$$$$
