NTW.pdb
     RDKit          3D

 30 31  0  0  1  0  0  0  0  0999 V2000
   20.2726  -19.7289  -13.9251 N   0  0  0  0  0  0  0  0  0  0  0  0
   21.3282  -19.7225  -14.8690 C   0  0  0  0  0  0  0  0  0  0  0  0
   21.2255  -19.0169  -15.8910 O   0  0  0  0  0  0  0  0  0  0  0  0
   22.5097  -20.5362  -14.6310 C   0  0  0  0  0  0  0  0  0  0  0  0
   23.4692  -20.0657  -13.6034 C   0  0  2  0  0  0  0  0  0  0  0  0
   23.8335  -18.6832  -13.9379 N   0  0  0  0  0  0  0  0  0  0  0  0
   24.6482  -20.8970  -13.3624 C   0  0  0  0  0  0  0  0  0  0  0  0
   24.6734  -22.1516  -13.4322 O   0  0  0  0  0  0  0  0  0  0  0  0
   28.3818  -20.1622  -14.6255 C   0  0  0  0  0  0  0  0  0  0  0  0
   28.3141  -20.3757  -13.1494 C   0  0  1  0  0  0  0  0  0  0  0  0
   28.4114  -19.1191  -12.5277 O   0  0  0  0  0  0  0  0  0  0  0  0
   27.0887  -21.1068  -12.6895 C   0  0  2  0  0  0  0  0  0  0  0  0
   25.9329  -20.3329  -13.0105 N   0  0  0  0  0  0  0  0  0  0  0  0
   27.2053  -21.4630  -11.2620 C   0  0  0  0  0  0  0  0  0  0  0  0
   28.3075  -21.9261  -10.8679 O   0  0  0  0  0  0  0  0  0  0  0  0
   26.1850  -21.3297  -10.2966 N   0  0  0  0  0  0  0  0  0  0  0  0
   26.4699  -21.0518   -8.8811 C   0  0  1  0  0  0  0  0  0  0  0  0
   27.3433  -19.8758   -8.7250 C   0  0  0  0  0  0  0  0  0  0  0  0
   27.5493  -19.5101   -7.3182 C   0  0  0  0  0  0  0  0  0  0  0  0
   26.8300  -18.5383   -6.5998 C   0  0  0  0  0  0  0  0  0  0  0  0
   27.3201  -18.4386   -5.3529 N   0  0  0  0  0  0  0  0  0  0  0  0
   28.3369  -19.2972   -5.1921 C   0  0  0  0  0  0  0  0  0  0  0  0
   29.1338  -19.5695   -4.0908 C   0  0  0  0  0  0  0  0  0  0  0  0
   30.1153  -20.5282   -4.1601 C   0  0  0  0  0  0  0  0  0  0  0  0
   30.2565  -21.1865   -5.3609 C   0  0  0  0  0  0  0  0  0  0  0  0
   29.4737  -20.9258   -6.4598 C   0  0  0  0  0  0  0  0  0  0  0  0
   28.4834  -19.9594   -6.3951 C   0  0  0  0  0  0  0  0  0  0  0  0
   25.1998  -20.9808   -8.1703 C   0  0  0  0  0  0  0  0  0  0  0  0
   24.1033  -20.6560   -8.6854 O   0  0  0  0  0  0  0  0  0  0  0  0
   25.1284  -21.2889   -6.7959 O   0  0  0  0  0  0  0  0  0  0  0  0
  1  2  1  0
  2  3  2  0
  4  5  1  0
  4  2  1  0
  5  7  1  0
  5  6  1  6
  7  8  2  0
 10  9  1  6
 10 11  1  0
 10 12  1  0
 12 13  1  1
 13  7  1  0
 14 15  2  0
 14 12  1  0
 16 14  1  0
 17 16  1  0
 17 28  1  0
 17 18  1  6
 19 27  1  0
 19 18  1  0
 20 19  2  0
 21 20  1  0
 21 22  1  0
 22 27  2  0
 23 22  1  0
 23 24  2  0
 24 25  1  0
 25 26  2  0
 27 26  1  0
 28 29  2  0
 28 30  1  0
M  END
$$$$
