NTW.pdb
     RDKit          3D

 30 31  0  0  1  0  0  0  0  0999 V2000
   25.0084  -27.1937  -16.7441 N   0  0  0  0  0  0  0  0  0  0  0  0
   24.3674  -25.9712  -16.4285 C   0  0  0  0  0  0  0  0  0  0  0  0
   23.1691  -25.8166  -16.7339 O   0  0  0  0  0  0  0  0  0  0  0  0
   25.1148  -24.9206  -15.7559 C   0  0  0  0  0  0  0  0  0  0  0  0
   25.5773  -23.7764  -16.5772 C   0  0  2  0  0  0  0  0  0  0  0  0
   26.6295  -24.2715  -17.4736 N   0  0  0  0  0  0  0  0  0  0  0  0
   25.9925  -22.5689  -15.8639 C   0  0  0  0  0  0  0  0  0  0  0  0
   26.5876  -21.5918  -16.3841 O   0  0  0  0  0  0  0  0  0  0  0  0
   25.2889  -19.9021  -15.8794 C   0  0  0  0  0  0  0  0  0  0  0  0
   24.9913  -20.1216  -14.4329 C   0  0  1  0  0  0  0  0  0  0  0  0
   23.6388  -20.4869  -14.3221 O   0  0  0  0  0  0  0  0  0  0  0  0
   25.8753  -21.1350  -13.7702 C   0  0  2  0  0  0  0  0  0  0  0  0
   25.7483  -22.3839  -14.4501 N   0  0  0  0  0  0  0  0  0  0  0  0
   25.5932  -21.1987  -12.3230 C   0  0  0  0  0  0  0  0  0  0  0  0
   24.6923  -21.9911  -11.9420 O   0  0  0  0  0  0  0  0  0  0  0  0
   26.2472  -20.4456  -11.3251 N   0  0  0  0  0  0  0  0  0  0  0  0
   26.1589  -20.7836   -9.8968 C   0  0  1  0  0  0  0  0  0  0  0  0
   27.2079  -20.1074   -9.1142 C   0  0  0  0  0  0  0  0  0  0  0  0
   27.0324  -20.2828   -7.6673 C   0  0  0  0  0  0  0  0  0  0  0  0
   26.0428  -21.0607   -7.0399 C   0  0  0  0  0  0  0  0  0  0  0  0
   26.1558  -20.9514   -5.7057 N   0  0  0  0  0  0  0  0  0  0  0  0
   27.1755  -20.1370   -5.3992 C   0  0  0  0  0  0  0  0  0  0  0  0
   27.6861  -19.7382   -4.1735 C   0  0  0  0  0  0  0  0  0  0  0  0
   28.7737  -18.9013   -4.1101 C   0  0  0  0  0  0  0  0  0  0  0  0
   29.3130  -18.4922   -5.3088 C   0  0  0  0  0  0  0  0  0  0  0  0
   28.8163  -18.8797   -6.5300 C   0  0  0  0  0  0  0  0  0  0  0  0
   27.7192  -19.7226   -6.5991 C   0  0  0  0  0  0  0  0  0  0  0  0
   24.7936  -20.5287   -9.4560 C   0  0  0  0  0  0  0  0  0  0  0  0
   24.0920  -19.5520   -9.8125 O   0  0  0  0  0  0  0  0  0  0  0  0
   24.1526  -21.4093   -8.5600 O   0  0  0  0  0  0  0  0  0  0  0  0
  1  2  1  0
  2  3  2  0
  4  5  1  0
  4  2  1  0
  5  7  1  0
  5  6  1  1
  7  8  2  0
 10  9  1  6
 10 11  1  0
 10 12  1  0
 12 13  1  6
 13  7  1  0
 14 15  2  0
 14 12  1  0
 16 14  1  0
 17 16  1  0
 17 28  1  0
 17 18  1  1
 19 27  1  0
 19 18  1  0
 20 19  2  0
 21 20  1  0
 21 22  1  0
 22 27  2  0
 23 22  1  0
 23 24  2  0
 24 25  1  0
 25 26  2  0
 27 26  1  0
 28 29  2  0
 28 30  1  0
M  END
$$$$
