NTW.pdb
     RDKit          3D

 30 31  0  0  1  0  0  0  0  0999 V2000
   29.3812  -20.0538  -18.5524 N   0  0  0  0  0  0  0  0  0  0  0  0
   28.4013  -19.5015  -17.6922 C   0  0  0  0  0  0  0  0  0  0  0  0
   28.3308  -18.2636  -17.5666 O   0  0  0  0  0  0  0  0  0  0  0  0
   27.4972  -20.3843  -16.9725 C   0  0  0  0  0  0  0  0  0  0  0  0
   27.3644  -20.1833  -15.5097 C   0  0  2  0  0  0  0  0  0  0  0  0
   28.7132  -20.2337  -14.9317 N   0  0  0  0  0  0  0  0  0  0  0  0
   26.4335  -21.0591  -14.7986 C   0  0  0  0  0  0  0  0  0  0  0  0
   26.6558  -22.2599  -14.5017 O   0  0  0  0  0  0  0  0  0  0  0  0
   26.4907  -21.9977  -12.3845 C   0  0  0  0  0  0  0  0  0  0  0  0
   25.0846  -21.5458  -12.1656 C   0  0  1  0  0  0  0  0  0  0  0  0
   25.1238  -20.3815  -11.3797 O   0  0  0  0  0  0  0  0  0  0  0  0
   24.3099  -21.3135  -13.4279 C   0  0  2  0  0  0  0  0  0  0  0  0
   25.1311  -20.6085  -14.3589 N   0  0  0  0  0  0  0  0  0  0  0  0
   23.0235  -20.6542  -13.1304 C   0  0  0  0  0  0  0  0  0  0  0  0
   23.0598  -19.5830  -12.4702 O   0  0  0  0  0  0  0  0  0  0  0  0
   21.7513  -21.1216  -13.5224 N   0  0  0  0  0  0  0  0  0  0  0  0
   20.5176  -20.3665  -13.2583 C   0  0  1  0  0  0  0  0  0  0  0  0
   20.5714  -19.0175  -13.8476 C   0  0  0  0  0  0  0  0  0  0  0  0
   20.8472  -19.0433  -15.2893 C   0  0  0  0  0  0  0  0  0  0  0  0
   20.9002  -20.1889  -16.1034 C   0  0  0  0  0  0  0  0  0  0  0  0
   21.2229  -19.8400  -17.3599 N   0  0  0  0  0  0  0  0  0  0  0  0
   21.3903  -18.5122  -17.4362 C   0  0  0  0  0  0  0  0  0  0  0  0
   21.7049  -17.6938  -18.5101 C   0  0  0  0  0  0  0  0  0  0  0  0
   21.7994  -16.3331  -18.3460 C   0  0  0  0  0  0  0  0  0  0  0  0
   21.5683  -15.8430  -17.0804 C   0  0  0  0  0  0  0  0  0  0  0  0
   21.2562  -16.6431  -16.0077 C   0  0  0  0  0  0  0  0  0  0  0  0
   21.1608  -18.0157  -16.1681 C   0  0  0  0  0  0  0  0  0  0  0  0
   19.3882  -21.1843  -13.6812 C   0  0  0  0  0  0  0  0  0  0  0  0
   18.1846  -20.9346  -13.4317 O   0  0  0  0  0  0  0  0  0  0  0  0
   19.5949  -22.3600  -14.4322 O   0  0  0  0  0  0  0  0  0  0  0  0
  1  2  1  0
  2  3  2  0
  4  5  1  0
  4  2  1  0
  5  7  1  0
  5  6  1  1
  7  8  2  0
 10  9  1  6
 10 11  1  0
 10 12  1  0
 12 13  1  6
 13  7  1  0
 14 15  2  0
 14 12  1  0
 16 14  1  0
 17 16  1  0
 17 28  1  0
 17 18  1  6
 19 27  1  0
 19 18  1  0
 20 19  2  0
 21 20  1  0
 21 22  1  0
 22 27  2  0
 23 22  1  0
 23 24  2  0
 24 25  1  0
 25 26  2  0
 27 26  1  0
 28 29  2  0
 28 30  1  0
M  END
$$$$
