NTW.pdb
     RDKit          3D

 30 31  0  0  1  0  0  0  0  0999 V2000
   16.9057  -12.1289  -18.7536 N   0  0  0  0  0  0  0  0  0  0  0  0
   16.2700  -11.5441  -17.6316 C   0  0  0  0  0  0  0  0  0  0  0  0
   15.0661  -11.2318  -17.7095 O   0  0  0  0  0  0  0  0  0  0  0  0
   17.0293  -11.3186  -16.4121 C   0  0  0  0  0  0  0  0  0  0  0  0
   18.4572  -11.7173  -16.4113 C   0  0  2  0  0  0  0  0  0  0  0  0
   18.5097  -13.1752  -16.2450 N   0  0  0  0  0  0  0  0  0  0  0  0
   19.3406  -11.0291  -15.4704 C   0  0  0  0  0  0  0  0  0  0  0  0
   19.4311  -11.2880  -14.2439 O   0  0  0  0  0  0  0  0  0  0  0  0
   22.9049  -10.9591  -15.1496 C   0  0  0  0  0  0  0  0  0  0  0  0
   22.5056   -9.5343  -15.3486 C   0  0  1  0  0  0  0  0  0  0  0  0
   22.7682   -9.1964  -16.6872 O   0  0  0  0  0  0  0  0  0  0  0  0
   21.0794   -9.2400  -14.9923 C   0  0  2  0  0  0  0  0  0  0  0  0
   20.2178   -9.9539  -15.8789 N   0  0  0  0  0  0  0  0  0  0  0  0
   20.8457   -7.7832  -14.9586 C   0  0  0  0  0  0  0  0  0  0  0  0
   20.3762   -7.2468  -15.9962 O   0  0  0  0  0  0  0  0  0  0  0  0
   21.1039   -6.9354  -13.8607 N   0  0  0  0  0  0  0  0  0  0  0  0
   20.8288   -5.4915  -13.8972 C   0  0  1  0  0  0  0  0  0  0  0  0
   19.4159   -5.2014  -13.5976 C   0  0  0  0  0  0  0  0  0  0  0  0
   19.0069   -5.6967  -12.2775 C   0  0  0  0  0  0  0  0  0  0  0  0
   19.3489   -5.1304  -11.0365 C   0  0  0  0  0  0  0  0  0  0  0  0
   18.8384   -5.8737  -10.0407 N   0  0  0  0  0  0  0  0  0  0  0  0
   18.1660   -6.9165  -10.5481 C   0  0  0  0  0  0  0  0  0  0  0  0
   17.4602   -7.9351   -9.9263 C   0  0  0  0  0  0  0  0  0  0  0  0
   16.8208   -8.8960  -10.6712 C   0  0  0  0  0  0  0  0  0  0  0  0
   16.9209   -8.7890  -12.0401 C   0  0  0  0  0  0  0  0  0  0  0  0
   17.6175   -7.7850  -12.6686 C   0  0  0  0  0  0  0  0  0  0  0  0
   18.2646   -6.8144  -11.9217 C   0  0  0  0  0  0  0  0  0  0  0  0
   21.7959   -4.8255  -13.0344 C   0  0  0  0  0  0  0  0  0  0  0  0
   22.6040   -5.4092  -12.2732 O   0  0  0  0  0  0  0  0  0  0  0  0
   21.8823   -3.4181  -13.0056 O   0  0  0  0  0  0  0  0  0  0  0  0
  1  2  1  0
  2  3  2  0
  4  5  1  0
  4  2  1  0
  5  7  1  0
  5  6  1  1
  7  8  2  0
 10  9  1  6
 10 11  1  0
 10 12  1  0
 12 13  1  6
 13  7  1  0
 14 15  2  0
 14 12  1  0
 16 14  1  0
 17 16  1  0
 17 28  1  0
 17 18  1  1
 19 27  1  0
 19 18  1  0
 20 19  2  0
 21 20  1  0
 21 22  1  0
 22 27  2  0
 23 22  1  0
 23 24  2  0
 24 25  1  0
 25 26  2  0
 27 26  1  0
 28 29  2  0
 28 30  1  0
M  END
$$$$
