NTW.pdb
     RDKit          3D

 30 31  0  0  1  0  0  0  0  0999 V2000
   31.3155  -22.5247  -18.6127 N   0  0  0  0  0  0  0  0  0  0  0  0
   30.0415  -22.0244  -18.2497 C   0  0  0  0  0  0  0  0  0  0  0  0
   29.0262  -22.4861  -18.8056 O   0  0  0  0  0  0  0  0  0  0  0  0
   29.9394  -20.9843  -17.2386 C   0  0  0  0  0  0  0  0  0  0  0  0
   28.5805  -20.5950  -16.7919 C   0  0  2  0  0  0  0  0  0  0  0  0
   27.9819  -19.7784  -17.8553 N   0  0  0  0  0  0  0  0  0  0  0  0
   28.4680  -19.9527  -15.4826 C   0  0  0  0  0  0  0  0  0  0  0  0
   28.9796  -18.8469  -15.1747 O   0  0  0  0  0  0  0  0  0  0  0  0
   27.3992  -17.6782  -14.3645 C   0  0  0  0  0  0  0  0  0  0  0  0
   26.6818  -18.6231  -13.4581 C   0  0  1  0  0  0  0  0  0  0  0  0
   25.4332  -18.9099  -14.0360 O   0  0  0  0  0  0  0  0  0  0  0  0
   27.4367  -19.8840  -13.1621 C   0  0  2  0  0  0  0  0  0  0  0  0
   27.7345  -20.5509  -14.3887 N   0  0  0  0  0  0  0  0  0  0  0  0
   26.7011  -20.7088  -12.1841 C   0  0  0  0  0  0  0  0  0  0  0  0
   26.0072  -21.6588  -12.6320 O   0  0  0  0  0  0  0  0  0  0  0  0
   26.7073  -20.5248  -10.7852 N   0  0  0  0  0  0  0  0  0  0  0  0
   26.0058  -21.4339   -9.8669 C   0  0  1  0  0  0  0  0  0  0  0  0
   26.8460  -21.7902   -8.7105 C   0  0  0  0  0  0  0  0  0  0  0  0
   27.1368  -20.6376   -7.8491 C   0  0  0  0  0  0  0  0  0  0  0  0
   26.7670  -19.3033   -8.0958 C   0  0  0  0  0  0  0  0  0  0  0  0
   27.2406  -18.5116   -7.1192 N   0  0  0  0  0  0  0  0  0  0  0  0
   27.9131  -19.2462   -6.2220 C   0  0  0  0  0  0  0  0  0  0  0  0
   28.5557  -18.8858   -5.0475 C   0  0  0  0  0  0  0  0  0  0  0  0
   29.1659  -19.8369   -4.2663 C   0  0  0  0  0  0  0  0  0  0  0  0
   29.1023  -21.1386   -4.7097 C   0  0  0  0  0  0  0  0  0  0  0  0
   28.4692  -21.5089   -5.8718 C   0  0  0  0  0  0  0  0  0  0  0  0
   27.8533  -20.5534   -6.6633 C   0  0  0  0  0  0  0  0  0  0  0  0
   24.7173  -20.8380   -9.5381 C   0  0  0  0  0  0  0  0  0  0  0  0
   23.8751  -21.3320   -8.7507 O   0  0  0  0  0  0  0  0  0  0  0  0
   24.3257  -19.6119  -10.1145 O   0  0  0  0  0  0  0  0  0  0  0  0
  1  2  1  0
  2  3  2  0
  4  5  1  0
  4  2  1  0
  5  7  1  0
  5  6  1  6
  7  8  2  0
 10  9  1  6
 10 11  1  0
 10 12  1  0
 12 13  1  6
 13  7  1  0
 14 15  2  0
 14 12  1  0
 16 14  1  0
 17 16  1  0
 17 28  1  0
 17 18  1  1
 19 27  1  0
 19 18  1  0
 20 19  2  0
 21 20  1  0
 21 22  1  0
 22 27  2  0
 23 22  1  0
 23 24  2  0
 24 25  1  0
 25 26  2  0
 27 26  1  0
 28 29  2  0
 28 30  1  0
M  END
$$$$
