NTW.pdb
     RDKit          3D

 30 31  0  0  1  0  0  0  0  0999 V2000
   12.9359  -12.6342  -15.5530 N   0  0  0  0  0  0  0  0  0  0  0  0
   12.4287  -11.4169  -15.0371 C   0  0  0  0  0  0  0  0  0  0  0  0
   11.3416  -11.4208  -14.4279 O   0  0  0  0  0  0  0  0  0  0  0  0
   13.1818  -10.1873  -15.2261 C   0  0  0  0  0  0  0  0  0  0  0  0
   14.4811  -10.2823  -15.9336 C   0  0  2  0  0  0  0  0  0  0  0  0
   15.4228  -10.9680  -15.0398 N   0  0  0  0  0  0  0  0  0  0  0  0
   15.0415   -9.0411  -16.4673 C   0  0  0  0  0  0  0  0  0  0  0  0
   14.4677   -8.2860  -17.2919 O   0  0  0  0  0  0  0  0  0  0  0  0
   14.5682   -6.2603  -16.1438 C   0  0  0  0  0  0  0  0  0  0  0  0
   16.0101   -6.2155  -15.7591 C   0  0  1  0  0  0  0  0  0  0  0  0
   16.0857   -6.3180  -14.3595 O   0  0  0  0  0  0  0  0  0  0  0  0
   16.8554   -7.2634  -16.4187 C   0  0  2  0  0  0  0  0  0  0  0  0
   16.3484   -8.5548  -16.0824 N   0  0  0  0  0  0  0  0  0  0  0  0
   18.2791   -7.0631  -16.0860 C   0  0  0  0  0  0  0  0  0  0  0  0
   18.6875   -7.5195  -14.9862 O   0  0  0  0  0  0  0  0  0  0  0  0
   19.2265   -6.4017  -16.8958 N   0  0  0  0  0  0  0  0  0  0  0  0
   20.6339   -6.2487  -16.4988 C   0  0  1  0  0  0  0  0  0  0  0  0
   21.4926   -5.9401  -17.6554 C   0  0  0  0  0  0  0  0  0  0  0  0
   22.8886   -5.6974  -17.2715 C   0  0  0  0  0  0  0  0  0  0  0  0
   23.8552   -6.6803  -16.9927 C   0  0  0  0  0  0  0  0  0  0  0  0
   25.0087   -6.0945  -16.6306 N   0  0  0  0  0  0  0  0  0  0  0  0
   24.8699   -4.7614  -16.6516 C   0  0  0  0  0  0  0  0  0  0  0  0
   25.7746   -3.7469  -16.3789 C   0  0  0  0  0  0  0  0  0  0  0  0
   25.4014   -2.4298  -16.4947 C   0  0  0  0  0  0  0  0  0  0  0  0
   24.1053   -2.1842  -16.8884 C   0  0  0  0  0  0  0  0  0  0  0  0
   23.1988   -3.1803  -17.1611 C   0  0  0  0  0  0  0  0  0  0  0  0
   23.5702   -4.5097  -17.0448 C   0  0  0  0  0  0  0  0  0  0  0  0
   20.6930   -5.2854  -15.4070 C   0  0  0  0  0  0  0  0  0  0  0  0
   20.0209   -4.2284  -15.3418 O   0  0  0  0  0  0  0  0  0  0  0  0
   21.5511   -5.4980  -14.3081 O   0  0  0  0  0  0  0  0  0  0  0  0
  1  2  1  0
  2  3  2  0
  4  5  1  0
  4  2  1  0
  5  7  1  0
  5  6  1  1
  7  8  2  0
 10  9  1  6
 10 11  1  0
 10 12  1  0
 12 13  1  1
 13  7  1  0
 14 15  2  0
 14 12  1  0
 16 14  1  0
 17 16  1  0
 17 28  1  0
 17 18  1  6
 19 27  1  0
 19 18  1  0
 20 19  2  0
 21 20  1  0
 21 22  1  0
 22 27  2  0
 23 22  1  0
 23 24  2  0
 24 25  1  0
 25 26  2  0
 27 26  1  0
 28 29  2  0
 28 30  1  0
M  END
$$$$
