NTW.pdb
     RDKit          3D

 30 31  0  0  1  0  0  0  0  0999 V2000
   28.7020  -24.1330  -16.6764 N   0  0  0  0  0  0  0  0  0  0  0  0
   29.5410  -23.0528  -16.3100 C   0  0  0  0  0  0  0  0  0  0  0  0
   30.7659  -23.1346  -16.5246 O   0  0  0  0  0  0  0  0  0  0  0  0
   28.9619  -21.8707  -15.6920 C   0  0  0  0  0  0  0  0  0  0  0  0
   27.5035  -21.8822  -15.4261 C   0  0  2  0  0  0  0  0  0  0  0  0
   26.8166  -21.8558  -16.7235 N   0  0  0  0  0  0  0  0  0  0  0  0
   26.9845  -20.8637  -14.5136 C   0  0  0  0  0  0  0  0  0  0  0  0
   26.8843  -19.6396  -14.7800 O   0  0  0  0  0  0  0  0  0  0  0  0
   24.8380  -19.2094  -14.3929 C   0  0  0  0  0  0  0  0  0  0  0  0
   24.5793  -19.8090  -13.0503 C   0  0  1  0  0  0  0  0  0  0  0  0
   23.6666  -20.8643  -13.2185 O   0  0  0  0  0  0  0  0  0  0  0  0
   25.8126  -20.2766  -12.3377 C   0  0  2  0  0  0  0  0  0  0  0  0
   26.5252  -21.1829  -13.1796 N   0  0  0  0  0  0  0  0  0  0  0  0
   25.4667  -20.8226  -11.0110 C   0  0  0  0  0  0  0  0  0  0  0  0
   25.2643  -22.0624  -10.9287 O   0  0  0  0  0  0  0  0  0  0  0  0
   25.3420  -20.0736   -9.8218 N   0  0  0  0  0  0  0  0  0  0  0  0
   25.0086  -20.6929   -8.5306 C   0  0  1  0  0  0  0  0  0  0  0  0
   25.6416  -19.9793   -7.4080 C   0  0  0  0  0  0  0  0  0  0  0  0
   27.1024  -20.1245   -7.4003 C   0  0  0  0  0  0  0  0  0  0  0  0
   27.8883  -20.6607   -8.4361 C   0  0  0  0  0  0  0  0  0  0  0  0
   29.1791  -20.6805   -8.0646 N   0  0  0  0  0  0  0  0  0  0  0  0
   29.3055  -20.1823   -6.8265 C   0  0  0  0  0  0  0  0  0  0  0  0
   30.4259  -19.9829   -6.0347 C   0  0  0  0  0  0  0  0  0  0  0  0
   30.3067  -19.4231   -4.7858 C   0  0  0  0  0  0  0  0  0  0  0  0
   29.0374  -19.0804   -4.3777 C   0  0  0  0  0  0  0  0  0  0  0  0
   27.9188  -19.2732   -5.1524 C   0  0  0  0  0  0  0  0  0  0  0  0
   28.0340  -19.8381   -6.4119 C   0  0  0  0  0  0  0  0  0  0  0  0
   23.5590  -20.8163   -8.4497 C   0  0  0  0  0  0  0  0  0  0  0  0
   22.7461  -20.2982   -9.2523 O   0  0  0  0  0  0  0  0  0  0  0  0
   22.9589  -21.5620   -7.4139 O   0  0  0  0  0  0  0  0  0  0  0  0
  1  2  1  0
  2  3  2  0
  4  5  1  0
  4  2  1  0
  5  7  1  0
  5  6  1  6
  7  8  2  0
 10  9  1  6
 10 11  1  0
 10 12  1  0
 12 13  1  6
 13  7  1  0
 14 15  2  0
 14 12  1  0
 16 14  1  0
 17 16  1  0
 17 28  1  0
 17 18  1  1
 19 27  1  0
 19 18  1  0
 20 19  2  0
 21 20  1  0
 21 22  1  0
 22 27  2  0
 23 22  1  0
 23 24  2  0
 24 25  1  0
 25 26  2  0
 27 26  1  0
 28 29  2  0
 28 30  1  0
M  END
$$$$
