NTW.pdb
     RDKit          3D

 30 31  0  0  1  0  0  0  0  0999 V2000
   23.9726  -22.2262  -18.9303 N   0  0  0  0  0  0  0  0  0  0  0  0
   24.7839  -23.2971  -18.4827 C   0  0  0  0  0  0  0  0  0  0  0  0
   24.4509  -24.4668  -18.7547 O   0  0  0  0  0  0  0  0  0  0  0  0
   25.9871  -23.0153  -17.7164 C   0  0  0  0  0  0  0  0  0  0  0  0
   26.2905  -21.5957  -17.4158 C   0  0  2  0  0  0  0  0  0  0  0  0
   26.7433  -20.9661  -18.6626 N   0  0  0  0  0  0  0  0  0  0  0  0
   27.2068  -21.3304  -16.3071 C   0  0  0  0  0  0  0  0  0  0  0  0
   28.3943  -20.9378  -16.4302 O   0  0  0  0  0  0  0  0  0  0  0  0
   28.6469  -19.2666  -15.2549 C   0  0  0  0  0  0  0  0  0  0  0  0
   27.8732  -19.5659  -14.0136 C   0  0  1  0  0  0  0  0  0  0  0  0
   26.6894  -18.8094  -14.0511 O   0  0  0  0  0  0  0  0  0  0  0  0
   27.5723  -21.0207  -13.8124 C   0  0  2  0  0  0  0  0  0  0  0  0
   26.8172  -21.5014  -14.9245 N   0  0  0  0  0  0  0  0  0  0  0  0
   26.9305  -21.2388  -12.5014 C   0  0  0  0  0  0  0  0  0  0  0  0
   25.6748  -21.3246  -12.4774 O   0  0  0  0  0  0  0  0  0  0  0  0
   27.6040  -21.3596  -11.2675 N   0  0  0  0  0  0  0  0  0  0  0  0
   26.8902  -21.4759   -9.9873 C   0  0  1  0  0  0  0  0  0  0  0  0
   27.8239  -21.6344   -8.8589 C   0  0  0  0  0  0  0  0  0  0  0  0
   27.5501  -20.6942   -7.7651 C   0  0  0  0  0  0  0  0  0  0  0  0
   26.4411  -19.8348   -7.6679 C   0  0  0  0  0  0  0  0  0  0  0  0
   26.5423  -19.0849   -6.5578 N   0  0  0  0  0  0  0  0  0  0  0  0
   27.6668  -19.3959   -5.8978 C   0  0  0  0  0  0  0  0  0  0  0  0
   28.1876  -18.9127   -4.7073 C   0  0  0  0  0  0  0  0  0  0  0  0
   29.3660  -19.4121   -4.2079 C   0  0  0  0  0  0  0  0  0  0  0  0
   29.9837  -20.3981   -4.9437 C   0  0  0  0  0  0  0  0  0  0  0  0
   29.4784  -20.8853   -6.1251 C   0  0  0  0  0  0  0  0  0  0  0  0
   28.2911  -20.3842   -6.6331 C   0  0  0  0  0  0  0  0  0  0  0  0
   25.9706  -20.3507   -9.8790 C   0  0  0  0  0  0  0  0  0  0  0  0
   24.8535  -20.3856   -9.3097 O   0  0  0  0  0  0  0  0  0  0  0  0
   26.3013  -19.0975  -10.4351 O   0  0  0  0  0  0  0  0  0  0  0  0
  1  2  1  0
  2  3  2  0
  4  5  1  0
  4  2  1  0
  5  7  1  0
  5  6  1  6
  7  8  2  0
 10  9  1  6
 10 11  1  0
 10 12  1  0
 12 13  1  6
 13  7  1  0
 14 15  2  0
 14 12  1  0
 16 14  1  0
 17 16  1  0
 17 28  1  0
 17 18  1  1
 19 27  1  0
 19 18  1  0
 20 19  2  0
 21 20  1  0
 21 22  1  0
 22 27  2  0
 23 22  1  0
 23 24  2  0
 24 25  1  0
 25 26  2  0
 27 26  1  0
 28 29  2  0
 28 30  1  0
M  END
$$$$
