NTW.pdb
     RDKit          3D

 30 31  0  0  1  0  0  0  0  0999 V2000
   27.7774  -26.9101  -16.5700 N   0  0  0  0  0  0  0  0  0  0  0  0
   28.3889  -26.1330  -17.5835 C   0  0  0  0  0  0  0  0  0  0  0  0
   28.6113  -26.6503  -18.6952 O   0  0  0  0  0  0  0  0  0  0  0  0
   28.7459  -24.7498  -17.3114 C   0  0  0  0  0  0  0  0  0  0  0  0
   27.8912  -23.6931  -17.9036 C   0  0  2  0  0  0  0  0  0  0  0  0
   28.5110  -23.2798  -19.1689 N   0  0  0  0  0  0  0  0  0  0  0  0
   27.5657  -22.5465  -17.0559 C   0  0  0  0  0  0  0  0  0  0  0  0
   28.0376  -21.3899  -17.1936 O   0  0  0  0  0  0  0  0  0  0  0  0
   26.7508  -19.9664  -17.0568 C   0  0  0  0  0  0  0  0  0  0  0  0
   25.7248  -20.4447  -16.0833 C   0  0  1  0  0  0  0  0  0  0  0  0
   24.6011  -20.8666  -16.8143 O   0  0  0  0  0  0  0  0  0  0  0  0
   26.2053  -21.5296  -15.1670 C   0  0  2  0  0  0  0  0  0  0  0  0
   26.6419  -22.6427  -15.9469 N   0  0  0  0  0  0  0  0  0  0  0  0
   25.1708  -21.8562  -14.1664 C   0  0  0  0  0  0  0  0  0  0  0  0
   24.7691  -23.0481  -14.1152 O   0  0  0  0  0  0  0  0  0  0  0  0
   24.5900  -20.9456  -13.2586 N   0  0  0  0  0  0  0  0  0  0  0  0
   23.9540  -21.3781  -12.0055 C   0  0  1  0  0  0  0  0  0  0  0  0
   24.9120  -22.0618  -11.1196 C   0  0  0  0  0  0  0  0  0  0  0  0
   25.9786  -21.1699  -10.6482 C   0  0  0  0  0  0  0  0  0  0  0  0
   27.0742  -20.7152  -11.4038 C   0  0  0  0  0  0  0  0  0  0  0  0
   27.8717  -19.9538  -10.6364 N   0  0  0  0  0  0  0  0  0  0  0  0
   27.3682  -19.8702   -9.3969 C   0  0  0  0  0  0  0  0  0  0  0  0
   27.8178  -19.1913   -8.2748 C   0  0  0  0  0  0  0  0  0  0  0  0
   27.1056  -19.2357   -7.1009 C   0  0  0  0  0  0  0  0  0  0  0  0
   25.9460  -19.9777   -7.1059 C   0  0  0  0  0  0  0  0  0  0  0  0
   25.4897  -20.6554   -8.2108 C   0  0  0  0  0  0  0  0  0  0  0  0
   26.2049  -20.6144   -9.3965 C   0  0  0  0  0  0  0  0  0  0  0  0
   23.2798  -20.2265  -11.4202 C   0  0  0  0  0  0  0  0  0  0  0  0
   22.5481  -20.2609  -10.4020 O   0  0  0  0  0  0  0  0  0  0  0  0
   23.4192  -18.9455  -11.9935 O   0  0  0  0  0  0  0  0  0  0  0  0
  1  2  1  0
  2  3  2  0
  4  5  1  0
  4  2  1  0
  5  7  1  0
  5  6  1  6
  7  8  2  0
 10  9  1  6
 10 11  1  0
 10 12  1  0
 12 13  1  6
 13  7  1  0
 14 15  2  0
 14 12  1  0
 16 14  1  0
 17 16  1  0
 17 28  1  0
 17 18  1  1
 19 27  1  0
 19 18  1  0
 20 19  2  0
 21 20  1  0
 21 22  1  0
 22 27  2  0
 23 22  1  0
 23 24  2  0
 24 25  1  0
 25 26  2  0
 27 26  1  0
 28 29  2  0
 28 30  1  0
M  END
$$$$
