NTW.pdb
     RDKit          3D

 30 31  0  0  1  0  0  0  0  0999 V2000
   17.6572  -16.4453  -14.2270 N   0  0  0  0  0  0  0  0  0  0  0  0
   17.1503  -17.5557  -13.5094 C   0  0  0  0  0  0  0  0  0  0  0  0
   15.9650  -17.5413  -13.1249 O   0  0  0  0  0  0  0  0  0  0  0  0
   18.0176  -18.6901  -13.2342 C   0  0  0  0  0  0  0  0  0  0  0  0
   19.4371  -18.5825  -13.6481 C   0  0  2  0  0  0  0  0  0  0  0  0
   19.4799  -18.6806  -15.1125 N   0  0  0  0  0  0  0  0  0  0  0  0
   20.3874  -19.4949  -13.0127 C   0  0  0  0  0  0  0  0  0  0  0  0
   20.4812  -19.6925  -11.7751 O   0  0  0  0  0  0  0  0  0  0  0  0
   20.9245  -23.1393  -14.0544 C   0  0  0  0  0  0  0  0  0  0  0  0
   22.2562  -22.4674  -13.9917 C   0  0  1  0  0  0  0  0  0  0  0  0
   22.6870  -22.2412  -15.3101 O   0  0  0  0  0  0  0  0  0  0  0  0
   22.2661  -21.1945  -13.1997 C   0  0  2  0  0  0  0  0  0  0  0  0
   21.3357  -20.2773  -13.7751 N   0  0  0  0  0  0  0  0  0  0  0  0
   23.6409  -20.6717  -13.0796 C   0  0  0  0  0  0  0  0  0  0  0  0
   23.8280  -19.4604  -13.3671 O   0  0  0  0  0  0  0  0  0  0  0  0
   24.7687  -21.4137  -12.6696 N   0  0  0  0  0  0  0  0  0  0  0  0
   26.1233  -20.8422  -12.6466 C   0  0  1  0  0  0  0  0  0  0  0  0
   26.3187  -19.9583  -11.4845 C   0  0  0  0  0  0  0  0  0  0  0  0
   27.4642  -20.3589  -10.6584 C   0  0  0  0  0  0  0  0  0  0  0  0
   28.6681  -20.9171  -11.1242 C   0  0  0  0  0  0  0  0  0  0  0  0
   29.4699  -21.2021  -10.0847 N   0  0  0  0  0  0  0  0  0  0  0  0
   28.8669  -20.8627   -8.9366 C   0  0  0  0  0  0  0  0  0  0  0  0
   29.2985  -20.9458   -7.6217 C   0  0  0  0  0  0  0  0  0  0  0  0
   28.4986  -20.5040   -6.5959 C   0  0  0  0  0  0  0  0  0  0  0  0
   27.2717  -19.9861   -6.9443 C   0  0  0  0  0  0  0  0  0  0  0  0
   26.8319  -19.8985   -8.2433 C   0  0  0  0  0  0  0  0  0  0  0  0
   27.6344  -20.3436   -9.2809 C   0  0  0  0  0  0  0  0  0  0  0  0
   27.0775  -21.9375  -12.7610 C   0  0  0  0  0  0  0  0  0  0  0  0
   26.8039  -23.1510  -12.6004 O   0  0  0  0  0  0  0  0  0  0  0  0
   28.4286  -21.6823  -13.0748 O   0  0  0  0  0  0  0  0  0  0  0  0
  1  2  1  0
  2  3  2  0
  4  5  1  0
  4  2  1  0
  5  7  1  0
  5  6  1  6
  7  8  2  0
 10  9  1  6
 10 11  1  0
 10 12  1  0
 12 13  1  6
 13  7  1  0
 14 15  2  0
 14 12  1  0
 16 14  1  0
 17 16  1  0
 17 28  1  0
 17 18  1  1
 19 27  1  0
 19 18  1  0
 20 19  2  0
 21 20  1  0
 21 22  1  0
 22 27  2  0
 23 22  1  0
 23 24  2  0
 24 25  1  0
 25 26  2  0
 27 26  1  0
 28 29  2  0
 28 30  1  0
M  END
$$$$
