NTW.pdb
     RDKit          3D

 30 31  0  0  1  0  0  0  0  0999 V2000
   31.3119  -23.7734  -18.8146 N   0  0  0  0  0  0  0  0  0  0  0  0
   30.2121  -23.6415  -17.9324 C   0  0  0  0  0  0  0  0  0  0  0  0
   29.2663  -24.4488  -18.0151 O   0  0  0  0  0  0  0  0  0  0  0  0
   30.2046  -22.5707  -16.9486 C   0  0  0  0  0  0  0  0  0  0  0  0
   29.0504  -21.6403  -16.9584 C   0  0  2  0  0  0  0  0  0  0  0  0
   29.1436  -20.8322  -18.1808 N   0  0  0  0  0  0  0  0  0  0  0  0
   28.8533  -20.8106  -15.7701 C   0  0  0  0  0  0  0  0  0  0  0  0
   29.3255  -19.6572  -15.6087 O   0  0  0  0  0  0  0  0  0  0  0  0
   28.1044  -18.3415  -14.8489 C   0  0  0  0  0  0  0  0  0  0  0  0
   27.1781  -19.1407  -13.9931 C   0  0  1  0  0  0  0  0  0  0  0  0
   25.9956  -19.3549  -14.7219 O   0  0  0  0  0  0  0  0  0  0  0  0
   27.7523  -20.4390  -13.5112 C   0  0  2  0  0  0  0  0  0  0  0  0
   28.0725  -21.2565  -14.6369 N   0  0  0  0  0  0  0  0  0  0  0  0
   26.8450  -21.0747  -12.5362 C   0  0  0  0  0  0  0  0  0  0  0  0
   26.0920  -21.9916  -12.9567 O   0  0  0  0  0  0  0  0  0  0  0  0
   26.7469  -20.7428  -11.1683 N   0  0  0  0  0  0  0  0  0  0  0  0
   25.9016  -21.4982  -10.2320 C   0  0  1  0  0  0  0  0  0  0  0  0
   26.6336  -21.8473   -9.0021 C   0  0  0  0  0  0  0  0  0  0  0  0
   26.8373  -20.6912   -8.1206 C   0  0  0  0  0  0  0  0  0  0  0  0
   26.3585  -19.3870   -8.3389 C   0  0  0  0  0  0  0  0  0  0  0  0
   26.7747  -18.5779   -7.3504 N   0  0  0  0  0  0  0  0  0  0  0  0
   27.5121  -19.2722   -6.4723 C   0  0  0  0  0  0  0  0  0  0  0  0
   28.1334  -18.8829   -5.2956 C   0  0  0  0  0  0  0  0  0  0  0  0
   28.8253  -19.7958   -4.5372 C   0  0  0  0  0  0  0  0  0  0  0  0
   28.8636  -21.0898   -5.0053 C   0  0  0  0  0  0  0  0  0  0  0  0
   28.2527  -21.4885   -6.1699 C   0  0  0  0  0  0  0  0  0  0  0  0
   27.5547  -20.5714   -6.9384 C   0  0  0  0  0  0  0  0  0  0  0  0
   24.6694  -20.7472  -10.0293 C   0  0  0  0  0  0  0  0  0  0  0  0
   24.4529  -19.5889  -10.4590 O   0  0  0  0  0  0  0  0  0  0  0  0
   23.5983  -21.3082   -9.3033 O   0  0  0  0  0  0  0  0  0  0  0  0
  1  2  1  0
  2  3  2  0
  4  5  1  0
  4  2  1  0
  5  7  1  0
  5  6  1  6
  7  8  2  0
 10  9  1  6
 10 11  1  0
 10 12  1  0
 12 13  1  6
 13  7  1  0
 14 15  2  0
 14 12  1  0
 16 14  1  0
 17 16  1  0
 17 28  1  0
 17 18  1  1
 19 27  1  0
 19 18  1  0
 20 19  2  0
 21 20  1  0
 21 22  1  0
 22 27  2  0
 23 22  1  0
 23 24  2  0
 24 25  1  0
 25 26  2  0
 27 26  1  0
 28 29  2  0
 28 30  1  0
M  END
$$$$
