NTW.pdb
     RDKit          3D

 30 31  0  0  1  0  0  0  0  0999 V2000
   30.3932  -23.9097  -18.6428 N   0  0  0  0  0  0  0  0  0  0  0  0
   31.2748  -22.8636  -18.2776 C   0  0  0  0  0  0  0  0  0  0  0  0
   32.4731  -22.9336  -18.6129 O   0  0  0  0  0  0  0  0  0  0  0  0
   30.7696  -21.7295  -17.5205 C   0  0  0  0  0  0  0  0  0  0  0  0
   29.3725  -21.8018  -17.0299 C   0  0  2  0  0  0  0  0  0  0  0  0
   28.4876  -21.7069  -18.1978 N   0  0  0  0  0  0  0  0  0  0  0  0
   28.9869  -20.8635  -15.9762 C   0  0  0  0  0  0  0  0  0  0  0  0
   29.1165  -19.6150  -16.0385 O   0  0  0  0  0  0  0  0  0  0  0  0
   27.2736  -18.7621  -15.5376 C   0  0  0  0  0  0  0  0  0  0  0  0
   26.7976  -19.5718  -14.3771 C   0  0  1  0  0  0  0  0  0  0  0  0
   25.7191  -20.3593  -14.8149 O   0  0  0  0  0  0  0  0  0  0  0  0
   27.8582  -20.4214  -13.7438 C   0  0  2  0  0  0  0  0  0  0  0  0
   28.4031  -21.3013  -14.7271 N   0  0  0  0  0  0  0  0  0  0  0  0
   27.3283  -21.1012  -12.5459 C   0  0  0  0  0  0  0  0  0  0  0  0
   27.9950  -22.0630  -12.0822 O   0  0  0  0  0  0  0  0  0  0  0  0
   26.1345  -20.7664  -11.8724 N   0  0  0  0  0  0  0  0  0  0  0  0
   25.9658  -20.9567  -10.4242 C   0  0  1  0  0  0  0  0  0  0  0  0
   27.0619  -20.3310   -9.6643 C   0  0  0  0  0  0  0  0  0  0  0  0
   26.7732  -20.2444   -8.2275 C   0  0  0  0  0  0  0  0  0  0  0  0
   25.4982  -20.2682   -7.6346 C   0  0  0  0  0  0  0  0  0  0  0  0
   25.6120  -20.1205   -6.3041 N   0  0  0  0  0  0  0  0  0  0  0  0
   26.9037  -19.9987   -5.9673 C   0  0  0  0  0  0  0  0  0  0  0  0
   27.5124  -19.8475   -4.7309 C   0  0  0  0  0  0  0  0  0  0  0  0
   28.8803  -19.7676   -4.6320 C   0  0  0  0  0  0  0  0  0  0  0  0
   29.5932  -19.8448   -5.8071 C   0  0  0  0  0  0  0  0  0  0  0  0
   29.0023  -19.9942   -7.0388 C   0  0  0  0  0  0  0  0  0  0  0  0
   27.6234  -20.0743   -7.1435 C   0  0  0  0  0  0  0  0  0  0  0  0
   24.6264  -20.5108  -10.0631 C   0  0  0  0  0  0  0  0  0  0  0  0
   23.8141  -21.1628   -9.3643 O   0  0  0  0  0  0  0  0  0  0  0  0
   24.1444  -19.2595  -10.5001 O   0  0  0  0  0  0  0  0  0  0  0  0
  1  2  1  0
  2  3  2  0
  4  5  1  0
  4  2  1  0
  5  7  1  0
  5  6  1  6
  7  8  2  0
 10  9  1  6
 10 11  1  0
 10 12  1  0
 12 13  1  6
 13  7  1  0
 14 15  2  0
 14 12  1  0
 16 14  1  0
 17 16  1  0
 17 28  1  0
 17 18  1  1
 19 27  1  0
 19 18  1  0
 20 19  2  0
 21 20  1  0
 21 22  1  0
 22 27  2  0
 23 22  1  0
 23 24  2  0
 24 25  1  0
 25 26  2  0
 27 26  1  0
 28 29  2  0
 28 30  1  0
M  END
$$$$
