NTW.pdb
     RDKit          3D

 30 31  0  0  1  0  0  0  0  0999 V2000
   22.0607  -16.3615  -17.0291 N   0  0  0  0  0  0  0  0  0  0  0  0
   21.7742  -15.8873  -15.7259 C   0  0  0  0  0  0  0  0  0  0  0  0
   21.6736  -14.6601  -15.5340 O   0  0  0  0  0  0  0  0  0  0  0  0
   21.6027  -16.8364  -14.6376 C   0  0  0  0  0  0  0  0  0  0  0  0
   21.8447  -18.2687  -14.9339 C   0  0  2  0  0  0  0  0  0  0  0  0
   20.6997  -18.7597  -15.7109 N   0  0  0  0  0  0  0  0  0  0  0  0
   22.1487  -19.1415  -13.8003 C   0  0  0  0  0  0  0  0  0  0  0  0
   21.3686  -19.3818  -12.8447 O   0  0  0  0  0  0  0  0  0  0  0  0
   22.8320  -22.6520  -14.0628 C   0  0  0  0  0  0  0  0  0  0  0  0
   23.9760  -22.1124  -13.2695 C   0  0  1  0  0  0  0  0  0  0  0  0
   25.0989  -22.0616  -14.1130 O   0  0  0  0  0  0  0  0  0  0  0  0
   23.7146  -20.7746  -12.6453 C   0  0  2  0  0  0  0  0  0  0  0  0
   23.4151  -19.8289  -13.6719 N   0  0  0  0  0  0  0  0  0  0  0  0
   24.8362  -20.3860  -11.7684 C   0  0  0  0  0  0  0  0  0  0  0  0
   25.3746  -19.2673  -11.9768 O   0  0  0  0  0  0  0  0  0  0  0  0
   25.3602  -21.1619  -10.7129 N   0  0  0  0  0  0  0  0  0  0  0  0
   26.5503  -20.7559   -9.9508 C   0  0  1  0  0  0  0  0  0  0  0  0
   26.2459  -19.6609   -9.0136 C   0  0  0  0  0  0  0  0  0  0  0  0
   27.3920  -19.3101   -8.1659 C   0  0  0  0  0  0  0  0  0  0  0  0
   28.6035  -18.7439   -8.6015 C   0  0  0  0  0  0  0  0  0  0  0  0
   29.4401  -18.6019   -7.5600 N   0  0  0  0  0  0  0  0  0  0  0  0
   28.8527  -19.0442   -6.4392 C   0  0  0  0  0  0  0  0  0  0  0  0
   29.3042  -19.0846   -5.1289 C   0  0  0  0  0  0  0  0  0  0  0  0
   28.4975  -19.5687   -4.1279 C   0  0  0  0  0  0  0  0  0  0  0  0
   27.2433  -20.0009   -4.4957 C   0  0  0  0  0  0  0  0  0  0  0  0
   26.7839  -19.9667   -5.7904 C   0  0  0  0  0  0  0  0  0  0  0  0
   27.5940  -19.4804   -6.8033 C   0  0  0  0  0  0  0  0  0  0  0  0
   27.1277  -21.9490   -9.3454 C   0  0  0  0  0  0  0  0  0  0  0  0
   26.4717  -22.8752   -8.8115 O   0  0  0  0  0  0  0  0  0  0  0  0
   28.5250  -22.1390   -9.3251 O   0  0  0  0  0  0  0  0  0  0  0  0
  1  2  1  0
  2  3  2  0
  4  5  1  0
  4  2  1  0
  5  7  1  0
  5  6  1  1
  7  8  2  0
 10  9  1  6
 10 11  1  0
 10 12  1  0
 12 13  1  6
 13  7  1  0
 14 15  2  0
 14 12  1  0
 16 14  1  0
 17 16  1  0
 17 28  1  0
 17 18  1  1
 19 27  1  0
 19 18  1  0
 20 19  2  0
 21 20  1  0
 21 22  1  0
 22 27  2  0
 23 22  1  0
 23 24  2  0
 24 25  1  0
 25 26  2  0
 27 26  1  0
 28 29  2  0
 28 30  1  0
M  END
$$$$
