NTW.pdb
     RDKit          3D

 30 31  0  0  1  0  0  0  0  0999 V2000
   26.9877  -23.2699  -18.9329 N   0  0  0  0  0  0  0  0  0  0  0  0
   27.8910  -23.9021  -18.0444 C   0  0  0  0  0  0  0  0  0  0  0  0
   28.2198  -25.0860  -18.2523 O   0  0  0  0  0  0  0  0  0  0  0  0
   28.4177  -23.1624  -16.9086 C   0  0  0  0  0  0  0  0  0  0  0  0
   27.9652  -21.7615  -16.7347 C   0  0  2  0  0  0  0  0  0  0  0  0
   28.5262  -20.9745  -17.8401 N   0  0  0  0  0  0  0  0  0  0  0  0
   28.2179  -21.1358  -15.4370 C   0  0  0  0  0  0  0  0  0  0  0  0
   29.1753  -20.3625  -15.1827 O   0  0  0  0  0  0  0  0  0  0  0  0
   28.1772  -18.6262  -14.5543 C   0  0  0  0  0  0  0  0  0  0  0  0
   27.1637  -19.0947  -13.5631 C   0  0  1  0  0  0  0  0  0  0  0  0
   25.8898  -18.8878  -14.1192 O   0  0  0  0  0  0  0  0  0  0  0  0
   27.3357  -20.5213  -13.1355 C   0  0  2  0  0  0  0  0  0  0  0  0
   27.3618  -21.3575  -14.2922 N   0  0  0  0  0  0  0  0  0  0  0  0
   26.3089  -20.8898  -12.1414 C   0  0  0  0  0  0  0  0  0  0  0  0
   25.3010  -21.5203  -12.5551 O   0  0  0  0  0  0  0  0  0  0  0  0
   26.3582  -20.5955  -10.7624 N   0  0  0  0  0  0  0  0  0  0  0  0
   25.4459  -21.2157   -9.7903 C   0  0  1  0  0  0  0  0  0  0  0  0
   26.1564  -21.6289   -8.5678 C   0  0  0  0  0  0  0  0  0  0  0  0
   26.6369  -20.4857   -7.7821 C   0  0  0  0  0  0  0  0  0  0  0  0
   26.4467  -19.1272   -8.0923 C   0  0  0  0  0  0  0  0  0  0  0  0
   27.0625  -18.3607   -7.1768 N   0  0  0  0  0  0  0  0  0  0  0  0
   27.6603  -19.1352   -6.2606 C   0  0  0  0  0  0  0  0  0  0  0  0
   28.3910  -18.8087   -5.1285 C   0  0  0  0  0  0  0  0  0  0  0  0
   28.8927  -19.7945   -4.3138 C   0  0  0  0  0  0  0  0  0  0  0  0
   28.6322  -21.0955   -4.6809 C   0  0  0  0  0  0  0  0  0  0  0  0
   27.9100  -21.4326   -5.8004 C   0  0  0  0  0  0  0  0  0  0  0  0
   27.4029  -20.4420   -6.6253 C   0  0  0  0  0  0  0  0  0  0  0  0
   24.3248  -20.3088   -9.5806 C   0  0  0  0  0  0  0  0  0  0  0  0
   24.2334  -19.1535  -10.0603 O   0  0  0  0  0  0  0  0  0  0  0  0
   23.2253  -20.6982   -8.7878 O   0  0  0  0  0  0  0  0  0  0  0  0
  1  2  1  0
  2  3  2  0
  4  5  1  0
  4  2  1  0
  5  7  1  0
  5  6  1  6
  7  8  2  0
 10  9  1  6
 10 11  1  0
 10 12  1  0
 12 13  1  6
 13  7  1  0
 14 15  2  0
 14 12  1  0
 16 14  1  0
 17 16  1  0
 17 28  1  0
 17 18  1  1
 19 27  1  0
 19 18  1  0
 20 19  2  0
 21 20  1  0
 21 22  1  0
 22 27  2  0
 23 22  1  0
 23 24  2  0
 24 25  1  0
 25 26  2  0
 27 26  1  0
 28 29  2  0
 28 30  1  0
M  END
$$$$
