KKY.pdb
     RDKit          3D

 31 31  0  0  1  0  0  0  0  0999 V2000
    4.7210  -18.8071   23.3540 N   0  0  0  0  0  0  0  0  0  0  0  0
    6.0095  -19.4003   23.1472 C   0  0  1  0  0  0  0  0  0  0  0  0
    5.9264  -20.4979   22.1344 C   0  0  0  0  0  0  0  0  0  0  0  0
    5.0692  -21.6444   22.5614 C   0  0  0  0  0  0  0  0  0  0  0  0
    5.0308  -22.7591   21.5393 C   0  0  0  0  0  0  0  0  0  0  0  0
    4.0330  -23.8092   21.9790 C   0  0  0  0  0  0  0  0  0  0  0  0
    3.9197  -24.9000   21.0541 N   0  0  0  0  0  0  0  0  0  0  0  0
    6.9837  -18.3787   22.6307 C   0  0  0  0  0  0  0  0  0  0  0  0
    8.1655  -18.6933   22.3409 O   0  0  0  0  0  0  0  0  0  0  0  0
    6.6013  -17.0171   22.4515 N   0  0  0  0  0  0  0  0  0  0  0  0
    7.5257  -15.9729   22.1098 C   0  0  1  0  0  0  0  0  0  0  0  0
    6.9545  -14.9017   21.2398 C   0  0  0  0  0  0  0  0  0  0  0  0
    7.9925  -13.9176   20.7538 C   0  0  0  0  0  0  0  0  0  0  0  0
    7.6314  -13.6079   19.2950 C   0  0  0  0  0  0  0  0  0  0  0  0
    8.6313  -12.6417   18.6963 C   0  0  0  0  0  0  0  0  0  0  0  0
    8.2759  -12.4842   17.2976 N   0  0  0  0  0  0  0  0  0  0  0  0
    8.2083  -15.4169   23.3172 C   0  0  0  0  0  0  0  0  0  0  0  0
    7.6883  -14.4855   23.9837 O   0  0  0  0  0  0  0  0  0  0  0  0
    5.1299  -12.0038   27.1813 O   0  0  0  0  0  0  0  0  0  0  0  0
    6.1287  -12.9208   26.9279 C   0  0  0  0  0  0  0  0  0  0  0  0
    7.4692  -12.6281   27.0941 C   0  0  0  0  0  0  0  0  0  0  0  0
    8.4601  -13.5526   26.8379 C   0  0  0  0  0  0  0  0  0  0  0  0
    8.1295  -14.8329   26.3954 C   0  0  0  0  0  0  0  0  0  0  0  0
    9.2417  -15.7685   26.1348 C   0  0  0  0  0  0  0  0  0  0  0  0
   10.1049  -15.3702   24.9701 C   0  0  2  0  0  0  0  0  0  0  0  0
    9.4633  -15.9097   23.7633 N   0  0  0  0  0  0  0  0  0  0  0  0
   11.4384  -15.9955   25.0776 C   0  0  0  0  0  0  0  0  0  0  0  0
   12.3180  -15.6106   26.0640 O   0  0  0  0  0  0  0  0  0  0  0  0
    6.8023  -15.1253   26.2298 C   0  0  0  0  0  0  0  0  0  0  0  0
    5.8045  -14.1811   26.4923 C   0  0  0  0  0  0  0  0  0  0  0  0
   11.8311  -16.8990   24.2832 O   0  0  0  0  0  0  0  0  0  0  0  0
  2  3  1  0
  2  1  1  6
  3  4  1  0
  4  5  1  0
  5  6  1  0
  7  6  1  0
  8  2  1  0
  9  8  2  0
 10  8  1  0
 11 17  1  0
 11 10  1  0
 11 12  1  1
 13 12  1  0
 13 14  1  0
 15 14  1  0
 15 16  1  0
 17 26  1  0
 18 17  2  0
 19 20  1  0
 20 30  2  0
 21 20  1  0
 21 22  2  0
 22 23  1  0
 23 29  2  0
 23 24  1  0
 25 27  1  0
 25 24  1  1
 26 25  1  0
 27 31  2  0
 27 28  1  0
 30 29  1  0
M  END
$$$$
