KKY.pdb
     RDKit          3D

 31 31  0  0  1  0  0  0  0  0999 V2000
    9.3257  -13.6543   18.0308 N   0  0  0  0  0  0  0  0  0  0  0  0
    9.9468  -14.7939   18.6397 C   0  0  1  0  0  0  0  0  0  0  0  0
   11.3635  -14.4861   19.0083 C   0  0  0  0  0  0  0  0  0  0  0  0
   12.3109  -14.5514   17.8552 C   0  0  0  0  0  0  0  0  0  0  0  0
   13.7582  -14.4319   18.2792 C   0  0  0  0  0  0  0  0  0  0  0  0
   14.6507  -14.5803   17.0655 C   0  0  0  0  0  0  0  0  0  0  0  0
   16.0441  -14.4244   17.3693 N   0  0  0  0  0  0  0  0  0  0  0  0
    9.2231  -15.1784   19.8998 C   0  0  0  0  0  0  0  0  0  0  0  0
    8.8597  -14.3106   20.7333 O   0  0  0  0  0  0  0  0  0  0  0  0
    8.9235  -16.5407   20.1938 N   0  0  0  0  0  0  0  0  0  0  0  0
    8.2332  -16.9620   21.3802 C   0  0  1  0  0  0  0  0  0  0  0  0
    7.6639  -18.3408   21.3077 C   0  0  0  0  0  0  0  0  0  0  0  0
    6.9762  -18.7652   22.5841 C   0  0  0  0  0  0  0  0  0  0  0  0
    6.3602  -20.1406   22.2954 C   0  0  0  0  0  0  0  0  0  0  0  0
    5.4842  -20.5804   23.4491 C   0  0  0  0  0  0  0  0  0  0  0  0
    4.8910  -21.8485   23.0649 N   0  0  0  0  0  0  0  0  0  0  0  0
    9.0596  -16.7552   22.6079 C   0  0  0  0  0  0  0  0  0  0  0  0
   10.2536  -17.1477   22.6585 O   0  0  0  0  0  0  0  0  0  0  0  0
   10.6335  -14.7998   31.1795 O   0  0  0  0  0  0  0  0  0  0  0  0
   10.1427  -14.8559   29.8916 C   0  0  0  0  0  0  0  0  0  0  0  0
   10.4785  -13.9272   28.9247 C   0  0  0  0  0  0  0  0  0  0  0  0
    9.9820  -13.9926   27.6395 C   0  0  0  0  0  0  0  0  0  0  0  0
    9.1105  -15.0178   27.2741 C   0  0  0  0  0  0  0  0  0  0  0  0
    8.6134  -15.0218   25.8838 C   0  0  0  0  0  0  0  0  0  0  0  0
    9.3465  -15.9768   24.9835 C   0  0  2  0  0  0  0  0  0  0  0  0
    8.5400  -16.1122   23.7627 N   0  0  0  0  0  0  0  0  0  0  0  0
    9.4307  -17.3131   25.6067 C   0  0  0  0  0  0  0  0  0  0  0  0
    8.3388  -18.1512   25.6231 O   0  0  0  0  0  0  0  0  0  0  0  0
    8.7760  -15.9390   28.2302 C   0  0  0  0  0  0  0  0  0  0  0  0
    9.2848  -15.8643   29.5308 C   0  0  0  0  0  0  0  0  0  0  0  0
   10.4906  -17.7455   26.1463 O   0  0  0  0  0  0  0  0  0  0  0  0
  2  3  1  0
  2  1  1  1
  3  4  1  0
  4  5  1  0
  5  6  1  0
  7  6  1  0
  8  2  1  0
  9  8  2  0
 10  8  1  0
 11 17  1  0
 11 10  1  0
 11 12  1  6
 13 12  1  0
 13 14  1  0
 15 14  1  0
 15 16  1  0
 17 26  1  0
 18 17  2  0
 19 20  1  0
 20 30  2  0
 21 20  1  0
 21 22  2  0
 22 23  1  0
 23 29  2  0
 23 24  1  0
 25 27  1  0
 25 24  1  1
 26 25  1  0
 27 31  2  0
 27 28  1  0
 30 29  1  0
M  END
$$$$
