KKY.pdb
     RDKit          3D

 31 31  0  0  1  0  0  0  0  0999 V2000
    8.4874  -16.1122   20.3211 N   0  0  0  0  0  0  0  0  0  0  0  0
    8.1241  -15.0555   21.2191 C   0  0  1  0  0  0  0  0  0  0  0  0
    7.0098  -14.2385   20.6461 C   0  0  0  0  0  0  0  0  0  0  0  0
    6.9377  -14.2848   19.1547 C   0  0  0  0  0  0  0  0  0  0  0  0
    8.0091  -13.4484   18.4905 C   0  0  0  0  0  0  0  0  0  0  0  0
    7.7638  -13.4120   16.9972 C   0  0  0  0  0  0  0  0  0  0  0  0
    8.8057  -12.7438   16.2719 N   0  0  0  0  0  0  0  0  0  0  0  0
    7.6478  -15.6174   22.5294 C   0  0  0  0  0  0  0  0  0  0  0  0
    7.1945  -14.8701   23.4327 O   0  0  0  0  0  0  0  0  0  0  0  0
    7.6936  -17.0174   22.7936 N   0  0  0  0  0  0  0  0  0  0  0  0
    7.4284  -17.5894   24.0836 C   0  0  1  0  0  0  0  0  0  0  0  0
    7.2624  -19.0737   24.0796 C   0  0  0  0  0  0  0  0  0  0  0  0
    7.0387  -19.6480   25.4588 C   0  0  0  0  0  0  0  0  0  0  0  0
    7.0184  -21.1724   25.2840 C   0  0  0  0  0  0  0  0  0  0  0  0
    6.6890  -21.8509   26.5966 C   0  0  0  0  0  0  0  0  0  0  0  0
    6.7826  -23.2808   26.3640 N   0  0  0  0  0  0  0  0  0  0  0  0
    8.4160  -17.1336   25.1081 C   0  0  0  0  0  0  0  0  0  0  0  0
    9.6500  -17.1360   24.8641 O   0  0  0  0  0  0  0  0  0  0  0  0
    7.1315  -10.5491   24.7916 O   0  0  0  0  0  0  0  0  0  0  0  0
    7.4278  -11.6365   25.5869 C   0  0  0  0  0  0  0  0  0  0  0  0
    6.5062  -12.2052   26.4457 C   0  0  0  0  0  0  0  0  0  0  0  0
    6.8129  -13.2927   27.2366 C   0  0  0  0  0  0  0  0  0  0  0  0
    8.0862  -13.8589   27.1901 C   0  0  0  0  0  0  0  0  0  0  0  0
    8.3459  -15.0168   28.0687 C   0  0  0  0  0  0  0  0  0  0  0  0
    8.9915  -16.1769   27.3631 C   0  0  2  0  0  0  0  0  0  0  0  0
    8.0108  -16.6809   26.3918 N   0  0  0  0  0  0  0  0  0  0  0  0
    9.2708  -17.2704   28.3156 C   0  0  0  0  0  0  0  0  0  0  0  0
   10.1955  -17.1070   29.3221 O   0  0  0  0  0  0  0  0  0  0  0  0
    9.0010  -13.2973   26.3403 C   0  0  0  0  0  0  0  0  0  0  0  0
    8.6806  -12.1945   25.5420 C   0  0  0  0  0  0  0  0  0  0  0  0
    8.6850  -18.3905   28.2546 O   0  0  0  0  0  0  0  0  0  0  0  0
  2  3  1  0
  2  1  1  6
  3  4  1  0
  4  5  1  0
  5  6  1  0
  7  6  1  0
  8  2  1  0
  9  8  2  0
 10  8  1  0
 11 17  1  0
 11 10  1  0
 11 12  1  6
 13 12  1  0
 13 14  1  0
 15 14  1  0
 15 16  1  0
 17 26  1  0
 18 17  2  0
 19 20  1  0
 20 30  2  0
 21 20  1  0
 21 22  2  0
 22 23  1  0
 23 29  2  0
 23 24  1  0
 25 27  1  0
 25 24  1  1
 26 25  1  0
 27 31  2  0
 27 28  1  0
 30 29  1  0
M  END
$$$$
