KKY.pdb
     RDKit          3D

 31 31  0  0  1  0  0  0  0  0999 V2000
   10.1370  -16.3143   19.1947 N   0  0  0  0  0  0  0  0  0  0  0  0
    9.3686  -15.2461   19.7637 C   0  0  1  0  0  0  0  0  0  0  0  0
    8.2963  -14.8079   18.8173 C   0  0  0  0  0  0  0  0  0  0  0  0
    7.6366  -13.5265   19.2101 C   0  0  0  0  0  0  0  0  0  0  0  0
    7.9174  -12.4016   18.2382 C   0  0  0  0  0  0  0  0  0  0  0  0
    7.7892  -12.9188   16.8213 C   0  0  0  0  0  0  0  0  0  0  0  0
    7.9509  -11.8932   15.8312 N   0  0  0  0  0  0  0  0  0  0  0  0
    8.6989  -15.6957   21.0321 C   0  0  0  0  0  0  0  0  0  0  0  0
    8.0436  -14.8926   21.7431 O   0  0  0  0  0  0  0  0  0  0  0  0
    8.7835  -17.0486   21.4731 N   0  0  0  0  0  0  0  0  0  0  0  0
    8.1049  -17.5467   22.6363 C   0  0  1  0  0  0  0  0  0  0  0  0
    7.7830  -19.0043   22.5877 C   0  0  0  0  0  0  0  0  0  0  0  0
    6.8145  -19.3600   21.4842 C   0  0  0  0  0  0  0  0  0  0  0  0
    6.6792  -20.8881   21.5166 C   0  0  0  0  0  0  0  0  0  0  0  0
    5.6546  -21.3500   20.5023 C   0  0  0  0  0  0  0  0  0  0  0  0
    5.6215  -22.7997   20.5708 N   0  0  0  0  0  0  0  0  0  0  0  0
    8.8093  -17.1648   23.8977 C   0  0  0  0  0  0  0  0  0  0  0  0
   10.0605  -17.0390   23.9280 O   0  0  0  0  0  0  0  0  0  0  0  0
    5.9757  -10.7632   24.9861 O   0  0  0  0  0  0  0  0  0  0  0  0
    6.4135  -11.9641   25.5049 C   0  0  0  0  0  0  0  0  0  0  0  0
    5.5489  -12.9205   26.0027 C   0  0  0  0  0  0  0  0  0  0  0  0
    5.9972  -14.1183   26.5192 C   0  0  0  0  0  0  0  0  0  0  0  0
    7.3620  -14.4019   26.5537 C   0  0  0  0  0  0  0  0  0  0  0  0
    7.7704  -15.7002   27.1262 C   0  0  0  0  0  0  0  0  0  0  0  0
    8.7977  -16.4263   26.3030 C   0  0  2  0  0  0  0  0  0  0  0  0
    8.1053  -16.9287   25.1083 N   0  0  0  0  0  0  0  0  0  0  0  0
    9.3149  -17.5980   27.0382 C   0  0  0  0  0  0  0  0  0  0  0  0
   10.2137  -17.4406   28.0689 O   0  0  0  0  0  0  0  0  0  0  0  0
    8.2206  -13.4560   26.0614 C   0  0  0  0  0  0  0  0  0  0  0  0
    7.7563  -12.2443   25.5395 C   0  0  0  0  0  0  0  0  0  0  0  0
    8.9641  -18.7822   26.7623 O   0  0  0  0  0  0  0  0  0  0  0  0
  2  3  1  0
  2  1  1  6
  3  4  1  0
  4  5  1  0
  5  6  1  0
  7  6  1  0
  8  2  1  0
  9  8  2  0
 10  8  1  0
 11 17  1  0
 11 10  1  0
 11 12  1  6
 13 12  1  0
 13 14  1  0
 15 14  1  0
 15 16  1  0
 17 26  1  0
 18 17  2  0
 19 20  1  0
 20 30  2  0
 21 20  1  0
 21 22  2  0
 22 23  1  0
 23 29  2  0
 23 24  1  0
 25 27  1  0
 25 24  1  1
 26 25  1  0
 27 31  2  0
 27 28  1  0
 30 29  1  0
M  END
$$$$
