KKY.pdb
     RDKit          3D

 31 31  0  0  1  0  0  0  0  0999 V2000
    5.7154  -20.4553   21.3708 N   0  0  0  0  0  0  0  0  0  0  0  0
    5.6020  -19.4270   22.3632 C   0  0  1  0  0  0  0  0  0  0  0  0
    5.8852  -19.9773   23.7250 C   0  0  0  0  0  0  0  0  0  0  0  0
    5.3774  -21.3675   23.9276 C   0  0  0  0  0  0  0  0  0  0  0  0
    5.5659  -21.8586   25.3461 C   0  0  0  0  0  0  0  0  0  0  0  0
    5.1182  -23.3016   25.4413 C   0  0  0  0  0  0  0  0  0  0  0  0
    5.4454  -23.9104   26.6984 N   0  0  0  0  0  0  0  0  0  0  0  0
    6.5953  -18.3296   22.1013 C   0  0  0  0  0  0  0  0  0  0  0  0
    7.8324  -18.5501   22.1289 O   0  0  0  0  0  0  0  0  0  0  0  0
    6.1691  -17.0003   21.8126 N   0  0  0  0  0  0  0  0  0  0  0  0
    7.0725  -15.8958   21.6523 C   0  0  1  0  0  0  0  0  0  0  0  0
    6.4643  -14.6860   21.0222 C   0  0  0  0  0  0  0  0  0  0  0  0
    7.4778  -13.6124   20.7023 C   0  0  0  0  0  0  0  0  0  0  0  0
    7.6315  -13.6173   19.1756 C   0  0  0  0  0  0  0  0  0  0  0  0
    8.5343  -12.4863   18.7313 C   0  0  0  0  0  0  0  0  0  0  0  0
    8.5336  -12.4953   17.2796 N   0  0  0  0  0  0  0  0  0  0  0  0
    7.7871  -15.5724   22.9242 C   0  0  0  0  0  0  0  0  0  0  0  0
    7.1667  -15.1103   23.9161 O   0  0  0  0  0  0  0  0  0  0  0  0
   10.7018  -14.6417   30.6242 O   0  0  0  0  0  0  0  0  0  0  0  0
   10.3468  -15.0433   29.3531 C   0  0  0  0  0  0  0  0  0  0  0  0
    9.7568  -14.1906   28.4394 C   0  0  0  0  0  0  0  0  0  0  0  0
    9.4058  -14.6024   27.1708 C   0  0  0  0  0  0  0  0  0  0  0  0
    9.6415  -15.9164   26.7680 C   0  0  0  0  0  0  0  0  0  0  0  0
    9.2342  -16.2891   25.3985 C   0  0  0  0  0  0  0  0  0  0  0  0
    9.8707  -15.4456   24.3291 C   0  0  2  0  0  0  0  0  0  0  0  0
    9.1859  -15.7699   23.0701 N   0  0  0  0  0  0  0  0  0  0  0  0
   11.2928  -15.8078   24.1634 C   0  0  0  0  0  0  0  0  0  0  0  0
   12.2630  -15.2229   24.9454 O   0  0  0  0  0  0  0  0  0  0  0  0
   10.2256  -16.7632   27.6713 C   0  0  0  0  0  0  0  0  0  0  0  0
   10.5781  -16.3362   28.9557 C   0  0  0  0  0  0  0  0  0  0  0  0
   11.6824  -16.6576   23.3104 O   0  0  0  0  0  0  0  0  0  0  0  0
  2  3  1  0
  2  1  1  6
  3  4  1  0
  4  5  1  0
  5  6  1  0
  7  6  1  0
  8  2  1  0
  9  8  2  0
 10  8  1  0
 11 17  1  0
 11 10  1  0
 11 12  1  1
 13 12  1  0
 13 14  1  0
 15 14  1  0
 15 16  1  0
 17 26  1  0
 18 17  2  0
 19 20  1  0
 20 30  2  0
 21 20  1  0
 21 22  2  0
 22 23  1  0
 23 29  2  0
 23 24  1  0
 25 27  1  0
 25 24  1  1
 26 25  1  0
 27 31  2  0
 27 28  1  0
 30 29  1  0
M  END
$$$$
