KKY.pdb
     RDKit          3D

 31 31  0  0  1  0  0  0  0  0999 V2000
    9.2107  -16.2716   17.2812 N   0  0  0  0  0  0  0  0  0  0  0  0
    8.9226  -15.1996   18.1884 C   0  0  1  0  0  0  0  0  0  0  0  0
    7.8453  -14.3202   17.6377 C   0  0  0  0  0  0  0  0  0  0  0  0
    7.4754  -14.6373   16.2255 C   0  0  0  0  0  0  0  0  0  0  0  0
    8.4333  -14.0364   15.2205 C   0  0  0  0  0  0  0  0  0  0  0  0
    7.8786  -14.2234   13.8244 C   0  0  0  0  0  0  0  0  0  0  0  0
    8.6845  -13.6053   12.8112 N   0  0  0  0  0  0  0  0  0  0  0  0
    8.4394  -15.7390   19.5056 C   0  0  0  0  0  0  0  0  0  0  0  0
    8.0819  -14.9698   20.4331 O   0  0  0  0  0  0  0  0  0  0  0  0
    8.3698  -17.1418   19.7491 N   0  0  0  0  0  0  0  0  0  0  0  0
    7.7981  -17.7125   20.9362 C   0  0  1  0  0  0  0  0  0  0  0  0
    8.0082  -19.1844   21.0776 C   0  0  0  0  0  0  0  0  0  0  0  0
    7.3789  -19.7548   22.3269 C   0  0  0  0  0  0  0  0  0  0  0  0
    7.6505  -21.2645   22.2858 C   0  0  0  0  0  0  0  0  0  0  0  0
    7.0407  -21.9446   23.4931 C   0  0  0  0  0  0  0  0  0  0  0  0
    7.5031  -23.3206   23.4767 N   0  0  0  0  0  0  0  0  0  0  0  0
    8.2021  -16.9630   22.1642 C   0  0  0  0  0  0  0  0  0  0  0  0
    9.4030  -16.9305   22.5372 O   0  0  0  0  0  0  0  0  0  0  0  0
    7.3810  -11.2108   28.9351 O   0  0  0  0  0  0  0  0  0  0  0  0
    7.2945  -11.9340   27.7636 C   0  0  0  0  0  0  0  0  0  0  0  0
    6.0887  -12.3501   27.2317 C   0  0  0  0  0  0  0  0  0  0  0  0
    6.0135  -13.0729   26.0594 C   0  0  0  0  0  0  0  0  0  0  0  0
    7.1751  -13.4099   25.3656 C   0  0  0  0  0  0  0  0  0  0  0  0
    7.0197  -14.1901   24.1218 C   0  0  0  0  0  0  0  0  0  0  0  0
    7.6721  -15.5436   24.1731 C   0  0  2  0  0  0  0  0  0  0  0  0
    7.2581  -16.2598   22.9587 N   0  0  0  0  0  0  0  0  0  0  0  0
    7.1740  -16.3138   25.3305 C   0  0  0  0  0  0  0  0  0  0  0  0
    7.8761  -16.3369   26.5144 O   0  0  0  0  0  0  0  0  0  0  0  0
    8.3709  -12.9990   25.8907 C   0  0  0  0  0  0  0  0  0  0  0  0
    8.4371  -12.2663   27.0801 C   0  0  0  0  0  0  0  0  0  0  0  0
    6.0976  -16.9781   25.2920 O   0  0  0  0  0  0  0  0  0  0  0  0
  2  3  1  0
  2  1  1  6
  3  4  1  0
  4  5  1  0
  5  6  1  0
  7  6  1  0
  8  2  1  0
  9  8  2  0
 10  8  1  0
 11 17  1  0
 11 10  1  0
 11 12  1  1
 13 12  1  0
 13 14  1  0
 15 14  1  0
 15 16  1  0
 17 26  1  0
 18 17  2  0
 19 20  1  0
 20 30  2  0
 21 20  1  0
 21 22  2  0
 22 23  1  0
 23 29  2  0
 23 24  1  0
 25 27  1  0
 25 24  1  6
 26 25  1  0
 27 31  2  0
 27 28  1  0
 30 29  1  0
M  END
$$$$
