KKY.pdb
     RDKit          3D

 31 31  0  0  1  0  0  0  0  0999 V2000
    4.7145  -18.0578   22.3304 N   0  0  0  0  0  0  0  0  0  0  0  0
    6.0147  -18.6580   22.2655 C   0  0  1  0  0  0  0  0  0  0  0  0
    6.0761  -19.6607   21.1572 C   0  0  0  0  0  0  0  0  0  0  0  0
    5.1609  -20.8254   21.3507 C   0  0  0  0  0  0  0  0  0  0  0  0
    5.7608  -22.1277   20.8683 C   0  0  0  0  0  0  0  0  0  0  0  0
    4.7598  -23.2457   21.0678 C   0  0  0  0  0  0  0  0  0  0  0  0
    5.2869  -24.5385   20.7375 N   0  0  0  0  0  0  0  0  0  0  0  0
    7.0635  -17.6160   21.9937 C   0  0  0  0  0  0  0  0  0  0  0  0
    8.2760  -17.9264   21.8788 O   0  0  0  0  0  0  0  0  0  0  0  0
    6.7198  -16.2394   21.8570 N   0  0  0  0  0  0  0  0  0  0  0  0
    7.6901  -15.1910   21.7120 C   0  0  1  0  0  0  0  0  0  0  0  0
    7.2045  -13.9996   20.9536 C   0  0  0  0  0  0  0  0  0  0  0  0
    6.8137  -14.3227   19.5306 C   0  0  0  0  0  0  0  0  0  0  0  0
    7.8124  -13.5747   18.6375 C   0  0  0  0  0  0  0  0  0  0  0  0
    7.5092  -13.8295   17.1763 C   0  0  0  0  0  0  0  0  0  0  0  0
    8.4789  -13.0694   16.4086 N   0  0  0  0  0  0  0  0  0  0  0  0
    8.3041  -14.8161   23.0217 C   0  0  0  0  0  0  0  0  0  0  0  0
    7.8170  -13.8937   23.7248 O   0  0  0  0  0  0  0  0  0  0  0  0
   10.7923  -15.1259   31.2265 O   0  0  0  0  0  0  0  0  0  0  0  0
   10.3503  -15.2231   29.9234 C   0  0  0  0  0  0  0  0  0  0  0  0
   10.3071  -16.4227   29.2384 C   0  0  0  0  0  0  0  0  0  0  0  0
    9.8632  -16.5087   27.9353 C   0  0  0  0  0  0  0  0  0  0  0  0
    9.4377  -15.3650   27.2608 C   0  0  0  0  0  0  0  0  0  0  0  0
    8.9818  -15.5306   25.8662 C   0  0  0  0  0  0  0  0  0  0  0  0
   10.0100  -15.1331   24.8440 C   0  0  2  0  0  0  0  0  0  0  0  0
    9.4543  -15.4775   23.5280 N   0  0  0  0  0  0  0  0  0  0  0  0
   11.2461  -15.9217   25.0207 C   0  0  0  0  0  0  0  0  0  0  0  0
   12.3097  -15.4120   25.7305 O   0  0  0  0  0  0  0  0  0  0  0  0
    9.4797  -14.1754   27.9371 C   0  0  0  0  0  0  0  0  0  0  0  0
    9.9314  -14.0982   29.2585 C   0  0  0  0  0  0  0  0  0  0  0  0
   11.3860  -17.0829   24.5374 O   0  0  0  0  0  0  0  0  0  0  0  0
  2  3  1  0
  2  1  1  6
  3  4  1  0
  4  5  1  0
  5  6  1  0
  7  6  1  0
  8  2  1  0
  9  8  2  0
 10  8  1  0
 11 17  1  0
 11 10  1  0
 11 12  1  1
 13 12  1  0
 13 14  1  0
 15 14  1  0
 15 16  1  0
 17 26  1  0
 18 17  2  0
 19 20  1  0
 20 30  2  0
 21 20  1  0
 21 22  2  0
 22 23  1  0
 23 29  2  0
 23 24  1  0
 25 27  1  0
 25 24  1  1
 26 25  1  0
 27 31  2  0
 27 28  1  0
 30 29  1  0
M  END
$$$$
