KKY.pdb
     RDKit          3D

 31 31  0  0  1  0  0  0  0  0999 V2000
    9.5902  -15.9470   20.0495 N   0  0  0  0  0  0  0  0  0  0  0  0
    8.9086  -14.9343   20.8010 C   0  0  1  0  0  0  0  0  0  0  0  0
    7.8178  -14.3180   19.9839 C   0  0  0  0  0  0  0  0  0  0  0  0
    7.9991  -14.4935   18.5115 C   0  0  0  0  0  0  0  0  0  0  0  0
    7.3668  -13.3793   17.7069 C   0  0  0  0  0  0  0  0  0  0  0  0
    7.5806  -13.6420   16.2314 C   0  0  0  0  0  0  0  0  0  0  0  0
    6.8791  -12.7175   15.3879 N   0  0  0  0  0  0  0  0  0  0  0  0
    8.2766  -15.5253   22.0302 C   0  0  0  0  0  0  0  0  0  0  0  0
    7.5584  -14.8300   22.7922 O   0  0  0  0  0  0  0  0  0  0  0  0
    8.4696  -16.8950   22.3748 N   0  0  0  0  0  0  0  0  0  0  0  0
    7.9776  -17.4835   23.5885 C   0  0  1  0  0  0  0  0  0  0  0  0
    7.8944  -18.9745   23.5632 C   0  0  0  0  0  0  0  0  0  0  0  0
    6.7711  -19.4900   22.6945 C   0  0  0  0  0  0  0  0  0  0  0  0
    6.9107  -21.0180   22.6850 C   0  0  0  0  0  0  0  0  0  0  0  0
    5.8564  -21.6400   21.7944 C   0  0  0  0  0  0  0  0  0  0  0  0
    6.0008  -23.0793   21.9167 N   0  0  0  0  0  0  0  0  0  0  0  0
    8.7104  -16.9783   24.7888 C   0  0  0  0  0  0  0  0  0  0  0  0
    9.9482  -16.7589   24.7470 O   0  0  0  0  0  0  0  0  0  0  0  0
    6.7123  -10.5901   24.8669 O   0  0  0  0  0  0  0  0  0  0  0  0
    6.9812  -11.7250   25.6035 C   0  0  0  0  0  0  0  0  0  0  0  0
    8.2534  -12.2513   25.7243 C   0  0  0  0  0  0  0  0  0  0  0  0
    8.5113  -13.3868   26.4636 C   0  0  0  0  0  0  0  0  0  0  0  0
    7.4747  -14.0473   27.1221 C   0  0  0  0  0  0  0  0  0  0  0  0
    7.8228  -15.2597   27.8895 C   0  0  0  0  0  0  0  0  0  0  0  0
    8.7761  -16.1747   27.1724 C   0  0  2  0  0  0  0  0  0  0  0  0
    8.0492  -16.7250   26.0199 N   0  0  0  0  0  0  0  0  0  0  0  0
    9.1532  -17.3098   28.0386 C   0  0  0  0  0  0  0  0  0  0  0  0
   10.0015  -17.1272   29.1073 O   0  0  0  0  0  0  0  0  0  0  0  0
    6.2135  -13.5280   27.0038 C   0  0  0  0  0  0  0  0  0  0  0  0
    5.9618  -12.3758   26.2519 C   0  0  0  0  0  0  0  0  0  0  0  0
    8.7233  -18.4842   27.8450 O   0  0  0  0  0  0  0  0  0  0  0  0
  2  3  1  0
  2  1  1  6
  3  4  1  0
  4  5  1  0
  5  6  1  0
  7  6  1  0
  8  2  1  0
  9  8  2  0
 10  8  1  0
 11 17  1  0
 11 10  1  0
 11 12  1  6
 13 12  1  0
 13 14  1  0
 15 14  1  0
 15 16  1  0
 17 26  1  0
 18 17  2  0
 19 20  1  0
 20 30  2  0
 21 20  1  0
 21 22  2  0
 22 23  1  0
 23 29  2  0
 23 24  1  0
 25 27  1  0
 25 24  1  1
 26 25  1  0
 27 31  2  0
 27 28  1  0
 30 29  1  0
M  END
$$$$
