KKY.pdb
     RDKit          3D

 31 31  0  0  1  0  0  0  0  0999 V2000
    5.4079  -20.2931   22.4892 N   0  0  0  0  0  0  0  0  0  0  0  0
    5.5781  -19.1759   23.3713 C   0  0  1  0  0  0  0  0  0  0  0  0
    6.0160  -19.6370   24.7252 C   0  0  0  0  0  0  0  0  0  0  0  0
    6.0284  -21.1230   24.8777 C   0  0  0  0  0  0  0  0  0  0  0  0
    6.5586  -21.5690   26.2226 C   0  0  0  0  0  0  0  0  0  0  0  0
    6.6215  -23.0811   26.2610 C   0  0  0  0  0  0  0  0  0  0  0  0
    7.2121  -23.5893   27.4656 N   0  0  0  0  0  0  0  0  0  0  0  0
    6.6342  -18.2447   22.8451 C   0  0  0  0  0  0  0  0  0  0  0  0
    7.8521  -18.5530   22.8824 O   0  0  0  0  0  0  0  0  0  0  0  0
    6.2916  -16.9792   22.2855 N   0  0  0  0  0  0  0  0  0  0  0  0
    7.2632  -16.0014   21.8836 C   0  0  1  0  0  0  0  0  0  0  0  0
    6.7268  -14.9241   20.9990 C   0  0  0  0  0  0  0  0  0  0  0  0
    7.8044  -14.0213   20.4458 C   0  0  0  0  0  0  0  0  0  0  0  0
    7.4902  -13.8532   18.9533 C   0  0  0  0  0  0  0  0  0  0  0  0
    8.5319  -12.9785   18.2888 C   0  0  0  0  0  0  0  0  0  0  0  0
    8.1662  -12.8829   16.8871 N   0  0  0  0  0  0  0  0  0  0  0  0
    8.0155  -15.4516   23.0518 C   0  0  0  0  0  0  0  0  0  0  0  0
    7.4870  -14.6123   23.8255 O   0  0  0  0  0  0  0  0  0  0  0  0
    5.2791  -11.9648   27.0638 O   0  0  0  0  0  0  0  0  0  0  0  0
    6.2733  -12.8639   26.7383 C   0  0  0  0  0  0  0  0  0  0  0  0
    7.5175  -12.4679   26.2853 C   0  0  0  0  0  0  0  0  0  0  0  0
    8.5047  -13.3754   25.9626 C   0  0  0  0  0  0  0  0  0  0  0  0
    8.2693  -14.7441   26.0872 C   0  0  0  0  0  0  0  0  0  0  0  0
    9.3689  -15.6576   25.7179 C   0  0  0  0  0  0  0  0  0  0  0  0
   10.0906  -15.2562   24.4615 C   0  0  2  0  0  0  0  0  0  0  0  0
    9.3486  -15.8476   23.3394 N   0  0  0  0  0  0  0  0  0  0  0  0
   11.4512  -15.8298   24.4415 C   0  0  0  0  0  0  0  0  0  0  0  0
   11.8005  -16.7788   23.5074 O   0  0  0  0  0  0  0  0  0  0  0  0
    7.0374  -15.1390   26.5355 C   0  0  0  0  0  0  0  0  0  0  0  0
    6.0426  -14.2111   26.8604 C   0  0  0  0  0  0  0  0  0  0  0  0
   12.3465  -15.4840   25.2664 O   0  0  0  0  0  0  0  0  0  0  0  0
  2  3  1  0
  2  1  1  6
  3  4  1  0
  4  5  1  0
  5  6  1  0
  7  6  1  0
  8  2  1  0
  9  8  2  0
 10  8  1  0
 11 17  1  0
 11 10  1  0
 11 12  1  1
 13 12  1  0
 13 14  1  0
 15 14  1  0
 15 16  1  0
 17 26  1  0
 18 17  2  0
 19 20  1  0
 20 30  2  0
 21 20  1  0
 21 22  2  0
 22 23  1  0
 23 29  2  0
 23 24  1  0
 25 27  1  0
 25 24  1  1
 26 25  1  0
 27 31  2  0
 27 28  1  0
 30 29  1  0
M  END
$$$$
