KKY.pdb
     RDKit          3D

 31 31  0  0  1  0  0  0  0  0999 V2000
    9.6293  -16.3066   17.2543 N   0  0  0  0  0  0  0  0  0  0  0  0
    9.3556  -15.1747   18.0903 C   0  0  1  0  0  0  0  0  0  0  0  0
    8.2889  -14.3191   17.4840 C   0  0  0  0  0  0  0  0  0  0  0  0
    8.0605  -14.5844   16.0317 C   0  0  0  0  0  0  0  0  0  0  0  0
    7.5214  -13.3785   15.2941 C   0  0  0  0  0  0  0  0  0  0  0  0
    7.1429  -13.7803   13.8845 C   0  0  0  0  0  0  0  0  0  0  0  0
    6.6944  -12.6761   13.0860 N   0  0  0  0  0  0  0  0  0  0  0  0
    8.8669  -15.6216   19.4397 C   0  0  0  0  0  0  0  0  0  0  0  0
    8.6087  -14.7911   20.3472 O   0  0  0  0  0  0  0  0  0  0  0  0
    8.6793  -17.0029   19.7377 N   0  0  0  0  0  0  0  0  0  0  0  0
    8.1684  -17.4807   20.9916 C   0  0  1  0  0  0  0  0  0  0  0  0
    7.7912  -18.9258   20.9952 C   0  0  0  0  0  0  0  0  0  0  0  0
    7.1519  -19.3675   22.2908 C   0  0  0  0  0  0  0  0  0  0  0  0
    6.7244  -20.8254   22.0760 C   0  0  0  0  0  0  0  0  0  0  0  0
    6.0260  -21.3588   23.3087 C   0  0  0  0  0  0  0  0  0  0  0  0
    5.6107  -22.7154   23.0008 N   0  0  0  0  0  0  0  0  0  0  0  0
    9.0697  -17.1286   22.1302 C   0  0  0  0  0  0  0  0  0  0  0  0
   10.2776  -17.4797   22.1325 O   0  0  0  0  0  0  0  0  0  0  0  0
   10.9574  -14.0040   30.3377 O   0  0  0  0  0  0  0  0  0  0  0  0
   10.4597  -14.2356   29.0721 C   0  0  0  0  0  0  0  0  0  0  0  0
    9.3672  -13.5579   28.5651 C   0  0  0  0  0  0  0  0  0  0  0  0
    8.8776  -13.7972   27.2980 C   0  0  0  0  0  0  0  0  0  0  0  0
    9.4840  -14.7482   26.4783 C   0  0  0  0  0  0  0  0  0  0  0  0
    8.9029  -14.9566   25.1370 C   0  0  0  0  0  0  0  0  0  0  0  0
    9.4829  -16.1345   24.4045 C   0  0  2  0  0  0  0  0  0  0  0  0
    8.6086  -16.3884   23.2511 N   0  0  0  0  0  0  0  0  0  0  0  0
    9.4498  -17.3402   25.2566 C   0  0  0  0  0  0  0  0  0  0  0  0
    8.2646  -17.9966   25.5004 O   0  0  0  0  0  0  0  0  0  0  0  0
   10.5664  -15.4212   26.9783 C   0  0  0  0  0  0  0  0  0  0  0  0
   11.0556  -15.1715   28.2646 C   0  0  0  0  0  0  0  0  0  0  0  0
   10.4897  -17.8205   25.7947 O   0  0  0  0  0  0  0  0  0  0  0  0
  2  3  1  0
  2  1  1  6
  3  4  1  0
  4  5  1  0
  5  6  1  0
  7  6  1  0
  8  2  1  0
  9  8  2  0
 10  8  1  0
 11 17  1  0
 11 10  1  0
 11 12  1  6
 13 12  1  0
 13 14  1  0
 15 14  1  0
 15 16  1  0
 17 26  1  0
 18 17  2  0
 19 20  1  0
 20 30  2  0
 21 20  1  0
 21 22  2  0
 22 23  1  0
 23 29  2  0
 23 24  1  0
 25 27  1  0
 25 24  1  1
 26 25  1  0
 27 31  2  0
 27 28  1  0
 30 29  1  0
M  END
$$$$
