KKY.pdb
     RDKit          3D

 31 31  0  0  1  0  0  0  0  0999 V2000
    8.4631  -16.4836   18.3720 N   0  0  0  0  0  0  0  0  0  0  0  0
    8.4994  -15.2638   19.1241 C   0  0  1  0  0  0  0  0  0  0  0  0
    7.8316  -14.1597   18.3675 C   0  0  0  0  0  0  0  0  0  0  0  0
    7.7002  -14.4295   16.9041 C   0  0  0  0  0  0  0  0  0  0  0  0
    8.0342  -13.2234   16.0541 C   0  0  0  0  0  0  0  0  0  0  0  0
    7.6853  -13.5147   14.6102 C   0  0  0  0  0  0  0  0  0  0  0  0
    8.0616  -12.4577   13.7161 N   0  0  0  0  0  0  0  0  0  0  0  0
    7.7699  -15.4264   20.4283 C   0  0  0  0  0  0  0  0  0  0  0  0
    7.6753  -14.4757   21.2450 O   0  0  0  0  0  0  0  0  0  0  0  0
    7.1598  -16.6645   20.7846 N   0  0  0  0  0  0  0  0  0  0  0  0
    6.5063  -16.8927   22.0426 C   0  0  1  0  0  0  0  0  0  0  0  0
    5.5749  -18.0601   22.0527 C   0  0  0  0  0  0  0  0  0  0  0  0
    4.3022  -17.8086   21.2785 C   0  0  0  0  0  0  0  0  0  0  0  0
    3.4861  -19.1046   21.3737 C   0  0  0  0  0  0  0  0  0  0  0  0
    2.1751  -18.9597   20.6308 C   0  0  0  0  0  0  0  0  0  0  0  0
    1.5543  -20.2719   20.6171 N   0  0  0  0  0  0  0  0  0  0  0  0
    7.4797  -16.9361   23.1755 C   0  0  0  0  0  0  0  0  0  0  0  0
    8.4951  -17.6770   23.1289 O   0  0  0  0  0  0  0  0  0  0  0  0
   11.4027  -14.8242   30.8457 O   0  0  0  0  0  0  0  0  0  0  0  0
   10.6860  -14.8364   29.6671 C   0  0  0  0  0  0  0  0  0  0  0  0
   11.1133  -15.5153   28.5417 C   0  0  0  0  0  0  0  0  0  0  0  0
   10.3888  -15.5211   27.3681 C   0  0  0  0  0  0  0  0  0  0  0  0
    9.1817  -14.8283   27.2839 C   0  0  0  0  0  0  0  0  0  0  0  0
    8.4629  -14.8728   25.9949 C   0  0  0  0  0  0  0  0  0  0  0  0
    8.2282  -16.2667   25.4827 C   0  0  2  0  0  0  0  0  0  0  0  0
    7.3049  -16.1503   24.3455 N   0  0  0  0  0  0  0  0  0  0  0  0
    7.5597  -17.0893   26.5110 C   0  0  0  0  0  0  0  0  0  0  0  0
    8.2912  -17.9086   27.3409 O   0  0  0  0  0  0  0  0  0  0  0  0
    8.7562  -14.1548   28.3974 C   0  0  0  0  0  0  0  0  0  0  0  0
    9.4979  -14.1549   29.5831 C   0  0  0  0  0  0  0  0  0  0  0  0
    6.3051  -17.0820   26.6769 O   0  0  0  0  0  0  0  0  0  0  0  0
  2  3  1  0
  2  1  1  6
  3  4  1  0
  4  5  1  0
  5  6  1  0
  7  6  1  0
  8  2  1  0
  9  8  2  0
 10  8  1  0
 11 17  1  0
 11 10  1  0
 11 12  1  6
 13 12  1  0
 13 14  1  0
 15 14  1  0
 15 16  1  0
 17 26  1  0
 18 17  2  0
 19 20  1  0
 20 30  2  0
 21 20  1  0
 21 22  2  0
 22 23  1  0
 23 29  2  0
 23 24  1  0
 25 27  1  0
 25 24  1  1
 26 25  1  0
 27 31  2  0
 27 28  1  0
 30 29  1  0
M  END
$$$$
