CHT.pdb
     RDKit          3D

 24 24  0  0  1  0  0  0  0  0999 V2000
   16.2040  -13.0045  -16.2220 N   0  0  0  0  0  0  0  0  0  0  0  0
   15.6373  -11.7003  -16.4916 C   0  0  1  0  0  0  0  0  0  0  0  0
   14.2178  -11.6907  -15.9998 C   0  0  0  0  0  0  0  0  0  0  0  0
   13.2347  -12.6563  -17.2094 S   0  0  0  0  0  0  0  0  0  0  0  0
   16.4655  -10.6332  -15.9215 C   0  0  0  0  0  0  0  0  0  0  0  0
   16.9203  -10.7834  -14.7536 O   0  0  0  0  0  0  0  0  0  0  0  0
   16.8022   -9.4321  -16.5810 N   0  0  0  0  0  0  0  0  0  0  0  0
   17.7300   -8.4614  -16.0870 C   0  0  1  0  0  0  0  0  0  0  0  0
   19.0527   -8.5371  -16.8621 C   0  0  0  0  0  0  0  0  0  0  0  0
   19.7601   -9.8119  -16.5939 C   0  0  0  0  0  0  0  0  0  0  0  0
   20.3602  -10.1739  -15.3840 C   0  0  0  0  0  0  0  0  0  0  0  0
   20.9040  -11.3975  -15.5105 N   0  0  0  0  0  0  0  0  0  0  0  0
   20.6627  -11.8265  -16.7816 C   0  0  0  0  0  0  0  0  0  0  0  0
   19.9760  -10.8578  -17.4090 N   0  0  0  0  0  0  0  0  0  0  0  0
   17.2426   -7.0682  -16.2266 C   0  0  0  0  0  0  0  0  0  0  0  0
   16.8752   -6.7139  -17.3846 O   0  0  0  0  0  0  0  0  0  0  0  0
   14.4182   -5.3040  -14.0181 C   0  0  0  0  0  0  0  0  0  0  0  0
   15.6623   -4.4862  -14.1658 C   0  0  1  0  0  0  0  0  0  0  0  0
   16.4221   -4.4392  -12.9988 O   0  0  0  0  0  0  0  0  0  0  0  0
   16.4833   -4.8916  -15.3693 C   0  0  2  0  0  0  0  0  0  0  0  0
   17.1659   -6.1418  -15.1786 N   0  0  0  0  0  0  0  0  0  0  0  0
   17.4351   -3.7961  -15.6975 C   0  0  0  0  0  0  0  0  0  0  0  0
   16.9173   -2.5747  -16.1493 O   0  0  0  0  0  0  0  0  0  0  0  0
   18.6635   -3.9953  -15.5617 O   0  0  0  0  0  0  0  0  0  0  0  0
  2  5  1  0
  2  1  1  1
  3  2  1  0
  4  3  1  0
  5  6  2  0
  7  8  1  0
  7  5  1  0
  9 10  1  0
  8  9  1  6
 10 14  1  0
 11 12  1  0
 11 10  2  0
 12 13  1  0
 13 14  2  0
 15  8  1  0
 15 21  1  0
 16 15  2  0
 18 17  1  1
 19 18  1  0
 20 21  1  1
 20 18  1  0
 22 20  1  0
 23 22  1  0
 24 22  2  0
M  END
$$$$
