CHT.pdb
     RDKit          3D

 24 24  0  0  1  0  0  0  0  0999 V2000
   22.0494  -12.8560  -17.5910 N   0  0  0  0  0  0  0  0  0  0  0  0
   22.3664  -11.9199  -16.5337 C   0  0  1  0  0  0  0  0  0  0  0  0
   23.8561  -11.9119  -16.3402 C   0  0  0  0  0  0  0  0  0  0  0  0
   24.2314  -13.1961  -15.0865 S   0  0  0  0  0  0  0  0  0  0  0  0
   21.8010  -10.5956  -16.8097 C   0  0  0  0  0  0  0  0  0  0  0  0
   21.8874  -10.1369  -17.9825 O   0  0  0  0  0  0  0  0  0  0  0  0
   21.1574   -9.7775  -15.8571 N   0  0  0  0  0  0  0  0  0  0  0  0
   20.5805   -8.4981  -16.1358 C   0  0  1  0  0  0  0  0  0  0  0  0
   19.0863   -8.4927  -15.7844 C   0  0  0  0  0  0  0  0  0  0  0  0
   18.3052   -9.3052  -16.7473 C   0  0  0  0  0  0  0  0  0  0  0  0
   17.7890  -10.5825  -16.5080 C   0  0  0  0  0  0  0  0  0  0  0  0
   17.1390  -11.0080  -17.6058 N   0  0  0  0  0  0  0  0  0  0  0  0
   17.2297  -10.0248  -18.5456 C   0  0  0  0  0  0  0  0  0  0  0  0
   17.9332   -9.0164  -18.0055 N   0  0  0  0  0  0  0  0  0  0  0  0
   21.1979   -7.3998  -15.3544 C   0  0  0  0  0  0  0  0  0  0  0  0
   21.5522   -7.6803  -14.1723 O   0  0  0  0  0  0  0  0  0  0  0  0
   24.4512   -5.7019  -15.9109 C   0  0  0  0  0  0  0  0  0  0  0  0
   23.3910   -4.6541  -15.7819 C   0  0  1  0  0  0  0  0  0  0  0  0
   23.0761   -4.0488  -16.9968 O   0  0  0  0  0  0  0  0  0  0  0  0
   22.1635   -5.1575  -15.0563 C   0  0  2  0  0  0  0  0  0  0  0  0
   21.4078   -6.1005  -15.8341 N   0  0  0  0  0  0  0  0  0  0  0  0
   21.3295   -3.9940  -14.6507 C   0  0  0  0  0  0  0  0  0  0  0  0
   20.0755   -3.8286  -15.2542 O   0  0  0  0  0  0  0  0  0  0  0  0
   21.7688   -3.2010  -13.7875 O   0  0  0  0  0  0  0  0  0  0  0  0
  2  5  1  0
  2  1  1  6
  3  2  1  0
  4  3  1  0
  5  6  2  0
  7  8  1  0
  7  5  1  0
  9 10  1  0
  8  9  1  1
 10 14  1  0
 11 12  1  0
 11 10  2  0
 12 13  1  0
 13 14  2  0
 15  8  1  0
 15 21  1  0
 16 15  2  0
 18 17  1  6
 19 18  1  0
 20 21  1  6
 20 18  1  0
 22 20  1  0
 23 22  1  0
 24 22  2  0
M  END
$$$$
