CHT.pdb
     RDKit          3D

 24 24  0  0  1  0  0  0  0  0999 V2000
   25.0068  -12.4630  -17.5994 N   0  0  0  0  0  0  0  0  0  0  0  0
   25.0096  -11.6371  -16.4109 C   0  0  1  0  0  0  0  0  0  0  0  0
   26.3822  -11.0491  -16.2469 C   0  0  0  0  0  0  0  0  0  0  0  0
   27.4744  -12.4100  -15.6836 S   0  0  0  0  0  0  0  0  0  0  0  0
   23.9410  -10.6344  -16.4584 C   0  0  0  0  0  0  0  0  0  0  0  0
   23.7027  -10.0606  -17.5572 O   0  0  0  0  0  0  0  0  0  0  0  0
   23.1433  -10.2511  -15.3594 N   0  0  0  0  0  0  0  0  0  0  0  0
   22.0610   -9.3174  -15.4221 C   0  0  1  0  0  0  0  0  0  0  0  0
   20.8631   -9.8258  -14.6078 C   0  0  0  0  0  0  0  0  0  0  0  0
   20.1432  -10.9034  -15.3275 C   0  0  0  0  0  0  0  0  0  0  0  0
   20.4623  -11.3911  -16.5985 C   0  0  0  0  0  0  0  0  0  0  0  0
   19.5940  -12.3639  -16.9281 N   0  0  0  0  0  0  0  0  0  0  0  0
   18.7231  -12.5084  -15.8895 C   0  0  0  0  0  0  0  0  0  0  0  0
   19.0745  -11.6217  -14.9442 N   0  0  0  0  0  0  0  0  0  0  0  0
   22.4087   -7.9869  -14.8680 C   0  0  0  0  0  0  0  0  0  0  0  0
   22.9720   -7.9789  -13.7348 O   0  0  0  0  0  0  0  0  0  0  0  0
   24.0458   -4.9268  -16.9792 C   0  0  0  0  0  0  0  0  0  0  0  0
   22.9637   -4.5081  -16.0347 C   0  0  1  0  0  0  0  0  0  0  0  0
   21.8016   -4.1017  -16.6872 O   0  0  0  0  0  0  0  0  0  0  0  0
   22.6907   -5.5457  -14.9691 C   0  0  2  0  0  0  0  0  0  0  0  0
   22.1574   -6.7665  -15.5082 N   0  0  0  0  0  0  0  0  0  0  0  0
   21.7838   -4.9610  -13.9448 C   0  0  0  0  0  0  0  0  0  0  0  0
   22.2849   -3.9585  -13.1034 O   0  0  0  0  0  0  0  0  0  0  0  0
   20.6063   -5.3783  -13.8641 O   0  0  0  0  0  0  0  0  0  0  0  0
  2  5  1  0
  2  1  1  6
  3  2  1  0
  4  3  1  0
  5  6  2  0
  7  8  1  0
  7  5  1  0
  9 10  1  0
  8  9  1  1
 10 14  1  0
 11 12  1  0
 11 10  2  0
 12 13  1  0
 13 14  2  0
 15  8  1  0
 15 21  1  0
 16 15  2  0
 18 17  1  6
 19 18  1  0
 20 21  1  6
 20 18  1  0
 22 20  1  0
 23 22  1  0
 24 22  2  0
M  END
$$$$
