CHT.pdb
     RDKit          3D

 24 24  0  0  1  0  0  0  0  0999 V2000
   25.8672  -24.0798  -16.2989 N   0  0  0  0  0  0  0  0  0  0  0  0
   27.0737  -24.1537  -17.0950 C   0  0  1  0  0  0  0  0  0  0  0  0
   28.0017  -23.0595  -16.6499 C   0  0  0  0  0  0  0  0  0  0  0  0
   27.6457  -21.6043  -17.7071 S   0  0  0  0  0  0  0  0  0  0  0  0
   27.6689  -25.4922  -17.0342 C   0  0  0  0  0  0  0  0  0  0  0  0
   27.7213  -26.0772  -15.9169 O   0  0  0  0  0  0  0  0  0  0  0  0
   28.1970  -26.1925  -18.1395 N   0  0  0  0  0  0  0  0  0  0  0  0
   28.7349  -27.5173  -18.0857 C   0  0  1  0  0  0  0  0  0  0  0  0
   27.7618  -28.5200  -18.7213 C   0  0  0  0  0  0  0  0  0  0  0  0
   26.6547  -28.8554  -17.7942 C   0  0  0  0  0  0  0  0  0  0  0  0
   26.7225  -29.7691  -16.7380 C   0  0  0  0  0  0  0  0  0  0  0  0
   25.5305  -29.8137  -16.1167 N   0  0  0  0  0  0  0  0  0  0  0  0
   24.6991  -28.9437  -16.7569 C   0  0  0  0  0  0  0  0  0  0  0  0
   25.3975  -28.3832  -17.7576 N   0  0  0  0  0  0  0  0  0  0  0  0
   30.0156  -27.6546  -18.8200 C   0  0  0  0  0  0  0  0  0  0  0  0
   30.2331  -26.8080  -19.7351 O   0  0  0  0  0  0  0  0  0  0  0  0
   32.9392  -30.7900  -18.2317 C   0  0  0  0  0  0  0  0  0  0  0  0
   33.3181  -29.3813  -18.5638 C   0  0  1  0  0  0  0  0  0  0  0  0
   34.5427  -29.2899  -19.2221 O   0  0  0  0  0  0  0  0  0  0  0  0
   32.2185  -28.6413  -19.2918 C   0  0  2  0  0  0  0  0  0  0  0  0
   30.9770  -28.6417  -18.5679 N   0  0  0  0  0  0  0  0  0  0  0  0
   32.0570  -29.2275  -20.6497 C   0  0  0  0  0  0  0  0  0  0  0  0
   30.8678  -29.9069  -20.9467 O   0  0  0  0  0  0  0  0  0  0  0  0
   32.9821  -29.0981  -21.4831 O   0  0  0  0  0  0  0  0  0  0  0  0
  2  5  1  0
  2  1  1  1
  3  2  1  0
  4  3  1  0
  5  6  2  0
  7  8  1  0
  7  5  1  0
  9 10  1  0
  8  9  1  6
 10 14  1  0
 11 12  1  0
 11 10  2  0
 12 13  1  0
 13 14  2  0
 15  8  1  0
 15 21  1  0
 16 15  2  0
 18 17  1  6
 19 18  1  0
 20 21  1  1
 20 18  1  0
 22 20  1  0
 23 22  1  0
 24 22  2  0
M  END
$$$$
