CHT.pdb
     RDKit          3D

 24 24  0  0  1  0  0  0  0  0999 V2000
   22.7014  -12.4535  -17.4896 N   0  0  0  0  0  0  0  0  0  0  0  0
   23.2135  -11.5536  -16.4782 C   0  0  1  0  0  0  0  0  0  0  0  0
   24.6730  -11.3208  -16.7477 C   0  0  0  0  0  0  0  0  0  0  0  0
   25.5748  -12.7486  -16.0334 S   0  0  0  0  0  0  0  0  0  0  0  0
   22.4223  -10.3209  -16.4143 C   0  0  0  0  0  0  0  0  0  0  0  0
   22.0790   -9.7694  -17.4966 O   0  0  0  0  0  0  0  0  0  0  0  0
   22.0057   -9.6892  -15.2233 N   0  0  0  0  0  0  0  0  0  0  0  0
   21.1175   -8.5693  -15.1605 C   0  0  1  0  0  0  0  0  0  0  0  0
   19.9518   -8.8590  -14.2047 C   0  0  0  0  0  0  0  0  0  0  0  0
   18.9917   -9.8168  -14.8035 C   0  0  0  0  0  0  0  0  0  0  0  0
   18.4523   -9.7349  -16.0909 C   0  0  0  0  0  0  0  0  0  0  0  0
   17.6212  -10.7739  -16.2873 N   0  0  0  0  0  0  0  0  0  0  0  0
   17.6186  -11.5210  -15.1472 C   0  0  0  0  0  0  0  0  0  0  0  0
   18.4478  -10.9255  -14.2747 N   0  0  0  0  0  0  0  0  0  0  0  0
   21.7717   -7.3363  -14.6604 C   0  0  0  0  0  0  0  0  0  0  0  0
   22.5353   -7.4705  -13.6602 O   0  0  0  0  0  0  0  0  0  0  0  0
   21.3400   -3.4131  -16.4108 C   0  0  0  0  0  0  0  0  0  0  0  0
   22.6219   -3.9139  -15.8239 C   0  0  1  0  0  0  0  0  0  0  0  0
   23.4589   -2.8868  -15.3930 O   0  0  0  0  0  0  0  0  0  0  0  0
   22.4003   -4.9604  -14.7549 C   0  0  2  0  0  0  0  0  0  0  0  0
   21.5996   -6.0615  -15.2151 N   0  0  0  0  0  0  0  0  0  0  0  0
   21.7979   -4.3114  -13.5594 C   0  0  0  0  0  0  0  0  0  0  0  0
   20.5266   -4.7286  -13.1425 O   0  0  0  0  0  0  0  0  0  0  0  0
   22.4396   -3.4169  -12.9635 O   0  0  0  0  0  0  0  0  0  0  0  0
  2  5  1  0
  2  1  1  6
  3  2  1  0
  4  3  1  0
  5  6  2  0
  7  8  1  0
  7  5  1  0
  9 10  1  0
  8  9  1  1
 10 14  1  0
 11 12  1  0
 11 10  2  0
 12 13  1  0
 13 14  2  0
 15  8  1  0
 15 21  1  0
 16 15  2  0
 18 17  1  1
 19 18  1  0
 20 21  1  6
 20 18  1  0
 22 20  1  0
 23 22  1  0
 24 22  2  0
M  END
$$$$
