CHT.pdb
     RDKit          3D

 24 24  0  0  1  0  0  0  0  0999 V2000
   21.9463  -13.8373  -16.1041 N   0  0  0  0  0  0  0  0  0  0  0  0
   21.2058  -12.7693  -16.7413 C   0  0  1  0  0  0  0  0  0  0  0  0
   19.7609  -13.1739  -16.8141 C   0  0  0  0  0  0  0  0  0  0  0  0
   19.6295  -14.4195  -18.1532 S   0  0  0  0  0  0  0  0  0  0  0  0
   21.4258  -11.4901  -16.0595 C   0  0  0  0  0  0  0  0  0  0  0  0
   21.3354  -11.4557  -14.8009 O   0  0  0  0  0  0  0  0  0  0  0  0
   21.7355  -10.2738  -16.7042 N   0  0  0  0  0  0  0  0  0  0  0  0
   21.9316   -9.0230  -16.0377 C   0  0  1  0  0  0  0  0  0  0  0  0
   23.2733   -8.3993  -16.4464 C   0  0  0  0  0  0  0  0  0  0  0  0
   24.4139   -9.1856  -15.9188 C   0  0  0  0  0  0  0  0  0  0  0  0
   24.4072   -9.9487  -14.7471 C   0  0  0  0  0  0  0  0  0  0  0  0
   25.6138  -10.5206  -14.5868 N   0  0  0  0  0  0  0  0  0  0  0  0
   26.3946  -10.1370  -15.6362 C   0  0  0  0  0  0  0  0  0  0  0  0
   25.6515   -9.3379  -16.4188 N   0  0  0  0  0  0  0  0  0  0  0  0
   20.8883   -8.0213  -16.3636 C   0  0  0  0  0  0  0  0  0  0  0  0
   20.5506   -7.9358  -17.5802 O   0  0  0  0  0  0  0  0  0  0  0  0
   17.3381   -4.8117  -15.1344 C   0  0  0  0  0  0  0  0  0  0  0  0
   18.3489   -5.8303  -14.7110 C   0  0  1  0  0  0  0  0  0  0  0  0
   17.7807   -6.9130  -14.0428 O   0  0  0  0  0  0  0  0  0  0  0  0
   19.2461   -6.2644  -15.8482 C   0  0  2  0  0  0  0  0  0  0  0  0
   20.2680   -7.1832  -15.4280 N   0  0  0  0  0  0  0  0  0  0  0  0
   19.8307   -5.0570  -16.4917 C   0  0  0  0  0  0  0  0  0  0  0  0
   19.0592   -4.3624  -17.4331 O   0  0  0  0  0  0  0  0  0  0  0  0
   20.9877   -4.6983  -16.1760 O   0  0  0  0  0  0  0  0  0  0  0  0
  2  5  1  0
  2  1  1  1
  3  2  1  0
  4  3  1  0
  5  6  2  0
  7  8  1  0
  7  5  1  0
  9 10  1  0
  8  9  1  6
 10 14  1  0
 11 12  1  0
 11 10  2  0
 12 13  1  0
 13 14  2  0
 15  8  1  0
 15 21  1  0
 16 15  2  0
 18 17  1  6
 19 18  1  0
 20 21  1  1
 20 18  1  0
 22 20  1  0
 23 22  1  0
 24 22  2  0
M  END
$$$$
