CHT.pdb
     RDKit          3D

 24 24  0  0  1  0  0  0  0  0999 V2000
   19.8841   -9.8669  -20.8836 N   0  0  0  0  0  0  0  0  0  0  0  0
   20.6922   -8.8509  -20.2437 C   0  0  1  0  0  0  0  0  0  0  0  0
   20.5173   -7.5634  -20.9975 C   0  0  0  0  0  0  0  0  0  0  0  0
   21.5673   -7.6833  -22.4959 S   0  0  0  0  0  0  0  0  0  0  0  0
   20.3789   -8.7447  -18.8154 C   0  0  0  0  0  0  0  0  0  0  0  0
   19.1717   -8.6082  -18.4727 O   0  0  0  0  0  0  0  0  0  0  0  0
   21.3307   -8.7831  -17.7744 N   0  0  0  0  0  0  0  0  0  0  0  0
   21.0264   -8.6393  -16.3838 C   0  0  1  0  0  0  0  0  0  0  0  0
   21.4689   -9.8851  -15.6038 C   0  0  0  0  0  0  0  0  0  0  0  0
   20.4633  -10.9694  -15.7084 C   0  0  0  0  0  0  0  0  0  0  0  0
   19.2295  -10.8787  -16.3599 C   0  0  0  0  0  0  0  0  0  0  0  0
   18.5855  -12.0543  -16.2498 N   0  0  0  0  0  0  0  0  0  0  0  0
   19.3859  -12.8977  -15.5384 C   0  0  0  0  0  0  0  0  0  0  0  0
   20.5042  -12.2228  -15.2266 N   0  0  0  0  0  0  0  0  0  0  0  0
   21.7140   -7.4862  -15.7549 C   0  0  0  0  0  0  0  0  0  0  0  0
   22.9717   -7.4404  -15.8872 O   0  0  0  0  0  0  0  0  0  0  0  0
   19.7384   -3.9979  -14.3478 C   0  0  0  0  0  0  0  0  0  0  0  0
   21.1697   -4.0282  -14.7824 C   0  0  1  0  0  0  0  0  0  0  0  0
   21.9125   -2.9630  -14.2775 O   0  0  0  0  0  0  0  0  0  0  0  0
   21.8279   -5.3636  -14.5175 C   0  0  2  0  0  0  0  0  0  0  0  0
   21.0707   -6.4678  -15.0397 N   0  0  0  0  0  0  0  0  0  0  0  0
   22.0616   -5.5068  -13.0552 C   0  0  0  0  0  0  0  0  0  0  0  0
   21.3443   -6.4877  -12.3572 O   0  0  0  0  0  0  0  0  0  0  0  0
   22.8870   -4.7517  -12.4934 O   0  0  0  0  0  0  0  0  0  0  0  0
  2  5  1  0
  2  1  1  6
  3  2  1  0
  4  3  1  0
  5  6  2  0
  7  8  1  0
  7  5  1  0
  9 10  1  0
  8  9  1  1
 10 14  1  0
 11 12  1  0
 11 10  2  0
 12 13  1  0
 13 14  2  0
 15  8  1  0
 15 21  1  0
 16 15  2  0
 18 17  1  1
 19 18  1  0
 20 21  1  1
 20 18  1  0
 22 20  1  0
 23 22  1  0
 24 22  2  0
M  END
$$$$
