CHT.pdb
     RDKit          3D

 24 24  0  0  1  0  0  0  0  0999 V2000
   21.4095  -14.4040  -18.4524 N   0  0  0  0  0  0  0  0  0  0  0  0
   21.3322  -13.8625  -17.1124 C   0  0  1  0  0  0  0  0  0  0  0  0
   22.7198  -13.8212  -16.5383 C   0  0  0  0  0  0  0  0  0  0  0  0
   23.0994  -15.5177  -15.9554 S   0  0  0  0  0  0  0  0  0  0  0  0
   20.6517  -12.5638  -17.1028 C   0  0  0  0  0  0  0  0  0  0  0  0
   21.0128  -11.6891  -17.9383 O   0  0  0  0  0  0  0  0  0  0  0  0
   19.6092  -12.2045  -16.2224 N   0  0  0  0  0  0  0  0  0  0  0  0
   18.9123  -10.9552  -16.2487 C   0  0  1  0  0  0  0  0  0  0  0  0
   17.4988  -11.1145  -15.6718 C   0  0  0  0  0  0  0  0  0  0  0  0
   16.7036   -9.8760  -15.8492 C   0  0  0  0  0  0  0  0  0  0  0  0
   17.1550   -8.6942  -16.4447 C   0  0  0  0  0  0  0  0  0  0  0  0
   16.1625   -7.7866  -16.4304 N   0  0  0  0  0  0  0  0  0  0  0  0
   15.0819   -8.3667  -15.8356 C   0  0  0  0  0  0  0  0  0  0  0  0
   15.4331   -9.6179  -15.4972 N   0  0  0  0  0  0  0  0  0  0  0  0
   19.5764   -9.9025  -15.4431 C   0  0  0  0  0  0  0  0  0  0  0  0
   19.7923  -10.1769  -14.2267 O   0  0  0  0  0  0  0  0  0  0  0  0
   22.9960   -8.8818  -15.6240 C   0  0  0  0  0  0  0  0  0  0  0  0
   22.1888   -7.6249  -15.7076 C   0  0  1  0  0  0  0  0  0  0  0  0
   22.1734   -7.0743  -16.9874 O   0  0  0  0  0  0  0  0  0  0  0  0
   20.7981   -7.7899  -15.1370 C   0  0  2  0  0  0  0  0  0  0  0  0
   19.9703   -8.6515  -15.9355 N   0  0  0  0  0  0  0  0  0  0  0  0
   20.1816   -6.4465  -14.9676 C   0  0  0  0  0  0  0  0  0  0  0  0
   19.0853   -6.1085  -15.7726 O   0  0  0  0  0  0  0  0  0  0  0  0
   20.6565   -5.6611  -14.1163 O   0  0  0  0  0  0  0  0  0  0  0  0
  2  5  1  0
  2  1  1  6
  3  2  1  0
  4  3  1  0
  5  6  2  0
  7  8  1  0
  7  5  1  0
  9 10  1  0
  8  9  1  1
 10 14  1  0
 11 12  1  0
 11 10  2  0
 12 13  1  0
 13 14  2  0
 15  8  1  0
 15 21  1  0
 16 15  2  0
 18 17  1  6
 19 18  1  0
 20 21  1  6
 20 18  1  0
 22 20  1  0
 23 22  1  0
 24 22  2  0
M  END
$$$$
