CHT.pdb
     RDKit          3D

 24 24  0  0  1  0  0  0  0  0999 V2000
   21.6546  -21.6942  -17.3070 N   0  0  0  0  0  0  0  0  0  0  0  0
   20.3201  -21.7329  -16.7480 C   0  0  1  0  0  0  0  0  0  0  0  0
   19.3573  -22.0832  -17.8467 C   0  0  0  0  0  0  0  0  0  0  0  0
   17.6727  -21.9340  -17.1382 S   0  0  0  0  0  0  0  0  0  0  0  0
   20.2530  -22.6367  -15.5955 C   0  0  0  0  0  0  0  0  0  0  0  0
   20.8927  -23.7237  -15.6452 O   0  0  0  0  0  0  0  0  0  0  0  0
   19.5205  -22.3880  -14.4154 N   0  0  0  0  0  0  0  0  0  0  0  0
   19.5061  -23.2423  -13.2678 C   0  0  1  0  0  0  0  0  0  0  0  0
   19.4776  -22.4111  -11.9777 C   0  0  0  0  0  0  0  0  0  0  0  0
   20.8005  -21.8012  -11.7024 C   0  0  0  0  0  0  0  0  0  0  0  0
   21.9439  -21.9388  -12.4953 C   0  0  0  0  0  0  0  0  0  0  0  0
   22.9536  -21.2483  -11.9362 N   0  0  0  0  0  0  0  0  0  0  0  0
   22.4767  -20.6699  -10.7978 C   0  0  0  0  0  0  0  0  0  0  0  0
   21.1847  -21.0172  -10.6815 N   0  0  0  0  0  0  0  0  0  0  0  0
   18.3198  -24.1303  -13.2194 C   0  0  0  0  0  0  0  0  0  0  0  0
   17.2315  -23.6387  -13.6381 O   0  0  0  0  0  0  0  0  0  0  0  0
   18.1404  -28.2417  -14.0295 C   0  0  0  0  0  0  0  0  0  0  0  0
   17.4570  -27.7439  -12.7951 C   0  0  1  0  0  0  0  0  0  0  0  0
   18.1265  -28.0962  -11.6251 O   0  0  0  0  0  0  0  0  0  0  0  0
   17.1515  -26.2642  -12.8582 C   0  0  2  0  0  0  0  0  0  0  0  0
   18.3305  -25.4499  -12.7492 N   0  0  0  0  0  0  0  0  0  0  0  0
   16.1588  -25.9293  -11.8018 C   0  0  0  0  0  0  0  0  0  0  0  0
   14.8703  -26.4713  -11.9002 O   0  0  0  0  0  0  0  0  0  0  0  0
   16.5007  -25.1775  -10.8610 O   0  0  0  0  0  0  0  0  0  0  0  0
  2  5  1  0
  2  1  1  6
  3  2  1  0
  4  3  1  0
  5  6  2  0
  7  8  1  0
  7  5  1  0
  9 10  1  0
  8  9  1  1
 10 14  1  0
 11 12  1  0
 11 10  2  0
 12 13  1  0
 13 14  2  0
 15  8  1  0
 15 21  1  0
 16 15  2  0
 18 17  1  6
 19 18  1  0
 20 21  1  1
 20 18  1  0
 22 20  1  0
 23 22  1  0
 24 22  2  0
M  END
$$$$
