CHT.pdb
     RDKit          3D

 24 24  0  0  1  0  0  0  0  0999 V2000
   24.8771  -15.8791  -16.5659 N   0  0  0  0  0  0  0  0  0  0  0  0
   25.0572  -14.5542  -16.0117 C   0  0  1  0  0  0  0  0  0  0  0  0
   26.2713  -13.9374  -16.6458 C   0  0  0  0  0  0  0  0  0  0  0  0
   27.7313  -14.7185  -15.8580 S   0  0  0  0  0  0  0  0  0  0  0  0
   23.8417  -13.7475  -16.1584 C   0  0  0  0  0  0  0  0  0  0  0  0
   23.2132  -13.7998  -17.2519 O   0  0  0  0  0  0  0  0  0  0  0  0
   23.3073  -12.9032  -15.1622 N   0  0  0  0  0  0  0  0  0  0  0  0
   22.1102  -12.1320  -15.3012 C   0  0  1  0  0  0  0  0  0  0  0  0
   21.0836  -12.5333  -14.2329 C   0  0  0  0  0  0  0  0  0  0  0  0
   20.3769  -13.7810  -14.6091 C   0  0  0  0  0  0  0  0  0  0  0  0
   20.6438  -14.5621  -15.7376 C   0  0  0  0  0  0  0  0  0  0  0  0
   19.8071  -15.6150  -15.7527 N   0  0  0  0  0  0  0  0  0  0  0  0
   19.0079  -15.5223  -14.6524 C   0  0  0  0  0  0  0  0  0  0  0  0
   19.3702  -14.4148  -13.9848 N   0  0  0  0  0  0  0  0  0  0  0  0
   22.3352  -10.6756  -15.1387 C   0  0  0  0  0  0  0  0  0  0  0  0
   23.1991  -10.3320  -14.2803 O   0  0  0  0  0  0  0  0  0  0  0  0
   23.0534   -7.9097  -17.9390 C   0  0  0  0  0  0  0  0  0  0  0  0
   21.9687   -7.5187  -16.9855 C   0  0  1  0  0  0  0  0  0  0  0  0
   20.7018   -7.5458  -17.5647 O   0  0  0  0  0  0  0  0  0  0  0  0
   22.0251   -8.2992  -15.6915 C   0  0  2  0  0  0  0  0  0  0  0  0
   21.6649   -9.6800  -15.8612 N   0  0  0  0  0  0  0  0  0  0  0  0
   21.1582   -7.6302  -14.6843 C   0  0  0  0  0  0  0  0  0  0  0  0
   21.4978   -6.3369  -14.2647 O   0  0  0  0  0  0  0  0  0  0  0  0
   20.1566   -8.2376  -14.2430 O   0  0  0  0  0  0  0  0  0  0  0  0
  2  5  1  0
  2  1  1  6
  3  2  1  0
  4  3  1  0
  5  6  2  0
  7  8  1  0
  7  5  1  0
  9 10  1  0
  8  9  1  1
 10 14  1  0
 11 12  1  0
 11 10  2  0
 12 13  1  0
 13 14  2  0
 15  8  1  0
 15 21  1  0
 16 15  2  0
 18 17  1  6
 19 18  1  0
 20 21  1  6
 20 18  1  0
 22 20  1  0
 23 22  1  0
 24 22  2  0
M  END
$$$$
