CHT.pdb
     RDKit          3D

 24 24  0  0  1  0  0  0  0  0999 V2000
   21.7248  -13.1235  -19.0933 N   0  0  0  0  0  0  0  0  0  0  0  0
   21.4200  -11.7503  -19.4343 C   0  0  1  0  0  0  0  0  0  0  0  0
   20.2549  -11.7459  -20.3825 C   0  0  0  0  0  0  0  0  0  0  0  0
   20.9167  -12.1952  -22.0324 S   0  0  0  0  0  0  0  0  0  0  0  0
   21.2041  -10.9398  -18.2318 C   0  0  0  0  0  0  0  0  0  0  0  0
   20.3721  -11.3460  -17.3738 O   0  0  0  0  0  0  0  0  0  0  0  0
   21.8601   -9.7229  -17.9492 N   0  0  0  0  0  0  0  0  0  0  0  0
   21.6642   -8.9455  -16.7641 C   0  0  1  0  0  0  0  0  0  0  0  0
   23.0131   -8.5919  -16.1225 C   0  0  0  0  0  0  0  0  0  0  0  0
   23.6686   -9.7938  -15.5537 C   0  0  0  0  0  0  0  0  0  0  0  0
   23.1761  -11.1007  -15.6193 C   0  0  0  0  0  0  0  0  0  0  0  0
   24.0350  -11.9272  -14.9965 N   0  0  0  0  0  0  0  0  0  0  0  0
   25.0705  -11.1720  -14.5323 C   0  0  0  0  0  0  0  0  0  0  0  0
   24.8260   -9.8980  -14.8796 N   0  0  0  0  0  0  0  0  0  0  0  0
   20.9733   -7.6591  -17.0209 C   0  0  0  0  0  0  0  0  0  0  0  0
   21.4631   -6.9291  -17.9312 O   0  0  0  0  0  0  0  0  0  0  0  0
   16.9022   -6.9189  -17.2217 C   0  0  0  0  0  0  0  0  0  0  0  0
   17.7106   -5.9875  -16.3747 C   0  0  1  0  0  0  0  0  0  0  0  0
   17.5003   -6.1748  -15.0101 O   0  0  0  0  0  0  0  0  0  0  0  0
   19.1788   -6.0013  -16.7365 C   0  0  2  0  0  0  0  0  0  0  0  0
   19.8375   -7.2131  -16.3327 N   0  0  0  0  0  0  0  0  0  0  0  0
   19.8342   -4.8029  -16.1467 C   0  0  0  0  0  0  0  0  0  0  0  0
   20.7885   -4.9922  -15.1380 O   0  0  0  0  0  0  0  0  0  0  0  0
   19.5166   -3.6668  -16.5655 O   0  0  0  0  0  0  0  0  0  0  0  0
  2  5  1  0
  2  1  1  1
  3  2  1  0
  4  3  1  0
  5  6  2  0
  7  8  1  0
  7  5  1  0
  9 10  1  0
  8  9  1  6
 10 14  1  0
 11 12  1  0
 11 10  2  0
 12 13  1  0
 13 14  2  0
 15  8  1  0
 15 21  1  0
 16 15  2  0
 18 17  1  6
 19 18  1  0
 20 21  1  1
 20 18  1  0
 22 20  1  0
 23 22  1  0
 24 22  2  0
M  END
$$$$
