CHT.pdb
     RDKit          3D

 24 24  0  0  1  0  0  0  0  0999 V2000
   15.6194  -14.0615  -16.0657 N   0  0  0  0  0  0  0  0  0  0  0  0
   16.3318  -13.2781  -15.0790 C   0  0  1  0  0  0  0  0  0  0  0  0
   17.3881  -14.1473  -14.4580 C   0  0  0  0  0  0  0  0  0  0  0  0
   16.5487  -15.1720  -13.1902 S   0  0  0  0  0  0  0  0  0  0  0  0
   16.8561  -12.0392  -15.6620 C   0  0  0  0  0  0  0  0  0  0  0  0
   17.3700  -12.0868  -16.8140 O   0  0  0  0  0  0  0  0  0  0  0  0
   16.8336  -10.7770  -15.0318 N   0  0  0  0  0  0  0  0  0  0  0  0
   17.2943   -9.5594  -15.6255 C   0  0  1  0  0  0  0  0  0  0  0  0
   16.2381   -8.4552  -15.4789 C   0  0  0  0  0  0  0  0  0  0  0  0
   15.1684   -8.5969  -16.4954 C   0  0  0  0  0  0  0  0  0  0  0  0
   15.1223   -9.5655  -17.5027 C   0  0  0  0  0  0  0  0  0  0  0  0
   14.0084   -9.3871  -18.2350 N   0  0  0  0  0  0  0  0  0  0  0  0
   13.3392   -8.3199  -17.7142 C   0  0  0  0  0  0  0  0  0  0  0  0
   14.0557   -7.8654  -16.6733 N   0  0  0  0  0  0  0  0  0  0  0  0
   18.5328   -9.0394  -14.9980 C   0  0  0  0  0  0  0  0  0  0  0  0
   18.5750   -9.0614  -13.7334 O   0  0  0  0  0  0  0  0  0  0  0  0
   21.9472  -10.3941  -14.9495 C   0  0  0  0  0  0  0  0  0  0  0  0
   22.0319   -8.9743  -15.4137 C   0  0  1  0  0  0  0  0  0  0  0  0
   22.3048   -8.8644  -16.7757 O   0  0  0  0  0  0  0  0  0  0  0  0
   20.8284   -8.1567  -15.0017 C   0  0  2  0  0  0  0  0  0  0  0  0
   19.6336   -8.5369  -15.7038 N   0  0  0  0  0  0  0  0  0  0  0  0
   21.1355   -6.7133  -15.1915 C   0  0  0  0  0  0  0  0  0  0  0  0
   22.1303   -6.1317  -14.3939 O   0  0  0  0  0  0  0  0  0  0  0  0
   20.5006   -6.0635  -16.0527 O   0  0  0  0  0  0  0  0  0  0  0  0
  2  5  1  0
  2  1  1  6
  3  2  1  0
  4  3  1  0
  5  6  2  0
  7  8  1  0
  7  5  1  0
  9 10  1  0
  8  9  1  1
 10 14  1  0
 11 12  1  0
 11 10  2  0
 12 13  1  0
 13 14  2  0
 15  8  1  0
 15 21  1  0
 16 15  2  0
 18 17  1  6
 19 18  1  0
 20 21  1  6
 20 18  1  0
 22 20  1  0
 23 22  1  0
 24 22  2  0
M  END
$$$$
