CHT.pdb
     RDKit          3D

 24 24  0  0  1  0  0  0  0  0999 V2000
   27.0757  -24.8673  -18.1535 N   0  0  0  0  0  0  0  0  0  0  0  0
   26.9129  -26.2019  -18.6892 C   0  0  1  0  0  0  0  0  0  0  0  0
   26.0656  -26.1147  -19.9265 C   0  0  0  0  0  0  0  0  0  0  0  0
   26.5757  -24.5899  -20.8079 S   0  0  0  0  0  0  0  0  0  0  0  0
   28.2106  -26.8483  -18.9081 C   0  0  0  0  0  0  0  0  0  0  0  0
   29.2004  -26.1245  -19.2077 O   0  0  0  0  0  0  0  0  0  0  0  0
   28.4489  -28.2356  -18.8100 N   0  0  0  0  0  0  0  0  0  0  0  0
   29.7315  -28.8554  -18.9442 C   0  0  1  0  0  0  0  0  0  0  0  0
   30.3321  -29.1551  -17.5637 C   0  0  0  0  0  0  0  0  0  0  0  0
   30.6838  -27.9053  -16.8483 C   0  0  0  0  0  0  0  0  0  0  0  0
   29.9062  -27.2777  -15.8703 C   0  0  0  0  0  0  0  0  0  0  0  0
   30.5410  -26.1705  -15.4461 N   0  0  0  0  0  0  0  0  0  0  0  0
   31.7130  -26.0774  -16.1358 C   0  0  0  0  0  0  0  0  0  0  0  0
   31.7736  -27.1289  -16.9688 N   0  0  0  0  0  0  0  0  0  0  0  0
   29.6788  -30.1488  -19.6670 C   0  0  0  0  0  0  0  0  0  0  0  0
   28.5264  -30.5919  -19.9446 O   0  0  0  0  0  0  0  0  0  0  0  0
   31.7550  -33.8118  -22.2572 C   0  0  0  0  0  0  0  0  0  0  0  0
   31.9419  -32.6092  -21.3870 C   0  0  1  0  0  0  0  0  0  0  0  0
   32.6708  -31.5976  -22.0090 O   0  0  0  0  0  0  0  0  0  0  0  0
   30.6394  -32.1048  -20.8073 C   0  0  2  0  0  0  0  0  0  0  0  0
   30.8015  -30.8928  -20.0524 N   0  0  0  0  0  0  0  0  0  0  0  0
   30.0269  -33.1817  -19.9835 C   0  0  0  0  0  0  0  0  0  0  0  0
   29.2591  -34.1609  -20.6282 O   0  0  0  0  0  0  0  0  0  0  0  0
   30.2134  -33.1825  -18.7456 O   0  0  0  0  0  0  0  0  0  0  0  0
  2  5  1  0
  2  1  1  6
  3  2  1  0
  4  3  1  0
  5  6  2  0
  7  8  1  0
  7  5  1  0
  9 10  1  0
  8  9  1  1
 10 14  1  0
 11 12  1  0
 11 10  2  0
 12 13  1  0
 13 14  2  0
 15  8  1  0
 15 21  1  0
 16 15  2  0
 18 17  1  6
 19 18  1  0
 20 21  1  1
 20 18  1  0
 22 20  1  0
 23 22  1  0
 24 22  2  0
M  END
$$$$
