NFA.pdb
     RDKit          3D

 25 25  0  0  1  0  0  0  0  0999 V2000
   38.7956   -1.4894  -12.4028 N   0  0  0  0  0  0  0  0  0  0  0  0
   37.9570   -0.4408  -12.8525 C   0  0  0  0  0  0  0  0  0  0  0  0
   38.4710    0.5199  -13.4658 O   0  0  0  0  0  0  0  0  0  0  0  0
   36.5250   -0.5052  -12.5919 C   0  0  0  0  0  0  0  0  0  0  0  0
   36.1039   -1.7027  -11.7925 C   0  0  2  0  0  0  0  0  0  0  0  0
   36.0957   -2.8686  -12.6091 N   0  0  0  0  0  0  0  0  0  0  0  0
   34.7917   -1.5046  -11.1238 C   0  0  0  0  0  0  0  0  0  0  0  0
   33.7206   -1.9248  -11.6380 O   0  0  0  0  0  0  0  0  0  0  0  0
   34.6619   -0.8352   -9.8743 N   0  0  0  0  0  0  0  0  0  0  0  0
   33.3901   -0.5766   -9.2309 C   0  0  1  0  0  0  0  0  0  0  0  0
   33.2133   -1.3277   -7.9630 C   0  0  0  0  0  0  0  0  0  0  0  0
   34.1176   -2.4715   -7.7656 C   0  0  0  0  0  0  0  0  0  0  0  0
   33.7529   -3.7565   -8.1012 C   0  0  0  0  0  0  0  0  0  0  0  0
   34.6077   -4.8153   -7.9111 C   0  0  0  0  0  0  0  0  0  0  0  0
   35.8622   -4.6445   -7.3794 C   0  0  0  0  0  0  0  0  0  0  0  0
   36.2439   -3.3630   -7.0374 C   0  0  0  0  0  0  0  0  0  0  0  0
   35.3943   -2.2999   -7.2248 C   0  0  0  0  0  0  0  0  0  0  0  0
   33.1074    0.8609   -9.0842 C   0  0  0  0  0  0  0  0  0  0  0  0
   34.0298    1.6049   -8.6931 O   0  0  0  0  0  0  0  0  0  0  0  0
   30.4179    3.3354  -10.0322 C   0  0  0  0  0  0  0  0  0  0  0  0
   31.6045    2.8675   -9.2093 C   0  0  2  0  0  0  0  0  0  0  0  0
   31.8470    1.4527   -9.3613 N   0  0  0  0  0  0  0  0  0  0  0  0
   31.4746    3.2806   -7.8051 C   0  0  0  0  0  0  0  0  0  0  0  0
   31.0968    2.4616   -6.9415 O   0  0  0  0  0  0  0  0  0  0  0  0
   31.7662    4.5715   -7.4217 O   0  0  0  0  0  0  0  0  0  0  0  0
  2  1  1  0
  2  3  2  0
  4  2  1  0
  5  4  1  0
  5  7  1  0
  5  6  1  6
  7  8  2  0
  9  7  1  0
  9 10  1  0
 10 11  1  1
 11 12  1  0
 12 17  2  0
 13 12  1  0
 13 14  2  0
 14 15  1  0
 15 16  2  0
 17 16  1  0
 18 10  1  0
 18 19  2  0
 21 20  1  6
 21 22  1  0
 21 23  1  0
 22 18  1  0
 23 25  1  0
 24 23  2  0
M  END
$$$$
