NFA.pdb
     RDKit          3D

 25 25  0  0  1  0  0  0  0  0999 V2000
   28.1069  -32.9292   -4.2988 N   0  0  0  0  0  0  0  0  0  0  0  0
   28.1002  -34.3046   -4.6355 C   0  0  0  0  0  0  0  0  0  0  0  0
   27.0205  -34.8358   -4.9746 O   0  0  0  0  0  0  0  0  0  0  0  0
   29.3427  -35.0632   -4.5791 C   0  0  0  0  0  0  0  0  0  0  0  0
   30.5305  -34.2567   -4.1438 C   0  0  2  0  0  0  0  0  0  0  0  0
   31.2394  -33.7639   -5.2754 N   0  0  0  0  0  0  0  0  0  0  0  0
   31.4282  -35.0157   -3.2347 C   0  0  0  0  0  0  0  0  0  0  0  0
   32.2396  -35.8732   -3.6757 O   0  0  0  0  0  0  0  0  0  0  0  0
   31.4291  -34.8250   -1.8241 N   0  0  0  0  0  0  0  0  0  0  0  0
   32.3677  -35.4689   -0.9280 C   0  0  1  0  0  0  0  0  0  0  0  0
   33.1364  -34.5081   -0.0981 C   0  0  0  0  0  0  0  0  0  0  0  0
   34.1638  -33.7293   -0.8072 C   0  0  0  0  0  0  0  0  0  0  0  0
   35.1585  -34.3335   -1.5437 C   0  0  0  0  0  0  0  0  0  0  0  0
   36.1117  -33.5935   -2.2008 C   0  0  0  0  0  0  0  0  0  0  0  0
   36.1190  -32.2211   -2.1552 C   0  0  0  0  0  0  0  0  0  0  0  0
   35.1291  -31.5993   -1.4214 C   0  0  0  0  0  0  0  0  0  0  0  0
   34.1731  -32.3330   -0.7622 C   0  0  0  0  0  0  0  0  0  0  0  0
   31.7501  -36.5418   -0.1308 C   0  0  0  0  0  0  0  0  0  0  0  0
   30.5691  -36.3912    0.2433 O   0  0  0  0  0  0  0  0  0  0  0  0
   32.5273  -40.0769    0.9860 C   0  0  0  0  0  0  0  0  0  0  0  0
   31.8013  -38.7463    1.0683 C   0  0  2  0  0  0  0  0  0  0  0  0
   32.4180  -37.7389    0.2386 N   0  0  0  0  0  0  0  0  0  0  0  0
   31.6325  -38.3174    2.4636 C   0  0  0  0  0  0  0  0  0  0  0  0
   31.0930  -39.0780    3.2939 O   0  0  0  0  0  0  0  0  0  0  0  0
   32.0650  -37.0755    2.8750 O   0  0  0  0  0  0  0  0  0  0  0  0
  2  1  1  0
  2  3  2  0
  4  2  1  0
  5  4  1  0
  5  7  1  0
  5  6  1  6
  7  8  2  0
  9  7  1  0
  9 10  1  0
 10 11  1  1
 11 12  1  0
 12 17  2  0
 13 12  1  0
 13 14  2  0
 14 15  1  0
 15 16  2  0
 17 16  1  0
 18 10  1  0
 18 19  2  0
 21 20  1  1
 21 22  1  0
 21 23  1  0
 22 18  1  0
 23 25  1  0
 24 23  2  0
M  END
$$$$
