NFA.pdb
     RDKit          3D

 25 25  0  0  1  0  0  0  0  0999 V2000
   16.0042  -12.8658  -20.4506 N   0  0  0  0  0  0  0  0  0  0  0  0
   17.4164  -12.9469  -20.5145 C   0  0  0  0  0  0  0  0  0  0  0  0
   17.9426  -13.5209  -21.4926 O   0  0  0  0  0  0  0  0  0  0  0  0
   18.2177  -12.3638  -19.4465 C   0  0  0  0  0  0  0  0  0  0  0  0
   19.4089  -13.1888  -19.0578 C   0  0  2  0  0  0  0  0  0  0  0  0
   18.9936  -14.4279  -18.4936 N   0  0  0  0  0  0  0  0  0  0  0  0
   20.3275  -12.4618  -18.1435 C   0  0  0  0  0  0  0  0  0  0  0  0
   20.0287  -12.2567  -16.9364 O   0  0  0  0  0  0  0  0  0  0  0  0
   21.5889  -11.9565  -18.5673 N   0  0  0  0  0  0  0  0  0  0  0  0
   22.5317  -11.3060  -17.6805 C   0  0  1  0  0  0  0  0  0  0  0  0
   23.9109  -11.8413  -17.7997 C   0  0  0  0  0  0  0  0  0  0  0  0
   24.9280  -11.1798  -16.9675 C   0  0  0  0  0  0  0  0  0  0  0  0
   25.7590  -10.2030  -17.4695 C   0  0  0  0  0  0  0  0  0  0  0  0
   26.7048   -9.5937  -16.6806 C   0  0  0  0  0  0  0  0  0  0  0  0
   26.8668   -9.9278  -15.3586 C   0  0  0  0  0  0  0  0  0  0  0  0
   26.0421  -10.9051  -14.8392 C   0  0  0  0  0  0  0  0  0  0  0  0
   25.0945  -11.5182  -15.6222 C   0  0  0  0  0  0  0  0  0  0  0  0
   22.4818   -9.8374  -17.7737 C   0  0  0  0  0  0  0  0  0  0  0  0
   22.7491   -9.3083  -18.8719 O   0  0  0  0  0  0  0  0  0  0  0  0
   20.7677   -6.9810  -17.0262 C   0  0  0  0  0  0  0  0  0  0  0  0
   22.1581   -7.5466  -16.8001 C   0  0  2  0  0  0  0  0  0  0  0  0
   22.1474   -8.9857  -16.6882 N   0  0  0  0  0  0  0  0  0  0  0  0
   22.8235   -6.8872  -15.6680 C   0  0  0  0  0  0  0  0  0  0  0  0
   22.8649   -7.4451  -14.5517 O   0  0  0  0  0  0  0  0  0  0  0  0
   23.4091   -5.6492  -15.8202 O   0  0  0  0  0  0  0  0  0  0  0  0
  2  1  1  0
  2  3  2  0
  4  2  1  0
  5  4  1  0
  5  7  1  0
  5  6  1  1
  7  8  2  0
  9  7  1  0
  9 10  1  0
 10 11  1  6
 11 12  1  0
 12 17  2  0
 13 12  1  0
 13 14  2  0
 14 15  1  0
 15 16  2  0
 17 16  1  0
 18 10  1  0
 18 19  2  0
 21 20  1  1
 21 22  1  0
 21 23  1  0
 22 18  1  0
 23 25  1  0
 24 23  2  0
M  END
$$$$
