NFA.pdb
     RDKit          3D

 25 25  0  0  1  0  0  0  0  0999 V2000
   28.6843  -20.1622  -19.1561 N   0  0  0  0  0  0  0  0  0  0  0  0
   27.4035  -20.7515  -19.2875 C   0  0  0  0  0  0  0  0  0  0  0  0
   26.8225  -20.6884  -20.3927 O   0  0  0  0  0  0  0  0  0  0  0  0
   26.7968  -21.4128  -18.1398 C   0  0  0  0  0  0  0  0  0  0  0  0
   27.6461  -21.3897  -16.9033 C   0  0  2  0  0  0  0  0  0  0  0  0
   28.5897  -22.4552  -16.9276 N   0  0  0  0  0  0  0  0  0  0  0  0
   26.8351  -21.4171  -15.6584 C   0  0  0  0  0  0  0  0  0  0  0  0
   26.1540  -22.4280  -15.3384 O   0  0  0  0  0  0  0  0  0  0  0  0
   26.7764  -20.3161  -14.7580 N   0  0  0  0  0  0  0  0  0  0  0  0
   26.0706  -20.3507  -13.4934 C   0  0  1  0  0  0  0  0  0  0  0  0
   26.7765  -19.6217  -12.4103 C   0  0  0  0  0  0  0  0  0  0  0  0
   27.9291  -20.3174  -11.8166 C   0  0  0  0  0  0  0  0  0  0  0  0
   29.1504  -20.3783  -12.4504 C   0  0  0  0  0  0  0  0  0  0  0  0
   30.2182  -21.0318  -11.8841 C   0  0  0  0  0  0  0  0  0  0  0  0
   30.1201  -21.6534  -10.6637 C   0  0  0  0  0  0  0  0  0  0  0  0
   28.9031  -21.6021  -10.0146 C   0  0  0  0  0  0  0  0  0  0  0  0
   27.8315  -20.9505  -10.5750 C   0  0  0  0  0  0  0  0  0  0  0  0
   24.6579  -19.9549  -13.6182 C   0  0  0  0  0  0  0  0  0  0  0  0
   24.3565  -19.1185  -14.4939 O   0  0  0  0  0  0  0  0  0  0  0  0
   21.9080  -21.0138  -14.4806 C   0  0  0  0  0  0  0  0  0  0  0  0
   22.2222  -20.3456  -13.1543 C   0  0  2  0  0  0  0  0  0  0  0  0
   23.6164  -20.4681  -12.8012 N   0  0  0  0  0  0  0  0  0  0  0  0
   21.3177  -20.8136  -12.0950 C   0  0  0  0  0  0  0  0  0  0  0  0
   20.0824  -20.6805  -12.2192 O   0  0  0  0  0  0  0  0  0  0  0  0
   21.8164  -21.4037  -10.9541 O   0  0  0  0  0  0  0  0  0  0  0  0
  2  1  1  0
  2  3  2  0
  4  2  1  0
  5  4  1  0
  5  7  1  0
  5  6  1  6
  7  8  2  0
  9  7  1  0
  9 10  1  0
 10 11  1  1
 11 12  1  0
 12 17  2  0
 13 12  1  0
 13 14  2  0
 14 15  1  0
 15 16  2  0
 17 16  1  0
 18 10  1  0
 18 19  2  0
 21 20  1  6
 21 22  1  0
 21 23  1  0
 22 18  1  0
 23 25  1  0
 24 23  2  0
M  END
$$$$
