NFA.pdb
     RDKit          3D

 25 25  0  0  1  0  0  0  0  0999 V2000
   14.7865   -9.0181  -16.0031 N   0  0  0  0  0  0  0  0  0  0  0  0
   15.9666   -9.5745  -16.5535 C   0  0  0  0  0  0  0  0  0  0  0  0
   15.9473   -9.9761  -17.7372 O   0  0  0  0  0  0  0  0  0  0  0  0
   17.1673   -9.6655  -15.7332 C   0  0  0  0  0  0  0  0  0  0  0  0
   18.1198  -10.7416  -16.1635 C   0  0  2  0  0  0  0  0  0  0  0  0
   17.6383  -12.0208  -15.7658 N   0  0  0  0  0  0  0  0  0  0  0  0
   19.5007  -10.5078  -15.6666 C   0  0  0  0  0  0  0  0  0  0  0  0
   19.7777  -10.5691  -14.4387 O   0  0  0  0  0  0  0  0  0  0  0  0
   20.5862  -10.2032  -16.5355 N   0  0  0  0  0  0  0  0  0  0  0  0
   21.9392   -9.9647  -16.0759 C   0  0  1  0  0  0  0  0  0  0  0  0
   22.9474  -10.8088  -16.7643 C   0  0  0  0  0  0  0  0  0  0  0  0
   24.3466  -10.5855  -16.3681 C   0  0  0  0  0  0  0  0  0  0  0  0
   25.2171   -9.8535  -17.1448 C   0  0  0  0  0  0  0  0  0  0  0  0
   26.5216   -9.6532  -16.7623 C   0  0  0  0  0  0  0  0  0  0  0  0
   27.0188  -10.1710  -15.5917 C   0  0  0  0  0  0  0  0  0  0  0  0
   26.1598  -10.9073  -14.8012 C   0  0  0  0  0  0  0  0  0  0  0  0
   24.8546  -11.1114  -15.1775 C   0  0  0  0  0  0  0  0  0  0  0  0
   22.2977   -8.5366  -16.0762 C   0  0  0  0  0  0  0  0  0  0  0  0
   22.0232   -7.8614  -17.0892 O   0  0  0  0  0  0  0  0  0  0  0  0
   24.3100   -6.1858  -16.1244 C   0  0  0  0  0  0  0  0  0  0  0  0
   23.2961   -6.4828  -15.0344 C   0  0  2  0  0  0  0  0  0  0  0  0
   22.9377   -7.8804  -14.9921 N   0  0  0  0  0  0  0  0  0  0  0  0
   22.1307   -5.5934  -15.1349 C   0  0  0  0  0  0  0  0  0  0  0  0
   22.0589   -4.7533  -16.0558 O   0  0  0  0  0  0  0  0  0  0  0  0
   21.1043   -5.6726  -14.2190 O   0  0  0  0  0  0  0  0  0  0  0  0
  2  1  1  0
  2  3  2  0
  4  2  1  0
  5  4  1  0
  5  7  1  0
  5  6  1  1
  7  8  2  0
  9  7  1  0
  9 10  1  0
 10 11  1  6
 11 12  1  0
 12 17  2  0
 13 12  1  0
 13 14  2  0
 14 15  1  0
 15 16  2  0
 17 16  1  0
 18 10  1  0
 18 19  2  0
 21 20  1  6
 21 22  1  0
 21 23  1  0
 22 18  1  0
 23 25  1  0
 24 23  2  0
M  END
$$$$
