NFA.pdb
     RDKit          3D

 25 25  0  0  1  0  0  0  0  0999 V2000
   19.3429  -10.3183  -19.6977 N   0  0  0  0  0  0  0  0  0  0  0  0
   18.8191  -10.7238  -18.4462 C   0  0  0  0  0  0  0  0  0  0  0  0
   18.3463  -11.8759  -18.3364 O   0  0  0  0  0  0  0  0  0  0  0  0
   18.8432   -9.7954  -17.3236 C   0  0  0  0  0  0  0  0  0  0  0  0
   20.2028   -9.6051  -16.7186 C   0  0  2  0  0  0  0  0  0  0  0  0
   20.6135  -10.7847  -16.0361 N   0  0  0  0  0  0  0  0  0  0  0  0
   20.2649   -8.4179  -15.8270 C   0  0  0  0  0  0  0  0  0  0  0  0
   19.5699   -8.3452  -14.7782 O   0  0  0  0  0  0  0  0  0  0  0  0
   21.1036   -7.3000  -16.0971 N   0  0  0  0  0  0  0  0  0  0  0  0
   21.2370   -6.1637  -15.2085 C   0  0  1  0  0  0  0  0  0  0  0  0
   22.5215   -6.1512  -14.4649 C   0  0  0  0  0  0  0  0  0  0  0  0
   23.3306   -7.3760  -14.5649 C   0  0  0  0  0  0  0  0  0  0  0  0
   24.2647   -7.5542  -15.5612 C   0  0  0  0  0  0  0  0  0  0  0  0
   25.0133   -8.7036  -15.6426 C   0  0  0  0  0  0  0  0  0  0  0  0
   24.8670   -9.7264  -14.7381 C   0  0  0  0  0  0  0  0  0  0  0  0
   23.9351   -9.5644  -13.7330 C   0  0  0  0  0  0  0  0  0  0  0  0
   23.1834   -8.4179  -13.6458 C   0  0  0  0  0  0  0  0  0  0  0  0
   20.9537   -4.8821  -15.8756 C   0  0  0  0  0  0  0  0  0  0  0  0
   21.7098   -4.5206  -16.8003 O   0  0  0  0  0  0  0  0  0  0  0  0
   18.1550   -2.5159  -16.4219 C   0  0  0  0  0  0  0  0  0  0  0  0
   19.6336   -2.7707  -16.1915 C   0  0  2  0  0  0  0  0  0  0  0  0
   19.8709   -4.0315  -15.5299 N   0  0  0  0  0  0  0  0  0  0  0  0
   20.2695   -1.6351  -15.5092 C   0  0  0  0  0  0  0  0  0  0  0  0
   20.5895   -1.7243  -14.3056 O   0  0  0  0  0  0  0  0  0  0  0  0
   20.5212   -0.4603  -16.1839 O   0  0  0  0  0  0  0  0  0  0  0  0
  2  1  1  0
  2  3  2  0
  4  2  1  0
  5  4  1  0
  5  7  1  0
  5  6  1  1
  7  8  2  0
  9  7  1  0
  9 10  1  0
 10 11  1  6
 11 12  1  0
 12 17  2  0
 13 12  1  0
 13 14  2  0
 14 15  1  0
 15 16  2  0
 17 16  1  0
 18 10  1  0
 18 19  2  0
 21 20  1  1
 21 22  1  0
 21 23  1  0
 22 18  1  0
 23 25  1  0
 24 23  2  0
M  END
$$$$
