NFA.pdb
     RDKit          3D

 25 25  0  0  1  0  0  0  0  0999 V2000
   18.2325  -10.9295  -19.3401 N   0  0  0  0  0  0  0  0  0  0  0  0
   17.2321  -10.1681  -18.6885 C   0  0  0  0  0  0  0  0  0  0  0  0
   16.0908  -10.1142  -19.1959 O   0  0  0  0  0  0  0  0  0  0  0  0
   17.5538   -9.4703  -17.4506 C   0  0  0  0  0  0  0  0  0  0  0  0
   18.9833   -9.6193  -17.0203 C   0  0  2  0  0  0  0  0  0  0  0  0
   19.2313  -10.9460  -16.5681 N   0  0  0  0  0  0  0  0  0  0  0  0
   19.3729   -8.6187  -15.9931 C   0  0  0  0  0  0  0  0  0  0  0  0
   18.9545   -8.6959  -14.8068 O   0  0  0  0  0  0  0  0  0  0  0  0
   20.2337   -7.5219  -16.2797 N   0  0  0  0  0  0  0  0  0  0  0  0
   20.6407   -6.5423  -15.2932 C   0  0  1  0  0  0  0  0  0  0  0  0
   22.0658   -6.6683  -14.8982 C   0  0  0  0  0  0  0  0  0  0  0  0
   22.4458   -7.9446  -14.2724 C   0  0  0  0  0  0  0  0  0  0  0  0
   22.0707   -8.2674  -12.9871 C   0  0  0  0  0  0  0  0  0  0  0  0
   22.4330   -9.4631  -12.4152 C   0  0  0  0  0  0  0  0  0  0  0  0
   23.1835  -10.3908  -13.0947 C   0  0  0  0  0  0  0  0  0  0  0  0
   23.5680  -10.0834  -14.3842 C   0  0  0  0  0  0  0  0  0  0  0  0
   23.2093   -8.8899  -14.9619 C   0  0  0  0  0  0  0  0  0  0  0  0
   20.2749   -5.1670  -15.6710 C   0  0  0  0  0  0  0  0  0  0  0  0
   20.7241   -4.7122  -16.7429 O   0  0  0  0  0  0  0  0  0  0  0  0
   17.8270   -2.4859  -14.6715 C   0  0  0  0  0  0  0  0  0  0  0  0
   19.1387   -2.9658  -15.2661 C   0  0  2  0  0  0  0  0  0  0  0  0
   19.4409   -4.3258  -14.8885 N   0  0  0  0  0  0  0  0  0  0  0  0
   20.2320   -2.0302  -14.9684 C   0  0  0  0  0  0  0  0  0  0  0  0
   20.1360   -0.8281  -15.2923 O   0  0  0  0  0  0  0  0  0  0  0  0
   21.3740   -2.4629  -14.3303 O   0  0  0  0  0  0  0  0  0  0  0  0
  2  1  1  0
  2  3  2  0
  4  2  1  0
  5  4  1  0
  5  7  1  0
  5  6  1  1
  7  8  2  0
  9  7  1  0
  9 10  1  0
 10 11  1  6
 11 12  1  0
 12 17  2  0
 13 12  1  0
 13 14  2  0
 14 15  1  0
 15 16  2  0
 17 16  1  0
 18 10  1  0
 18 19  2  0
 21 20  1  1
 21 22  1  0
 21 23  1  0
 22 18  1  0
 23 25  1  0
 24 23  2  0
M  END
$$$$
