NFA.pdb
     RDKit          3D

 25 25  0  0  1  0  0  0  0  0999 V2000
   19.9765  -23.0197  -12.6889 N   0  0  0  0  0  0  0  0  0  0  0  0
   20.1122  -21.9574  -13.6153 C   0  0  0  0  0  0  0  0  0  0  0  0
   19.4120  -21.9689  -14.6510 O   0  0  0  0  0  0  0  0  0  0  0  0
   21.0580  -20.8834  -13.3420 C   0  0  0  0  0  0  0  0  0  0  0  0
   21.8121  -21.0476  -12.0555 C   0  0  2  0  0  0  0  0  0  0  0  0
   21.0057  -20.6507  -10.9517 N   0  0  0  0  0  0  0  0  0  0  0  0
   23.1093  -20.3226  -12.0627 C   0  0  0  0  0  0  0  0  0  0  0  0
   23.1830  -19.1018  -11.7586 O   0  0  0  0  0  0  0  0  0  0  0  0
   24.3374  -20.9533  -12.4094 N   0  0  0  0  0  0  0  0  0  0  0  0
   25.6237  -20.2894  -12.3547 C   0  0  1  0  0  0  0  0  0  0  0  0
   26.6621  -21.0843  -11.6527 C   0  0  0  0  0  0  0  0  0  0  0  0
   26.9614  -20.6697  -10.2731 C   0  0  0  0  0  0  0  0  0  0  0  0
   26.0080  -20.0986   -9.4597 C   0  0  0  0  0  0  0  0  0  0  0  0
   26.3018  -19.7159   -8.1731 C   0  0  0  0  0  0  0  0  0  0  0  0
   27.5552  -19.8837   -7.6379 C   0  0  0  0  0  0  0  0  0  0  0  0
   28.5228  -20.4547   -8.4395 C   0  0  0  0  0  0  0  0  0  0  0  0
   28.2359  -20.8395   -9.7266 C   0  0  0  0  0  0  0  0  0  0  0  0
   26.0717  -19.8050  -13.6710 C   0  0  0  0  0  0  0  0  0  0  0  0
   25.8723  -20.5332  -14.6647 O   0  0  0  0  0  0  0  0  0  0  0  0
   27.8231  -16.7605  -15.1370 C   0  0  0  0  0  0  0  0  0  0  0  0
   27.0587  -18.0708  -15.1937 C   0  0  2  0  0  0  0  0  0  0  0  0
   26.7176  -18.5579  -13.8784 N   0  0  0  0  0  0  0  0  0  0  0  0
   27.7683  -19.0663  -16.0090 C   0  0  0  0  0  0  0  0  0  0  0  0
   28.6212  -19.8137  -15.4865 O   0  0  0  0  0  0  0  0  0  0  0  0
   27.5048  -19.1895  -17.3558 O   0  0  0  0  0  0  0  0  0  0  0  0
  2  1  1  0
  2  3  2  0
  4  2  1  0
  5  4  1  0
  5  7  1  0
  5  6  1  1
  7  8  2  0
  9  7  1  0
  9 10  1  0
 10 11  1  6
 11 12  1  0
 12 17  2  0
 13 12  1  0
 13 14  2  0
 14 15  1  0
 15 16  2  0
 17 16  1  0
 18 10  1  0
 18 19  2  0
 21 20  1  1
 21 22  1  0
 21 23  1  0
 22 18  1  0
 23 25  1  0
 24 23  2  0
M  END
$$$$
