NFA.pdb
     RDKit          3D

 25 25  0  0  1  0  0  0  0  0999 V2000
   26.7784  -19.1878  -14.3799 N   0  0  0  0  0  0  0  0  0  0  0  0
   25.4668  -19.7043  -14.2459 C   0  0  0  0  0  0  0  0  0  0  0  0
   24.6499  -19.5207  -15.1743 O   0  0  0  0  0  0  0  0  0  0  0  0
   25.1023  -20.4325  -13.0378 C   0  0  0  0  0  0  0  0  0  0  0  0
   26.2160  -20.5547  -12.0400 C   0  0  2  0  0  0  0  0  0  0  0  0
   27.2530  -21.3853  -12.5506 N   0  0  0  0  0  0  0  0  0  0  0  0
   25.7411  -21.0380  -10.7174 C   0  0  0  0  0  0  0  0  0  0  0  0
   25.6809  -22.2678  -10.4487 O   0  0  0  0  0  0  0  0  0  0  0  0
   25.3287  -20.1532   -9.6814 N   0  0  0  0  0  0  0  0  0  0  0  0
   24.8438  -20.5991   -8.3912 C   0  0  1  0  0  0  0  0  0  0  0  0
   25.2013  -19.6790   -7.2828 C   0  0  0  0  0  0  0  0  0  0  0  0
   26.5706  -19.8086   -6.7602 C   0  0  0  0  0  0  0  0  0  0  0  0
   27.0627  -21.0067   -6.2919 C   0  0  0  0  0  0  0  0  0  0  0  0
   28.3437  -21.1130   -5.8064 C   0  0  0  0  0  0  0  0  0  0  0  0
   29.1922  -20.0342   -5.7647 C   0  0  0  0  0  0  0  0  0  0  0  0
   28.7152  -18.8256   -6.2303 C   0  0  0  0  0  0  0  0  0  0  0  0
   27.4356  -18.7123   -6.7170 C   0  0  0  0  0  0  0  0  0  0  0  0
   23.4116  -20.9403   -8.4074 C   0  0  0  0  0  0  0  0  0  0  0  0
   22.6031  -20.0667   -8.7825 O   0  0  0  0  0  0  0  0  0  0  0  0
   21.1943  -23.8866   -8.5867 C   0  0  0  0  0  0  0  0  0  0  0  0
   21.4814  -22.5014   -8.0361 C   0  0  2  0  0  0  0  0  0  0  0  0
   22.8940  -22.2047   -8.0216 N   0  0  0  0  0  0  0  0  0  0  0  0
   20.8395  -22.3045   -6.7290 C   0  0  0  0  0  0  0  0  0  0  0  0
   21.5343  -22.0943   -5.7130 O   0  0  0  0  0  0  0  0  0  0  0  0
   19.4679  -22.3486   -6.6051 O   0  0  0  0  0  0  0  0  0  0  0  0
  2  1  1  0
  2  3  2  0
  4  2  1  0
  5  4  1  0
  5  7  1  0
  5  6  1  6
  7  8  2  0
  9  7  1  0
  9 10  1  0
 10 11  1  1
 11 12  1  0
 12 17  2  0
 13 12  1  0
 13 14  2  0
 14 15  1  0
 15 16  2  0
 17 16  1  0
 18 10  1  0
 18 19  2  0
 21 20  1  1
 21 22  1  0
 21 23  1  0
 22 18  1  0
 23 25  1  0
 24 23  2  0
M  END
$$$$
