NFA.pdb
     RDKit          3D

 25 25  0  0  1  0  0  0  0  0999 V2000
   22.5039  -21.2886  -13.3542 N   0  0  0  0  0  0  0  0  0  0  0  0
   23.0708  -20.4070  -12.4021 C   0  0  0  0  0  0  0  0  0  0  0  0
   22.8822  -19.1780  -12.5327 O   0  0  0  0  0  0  0  0  0  0  0  0
   23.8550  -20.9488  -11.3002 C   0  0  0  0  0  0  0  0  0  0  0  0
   25.2457  -20.3933  -11.2104 C   0  0  2  0  0  0  0  0  0  0  0  0
   26.0232  -20.8153  -12.3256 N   0  0  0  0  0  0  0  0  0  0  0  0
   25.9120  -20.7387   -9.9279 C   0  0  0  0  0  0  0  0  0  0  0  0
   26.0384  -21.9353   -9.5530 O   0  0  0  0  0  0  0  0  0  0  0  0
   26.4441  -19.7518   -9.0508 N   0  0  0  0  0  0  0  0  0  0  0  0
   27.1669  -20.0647   -7.8351 C   0  0  1  0  0  0  0  0  0  0  0  0
   28.1367  -19.0112   -7.4444 C   0  0  0  0  0  0  0  0  0  0  0  0
   28.8777  -19.2547   -6.1968 C   0  0  0  0  0  0  0  0  0  0  0  0
   29.8127  -20.2601   -6.0878 C   0  0  0  0  0  0  0  0  0  0  0  0
   30.4973  -20.4763   -4.9162 C   0  0  0  0  0  0  0  0  0  0  0  0
   30.2834  -19.7034   -3.8015 C   0  0  0  0  0  0  0  0  0  0  0  0
   29.3496  -18.6912   -3.8934 C   0  0  0  0  0  0  0  0  0  0  0  0
   28.6617  -18.4697   -5.0615 C   0  0  0  0  0  0  0  0  0  0  0  0
   26.2783  -20.4581   -6.7289 C   0  0  0  0  0  0  0  0  0  0  0  0
   25.3284  -19.7020   -6.4402 O   0  0  0  0  0  0  0  0  0  0  0  0
   25.7005  -23.4383   -4.4578 C   0  0  0  0  0  0  0  0  0  0  0  0
   25.5746  -21.9804   -4.8614 C   0  0  2  0  0  0  0  0  0  0  0  0
   26.4372  -21.6472   -5.9698 N   0  0  0  0  0  0  0  0  0  0  0  0
   25.7542  -21.0907   -3.7057 C   0  0  0  0  0  0  0  0  0  0  0  0
   26.7694  -20.3686   -3.6204 O   0  0  0  0  0  0  0  0  0  0  0  0
   24.8100  -21.0400   -2.7035 O   0  0  0  0  0  0  0  0  0  0  0  0
  2  1  1  0
  2  3  2  0
  4  2  1  0
  5  4  1  0
  5  7  1  0
  5  6  1  6
  7  8  2  0
  9  7  1  0
  9 10  1  0
 10 11  1  1
 11 12  1  0
 12 17  2  0
 13 12  1  0
 13 14  2  0
 14 15  1  0
 15 16  2  0
 17 16  1  0
 18 10  1  0
 18 19  2  0
 21 20  1  1
 21 22  1  0
 21 23  1  0
 22 18  1  0
 23 25  1  0
 24 23  2  0
M  END
$$$$
