NFA.pdb
     RDKit          3D

 25 25  0  0  1  0  0  0  0  0999 V2000
   17.2578  -12.1453  -17.4873 N   0  0  0  0  0  0  0  0  0  0  0  0
   18.2035  -12.3485  -16.4532 C   0  0  0  0  0  0  0  0  0  0  0  0
   18.3611  -13.5030  -16.0001 O   0  0  0  0  0  0  0  0  0  0  0  0
   18.9655  -11.2156  -15.9449 C   0  0  0  0  0  0  0  0  0  0  0  0
   18.6321   -9.9106  -16.6056 C   0  0  2  0  0  0  0  0  0  0  0  0
   19.3489   -9.7740  -17.8278 N   0  0  0  0  0  0  0  0  0  0  0  0
   18.8659   -8.7469  -15.7115 C   0  0  0  0  0  0  0  0  0  0  0  0
   18.2858   -8.6457  -14.5972 O   0  0  0  0  0  0  0  0  0  0  0  0
   19.7496   -7.6843  -16.0523 N   0  0  0  0  0  0  0  0  0  0  0  0
   20.0661   -6.5869  -15.1611 C   0  0  1  0  0  0  0  0  0  0  0  0
   21.5123   -6.4931  -14.8407 C   0  0  0  0  0  0  0  0  0  0  0  0
   22.1225   -7.7069  -14.2758 C   0  0  0  0  0  0  0  0  0  0  0  0
   21.8076   -8.1631  -13.0151 C   0  0  0  0  0  0  0  0  0  0  0  0
   22.3855   -9.2984  -12.5002 C   0  0  0  0  0  0  0  0  0  0  0  0
   23.3016  -10.0304  -13.2148 C   0  0  0  0  0  0  0  0  0  0  0  0
   23.6288   -9.5873  -14.4803 C   0  0  0  0  0  0  0  0  0  0  0  0
   23.0548   -8.4531  -15.0011 C   0  0  0  0  0  0  0  0  0  0  0  0
   19.4993   -5.3050  -15.6119 C   0  0  0  0  0  0  0  0  0  0  0  0
   19.7937   -4.9013  -16.7554 O   0  0  0  0  0  0  0  0  0  0  0  0
   16.7735   -2.9156  -14.5837 C   0  0  0  0  0  0  0  0  0  0  0  0
   18.0535   -3.2745  -15.3165 C   0  0  2  0  0  0  0  0  0  0  0  0
   18.6367   -4.4992  -14.8230 N   0  0  0  0  0  0  0  0  0  0  0  0
   18.9982   -2.1489  -15.3203 C   0  0  0  0  0  0  0  0  0  0  0  0
   20.0815   -2.2357  -14.7054 O   0  0  0  0  0  0  0  0  0  0  0  0
   18.7045   -0.9863  -15.9991 O   0  0  0  0  0  0  0  0  0  0  0  0
  2  1  1  0
  2  3  2  0
  4  2  1  0
  5  4  1  0
  5  7  1  0
  5  6  1  6
  7  8  2  0
  9  7  1  0
  9 10  1  0
 10 11  1  6
 11 12  1  0
 12 17  2  0
 13 12  1  0
 13 14  2  0
 14 15  1  0
 15 16  2  0
 17 16  1  0
 18 10  1  0
 18 19  2  0
 21 20  1  1
 21 22  1  0
 21 23  1  0
 22 18  1  0
 23 25  1  0
 24 23  2  0
M  END
$$$$
