NFA.pdb
     RDKit          3D

 25 25  0  0  1  0  0  0  0  0999 V2000
   18.3393  -14.0618  -20.7745 N   0  0  0  0  0  0  0  0  0  0  0  0
   18.2085  -12.7833  -20.1802 C   0  0  0  0  0  0  0  0  0  0  0  0
   17.3204  -12.0113  -20.6024 O   0  0  0  0  0  0  0  0  0  0  0  0
   19.1055  -12.3999  -19.0981 C   0  0  0  0  0  0  0  0  0  0  0  0
   20.1373  -13.4368  -18.7648 C   0  0  2  0  0  0  0  0  0  0  0  0
   19.5189  -14.5967  -18.2185 N   0  0  0  0  0  0  0  0  0  0  0  0
   21.1945  -12.9140  -17.8607 C   0  0  0  0  0  0  0  0  0  0  0  0
   21.0490  -12.9132  -16.6089 O   0  0  0  0  0  0  0  0  0  0  0  0
   22.4247  -12.3868  -18.3451 N   0  0  0  0  0  0  0  0  0  0  0  0
   23.4323  -11.7890  -17.4931 C   0  0  1  0  0  0  0  0  0  0  0  0
   24.8168  -12.1655  -17.8729 C   0  0  0  0  0  0  0  0  0  0  0  0
   25.8818  -11.6583  -16.9935 C   0  0  0  0  0  0  0  0  0  0  0  0
   26.1902  -12.2648  -15.7961 C   0  0  0  0  0  0  0  0  0  0  0  0
   27.1874  -11.7799  -14.9846 C   0  0  0  0  0  0  0  0  0  0  0  0
   27.9221  -10.6714  -15.3267 C   0  0  0  0  0  0  0  0  0  0  0  0
   27.6262  -10.0512  -16.5237 C   0  0  0  0  0  0  0  0  0  0  0  0
   26.6305  -10.5307  -17.3397 C   0  0  0  0  0  0  0  0  0  0  0  0
   23.2601  -10.3347  -17.3408 C   0  0  0  0  0  0  0  0  0  0  0  0
   23.2654   -9.6306  -18.3711 O   0  0  0  0  0  0  0  0  0  0  0  0
   22.1480   -7.8919  -14.6974 C   0  0  0  0  0  0  0  0  0  0  0  0
   22.8695   -8.2614  -15.9808 C   0  0  2  0  0  0  0  0  0  0  0  0
   23.0881   -9.6840  -16.0907 N   0  0  0  0  0  0  0  0  0  0  0  0
   24.1010   -7.4765  -16.1440 C   0  0  0  0  0  0  0  0  0  0  0  0
   25.2112   -8.0475  -16.1709 O   0  0  0  0  0  0  0  0  0  0  0  0
   24.0499   -6.1053  -16.2694 O   0  0  0  0  0  0  0  0  0  0  0  0
  2  1  1  0
  2  3  2  0
  4  2  1  0
  5  4  1  0
  5  7  1  0
  5  6  1  1
  7  8  2  0
  9  7  1  0
  9 10  1  0
 10 11  1  6
 11 12  1  0
 12 17  2  0
 13 12  1  0
 13 14  2  0
 14 15  1  0
 15 16  2  0
 17 16  1  0
 18 10  1  0
 18 19  2  0
 21 20  1  1
 21 22  1  0
 21 23  1  0
 22 18  1  0
 23 25  1  0
 24 23  2  0
M  END
$$$$
