NFA.pdb
     RDKit          3D

 25 25  0  0  1  0  0  0  0  0999 V2000
   19.4990  -22.0205   -6.3540 N   0  0  0  0  0  0  0  0  0  0  0  0
   20.4019  -22.3984   -7.3773 C   0  0  0  0  0  0  0  0  0  0  0  0
   20.2884  -23.5322   -7.8916 O   0  0  0  0  0  0  0  0  0  0  0  0
   21.4349  -21.4637   -7.8038 C   0  0  0  0  0  0  0  0  0  0  0  0
   22.8314  -21.9130   -7.4897 C   0  0  2  0  0  0  0  0  0  0  0  0
   23.0014  -22.0643   -6.0846 N   0  0  0  0  0  0  0  0  0  0  0  0
   23.8605  -21.0064   -8.0619 C   0  0  0  0  0  0  0  0  0  0  0  0
   23.5652  -19.8530   -8.4752 O   0  0  0  0  0  0  0  0  0  0  0  0
   25.2295  -21.3782   -8.1785 N   0  0  0  0  0  0  0  0  0  0  0  0
   26.2310  -20.5582   -8.8290 C   0  0  1  0  0  0  0  0  0  0  0  0
   27.5507  -20.6001   -8.1511 C   0  0  0  0  0  0  0  0  0  0  0  0
   27.5931  -20.0253   -6.7974 C   0  0  0  0  0  0  0  0  0  0  0  0
   27.7957  -20.8043   -5.6798 C   0  0  0  0  0  0  0  0  0  0  0  0
   27.8327  -20.2538   -4.4214 C   0  0  0  0  0  0  0  0  0  0  0  0
   27.6701  -18.9056   -4.2176 C   0  0  0  0  0  0  0  0  0  0  0  0
   27.4660  -18.1101   -5.3269 C   0  0  0  0  0  0  0  0  0  0  0  0
   27.4279  -18.6539   -6.5878 C   0  0  0  0  0  0  0  0  0  0  0  0
   26.3265  -20.8155  -10.2756 C   0  0  0  0  0  0  0  0  0  0  0  0
   27.0750  -21.7366  -10.6611 O   0  0  0  0  0  0  0  0  0  0  0  0
   25.5011  -21.6818  -13.1174 C   0  0  0  0  0  0  0  0  0  0  0  0
   25.8313  -20.2679  -12.6747 C   0  0  2  0  0  0  0  0  0  0  0  0
   25.6174  -20.0778  -11.2598 N   0  0  0  0  0  0  0  0  0  0  0  0
   25.1310  -19.2743  -13.5003 C   0  0  0  0  0  0  0  0  0  0  0  0
   25.2496  -19.2942  -14.7431 O   0  0  0  0  0  0  0  0  0  0  0  0
   24.3366  -18.3104  -12.9186 O   0  0  0  0  0  0  0  0  0  0  0  0
  2  1  1  0
  2  3  2  0
  4  2  1  0
  5  4  1  0
  5  7  1  0
  5  6  1  1
  7  8  2  0
  9  7  1  0
  9 10  1  0
 10 11  1  1
 11 12  1  0
 12 17  2  0
 13 12  1  0
 13 14  2  0
 14 15  1  0
 15 16  2  0
 17 16  1  0
 18 10  1  0
 18 19  2  0
 21 20  1  6
 21 22  1  0
 21 23  1  0
 22 18  1  0
 23 25  1  0
 24 23  2  0
M  END
$$$$
