NFA.pdb
     RDKit          3D

 25 25  0  0  1  0  0  0  0  0999 V2000
   28.8195  -17.7446  -14.4085 N   0  0  0  0  0  0  0  0  0  0  0  0
   28.5756  -19.1109  -14.6892 C   0  0  0  0  0  0  0  0  0  0  0  0
   29.0257  -19.5972  -15.7494 O   0  0  0  0  0  0  0  0  0  0  0  0
   27.8111  -19.9124  -13.7428 C   0  0  0  0  0  0  0  0  0  0  0  0
   28.5316  -20.1892  -12.4564 C   0  0  2  0  0  0  0  0  0  0  0  0
   29.5702  -21.1406  -12.6623 N   0  0  0  0  0  0  0  0  0  0  0  0
   27.6111  -20.6231  -11.3734 C   0  0  0  0  0  0  0  0  0  0  0  0
   27.2203  -21.8177  -11.2808 O   0  0  0  0  0  0  0  0  0  0  0  0
   27.1175  -19.7277  -10.3830 N   0  0  0  0  0  0  0  0  0  0  0  0
   26.0560  -20.0628   -9.4560 C   0  0  1  0  0  0  0  0  0  0  0  0
   26.0225  -19.1809   -8.2627 C   0  0  0  0  0  0  0  0  0  0  0  0
   26.7616  -19.6669   -7.0870 C   0  0  0  0  0  0  0  0  0  0  0  0
   26.5687  -20.9307   -6.5748 C   0  0  0  0  0  0  0  0  0  0  0  0
   27.2660  -21.3712   -5.4759 C   0  0  0  0  0  0  0  0  0  0  0  0
   28.1856  -20.5760   -4.8374 C   0  0  0  0  0  0  0  0  0  0  0  0
   28.3914  -19.3063   -5.3377 C   0  0  0  0  0  0  0  0  0  0  0  0
   27.6977  -18.8595   -6.4359 C   0  0  0  0  0  0  0  0  0  0  0  0
   24.7432  -20.1822  -10.1118 C   0  0  0  0  0  0  0  0  0  0  0  0
   24.2455  -19.1581  -10.6226 O   0  0  0  0  0  0  0  0  0  0  0  0
   22.5744  -22.7956  -11.6182 C   0  0  0  0  0  0  0  0  0  0  0  0
   22.7360  -21.4822  -10.8745 C   0  0  2  0  0  0  0  0  0  0  0  0
   24.0082  -21.3938  -10.1983 N   0  0  0  0  0  0  0  0  0  0  0  0
   21.5937  -21.2301   -9.9851 C   0  0  0  0  0  0  0  0  0  0  0  0
   21.7726  -21.0879   -8.7576 O   0  0  0  0  0  0  0  0  0  0  0  0
   20.3142  -21.1471  -10.4896 O   0  0  0  0  0  0  0  0  0  0  0  0
  2  1  1  0
  2  3  2  0
  4  2  1  0
  5  4  1  0
  5  7  1  0
  5  6  1  6
  7  8  2  0
  9  7  1  0
  9 10  1  0
 10 11  1  1
 11 12  1  0
 12 17  2  0
 13 12  1  0
 13 14  2  0
 14 15  1  0
 15 16  2  0
 17 16  1  0
 18 10  1  0
 18 19  2  0
 21 20  1  1
 21 22  1  0
 21 23  1  0
 22 18  1  0
 23 25  1  0
 24 23  2  0
M  END
$$$$
