PRT.pdb
     RDKit          3D

 26 26  0  0  1  0  0  0  0  0999 V2000
   25.6081  -21.3228  -11.9023 N   0  0  0  0  0  0  0  0  0  0  0  0
   26.7163  -21.5637  -10.9653 C   0  0  0  0  0  0  0  0  0  0  0  0
   26.7096  -20.3483  -10.0464 C   0  0  0  0  0  0  0  0  0  0  0  0
   25.3688  -19.6887  -10.2950 C   0  0  0  0  0  0  0  0  0  0  0  0
   24.6140  -20.7733  -11.0157 C   0  0  1  0  0  0  0  0  0  0  0  0
   23.4331  -20.2507  -11.7624 C   0  0  0  0  0  0  0  0  0  0  0  0
   22.5564  -19.6547  -11.1330 O   0  0  0  0  0  0  0  0  0  0  0  0
   25.4180  -18.5147  -18.6945 N   0  0  0  0  0  0  0  0  0  0  0  0
   24.8733  -19.8156  -18.5367 C   0  0  0  0  0  0  0  0  0  0  0  0
   25.5796  -20.8459  -18.8527 N   0  0  0  0  0  0  0  0  0  0  0  0
   23.5618  -20.0001  -18.0358 N   0  0  0  0  0  0  0  0  0  0  0  0
   22.6960  -18.8671  -17.7780 C   0  0  0  0  0  0  0  0  0  0  0  0
   22.0330  -18.9811  -16.4158 C   0  0  0  0  0  0  0  0  0  0  0  0
   22.9878  -19.6942  -15.4965 C   0  0  0  0  0  0  0  0  0  0  0  0
   22.4603  -19.8783  -14.0986 C   0  0  2  0  0  0  0  0  0  0  0  0
   23.3289  -20.4342  -13.1345 N   0  0  0  0  0  0  0  0  0  0  0  0
   21.0824  -20.3544  -14.1041 C   0  0  0  0  0  0  0  0  0  0  0  0
   20.8375  -21.5950  -14.3657 O   0  0  0  0  0  0  0  0  0  0  0  0
   25.1673  -21.8011  -18.8213 C   0  0  0  0  0  0  0  0  0  0  0  0
   18.1747  -19.3935  -11.4148 C   0  0  2  0  0  0  0  0  0  0  0  0
   17.7717  -19.2908  -12.8566 O   0  0  0  0  0  0  0  0  0  0  0  0
   17.9417  -17.9636  -13.2858 C   0  0  2  0  0  0  0  0  0  0  0  0
   18.6353  -20.1833  -13.7219 N   0  0  0  0  0  0  0  0  0  0  0  0
   19.9583  -19.5585  -13.8400 C   0  0  0  0  0  0  0  0  0  0  0  0
   18.0835  -20.2942  -15.0864 O   0  0  0  0  0  0  0  0  0  0  0  0
   18.8603  -19.7527  -16.1143 O   0  0  0  0  0  0  0  0  0  0  0  0
  2  1  1  0
  3  2  1  0
  4  3  1  0
  4  5  1  0
  5  6  1  6
  5  1  1  0
  6  7  2  0
  9  8  1  0
 10  9  2  0
 11  9  1  0
 12 11  1  0
 13 12  1  0
 13 14  1  0
 15 14  1  6
 16 15  1  0
 16  6  1  0
 17 15  1  0
 18 17  2  0
 20 19  1  1
 20 22  1  0
 21 20  1  0
 22 24  1  0
 22 23  1  6
 23 17  1  0
 24 25  1  0
 26 24  2  0
M  END
$$$$
