PRT.pdb
     RDKit          3D

 26 26  0  0  1  0  0  0  0  0999 V2000
   26.5561  -21.8183  -16.4009 N   0  0  0  0  0  0  0  0  0  0  0  0
   27.8922  -22.3237  -16.7523 C   0  0  0  0  0  0  0  0  0  0  0  0
   28.7829  -21.0874  -16.7388 C   0  0  0  0  0  0  0  0  0  0  0  0
   27.9648  -20.0347  -16.0197 C   0  0  0  0  0  0  0  0  0  0  0  0
   26.8857  -20.8623  -15.3745 C   0  0  1  0  0  0  0  0  0  0  0  0
   25.7015  -20.0482  -14.9740 C   0  0  0  0  0  0  0  0  0  0  0  0
   25.8487  -19.1829  -14.1081 O   0  0  0  0  0  0  0  0  0  0  0  0
   25.3962  -15.9609  -18.7929 N   0  0  0  0  0  0  0  0  0  0  0  0
   25.0159  -16.8918  -19.7943 C   0  0  0  0  0  0  0  0  0  0  0  0
   25.8427  -17.1884  -20.7371 N   0  0  0  0  0  0  0  0  0  0  0  0
   23.7384  -17.5021  -19.7739 N   0  0  0  0  0  0  0  0  0  0  0  0
   22.8982  -17.4334  -18.5952 C   0  0  0  0  0  0  0  0  0  0  0  0
   23.6093  -18.0035  -17.3797 C   0  0  0  0  0  0  0  0  0  0  0  0
   22.6626  -18.9521  -16.6945 C   0  0  0  0  0  0  0  0  0  0  0  0
   23.2318  -19.5856  -15.4532 C   0  0  2  0  0  0  0  0  0  0  0  0
   24.4646  -20.2645  -15.5659 N   0  0  0  0  0  0  0  0  0  0  0  0
   22.1936  -20.2229  -14.6524 C   0  0  0  0  0  0  0  0  0  0  0  0
   21.5936  -21.2729  -15.1051 O   0  0  0  0  0  0  0  0  0  0  0  0
   25.5725  -17.8563  -21.4884 C   0  0  0  0  0  0  0  0  0  0  0  0
   22.2595  -20.7148  -10.6859 C   0  0  2  0  0  0  0  0  0  0  0  0
   20.9219  -20.2465  -11.1792 O   0  0  0  0  0  0  0  0  0  0  0  0
   20.8293  -18.8559  -10.9995 C   0  0  2  0  0  0  0  0  0  0  0  0
   20.7568  -20.5461  -12.6537 N   0  0  0  0  0  0  0  0  0  0  0  0
   21.7734  -19.7837  -13.3885 C   0  0  0  0  0  0  0  0  0  0  0  0
   19.4385  -20.0962  -13.1422 O   0  0  0  0  0  0  0  0  0  0  0  0
   18.3279  -20.7915  -12.6558 O   0  0  0  0  0  0  0  0  0  0  0  0
  2  1  1  0
  3  2  1  0
  4  3  1  0
  4  5  1  0
  5  6  1  6
  5  1  1  0
  6  7  2  0
  9  8  1  0
 10  9  2  0
 11  9  1  0
 12 11  1  0
 13 12  1  0
 13 14  1  0
 15 14  1  6
 16 15  1  0
 16  6  1  0
 17 15  1  0
 18 17  2  0
 20 19  1  1
 20 22  1  0
 21 20  1  0
 22 24  1  0
 22 23  1  6
 23 17  1  0
 24 25  1  0
 26 24  2  0
M  END
$$$$
