PRT.pdb
     RDKit          3D

 26 26  0  0  1  0  0  0  0  0999 V2000
   22.8304  -16.4508  -16.6946 N   0  0  0  0  0  0  0  0  0  0  0  0
   21.8755  -15.4133  -17.1141 C   0  0  0  0  0  0  0  0  0  0  0  0
   22.7486  -14.2265  -17.5027 C   0  0  0  0  0  0  0  0  0  0  0  0
   24.1436  -14.8033  -17.6284 C   0  0  0  0  0  0  0  0  0  0  0  0
   23.8686  -16.2822  -17.6795 C   0  0  1  0  0  0  0  0  0  0  0  0
   25.0741  -17.1007  -17.3600 C   0  0  0  0  0  0  0  0  0  0  0  0
   26.0359  -17.0559  -18.1301 O   0  0  0  0  0  0  0  0  0  0  0  0
   26.6887  -22.1753  -11.5414 N   0  0  0  0  0  0  0  0  0  0  0  0
   25.7665  -21.1141  -11.3483 C   0  0  0  0  0  0  0  0  0  0  0  0
   24.5942  -21.3652  -10.8760 N   0  0  0  0  0  0  0  0  0  0  0  0
   26.1151  -19.7793  -11.6671 N   0  0  0  0  0  0  0  0  0  0  0  0
   27.4400  -19.4507  -12.1533 C   0  0  0  0  0  0  0  0  0  0  0  0
   27.4809  -19.4403  -13.6720 C   0  0  0  0  0  0  0  0  0  0  0  0
   26.2444  -18.7355  -14.1617 C   0  0  0  0  0  0  0  0  0  0  0  0
   26.1191  -18.7026  -15.6615 C   0  0  2  0  0  0  0  0  0  0  0  0
   25.1066  -17.8930  -16.2205 N   0  0  0  0  0  0  0  0  0  0  0  0
   26.3090  -20.0254  -16.2444 C   0  0  0  0  0  0  0  0  0  0  0  0
   25.3028  -20.8285  -16.3442 O   0  0  0  0  0  0  0  0  0  0  0  0
   23.8756  -20.6147  -10.8144 C   0  0  0  0  0  0  0  0  0  0  0  0
   28.0936  -21.0167  -19.5999 C   0  0  2  0  0  0  0  0  0  0  0  0
   28.5999  -21.8309  -18.4456 O   0  0  0  0  0  0  0  0  0  0  0  0
   29.7808  -21.2467  -17.9567 C   0  0  2  0  0  0  0  0  0  0  0  0
   27.5858  -21.8615  -17.3223 N   0  0  0  0  0  0  0  0  0  0  0  0
   27.5293  -20.5219  -16.7250 C   0  0  0  0  0  0  0  0  0  0  0  0
   28.0015  -22.7952  -16.2574 O   0  0  0  0  0  0  0  0  0  0  0  0
   28.0938  -24.1426  -16.6168 O   0  0  0  0  0  0  0  0  0  0  0  0
  2  1  1  0
  3  2  1  0
  4  3  1  0
  4  5  1  0
  5  6  1  1
  5  1  1  0
  6  7  2  0
  9  8  1  0
 10  9  2  0
 11  9  1  0
 12 11  1  0
 13 12  1  0
 13 14  1  0
 15 14  1  1
 16 15  1  0
 16  6  1  0
 17 15  1  0
 18 17  2  0
 20 19  1  6
 20 22  1  0
 21 20  1  0
 22 24  1  0
 22 23  1  1
 23 17  1  0
 24 25  1  0
 26 24  2  0
M  END
$$$$
