PRT.pdb
     RDKit          3D

 26 26  0  0  1  0  0  0  0  0999 V2000
   29.3896  -22.3988  -11.2602 N   0  0  0  0  0  0  0  0  0  0  0  0
   30.6727  -21.8413  -10.8050 C   0  0  0  0  0  0  0  0  0  0  0  0
   30.6784  -20.4139  -11.3378 C   0  0  0  0  0  0  0  0  0  0  0  0
   29.2412  -20.1490  -11.7365 C   0  0  0  0  0  0  0  0  0  0  0  0
   28.5129  -21.2744  -11.0522 C   0  0  1  0  0  0  0  0  0  0  0  0
   27.1577  -21.5139  -11.6279 C   0  0  0  0  0  0  0  0  0  0  0  0
   27.0504  -22.3009  -12.5709 O   0  0  0  0  0  0  0  0  0  0  0  0
   19.9740  -22.3252   -9.2000 N   0  0  0  0  0  0  0  0  0  0  0  0
   20.6911  -22.2554   -7.9773 C   0  0  0  0  0  0  0  0  0  0  0  0
   20.4323  -23.0971   -7.0366 N   0  0  0  0  0  0  0  0  0  0  0  0
   21.6900  -21.2726   -7.7740 N   0  0  0  0  0  0  0  0  0  0  0  0
   22.1267  -20.4178   -8.8595 C   0  0  0  0  0  0  0  0  0  0  0  0
   23.1919  -21.0995   -9.7012 C   0  0  0  0  0  0  0  0  0  0  0  0
   23.7047  -20.0951  -10.6980 C   0  0  0  0  0  0  0  0  0  0  0  0
   24.7519  -20.6451  -11.6291 C   0  0  2  0  0  0  0  0  0  0  0  0
   26.0465  -20.8628  -11.1098 N   0  0  0  0  0  0  0  0  0  0  0  0
   24.6604  -20.0435  -12.9539 C   0  0  0  0  0  0  0  0  0  0  0  0
   24.8238  -18.7696  -13.0884 O   0  0  0  0  0  0  0  0  0  0  0  0
   20.9402  -23.0506   -6.1292 C   0  0  0  0  0  0  0  0  0  0  0  0
   26.8574  -20.3121  -15.7639 C   0  0  2  0  0  0  0  0  0  0  0  0
   25.4940  -20.6560  -16.2882 O   0  0  0  0  0  0  0  0  0  0  0  0
   25.3339  -22.0520  -16.2655 C   0  0  2  0  0  0  0  0  0  0  0  0
   24.4140  -20.0408  -15.4243 N   0  0  0  0  0  0  0  0  0  0  0  0
   24.4030  -20.7487  -14.1385 C   0  0  0  0  0  0  0  0  0  0  0  0
   23.0811  -20.2222  -16.0319 O   0  0  0  0  0  0  0  0  0  0  0  0
   22.1698  -20.9943  -15.3063 O   0  0  0  0  0  0  0  0  0  0  0  0
  2  1  1  0
  3  2  1  0
  4  3  1  0
  4  5  1  0
  5  6  1  6
  5  1  1  0
  6  7  2  0
  9  8  1  0
 10  9  2  0
 11  9  1  0
 12 11  1  0
 13 12  1  0
 13 14  1  0
 15 14  1  1
 16 15  1  0
 16  6  1  0
 17 15  1  0
 18 17  2  0
 20 19  1  6
 20 22  1  0
 21 20  1  0
 22 24  1  0
 22 23  1  6
 23 17  1  0
 24 25  1  0
 26 24  2  0
M  END
$$$$
