PRT.pdb
     RDKit          3D

 26 26  0  0  1  0  0  0  0  0999 V2000
   17.6929  -25.2077   -9.1763 N   0  0  0  0  0  0  0  0  0  0  0  0
   18.8096  -24.6288   -9.9391 C   0  0  0  0  0  0  0  0  0  0  0  0
   19.3126  -23.4838   -9.0687 C   0  0  0  0  0  0  0  0  0  0  0  0
   18.6865  -23.7316   -7.7118 C   0  0  0  0  0  0  0  0  0  0  0  0
   18.2209  -25.1575   -7.8365 C   0  0  1  0  0  0  0  0  0  0  0  0
   17.1889  -25.5144   -6.8201 C   0  0  0  0  0  0  0  0  0  0  0  0
   16.0041  -25.2994   -7.0848 O   0  0  0  0  0  0  0  0  0  0  0  0
   17.7536  -31.8130   -6.1249 N   0  0  0  0  0  0  0  0  0  0  0  0
   18.7155  -31.4249   -5.1564 C   0  0  0  0  0  0  0  0  0  0  0  0
   19.9484  -31.7672   -5.3083 N   0  0  0  0  0  0  0  0  0  0  0  0
   18.3410  -30.6646   -4.0221 N   0  0  0  0  0  0  0  0  0  0  0  0
   16.9682  -30.2434   -3.8271 C   0  0  0  0  0  0  0  0  0  0  0  0
   16.6568  -28.9946   -4.6344 C   0  0  0  0  0  0  0  0  0  0  0  0
   17.1458  -27.8057   -3.8515 C   0  0  0  0  0  0  0  0  0  0  0  0
   16.8062  -26.4823   -4.4835 C   0  0  2  0  0  0  0  0  0  0  0  0
   17.5600  -26.0752   -5.6056 N   0  0  0  0  0  0  0  0  0  0  0  0
   16.5112  -25.4683   -3.4784 C   0  0  0  0  0  0  0  0  0  0  0  0
   17.4753  -24.9518   -2.7918 O   0  0  0  0  0  0  0  0  0  0  0  0
   20.6592  -31.5221   -4.5885 C   0  0  0  0  0  0  0  0  0  0  0  0
   12.6377  -23.9660   -2.6904 C   0  0  2  0  0  0  0  0  0  0  0  0
   13.8555  -23.0973   -2.5706 O   0  0  0  0  0  0  0  0  0  0  0  0
   13.6360  -22.1376   -1.5679 C   0  0  1  0  0  0  0  0  0  0  0  0
   15.0668  -23.9186   -2.1841 N   0  0  0  0  0  0  0  0  0  0  0  0
   15.2292  -24.9846   -3.1799 C   0  0  0  0  0  0  0  0  0  0  0  0
   14.8689  -24.5724   -0.8756 O   0  0  0  0  0  0  0  0  0  0  0  0
   14.8724  -23.7336    0.2424 O   0  0  0  0  0  0  0  0  0  0  0  0
  2  1  1  0
  3  2  1  0
  4  3  1  0
  4  5  1  0
  5  6  1  1
  5  1  1  0
  6  7  2  0
  9  8  1  0
 10  9  2  0
 11  9  1  0
 12 11  1  0
 13 12  1  0
 13 14  1  0
 15 14  1  1
 16 15  1  0
 16  6  1  0
 17 15  1  0
 18 17  2  0
 20 19  1  6
 20 22  1  0
 21 20  1  0
 22 24  1  0
 22 23  1  6
 23 17  1  0
 24 25  1  0
 26 24  2  0
M  END
$$$$
