PRT.pdb
     RDKit          3D

 26 26  0  0  1  0  0  0  0  0999 V2000
   27.9733  -17.7550  -17.9364 N   0  0  0  0  0  0  0  0  0  0  0  0
   29.0819  -17.3621  -18.8200 C   0  0  0  0  0  0  0  0  0  0  0  0
   29.9094  -18.6313  -18.9806 C   0  0  0  0  0  0  0  0  0  0  0  0
   29.0083  -19.7411  -18.4796 C   0  0  0  0  0  0  0  0  0  0  0  0
   27.6639  -19.0650  -18.4506 C   0  0  1  0  0  0  0  0  0  0  0  0
   26.6805  -19.7815  -17.5874 C   0  0  0  0  0  0  0  0  0  0  0  0
   25.7403  -20.3670  -18.1289 O   0  0  0  0  0  0  0  0  0  0  0  0
   26.3881  -19.5718   -9.1959 N   0  0  0  0  0  0  0  0  0  0  0  0
   25.4675  -20.6427   -9.3365 C   0  0  0  0  0  0  0  0  0  0  0  0
   24.5073  -20.7746   -8.4875 N   0  0  0  0  0  0  0  0  0  0  0  0
   25.5876  -21.5714  -10.3986 N   0  0  0  0  0  0  0  0  0  0  0  0
   26.4630  -21.3089  -11.5231 C   0  0  0  0  0  0  0  0  0  0  0  0
   25.6710  -20.8883  -12.7494 C   0  0  0  0  0  0  0  0  0  0  0  0
   26.6474  -20.6526  -13.8704 C   0  0  0  0  0  0  0  0  0  0  0  0
   25.9956  -20.2661  -15.1711 C   0  0  2  0  0  0  0  0  0  0  0  0
   26.8257  -19.7853  -16.2068 N   0  0  0  0  0  0  0  0  0  0  0  0
   24.7350  -19.5673  -14.9520 C   0  0  0  0  0  0  0  0  0  0  0  0
   24.7143  -18.5042  -14.2192 O   0  0  0  0  0  0  0  0  0  0  0  0
   23.8137  -21.5444   -8.5871 C   0  0  0  0  0  0  0  0  0  0  0  0
   21.3120  -20.1506  -17.3256 C   0  0  2  0  0  0  0  0  0  0  0  0
   21.7297  -18.8531  -16.6979 O   0  0  0  0  0  0  0  0  0  0  0  0
   20.5994  -18.0314  -16.5505 C   0  0  1  0  0  0  0  0  0  0  0  0
   22.3285  -19.0861  -15.3274 N   0  0  0  0  0  0  0  0  0  0  0  0
   23.4984  -19.9585  -15.4855 C   0  0  0  0  0  0  0  0  0  0  0  0
   21.3771  -19.7902  -14.4454 O   0  0  0  0  0  0  0  0  0  0  0  0
   20.1911  -19.1131  -14.1483 O   0  0  0  0  0  0  0  0  0  0  0  0
  2  1  1  0
  3  2  1  0
  4  3  1  0
  4  5  1  0
  5  6  1  1
  5  1  1  0
  6  7  2  0
  9  8  1  0
 10  9  2  0
 11  9  1  0
 12 11  1  0
 13 12  1  0
 13 14  1  0
 15 14  1  1
 16 15  1  0
 16  6  1  0
 17 15  1  0
 18 17  2  0
 20 19  1  6
 20 22  1  0
 21 20  1  0
 22 24  1  0
 22 23  1  6
 23 17  1  0
 24 25  1  0
 26 24  2  0
M  END
$$$$
