PRT.pdb
     RDKit          3D

 26 26  0  0  1  0  0  0  0  0999 V2000
   40.8897   -9.6021  -12.5227 N   0  0  0  0  0  0  0  0  0  0  0  0
   40.8044  -10.7753  -13.4062 C   0  0  0  0  0  0  0  0  0  0  0  0
   39.8428  -11.7190  -12.6946 C   0  0  0  0  0  0  0  0  0  0  0  0
   39.1673  -10.8580  -11.6472 C   0  0  0  0  0  0  0  0  0  0  0  0
   39.5155   -9.4689  -12.1103 C   0  0  1  0  0  0  0  0  0  0  0  0
   39.3561   -8.4489  -11.0333 C   0  0  0  0  0  0  0  0  0  0  0  0
   38.2194   -8.1916  -10.6312 O   0  0  0  0  0  0  0  0  0  0  0  0
   43.2085  -10.2142   -5.0973 N   0  0  0  0  0  0  0  0  0  0  0  0
   43.9720  -10.5730   -6.2385 C   0  0  0  0  0  0  0  0  0  0  0  0
   44.6399  -11.6750   -6.2389 N   0  0  0  0  0  0  0  0  0  0  0  0
   44.0115   -9.7370   -7.3806 N   0  0  0  0  0  0  0  0  0  0  0  0
   43.3363   -8.4548   -7.3895 C   0  0  0  0  0  0  0  0  0  0  0  0
   42.2496   -8.4136   -8.4504 C   0  0  0  0  0  0  0  0  0  0  0  0
   41.6424   -7.0364   -8.4352 C   0  0  0  0  0  0  0  0  0  0  0  0
   40.5961   -6.8233   -9.4963 C   0  0  2  0  0  0  0  0  0  0  0  0
   40.4657   -7.8074  -10.5001 N   0  0  0  0  0  0  0  0  0  0  0  0
   40.5397   -5.4299   -9.9212 C   0  0  0  0  0  0  0  0  0  0  0  0
   41.6312   -4.7453  -10.0087 O   0  0  0  0  0  0  0  0  0  0  0  0
   45.2221  -11.9416   -7.0594 C   0  0  0  0  0  0  0  0  0  0  0  0
   38.6107   -3.9154  -12.9992 C   0  0  2  0  0  0  0  0  0  0  0  0
   38.3399   -3.1408  -11.7428 O   0  0  0  0  0  0  0  0  0  0  0  0
   37.1334   -3.5901  -11.1795 C   0  0  2  0  0  0  0  0  0  0  0  0
   39.4445   -3.3539  -10.7301 N   0  0  0  0  0  0  0  0  0  0  0  0
   39.3652   -4.7412  -10.2571 C   0  0  0  0  0  0  0  0  0  0  0  0
   39.2609   -2.4821   -9.5533 O   0  0  0  0  0  0  0  0  0  0  0  0
   39.4110   -1.1096   -9.7703 O   0  0  0  0  0  0  0  0  0  0  0  0
  2  1  1  0
  3  2  1  0
  4  3  1  0
  4  5  1  0
  5  6  1  1
  5  1  1  0
  6  7  2  0
  9  8  1  0
 10  9  2  0
 11  9  1  0
 12 11  1  0
 13 12  1  0
 13 14  1  0
 15 14  1  6
 16 15  1  0
 16  6  1  0
 17 15  1  0
 18 17  2  0
 20 19  1  6
 20 22  1  0
 21 20  1  0
 22 24  1  0
 22 23  1  1
 23 17  1  0
 24 25  1  0
 26 24  2  0
M  END
$$$$
