PRT.pdb
     RDKit          3D

 26 26  0  0  1  0  0  0  0  0999 V2000
   26.3236  -18.3891  -14.6295 N   0  0  0  0  0  0  0  0  0  0  0  0
   27.6787  -17.8589  -14.8458 C   0  0  0  0  0  0  0  0  0  0  0  0
   28.5913  -19.0685  -14.6855 C   0  0  0  0  0  0  0  0  0  0  0  0
   27.6608  -20.2616  -14.7583 C   0  0  0  0  0  0  0  0  0  0  0  0
   26.4080  -19.6487  -15.3242 C   0  0  1  0  0  0  0  0  0  0  0  0
   25.2006  -20.4931  -15.0900 C   0  0  0  0  0  0  0  0  0  0  0  0
   25.0672  -21.5243  -15.7524 O   0  0  0  0  0  0  0  0  0  0  0  0
   22.2354  -21.5815   -7.7910 N   0  0  0  0  0  0  0  0  0  0  0  0
   23.3805  -20.9788   -8.3736 C   0  0  0  0  0  0  0  0  0  0  0  0
   24.5360  -21.1437   -7.8278 N   0  0  0  0  0  0  0  0  0  0  0  0
   23.2733  -20.1967   -9.5491 N   0  0  0  0  0  0  0  0  0  0  0  0
   21.9796  -19.8929  -10.1270 C   0  0  0  0  0  0  0  0  0  0  0  0
   22.0828  -19.6905  -11.6291 C   0  0  0  0  0  0  0  0  0  0  0  0
   22.8670  -20.8430  -12.1969 C   0  0  0  0  0  0  0  0  0  0  0  0
   23.0798  -20.7572  -13.6846 C   0  0  2  0  0  0  0  0  0  0  0  0
   24.2524  -20.1211  -14.1468 N   0  0  0  0  0  0  0  0  0  0  0  0
   21.8389  -20.4537  -14.3870 C   0  0  0  0  0  0  0  0  0  0  0  0
   21.4505  -19.2268  -14.4939 O   0  0  0  0  0  0  0  0  0  0  0  0
   25.3919  -20.7482   -8.2688 C   0  0  0  0  0  0  0  0  0  0  0  0
   18.4485  -21.6779  -17.7125 C   0  0  2  0  0  0  0  0  0  0  0  0
   19.7085  -21.9502  -16.9443 O   0  0  0  0  0  0  0  0  0  0  0  0
   20.8097  -21.8034  -17.8048 C   0  0  1  0  0  0  0  0  0  0  0  0
   19.8653  -20.9694  -15.8020 N   0  0  0  0  0  0  0  0  0  0  0  0
   20.9992  -21.4079  -14.9796 C   0  0  0  0  0  0  0  0  0  0  0  0
   18.6718  -20.9713  -14.9335 O   0  0  0  0  0  0  0  0  0  0  0  0
   17.5503  -20.2947  -15.4212 O   0  0  0  0  0  0  0  0  0  0  0  0
  2  1  1  0
  3  2  1  0
  4  3  1  0
  4  5  1  0
  5  6  1  1
  5  1  1  0
  6  7  2  0
  9  8  1  0
 10  9  2  0
 11  9  1  0
 12 11  1  0
 13 12  1  0
 13 14  1  0
 15 14  1  1
 16 15  1  0
 16  6  1  0
 17 15  1  0
 18 17  2  0
 20 19  1  6
 20 22  1  0
 21 20  1  0
 22 24  1  0
 22 23  1  1
 23 17  1  0
 24 25  1  0
 26 24  2  0
M  END
$$$$
