PRT.pdb
     RDKit          3D

 26 26  0  0  1  0  0  0  0  0999 V2000
   25.0991  -21.6083  -14.6715 N   0  0  0  0  0  0  0  0  0  0  0  0
   26.5194  -21.8977  -14.9230 C   0  0  0  0  0  0  0  0  0  0  0  0
   26.6011  -22.1260  -16.4273 C   0  0  0  0  0  0  0  0  0  0  0  0
   25.2936  -21.5848  -16.9676 C   0  0  0  0  0  0  0  0  0  0  0  0
   24.7839  -20.7763  -15.8049 C   0  0  1  0  0  0  0  0  0  0  0  0
   23.3214  -20.4971  -15.8982 C   0  0  0  0  0  0  0  0  0  0  0  0
   22.9088  -19.8378  -16.8549 O   0  0  0  0  0  0  0  0  0  0  0  0
   18.8813  -24.9632  -10.1845 N   0  0  0  0  0  0  0  0  0  0  0  0
   18.7878  -23.5786  -10.4811 C   0  0  0  0  0  0  0  0  0  0  0  0
   17.8344  -22.8791   -9.9691 N   0  0  0  0  0  0  0  0  0  0  0  0
   19.7286  -22.9512  -11.3332 N   0  0  0  0  0  0  0  0  0  0  0  0
   20.5236  -23.7259  -12.2646 C   0  0  0  0  0  0  0  0  0  0  0  0
   21.3350  -22.8229  -13.1780 C   0  0  0  0  0  0  0  0  0  0  0  0
   20.3896  -21.8367  -13.8097 C   0  0  0  0  0  0  0  0  0  0  0  0
   21.0425  -20.9336  -14.8217 C   0  0  2  0  0  0  0  0  0  0  0  0
   22.4499  -20.9710  -14.9272 N   0  0  0  0  0  0  0  0  0  0  0  0
   20.4088  -19.6211  -14.8567 C   0  0  0  0  0  0  0  0  0  0  0  0
   20.3899  -18.8936  -13.7900 O   0  0  0  0  0  0  0  0  0  0  0  0
   17.7273  -21.8722  -10.2101 C   0  0  0  0  0  0  0  0  0  0  0  0
   18.5486  -17.7192  -18.2905 C   0  0  2  0  0  0  0  0  0  0  0  0
   19.3526  -17.0346  -17.2243 O   0  0  0  0  0  0  0  0  0  0  0  0
   18.9041  -15.7094  -17.0931 C   0  0  1  0  0  0  0  0  0  0  0  0
   19.1790  -17.7282  -15.8902 N   0  0  0  0  0  0  0  0  0  0  0  0
   19.7969  -19.0563  -15.9851 C   0  0  0  0  0  0  0  0  0  0  0  0
   17.7504  -17.9344  -15.5813 O   0  0  0  0  0  0  0  0  0  0  0  0
   16.9805  -16.7801  -15.4134 O   0  0  0  0  0  0  0  0  0  0  0  0
  2  1  1  0
  3  2  1  0
  4  3  1  0
  4  5  1  0
  5  6  1  6
  5  1  1  0
  6  7  2  0
  9  8  1  0
 10  9  2  0
 11  9  1  0
 12 11  1  0
 13 12  1  0
 13 14  1  0
 15 14  1  1
 16 15  1  0
 16  6  1  0
 17 15  1  0
 18 17  2  0
 20 19  1  6
 20 22  1  0
 21 20  1  0
 22 24  1  0
 22 23  1  6
 23 17  1  0
 24 25  1  0
 26 24  2  0
M  END
$$$$
