PRT.pdb
     RDKit          3D

 26 26  0  0  1  0  0  0  0  0999 V2000
   23.9726  -24.2957  -14.9410 N   0  0  0  0  0  0  0  0  0  0  0  0
   25.2702  -24.6418  -15.5416 C   0  0  0  0  0  0  0  0  0  0  0  0
   24.9664  -25.8285  -16.4476 C   0  0  0  0  0  0  0  0  0  0  0  0
   23.4573  -25.8324  -16.5792 C   0  0  0  0  0  0  0  0  0  0  0  0
   23.0942  -24.4630  -16.0709 C   0  0  1  0  0  0  0  0  0  0  0  0
   21.6589  -24.3597  -15.6775 C   0  0  0  0  0  0  0  0  0  0  0  0
   20.8032  -24.3824  -16.5648 O   0  0  0  0  0  0  0  0  0  0  0  0
   18.4666  -25.0259   -8.9780 N   0  0  0  0  0  0  0  0  0  0  0  0
   17.8430  -26.1038   -9.6585 C   0  0  0  0  0  0  0  0  0  0  0  0
   16.5797  -26.3083   -9.5081 N   0  0  0  0  0  0  0  0  0  0  0  0
   18.5892  -26.9610  -10.5031 N   0  0  0  0  0  0  0  0  0  0  0  0
   19.9781  -26.6827  -10.8083 C   0  0  0  0  0  0  0  0  0  0  0  0
   20.1463  -26.2466  -12.2539 C   0  0  0  0  0  0  0  0  0  0  0  0
   19.9357  -24.7575  -12.3138 C   0  0  0  0  0  0  0  0  0  0  0  0
   20.0436  -24.1852  -13.7019 C   0  0  2  0  0  0  0  0  0  0  0  0
   21.3009  -24.2406  -14.3416 N   0  0  0  0  0  0  0  0  0  0  0  0
   19.2870  -22.9457  -13.8310 C   0  0  0  0  0  0  0  0  0  0  0  0
   19.7104  -21.8763  -13.2440 O   0  0  0  0  0  0  0  0  0  0  0  0
   16.1214  -27.1361   -9.9417 C   0  0  0  0  0  0  0  0  0  0  0  0
   18.3553  -21.0903  -16.9787 C   0  0  2  0  0  0  0  0  0  0  0  0
   17.1195  -21.2714  -16.1471 O   0  0  0  0  0  0  0  0  0  0  0  0
   16.4266  -22.4075  -16.5988 C   0  0  2  0  0  0  0  0  0  0  0  0
   17.4762  -21.4814  -14.6911 N   0  0  0  0  0  0  0  0  0  0  0  0
   18.0989  -22.8043  -14.5625 C   0  0  0  0  0  0  0  0  0  0  0  0
   16.2674  -21.4855  -13.8440 O   0  0  0  0  0  0  0  0  0  0  0  0
   15.5529  -20.2861  -13.7790 O   0  0  0  0  0  0  0  0  0  0  0  0
  2  1  1  0
  3  2  1  0
  4  3  1  0
  4  5  1  0
  5  6  1  1
  5  1  1  0
  6  7  2  0
  9  8  1  0
 10  9  2  0
 11  9  1  0
 12 11  1  0
 13 12  1  0
 13 14  1  0
 15 14  1  1
 16 15  1  0
 16  6  1  0
 17 15  1  0
 18 17  2  0
 20 19  1  6
 20 22  1  0
 21 20  1  0
 22 24  1  0
 22 23  1  1
 23 17  1  0
 24 25  1  0
 26 24  2  0
M  END
$$$$
