PRT.pdb
     RDKit          3D

 26 26  0  0  1  0  0  0  0  0999 V2000
   27.9729  -22.6459  -16.1382 N   0  0  0  0  0  0  0  0  0  0  0  0
   29.3149  -22.8554  -16.7033 C   0  0  0  0  0  0  0  0  0  0  0  0
   29.0612  -23.2387  -18.1560 C   0  0  0  0  0  0  0  0  0  0  0  0
   27.6165  -22.8570  -18.4052 C   0  0  0  0  0  0  0  0  0  0  0  0
   27.3194  -21.9670  -17.2283 C   0  0  1  0  0  0  0  0  0  0  0  0
   25.8561  -21.8081  -16.9851 C   0  0  0  0  0  0  0  0  0  0  0  0
   25.1724  -21.2592  -17.8518 O   0  0  0  0  0  0  0  0  0  0  0  0
   22.8790  -26.8302  -14.5147 N   0  0  0  0  0  0  0  0  0  0  0  0
   21.4862  -26.6367  -14.3231 C   0  0  0  0  0  0  0  0  0  0  0  0
   20.6493  -27.4701  -14.8381 N   0  0  0  0  0  0  0  0  0  0  0  0
   21.0000  -25.5391  -13.5722 N   0  0  0  0  0  0  0  0  0  0  0  0
   21.9076  -24.5564  -13.0152 C   0  0  0  0  0  0  0  0  0  0  0  0
   22.1295  -23.4042  -13.9804 C   0  0  0  0  0  0  0  0  0  0  0  0
   23.5862  -23.3936  -14.3587 C   0  0  0  0  0  0  0  0  0  0  0  0
   23.9409  -22.3422  -15.3759 C   0  0  2  0  0  0  0  0  0  0  0  0
   25.2830  -22.2694  -15.8079 N   0  0  0  0  0  0  0  0  0  0  0  0
   23.2621  -21.0813  -15.1024 C   0  0  0  0  0  0  0  0  0  0  0  0
   23.4919  -20.4609  -13.9935 O   0  0  0  0  0  0  0  0  0  0  0  0
   19.6371  -27.4199  -14.6007 C   0  0  0  0  0  0  0  0  0  0  0  0
   22.8237  -17.8329  -17.3429 C   0  0  2  0  0  0  0  0  0  0  0  0
   21.5181  -18.3637  -16.8277 O   0  0  0  0  0  0  0  0  0  0  0  0
   20.9420  -19.1907  -17.8069 C   0  0  2  0  0  0  0  0  0  0  0  0
   21.7283  -19.1873  -15.5753 N   0  0  0  0  0  0  0  0  0  0  0  0
   22.3503  -20.4579  -15.9666 C   0  0  0  0  0  0  0  0  0  0  0  0
   20.4402  -19.5135  -14.9324 O   0  0  0  0  0  0  0  0  0  0  0  0
   19.7299  -18.4395  -14.3892 O   0  0  0  0  0  0  0  0  0  0  0  0
  2  1  1  0
  3  2  1  0
  4  3  1  0
  4  5  1  0
  5  6  1  1
  5  1  1  0
  6  7  2  0
  9  8  1  0
 10  9  2  0
 11  9  1  0
 12 11  1  0
 13 12  1  0
 13 14  1  0
 15 14  1  1
 16 15  1  0
 16  6  1  0
 17 15  1  0
 18 17  2  0
 20 19  1  6
 20 22  1  0
 21 20  1  0
 22 24  1  0
 22 23  1  1
 23 17  1  0
 24 25  1  0
 26 24  2  0
M  END
$$$$
