PRT.pdb
     RDKit          3D

 26 26  0  0  1  0  0  0  0  0999 V2000
   31.1519  -22.4242  -11.7126 N   0  0  0  0  0  0  0  0  0  0  0  0
   32.4685  -22.9270  -11.2910 C   0  0  0  0  0  0  0  0  0  0  0  0
   32.9600  -21.9031  -10.2752 C   0  0  0  0  0  0  0  0  0  0  0  0
   31.7286  -21.0953   -9.9204 C   0  0  0  0  0  0  0  0  0  0  0  0
   30.6200  -21.9610  -10.4562 C   0  0  1  0  0  0  0  0  0  0  0  0
   29.3434  -21.2107  -10.6372 C   0  0  0  0  0  0  0  0  0  0  0  0
   28.8446  -20.6542   -9.6566 O   0  0  0  0  0  0  0  0  0  0  0  0
   28.0734  -19.1837  -18.6779 N   0  0  0  0  0  0  0  0  0  0  0  0
   28.2521  -20.3832  -17.9410 C   0  0  0  0  0  0  0  0  0  0  0  0
   28.2975  -21.5122  -18.5604 N   0  0  0  0  0  0  0  0  0  0  0  0
   28.3822  -20.3593  -16.5312 N   0  0  0  0  0  0  0  0  0  0  0  0
   28.4274  -19.1044  -15.8079 C   0  0  0  0  0  0  0  0  0  0  0  0
   28.6474  -19.3341  -14.3224 C   0  0  0  0  0  0  0  0  0  0  0  0
   27.4894  -20.1445  -13.8047 C   0  0  0  0  0  0  0  0  0  0  0  0
   27.5829  -20.4667  -12.3372 C   0  0  2  0  0  0  0  0  0  0  0  0
   28.7355  -21.1441  -11.8834 N   0  0  0  0  0  0  0  0  0  0  0  0
   26.3002  -20.9072  -11.8024 C   0  0  0  0  0  0  0  0  0  0  0  0
   25.8594  -22.0858  -12.0924 O   0  0  0  0  0  0  0  0  0  0  0  0
   28.4583  -22.3977  -18.0375 C   0  0  0  0  0  0  0  0  0  0  0  0
   25.1038  -21.1041   -8.2166 C   0  0  2  0  0  0  0  0  0  0  0  0
   24.0707  -20.3704   -9.0205 O   0  0  0  0  0  0  0  0  0  0  0  0
   24.2619  -18.9877   -8.8582 C   0  0  2  0  0  0  0  0  0  0  0  0
   24.2017  -20.6976  -10.4925 N   0  0  0  0  0  0  0  0  0  0  0  0
   25.4725  -20.1396  -10.9703 C   0  0  0  0  0  0  0  0  0  0  0  0
   23.1251  -20.0601  -11.2756 O   0  0  0  0  0  0  0  0  0  0  0  0
   21.8238  -20.4925  -11.0054 O   0  0  0  0  0  0  0  0  0  0  0  0
  2  1  1  0
  3  2  1  0
  4  3  1  0
  4  5  1  0
  5  6  1  6
  5  1  1  0
  6  7  2  0
  9  8  1  0
 10  9  2  0
 11  9  1  0
 12 11  1  0
 13 12  1  0
 13 14  1  0
 15 14  1  6
 16 15  1  0
 16  6  1  0
 17 15  1  0
 18 17  2  0
 20 19  1  1
 20 22  1  0
 21 20  1  0
 22 24  1  0
 22 23  1  6
 23 17  1  0
 24 25  1  0
 26 24  2  0
M  END
$$$$
