PRT.pdb
     RDKit          3D

 26 26  0  0  1  0  0  0  0  0999 V2000
   24.2952  -11.6784  -15.5343 N   0  0  0  0  0  0  0  0  0  0  0  0
   25.0792  -12.8891  -15.8234 C   0  0  0  0  0  0  0  0  0  0  0  0
   24.2887  -13.6040  -16.9123 C   0  0  0  0  0  0  0  0  0  0  0  0
   23.3125  -12.5636  -17.4215 C   0  0  0  0  0  0  0  0  0  0  0  0
   23.8893  -11.2912  -16.8615 C   0  0  1  0  0  0  0  0  0  0  0  0
   22.8989  -10.1759  -16.8353 C   0  0  0  0  0  0  0  0  0  0  0  0
   22.6392   -9.5955  -17.8916 O   0  0  0  0  0  0  0  0  0  0  0  0
   18.9397  -12.7456  -16.6497 N   0  0  0  0  0  0  0  0  0  0  0  0
   17.9201  -12.8576  -15.6689 C   0  0  0  0  0  0  0  0  0  0  0  0
   17.1241  -13.8706  -15.6884 N   0  0  0  0  0  0  0  0  0  0  0  0
   17.7632  -11.8707  -14.6657 N   0  0  0  0  0  0  0  0  0  0  0  0
   17.8689  -10.4609  -14.9838 C   0  0  0  0  0  0  0  0  0  0  0  0
   19.1833  -10.1519  -15.6801 C   0  0  0  0  0  0  0  0  0  0  0  0
   20.0088   -9.3028  -14.7510 C   0  0  0  0  0  0  0  0  0  0  0  0
   21.3064   -8.8322  -15.3517 C   0  0  2  0  0  0  0  0  0  0  0  0
   22.2871   -9.8042  -15.6459 N   0  0  0  0  0  0  0  0  0  0  0  0
   21.7639   -7.5927  -14.7354 C   0  0  0  0  0  0  0  0  0  0  0  0
   22.1517   -7.5984  -13.5037 O   0  0  0  0  0  0  0  0  0  0  0  0
   16.3856  -13.9786  -14.9628 C   0  0  0  0  0  0  0  0  0  0  0  0
   24.4200   -5.0360  -16.0409 C   0  0  2  0  0  0  0  0  0  0  0  0
   23.1422   -4.3484  -15.6588 O   0  0  0  0  0  0  0  0  0  0  0  0
   22.3553   -4.1728  -16.8098 C   0  0  2  0  0  0  0  0  0  0  0  0
   22.3565   -5.1827  -14.6700 N   0  0  0  0  0  0  0  0  0  0  0  0
   21.8245   -6.3503  -15.3830 C   0  0  0  0  0  0  0  0  0  0  0  0
   21.2006   -4.4316  -14.1424 O   0  0  0  0  0  0  0  0  0  0  0  0
   21.4950   -3.3008  -13.3756 O   0  0  0  0  0  0  0  0  0  0  0  0
  2  1  1  0
  3  2  1  0
  4  3  1  0
  4  5  1  0
  5  6  1  1
  5  1  1  0
  6  7  2  0
  9  8  1  0
 10  9  2  0
 11  9  1  0
 12 11  1  0
 13 12  1  0
 13 14  1  0
 15 14  1  1
 16 15  1  0
 16  6  1  0
 17 15  1  0
 18 17  2  0
 20 19  1  6
 20 22  1  0
 21 20  1  0
 22 24  1  0
 22 23  1  1
 23 17  1  0
 24 25  1  0
 26 24  2  0
M  END
$$$$
