TVK.pdb
     RDKit          3D

 24 23  0  0  1  0  0  0  0  0999 V2000
    8.2325  -19.2628   20.6066 C   0  0  0  0  0  0  0  0  0  0  0  0
    8.8830  -19.1517   19.2659 C   0  0  1  0  0  0  0  0  0  0  0  0
    8.5746  -20.2237   18.4274 O   0  0  0  0  0  0  0  0  0  0  0  0
    8.4862  -17.8855   18.5299 C   0  0  2  0  0  0  0  0  0  0  0  0
    9.0140  -17.8952   17.1869 N   0  0  0  0  0  0  0  0  0  0  0  0
    9.0032  -16.7411   19.3245 C   0  0  0  0  0  0  0  0  0  0  0  0
   10.2057  -16.4208   19.1564 O   0  0  0  0  0  0  0  0  0  0  0  0
    7.1615  -13.2974   19.8740 C   0  0  0  0  0  0  0  0  0  0  0  0
    7.5421  -13.9622   21.1421 C   0  0  2  0  0  0  0  0  0  0  0  0
    7.7758  -12.9349   22.2308 C   0  0  0  0  0  0  0  0  0  0  0  0
    8.7364  -14.8916   21.0486 C   0  0  2  0  0  0  0  0  0  0  0  0
    8.2348  -16.0128   20.2354 N   0  0  0  0  0  0  0  0  0  0  0  0
    9.1118  -15.3495   22.3792 C   0  0  0  0  0  0  0  0  0  0  0  0
    8.2631  -16.0064   23.0732 O   0  0  0  0  0  0  0  0  0  0  0  0
   10.3708  -15.1125   22.9524 N   0  0  0  0  0  0  0  0  0  0  0  0
   10.7441  -15.6215   24.2845 C   0  0  1  0  0  0  0  0  0  0  0  0
   10.0708  -14.8005   25.3224 C   0  0  0  0  0  0  0  0  0  0  0  0
   10.1577  -15.2735   26.7284 C   0  0  0  0  0  0  0  0  0  0  0  0
    9.5168  -14.4183   27.7655 C   0  0  0  0  0  0  0  0  0  0  0  0
    9.8019  -15.0825   29.1181 C   0  0  0  0  0  0  0  0  0  0  0  0
    9.2778  -14.2636   30.1879 N   0  0  0  0  0  0  0  0  0  0  0  0
   10.5831  -17.0748   24.3992 C   0  0  0  0  0  0  0  0  0  0  0  0
    9.5203  -17.6633   24.1209 O   0  0  0  0  0  0  0  0  0  0  0  0
   11.6597  -17.8276   24.8363 O   0  0  0  0  0  0  0  0  0  0  0  0
  2  1  1  1
  3  2  1  0
  4  2  1  0
  4  5  1  6
  6  4  1  0
  7  6  2  0
  9  8  1  6
  9 11  1  0
 10  9  1  0
 11 12  1  6
 12  6  1  0
 13 11  1  0
 13 15  1  0
 14 13  2  0
 16 17  1  1
 16 15  1  0
 16 22  1  0
 18 17  1  0
 19 18  1  0
 20 21  1  0
 20 19  1  0
 22 24  1  0
 23 22  2  0
M  END
$$$$
