TVK.pdb
     RDKit          3D

 24 23  0  0  1  0  0  0  0  0999 V2000
    7.6217  -18.9025   17.8366 C   0  0  0  0  0  0  0  0  0  0  0  0
    8.4123  -18.3112   16.7151 C   0  0  1  0  0  0  0  0  0  0  0  0
    8.1450  -18.9202   15.4883 O   0  0  0  0  0  0  0  0  0  0  0  0
    8.1515  -16.8268   16.5386 C   0  0  2  0  0  0  0  0  0  0  0  0
    8.7288  -16.3556   15.3029 N   0  0  0  0  0  0  0  0  0  0  0  0
    8.7303  -16.1403   17.7226 C   0  0  0  0  0  0  0  0  0  0  0  0
    9.9824  -16.0889   17.8024 O   0  0  0  0  0  0  0  0  0  0  0  0
    7.1756  -12.9246   19.4615 C   0  0  0  0  0  0  0  0  0  0  0  0
    7.4591  -14.0114   20.4277 C   0  0  2  0  0  0  0  0  0  0  0  0
    7.8271  -13.4366   21.7803 C   0  0  0  0  0  0  0  0  0  0  0  0
    8.5168  -15.0046   19.9874 C   0  0  2  0  0  0  0  0  0  0  0  0
    7.9677  -15.5574   18.7372 N   0  0  0  0  0  0  0  0  0  0  0  0
    8.6620  -16.0496   20.9912 C   0  0  0  0  0  0  0  0  0  0  0  0
    7.9552  -17.1099   20.8918 O   0  0  0  0  0  0  0  0  0  0  0  0
    9.5483  -15.9628   22.0759 N   0  0  0  0  0  0  0  0  0  0  0  0
   10.3384  -17.1141   22.5485 C   0  0  1  0  0  0  0  0  0  0  0  0
   10.9042  -17.8270   21.3754 C   0  0  0  0  0  0  0  0  0  0  0  0
   11.6606  -19.0788   21.6380 C   0  0  0  0  0  0  0  0  0  0  0  0
   13.0281  -19.1718   21.0558 C   0  0  0  0  0  0  0  0  0  0  0  0
   13.5427  -20.5820   21.3697 C   0  0  0  0  0  0  0  0  0  0  0  0
   14.8951  -20.7316   20.8813 N   0  0  0  0  0  0  0  0  0  0  0  0
   11.2852  -16.7522   23.6085 C   0  0  0  0  0  0  0  0  0  0  0  0
   11.8362  -15.6363   23.6735 O   0  0  0  0  0  0  0  0  0  0  0  0
   11.5807  -17.6921   24.5812 O   0  0  0  0  0  0  0  0  0  0  0  0
  2  1  1  1
  3  2  1  0
  4  2  1  0
  4  5  1  6
  6  4  1  0
  7  6  2  0
  9  8  1  6
  9 11  1  0
 10  9  1  0
 11 12  1  6
 12  6  1  0
 13 11  1  0
 13 15  1  0
 14 13  2  0
 16 17  1  6
 16 15  1  0
 16 22  1  0
 18 17  1  0
 19 18  1  0
 20 21  1  0
 20 19  1  0
 22 24  1  0
 23 22  2  0
M  END
$$$$
