TVK.pdb
     RDKit          3D

 24 23  0  0  1  0  0  0  0  0999 V2000
    7.0791  -17.1905   22.8906 C   0  0  0  0  0  0  0  0  0  0  0  0
    7.6787  -16.4542   21.7369 C   0  0  1  0  0  0  0  0  0  0  0  0
    7.2721  -16.9636   20.5030 O   0  0  0  0  0  0  0  0  0  0  0  0
    7.3282  -14.9778   21.7435 C   0  0  2  0  0  0  0  0  0  0  0  0
    7.7749  -14.3468   20.5251 N   0  0  0  0  0  0  0  0  0  0  0  0
    7.9683  -14.3847   22.9464 C   0  0  0  0  0  0  0  0  0  0  0  0
    9.2035  -14.1657   22.8915 O   0  0  0  0  0  0  0  0  0  0  0  0
    6.2191  -11.7894   25.5306 C   0  0  0  0  0  0  0  0  0  0  0  0
    6.7889  -13.0060   26.1552 C   0  0  2  0  0  0  0  0  0  0  0  0
    7.2386  -12.7144   27.5723 C   0  0  0  0  0  0  0  0  0  0  0  0
    7.9190  -13.6576   25.3822 C   0  0  2  0  0  0  0  0  0  0  0  0
    7.2800  -14.0624   24.1181 N   0  0  0  0  0  0  0  0  0  0  0  0
    8.4068  -14.8224   26.1075 C   0  0  0  0  0  0  0  0  0  0  0  0
    7.6260  -15.8195   26.2800 O   0  0  0  0  0  0  0  0  0  0  0  0
    9.7045  -14.9189   26.6332 N   0  0  0  0  0  0  0  0  0  0  0  0
   10.1610  -16.0863   27.4091 C   0  0  1  0  0  0  0  0  0  0  0  0
   11.1984  -16.8092   26.6307 C   0  0  0  0  0  0  0  0  0  0  0  0
   11.8076  -18.0106   27.2579 C   0  0  0  0  0  0  0  0  0  0  0  0
   12.8538  -18.7212   26.4715 C   0  0  0  0  0  0  0  0  0  0  0  0
   13.3183  -19.9045   27.3294 C   0  0  0  0  0  0  0  0  0  0  0  0
   14.1519  -20.7849   26.5422 N   0  0  0  0  0  0  0  0  0  0  0  0
   10.5064  -15.7446   28.7929 C   0  0  0  0  0  0  0  0  0  0  0  0
   10.6803  -14.5723   29.1786 O   0  0  0  0  0  0  0  0  0  0  0  0
   10.6460  -16.7698   29.7128 O   0  0  0  0  0  0  0  0  0  0  0  0
  2  1  1  1
  3  2  1  0
  4  2  1  0
  4  5  1  6
  6  4  1  0
  7  6  2  0
  9  8  1  6
  9 11  1  0
 10  9  1  0
 11 12  1  6
 12  6  1  0
 13 11  1  0
 13 15  1  0
 14 13  2  0
 16 17  1  6
 16 15  1  0
 16 22  1  0
 18 17  1  0
 19 18  1  0
 20 21  1  0
 20 19  1  0
 22 24  1  0
 23 22  2  0
M  END
$$$$
