TVK.pdb
     RDKit          3D

 24 23  0  0  1  0  0  0  0  0999 V2000
    5.6920  -19.7152   18.0031 C   0  0  0  0  0  0  0  0  0  0  0  0
    6.6387  -18.7830   18.6867 C   0  0  1  0  0  0  0  0  0  0  0  0
    7.8416  -19.3980   19.0364 O   0  0  0  0  0  0  0  0  0  0  0  0
    6.9892  -17.5793   17.8317 C   0  0  2  0  0  0  0  0  0  0  0  0
    7.6212  -17.9983   16.6040 N   0  0  0  0  0  0  0  0  0  0  0  0
    7.8762  -16.7103   18.6479 C   0  0  0  0  0  0  0  0  0  0  0  0
    9.1142  -16.8926   18.5435 O   0  0  0  0  0  0  0  0  0  0  0  0
    7.0731  -12.8599   19.3979 C   0  0  0  0  0  0  0  0  0  0  0  0
    7.4251  -13.6401   20.6073 C   0  0  2  0  0  0  0  0  0  0  0  0
    8.0977  -12.7525   21.6345 C   0  0  0  0  0  0  0  0  0  0  0  0
    8.2762  -14.8693   20.3553 C   0  0  2  0  0  0  0  0  0  0  0  0
    7.4139  -15.7157   19.5126 N   0  0  0  0  0  0  0  0  0  0  0  0
    8.5721  -15.5329   21.6174 C   0  0  0  0  0  0  0  0  0  0  0  0
    7.7038  -16.3226   22.1233 O   0  0  0  0  0  0  0  0  0  0  0  0
    9.7741  -15.3577   22.3205 N   0  0  0  0  0  0  0  0  0  0  0  0
   10.3788  -16.4265   23.1359 C   0  0  1  0  0  0  0  0  0  0  0  0
   10.4729  -17.6634   22.3197 C   0  0  0  0  0  0  0  0  0  0  0  0
   11.0146  -18.8781   22.9825 C   0  0  0  0  0  0  0  0  0  0  0  0
   11.1875  -20.0873   22.1307 C   0  0  0  0  0  0  0  0  0  0  0  0
   11.8328  -21.1591   23.0177 C   0  0  0  0  0  0  0  0  0  0  0  0
   11.9295  -22.4052   22.2913 N   0  0  0  0  0  0  0  0  0  0  0  0
   11.6089  -15.9961   23.8087 C   0  0  0  0  0  0  0  0  0  0  0  0
   12.5445  -15.4282   23.2128 O   0  0  0  0  0  0  0  0  0  0  0  0
   11.7373  -16.2310   25.1671 O   0  0  0  0  0  0  0  0  0  0  0  0
  2  1  1  6
  3  2  1  0
  4  2  1  0
  4  5  1  6
  6  4  1  0
  7  6  2  0
  9  8  1  6
  9 11  1  0
 10  9  1  0
 11 12  1  6
 12  6  1  0
 13 11  1  0
 13 15  1  0
 14 13  2  0
 16 17  1  6
 16 15  1  0
 16 22  1  0
 18 17  1  0
 19 18  1  0
 20 21  1  0
 20 19  1  0
 22 24  1  0
 23 22  2  0
M  END
$$$$
