TVK.pdb
     RDKit          3D

 24 23  0  0  1  0  0  0  0  0999 V2000
    7.9548  -19.5045   17.2200 C   0  0  0  0  0  0  0  0  0  0  0  0
    8.4412  -18.3977   18.0982 C   0  0  1  0  0  0  0  0  0  0  0  0
    9.5770  -18.7496   18.8287 O   0  0  0  0  0  0  0  0  0  0  0  0
    8.7884  -17.1444   17.3164 C   0  0  2  0  0  0  0  0  0  0  0  0
    9.8025  -17.4288   16.3299 N   0  0  0  0  0  0  0  0  0  0  0  0
    9.2385  -16.1280   18.3026 C   0  0  0  0  0  0  0  0  0  0  0  0
   10.4755  -15.9427   18.4135 O   0  0  0  0  0  0  0  0  0  0  0  0
    6.8674  -12.9098   19.3608 C   0  0  0  0  0  0  0  0  0  0  0  0
    7.5086  -13.6701   20.4590 C   0  0  2  0  0  0  0  0  0  0  0  0
    7.7374  -12.7761   21.6606 C   0  0  0  0  0  0  0  0  0  0  0  0
    8.8007  -14.3713   20.0877 C   0  0  2  0  0  0  0  0  0  0  0  0
    8.3724  -15.3783   19.1014 N   0  0  0  0  0  0  0  0  0  0  0  0
    9.3701  -15.0138   21.2640 C   0  0  0  0  0  0  0  0  0  0  0  0
    9.8641  -14.2869   22.1919 O   0  0  0  0  0  0  0  0  0  0  0  0
    9.4058  -16.4052   21.4446 N   0  0  0  0  0  0  0  0  0  0  0  0
   10.0150  -17.0356   22.6296 C   0  0  1  0  0  0  0  0  0  0  0  0
    9.6909  -18.4847   22.6274 C   0  0  0  0  0  0  0  0  0  0  0  0
   10.3078  -19.3229   23.6880 C   0  0  0  0  0  0  0  0  0  0  0  0
   10.0504  -20.7882   23.6206 C   0  0  0  0  0  0  0  0  0  0  0  0
   10.8092  -21.4205   24.7938 C   0  0  0  0  0  0  0  0  0  0  0  0
   10.5726  -22.8464   24.8206 N   0  0  0  0  0  0  0  0  0  0  0  0
   11.4303  -16.6860   22.7905 C   0  0  0  0  0  0  0  0  0  0  0  0
   12.2433  -16.6983   21.8460 O   0  0  0  0  0  0  0  0  0  0  0  0
   11.8844  -16.3259   24.0478 O   0  0  0  0  0  0  0  0  0  0  0  0
  2  1  1  6
  3  2  1  0
  4  2  1  0
  4  5  1  6
  6  4  1  0
  7  6  2  0
  9  8  1  6
  9 11  1  0
 10  9  1  0
 11 12  1  6
 12  6  1  0
 13 11  1  0
 13 15  1  0
 14 13  2  0
 16 17  1  6
 16 15  1  0
 16 22  1  0
 18 17  1  0
 19 18  1  0
 20 21  1  0
 20 19  1  0
 22 24  1  0
 23 22  2  0
M  END
$$$$
