TVK.pdb
     RDKit          3D

 24 23  0  0  1  0  0  0  0  0999 V2000
    7.4673  -17.8380   23.4143 C   0  0  0  0  0  0  0  0  0  0  0  0
    8.2515  -17.3713   22.2311 C   0  0  1  0  0  0  0  0  0  0  0  0
    7.9551  -18.0890   21.0716 O   0  0  0  0  0  0  0  0  0  0  0  0
    8.0145  -15.9057   21.9174 C   0  0  2  0  0  0  0  0  0  0  0  0
    8.7099  -15.5284   20.7106 N   0  0  0  0  0  0  0  0  0  0  0  0
    8.4793  -15.1286   23.0956 C   0  0  0  0  0  0  0  0  0  0  0  0
    9.7195  -15.0198   23.2599 O   0  0  0  0  0  0  0  0  0  0  0  0
    6.3759  -12.0438   24.7900 C   0  0  0  0  0  0  0  0  0  0  0  0
    6.8279  -13.1096   25.7146 C   0  0  2  0  0  0  0  0  0  0  0  0
    7.0510  -12.5478   27.1038 C   0  0  0  0  0  0  0  0  0  0  0  0
    8.0593  -13.8719   25.2656 C   0  0  2  0  0  0  0  0  0  0  0  0
    7.6235  -14.5213   24.0172 N   0  0  0  0  0  0  0  0  0  0  0  0
    8.4159  -14.8684   26.2659 C   0  0  0  0  0  0  0  0  0  0  0  0
    7.5836  -15.7983   26.5416 O   0  0  0  0  0  0  0  0  0  0  0  0
    9.6396  -14.8713   26.9532 N   0  0  0  0  0  0  0  0  0  0  0  0
    9.9720  -15.8792   27.9763 C   0  0  1  0  0  0  0  0  0  0  0  0
   10.9702  -16.8255   27.4169 C   0  0  0  0  0  0  0  0  0  0  0  0
   11.4629  -17.9046   28.3119 C   0  0  0  0  0  0  0  0  0  0  0  0
   12.5537  -18.7697   27.7834 C   0  0  0  0  0  0  0  0  0  0  0  0
   12.8876  -19.7783   28.8894 C   0  0  0  0  0  0  0  0  0  0  0  0
   13.7645  -20.8040   28.3708 N   0  0  0  0  0  0  0  0  0  0  0  0
   10.2999  -15.2798   29.2740 C   0  0  0  0  0  0  0  0  0  0  0  0
   10.5128  -15.9561   30.2989 O   0  0  0  0  0  0  0  0  0  0  0  0
   10.3766  -13.9004   29.3656 O   0  0  0  0  0  0  0  0  0  0  0  0
  2  1  1  1
  3  2  1  0
  4  2  1  0
  4  5  1  6
  6  4  1  0
  7  6  2  0
  9  8  1  6
  9 11  1  0
 10  9  1  0
 11 12  1  6
 12  6  1  0
 13 11  1  0
 13 15  1  0
 14 13  2  0
 16 17  1  6
 16 15  1  0
 16 22  1  0
 18 17  1  0
 19 18  1  0
 20 21  1  0
 20 19  1  0
 22 24  1  0
 23 22  2  0
M  END
$$$$
