TVK.pdb
     RDKit          3D

 24 23  0  0  1  0  0  0  0  0999 V2000
    6.7981  -17.1816   22.7271 C   0  0  0  0  0  0  0  0  0  0  0  0
    7.6845  -16.5649   21.6943 C   0  0  1  0  0  0  0  0  0  0  0  0
    7.3911  -17.0027   20.4021 O   0  0  0  0  0  0  0  0  0  0  0  0
    7.5943  -15.0502   21.6796 C   0  0  2  0  0  0  0  0  0  0  0  0
    8.3189  -14.5117   20.5539 N   0  0  0  0  0  0  0  0  0  0  0  0
    8.1397  -14.5701   22.9759 C   0  0  0  0  0  0  0  0  0  0  0  0
    9.3886  -14.5572   23.1049 O   0  0  0  0  0  0  0  0  0  0  0  0
    6.2917  -11.7939   25.2053 C   0  0  0  0  0  0  0  0  0  0  0  0
    6.7251  -12.9771   25.9846 C   0  0  2  0  0  0  0  0  0  0  0  0
    7.0811  -12.5777   27.4021 C   0  0  0  0  0  0  0  0  0  0  0  0
    7.8645  -13.7687   25.3731 C   0  0  2  0  0  0  0  0  0  0  0  0
    7.3493  -14.1384   24.0434 N   0  0  0  0  0  0  0  0  0  0  0  0
    8.1248  -14.9581   26.1722 C   0  0  0  0  0  0  0  0  0  0  0  0
    7.4027  -15.9974   25.9939 O   0  0  0  0  0  0  0  0  0  0  0  0
    9.1397  -15.0340   27.1386 N   0  0  0  0  0  0  0  0  0  0  0  0
    9.7798  -16.3065   27.5180 C   0  0  1  0  0  0  0  0  0  0  0  0
   10.4256  -16.8996   26.3197 C   0  0  0  0  0  0  0  0  0  0  0  0
   11.1326  -18.1946   26.4968 C   0  0  0  0  0  0  0  0  0  0  0  0
   11.7585  -18.7894   25.2835 C   0  0  0  0  0  0  0  0  0  0  0  0
   12.3919  -20.1152   25.7228 C   0  0  0  0  0  0  0  0  0  0  0  0
   13.0697  -20.7305   24.6039 N   0  0  0  0  0  0  0  0  0  0  0  0
   10.6188  -16.1819   28.7146 C   0  0  0  0  0  0  0  0  0  0  0  0
   11.1046  -17.1647   29.3073 O   0  0  0  0  0  0  0  0  0  0  0  0
   10.8835  -14.9159   29.2085 O   0  0  0  0  0  0  0  0  0  0  0  0
  2  1  1  1
  3  2  1  0
  4  2  1  0
  4  5  1  6
  6  4  1  0
  7  6  2  0
  9  8  1  6
  9 11  1  0
 10  9  1  0
 11 12  1  6
 12  6  1  0
 13 11  1  0
 13 15  1  0
 14 13  2  0
 16 17  1  6
 16 15  1  0
 16 22  1  0
 18 17  1  0
 19 18  1  0
 20 21  1  0
 20 19  1  0
 22 24  1  0
 23 22  2  0
M  END
$$$$
