TVK.pdb
     RDKit          3D

 24 23  0  0  1  0  0  0  0  0999 V2000
    6.6455  -17.0219   20.6566 C   0  0  0  0  0  0  0  0  0  0  0  0
    7.2865  -16.3761   21.8417 C   0  0  1  0  0  0  0  0  0  0  0  0
    8.5083  -16.9605   22.1782 O   0  0  0  0  0  0  0  0  0  0  0  0
    7.5475  -14.8966   21.6280 C   0  0  2  0  0  0  0  0  0  0  0  0
    8.4453  -14.6973   20.5159 N   0  0  0  0  0  0  0  0  0  0  0  0
    8.1064  -14.3661   22.8986 C   0  0  0  0  0  0  0  0  0  0  0  0
    9.3565  -14.2886   22.9889 O   0  0  0  0  0  0  0  0  0  0  0  0
    6.4035  -11.5023   25.0386 C   0  0  0  0  0  0  0  0  0  0  0  0
    6.7667  -12.6751   25.8678 C   0  0  2  0  0  0  0  0  0  0  0  0
    7.1399  -12.2388   27.2699 C   0  0  0  0  0  0  0  0  0  0  0  0
    7.8617  -13.5539   25.2954 C   0  0  2  0  0  0  0  0  0  0  0  0
    7.3275  -13.9549   23.9824 N   0  0  0  0  0  0  0  0  0  0  0  0
    8.0573  -14.7184   26.1479 C   0  0  0  0  0  0  0  0  0  0  0  0
    7.4948  -15.8218   25.8322 O   0  0  0  0  0  0  0  0  0  0  0  0
    8.8420  -14.7024   27.3114 N   0  0  0  0  0  0  0  0  0  0  0  0
    9.7463  -15.8089   27.6732 C   0  0  1  0  0  0  0  0  0  0  0  0
   10.6911  -16.0478   26.5528 C   0  0  0  0  0  0  0  0  0  0  0  0
   11.7433  -17.0772   26.7560 C   0  0  0  0  0  0  0  0  0  0  0  0
   11.6036  -18.3420   25.9824 C   0  0  0  0  0  0  0  0  0  0  0  0
   12.8222  -19.2054   26.3310 C   0  0  0  0  0  0  0  0  0  0  0  0
   12.6886  -20.5114   25.7257 N   0  0  0  0  0  0  0  0  0  0  0  0
   10.3430  -15.6391   29.0022 C   0  0  0  0  0  0  0  0  0  0  0  0
   10.5729  -16.5941   29.7692 O   0  0  0  0  0  0  0  0  0  0  0  0
   10.6657  -14.3606   29.4244 O   0  0  0  0  0  0  0  0  0  0  0  0
  2  1  1  6
  3  2  1  0
  4  2  1  0
  4  5  1  6
  6  4  1  0
  7  6  2  0
  9  8  1  6
  9 11  1  0
 10  9  1  0
 11 12  1  6
 12  6  1  0
 13 11  1  0
 13 15  1  0
 14 13  2  0
 16 17  1  6
 16 15  1  0
 16 22  1  0
 18 17  1  0
 19 18  1  0
 20 21  1  0
 20 19  1  0
 22 24  1  0
 23 22  2  0
M  END
$$$$
