TVK.pdb
     RDKit          3D

 24 23  0  0  1  0  0  0  0  0999 V2000
    7.4635  -19.2353   19.3941 C   0  0  0  0  0  0  0  0  0  0  0  0
    8.0418  -19.0065   18.0354 C   0  0  1  0  0  0  0  0  0  0  0  0
    7.4808  -19.8372   17.0645 O   0  0  0  0  0  0  0  0  0  0  0  0
    7.8562  -17.5784   17.5571 C   0  0  2  0  0  0  0  0  0  0  0  0
    8.3543  -17.4275   16.2112 N   0  0  0  0  0  0  0  0  0  0  0  0
    8.5729  -16.7015   18.5191 C   0  0  0  0  0  0  0  0  0  0  0  0
    9.8281  -16.7355   18.5034 O   0  0  0  0  0  0  0  0  0  0  0  0
    7.0420  -13.1352   19.9017 C   0  0  0  0  0  0  0  0  0  0  0  0
    7.5458  -14.0856   20.9205 C   0  0  2  0  0  0  0  0  0  0  0  0
    8.0287  -13.3409   22.1484 C   0  0  0  0  0  0  0  0  0  0  0  0
    8.6258  -15.0340   20.4378 C   0  0  2  0  0  0  0  0  0  0  0  0
    7.9350  -15.8534   19.4271 N   0  0  0  0  0  0  0  0  0  0  0  0
    9.0864  -15.8624   21.5435 C   0  0  0  0  0  0  0  0  0  0  0  0
    8.2672  -16.6722   22.0972 O   0  0  0  0  0  0  0  0  0  0  0  0
   10.3977  -15.8274   22.0426 N   0  0  0  0  0  0  0  0  0  0  0  0
   10.8630  -16.7275   23.1132 C   0  0  1  0  0  0  0  0  0  0  0  0
   11.9735  -17.5648   22.5931 C   0  0  0  0  0  0  0  0  0  0  0  0
   12.5797  -18.5495   23.5263 C   0  0  0  0  0  0  0  0  0  0  0  0
   13.6631  -19.4132   22.9804 C   0  0  0  0  0  0  0  0  0  0  0  0
   14.0364  -20.4022   24.0915 C   0  0  0  0  0  0  0  0  0  0  0  0
   15.1353  -21.2358   23.6585 N   0  0  0  0  0  0  0  0  0  0  0  0
   11.1157  -16.0220   24.3740 C   0  0  0  0  0  0  0  0  0  0  0  0
   11.3493  -14.7992   24.4316 O   0  0  0  0  0  0  0  0  0  0  0  0
   11.0940  -16.7463   25.5537 O   0  0  0  0  0  0  0  0  0  0  0  0
  2  1  1  1
  3  2  1  0
  4  2  1  0
  4  5  1  6
  6  4  1  0
  7  6  2  0
  9  8  1  6
  9 11  1  0
 10  9  1  0
 11 12  1  6
 12  6  1  0
 13 11  1  0
 13 15  1  0
 14 13  2  0
 16 17  1  6
 16 15  1  0
 16 22  1  0
 18 17  1  0
 19 18  1  0
 20 21  1  0
 20 19  1  0
 22 24  1  0
 23 22  2  0
M  END
$$$$
