TVK.pdb
     RDKit          3D

 24 23  0  0  1  0  0  0  0  0999 V2000
    6.8592  -19.5316   17.3115 C   0  0  0  0  0  0  0  0  0  0  0  0
    7.6260  -18.6225   18.2161 C   0  0  1  0  0  0  0  0  0  0  0  0
    8.7521  -19.2356   18.7670 O   0  0  0  0  0  0  0  0  0  0  0  0
    8.1059  -17.3682   17.5097 C   0  0  2  0  0  0  0  0  0  0  0  0
    9.0254  -17.7053   16.4500 N   0  0  0  0  0  0  0  0  0  0  0  0
    8.7356  -16.5030   18.5409 C   0  0  0  0  0  0  0  0  0  0  0  0
    9.9904  -16.4745   18.5795 O   0  0  0  0  0  0  0  0  0  0  0  0
    7.1601  -12.9477   19.8671 C   0  0  0  0  0  0  0  0  0  0  0  0
    7.5103  -13.9509   20.8995 C   0  0  2  0  0  0  0  0  0  0  0  0
    7.8482  -13.2689   22.2095 C   0  0  0  0  0  0  0  0  0  0  0  0
    8.6233  -14.9069   20.5169 C   0  0  2  0  0  0  0  0  0  0  0  0
    8.0174  -15.7307   19.4565 N   0  0  0  0  0  0  0  0  0  0  0  0
    8.9844  -15.7294   21.6632 C   0  0  0  0  0  0  0  0  0  0  0  0
    8.1042  -16.5002   22.1775 O   0  0  0  0  0  0  0  0  0  0  0  0
   10.2623  -15.7293   22.2436 N   0  0  0  0  0  0  0  0  0  0  0  0
   10.6031  -16.5628   23.4107 C   0  0  1  0  0  0  0  0  0  0  0  0
   12.0122  -17.0145   23.2878 C   0  0  0  0  0  0  0  0  0  0  0  0
   12.3391  -17.9301   22.1640 C   0  0  0  0  0  0  0  0  0  0  0  0
   13.7696  -18.3116   22.0030 C   0  0  0  0  0  0  0  0  0  0  0  0
   13.8469  -19.2066   20.7601 C   0  0  0  0  0  0  0  0  0  0  0  0
   15.2162  -19.6076   20.5276 N   0  0  0  0  0  0  0  0  0  0  0  0
   10.2302  -15.9338   24.6821 C   0  0  0  0  0  0  0  0  0  0  0  0
   10.0114  -16.5848   25.7221 O   0  0  0  0  0  0  0  0  0  0  0  0
   10.1158  -14.5549   24.7300 O   0  0  0  0  0  0  0  0  0  0  0  0
  2  1  1  6
  3  2  1  0
  4  2  1  0
  4  5  1  6
  6  4  1  0
  7  6  2  0
  9  8  1  6
  9 11  1  0
 10  9  1  0
 11 12  1  6
 12  6  1  0
 13 11  1  0
 13 15  1  0
 14 13  2  0
 16 17  1  1
 16 15  1  0
 16 22  1  0
 18 17  1  0
 19 18  1  0
 20 21  1  0
 20 19  1  0
 22 24  1  0
 23 22  2  0
M  END
$$$$
