TVK.pdb
     RDKit          3D

 24 23  0  0  1  0  0  0  0  0999 V2000
    6.7423  -19.2640   16.7948 C   0  0  0  0  0  0  0  0  0  0  0  0
    7.4996  -18.4085   17.7577 C   0  0  1  0  0  0  0  0  0  0  0  0
    8.5619  -19.0850   18.3588 O   0  0  0  0  0  0  0  0  0  0  0  0
    8.0784  -17.1679   17.1031 C   0  0  2  0  0  0  0  0  0  0  0  0
    9.0140  -17.5330   16.0670 N   0  0  0  0  0  0  0  0  0  0  0  0
    8.7207  -16.3687   18.1788 C   0  0  0  0  0  0  0  0  0  0  0  0
    9.9585  -16.5078   18.3375 O   0  0  0  0  0  0  0  0  0  0  0  0
    7.4186  -12.6605   19.2936 C   0  0  0  0  0  0  0  0  0  0  0  0
    7.6236  -13.6318   20.3934 C   0  0  2  0  0  0  0  0  0  0  0  0
    7.9833  -12.9122   21.6772 C   0  0  0  0  0  0  0  0  0  0  0  0
    8.6430  -14.7182   20.1112 C   0  0  2  0  0  0  0  0  0  0  0  0
    8.0316  -15.4838   19.0111 N   0  0  0  0  0  0  0  0  0  0  0  0
    8.8107  -15.5569   21.2899 C   0  0  0  0  0  0  0  0  0  0  0  0
    7.8466  -16.3104   21.6593 O   0  0  0  0  0  0  0  0  0  0  0  0
    9.9873  -15.5911   22.0542 N   0  0  0  0  0  0  0  0  0  0  0  0
   10.2715  -16.6635   23.0248 C   0  0  1  0  0  0  0  0  0  0  0  0
   10.3219  -17.9634   22.3090 C   0  0  0  0  0  0  0  0  0  0  0  0
   10.5929  -19.1785   23.1203 C   0  0  0  0  0  0  0  0  0  0  0  0
   10.7101  -20.4665   22.3821 C   0  0  0  0  0  0  0  0  0  0  0  0
   11.0282  -21.5428   23.4272 C   0  0  0  0  0  0  0  0  0  0  0  0
   11.2186  -22.8193   22.7758 N   0  0  0  0  0  0  0  0  0  0  0  0
   11.4137  -16.3532   23.8909 C   0  0  0  0  0  0  0  0  0  0  0  0
   11.7275  -17.0504   24.8751 O   0  0  0  0  0  0  0  0  0  0  0  0
   12.1784  -15.2355   23.6029 O   0  0  0  0  0  0  0  0  0  0  0  0
  2  1  1  6
  3  2  1  0
  4  2  1  0
  4  5  1  6
  6  4  1  0
  7  6  2  0
  9  8  1  6
  9 11  1  0
 10  9  1  0
 11 12  1  6
 12  6  1  0
 13 11  1  0
 13 15  1  0
 14 13  2  0
 16 17  1  6
 16 15  1  0
 16 22  1  0
 18 17  1  0
 19 18  1  0
 20 21  1  0
 20 19  1  0
 22 24  1  0
 23 22  2  0
M  END
$$$$
