TVK.pdb
     RDKit          3D

 24 23  0  0  1  0  0  0  0  0999 V2000
    6.3621  -17.1190   22.7060 C   0  0  0  0  0  0  0  0  0  0  0  0
    7.1368  -16.4751   21.6024 C   0  0  1  0  0  0  0  0  0  0  0  0
    6.6653  -16.8271   20.3371 O   0  0  0  0  0  0  0  0  0  0  0  0
    7.1093  -14.9599   21.6794 C   0  0  2  0  0  0  0  0  0  0  0  0
    7.6762  -14.3827   20.4845 N   0  0  0  0  0  0  0  0  0  0  0  0
    7.8652  -14.5731   22.8990 C   0  0  0  0  0  0  0  0  0  0  0  0
    9.1188  -14.5907   22.8282 O   0  0  0  0  0  0  0  0  0  0  0  0
    6.4184  -11.8811   25.4969 C   0  0  0  0  0  0  0  0  0  0  0  0
    6.9729  -13.0893   26.1509 C   0  0  2  0  0  0  0  0  0  0  0  0
    7.5550  -12.7400   27.5054 C   0  0  0  0  0  0  0  0  0  0  0  0
    7.9976  -13.8511   25.3332 C   0  0  2  0  0  0  0  0  0  0  0  0
    7.2652  -14.1964   24.1026 N   0  0  0  0  0  0  0  0  0  0  0  0
    8.4021  -15.0553   26.0454 C   0  0  0  0  0  0  0  0  0  0  0  0
    7.5072  -15.8903   26.4135 O   0  0  0  0  0  0  0  0  0  0  0  0
    9.7370  -15.3607   26.3530 N   0  0  0  0  0  0  0  0  0  0  0  0
   10.1254  -16.5938   27.0612 C   0  0  1  0  0  0  0  0  0  0  0  0
   11.2558  -17.2309   26.3394 C   0  0  0  0  0  0  0  0  0  0  0  0
   11.8052  -18.4892   26.9078 C   0  0  0  0  0  0  0  0  0  0  0  0
   12.9677  -19.0942   26.2005 C   0  0  0  0  0  0  0  0  0  0  0  0
   13.3111  -20.3877   26.9494 C   0  0  0  0  0  0  0  0  0  0  0  0
   14.2859  -21.1464   26.1983 N   0  0  0  0  0  0  0  0  0  0  0  0
   10.3087  -16.3842   28.5012 C   0  0  0  0  0  0  0  0  0  0  0  0
   10.5764  -15.2720   28.9957 O   0  0  0  0  0  0  0  0  0  0  0  0
   10.1786  -17.4701   29.3500 O   0  0  0  0  0  0  0  0  0  0  0  0
  2  1  1  1
  3  2  1  0
  4  2  1  0
  4  5  1  6
  6  4  1  0
  7  6  2  0
  9  8  1  6
  9 11  1  0
 10  9  1  0
 11 12  1  6
 12  6  1  0
 13 11  1  0
 13 15  1  0
 14 13  2  0
 16 17  1  6
 16 15  1  0
 16 22  1  0
 18 17  1  0
 19 18  1  0
 20 21  1  0
 20 19  1  0
 22 24  1  0
 23 22  2  0
M  END
$$$$
