TVK.pdb
     RDKit          3D

 24 23  0  0  1  0  0  0  0  0999 V2000
    5.8803  -16.5358   20.3743 C   0  0  0  0  0  0  0  0  0  0  0  0
    6.6914  -16.2081   21.5857 C   0  0  1  0  0  0  0  0  0  0  0  0
    7.7388  -17.1070   21.7917 O   0  0  0  0  0  0  0  0  0  0  0  0
    7.3047  -14.8218   21.5177 C   0  0  2  0  0  0  0  0  0  0  0  0
    8.1991  -14.7196   20.3900 N   0  0  0  0  0  0  0  0  0  0  0  0
    8.0052  -14.5930   22.8082 C   0  0  0  0  0  0  0  0  0  0  0  0
    9.2488  -14.7655   22.8259 O   0  0  0  0  0  0  0  0  0  0  0  0
    6.4729  -11.9236   25.4371 C   0  0  0  0  0  0  0  0  0  0  0  0
    6.9925  -13.1646   26.0576 C   0  0  2  0  0  0  0  0  0  0  0  0
    7.5134  -12.8830   27.4522 C   0  0  0  0  0  0  0  0  0  0  0  0
    8.0505  -13.8930   25.2520 C   0  0  2  0  0  0  0  0  0  0  0  0
    7.3641  -14.2021   23.9858 N   0  0  0  0  0  0  0  0  0  0  0  0
    8.4385  -15.1175   25.9384 C   0  0  0  0  0  0  0  0  0  0  0  0
    7.5437  -15.9891   26.2087 O   0  0  0  0  0  0  0  0  0  0  0  0
    9.7574  -15.4041   26.3232 N   0  0  0  0  0  0  0  0  0  0  0  0
   10.1323  -16.6626   26.9930 C   0  0  1  0  0  0  0  0  0  0  0  0
   11.3094  -17.2468   26.3016 C   0  0  0  0  0  0  0  0  0  0  0  0
   11.8940  -18.4850   26.8789 C   0  0  0  0  0  0  0  0  0  0  0  0
   13.1011  -19.0361   26.2030 C   0  0  0  0  0  0  0  0  0  0  0  0
   13.4466  -20.3454   26.9229 C   0  0  0  0  0  0  0  0  0  0  0  0
   14.6890  -20.8761   26.4084 N   0  0  0  0  0  0  0  0  0  0  0  0
   10.2387  -16.5177   28.4486 C   0  0  0  0  0  0  0  0  0  0  0  0
   10.4231  -15.4199   29.0090 O   0  0  0  0  0  0  0  0  0  0  0  0
   10.1293  -17.6510   29.2363 O   0  0  0  0  0  0  0  0  0  0  0  0
  2  1  1  6
  3  2  1  0
  4  2  1  0
  4  5  1  6
  6  4  1  0
  7  6  2  0
  9  8  1  6
  9 11  1  0
 10  9  1  0
 11 12  1  6
 12  6  1  0
 13 11  1  0
 13 15  1  0
 14 13  2  0
 16 17  1  6
 16 15  1  0
 16 22  1  0
 18 17  1  0
 19 18  1  0
 20 21  1  0
 20 19  1  0
 22 24  1  0
 23 22  2  0
M  END
$$$$
