QWV.pdb
     RDKit          3D

 31 32  0  0  1  0  0  0  0  0999 V2000
   13.5278  -14.9351   18.4089 N   0  0  0  0  0  0  0  0  0  0  0  0
   12.9558  -16.1739   18.0238 C   0  0  0  0  0  0  0  0  0  0  0  0
   13.3963  -16.7308   16.9948 O   0  0  0  0  0  0  0  0  0  0  0  0
   11.8762  -16.7939   18.8057 C   0  0  0  0  0  0  0  0  0  0  0  0
   11.5387  -16.1258   20.0888 C   0  0  0  0  0  0  0  0  0  0  0  0
   11.5480  -16.9958   21.3008 C   0  0  2  0  0  0  0  0  0  0  0  0
   10.6011  -18.0746   21.0821 N   0  0  0  0  0  0  0  0  0  0  0  0
   11.1077  -16.2656   22.5240 C   0  0  0  0  0  0  0  0  0  0  0  0
   11.7481  -15.2599   22.9111 O   0  0  0  0  0  0  0  0  0  0  0  0
    9.9820  -16.6605   23.2813 N   0  0  0  0  0  0  0  0  0  0  0  0
    9.5145  -16.1054   24.5131 C   0  0  1  0  0  0  0  0  0  0  0  0
    7.9969  -16.2281   24.7311 C   0  0  0  0  0  0  0  0  0  0  0  0
    7.2547  -15.0985   24.1856 C   0  0  0  0  0  0  0  0  0  0  0  0
    6.7554  -14.9198   22.9340 C   0  0  0  0  0  0  0  0  0  0  0  0
    6.1180  -13.7225   22.8527 N   0  0  0  0  0  0  0  0  0  0  0  0
    6.2015  -13.1215   24.0514 C   0  0  0  0  0  0  0  0  0  0  0  0
    5.7115  -11.8874   24.4913 C   0  0  0  0  0  0  0  0  0  0  0  0
    5.9617  -11.5588   25.7859 C   0  0  0  0  0  0  0  0  0  0  0  0
    6.6591  -12.3768   26.6476 C   0  0  0  0  0  0  0  0  0  0  0  0
    7.1312  -13.5816   26.1987 C   0  0  0  0  0  0  0  0  0  0  0  0
    6.8965  -13.9448   24.8954 C   0  0  0  0  0  0  0  0  0  0  0  0
   10.1696  -16.5678   25.7236 C   0  0  0  0  0  0  0  0  0  0  0  0
   10.7245  -17.7152   25.6947 O   0  0  0  0  0  0  0  0  0  0  0  0
   11.5326  -13.9960   28.5931 C   0  0  0  0  0  0  0  0  0  0  0  0
   11.1004  -15.3053   29.1882 C   0  0  1  0  0  0  0  0  0  0  0  0
    9.7435  -15.1037   29.8240 C   0  0  0  0  0  0  0  0  0  0  0  0
   10.9615  -16.3315   28.1215 C   0  0  2  0  0  0  0  0  0  0  0  0
   10.2607  -15.8773   26.9452 N   0  0  0  0  0  0  0  0  0  0  0  0
   10.2561  -17.5116   28.6678 C   0  0  0  0  0  0  0  0  0  0  0  0
   10.8146  -18.4237   29.5498 O   0  0  0  0  0  0  0  0  0  0  0  0
    9.0636  -17.7388   28.3319 O   0  0  0  0  0  0  0  0  0  0  0  0
  2  1  1  0
  3  2  2  0
  4  2  1  0
  5  4  1  0
  6  5  1  0
  6  7  1  6
  8  6  1  0
  8  9  2  0
 10  8  1  0
 11 12  1  1
 11 10  1  0
 13 12  1  0
 13 14  2  0
 15 14  1  0
 16 15  1  0
 17 16  2  0
 18 17  1  0
 19 18  2  0
 19 20  1  0
 20 21  2  0
 21 16  1  0
 21 13  1  0
 22 11  1  0
 23 22  2  0
 25 24  1  6
 26 25  1  0
 27 25  1  0
 27 28  1  6
 28 22  1  0
 29 27  1  0
 29 30  1  0
 31 29  2  0
M  END
$$$$
