QWV.pdb
     RDKit          3D

 31 32  0  0  1  0  0  0  0  0999 V2000
   14.8939  -18.1772   21.3875 N   0  0  0  0  0  0  0  0  0  0  0  0
   14.5895  -18.3517   20.0138 C   0  0  0  0  0  0  0  0  0  0  0  0
   15.2758  -19.1651   19.3578 O   0  0  0  0  0  0  0  0  0  0  0  0
   13.4997  -17.6032   19.3709 C   0  0  0  0  0  0  0  0  0  0  0  0
   12.7285  -16.6925   20.2553 C   0  0  0  0  0  0  0  0  0  0  0  0
   11.4578  -17.2425   20.8112 C   0  0  2  0  0  0  0  0  0  0  0  0
   10.4800  -17.2761   19.7383 N   0  0  0  0  0  0  0  0  0  0  0  0
   10.8952  -16.3833   21.8920 C   0  0  0  0  0  0  0  0  0  0  0  0
   10.9250  -15.1358   21.7724 O   0  0  0  0  0  0  0  0  0  0  0  0
   10.3193  -16.9181   23.0663 N   0  0  0  0  0  0  0  0  0  0  0  0
    9.6804  -16.2101   24.1315 C   0  0  1  0  0  0  0  0  0  0  0  0
    8.1494  -16.3535   24.1628 C   0  0  0  0  0  0  0  0  0  0  0  0
    7.4590  -15.1133   23.8317 C   0  0  0  0  0  0  0  0  0  0  0  0
    6.9752  -14.6903   22.6338 C   0  0  0  0  0  0  0  0  0  0  0  0
    6.3895  -13.4720   22.7713 N   0  0  0  0  0  0  0  0  0  0  0  0
    6.4912  -13.1015   24.0588 C   0  0  0  0  0  0  0  0  0  0  0  0
    6.0512  -11.9473   24.7152 C   0  0  0  0  0  0  0  0  0  0  0  0
    6.3072  -11.8689   26.0475 C   0  0  0  0  0  0  0  0  0  0  0  0
    6.9642  -12.8581   26.7460 C   0  0  0  0  0  0  0  0  0  0  0  0
    7.3876  -13.9810   26.0860 C   0  0  0  0  0  0  0  0  0  0  0  0
    7.1456  -14.0926   24.7389 C   0  0  0  0  0  0  0  0  0  0  0  0
   10.1724  -16.4722   25.4722 C   0  0  0  0  0  0  0  0  0  0  0  0
   10.5199  -17.6665   25.7518 O   0  0  0  0  0  0  0  0  0  0  0  0
   11.1666  -15.1001   30.1495 C   0  0  0  0  0  0  0  0  0  0  0  0
   10.4178  -14.8426   28.8736 C   0  0  1  0  0  0  0  0  0  0  0  0
   10.7706  -13.4515   28.3979 C   0  0  0  0  0  0  0  0  0  0  0  0
   10.8424  -15.8090   27.8267 C   0  0  2  0  0  0  0  0  0  0  0  0
   10.3098  -15.5377   26.5138 N   0  0  0  0  0  0  0  0  0  0  0  0
   10.4389  -17.1741   28.2295 C   0  0  0  0  0  0  0  0  0  0  0  0
   11.2980  -18.1248   28.7586 O   0  0  0  0  0  0  0  0  0  0  0  0
    9.2399  -17.5368   28.0977 O   0  0  0  0  0  0  0  0  0  0  0  0
  2  1  1  0
  3  2  2  0
  4  2  1  0
  5  4  1  0
  6  5  1  0
  6  7  1  6
  8  6  1  0
  8  9  2  0
 10  8  1  0
 11 12  1  1
 11 10  1  0
 13 12  1  0
 13 14  2  0
 15 14  1  0
 16 15  1  0
 17 16  2  0
 18 17  1  0
 19 18  2  0
 19 20  1  0
 20 21  2  0
 21 16  1  0
 21 13  1  0
 22 11  1  0
 23 22  2  0
 25 24  1  1
 26 25  1  0
 27 25  1  0
 27 28  1  6
 28 22  1  0
 29 27  1  0
 29 30  1  0
 31 29  2  0
M  END
$$$$
