QWV.pdb
     RDKit          3D

 31 32  0  0  1  0  0  0  0  0999 V2000
   12.1803  -15.8396   18.0609 N   0  0  0  0  0  0  0  0  0  0  0  0
   10.9991  -16.5310   17.6907 C   0  0  0  0  0  0  0  0  0  0  0  0
   10.9688  -17.0862   16.5710 O   0  0  0  0  0  0  0  0  0  0  0  0
    9.8388  -16.5991   18.5909 C   0  0  0  0  0  0  0  0  0  0  0  0
   10.0094  -15.9556   19.9188 C   0  0  0  0  0  0  0  0  0  0  0  0
   10.3419  -16.8697   21.0501 C   0  0  2  0  0  0  0  0  0  0  0  0
    9.4060  -17.9793   21.0160 N   0  0  0  0  0  0  0  0  0  0  0  0
   10.1888  -16.2060   22.3765 C   0  0  0  0  0  0  0  0  0  0  0  0
   10.7271  -15.0922   22.5793 O   0  0  0  0  0  0  0  0  0  0  0  0
    9.4524  -16.7835   23.4351 N   0  0  0  0  0  0  0  0  0  0  0  0
    9.1829  -16.2252   24.7234 C   0  0  1  0  0  0  0  0  0  0  0  0
    7.8356  -16.6497   25.3319 C   0  0  0  0  0  0  0  0  0  0  0  0
    6.7609  -15.7109   25.0349 C   0  0  0  0  0  0  0  0  0  0  0  0
    5.5389  -15.9459   24.4877 C   0  0  0  0  0  0  0  0  0  0  0  0
    4.8384  -14.7853   24.3952 N   0  0  0  0  0  0  0  0  0  0  0  0
    5.6037  -13.7943   24.8826 C   0  0  0  0  0  0  0  0  0  0  0  0
    5.3510  -12.4249   25.0149 C   0  0  0  0  0  0  0  0  0  0  0  0
    6.3428  -11.6721   25.5590 C   0  0  0  0  0  0  0  0  0  0  0  0
    7.5475  -12.1994   25.9698 C   0  0  0  0  0  0  0  0  0  0  0  0
    7.7767  -13.5427   25.8320 C   0  0  0  0  0  0  0  0  0  0  0  0
    6.7956  -14.3329   25.2855 C   0  0  0  0  0  0  0  0  0  0  0  0
   10.2020  -16.4164   25.7399 C   0  0  0  0  0  0  0  0  0  0  0  0
   11.1210  -17.2678   25.5035 O   0  0  0  0  0  0  0  0  0  0  0  0
   11.4635  -13.7700   28.9526 C   0  0  0  0  0  0  0  0  0  0  0  0
   11.0903  -15.1964   29.2376 C   0  0  1  0  0  0  0  0  0  0  0  0
    9.6306  -15.2273   29.6305 C   0  0  0  0  0  0  0  0  0  0  0  0
   11.2555  -16.0233   28.0133 C   0  0  2  0  0  0  0  0  0  0  0  0
   10.2882  -15.7544   26.9774 N   0  0  0  0  0  0  0  0  0  0  0  0
   11.1757  -17.4552   28.3765 C   0  0  0  0  0  0  0  0  0  0  0  0
   12.2228  -18.1916   28.9088 O   0  0  0  0  0  0  0  0  0  0  0  0
   10.0987  -18.0854   28.2049 O   0  0  0  0  0  0  0  0  0  0  0  0
  2  1  1  0
  3  2  2  0
  4  2  1  0
  5  4  1  0
  6  5  1  0
  6  7  1  1
  8  6  1  0
  8  9  2  0
 10  8  1  0
 11 12  1  1
 11 10  1  0
 13 12  1  0
 13 14  2  0
 15 14  1  0
 16 15  1  0
 17 16  2  0
 18 17  1  0
 19 18  2  0
 19 20  1  0
 20 21  2  0
 21 16  1  0
 21 13  1  0
 22 11  1  0
 23 22  2  0
 25 24  1  6
 26 25  1  0
 27 25  1  0
 27 28  1  6
 28 22  1  0
 29 27  1  0
 29 30  1  0
 31 29  2  0
M  END
$$$$
