QWV.pdb
     RDKit          3D

 31 32  0  0  1  0  0  0  0  0999 V2000
   13.5051  -15.6605   17.8657 N   0  0  0  0  0  0  0  0  0  0  0  0
   12.9309  -16.9360   17.6340 C   0  0  0  0  0  0  0  0  0  0  0  0
   13.2458  -17.5415   16.5865 O   0  0  0  0  0  0  0  0  0  0  0  0
   11.9922  -17.5376   18.5921 C   0  0  0  0  0  0  0  0  0  0  0  0
   11.7006  -16.7334   19.8065 C   0  0  0  0  0  0  0  0  0  0  0  0
   11.5517  -17.5001   21.0778 C   0  0  2  0  0  0  0  0  0  0  0  0
   10.5171  -18.4990   20.8770 N   0  0  0  0  0  0  0  0  0  0  0  0
   11.1140  -16.6356   22.2111 C   0  0  0  0  0  0  0  0  0  0  0  0
   11.7364  -15.5764   22.4603 O   0  0  0  0  0  0  0  0  0  0  0  0
   10.0108  -16.9595   23.0324 N   0  0  0  0  0  0  0  0  0  0  0  0
    9.4703  -16.1991   24.1159 C   0  0  1  0  0  0  0  0  0  0  0  0
    7.9445  -16.0125   24.0636 C   0  0  0  0  0  0  0  0  0  0  0  0
    7.4832  -15.4875   22.7845 C   0  0  0  0  0  0  0  0  0  0  0  0
    6.9166  -16.1443   21.7379 C   0  0  0  0  0  0  0  0  0  0  0  0
    6.6251  -15.2687   20.7405 N   0  0  0  0  0  0  0  0  0  0  0  0
    7.0012  -14.0415   21.1375 C   0  0  0  0  0  0  0  0  0  0  0  0
    6.9182  -12.8053   20.4882 C   0  0  0  0  0  0  0  0  0  0  0  0
    7.3898  -11.7272   21.1678 C   0  0  0  0  0  0  0  0  0  0  0  0
    7.9283  -11.8130   22.4330 C   0  0  0  0  0  0  0  0  0  0  0  0
    8.0012  -13.0322   23.0527 C   0  0  0  0  0  0  0  0  0  0  0  0
    7.5339  -14.1428   22.3941 C   0  0  0  0  0  0  0  0  0  0  0  0
    9.8114  -16.6443   25.4552 C   0  0  0  0  0  0  0  0  0  0  0  0
    9.2170  -17.6791   25.9039 O   0  0  0  0  0  0  0  0  0  0  0  0
    9.4832  -14.1372   29.3147 C   0  0  0  0  0  0  0  0  0  0  0  0
    9.5960  -14.5024   27.8624 C   0  0  1  0  0  0  0  0  0  0  0  0
   10.2165  -13.3319   27.1337 C   0  0  0  0  0  0  0  0  0  0  0  0
   10.4937  -15.6760   27.6978 C   0  0  2  0  0  0  0  0  0  0  0  0
   10.7409  -16.0494   26.3265 N   0  0  0  0  0  0  0  0  0  0  0  0
    9.9150  -16.8371   28.4087 C   0  0  0  0  0  0  0  0  0  0  0  0
   10.4351  -17.3882   29.5696 O   0  0  0  0  0  0  0  0  0  0  0  0
    8.8775  -17.3925   27.9594 O   0  0  0  0  0  0  0  0  0  0  0  0
  2  1  1  0
  3  2  2  0
  4  2  1  0
  5  4  1  0
  6  5  1  0
  6  7  1  6
  8  6  1  0
  8  9  2  0
 10  8  1  0
 11 12  1  1
 11 10  1  0
 13 12  1  0
 13 14  2  0
 15 14  1  0
 16 15  1  0
 17 16  2  0
 18 17  1  0
 19 18  2  0
 19 20  1  0
 20 21  2  0
 21 16  1  0
 21 13  1  0
 22 11  1  0
 23 22  2  0
 25 24  1  1
 26 25  1  0
 27 25  1  0
 27 28  1  6
 28 22  1  0
 29 27  1  0
 29 30  1  0
 31 29  2  0
M  END
$$$$
