QWV.pdb
     RDKit          3D

 31 32  0  0  1  0  0  0  0  0999 V2000
    8.4457  -12.9405   17.9141 N   0  0  0  0  0  0  0  0  0  0  0  0
    8.5886  -14.3031   17.5493 C   0  0  0  0  0  0  0  0  0  0  0  0
    8.2089  -14.6500   16.4098 O   0  0  0  0  0  0  0  0  0  0  0  0
    9.1662  -15.2866   18.4768 C   0  0  0  0  0  0  0  0  0  0  0  0
    9.5426  -14.7705   19.8178 C   0  0  0  0  0  0  0  0  0  0  0  0
   10.0964  -15.7743   20.7726 C   0  0  2  0  0  0  0  0  0  0  0  0
    9.3551  -17.0107   20.5987 N   0  0  0  0  0  0  0  0  0  0  0  0
    9.9266  -15.3561   22.1937 C   0  0  0  0  0  0  0  0  0  0  0  0
   10.2355  -14.1914   22.5394 O   0  0  0  0  0  0  0  0  0  0  0  0
    9.4248  -16.2262   23.1875 N   0  0  0  0  0  0  0  0  0  0  0  0
    9.0835  -15.9103   24.5395 C   0  0  1  0  0  0  0  0  0  0  0  0
    7.7210  -16.4582   24.9966 C   0  0  0  0  0  0  0  0  0  0  0  0
    6.6642  -15.4555   24.9492 C   0  0  0  0  0  0  0  0  0  0  0  0
    5.4335  -15.5279   24.3767 C   0  0  0  0  0  0  0  0  0  0  0  0
    4.7570  -14.3665   24.5766 N   0  0  0  0  0  0  0  0  0  0  0  0
    5.5468  -13.5377   25.2798 C   0  0  0  0  0  0  0  0  0  0  0  0
    5.3242  -12.2367   25.7429 C   0  0  0  0  0  0  0  0  0  0  0  0
    6.3358  -11.6569   26.4407 C   0  0  0  0  0  0  0  0  0  0  0  0
    7.5321  -12.2905   26.6965 C   0  0  0  0  0  0  0  0  0  0  0  0
    7.7318  -13.5644   26.2348 C   0  0  0  0  0  0  0  0  0  0  0  0
    6.7301  -14.1801   25.5255 C   0  0  0  0  0  0  0  0  0  0  0  0
   10.0600  -16.2622   25.5548 C   0  0  0  0  0  0  0  0  0  0  0  0
   11.0143  -17.0362   25.2147 O   0  0  0  0  0  0  0  0  0  0  0  0
   12.0740  -15.7515   30.0795 C   0  0  0  0  0  0  0  0  0  0  0  0
   10.9204  -15.4378   29.1707 C   0  0  1  0  0  0  0  0  0  0  0  0
   10.9268  -13.9494   28.9050 C   0  0  0  0  0  0  0  0  0  0  0  0
   11.0877  -16.1386   27.8703 C   0  0  2  0  0  0  0  0  0  0  0  0
   10.0689  -15.8361   26.8948 N   0  0  0  0  0  0  0  0  0  0  0  0
   11.1041  -17.5998   28.1013 C   0  0  0  0  0  0  0  0  0  0  0  0
   12.2507  -18.3507   28.3098 O   0  0  0  0  0  0  0  0  0  0  0  0
   10.0214  -18.2432   28.1164 O   0  0  0  0  0  0  0  0  0  0  0  0
  2  1  1  0
  3  2  2  0
  4  2  1  0
  5  4  1  0
  6  5  1  0
  6  7  1  1
  8  6  1  0
  8  9  2  0
 10  8  1  0
 11 12  1  1
 11 10  1  0
 13 12  1  0
 13 14  2  0
 15 14  1  0
 16 15  1  0
 17 16  2  0
 18 17  1  0
 19 18  2  0
 19 20  1  0
 20 21  2  0
 21 16  1  0
 21 13  1  0
 22 11  1  0
 23 22  2  0
 25 24  1  1
 26 25  1  0
 27 25  1  0
 27 28  1  6
 28 22  1  0
 29 27  1  0
 29 30  1  0
 31 29  2  0
M  END
$$$$
