QWV.pdb
     RDKit          3D

 31 32  0  0  1  0  0  0  0  0999 V2000
    8.4025  -12.5096   18.2426 N   0  0  0  0  0  0  0  0  0  0  0  0
    8.2492  -13.8356   17.7646 C   0  0  0  0  0  0  0  0  0  0  0  0
    8.1576  -14.0091   16.5299 O   0  0  0  0  0  0  0  0  0  0  0  0
    8.1992  -14.9798   18.6863 C   0  0  0  0  0  0  0  0  0  0  0  0
    8.4444  -14.6704   20.1183 C   0  0  0  0  0  0  0  0  0  0  0  0
    9.3940  -15.5753   20.8292 C   0  0  2  0  0  0  0  0  0  0  0  0
    8.8620  -16.9245   20.7574 N   0  0  0  0  0  0  0  0  0  0  0  0
    9.5277  -15.2317   22.2739 C   0  0  0  0  0  0  0  0  0  0  0  0
    9.9814  -14.1115   22.6064 O   0  0  0  0  0  0  0  0  0  0  0  0
    9.1604  -16.1253   23.3051 N   0  0  0  0  0  0  0  0  0  0  0  0
    8.9878  -15.8381   24.6950 C   0  0  1  0  0  0  0  0  0  0  0  0
    7.6639  -16.3468   25.2903 C   0  0  0  0  0  0  0  0  0  0  0  0
    6.5970  -15.3559   25.2238 C   0  0  0  0  0  0  0  0  0  0  0  0
    5.3353  -15.4805   24.7336 C   0  0  0  0  0  0  0  0  0  0  0  0
    4.6612  -14.3095   24.8776 N   0  0  0  0  0  0  0  0  0  0  0  0
    5.4836  -13.4222   25.4622 C   0  0  0  0  0  0  0  0  0  0  0  0
    5.2767  -12.0884   25.8296 C   0  0  0  0  0  0  0  0  0  0  0  0
    6.3224  -11.4488   26.4159 C   0  0  0  0  0  0  0  0  0  0  0  0
    7.5375  -12.0540   26.6511 C   0  0  0  0  0  0  0  0  0  0  0  0
    7.7212  -13.3608   26.2843 C   0  0  0  0  0  0  0  0  0  0  0  0
    6.6851  -14.0371   25.6888 C   0  0  0  0  0  0  0  0  0  0  0  0
   10.0572  -16.2585   25.5826 C   0  0  0  0  0  0  0  0  0  0  0  0
   10.9115  -17.0884   25.1279 O   0  0  0  0  0  0  0  0  0  0  0  0
   12.5138  -16.0716   29.9096 C   0  0  0  0  0  0  0  0  0  0  0  0
   11.2689  -15.7087   29.1522 C   0  0  1  0  0  0  0  0  0  0  0  0
   11.2294  -14.2036   29.0129 C   0  0  0  0  0  0  0  0  0  0  0  0
   11.3102  -16.2967   27.7874 C   0  0  2  0  0  0  0  0  0  0  0  0
   10.2576  -15.8438   26.9112 N   0  0  0  0  0  0  0  0  0  0  0  0
   11.2417  -17.7710   27.8884 C   0  0  0  0  0  0  0  0  0  0  0  0
   12.3292  -18.6204   27.7548 O   0  0  0  0  0  0  0  0  0  0  0  0
   10.1362  -18.3325   28.1101 O   0  0  0  0  0  0  0  0  0  0  0  0
  2  1  1  0
  3  2  2  0
  4  2  1  0
  5  4  1  0
  6  5  1  0
  6  7  1  1
  8  6  1  0
  8  9  2  0
 10  8  1  0
 11 12  1  1
 11 10  1  0
 13 12  1  0
 13 14  2  0
 15 14  1  0
 16 15  1  0
 17 16  2  0
 18 17  1  0
 19 18  2  0
 19 20  1  0
 20 21  2  0
 21 16  1  0
 21 13  1  0
 22 11  1  0
 23 22  2  0
 25 24  1  1
 26 25  1  0
 27 25  1  0
 27 28  1  6
 28 22  1  0
 29 27  1  0
 29 30  1  0
 31 29  2  0
M  END
$$$$
