QWV.pdb
     RDKit          3D

 31 32  0  0  1  0  0  0  0  0999 V2000
    8.3362  -12.9273   18.5027 N   0  0  0  0  0  0  0  0  0  0  0  0
    8.7106  -14.1918   17.9820 C   0  0  0  0  0  0  0  0  0  0  0  0
    8.5372  -14.4003   16.7616 O   0  0  0  0  0  0  0  0  0  0  0  0
    9.2874  -15.2336   18.8441 C   0  0  0  0  0  0  0  0  0  0  0  0
    9.4261  -14.8831   20.2809 C   0  0  0  0  0  0  0  0  0  0  0  0
   10.0144  -15.9378   21.1570 C   0  0  2  0  0  0  0  0  0  0  0  0
    9.1745  -17.1182   21.0586 N   0  0  0  0  0  0  0  0  0  0  0  0
   10.0370  -15.5327   22.5918 C   0  0  0  0  0  0  0  0  0  0  0  0
   10.6964  -14.5259   22.9424 O   0  0  0  0  0  0  0  0  0  0  0  0
    9.3376  -16.2428   23.5934 N   0  0  0  0  0  0  0  0  0  0  0  0
    9.1870  -15.8958   24.9722 C   0  0  1  0  0  0  0  0  0  0  0  0
    7.8431  -16.3161   25.5911 C   0  0  0  0  0  0  0  0  0  0  0  0
    6.7520  -15.4175   25.2357 C   0  0  0  0  0  0  0  0  0  0  0  0
    5.6035  -15.6829   24.5586 C   0  0  0  0  0  0  0  0  0  0  0  0
    4.8521  -14.5556   24.4548 N   0  0  0  0  0  0  0  0  0  0  0  0
    5.5107  -13.5558   25.0646 C   0  0  0  0  0  0  0  0  0  0  0  0
    5.1711  -12.2101   25.2392 C   0  0  0  0  0  0  0  0  0  0  0  0
    6.0624  -11.4396   25.9161 C   0  0  0  0  0  0  0  0  0  0  0  0
    7.2490  -11.9276   26.4179 C   0  0  0  0  0  0  0  0  0  0  0  0
    7.5644  -13.2481   26.2370 C   0  0  0  0  0  0  0  0  0  0  0  0
    6.6860  -14.0553   25.5569 C   0  0  0  0  0  0  0  0  0  0  0  0
   10.2395  -16.3350   25.8709 C   0  0  0  0  0  0  0  0  0  0  0  0
   11.0617  -17.2076   25.4374 O   0  0  0  0  0  0  0  0  0  0  0  0
   11.4146  -14.1391   29.1289 C   0  0  0  0  0  0  0  0  0  0  0  0
   11.5853  -15.6133   29.3586 C   0  0  1  0  0  0  0  0  0  0  0  0
   10.4451  -16.0846   30.2326 C   0  0  0  0  0  0  0  0  0  0  0  0
   11.5086  -16.3451   28.0668 C   0  0  2  0  0  0  0  0  0  0  0  0
   10.4552  -15.8963   27.1893 N   0  0  0  0  0  0  0  0  0  0  0  0
   11.3214  -17.7882   28.3332 C   0  0  0  0  0  0  0  0  0  0  0  0
   12.3139  -18.6382   28.7961 O   0  0  0  0  0  0  0  0  0  0  0  0
   10.1964  -18.3199   28.1377 O   0  0  0  0  0  0  0  0  0  0  0  0
  2  1  1  0
  3  2  2  0
  4  2  1  0
  5  4  1  0
  6  5  1  0
  6  7  1  1
  8  6  1  0
  8  9  2  0
 10  8  1  0
 11 12  1  1
 11 10  1  0
 13 12  1  0
 13 14  2  0
 15 14  1  0
 16 15  1  0
 17 16  2  0
 18 17  1  0
 19 18  2  0
 19 20  1  0
 20 21  2  0
 21 16  1  0
 21 13  1  0
 22 11  1  0
 23 22  2  0
 25 24  1  6
 26 25  1  0
 27 25  1  0
 27 28  1  6
 28 22  1  0
 29 27  1  0
 29 30  1  0
 31 29  2  0
M  END
$$$$
