QWV.pdb
     RDKit          3D

 31 32  0  0  1  0  0  0  0  0999 V2000
   13.1360  -16.7782   16.2803 N   0  0  0  0  0  0  0  0  0  0  0  0
   11.8583  -16.8897   16.8848 C   0  0  0  0  0  0  0  0  0  0  0  0
   10.8729  -16.4318   16.2665 O   0  0  0  0  0  0  0  0  0  0  0  0
   11.6872  -17.5243   18.1998 C   0  0  0  0  0  0  0  0  0  0  0  0
   11.9138  -16.6477   19.3774 C   0  0  0  0  0  0  0  0  0  0  0  0
   11.8033  -17.3050   20.7122 C   0  0  2  0  0  0  0  0  0  0  0  0
   10.9874  -18.4961   20.5561 N   0  0  0  0  0  0  0  0  0  0  0  0
   11.1247  -16.4358   21.7158 C   0  0  0  0  0  0  0  0  0  0  0  0
   11.6060  -15.3112   21.9896 O   0  0  0  0  0  0  0  0  0  0  0  0
    9.9432  -16.8265   22.3850 N   0  0  0  0  0  0  0  0  0  0  0  0
    9.2396  -16.1188   23.4089 C   0  0  1  0  0  0  0  0  0  0  0  0
    7.7125  -16.2991   23.3729 C   0  0  0  0  0  0  0  0  0  0  0  0
    7.0307  -15.5520   24.4223 C   0  0  0  0  0  0  0  0  0  0  0  0
    6.3282  -16.0136   25.4906 C   0  0  0  0  0  0  0  0  0  0  0  0
    5.8654  -14.9717   26.2300 N   0  0  0  0  0  0  0  0  0  0  0  0
    6.2669  -13.8314   25.6437 C   0  0  0  0  0  0  0  0  0  0  0  0
    6.0591  -12.4959   26.0043 C   0  0  0  0  0  0  0  0  0  0  0  0
    6.6071  -11.5534   25.1931 C   0  0  0  0  0  0  0  0  0  0  0  0
    7.3357  -11.8637   24.0658 C   0  0  0  0  0  0  0  0  0  0  0  0
    7.5284  -13.1771   23.7287 C   0  0  0  0  0  0  0  0  0  0  0  0
    6.9880  -14.1554   24.5265 C   0  0  0  0  0  0  0  0  0  0  0  0
    9.6757  -16.3494   24.7745 C   0  0  0  0  0  0  0  0  0  0  0  0
   10.2433  -17.4610   25.0345 O   0  0  0  0  0  0  0  0  0  0  0  0
   10.5487  -14.7708   29.4196 C   0  0  0  0  0  0  0  0  0  0  0  0
    9.8399  -14.5305   28.1177 C   0  0  1  0  0  0  0  0  0  0  0  0
   10.3725  -13.2447   27.5267 C   0  0  0  0  0  0  0  0  0  0  0  0
   10.1335  -15.6323   27.1638 C   0  0  2  0  0  0  0  0  0  0  0  0
    9.5385  -15.4665   25.8602 N   0  0  0  0  0  0  0  0  0  0  0  0
    9.6672  -16.9133   27.7385 C   0  0  0  0  0  0  0  0  0  0  0  0
   10.4497  -17.7632   28.5048 O   0  0  0  0  0  0  0  0  0  0  0  0
    8.4830  -17.2940   27.5401 O   0  0  0  0  0  0  0  0  0  0  0  0
  2  1  1  0
  3  2  2  0
  4  2  1  0
  5  4  1  0
  6  5  1  0
  6  7  1  6
  8  6  1  0
  8  9  2  0
 10  8  1  0
 11 12  1  1
 11 10  1  0
 13 12  1  0
 13 14  2  0
 15 14  1  0
 16 15  1  0
 17 16  2  0
 18 17  1  0
 19 18  2  0
 19 20  1  0
 20 21  2  0
 21 16  1  0
 21 13  1  0
 22 11  1  0
 23 22  2  0
 25 24  1  1
 26 25  1  0
 27 25  1  0
 27 28  1  6
 28 22  1  0
 29 27  1  0
 29 30  1  0
 31 29  2  0
M  END
$$$$
