QWV.pdb
     RDKit          3D

 31 32  0  0  1  0  0  0  0  0999 V2000
    8.1542  -12.5707   17.5756 N   0  0  0  0  0  0  0  0  0  0  0  0
    8.4513  -13.8828   17.1278 C   0  0  0  0  0  0  0  0  0  0  0  0
    8.4114  -14.1082   15.8988 O   0  0  0  0  0  0  0  0  0  0  0  0
    8.7981  -14.9535   18.0736 C   0  0  0  0  0  0  0  0  0  0  0  0
    8.9256  -14.5460   19.4964 C   0  0  0  0  0  0  0  0  0  0  0  0
    9.7154  -15.4618   20.3702 C   0  0  2  0  0  0  0  0  0  0  0  0
    9.1608  -16.7968   20.2329 N   0  0  0  0  0  0  0  0  0  0  0  0
    9.6181  -15.0914   21.8112 C   0  0  0  0  0  0  0  0  0  0  0  0
   10.1257  -14.0176   22.2119 O   0  0  0  0  0  0  0  0  0  0  0  0
    8.9690  -15.9083   22.7640 N   0  0  0  0  0  0  0  0  0  0  0  0
    8.7861  -15.6538   24.1590 C   0  0  1  0  0  0  0  0  0  0  0  0
    7.5160  -16.2801   24.7591 C   0  0  0  0  0  0  0  0  0  0  0  0
    6.6144  -15.2890   25.3330 C   0  0  0  0  0  0  0  0  0  0  0  0
    5.3559  -15.4499   25.8210 C   0  0  0  0  0  0  0  0  0  0  0  0
    4.8757  -14.2620   26.2734 N   0  0  0  0  0  0  0  0  0  0  0  0
    5.8214  -13.3274   26.0806 C   0  0  0  0  0  0  0  0  0  0  0  0
    5.8277  -11.9594   26.3728 C   0  0  0  0  0  0  0  0  0  0  0  0
    6.9567  -11.2735   26.0545 C   0  0  0  0  0  0  0  0  0  0  0  0
    8.0566  -11.8650   25.4728 C   0  0  0  0  0  0  0  0  0  0  0  0
    8.0318  -13.2056   25.1940 C   0  0  0  0  0  0  0  0  0  0  0  0
    6.9062  -13.9292   25.5025 C   0  0  0  0  0  0  0  0  0  0  0  0
    9.8959  -15.9928   25.0317 C   0  0  0  0  0  0  0  0  0  0  0  0
   10.8224  -16.7260   24.5529 O   0  0  0  0  0  0  0  0  0  0  0  0
   11.0096  -13.8805   28.4370 C   0  0  0  0  0  0  0  0  0  0  0  0
   11.1093  -15.3713   28.5880 C   0  0  1  0  0  0  0  0  0  0  0  0
    9.8805  -15.8486   29.3286 C   0  0  0  0  0  0  0  0  0  0  0  0
   11.1231  -16.0216   27.2512 C   0  0  2  0  0  0  0  0  0  0  0  0
   10.0639  -15.5945   26.3698 N   0  0  0  0  0  0  0  0  0  0  0  0
   11.0366  -17.4886   27.4206 C   0  0  0  0  0  0  0  0  0  0  0  0
    9.8751  -18.2309   27.2719 O   0  0  0  0  0  0  0  0  0  0  0  0
   12.0681  -18.1458   27.7215 O   0  0  0  0  0  0  0  0  0  0  0  0
  2  1  1  0
  3  2  2  0
  4  2  1  0
  5  4  1  0
  6  5  1  0
  6  7  1  1
  8  6  1  0
  8  9  2  0
 10  8  1  0
 11 12  1  1
 11 10  1  0
 13 12  1  0
 13 14  2  0
 15 14  1  0
 16 15  1  0
 17 16  2  0
 18 17  1  0
 19 18  2  0
 19 20  1  0
 20 21  2  0
 21 16  1  0
 21 13  1  0
 22 11  1  0
 23 22  2  0
 25 24  1  6
 26 25  1  0
 27 25  1  0
 27 28  1  6
 28 22  1  0
 29 27  1  0
 29 30  1  0
 31 29  2  0
M  END
$$$$
