QWV.pdb
     RDKit          3D

 31 32  0  0  1  0  0  0  0  0999 V2000
   12.7458  -14.8526   18.3599 N   0  0  0  0  0  0  0  0  0  0  0  0
   11.9519  -15.9478   17.9350 C   0  0  0  0  0  0  0  0  0  0  0  0
   12.0726  -16.3386   16.7536 O   0  0  0  0  0  0  0  0  0  0  0  0
   11.0118  -16.6114   18.8500 C   0  0  0  0  0  0  0  0  0  0  0  0
   10.8741  -15.9977   20.1956 C   0  0  0  0  0  0  0  0  0  0  0  0
   10.0092  -16.7330   21.1638 C   0  0  2  0  0  0  0  0  0  0  0  0
    8.6784  -16.8265   20.5905 N   0  0  0  0  0  0  0  0  0  0  0  0
    9.8785  -16.0144   22.4637 C   0  0  0  0  0  0  0  0  0  0  0  0
   10.2738  -14.8288   22.5601 O   0  0  0  0  0  0  0  0  0  0  0  0
    9.3200  -16.6174   23.6130 N   0  0  0  0  0  0  0  0  0  0  0  0
    9.5033  -16.2390   24.9795 C   0  0  1  0  0  0  0  0  0  0  0  0
    8.2554  -16.4143   25.8614 C   0  0  0  0  0  0  0  0  0  0  0  0
    7.1419  -15.5747   25.4377 C   0  0  0  0  0  0  0  0  0  0  0  0
    5.8988  -15.9371   25.0237 C   0  0  0  0  0  0  0  0  0  0  0  0
    5.1640  -14.8321   24.7315 N   0  0  0  0  0  0  0  0  0  0  0  0
    5.9280  -13.7499   24.9556 C   0  0  0  0  0  0  0  0  0  0  0  0
    5.6467  -12.3870   24.8133 C   0  0  0  0  0  0  0  0  0  0  0  0
    6.6461  -11.5223   25.1294 C   0  0  0  0  0  0  0  0  0  0  0  0
    7.8846  -11.9340   25.5705 C   0  0  0  0  0  0  0  0  0  0  0  0
    8.1415  -13.2727   25.7035 C   0  0  0  0  0  0  0  0  0  0  0  0
    7.1536  -14.1744   25.3922 C   0  0  0  0  0  0  0  0  0  0  0  0
   10.6217  -16.8478   25.6773 C   0  0  0  0  0  0  0  0  0  0  0  0
   10.8223  -18.0941   25.4994 O   0  0  0  0  0  0  0  0  0  0  0  0
   10.3658  -15.3053   30.0113 C   0  0  0  0  0  0  0  0  0  0  0  0
   10.3825  -15.2594   28.5104 C   0  0  1  0  0  0  0  0  0  0  0  0
   10.7283  -13.8486   28.0905 C   0  0  0  0  0  0  0  0  0  0  0  0
   11.4337  -16.1682   27.9820 C   0  0  2  0  0  0  0  0  0  0  0  0
   11.5230  -16.2027   26.5426 N   0  0  0  0  0  0  0  0  0  0  0  0
   11.1857  -17.5408   28.4749 C   0  0  0  0  0  0  0  0  0  0  0  0
   11.8226  -18.1123   29.5656 O   0  0  0  0  0  0  0  0  0  0  0  0
   10.3449  -18.2736   27.8896 O   0  0  0  0  0  0  0  0  0  0  0  0
  2  1  1  0
  3  2  2  0
  4  2  1  0
  5  4  1  0
  6  5  1  0
  6  7  1  6
  8  6  1  0
  8  9  2  0
 10  8  1  0
 11 12  1  1
 11 10  1  0
 13 12  1  0
 13 14  2  0
 15 14  1  0
 16 15  1  0
 17 16  2  0
 18 17  1  0
 19 18  2  0
 19 20  1  0
 20 21  2  0
 21 16  1  0
 21 13  1  0
 22 11  1  0
 23 22  2  0
 25 24  1  1
 26 25  1  0
 27 25  1  0
 27 28  1  6
 28 22  1  0
 29 27  1  0
 29 30  1  0
 31 29  2  0
M  END
$$$$
