QWV.pdb
     RDKit          3D

 31 32  0  0  1  0  0  0  0  0999 V2000
    7.8221  -18.9290   17.2654 N   0  0  0  0  0  0  0  0  0  0  0  0
    7.7084  -17.5225   17.1266 C   0  0  0  0  0  0  0  0  0  0  0  0
    8.1498  -16.9968   16.0818 O   0  0  0  0  0  0  0  0  0  0  0  0
    7.0902  -16.6981   18.1751 C   0  0  0  0  0  0  0  0  0  0  0  0
    7.9632  -16.3497   19.3254 C   0  0  0  0  0  0  0  0  0  0  0  0
    7.3273  -15.5434   20.4077 C   0  0  2  0  0  0  0  0  0  0  0  0
    7.0707  -14.2147   19.8811 N   0  0  0  0  0  0  0  0  0  0  0  0
    8.2198  -15.3824   21.5912 C   0  0  0  0  0  0  0  0  0  0  0  0
    9.1623  -14.5569   21.5504 O   0  0  0  0  0  0  0  0  0  0  0  0
    8.0507  -16.1300   22.7783 N   0  0  0  0  0  0  0  0  0  0  0  0
    8.9226  -16.1890   23.9098 C   0  0  1  0  0  0  0  0  0  0  0  0
    8.2050  -16.3800   25.2568 C   0  0  0  0  0  0  0  0  0  0  0  0
    7.2460  -15.3199   25.5413 C   0  0  0  0  0  0  0  0  0  0  0  0
    5.8906  -15.3841   25.6234 C   0  0  0  0  0  0  0  0  0  0  0  0
    5.3830  -14.1595   25.9218 N   0  0  0  0  0  0  0  0  0  0  0  0
    6.4076  -13.2977   26.0345 C   0  0  0  0  0  0  0  0  0  0  0  0
    6.4237  -11.9304   26.3296 C   0  0  0  0  0  0  0  0  0  0  0  0
    7.6425  -11.3313   26.3755 C   0  0  0  0  0  0  0  0  0  0  0  0
    8.8213  -12.0072   26.1481 C   0  0  0  0  0  0  0  0  0  0  0  0
    8.7854  -13.3458   25.8605 C   0  0  0  0  0  0  0  0  0  0  0  0
    7.5701  -13.9828   25.8057 C   0  0  0  0  0  0  0  0  0  0  0  0
   10.0024  -17.1578   23.8476 C   0  0  0  0  0  0  0  0  0  0  0  0
    9.8876  -18.1191   23.0182 O   0  0  0  0  0  0  0  0  0  0  0  0
   13.7483  -16.1495   23.6255 C   0  0  0  0  0  0  0  0  0  0  0  0
   13.2391  -17.5281   23.3168 C   0  0  1  0  0  0  0  0  0  0  0  0
   14.4261  -18.4633   23.2652 C   0  0  0  0  0  0  0  0  0  0  0  0
   12.3326  -17.9934   24.3993 C   0  0  2  0  0  0  0  0  0  0  0  0
   11.1807  -17.1521   24.6148 N   0  0  0  0  0  0  0  0  0  0  0  0
   13.0925  -18.0905   25.6649 C   0  0  0  0  0  0  0  0  0  0  0  0
   12.8253  -17.3445   26.8024 O   0  0  0  0  0  0  0  0  0  0  0  0
   14.0573  -18.8951   25.7554 O   0  0  0  0  0  0  0  0  0  0  0  0
  2  1  1  0
  3  2  2  0
  4  2  1  0
  5  4  1  0
  6  5  1  0
  6  7  1  6
  8  6  1  0
  8  9  2  0
 10  8  1  0
 11 12  1  1
 11 10  1  0
 13 12  1  0
 13 14  2  0
 15 14  1  0
 16 15  1  0
 17 16  2  0
 18 17  1  0
 19 18  2  0
 19 20  1  0
 20 21  2  0
 21 16  1  0
 21 13  1  0
 22 11  1  0
 23 22  2  0
 25 24  1  1
 26 25  1  0
 27 25  1  0
 27 28  1  1
 28 22  1  0
 29 27  1  0
 29 30  1  0
 31 29  2  0
M  END
$$$$
