QWV.pdb
     RDKit          3D

 31 32  0  0  1  0  0  0  0  0999 V2000
   14.6624  -18.4482   21.9671 N   0  0  0  0  0  0  0  0  0  0  0  0
   13.3857  -18.6752   21.3939 C   0  0  0  0  0  0  0  0  0  0  0  0
   13.1115  -19.8322   21.0076 O   0  0  0  0  0  0  0  0  0  0  0  0
   12.4058  -17.5882   21.2542 C   0  0  0  0  0  0  0  0  0  0  0  0
   11.0607  -17.9863   20.7656 C   0  0  0  0  0  0  0  0  0  0  0  0
   10.0426  -16.8980   20.6951 C   0  0  2  0  0  0  0  0  0  0  0  0
   10.5123  -15.9097   19.7406 N   0  0  0  0  0  0  0  0  0  0  0  0
    9.8699  -16.2002   22.0014 C   0  0  0  0  0  0  0  0  0  0  0  0
   10.5003  -15.1405   22.2274 O   0  0  0  0  0  0  0  0  0  0  0  0
    9.0137  -16.6854   23.0153 N   0  0  0  0  0  0  0  0  0  0  0  0
    8.8002  -16.1393   24.3193 C   0  0  1  0  0  0  0  0  0  0  0  0
    7.4743  -16.5597   24.9760 C   0  0  0  0  0  0  0  0  0  0  0  0
    6.6354  -15.4225   25.3331 C   0  0  0  0  0  0  0  0  0  0  0  0
    5.3287  -15.4001   25.7070 C   0  0  0  0  0  0  0  0  0  0  0  0
    4.9387  -14.1240   25.9631 N   0  0  0  0  0  0  0  0  0  0  0  0
    5.9914  -13.3150   25.7567 C   0  0  0  0  0  0  0  0  0  0  0  0
    6.1164  -11.9275   25.8824 C   0  0  0  0  0  0  0  0  0  0  0  0
    7.3354  -11.3975   25.6001 C   0  0  0  0  0  0  0  0  0  0  0  0
    8.4138  -12.1598   25.2077 C   0  0  0  0  0  0  0  0  0  0  0  0
    8.2721  -13.5170   25.0901 C   0  0  0  0  0  0  0  0  0  0  0  0
    7.0533  -14.0856   25.3674 C   0  0  0  0  0  0  0  0  0  0  0  0
    9.8570  -16.3499   25.2925 C   0  0  0  0  0  0  0  0  0  0  0  0
   10.6714  -17.3082   25.0833 O   0  0  0  0  0  0  0  0  0  0  0  0
   11.1173  -13.5624   28.2286 C   0  0  0  0  0  0  0  0  0  0  0  0
   11.0168  -14.9978   28.6582 C   0  0  1  0  0  0  0  0  0  0  0  0
    9.6763  -15.1911   29.3302 C   0  0  0  0  0  0  0  0  0  0  0  0
   11.0707  -15.8922   27.4719 C   0  0  2  0  0  0  0  0  0  0  0  0
   10.0847  -15.6004   26.4602 N   0  0  0  0  0  0  0  0  0  0  0  0
   10.9003  -17.2950   27.9096 C   0  0  0  0  0  0  0  0  0  0  0  0
   11.9100  -18.0812   28.4429 O   0  0  0  0  0  0  0  0  0  0  0  0
    9.7745  -17.8505   27.8065 O   0  0  0  0  0  0  0  0  0  0  0  0
  2  1  1  0
  3  2  2  0
  4  2  1  0
  5  4  1  0
  6  5  1  0
  6  7  1  6
  8  6  1  0
  8  9  2  0
 10  8  1  0
 11 12  1  1
 11 10  1  0
 13 12  1  0
 13 14  2  0
 15 14  1  0
 16 15  1  0
 17 16  2  0
 18 17  1  0
 19 18  2  0
 19 20  1  0
 20 21  2  0
 21 16  1  0
 21 13  1  0
 22 11  1  0
 23 22  2  0
 25 24  1  6
 26 25  1  0
 27 25  1  0
 27 28  1  6
 28 22  1  0
 29 27  1  0
 29 30  1  0
 31 29  2  0
M  END
$$$$
