WVS.pdb
     RDKit          3D

 28 29  0  0  1  0  0  0  0  0999 V2000
    6.1946  -18.0271   24.4231 N   0  0  0  0  0  0  0  0  0  0  0  0
    6.7085  -16.6925   24.2389 C   0  0  1  0  0  0  0  0  0  0  0  0
    7.4609  -16.2315   25.4305 C   0  0  0  0  0  0  0  0  0  0  0  0
    6.8599  -15.0549   26.1013 C   0  0  0  0  0  0  0  0  0  0  0  0
    5.6080  -14.9565   26.6811 C   0  0  0  0  0  0  0  0  0  0  0  0
    5.4025  -13.7247   27.1582 N   0  0  0  0  0  0  0  0  0  0  0  0
    6.5245  -13.0254   26.8868 C   0  0  0  0  0  0  0  0  0  0  0  0
    6.8635  -11.7000   27.1642 C   0  0  0  0  0  0  0  0  0  0  0  0
    8.0841  -11.1740   26.8055 C   0  0  0  0  0  0  0  0  0  0  0  0
    8.9879  -11.9919   26.1542 C   0  0  0  0  0  0  0  0  0  0  0  0
    8.6897  -13.2977   25.8651 C   0  0  0  0  0  0  0  0  0  0  0  0
    7.4567  -13.7992   26.2358 C   0  0  0  0  0  0  0  0  0  0  0  0
    7.3995  -16.5552   22.9444 C   0  0  0  0  0  0  0  0  0  0  0  0
    8.0264  -17.5572   22.5137 O   0  0  0  0  0  0  0  0  0  0  0  0
    6.4943  -13.5840   20.1818 C   0  0  0  0  0  0  0  0  0  0  0  0
    7.9376  -13.9415   20.3520 C   0  0  2  0  0  0  0  0  0  0  0  0
    8.7408  -13.7427   19.0806 C   0  0  0  0  0  0  0  0  0  0  0  0
    8.1820  -15.3137   20.9144 C   0  0  2  0  0  0  0  0  0  0  0  0
    7.4185  -15.3991   22.1418 N   0  0  0  0  0  0  0  0  0  0  0  0
    9.5678  -15.6868   21.0778 C   0  0  0  0  0  0  0  0  0  0  0  0
   10.1980  -15.0126   21.9754 O   0  0  0  0  0  0  0  0  0  0  0  0
   11.3100  -19.1866   20.6047 O   0  0  0  0  0  0  0  0  0  0  0  0
   12.0613  -18.1889   21.2186 C   0  0  0  0  0  0  0  0  0  0  0  0
   11.7328  -16.8187   20.6644 C   0  0  2  0  0  0  0  0  0  0  0  0
   10.3191  -16.6616   20.4145 N   0  0  0  0  0  0  0  0  0  0  0  0
   12.5116  -16.6458   19.4323 C   0  0  0  0  0  0  0  0  0  0  0  0
   13.8736  -16.7384   19.3284 O   0  0  0  0  0  0  0  0  0  0  0  0
   11.8665  -16.3876   18.3669 O   0  0  0  0  0  0  0  0  0  0  0  0
  2 13  1  0
  2  1  1  1
  3  4  1  0
  3  2  1  0
  4  5  2  0
  4 12  1  0
  5  6  1  0
  6  7  1  0
  7  8  2  0
  8  9  1  0
 10  9  2  0
 11 10  1  0
 12 11  2  0
 12  7  1  0
 13 14  2  0
 16 18  1  0
 16 15  1  6
 17 16  1  0
 19 13  1  0
 18 19  1  1
 20 18  1  0
 20 21  2  0
 22 23  1  0
 24 23  1  6
 24 25  1  0
 24 26  1  0
 25 20  1  0
 26 27  1  0
 28 26  2  0
M  END
$$$$
