WVS.pdb
     RDKit          3D

 28 29  0  0  1  0  0  0  0  0999 V2000
    6.3746  -16.9612   24.9966 N   0  0  0  0  0  0  0  0  0  0  0  0
    7.2186  -15.9219   24.4611 C   0  0  1  0  0  0  0  0  0  0  0  0
    8.4079  -15.6941   25.3168 C   0  0  0  0  0  0  0  0  0  0  0  0
    8.1462  -14.8265   26.4892 C   0  0  0  0  0  0  0  0  0  0  0  0
    8.4548  -15.0751   27.8143 C   0  0  0  0  0  0  0  0  0  0  0  0
    8.0329  -14.0749   28.5945 N   0  0  0  0  0  0  0  0  0  0  0  0
    7.4508  -13.1773   27.7717 C   0  0  0  0  0  0  0  0  0  0  0  0
    6.8491  -11.9471   28.0421 C   0  0  0  0  0  0  0  0  0  0  0  0
    6.3150  -11.1664   27.0419 C   0  0  0  0  0  0  0  0  0  0  0  0
    6.3839  -11.6255   25.7402 C   0  0  0  0  0  0  0  0  0  0  0  0
    6.9668  -12.8280   25.4372 C   0  0  0  0  0  0  0  0  0  0  0  0
    7.4939  -13.5917   26.4610 C   0  0  0  0  0  0  0  0  0  0  0  0
    7.4841  -16.1294   23.0263 C   0  0  0  0  0  0  0  0  0  0  0  0
    7.3643  -17.2988   22.5786 O   0  0  0  0  0  0  0  0  0  0  0  0
    9.0704  -13.1132   20.2979 C   0  0  0  0  0  0  0  0  0  0  0  0
    7.9933  -14.1027   19.9809 C   0  0  2  0  0  0  0  0  0  0  0  0
    6.6016  -13.5250   20.1561 C   0  0  0  0  0  0  0  0  0  0  0  0
    8.1101  -15.4122   20.7094 C   0  0  2  0  0  0  0  0  0  0  0  0
    7.8585  -15.1312   22.1073 N   0  0  0  0  0  0  0  0  0  0  0  0
    9.3337  -16.1467   20.4866 C   0  0  0  0  0  0  0  0  0  0  0  0
   10.2837  -15.8590   21.3064 O   0  0  0  0  0  0  0  0  0  0  0  0
   10.0262  -19.9392   19.9241 O   0  0  0  0  0  0  0  0  0  0  0  0
   10.8343  -19.2043   19.0618 C   0  0  0  0  0  0  0  0  0  0  0  0
   10.9316  -17.7537   19.4846 C   0  0  2  0  0  0  0  0  0  0  0  0
    9.6371  -17.1146   19.5244 N   0  0  0  0  0  0  0  0  0  0  0  0
   11.8270  -17.0797   18.5369 C   0  0  0  0  0  0  0  0  0  0  0  0
   13.1410  -17.3948   18.3169 O   0  0  0  0  0  0  0  0  0  0  0  0
   11.3414  -16.1188   17.8595 O   0  0  0  0  0  0  0  0  0  0  0  0
  2 13  1  0
  2  1  1  1
  3  4  1  0
  3  2  1  0
  4  5  2  0
  4 12  1  0
  5  6  1  0
  6  7  1  0
  7  8  2  0
  8  9  1  0
 10  9  2  0
 11 10  1  0
 12 11  2  0
 12  7  1  0
 13 14  2  0
 16 18  1  0
 16 15  1  1
 17 16  1  0
 19 13  1  0
 18 19  1  1
 20 18  1  0
 20 21  2  0
 22 23  1  0
 24 23  1  6
 24 25  1  0
 24 26  1  0
 25 20  1  0
 26 27  1  0
 28 26  2  0
M  END
$$$$
