WVS.pdb
     RDKit          3D

 28 29  0  0  1  0  0  0  0  0999 V2000
    6.4676  -18.3815   25.2814 N   0  0  0  0  0  0  0  0  0  0  0  0
    6.8104  -17.0479   24.8534 C   0  0  1  0  0  0  0  0  0  0  0  0
    7.4397  -16.2715   25.9488 C   0  0  0  0  0  0  0  0  0  0  0  0
    6.7198  -15.0216   26.2884 C   0  0  0  0  0  0  0  0  0  0  0  0
    5.3532  -14.8257   26.3721 C   0  0  0  0  0  0  0  0  0  0  0  0
    5.0747  -13.5526   26.6705 N   0  0  0  0  0  0  0  0  0  0  0  0
    6.2641  -12.9244   26.7807 C   0  0  0  0  0  0  0  0  0  0  0  0
    6.5705  -11.5966   27.0835 C   0  0  0  0  0  0  0  0  0  0  0  0
    7.8713  -11.1520   27.1579 C   0  0  0  0  0  0  0  0  0  0  0  0
    8.8905  -12.0557   26.9243 C   0  0  0  0  0  0  0  0  0  0  0  0
    8.6276  -13.3666   26.6242 C   0  0  0  0  0  0  0  0  0  0  0  0
    7.3126  -13.7853   26.5551 C   0  0  0  0  0  0  0  0  0  0  0  0
    7.5371  -17.0637   23.5713 C   0  0  0  0  0  0  0  0  0  0  0  0
    8.1278  -18.1281   23.2538 O   0  0  0  0  0  0  0  0  0  0  0  0
    8.5985  -13.5768   21.0751 C   0  0  0  0  0  0  0  0  0  0  0  0
    8.0058  -14.8717   20.6149 C   0  0  2  0  0  0  0  0  0  0  0  0
    6.4978  -14.8019   20.4661 C   0  0  0  0  0  0  0  0  0  0  0  0
    8.3941  -16.0674   21.4389 C   0  0  2  0  0  0  0  0  0  0  0  0
    7.6275  -15.9908   22.6649 N   0  0  0  0  0  0  0  0  0  0  0  0
    9.8104  -16.2422   21.6619 C   0  0  0  0  0  0  0  0  0  0  0  0
   10.3044  -15.4757   22.5705 O   0  0  0  0  0  0  0  0  0  0  0  0
   11.9631  -19.5069   21.4452 O   0  0  0  0  0  0  0  0  0  0  0  0
   12.5402  -18.3991   22.0588 C   0  0  0  0  0  0  0  0  0  0  0  0
   12.1171  -17.1063   21.3939 C   0  0  2  0  0  0  0  0  0  0  0  0
   10.7156  -17.1114   21.0456 N   0  0  0  0  0  0  0  0  0  0  0  0
   12.9586  -16.9291   20.2044 C   0  0  0  0  0  0  0  0  0  0  0  0
   12.5068  -16.6853   18.9352 O   0  0  0  0  0  0  0  0  0  0  0  0
   14.2180  -17.0082   20.3648 O   0  0  0  0  0  0  0  0  0  0  0  0
  2 13  1  0
  2  1  1  1
  3  4  1  0
  3  2  1  0
  4  5  2  0
  4 12  1  0
  5  6  1  0
  6  7  1  0
  7  8  2  0
  8  9  1  0
 10  9  2  0
 11 10  1  0
 12 11  2  0
 12  7  1  0
 13 14  2  0
 16 18  1  0
 16 15  1  1
 17 16  1  0
 19 13  1  0
 18 19  1  1
 20 18  1  0
 20 21  2  0
 22 23  1  0
 24 23  1  6
 24 25  1  0
 24 26  1  0
 25 20  1  0
 26 27  1  0
 28 26  2  0
M  END
$$$$
