WVS.pdb
     RDKit          3D

 28 29  0  0  1  0  0  0  0  0999 V2000
    6.4624  -17.2057   24.8601 N   0  0  0  0  0  0  0  0  0  0  0  0
    7.1833  -16.0728   24.3346 C   0  0  1  0  0  0  0  0  0  0  0  0
    8.3310  -15.7108   25.2007 C   0  0  0  0  0  0  0  0  0  0  0  0
    7.9430  -15.0208   26.4534 C   0  0  0  0  0  0  0  0  0  0  0  0
    7.8577  -15.5566   27.7256 C   0  0  0  0  0  0  0  0  0  0  0  0
    7.4402  -14.6359   28.6003 N   0  0  0  0  0  0  0  0  0  0  0  0
    7.2560  -13.5020   27.8919 C   0  0  0  0  0  0  0  0  0  0  0  0
    6.8374  -12.2324   28.2938 C   0  0  0  0  0  0  0  0  0  0  0  0
    6.7224  -11.1909   27.4009 C   0  0  0  0  0  0  0  0  0  0  0  0
    7.0333  -11.4233   26.0745 C   0  0  0  0  0  0  0  0  0  0  0  0
    7.4471  -12.6565   25.6436 C   0  0  0  0  0  0  0  0  0  0  0  0
    7.5526  -13.6840   26.5613 C   0  0  0  0  0  0  0  0  0  0  0  0
    7.4824  -16.2424   22.9014 C   0  0  0  0  0  0  0  0  0  0  0  0
    7.4518  -17.4115   22.4380 O   0  0  0  0  0  0  0  0  0  0  0  0
    8.9891  -13.1324   20.1586 C   0  0  0  0  0  0  0  0  0  0  0  0
    7.9207  -14.1454   19.8900 C   0  0  2  0  0  0  0  0  0  0  0  0
    6.5264  -13.6005   20.1350 C   0  0  0  0  0  0  0  0  0  0  0  0
    8.1027  -15.4543   20.6061 C   0  0  2  0  0  0  0  0  0  0  0  0
    7.7979  -15.2084   22.0001 N   0  0  0  0  0  0  0  0  0  0  0  0
    9.3763  -16.1061   20.4073 C   0  0  0  0  0  0  0  0  0  0  0  0
   10.3165  -15.6831   21.1782 O   0  0  0  0  0  0  0  0  0  0  0  0
   10.1453  -19.3695   18.0632 O   0  0  0  0  0  0  0  0  0  0  0  0
   11.0590  -19.1393   19.0874 C   0  0  0  0  0  0  0  0  0  0  0  0
   11.0637  -17.6879   19.5186 C   0  0  2  0  0  0  0  0  0  0  0  0
    9.7366  -17.1183   19.5127 N   0  0  0  0  0  0  0  0  0  0  0  0
   11.9563  -16.9624   18.6068 C   0  0  0  0  0  0  0  0  0  0  0  0
   13.2829  -17.2331   18.4039 O   0  0  0  0  0  0  0  0  0  0  0  0
   11.4553  -15.9978   17.9462 O   0  0  0  0  0  0  0  0  0  0  0  0
  2 13  1  0
  2  1  1  1
  3  4  1  0
  3  2  1  0
  4  5  2  0
  4 12  1  0
  5  6  1  0
  6  7  1  0
  7  8  2  0
  8  9  1  0
 10  9  2  0
 11 10  1  0
 12 11  2  0
 12  7  1  0
 13 14  2  0
 16 18  1  0
 16 15  1  1
 17 16  1  0
 19 13  1  0
 18 19  1  1
 20 18  1  0
 20 21  2  0
 22 23  1  0
 24 23  1  6
 24 25  1  0
 24 26  1  0
 25 20  1  0
 26 27  1  0
 28 26  2  0
M  END
$$$$
