WVS.pdb
     RDKit          3D

 28 29  0  0  1  0  0  0  0  0999 V2000
    6.5953  -16.9757   25.4015 N   0  0  0  0  0  0  0  0  0  0  0  0
    7.3438  -15.9226   24.7610 C   0  0  1  0  0  0  0  0  0  0  0  0
    8.5260  -15.5307   25.5656 C   0  0  0  0  0  0  0  0  0  0  0  0
    8.2131  -14.6062   26.6806 C   0  0  0  0  0  0  0  0  0  0  0  0
    8.4157  -14.8097   28.0335 C   0  0  0  0  0  0  0  0  0  0  0  0
    7.9765  -13.7636   28.7407 N   0  0  0  0  0  0  0  0  0  0  0  0
    7.4897  -12.8816   27.8427 C   0  0  0  0  0  0  0  0  0  0  0  0
    6.9168  -11.6210   28.0196 C   0  0  0  0  0  0  0  0  0  0  0  0
    6.4861  -10.8647   26.9529 C   0  0  0  0  0  0  0  0  0  0  0  0
    6.6316  -11.3800   25.6788 C   0  0  0  0  0  0  0  0  0  0  0  0
    7.1891  -12.6137   25.4670 C   0  0  0  0  0  0  0  0  0  0  0  0
    7.6117  -13.3517   26.5560 C   0  0  0  0  0  0  0  0  0  0  0  0
    7.5994  -16.2294   23.3424 C   0  0  0  0  0  0  0  0  0  0  0  0
    7.5209  -17.4337   22.9873 O   0  0  0  0  0  0  0  0  0  0  0  0
    8.8230  -13.3245   20.2814 C   0  0  0  0  0  0  0  0  0  0  0  0
    7.8884  -14.4824   20.1210 C   0  0  2  0  0  0  0  0  0  0  0  0
    6.4347  -14.0865   20.2977 C   0  0  0  0  0  0  0  0  0  0  0  0
    8.2126  -15.6738   20.9781 C   0  0  2  0  0  0  0  0  0  0  0  0
    7.9223  -15.2912   22.3441 N   0  0  0  0  0  0  0  0  0  0  0  0
    9.5366  -16.2258   20.8097 C   0  0  0  0  0  0  0  0  0  0  0  0
   10.4762  -15.5278   21.3456 O   0  0  0  0  0  0  0  0  0  0  0  0
   10.4328  -20.0386   19.9327 O   0  0  0  0  0  0  0  0  0  0  0  0
   11.4622  -19.2914   20.4973 C   0  0  0  0  0  0  0  0  0  0  0  0
   11.3264  -17.8180   20.1764 C   0  0  2  0  0  0  0  0  0  0  0  0
    9.9461  -17.3937   20.1592 N   0  0  0  0  0  0  0  0  0  0  0  0
   11.9671  -17.5917   18.8753 C   0  0  0  0  0  0  0  0  0  0  0  0
   11.3601  -17.0660   17.7665 O   0  0  0  0  0  0  0  0  0  0  0  0
   13.1935  -17.9112   18.7665 O   0  0  0  0  0  0  0  0  0  0  0  0
  2 13  1  0
  2  1  1  1
  3  4  1  0
  3  2  1  0
  4  5  2  0
  4 12  1  0
  5  6  1  0
  6  7  1  0
  7  8  2  0
  8  9  1  0
 10  9  2  0
 11 10  1  0
 12 11  2  0
 12  7  1  0
 13 14  2  0
 16 18  1  0
 16 15  1  1
 17 16  1  0
 19 13  1  0
 18 19  1  1
 20 18  1  0
 20 21  2  0
 22 23  1  0
 24 23  1  6
 24 25  1  0
 24 26  1  0
 25 20  1  0
 26 27  1  0
 28 26  2  0
M  END
$$$$
