WVS.pdb
     RDKit          3D

 28 29  0  0  1  0  0  0  0  0999 V2000
    6.5044  -16.5317   24.9168 N   0  0  0  0  0  0  0  0  0  0  0  0
    7.2724  -15.4982   24.2679 C   0  0  1  0  0  0  0  0  0  0  0  0
    8.5139  -15.1924   25.0187 C   0  0  0  0  0  0  0  0  0  0  0  0
    8.2845  -14.4492   26.2800 C   0  0  0  0  0  0  0  0  0  0  0  0
    8.6884  -14.7984   27.5559 C   0  0  0  0  0  0  0  0  0  0  0  0
    8.2680  -13.8970   28.4491 N   0  0  0  0  0  0  0  0  0  0  0  0
    7.5913  -12.9626   27.7488 C   0  0  0  0  0  0  0  0  0  0  0  0
    6.9479  -11.7965   28.1672 C   0  0  0  0  0  0  0  0  0  0  0  0
    6.3135  -10.9597   27.2770 C   0  0  0  0  0  0  0  0  0  0  0  0
    6.3224  -11.2956   25.9365 C   0  0  0  0  0  0  0  0  0  0  0  0
    6.9436  -12.4322   25.4893 C   0  0  0  0  0  0  0  0  0  0  0  0
    7.5716  -13.2546   26.4050 C   0  0  0  0  0  0  0  0  0  0  0  0
    7.4374  -15.7726   22.8292 C   0  0  0  0  0  0  0  0  0  0  0  0
    7.2174  -16.9467   22.4348 O   0  0  0  0  0  0  0  0  0  0  0  0
    6.8467  -12.9980   20.0414 C   0  0  0  0  0  0  0  0  0  0  0  0
    7.9762  -13.9107   19.6794 C   0  0  2  0  0  0  0  0  0  0  0  0
    8.0360  -14.2020   18.1919 C   0  0  0  0  0  0  0  0  0  0  0  0
    8.0241  -15.1917   20.4643 C   0  0  2  0  0  0  0  0  0  0  0  0
    7.8180  -14.8337   21.8521 N   0  0  0  0  0  0  0  0  0  0  0  0
    9.1942  -16.0122   20.2548 C   0  0  0  0  0  0  0  0  0  0  0  0
   10.2642  -15.5656   20.8141 O   0  0  0  0  0  0  0  0  0  0  0  0
    9.2834  -19.8475   19.0076 O   0  0  0  0  0  0  0  0  0  0  0  0
   10.4496  -19.3915   19.6150 C   0  0  0  0  0  0  0  0  0  0  0  0
   10.6062  -17.8923   19.4731 C   0  0  2  0  0  0  0  0  0  0  0  0
    9.3367  -17.2074   19.5436 N   0  0  0  0  0  0  0  0  0  0  0  0
   11.2742  -17.6406   18.1906 C   0  0  0  0  0  0  0  0  0  0  0  0
   12.5138  -18.0979   17.8321 O   0  0  0  0  0  0  0  0  0  0  0  0
   10.6481  -16.9363   17.3362 O   0  0  0  0  0  0  0  0  0  0  0  0
  2 13  1  0
  2  1  1  1
  3  4  1  0
  3  2  1  0
  4  5  2  0
  4 12  1  0
  5  6  1  0
  6  7  1  0
  7  8  2  0
  8  9  1  0
 10  9  2  0
 11 10  1  0
 12 11  2  0
 12  7  1  0
 13 14  2  0
 16 18  1  0
 16 15  1  6
 17 16  1  0
 19 13  1  0
 18 19  1  1
 20 18  1  0
 20 21  2  0
 22 23  1  0
 24 23  1  6
 24 25  1  0
 24 26  1  0
 25 20  1  0
 26 27  1  0
 28 26  2  0
M  END
$$$$
