WVS.pdb
     RDKit          3D

 28 29  0  0  1  0  0  0  0  0999 V2000
    6.7498  -17.4452   25.6938 N   0  0  0  0  0  0  0  0  0  0  0  0
    7.3628  -16.3053   25.0580 C   0  0  1  0  0  0  0  0  0  0  0  0
    8.6450  -15.9449   25.7096 C   0  0  0  0  0  0  0  0  0  0  0  0
    8.5197  -14.8798   26.7321 C   0  0  0  0  0  0  0  0  0  0  0  0
    9.0322  -14.8725   28.0167 C   0  0  0  0  0  0  0  0  0  0  0  0
    8.6845  -13.7528   28.6590 N   0  0  0  0  0  0  0  0  0  0  0  0
    7.9461  -13.0343   27.7873 C   0  0  0  0  0  0  0  0  0  0  0  0
    7.3347  -11.7865   27.9205 C   0  0  0  0  0  0  0  0  0  0  0  0
    6.6228  -11.2148   26.8902 C   0  0  0  0  0  0  0  0  0  0  0  0
    6.5196  -11.9061   25.6979 C   0  0  0  0  0  0  0  0  0  0  0  0
    7.1063  -13.1330   25.5309 C   0  0  0  0  0  0  0  0  0  0  0  0
    7.8139  -13.6838   26.5822 C   0  0  0  0  0  0  0  0  0  0  0  0
    7.4033  -16.4627   23.5932 C   0  0  0  0  0  0  0  0  0  0  0  0
    7.0476  -17.5728   23.1201 O   0  0  0  0  0  0  0  0  0  0  0  0
    6.5973  -13.5466   20.9717 C   0  0  0  0  0  0  0  0  0  0  0  0
    7.7821  -14.3725   20.5794 C   0  0  2  0  0  0  0  0  0  0  0  0
    7.9168  -14.5205   19.0757 C   0  0  0  0  0  0  0  0  0  0  0  0
    7.8571  -15.7181   21.2449 C   0  0  2  0  0  0  0  0  0  0  0  0
    7.8033  -15.4769   22.6716 N   0  0  0  0  0  0  0  0  0  0  0  0
    8.9678  -16.5524   20.8492 C   0  0  0  0  0  0  0  0  0  0  0  0
    9.0710  -16.7334   19.5789 O   0  0  0  0  0  0  0  0  0  0  0  0
   13.1977  -15.8890   20.5314 O   0  0  0  0  0  0  0  0  0  0  0  0
   11.9047  -15.8429   21.0439 C   0  0  0  0  0  0  0  0  0  0  0  0
   11.3222  -17.2292   21.2209 C   0  0  2  0  0  0  0  0  0  0  0  0
    9.9383  -17.1854   21.6315 N   0  0  0  0  0  0  0  0  0  0  0  0
   12.1479  -17.9284   22.2128 C   0  0  0  0  0  0  0  0  0  0  0  0
   11.7528  -18.2814   23.4752 O   0  0  0  0  0  0  0  0  0  0  0  0
   13.3344  -18.2342   21.8714 O   0  0  0  0  0  0  0  0  0  0  0  0
  2 13  1  0
  2  1  1  1
  3  4  1  0
  3  2  1  0
  4  5  2  0
  4 12  1  0
  5  6  1  0
  6  7  1  0
  7  8  2  0
  8  9  1  0
 10  9  2  0
 11 10  1  0
 12 11  2  0
 12  7  1  0
 13 14  2  0
 16 18  1  0
 16 15  1  6
 17 16  1  0
 19 13  1  0
 18 19  1  1
 20 18  1  0
 20 21  2  0
 22 23  1  0
 24 23  1  1
 24 25  1  0
 24 26  1  0
 25 20  1  0
 26 27  1  0
 28 26  2  0
M  END
$$$$
