WVS.pdb
     RDKit          3D

 28 29  0  0  1  0  0  0  0  0999 V2000
    6.5204  -16.6147   25.3119 N   0  0  0  0  0  0  0  0  0  0  0  0
    7.3319  -15.6411   24.6244 C   0  0  1  0  0  0  0  0  0  0  0  0
    8.5408  -15.2914   25.4085 C   0  0  0  0  0  0  0  0  0  0  0  0
    8.2677  -14.4197   26.5753 C   0  0  0  0  0  0  0  0  0  0  0  0
    8.6175  -14.6357   27.8958 C   0  0  0  0  0  0  0  0  0  0  0  0
    8.1695  -13.6441   28.6726 N   0  0  0  0  0  0  0  0  0  0  0  0
    7.5293  -12.7849   27.8521 C   0  0  0  0  0  0  0  0  0  0  0  0
    6.8797  -11.5788   28.1205 C   0  0  0  0  0  0  0  0  0  0  0  0
    6.2885  -10.8367   27.1231 C   0  0  0  0  0  0  0  0  0  0  0  0
    6.3479  -11.3107   25.8262 C   0  0  0  0  0  0  0  0  0  0  0  0
    6.9766  -12.4904   25.5253 C   0  0  0  0  0  0  0  0  0  0  0  0
    7.5606  -13.2155   26.5463 C   0  0  0  0  0  0  0  0  0  0  0  0
    7.5604  -16.0254   23.2200 C   0  0  0  0  0  0  0  0  0  0  0  0
    7.3943  -17.2348   22.9164 O   0  0  0  0  0  0  0  0  0  0  0  0
    8.9838  -13.3553   20.0292 C   0  0  0  0  0  0  0  0  0  0  0  0
    7.9471  -14.4302   19.9309 C   0  0  2  0  0  0  0  0  0  0  0  0
    6.5382  -13.8994   20.1167 C   0  0  0  0  0  0  0  0  0  0  0  0
    8.1820  -15.6124   20.8289 C   0  0  2  0  0  0  0  0  0  0  0  0
    7.9469  -15.1560   22.1827 N   0  0  0  0  0  0  0  0  0  0  0  0
    9.4513  -16.2819   20.6651 C   0  0  0  0  0  0  0  0  0  0  0  0
   10.4217  -15.7507   21.3234 O   0  0  0  0  0  0  0  0  0  0  0  0
   10.5625  -19.7600   21.2486 O   0  0  0  0  0  0  0  0  0  0  0  0
   11.2156  -19.3910   20.0764 C   0  0  0  0  0  0  0  0  0  0  0  0
   11.1375  -17.8979   19.8375 C   0  0  2  0  0  0  0  0  0  0  0  0
    9.7801  -17.4098   19.9073 N   0  0  0  0  0  0  0  0  0  0  0  0
   11.7294  -17.6329   18.5208 C   0  0  0  0  0  0  0  0  0  0  0  0
   13.0029  -17.9576   18.1372 O   0  0  0  0  0  0  0  0  0  0  0  0
   10.9965  -17.0509   17.6592 O   0  0  0  0  0  0  0  0  0  0  0  0
  2 13  1  0
  2  1  1  1
  3  4  1  0
  3  2  1  0
  4  5  2  0
  4 12  1  0
  5  6  1  0
  6  7  1  0
  7  8  2  0
  8  9  1  0
 10  9  2  0
 11 10  1  0
 12 11  2  0
 12  7  1  0
 13 14  2  0
 16 18  1  0
 16 15  1  1
 17 16  1  0
 19 13  1  0
 18 19  1  1
 20 18  1  0
 20 21  2  0
 22 23  1  0
 24 23  1  6
 24 25  1  0
 24 26  1  0
 25 20  1  0
 26 27  1  0
 28 26  2  0
M  END
$$$$
