WVS.pdb
     RDKit          3D

 28 29  0  0  1  0  0  0  0  0999 V2000
    6.1439  -17.1367   24.2734 N   0  0  0  0  0  0  0  0  0  0  0  0
    6.9759  -16.0159   23.9117 C   0  0  1  0  0  0  0  0  0  0  0  0
    7.9484  -15.6940   24.9837 C   0  0  0  0  0  0  0  0  0  0  0  0
    7.3709  -14.9132   26.1029 C   0  0  0  0  0  0  0  0  0  0  0  0
    6.6980  -15.3916   27.2125 C   0  0  0  0  0  0  0  0  0  0  0  0
    6.2923  -14.3836   27.9914 N   0  0  0  0  0  0  0  0  0  0  0  0
    6.7047  -13.2511   27.3841 C   0  0  0  0  0  0  0  0  0  0  0  0
    6.5637  -11.9128   27.7555 C   0  0  0  0  0  0  0  0  0  0  0  0
    7.0746  -10.8903   26.9883 C   0  0  0  0  0  0  0  0  0  0  0  0
    7.7428  -11.2124   25.8222 C   0  0  0  0  0  0  0  0  0  0  0  0
    7.9002  -12.5146   25.4259 C   0  0  0  0  0  0  0  0  0  0  0  0
    7.3763  -13.5209   26.2147 C   0  0  0  0  0  0  0  0  0  0  0  0
    7.5350  -16.1750   22.5574 C   0  0  0  0  0  0  0  0  0  0  0  0
    7.9348  -17.3211   22.2270 O   0  0  0  0  0  0  0  0  0  0  0  0
    9.0001  -12.9951   19.9086 C   0  0  0  0  0  0  0  0  0  0  0  0
    8.0768  -14.1056   19.5162 C   0  0  2  0  0  0  0  0  0  0  0  0
    6.6197  -13.6838   19.5293 C   0  0  0  0  0  0  0  0  0  0  0  0
    8.2587  -15.3778   20.2956 C   0  0  2  0  0  0  0  0  0  0  0  0
    7.6597  -15.1555   21.5950 N   0  0  0  0  0  0  0  0  0  0  0  0
    9.6109  -15.8801   20.3696 C   0  0  0  0  0  0  0  0  0  0  0  0
   10.3602  -15.2678   21.2187 O   0  0  0  0  0  0  0  0  0  0  0  0
   10.8577  -19.5106   19.4124 O   0  0  0  0  0  0  0  0  0  0  0  0
   11.7770  -18.7579   20.1371 C   0  0  0  0  0  0  0  0  0  0  0  0
   11.6032  -17.2739   19.8926 C   0  0  2  0  0  0  0  0  0  0  0  0
   10.2212  -16.9219   19.6649 N   0  0  0  0  0  0  0  0  0  0  0  0
   12.4381  -16.9188   18.7387 C   0  0  0  0  0  0  0  0  0  0  0  0
   13.7839  -17.1433   18.6270 O   0  0  0  0  0  0  0  0  0  0  0  0
   11.8625  -16.3532   17.7555 O   0  0  0  0  0  0  0  0  0  0  0  0
  2 13  1  0
  2  1  1  1
  3  4  1  0
  3  2  1  0
  4  5  2  0
  4 12  1  0
  5  6  1  0
  6  7  1  0
  7  8  2  0
  8  9  1  0
 10  9  2  0
 11 10  1  0
 12 11  2  0
 12  7  1  0
 13 14  2  0
 16 18  1  0
 16 15  1  1
 17 16  1  0
 19 13  1  0
 18 19  1  1
 20 18  1  0
 20 21  2  0
 22 23  1  0
 24 23  1  6
 24 25  1  0
 24 26  1  0
 25 20  1  0
 26 27  1  0
 28 26  2  0
M  END
$$$$
