WVS.pdb
     RDKit          3D

 28 29  0  0  1  0  0  0  0  0999 V2000
    6.5753  -16.8507   24.8663 N   0  0  0  0  0  0  0  0  0  0  0  0
    7.3372  -15.7638   24.3029 C   0  0  1  0  0  0  0  0  0  0  0  0
    8.4911  -15.4070   25.1630 C   0  0  0  0  0  0  0  0  0  0  0  0
    8.1175  -14.6675   26.3916 C   0  0  0  0  0  0  0  0  0  0  0  0
    8.2409  -15.0859   27.7041 C   0  0  0  0  0  0  0  0  0  0  0  0
    7.7652  -14.1600   28.5430 N   0  0  0  0  0  0  0  0  0  0  0  0
    7.3340  -13.1405   27.7709 C   0  0  0  0  0  0  0  0  0  0  0  0
    6.7561  -11.9169   28.1137 C   0  0  0  0  0  0  0  0  0  0  0  0
    6.3903  -10.9955   27.1586 C   0  0  0  0  0  0  0  0  0  0  0  0
    6.6073  -11.3037   25.8289 C   0  0  0  0  0  0  0  0  0  0  0  0
    7.1719  -12.4949   25.4551 C   0  0  0  0  0  0  0  0  0  0  0  0
    7.5285  -13.4018   26.4347 C   0  0  0  0  0  0  0  0  0  0  0  0
    7.6393  -15.9987   22.8796 C   0  0  0  0  0  0  0  0  0  0  0  0
    7.6578  -17.1917   22.4809 O   0  0  0  0  0  0  0  0  0  0  0  0
    9.0606  -13.0046   19.9961 C   0  0  0  0  0  0  0  0  0  0  0  0
    7.9947  -14.0298   19.7668 C   0  0  2  0  0  0  0  0  0  0  0  0
    6.5991  -13.4792   19.9909 C   0  0  0  0  0  0  0  0  0  0  0  0
    8.1799  -15.3097   20.5328 C   0  0  2  0  0  0  0  0  0  0  0  0
    7.9075  -15.0031   21.9215 N   0  0  0  0  0  0  0  0  0  0  0  0
    9.4427  -15.9821   20.3344 C   0  0  0  0  0  0  0  0  0  0  0  0
   10.4476  -15.4023   20.8923 O   0  0  0  0  0  0  0  0  0  0  0  0
   10.1326  -19.8643   19.2830 O   0  0  0  0  0  0  0  0  0  0  0  0
   11.1480  -19.1428   19.9036 C   0  0  0  0  0  0  0  0  0  0  0  0
   11.0815  -17.6703   19.5575 C   0  0  2  0  0  0  0  0  0  0  0  0
    9.7338  -17.1573   19.6353 N   0  0  0  0  0  0  0  0  0  0  0  0
   11.6320  -17.5122   18.2060 C   0  0  0  0  0  0  0  0  0  0  0  0
   11.0006  -16.9090   17.1516 O   0  0  0  0  0  0  0  0  0  0  0  0
   12.7976  -17.9753   17.9940 O   0  0  0  0  0  0  0  0  0  0  0  0
  2 13  1  0
  2  1  1  1
  3  4  1  0
  3  2  1  0
  4  5  2  0
  4 12  1  0
  5  6  1  0
  6  7  1  0
  7  8  2  0
  8  9  1  0
 10  9  2  0
 11 10  1  0
 12 11  2  0
 12  7  1  0
 13 14  2  0
 16 18  1  0
 16 15  1  1
 17 16  1  0
 19 13  1  0
 18 19  1  1
 20 18  1  0
 20 21  2  0
 22 23  1  0
 24 23  1  6
 24 25  1  0
 24 26  1  0
 25 20  1  0
 26 27  1  0
 28 26  2  0
M  END
$$$$
