WVS.pdb
     RDKit          3D

 28 29  0  0  1  0  0  0  0  0999 V2000
    6.1879  -18.4235   24.8172 N   0  0  0  0  0  0  0  0  0  0  0  0
    6.6258  -17.0651   24.6119 C   0  0  1  0  0  0  0  0  0  0  0  0
    7.3440  -16.5414   25.7988 C   0  0  0  0  0  0  0  0  0  0  0  0
    6.7909  -15.2701   26.3219 C   0  0  0  0  0  0  0  0  0  0  0  0
    5.4860  -15.0021   26.6940 C   0  0  0  0  0  0  0  0  0  0  0  0
    5.3569  -13.7305   27.0859 N   0  0  0  0  0  0  0  0  0  0  0  0
    6.5814  -13.1755   26.9676 C   0  0  0  0  0  0  0  0  0  0  0  0
    7.0280  -11.8821   27.2442 C   0  0  0  0  0  0  0  0  0  0  0  0
    8.3422  -11.5148   27.0617 C   0  0  0  0  0  0  0  0  0  0  0  0
    9.2316  -12.4624   26.5917 C   0  0  0  0  0  0  0  0  0  0  0  0
    8.8292  -13.7414   26.3092 C   0  0  0  0  0  0  0  0  0  0  0  0
    7.5039  -14.0824   26.5006 C   0  0  0  0  0  0  0  0  0  0  0  0
    7.3152  -16.9110   23.3185 C   0  0  0  0  0  0  0  0  0  0  0  0
    7.8383  -17.9384   22.8152 O   0  0  0  0  0  0  0  0  0  0  0  0
    6.5112  -13.8924   20.5720 C   0  0  0  0  0  0  0  0  0  0  0  0
    7.9470  -14.2424   20.8082 C   0  0  2  0  0  0  0  0  0  0  0  0
    8.8134  -14.0036   19.5861 C   0  0  0  0  0  0  0  0  0  0  0  0
    8.1750  -15.6269   21.3471 C   0  0  2  0  0  0  0  0  0  0  0  0
    7.4389  -15.7124   22.5911 N   0  0  0  0  0  0  0  0  0  0  0  0
    9.5558  -16.0315   21.4726 C   0  0  0  0  0  0  0  0  0  0  0  0
   10.2015  -15.4354   22.4133 O   0  0  0  0  0  0  0  0  0  0  0  0
   11.4849  -19.1702   19.6046 O   0  0  0  0  0  0  0  0  0  0  0  0
   12.0163  -18.7040   20.8034 C   0  0  0  0  0  0  0  0  0  0  0  0
   11.6702  -17.2494   21.0418 C   0  0  2  0  0  0  0  0  0  0  0  0
   10.2883  -16.9652   20.7334 N   0  0  0  0  0  0  0  0  0  0  0  0
   12.5751  -16.4421   20.2147 C   0  0  0  0  0  0  0  0  0  0  0  0
   13.9396  -16.4093   20.3216 O   0  0  0  0  0  0  0  0  0  0  0  0
   12.0473  -15.7084   19.3197 O   0  0  0  0  0  0  0  0  0  0  0  0
  2 13  1  0
  2  1  1  1
  3  4  1  0
  3  2  1  0
  4  5  2  0
  4 12  1  0
  5  6  1  0
  6  7  1  0
  7  8  2  0
  8  9  1  0
 10  9  2  0
 11 10  1  0
 12 11  2  0
 12  7  1  0
 13 14  2  0
 16 18  1  0
 16 15  1  6
 17 16  1  0
 19 13  1  0
 18 19  1  1
 20 18  1  0
 20 21  2  0
 22 23  1  0
 24 23  1  6
 24 25  1  0
 24 26  1  0
 25 20  1  0
 26 27  1  0
 28 26  2  0
M  END
$$$$
