WVS.pdb
     RDKit          3D

 28 29  0  0  1  0  0  0  0  0999 V2000
    6.5191  -16.8531   25.0340 N   0  0  0  0  0  0  0  0  0  0  0  0
    7.1806  -15.7064   24.4625 C   0  0  1  0  0  0  0  0  0  0  0  0
    8.4145  -15.3635   25.2098 C   0  0  0  0  0  0  0  0  0  0  0  0
    8.1697  -14.5867   26.4478 C   0  0  0  0  0  0  0  0  0  0  0  0
    8.5876  -14.8839   27.7323 C   0  0  0  0  0  0  0  0  0  0  0  0
    8.1462  -13.9659   28.5982 N   0  0  0  0  0  0  0  0  0  0  0  0
    7.4420  -13.0730   27.8715 C   0  0  0  0  0  0  0  0  0  0  0  0
    6.7688  -11.9119   28.2555 C   0  0  0  0  0  0  0  0  0  0  0  0
    6.1088  -11.1213   27.3419 C   0  0  0  0  0  0  0  0  0  0  0  0
    6.1218  -11.4997   26.0127 C   0  0  0  0  0  0  0  0  0  0  0  0
    6.7718  -12.6329   25.5992 C   0  0  0  0  0  0  0  0  0  0  0  0
    7.4252  -13.4083   26.5379 C   0  0  0  0  0  0  0  0  0  0  0  0
    7.3250  -15.8403   23.0019 C   0  0  0  0  0  0  0  0  0  0  0  0
    7.3045  -17.0030   22.5223 O   0  0  0  0  0  0  0  0  0  0  0  0
    7.4824  -13.7224   18.5042 C   0  0  0  0  0  0  0  0  0  0  0  0
    7.4513  -13.6730   19.9996 C   0  0  2  0  0  0  0  0  0  0  0  0
    8.3672  -12.6047   20.5663 C   0  0  0  0  0  0  0  0  0  0  0  0
    7.7055  -14.9908   20.6763 C   0  0  2  0  0  0  0  0  0  0  0  0
    7.4815  -14.7787   22.0911 N   0  0  0  0  0  0  0  0  0  0  0  0
    8.9783  -15.6092   20.3870 C   0  0  0  0  0  0  0  0  0  0  0  0
    9.8576  -15.4776   21.3179 O   0  0  0  0  0  0  0  0  0  0  0  0
    9.6433  -19.1513   19.9102 O   0  0  0  0  0  0  0  0  0  0  0  0
   10.6163  -18.2112   20.2359 C   0  0  0  0  0  0  0  0  0  0  0  0
   10.6353  -17.0604   19.2521 C   0  0  2  0  0  0  0  0  0  0  0  0
    9.3935  -16.3232   19.2589 N   0  0  0  0  0  0  0  0  0  0  0  0
   10.9110  -17.6228   17.9247 C   0  0  0  0  0  0  0  0  0  0  0  0
   12.0274  -18.3335   17.5742 O   0  0  0  0  0  0  0  0  0  0  0  0
   10.0373  -17.4348   17.0195 O   0  0  0  0  0  0  0  0  0  0  0  0
  2 13  1  0
  2  1  1  1
  3  4  1  0
  3  2  1  0
  4  5  2  0
  4 12  1  0
  5  6  1  0
  6  7  1  0
  7  8  2  0
  8  9  1  0
 10  9  2  0
 11 10  1  0
 12 11  2  0
 12  7  1  0
 13 14  2  0
 16 18  1  0
 16 15  1  6
 17 16  1  0
 19 13  1  0
 18 19  1  1
 20 18  1  0
 20 21  2  0
 22 23  1  0
 24 23  1  1
 24 25  1  0
 24 26  1  0
 25 20  1  0
 26 27  1  0
 28 26  2  0
M  END
$$$$
