WVS.pdb
     RDKit          3D

 28 29  0  0  1  0  0  0  0  0999 V2000
    6.3068  -17.2857   25.3777 N   0  0  0  0  0  0  0  0  0  0  0  0
    7.1446  -16.2036   24.9234 C   0  0  1  0  0  0  0  0  0  0  0  0
    8.3580  -16.0670   25.7645 C   0  0  0  0  0  0  0  0  0  0  0  0
    8.2686  -14.9875   26.7757 C   0  0  0  0  0  0  0  0  0  0  0  0
    8.7474  -14.9989   28.0733 C   0  0  0  0  0  0  0  0  0  0  0  0
    8.4490  -13.8553   28.6982 N   0  0  0  0  0  0  0  0  0  0  0  0
    7.7765  -13.1028   27.8022 C   0  0  0  0  0  0  0  0  0  0  0  0
    7.2355  -11.8205   27.9103 C   0  0  0  0  0  0  0  0  0  0  0  0
    6.5851  -11.2173   26.8576 C   0  0  0  0  0  0  0  0  0  0  0  0
    6.4726  -11.9118   25.6680 C   0  0  0  0  0  0  0  0  0  0  0  0
    6.9909  -13.1722   25.5253 C   0  0  0  0  0  0  0  0  0  0  0  0
    7.6379  -13.7539   26.5987 C   0  0  0  0  0  0  0  0  0  0  0  0
    7.3701  -16.2711   23.4685 C   0  0  0  0  0  0  0  0  0  0  0  0
    7.1934  -17.3825   22.9063 O   0  0  0  0  0  0  0  0  0  0  0  0
    6.6527  -13.3477   20.7524 C   0  0  0  0  0  0  0  0  0  0  0  0
    7.9911  -14.0037   20.6178 C   0  0  2  0  0  0  0  0  0  0  0  0
    8.4748  -14.0510   19.1809 C   0  0  0  0  0  0  0  0  0  0  0  0
    8.0884  -15.3656   21.2463 C   0  0  2  0  0  0  0  0  0  0  0  0
    7.7644  -15.1980   22.6476 N   0  0  0  0  0  0  0  0  0  0  0  0
    9.3308  -16.0694   21.0285 C   0  0  0  0  0  0  0  0  0  0  0  0
   10.3171  -15.6385   21.7347 O   0  0  0  0  0  0  0  0  0  0  0  0
    9.8791  -19.5725   18.9670 O   0  0  0  0  0  0  0  0  0  0  0  0
   10.8236  -19.2619   19.9408 C   0  0  0  0  0  0  0  0  0  0  0  0
   10.9184  -17.7688   20.1737 C   0  0  2  0  0  0  0  0  0  0  0  0
    9.6190  -17.1386   20.1751 N   0  0  0  0  0  0  0  0  0  0  0  0
   11.7758  -17.2141   19.1193 C   0  0  0  0  0  0  0  0  0  0  0  0
   13.0828  -17.5524   18.8919 O   0  0  0  0  0  0  0  0  0  0  0  0
   11.2612  -16.3431   18.3483 O   0  0  0  0  0  0  0  0  0  0  0  0
  2 13  1  0
  2  1  1  1
  3  4  1  0
  3  2  1  0
  4  5  2  0
  4 12  1  0
  5  6  1  0
  6  7  1  0
  7  8  2  0
  8  9  1  0
 10  9  2  0
 11 10  1  0
 12 11  2  0
 12  7  1  0
 13 14  2  0
 16 18  1  0
 16 15  1  6
 17 16  1  0
 19 13  1  0
 18 19  1  1
 20 18  1  0
 20 21  2  0
 22 23  1  0
 24 23  1  6
 24 25  1  0
 24 26  1  0
 25 20  1  0
 26 27  1  0
 28 26  2  0
M  END
$$$$
