DCP.pdb
     RDKit          3D

 22 22  0  0  1  0  0  0  0  0999 V2000
    9.6385  -15.5227   20.2719 N   0  0  0  0  0  0  0  0  0  0  0  0
    9.4017  -16.3548   21.4760 C   0  0  1  0  0  0  0  0  0  0  0  0
   10.4776  -17.3779   21.4500 C   0  0  0  0  0  0  0  0  0  0  0  0
   10.3429  -18.4637   20.4850 C   0  0  0  0  0  0  0  0  0  0  0  0
    9.6374  -18.2871   19.4634 O   0  0  0  0  0  0  0  0  0  0  0  0
    9.2974  -15.5162   22.6608 C   0  0  0  0  0  0  0  0  0  0  0  0
   10.2609  -14.7438   22.9563 O   0  0  0  0  0  0  0  0  0  0  0  0
   10.9542  -19.6988   20.6260 O   0  0  0  0  0  0  0  0  0  0  0  0
    8.1844  -15.4801   23.5388 N   0  0  0  0  0  0  0  0  0  0  0  0
    8.2561  -14.7571   24.8196 C   0  0  1  0  0  0  0  0  0  0  0  0
    6.8163  -14.4750   25.2100 C   0  0  0  0  0  0  0  0  0  0  0  0
    6.7170  -13.8975   26.9212 S   0  0  0  0  0  0  0  0  0  0  0  0
    8.9019  -15.5617   25.8829 C   0  0  0  0  0  0  0  0  0  0  0  0
    9.0003  -16.8146   25.6461 O   0  0  0  0  0  0  0  0  0  0  0  0
    9.3847  -15.0018   27.0868 N   0  0  0  0  0  0  0  0  0  0  0  0
    8.9737  -13.7949   27.7640 C   0  0  0  0  0  0  0  0  0  0  0  0
   10.1927  -13.3276   28.5286 C   0  0  0  0  0  0  0  0  0  0  0  0
   11.2537  -14.3728   28.3436 C   0  0  0  0  0  0  0  0  0  0  0  0
   10.4384  -15.5775   27.8939 C   0  0  1  0  0  0  0  0  0  0  0  0
    9.8528  -16.2534   29.0672 C   0  0  0  0  0  0  0  0  0  0  0  0
    8.6139  -16.2880   29.2762 O   0  0  0  0  0  0  0  0  0  0  0  0
   10.6468  -16.9008   30.0244 O   0  0  0  0  0  0  0  0  0  0  0  0
  2  1  1  6
  2  3  1  0
  3  4  1  0
  4  8  1  0
  5  4  2  0
  6  2  1  0
  7  6  2  0
  9  6  1  0
 10 13  1  0
 10  9  1  0
 11 12  1  0
 10 11  1  1
 13 15  1  0
 14 13  2  0
 15 16  1  0
 15 19  1  0
 16 17  1  0
 17 18  1  0
 19 20  1  1
 19 18  1  0
 20 22  1  0
 21 20  2  0
M  END
$$$$
