DCP.pdb
     RDKit          3D

 22 22  0  0  1  0  0  0  0  0999 V2000
    9.8006  -17.0604   19.7199 N   0  0  0  0  0  0  0  0  0  0  0  0
   10.1897  -17.2184   21.1420 C   0  0  1  0  0  0  0  0  0  0  0  0
   11.6498  -16.9496   21.1698 C   0  0  0  0  0  0  0  0  0  0  0  0
   12.5140  -17.8828   20.4553 C   0  0  0  0  0  0  0  0  0  0  0  0
   12.6009  -19.0660   20.8615 O   0  0  0  0  0  0  0  0  0  0  0  0
    9.3378  -16.4035   21.9954 C   0  0  0  0  0  0  0  0  0  0  0  0
    9.1633  -15.1800   21.7044 O   0  0  0  0  0  0  0  0  0  0  0  0
   13.2579  -17.5413   19.3378 O   0  0  0  0  0  0  0  0  0  0  0  0
    8.6633  -16.8659   23.1538 N   0  0  0  0  0  0  0  0  0  0  0  0
    7.8719  -15.9436   23.9855 C   0  0  1  0  0  0  0  0  0  0  0  0
    6.6769  -16.7488   24.4635 C   0  0  0  0  0  0  0  0  0  0  0  0
    7.1291  -17.7955   25.8677 S   0  0  0  0  0  0  0  0  0  0  0  0
    8.6319  -15.4536   25.1590 C   0  0  0  0  0  0  0  0  0  0  0  0
    9.8092  -15.9340   25.2958 O   0  0  0  0  0  0  0  0  0  0  0  0
    8.1097  -14.5170   26.0787 N   0  0  0  0  0  0  0  0  0  0  0  0
    6.7676  -13.9969   26.1924 C   0  0  0  0  0  0  0  0  0  0  0  0
    6.9199  -12.6210   26.8030 C   0  0  0  0  0  0  0  0  0  0  0  0
    8.3746  -12.4433   27.1267 C   0  0  0  0  0  0  0  0  0  0  0  0
    8.8783  -13.8802   27.1260 C   0  0  1  0  0  0  0  0  0  0  0  0
    8.5773  -14.5181   28.4215 C   0  0  0  0  0  0  0  0  0  0  0  0
    7.7127  -15.4224   28.5427 O   0  0  0  0  0  0  0  0  0  0  0  0
    9.2405  -14.1523   29.6015 O   0  0  0  0  0  0  0  0  0  0  0  0
  2  1  1  6
  2  3  1  0
  3  4  1  0
  4  8  1  0
  5  4  2  0
  6  2  1  0
  7  6  2  0
  9  6  1  0
 10 13  1  0
 10  9  1  0
 11 12  1  0
 10 11  1  1
 13 15  1  0
 14 13  2  0
 15 16  1  0
 15 19  1  0
 16 17  1  0
 17 18  1  0
 19 20  1  1
 19 18  1  0
 20 22  1  0
 21 20  2  0
M  END
$$$$
