DCP.pdb
     RDKit          3D

 22 22  0  0  1  0  0  0  0  0999 V2000
    7.7269  -15.7977   20.6506 N   0  0  0  0  0  0  0  0  0  0  0  0
    8.9766  -15.8842   21.4438 C   0  0  1  0  0  0  0  0  0  0  0  0
   10.0681  -15.6716   20.4598 C   0  0  0  0  0  0  0  0  0  0  0  0
   10.1018  -16.5548   19.2991 C   0  0  0  0  0  0  0  0  0  0  0  0
   10.1521  -17.7950   19.4783 O   0  0  0  0  0  0  0  0  0  0  0  0
    8.9157  -14.9862   22.5875 C   0  0  0  0  0  0  0  0  0  0  0  0
    9.9054  -14.2287   22.8301 O   0  0  0  0  0  0  0  0  0  0  0  0
   10.0813  -16.1051   17.9890 O   0  0  0  0  0  0  0  0  0  0  0  0
    7.8188  -14.8752   23.4793 N   0  0  0  0  0  0  0  0  0  0  0  0
    7.9874  -14.2721   24.8121 C   0  0  1  0  0  0  0  0  0  0  0  0
    6.5854  -13.9351   25.2875 C   0  0  0  0  0  0  0  0  0  0  0  0
    6.6027  -13.4201   27.0214 S   0  0  0  0  0  0  0  0  0  0  0  0
    8.6186  -15.2050   25.7746 C   0  0  0  0  0  0  0  0  0  0  0  0
    8.5629  -16.4438   25.4621 O   0  0  0  0  0  0  0  0  0  0  0  0
    9.2466  -14.7754   26.9649 N   0  0  0  0  0  0  0  0  0  0  0  0
    9.0133  -13.5820   27.7432 C   0  0  0  0  0  0  0  0  0  0  0  0
   10.3285  -13.2864   28.4303 C   0  0  0  0  0  0  0  0  0  0  0  0
   11.2606  -14.4146   28.0973 C   0  0  0  0  0  0  0  0  0  0  0  0
   10.2951  -15.5025   27.6471 C   0  0  1  0  0  0  0  0  0  0  0  0
    9.7355  -16.1949   28.8233 C   0  0  0  0  0  0  0  0  0  0  0  0
    8.5184  -16.1267   29.1297 O   0  0  0  0  0  0  0  0  0  0  0  0
   10.5315  -16.9746   29.6745 O   0  0  0  0  0  0  0  0  0  0  0  0
  2  1  1  6
  2  3  1  0
  3  4  1  0
  4  8  1  0
  5  4  2  0
  6  2  1  0
  7  6  2  0
  9  6  1  0
 10 13  1  0
 10  9  1  0
 11 12  1  0
 10 11  1  1
 13 15  1  0
 14 13  2  0
 15 16  1  0
 15 19  1  0
 16 17  1  0
 17 18  1  0
 19 20  1  1
 19 18  1  0
 20 22  1  0
 21 20  2  0
M  END
$$$$
