DCP.pdb
     RDKit          3D

 22 22  0  0  1  0  0  0  0  0999 V2000
    4.4129  -20.9377   23.2067 N   0  0  0  0  0  0  0  0  0  0  0  0
    5.5026  -20.2207   22.5016 C   0  0  1  0  0  0  0  0  0  0  0  0
    5.2760  -20.5041   21.0618 C   0  0  0  0  0  0  0  0  0  0  0  0
    5.5774  -21.8518   20.5913 C   0  0  0  0  0  0  0  0  0  0  0  0
    4.8666  -22.3555   19.6891 O   0  0  0  0  0  0  0  0  0  0  0  0
    5.5444  -18.8262   22.9158 C   0  0  0  0  0  0  0  0  0  0  0  0
    4.7043  -18.0113   22.4234 O   0  0  0  0  0  0  0  0  0  0  0  0
    6.6156  -22.6249   21.0845 O   0  0  0  0  0  0  0  0  0  0  0  0
    6.4626  -18.2798   23.8481 N   0  0  0  0  0  0  0  0  0  0  0  0
    6.8282  -16.8541   23.8010 C   0  0  1  0  0  0  0  0  0  0  0  0
    7.1411  -16.4657   25.2350 C   0  0  0  0  0  0  0  0  0  0  0  0
    7.8171  -14.7898   25.3125 S   0  0  0  0  0  0  0  0  0  0  0  0
    8.0206  -16.6081   22.9568 C   0  0  0  0  0  0  0  0  0  0  0  0
    8.8170  -17.5995   22.8217 O   0  0  0  0  0  0  0  0  0  0  0  0
    8.2798  -15.3676   22.3325 N   0  0  0  0  0  0  0  0  0  0  0  0
    7.6350  -14.0911   22.5306 C   0  0  0  0  0  0  0  0  0  0  0  0
    7.7850  -13.3565   21.2165 C   0  0  0  0  0  0  0  0  0  0  0  0
    8.6292  -14.2198   20.3252 C   0  0  0  0  0  0  0  0  0  0  0  0
    9.2968  -15.1530   21.3261 C   0  0  1  0  0  0  0  0  0  0  0  0
   10.4639  -14.4857   21.9332 C   0  0  0  0  0  0  0  0  0  0  0  0
   10.4763  -14.1084   23.1321 O   0  0  0  0  0  0  0  0  0  0  0  0
   11.6353  -14.2307   21.2060 O   0  0  0  0  0  0  0  0  0  0  0  0
  2  1  1  1
  2  3  1  0
  3  4  1  0
  4  8  1  0
  5  4  2  0
  6  2  1  0
  7  6  2  0
  9  6  1  0
 10 13  1  0
 10  9  1  0
 11 12  1  0
 10 11  1  1
 13 15  1  0
 14 13  2  0
 15 16  1  0
 15 19  1  0
 16 17  1  0
 17 18  1  0
 19 20  1  1
 19 18  1  0
 20 22  1  0
 21 20  2  0
M  END
$$$$
