DCP.pdb
     RDKit          3D

 22 22  0  0  1  0  0  0  0  0999 V2000
    9.0558  -15.1385   20.2529 N   0  0  0  0  0  0  0  0  0  0  0  0
    8.9921  -16.0427   21.4264 C   0  0  1  0  0  0  0  0  0  0  0  0
   10.0910  -17.0188   21.2156 C   0  0  0  0  0  0  0  0  0  0  0  0
    9.9332  -17.9766   20.1265 C   0  0  0  0  0  0  0  0  0  0  0  0
    8.8224  -18.5351   19.9624 O   0  0  0  0  0  0  0  0  0  0  0  0
    9.0015  -15.2734   22.6617 C   0  0  0  0  0  0  0  0  0  0  0  0
   10.0632  -14.6653   23.0014 O   0  0  0  0  0  0  0  0  0  0  0  0
   10.9478  -18.3155   19.2465 O   0  0  0  0  0  0  0  0  0  0  0  0
    7.9003  -15.1348   23.5442 N   0  0  0  0  0  0  0  0  0  0  0  0
    8.0559  -14.4653   24.8466 C   0  0  1  0  0  0  0  0  0  0  0  0
    6.6531  -14.0703   25.2724 C   0  0  0  0  0  0  0  0  0  0  0  0
    6.6328  -13.5425   27.0023 S   0  0  0  0  0  0  0  0  0  0  0  0
    8.6437  -15.3599   25.8708 C   0  0  0  0  0  0  0  0  0  0  0  0
    8.5912  -16.6106   25.6090 O   0  0  0  0  0  0  0  0  0  0  0  0
    9.2292  -14.8837   27.0651 N   0  0  0  0  0  0  0  0  0  0  0  0
    8.9648  -13.6638   27.7906 C   0  0  0  0  0  0  0  0  0  0  0  0
   10.2547  -13.3363   28.5103 C   0  0  0  0  0  0  0  0  0  0  0  0
   11.2022  -14.4709   28.2507 C   0  0  0  0  0  0  0  0  0  0  0  0
   10.2569  -15.5796   27.8085 C   0  0  1  0  0  0  0  0  0  0  0  0
    9.6607  -16.2315   28.9898 C   0  0  0  0  0  0  0  0  0  0  0  0
    8.4324  -16.1648   29.2483 O   0  0  0  0  0  0  0  0  0  0  0  0
   10.4318  -16.9683   29.9000 O   0  0  0  0  0  0  0  0  0  0  0  0
  2  1  1  6
  2  3  1  0
  3  4  1  0
  4  8  1  0
  5  4  2  0
  6  2  1  0
  7  6  2  0
  9  6  1  0
 10 13  1  0
 10  9  1  0
 11 12  1  0
 10 11  1  1
 13 15  1  0
 14 13  2  0
 15 16  1  0
 15 19  1  0
 16 17  1  0
 17 18  1  0
 19 20  1  1
 19 18  1  0
 20 22  1  0
 21 20  2  0
M  END
$$$$
