DCP.pdb
     RDKit          3D

 22 22  0  0  1  0  0  0  0  0999 V2000
    8.8148  -15.0522   20.2345 N   0  0  0  0  0  0  0  0  0  0  0  0
    8.7510  -15.9077   21.4439 C   0  0  1  0  0  0  0  0  0  0  0  0
    9.8265  -16.9142   21.2559 C   0  0  0  0  0  0  0  0  0  0  0  0
    9.6562  -17.8790   20.1750 C   0  0  0  0  0  0  0  0  0  0  0  0
    8.6702  -18.6536   20.1993 O   0  0  0  0  0  0  0  0  0  0  0  0
    8.7953  -15.0906   22.6473 C   0  0  0  0  0  0  0  0  0  0  0  0
    9.8478  -14.4284   22.9046 O   0  0  0  0  0  0  0  0  0  0  0  0
   10.5276  -17.9976   19.1048 O   0  0  0  0  0  0  0  0  0  0  0  0
    7.7385  -14.9606   23.5839 N   0  0  0  0  0  0  0  0  0  0  0  0
    7.9645  -14.3279   24.8943 C   0  0  1  0  0  0  0  0  0  0  0  0
    6.5828  -14.0098   25.4372 C   0  0  0  0  0  0  0  0  0  0  0  0
    6.6762  -13.5023   27.1708 S   0  0  0  0  0  0  0  0  0  0  0  0
    8.6653  -15.2285   25.8391 C   0  0  0  0  0  0  0  0  0  0  0  0
    8.6745  -16.4668   25.5195 O   0  0  0  0  0  0  0  0  0  0  0  0
    9.2894  -14.7705   27.0208 N   0  0  0  0  0  0  0  0  0  0  0  0
    9.0729  -13.5460   27.7543 C   0  0  0  0  0  0  0  0  0  0  0  0
   10.3866  -13.2536   28.4456 C   0  0  0  0  0  0  0  0  0  0  0  0
   11.2983  -14.4117   28.1628 C   0  0  0  0  0  0  0  0  0  0  0  0
   10.3151  -15.4946   27.7398 C   0  0  1  0  0  0  0  0  0  0  0  0
    9.7286  -16.1337   28.9330 C   0  0  0  0  0  0  0  0  0  0  0  0
   10.3730  -16.2860   30.0013 O   0  0  0  0  0  0  0  0  0  0  0  0
    8.4107  -16.6121   28.9473 O   0  0  0  0  0  0  0  0  0  0  0  0
  2  1  1  6
  2  3  1  0
  3  4  1  0
  4  8  1  0
  5  4  2  0
  6  2  1  0
  7  6  2  0
  9  6  1  0
 10 13  1  0
 10  9  1  0
 11 12  1  0
 10 11  1  1
 13 15  1  0
 14 13  2  0
 15 16  1  0
 15 19  1  0
 16 17  1  0
 17 18  1  0
 19 20  1  1
 19 18  1  0
 20 22  1  0
 21 20  2  0
M  END
$$$$
