DCP.pdb
     RDKit          3D

 22 22  0  0  1  0  0  0  0  0999 V2000
   10.9802  -16.6842   20.1956 N   0  0  0  0  0  0  0  0  0  0  0  0
   11.1631  -17.3056   21.5294 C   0  0  1  0  0  0  0  0  0  0  0  0
   12.5856  -17.7302   21.5603 C   0  0  0  0  0  0  0  0  0  0  0  0
   13.0554  -18.5704   20.4641 C   0  0  0  0  0  0  0  0  0  0  0  0
   12.5303  -19.6961   20.2908 O   0  0  0  0  0  0  0  0  0  0  0  0
   10.7055  -16.4048   22.5768 C   0  0  0  0  0  0  0  0  0  0  0  0
   11.4214  -15.4021   22.8839 O   0  0  0  0  0  0  0  0  0  0  0  0
   14.0611  -18.1997   19.5866 O   0  0  0  0  0  0  0  0  0  0  0  0
    9.4967  -16.5475   23.3043 N   0  0  0  0  0  0  0  0  0  0  0  0
    9.2164  -15.7012   24.4764 C   0  0  1  0  0  0  0  0  0  0  0  0
    7.7197  -15.8080   24.7079 C   0  0  0  0  0  0  0  0  0  0  0  0
    6.8038  -15.2314   23.2586 S   0  0  0  0  0  0  0  0  0  0  0  0
    9.9324  -16.1649   25.6876 C   0  0  0  0  0  0  0  0  0  0  0  0
   10.6661  -17.2010   25.5341 O   0  0  0  0  0  0  0  0  0  0  0  0
    9.8262  -15.5194   26.9398 N   0  0  0  0  0  0  0  0  0  0  0  0
    8.9196  -14.4763   27.3574 C   0  0  0  0  0  0  0  0  0  0  0  0
    9.6517  -13.7177   28.4426 C   0  0  0  0  0  0  0  0  0  0  0  0
   10.9428  -14.4421   28.6895 C   0  0  0  0  0  0  0  0  0  0  0  0
   10.6598  -15.8109   28.0857 C   0  0  1  0  0  0  0  0  0  0  0  0
    9.9091  -16.6386   29.0488 C   0  0  0  0  0  0  0  0  0  0  0  0
    8.6898  -16.9058   28.9010 O   0  0  0  0  0  0  0  0  0  0  0  0
   10.5133  -17.1797   30.1925 O   0  0  0  0  0  0  0  0  0  0  0  0
  2  1  1  6
  2  3  1  0
  3  4  1  0
  4  8  1  0
  5  4  2  0
  6  2  1  0
  7  6  2  0
  9  6  1  0
 10 13  1  0
 10  9  1  0
 11 12  1  0
 10 11  1  1
 13 15  1  0
 14 13  2  0
 15 16  1  0
 15 19  1  0
 16 17  1  0
 17 18  1  0
 19 20  1  1
 19 18  1  0
 20 22  1  0
 21 20  2  0
M  END
$$$$
