DCP.pdb
     RDKit          3D

 22 22  0  0  1  0  0  0  0  0999 V2000
    7.7085  -16.7195   21.3788 N   0  0  0  0  0  0  0  0  0  0  0  0
    9.0988  -16.4634   21.8262 C   0  0  1  0  0  0  0  0  0  0  0  0
    9.8366  -16.1015   20.5895 C   0  0  0  0  0  0  0  0  0  0  0  0
   11.2905  -16.0209   20.6791 C   0  0  0  0  0  0  0  0  0  0  0  0
   11.9154  -16.9283   21.2781 O   0  0  0  0  0  0  0  0  0  0  0  0
    9.1116  -15.5070   22.9231 C   0  0  0  0  0  0  0  0  0  0  0  0
   10.2269  -15.0987   23.3722 O   0  0  0  0  0  0  0  0  0  0  0  0
   12.0390  -14.9895   20.1362 O   0  0  0  0  0  0  0  0  0  0  0  0
    7.9586  -14.9722   23.5519 N   0  0  0  0  0  0  0  0  0  0  0  0
    8.0478  -14.3355   24.8767 C   0  0  1  0  0  0  0  0  0  0  0  0
    6.6369  -13.8829   25.2076 C   0  0  0  0  0  0  0  0  0  0  0  0
    6.4561  -13.5936   26.9839 S   0  0  0  0  0  0  0  0  0  0  0  0
    8.5168  -15.2760   25.9210 C   0  0  0  0  0  0  0  0  0  0  0  0
    8.3055  -16.5150   25.6850 O   0  0  0  0  0  0  0  0  0  0  0  0
    9.1578  -14.8533   27.1068 N   0  0  0  0  0  0  0  0  0  0  0  0
    8.9253  -13.6701   27.9008 C   0  0  0  0  0  0  0  0  0  0  0  0
   10.2475  -13.3700   28.5723 C   0  0  0  0  0  0  0  0  0  0  0  0
   11.1845  -14.4864   28.2144 C   0  0  0  0  0  0  0  0  0  0  0  0
   10.2222  -15.5780   27.7665 C   0  0  1  0  0  0  0  0  0  0  0  0
    9.6854  -16.2875   28.9431 C   0  0  0  0  0  0  0  0  0  0  0  0
    8.4697  -16.2444   29.2595 O   0  0  0  0  0  0  0  0  0  0  0  0
   10.5029  -17.0564   29.7836 O   0  0  0  0  0  0  0  0  0  0  0  0
  2  1  1  6
  2  3  1  0
  3  4  1  0
  4  8  1  0
  5  4  2  0
  6  2  1  0
  7  6  2  0
  9  6  1  0
 10 13  1  0
 10  9  1  0
 11 12  1  0
 10 11  1  1
 13 15  1  0
 14 13  2  0
 15 16  1  0
 15 19  1  0
 16 17  1  0
 17 18  1  0
 19 20  1  1
 19 18  1  0
 20 22  1  0
 21 20  2  0
M  END
$$$$
