DCP.pdb
     RDKit          3D

 22 22  0  0  1  0  0  0  0  0999 V2000
   10.4008  -18.0585   21.0814 N   0  0  0  0  0  0  0  0  0  0  0  0
   11.1969  -17.0346   21.8001 C   0  0  1  0  0  0  0  0  0  0  0  0
   12.3810  -16.7970   20.9363 C   0  0  0  0  0  0  0  0  0  0  0  0
   12.7026  -17.8209   19.9480 C   0  0  0  0  0  0  0  0  0  0  0  0
   13.6153  -17.6003   19.1168 O   0  0  0  0  0  0  0  0  0  0  0  0
   10.3659  -15.8878   22.1352 C   0  0  0  0  0  0  0  0  0  0  0  0
   10.9223  -14.7714   22.3724 O   0  0  0  0  0  0  0  0  0  0  0  0
   12.0543  -19.0423   19.8665 O   0  0  0  0  0  0  0  0  0  0  0  0
    8.9505  -15.9037   22.2203 N   0  0  0  0  0  0  0  0  0  0  0  0
    8.2329  -14.9219   23.0508 C   0  0  1  0  0  0  0  0  0  0  0  0
    6.7572  -15.1837   22.8083 C   0  0  0  0  0  0  0  0  0  0  0  0
    6.4401  -15.4906   21.0542 S   0  0  0  0  0  0  0  0  0  0  0  0
    8.5275  -15.0853   24.4935 C   0  0  0  0  0  0  0  0  0  0  0  0
    9.3767  -15.9959   24.7853 O   0  0  0  0  0  0  0  0  0  0  0  0
    7.9217  -14.2974   25.4976 N   0  0  0  0  0  0  0  0  0  0  0  0
    6.8252  -13.3642   25.3910 C   0  0  0  0  0  0  0  0  0  0  0  0
    7.0467  -12.3554   26.4967 C   0  0  0  0  0  0  0  0  0  0  0  0
    8.2342  -12.8236   27.2861 C   0  0  0  0  0  0  0  0  0  0  0  0
    8.3227  -14.2905   26.8876 C   0  0  1  0  0  0  0  0  0  0  0  0
    7.3687  -15.0853   27.6841 C   0  0  0  0  0  0  0  0  0  0  0  0
    6.2570  -15.4567   27.2301 O   0  0  0  0  0  0  0  0  0  0  0  0
    7.6458  -15.4760   29.0018 O   0  0  0  0  0  0  0  0  0  0  0  0
  2  1  1  6
  2  3  1  0
  3  4  1  0
  4  8  1  0
  5  4  2  0
  6  2  1  0
  7  6  2  0
  9  6  1  0
 10 13  1  0
 10  9  1  0
 11 12  1  0
 10 11  1  1
 13 15  1  0
 14 13  2  0
 15 16  1  0
 15 19  1  0
 16 17  1  0
 17 18  1  0
 19 20  1  1
 19 18  1  0
 20 22  1  0
 21 20  2  0
M  END
$$$$
