DCP.pdb
     RDKit          3D

 22 22  0  0  1  0  0  0  0  0999 V2000
    7.7263  -16.5713   21.3245 N   0  0  0  0  0  0  0  0  0  0  0  0
    8.9883  -15.8065   21.4689 C   0  0  1  0  0  0  0  0  0  0  0  0
    9.1826  -15.1404   20.1560 C   0  0  0  0  0  0  0  0  0  0  0  0
    9.5616  -15.9852   19.0286 C   0  0  0  0  0  0  0  0  0  0  0  0
    8.6651  -16.4353   18.2760 O   0  0  0  0  0  0  0  0  0  0  0  0
    8.9379  -14.9614   22.6526 C   0  0  0  0  0  0  0  0  0  0  0  0
    9.9632  -14.2831   22.9701 O   0  0  0  0  0  0  0  0  0  0  0  0
   10.8699  -16.3286   18.7298 O   0  0  0  0  0  0  0  0  0  0  0  0
    7.8145  -14.8204   23.5064 N   0  0  0  0  0  0  0  0  0  0  0  0
    7.9642  -14.2813   24.8685 C   0  0  1  0  0  0  0  0  0  0  0  0
    6.5527  -14.0079   25.3564 C   0  0  0  0  0  0  0  0  0  0  0  0
    6.5604  -13.5099   27.0953 S   0  0  0  0  0  0  0  0  0  0  0  0
    8.6198  -15.2440   25.7842 C   0  0  0  0  0  0  0  0  0  0  0  0
    8.5767  -16.4697   25.4218 O   0  0  0  0  0  0  0  0  0  0  0  0
    9.2567  -14.8549   26.9837 N   0  0  0  0  0  0  0  0  0  0  0  0
    9.0496  -13.6742   27.7883 C   0  0  0  0  0  0  0  0  0  0  0  0
   10.3707  -13.4230   28.4815 C   0  0  0  0  0  0  0  0  0  0  0  0
   11.2778  -14.5638   28.1235 C   0  0  0  0  0  0  0  0  0  0  0  0
   10.2886  -15.6198   27.6494 C   0  0  1  0  0  0  0  0  0  0  0  0
    9.7135  -16.3257   28.8101 C   0  0  0  0  0  0  0  0  0  0  0  0
    8.5004  -16.2285   29.1247 O   0  0  0  0  0  0  0  0  0  0  0  0
   10.4890  -17.1514   29.6363 O   0  0  0  0  0  0  0  0  0  0  0  0
  2  1  1  6
  2  3  1  0
  3  4  1  0
  4  8  1  0
  5  4  2  0
  6  2  1  0
  7  6  2  0
  9  6  1  0
 10 13  1  0
 10  9  1  0
 11 12  1  0
 10 11  1  1
 13 15  1  0
 14 13  2  0
 15 16  1  0
 15 19  1  0
 16 17  1  0
 17 18  1  0
 19 20  1  1
 19 18  1  0
 20 22  1  0
 21 20  2  0
M  END
$$$$
