DCP.pdb
     RDKit          3D

 22 22  0  0  1  0  0  0  0  0999 V2000
    7.5439  -16.7039   21.3535 N   0  0  0  0  0  0  0  0  0  0  0  0
    8.5863  -15.6495   21.3684 C   0  0  1  0  0  0  0  0  0  0  0  0
    8.3905  -14.9021   20.1003 C   0  0  0  0  0  0  0  0  0  0  0  0
    8.6503  -15.6186   18.8563 C   0  0  0  0  0  0  0  0  0  0  0  0
    8.9638  -16.8318   18.9059 O   0  0  0  0  0  0  0  0  0  0  0  0
    8.5283  -14.8950   22.6115 C   0  0  0  0  0  0  0  0  0  0  0  0
    9.3832  -13.9790   22.8173 O   0  0  0  0  0  0  0  0  0  0  0  0
    8.5721  -15.0361   17.6020 O   0  0  0  0  0  0  0  0  0  0  0  0
    7.5746  -15.0935   23.6419 N   0  0  0  0  0  0  0  0  0  0  0  0
    7.7915  -14.5387   24.9887 C   0  0  1  0  0  0  0  0  0  0  0  0
    6.4553  -14.6591   25.6994 C   0  0  0  0  0  0  0  0  0  0  0  0
    5.8345  -13.0292   26.1784 S   0  0  0  0  0  0  0  0  0  0  0  0
    8.8179  -15.2912   25.7471 C   0  0  0  0  0  0  0  0  0  0  0  0
    9.3292  -16.2944   25.1407 O   0  0  0  0  0  0  0  0  0  0  0  0
    9.2204  -14.9406   27.0551 N   0  0  0  0  0  0  0  0  0  0  0  0
    8.5926  -14.0434   27.9960 C   0  0  0  0  0  0  0  0  0  0  0  0
    9.7161  -13.5200   28.8637 C   0  0  0  0  0  0  0  0  0  0  0  0
   10.9647  -14.2407   28.4466 C   0  0  0  0  0  0  0  0  0  0  0  0
   10.4032  -15.4513   27.7134 C   0  0  1  0  0  0  0  0  0  0  0  0
   10.0205  -16.4933   28.6849 C   0  0  0  0  0  0  0  0  0  0  0  0
    8.8213  -16.7857   28.9223 O   0  0  0  0  0  0  0  0  0  0  0  0
   10.9760  -17.2239   29.4056 O   0  0  0  0  0  0  0  0  0  0  0  0
  2  1  1  1
  2  3  1  0
  3  4  1  0
  4  8  1  0
  5  4  2  0
  6  2  1  0
  7  6  2  0
  9  6  1  0
 10 13  1  0
 10  9  1  0
 11 12  1  0
 10 11  1  1
 13 15  1  0
 14 13  2  0
 15 16  1  0
 15 19  1  0
 16 17  1  0
 17 18  1  0
 19 20  1  1
 19 18  1  0
 20 22  1  0
 21 20  2  0
M  END
$$$$
