DFK.pdb
     RDKit          3D

 29 29  0  0  1  0  0  0  0  0999 V2000
    9.4718  -16.4258   19.7247 N   0  0  0  0  0  0  0  0  0  0  0  0
   10.0920  -17.2711   20.8022 C   0  0  1  0  0  0  0  0  0  0  0  0
   11.4683  -17.5304   20.2760 C   0  0  0  0  0  0  0  0  0  0  0  0
   11.6058  -18.0170   18.9195 C   0  0  0  0  0  0  0  0  0  0  0  0
   12.4671  -17.7662   18.0679 O   0  0  0  0  0  0  0  0  0  0  0  0
   10.0457  -16.3981   21.9992 C   0  0  0  0  0  0  0  0  0  0  0  0
   11.1195  -16.1655   22.6570 O   0  0  0  0  0  0  0  0  0  0  0  0
   10.5896  -18.9262   18.5032 O   0  0  0  0  0  0  0  0  0  0  0  0
    8.8402  -15.8136   22.4278 N   0  0  0  0  0  0  0  0  0  0  0  0
    8.7369  -15.0920   23.6862 C   0  0  1  0  0  0  0  0  0  0  0  0
    7.4763  -14.2746   23.7510 C   0  0  0  0  0  0  0  0  0  0  0  0
    7.3062  -13.5786   25.0318 C   0  0  0  0  0  0  0  0  0  0  0  0
    8.0455  -12.4643   25.3490 C   0  0  0  0  0  0  0  0  0  0  0  0
    7.8785  -11.8043   26.5724 C   0  0  0  0  0  0  0  0  0  0  0  0
    6.9542  -12.2798   27.4795 C   0  0  0  0  0  0  0  0  0  0  0  0
    6.2124  -13.3941   27.1667 C   0  0  0  0  0  0  0  0  0  0  0  0
    6.3888  -14.0384   25.9495 C   0  0  0  0  0  0  0  0  0  0  0  0
    8.7803  -16.0381   24.8311 C   0  0  0  0  0  0  0  0  0  0  0  0
    7.8937  -16.9259   24.9081 O   0  0  0  0  0  0  0  0  0  0  0  0
    9.7656  -15.9929   25.8383 N   0  0  0  0  0  0  0  0  0  0  0  0
   10.0124  -17.0663   26.8006 C   0  0  1  0  0  0  0  0  0  0  0  0
   10.9106  -18.1051   26.2332 C   0  0  0  0  0  0  0  0  0  0  0  0
   11.1117  -19.2327   27.2025 C   0  0  0  0  0  0  0  0  0  0  0  0
   11.9322  -20.3572   26.6371 C   0  0  0  0  0  0  0  0  0  0  0  0
   12.0966  -21.4537   27.6516 C   0  0  0  0  0  0  0  0  0  0  0  0
   12.7215  -22.5976   26.9876 N   0  0  0  0  0  0  0  0  0  0  0  0
   10.4842  -16.5296   28.0806 C   0  0  0  0  0  0  0  0  0  0  0  0
   10.9394  -15.3259   28.0701 O   0  0  0  0  0  0  0  0  0  0  0  0
   10.5043  -17.1410   29.2990 O   0  0  0  0  0  0  0  0  0  0  0  0
  2  1  1  6
  3  2  1  0
  4  3  1  0
  5  4  2  0
  6  2  1  0
  6  7  2  0
  8  4  1  0
  9  6  1  0
 10  9  1  0
 11 12  1  0
 10 11  1  6
 12 13  2  0
 12 17  1  0
 13 14  1  0
 14 15  2  0
 16 15  1  0
 17 16  2  0
 18 19  2  0
 18 10  1  0
 20 18  1  0
 21 20  1  0
 21 22  1  6
 23 22  1  0
 24 23  1  0
 25 24  1  0
 25 26  1  0
 27 21  1  0
 28 27  2  0
 29 27  1  0
M  END
$$$$
