DFK.pdb
     RDKit          3D

 29 29  0  0  1  0  0  0  0  0999 V2000
    9.1579  -16.3219   19.3594 N   0  0  0  0  0  0  0  0  0  0  0  0
    9.5368  -17.2734   20.4600 C   0  0  1  0  0  0  0  0  0  0  0  0
   10.8510  -17.8179   19.9964 C   0  0  0  0  0  0  0  0  0  0  0  0
   10.9010  -18.5018   18.7214 C   0  0  0  0  0  0  0  0  0  0  0  0
   11.7374  -18.4307   17.8128 O   0  0  0  0  0  0  0  0  0  0  0  0
    9.6195  -16.4044   21.6580 C   0  0  0  0  0  0  0  0  0  0  0  0
   10.7528  -16.2039   22.2196 O   0  0  0  0  0  0  0  0  0  0  0  0
    9.8169  -19.3952   18.4778 O   0  0  0  0  0  0  0  0  0  0  0  0
    8.4727  -15.7891   22.1915 N   0  0  0  0  0  0  0  0  0  0  0  0
    8.5155  -15.0080   23.4175 C   0  0  1  0  0  0  0  0  0  0  0  0
    7.2958  -14.1401   23.5611 C   0  0  0  0  0  0  0  0  0  0  0  0
    7.2834  -13.3657   24.8076 C   0  0  0  0  0  0  0  0  0  0  0  0
    6.4433  -13.6876   25.8465 C   0  0  0  0  0  0  0  0  0  0  0  0
    6.4362  -12.9451   27.0335 C   0  0  0  0  0  0  0  0  0  0  0  0
    7.2886  -11.8684   27.1656 C   0  0  0  0  0  0  0  0  0  0  0  0
    8.1308  -11.5426   26.1292 C   0  0  0  0  0  0  0  0  0  0  0  0
    8.1268  -12.2880   24.9577 C   0  0  0  0  0  0  0  0  0  0  0  0
    8.6361  -15.9025   24.5979 C   0  0  0  0  0  0  0  0  0  0  0  0
    7.7897  -16.8206   24.7422 O   0  0  0  0  0  0  0  0  0  0  0  0
    9.6519  -15.7759   25.5670 N   0  0  0  0  0  0  0  0  0  0  0  0
    9.9713  -16.7951   26.5663 C   0  0  1  0  0  0  0  0  0  0  0  0
   11.2033  -17.5418   26.2023 C   0  0  0  0  0  0  0  0  0  0  0  0
   11.5003  -18.6157   27.2073 C   0  0  0  0  0  0  0  0  0  0  0  0
   12.7808  -19.3493   26.9254 C   0  0  0  0  0  0  0  0  0  0  0  0
   13.0395  -20.3863   27.9820 C   0  0  0  0  0  0  0  0  0  0  0  0
   14.3131  -21.0382   27.6770 N   0  0  0  0  0  0  0  0  0  0  0  0
   10.0213  -16.2170   27.9125 C   0  0  0  0  0  0  0  0  0  0  0  0
   10.3596  -14.9783   27.9975 O   0  0  0  0  0  0  0  0  0  0  0  0
    9.7516  -16.8222   29.1041 O   0  0  0  0  0  0  0  0  0  0  0  0
  2  1  1  6
  3  2  1  0
  4  3  1  0
  5  4  2  0
  6  2  1  0
  6  7  2  0
  8  4  1  0
  9  6  1  0
 10  9  1  0
 11 12  1  0
 10 11  1  1
 12 13  2  0
 12 17  1  0
 13 14  1  0
 14 15  2  0
 16 15  1  0
 17 16  2  0
 18 19  2  0
 18 10  1  0
 20 18  1  0
 21 20  1  0
 21 22  1  6
 23 22  1  0
 24 23  1  0
 25 24  1  0
 25 26  1  0
 27 21  1  0
 28 27  2  0
 29 27  1  0
M  END
$$$$
