DFK.pdb
     RDKit          3D

 29 29  0  0  1  0  0  0  0  0999 V2000
    9.0938  -16.2864   19.8398 N   0  0  0  0  0  0  0  0  0  0  0  0
   10.1578  -16.8533   20.7379 C   0  0  1  0  0  0  0  0  0  0  0  0
   11.4151  -16.6124   19.9634 C   0  0  0  0  0  0  0  0  0  0  0  0
   11.5686  -17.2657   18.6806 C   0  0  0  0  0  0  0  0  0  0  0  0
   11.0459  -17.0086   17.5893 O   0  0  0  0  0  0  0  0  0  0  0  0
   10.0342  -16.0471   21.9756 C   0  0  0  0  0  0  0  0  0  0  0  0
   11.0500  -15.9002   22.7414 O   0  0  0  0  0  0  0  0  0  0  0  0
   12.4612  -18.3774   18.6774 O   0  0  0  0  0  0  0  0  0  0  0  0
    8.8180  -15.4338   22.3265 N   0  0  0  0  0  0  0  0  0  0  0  0
    8.6257  -14.7798   23.6112 C   0  0  1  0  0  0  0  0  0  0  0  0
    7.3863  -13.9283   23.6162 C   0  0  0  0  0  0  0  0  0  0  0  0
    7.1328  -13.2877   24.9120 C   0  0  0  0  0  0  0  0  0  0  0  0
    6.1788  -13.7671   25.7774 C   0  0  0  0  0  0  0  0  0  0  0  0
    5.9418  -13.1519   27.0125 C   0  0  0  0  0  0  0  0  0  0  0  0
    6.6790  -12.0422   27.3707 C   0  0  0  0  0  0  0  0  0  0  0  0
    7.6344  -11.5590   26.5084 C   0  0  0  0  0  0  0  0  0  0  0  0
    7.8586  -12.1794   25.2866 C   0  0  0  0  0  0  0  0  0  0  0  0
    8.5453  -15.7886   24.6992 C   0  0  0  0  0  0  0  0  0  0  0  0
    7.6156  -16.6339   24.6643 O   0  0  0  0  0  0  0  0  0  0  0  0
    9.4587  -15.8483   25.7713 N   0  0  0  0  0  0  0  0  0  0  0  0
    9.7255  -17.0490   26.5628 C   0  0  1  0  0  0  0  0  0  0  0  0
   10.6392  -17.9765   25.8468 C   0  0  0  0  0  0  0  0  0  0  0  0
   10.9360  -19.1901   26.6777 C   0  0  0  0  0  0  0  0  0  0  0  0
   11.5388  -20.3148   25.8845 C   0  0  0  0  0  0  0  0  0  0  0  0
   11.8413  -21.4870   26.7752 C   0  0  0  0  0  0  0  0  0  0  0  0
   12.4359  -22.5410   25.9533 N   0  0  0  0  0  0  0  0  0  0  0  0
   10.1915  -16.7013   27.9085 C   0  0  0  0  0  0  0  0  0  0  0  0
   10.5086  -17.6803   28.6813 O   0  0  0  0  0  0  0  0  0  0  0  0
   10.3391  -15.4630   28.4595 O   0  0  0  0  0  0  0  0  0  0  0  0
  2  1  1  6
  3  2  1  0
  4  3  1  0
  5  4  2  0
  6  2  1  0
  6  7  2  0
  8  4  1  0
  9  6  1  0
 10  9  1  0
 11 12  1  0
 10 11  1  6
 12 13  2  0
 12 17  1  0
 13 14  1  0
 14 15  2  0
 16 15  1  0
 17 16  2  0
 18 19  2  0
 18 10  1  0
 20 18  1  0
 21 20  1  0
 21 22  1  6
 23 22  1  0
 24 23  1  0
 25 24  1  0
 25 26  1  0
 27 21  1  0
 28 27  2  0
 29 27  1  0
M  END
$$$$
