DFK.pdb
     RDKit          3D

 29 29  0  0  1  0  0  0  0  0999 V2000
    8.7389  -16.9481   19.7456 N   0  0  0  0  0  0  0  0  0  0  0  0
   10.0673  -17.1527   20.4192 C   0  0  1  0  0  0  0  0  0  0  0  0
   11.0446  -16.7051   19.3786 C   0  0  0  0  0  0  0  0  0  0  0  0
   11.4918  -17.6686   18.3950 C   0  0  0  0  0  0  0  0  0  0  0  0
   12.3079  -17.5446   17.4737 O   0  0  0  0  0  0  0  0  0  0  0  0
    9.9921  -16.2741   21.6106 C   0  0  0  0  0  0  0  0  0  0  0  0
   11.0702  -15.8945   22.1883 O   0  0  0  0  0  0  0  0  0  0  0  0
   10.8977  -18.9597   18.5079 O   0  0  0  0  0  0  0  0  0  0  0  0
    8.7540  -15.8434   22.1206 N   0  0  0  0  0  0  0  0  0  0  0  0
    8.6476  -15.1111   23.3726 C   0  0  1  0  0  0  0  0  0  0  0  0
    7.3513  -14.3538   23.4597 C   0  0  0  0  0  0  0  0  0  0  0  0
    7.2078  -13.5996   24.7105 C   0  0  0  0  0  0  0  0  0  0  0  0
    6.3883  -14.0360   25.7239 C   0  0  0  0  0  0  0  0  0  0  0  0
    6.2558  -13.3123   26.9151 C   0  0  0  0  0  0  0  0  0  0  0  0
    6.9605  -12.1375   27.0775 C   0  0  0  0  0  0  0  0  0  0  0  0
    7.7814  -11.6970   26.0666 C   0  0  0  0  0  0  0  0  0  0  0  0
    7.9031  -12.4252   24.8907 C   0  0  0  0  0  0  0  0  0  0  0  0
    8.7647  -16.0391   24.5272 C   0  0  0  0  0  0  0  0  0  0  0  0
    7.9001  -16.9419   24.6596 O   0  0  0  0  0  0  0  0  0  0  0  0
    9.7966  -15.9606   25.4843 N   0  0  0  0  0  0  0  0  0  0  0  0
   10.0259  -16.9527   26.5344 C   0  0  1  0  0  0  0  0  0  0  0  0
   11.3726  -17.5683   26.4116 C   0  0  0  0  0  0  0  0  0  0  0  0
   11.4386  -18.4910   25.2302 C   0  0  0  0  0  0  0  0  0  0  0  0
   12.8145  -19.0449   24.9906 C   0  0  0  0  0  0  0  0  0  0  0  0
   12.7941  -20.0442   23.8682 C   0  0  0  0  0  0  0  0  0  0  0  0
   14.1690  -20.4778   23.6204 N   0  0  0  0  0  0  0  0  0  0  0  0
    9.7672  -16.3861   27.8614 C   0  0  0  0  0  0  0  0  0  0  0  0
    9.8323  -15.1051   27.9657 O   0  0  0  0  0  0  0  0  0  0  0  0
    9.4600  -17.0419   29.0166 O   0  0  0  0  0  0  0  0  0  0  0  0
  2  1  1  6
  3  2  1  0
  4  3  1  0
  5  4  2  0
  6  2  1  0
  6  7  2  0
  8  4  1  0
  9  6  1  0
 10  9  1  0
 11 12  1  0
 10 11  1  6
 12 13  2  0
 12 17  1  0
 13 14  1  0
 14 15  2  0
 16 15  1  0
 17 16  2  0
 18 19  2  0
 18 10  1  0
 20 18  1  0
 21 20  1  0
 21 22  1  1
 23 22  1  0
 24 23  1  0
 25 24  1  0
 25 26  1  0
 27 21  1  0
 28 27  2  0
 29 27  1  0
M  END
$$$$
