DFK.pdb
     RDKit          3D

 29 29  0  0  1  0  0  0  0  0999 V2000
   10.1567  -17.3950   20.0543 N   0  0  0  0  0  0  0  0  0  0  0  0
    8.7734  -17.4035   20.6430 C   0  0  1  0  0  0  0  0  0  0  0  0
    8.5120  -18.8596   20.8669 C   0  0  0  0  0  0  0  0  0  0  0  0
    8.1299  -19.6724   19.7315 C   0  0  0  0  0  0  0  0  0  0  0  0
    8.7070  -19.8532   18.6524 O   0  0  0  0  0  0  0  0  0  0  0  0
    8.9189  -16.6070   21.8846 C   0  0  0  0  0  0  0  0  0  0  0  0
   10.0459  -16.5789   22.4922 O   0  0  0  0  0  0  0  0  0  0  0  0
    6.8969  -20.3718   19.8832 O   0  0  0  0  0  0  0  0  0  0  0  0
    7.8394  -15.8743   22.4102 N   0  0  0  0  0  0  0  0  0  0  0  0
    7.9524  -15.1097   23.6421 C   0  0  1  0  0  0  0  0  0  0  0  0
    6.9566  -13.9837   23.6854 C   0  0  0  0  0  0  0  0  0  0  0  0
    7.0089  -13.2162   24.9351 C   0  0  0  0  0  0  0  0  0  0  0  0
    6.0273  -13.3289   25.8905 C   0  0  0  0  0  0  0  0  0  0  0  0
    6.0828  -12.5943   27.0810 C   0  0  0  0  0  0  0  0  0  0  0  0
    7.1429  -11.7396   27.3023 C   0  0  0  0  0  0  0  0  0  0  0  0
    8.1271  -11.6235   26.3497 C   0  0  0  0  0  0  0  0  0  0  0  0
    8.0589  -12.3583   25.1736 C   0  0  0  0  0  0  0  0  0  0  0  0
    7.7604  -15.9943   24.8205 C   0  0  0  0  0  0  0  0  0  0  0  0
    6.6726  -16.6142   24.9327 O   0  0  0  0  0  0  0  0  0  0  0  0
    8.7358  -16.1759   25.8218 N   0  0  0  0  0  0  0  0  0  0  0  0
    8.7748  -17.3139   26.7398 C   0  0  1  0  0  0  0  0  0  0  0  0
    9.1048  -18.5740   26.0249 C   0  0  0  0  0  0  0  0  0  0  0  0
    7.8730  -19.3964   25.7841 C   0  0  0  0  0  0  0  0  0  0  0  0
    8.1457  -20.6538   25.0083 C   0  0  0  0  0  0  0  0  0  0  0  0
    6.9046  -21.4960   24.9133 C   0  0  0  0  0  0  0  0  0  0  0  0
    7.2486  -22.7357   24.2170 N   0  0  0  0  0  0  0  0  0  0  0  0
    9.6598  -17.0447   27.8770 C   0  0  0  0  0  0  0  0  0  0  0  0
    9.7948  -17.9891   28.7407 O   0  0  0  0  0  0  0  0  0  0  0  0
   10.3718  -15.9135   28.1462 O   0  0  0  0  0  0  0  0  0  0  0  0
  2  1  1  6
  3  2  1  0
  4  3  1  0
  5  4  2  0
  6  2  1  0
  6  7  2  0
  8  4  1  0
  9  6  1  0
 10  9  1  0
 11 12  1  0
 10 11  1  6
 12 13  2  0
 12 17  1  0
 13 14  1  0
 14 15  2  0
 16 15  1  0
 17 16  2  0
 18 19  2  0
 18 10  1  0
 20 18  1  0
 21 20  1  0
 21 22  1  6
 23 22  1  0
 24 23  1  0
 25 24  1  0
 25 26  1  0
 27 21  1  0
 28 27  2  0
 29 27  1  0
M  END
$$$$
