DFK.pdb
     RDKit          3D

 29 29  0  0  1  0  0  0  0  0999 V2000
   10.2020  -16.5646   19.3781 N   0  0  0  0  0  0  0  0  0  0  0  0
    8.9632  -16.9103   20.1565 C   0  0  1  0  0  0  0  0  0  0  0  0
    9.0087  -18.4046   20.2151 C   0  0  0  0  0  0  0  0  0  0  0  0
    8.7254  -19.1494   19.0064 C   0  0  0  0  0  0  0  0  0  0  0  0
    7.9802  -18.8737   18.0584 O   0  0  0  0  0  0  0  0  0  0  0  0
    9.1725  -16.2371   21.4604 C   0  0  0  0  0  0  0  0  0  0  0  0
   10.3147  -16.3084   22.0352 O   0  0  0  0  0  0  0  0  0  0  0  0
    9.4135  -20.3930   18.8939 O   0  0  0  0  0  0  0  0  0  0  0  0
    8.1376  -15.5147   22.0812 N   0  0  0  0  0  0  0  0  0  0  0  0
    8.3138  -14.8690   23.3723 C   0  0  1  0  0  0  0  0  0  0  0  0
    7.1869  -13.9194   23.6721 C   0  0  0  0  0  0  0  0  0  0  0  0
    7.3079  -13.2787   24.9869 C   0  0  0  0  0  0  0  0  0  0  0  0
    8.4259  -12.5601   25.3371 C   0  0  0  0  0  0  0  0  0  0  0  0
    8.5353  -11.9508   26.5928 C   0  0  0  0  0  0  0  0  0  0  0  0
    7.5019  -12.0723   27.4986 C   0  0  0  0  0  0  0  0  0  0  0  0
    6.3816  -12.7900   27.1529 C   0  0  0  0  0  0  0  0  0  0  0  0
    6.2870  -13.3890   25.9038 C   0  0  0  0  0  0  0  0  0  0  0  0
    8.4128  -15.8860   24.4511 C   0  0  0  0  0  0  0  0  0  0  0  0
    7.4039  -16.5927   24.7020 O   0  0  0  0  0  0  0  0  0  0  0  0
    9.5811  -16.1011   25.2101 N   0  0  0  0  0  0  0  0  0  0  0  0
    9.7524  -17.1904   26.1711 C   0  0  1  0  0  0  0  0  0  0  0  0
   10.7807  -18.1597   25.7117 C   0  0  0  0  0  0  0  0  0  0  0  0
   10.9132  -19.3028   26.6747 C   0  0  0  0  0  0  0  0  0  0  0  0
   11.9957  -20.2724   26.2936 C   0  0  0  0  0  0  0  0  0  0  0  0
   12.0524  -21.4125   27.2712 C   0  0  0  0  0  0  0  0  0  0  0  0
   12.9622  -22.4255   26.7362 N   0  0  0  0  0  0  0  0  0  0  0  0
   10.0074  -16.6708   27.5179 C   0  0  0  0  0  0  0  0  0  0  0  0
    9.5608  -17.3703   28.5015 O   0  0  0  0  0  0  0  0  0  0  0  0
   10.6655  -15.5314   27.8750 O   0  0  0  0  0  0  0  0  0  0  0  0
  2  1  1  6
  3  2  1  0
  4  3  1  0
  5  4  2  0
  6  2  1  0
  6  7  2  0
  8  4  1  0
  9  6  1  0
 10  9  1  0
 11 12  1  0
 10 11  1  1
 12 13  2  0
 12 17  1  0
 13 14  1  0
 14 15  2  0
 16 15  1  0
 17 16  2  0
 18 19  2  0
 18 10  1  0
 20 18  1  0
 21 20  1  0
 21 22  1  6
 23 22  1  0
 24 23  1  0
 25 24  1  0
 25 26  1  0
 27 21  1  0
 28 27  2  0
 29 27  1  0
M  END
$$$$
