DFK.pdb
     RDKit          3D

 29 29  0  0  1  0  0  0  0  0999 V2000
    7.3114  -15.1409   20.4713 N   0  0  0  0  0  0  0  0  0  0  0  0
    7.2917  -16.4182   21.2639 C   0  0  1  0  0  0  0  0  0  0  0  0
    8.1003  -17.3511   20.4187 C   0  0  0  0  0  0  0  0  0  0  0  0
    7.5573  -17.7699   19.1437 C   0  0  0  0  0  0  0  0  0  0  0  0
    6.4333  -18.2020   18.8612 O   0  0  0  0  0  0  0  0  0  0  0  0
    7.9305  -16.0410   22.5472 C   0  0  0  0  0  0  0  0  0  0  0  0
    9.0391  -15.4001   22.5401 O   0  0  0  0  0  0  0  0  0  0  0  0
    8.4603  -17.6674   18.0452 O   0  0  0  0  0  0  0  0  0  0  0  0
    7.3388  -16.3716   23.7797 N   0  0  0  0  0  0  0  0  0  0  0  0
    7.9611  -16.0336   25.0500 C   0  0  1  0  0  0  0  0  0  0  0  0
    6.9705  -15.4266   26.0048 C   0  0  0  0  0  0  0  0  0  0  0  0
    7.0855  -13.9669   26.1035 C   0  0  0  0  0  0  0  0  0  0  0  0
    6.0936  -13.1341   25.6438 C   0  0  0  0  0  0  0  0  0  0  0  0
    6.2089  -11.7423   25.7411 C   0  0  0  0  0  0  0  0  0  0  0  0
    7.3396  -11.1929   26.3093 C   0  0  0  0  0  0  0  0  0  0  0  0
    8.3345  -12.0218   26.7706 C   0  0  0  0  0  0  0  0  0  0  0  0
    8.2065  -13.4005   26.6675 C   0  0  0  0  0  0  0  0  0  0  0  0
    8.5746  -17.2398   25.6637 C   0  0  0  0  0  0  0  0  0  0  0  0
    7.8151  -18.1403   26.1024 O   0  0  0  0  0  0  0  0  0  0  0  0
    9.9666  -17.4284   25.7803 N   0  0  0  0  0  0  0  0  0  0  0  0
   10.5921  -18.5703   26.4470 C   0  0  1  0  0  0  0  0  0  0  0  0
   12.0097  -18.7290   26.0310 C   0  0  0  0  0  0  0  0  0  0  0  0
   12.2232  -20.0387   25.3306 C   0  0  0  0  0  0  0  0  0  0  0  0
   13.2852  -19.9740   24.2698 C   0  0  0  0  0  0  0  0  0  0  0  0
   13.5700  -21.3444   23.7225 C   0  0  0  0  0  0  0  0  0  0  0  0
   14.6484  -21.2270   22.7411 N   0  0  0  0  0  0  0  0  0  0  0  0
   10.4207  -18.4915   27.9007 C   0  0  0  0  0  0  0  0  0  0  0  0
   10.4894  -19.5994   28.5517 O   0  0  0  0  0  0  0  0  0  0  0  0
   10.1976  -17.3868   28.6681 O   0  0  0  0  0  0  0  0  0  0  0  0
  2  1  1  6
  3  2  1  0
  4  3  1  0
  5  4  2  0
  6  2  1  0
  6  7  2  0
  8  4  1  0
  9  6  1  0
 10  9  1  0
 11 12  1  0
 10 11  1  1
 12 13  2  0
 12 17  1  0
 13 14  1  0
 14 15  2  0
 16 15  1  0
 17 16  2  0
 18 19  2  0
 18 10  1  0
 20 18  1  0
 21 20  1  0
 21 22  1  1
 23 22  1  0
 24 23  1  0
 25 24  1  0
 25 26  1  0
 27 21  1  0
 28 27  2  0
 29 27  1  0
M  END
$$$$
