DFK.pdb
     RDKit          3D

 29 29  0  0  1  0  0  0  0  0999 V2000
    9.5420  -16.3938   19.1353 N   0  0  0  0  0  0  0  0  0  0  0  0
    8.5603  -16.9791   20.1118 C   0  0  1  0  0  0  0  0  0  0  0  0
    8.9172  -18.4321   20.1176 C   0  0  0  0  0  0  0  0  0  0  0  0
    8.2204  -19.3153   19.2064 C   0  0  0  0  0  0  0  0  0  0  0  0
    8.6676  -20.1355   18.3956 O   0  0  0  0  0  0  0  0  0  0  0  0
    8.8610  -16.2670   21.3766 C   0  0  0  0  0  0  0  0  0  0  0  0
   10.0581  -16.2596   21.8315 O   0  0  0  0  0  0  0  0  0  0  0  0
    6.7985  -19.2233   19.2528 O   0  0  0  0  0  0  0  0  0  0  0  0
    7.8535  -15.5925   22.0896 N   0  0  0  0  0  0  0  0  0  0  0  0
    8.1222  -14.9079   23.3442 C   0  0  1  0  0  0  0  0  0  0  0  0
    7.0233  -13.9418   23.6913 C   0  0  0  0  0  0  0  0  0  0  0  0
    7.2055  -13.3092   25.0030 C   0  0  0  0  0  0  0  0  0  0  0  0
    6.3566  -13.5701   26.0519 C   0  0  0  0  0  0  0  0  0  0  0  0
    6.5357  -12.9638   27.3010 C   0  0  0  0  0  0  0  0  0  0  0  0
    7.5844  -12.0866   27.4856 C   0  0  0  0  0  0  0  0  0  0  0  0
    8.4361  -11.8225   26.4394 C   0  0  0  0  0  0  0  0  0  0  0  0
    8.2462  -12.4312   25.2060 C   0  0  0  0  0  0  0  0  0  0  0  0
    8.2914  -15.8913   24.4452 C   0  0  0  0  0  0  0  0  0  0  0  0
    7.3505  -16.6898   24.6846 O   0  0  0  0  0  0  0  0  0  0  0  0
    9.4541  -15.9767   25.2376 N   0  0  0  0  0  0  0  0  0  0  0  0
    9.7712  -17.0992   26.1202 C   0  0  1  0  0  0  0  0  0  0  0  0
   10.7792  -18.0017   25.5060 C   0  0  0  0  0  0  0  0  0  0  0  0
   11.0781  -19.1669   26.4030 C   0  0  0  0  0  0  0  0  0  0  0  0
   12.1352  -20.0805   25.8506 C   0  0  0  0  0  0  0  0  0  0  0  0
   12.2606  -21.3163   26.6966 C   0  0  0  0  0  0  0  0  0  0  0  0
   12.9287  -20.9471   27.9446 N   0  0  0  0  0  0  0  0  0  0  0  0
   10.1521  -16.6295   27.4556 C   0  0  0  0  0  0  0  0  0  0  0  0
    9.3344  -16.8893   28.4147 O   0  0  0  0  0  0  0  0  0  0  0  0
   11.2730  -15.9467   27.8248 O   0  0  0  0  0  0  0  0  0  0  0  0
  2  1  1  6
  3  2  1  0
  4  3  1  0
  5  4  2  0
  6  2  1  0
  6  7  2  0
  8  4  1  0
  9  6  1  0
 10  9  1  0
 11 12  1  0
 10 11  1  1
 12 13  2  0
 12 17  1  0
 13 14  1  0
 14 15  2  0
 16 15  1  0
 17 16  2  0
 18 19  2  0
 18 10  1  0
 20 18  1  0
 21 20  1  0
 21 22  1  6
 23 22  1  0
 24 23  1  0
 25 24  1  0
 25 26  1  0
 27 21  1  0
 28 27  2  0
 29 27  1  0
M  END
$$$$
