DFK.pdb
     RDKit          3D

 29 29  0  0  1  0  0  0  0  0999 V2000
    9.6110  -16.4931   19.6794 N   0  0  0  0  0  0  0  0  0  0  0  0
    9.6594  -17.4676   20.8232 C   0  0  1  0  0  0  0  0  0  0  0  0
   10.9185  -18.2320   20.5607 C   0  0  0  0  0  0  0  0  0  0  0  0
   11.1311  -18.7731   19.2348 C   0  0  0  0  0  0  0  0  0  0  0  0
   12.1335  -18.7342   18.5112 O   0  0  0  0  0  0  0  0  0  0  0  0
    9.7077  -16.5959   22.0211 C   0  0  0  0  0  0  0  0  0  0  0  0
   10.8029  -16.4739   22.6734 O   0  0  0  0  0  0  0  0  0  0  0  0
   10.0096  -19.4560   18.6796 O   0  0  0  0  0  0  0  0  0  0  0  0
    8.5696  -15.8933   22.4564 N   0  0  0  0  0  0  0  0  0  0  0  0
    8.5636  -15.1216   23.6891 C   0  0  1  0  0  0  0  0  0  0  0  0
    7.4233  -14.1418   23.7206 C   0  0  0  0  0  0  0  0  0  0  0  0
    7.3601  -13.3714   24.9681 C   0  0  0  0  0  0  0  0  0  0  0  0
    8.2989  -12.4146   25.2714 C   0  0  0  0  0  0  0  0  0  0  0  0
    8.2330  -11.6825   26.4629 C   0  0  0  0  0  0  0  0  0  0  0  0
    7.2064  -11.9242   27.3522 C   0  0  0  0  0  0  0  0  0  0  0  0
    6.2650  -12.8803   27.0532 C   0  0  0  0  0  0  0  0  0  0  0  0
    6.3430  -13.5987   25.8676 C   0  0  0  0  0  0  0  0  0  0  0  0
    8.4807  -16.0253   24.8657 C   0  0  0  0  0  0  0  0  0  0  0  0
    7.5836  -16.9056   24.8824 O   0  0  0  0  0  0  0  0  0  0  0  0
    9.3571  -15.9477   25.9671 N   0  0  0  0  0  0  0  0  0  0  0  0
    9.6411  -17.0579   26.8761 C   0  0  1  0  0  0  0  0  0  0  0  0
   10.3835  -18.1448   26.1865 C   0  0  0  0  0  0  0  0  0  0  0  0
   10.6912  -19.2707   27.1295 C   0  0  0  0  0  0  0  0  0  0  0  0
   11.5073  -20.3626   26.4978 C   0  0  0  0  0  0  0  0  0  0  0  0
   11.8383  -21.4263   27.5067 C   0  0  0  0  0  0  0  0  0  0  0  0
   12.6517  -22.4450   26.8431 N   0  0  0  0  0  0  0  0  0  0  0  0
   10.3054  -16.5858   28.0946 C   0  0  0  0  0  0  0  0  0  0  0  0
   10.9179  -15.4566   28.0186 O   0  0  0  0  0  0  0  0  0  0  0  0
   10.3610  -17.1888   29.3162 O   0  0  0  0  0  0  0  0  0  0  0  0
  2  1  1  6
  3  2  1  0
  4  3  1  0
  5  4  2  0
  6  2  1  0
  6  7  2  0
  8  4  1  0
  9  6  1  0
 10  9  1  0
 11 12  1  0
 10 11  1  6
 12 13  2  0
 12 17  1  0
 13 14  1  0
 14 15  2  0
 16 15  1  0
 17 16  2  0
 18 19  2  0
 18 10  1  0
 20 18  1  0
 21 20  1  0
 21 22  1  6
 23 22  1  0
 24 23  1  0
 25 24  1  0
 25 26  1  0
 27 21  1  0
 28 27  2  0
 29 27  1  0
M  END
$$$$
