DFK.pdb
     RDKit          3D

 29 29  0  0  1  0  0  0  0  0999 V2000
   10.4204  -16.5185   19.5081 N   0  0  0  0  0  0  0  0  0  0  0  0
    9.5878  -17.2714   20.5081 C   0  0  1  0  0  0  0  0  0  0  0  0
   10.3080  -18.5771   20.6305 C   0  0  0  0  0  0  0  0  0  0  0  0
   10.2732  -19.4898   19.5073 C   0  0  0  0  0  0  0  0  0  0  0  0
    9.6355  -19.4253   18.4494 O   0  0  0  0  0  0  0  0  0  0  0  0
    9.6467  -16.4207   21.7205 C   0  0  0  0  0  0  0  0  0  0  0  0
   10.7819  -16.1269   22.2352 O   0  0  0  0  0  0  0  0  0  0  0  0
   11.1035  -20.6406   19.6446 O   0  0  0  0  0  0  0  0  0  0  0  0
    8.4747  -15.9238   22.3187 N   0  0  0  0  0  0  0  0  0  0  0  0
    8.5051  -15.1472   23.5480 C   0  0  1  0  0  0  0  0  0  0  0  0
    7.2550  -14.3278   23.7134 C   0  0  0  0  0  0  0  0  0  0  0  0
    7.2477  -13.5305   24.9454 C   0  0  0  0  0  0  0  0  0  0  0  0
    8.1407  -12.5049   25.1442 C   0  0  0  0  0  0  0  0  0  0  0  0
    8.1286  -11.7474   26.3216 C   0  0  0  0  0  0  0  0  0  0  0  0
    7.2029  -12.0340   27.3035 C   0  0  0  0  0  0  0  0  0  0  0  0
    6.3076  -13.0589   27.1092 C   0  0  0  0  0  0  0  0  0  0  0  0
    6.3314  -13.8017   25.9364 C   0  0  0  0  0  0  0  0  0  0  0  0
    8.6771  -16.0417   24.7219 C   0  0  0  0  0  0  0  0  0  0  0  0
    7.7735  -16.8781   24.9747 O   0  0  0  0  0  0  0  0  0  0  0  0
    9.8029  -16.0021   25.5694 N   0  0  0  0  0  0  0  0  0  0  0  0
   10.0480  -16.9441   26.6611 C   0  0  1  0  0  0  0  0  0  0  0  0
   11.2567  -17.7687   26.4024 C   0  0  0  0  0  0  0  0  0  0  0  0
   11.0397  -18.6951   25.2421 C   0  0  0  0  0  0  0  0  0  0  0  0
   12.2527  -19.5165   24.9084 C   0  0  0  0  0  0  0  0  0  0  0  0
   11.9762  -20.4156   23.7363 C   0  0  0  0  0  0  0  0  0  0  0  0
   13.2237  -21.0892   23.3757 N   0  0  0  0  0  0  0  0  0  0  0  0
   10.0833  -16.2554   27.9547 C   0  0  0  0  0  0  0  0  0  0  0  0
   10.3742  -15.0020   27.9345 O   0  0  0  0  0  0  0  0  0  0  0  0
    9.8436  -16.7698   29.1943 O   0  0  0  0  0  0  0  0  0  0  0  0
  2  1  1  6
  3  2  1  0
  4  3  1  0
  5  4  2  0
  6  2  1  0
  6  7  2  0
  8  4  1  0
  9  6  1  0
 10  9  1  0
 11 12  1  0
 10 11  1  1
 12 13  2  0
 12 17  1  0
 13 14  1  0
 14 15  2  0
 16 15  1  0
 17 16  2  0
 18 19  2  0
 18 10  1  0
 20 18  1  0
 21 20  1  0
 21 22  1  6
 23 22  1  0
 24 23  1  0
 25 24  1  0
 25 26  1  0
 27 21  1  0
 28 27  2  0
 29 27  1  0
M  END
$$$$
