DFK.pdb
     RDKit          3D

 29 29  0  0  1  0  0  0  0  0999 V2000
   10.1721  -16.8848   19.5405 N   0  0  0  0  0  0  0  0  0  0  0  0
    8.9783  -17.2649   20.3715 C   0  0  1  0  0  0  0  0  0  0  0  0
    9.1406  -18.7430   20.5370 C   0  0  0  0  0  0  0  0  0  0  0  0
    8.4594  -19.6183   19.6066 C   0  0  0  0  0  0  0  0  0  0  0  0
    7.8322  -19.3491   18.5749 O   0  0  0  0  0  0  0  0  0  0  0  0
    9.1590  -16.4832   21.6179 C   0  0  0  0  0  0  0  0  0  0  0  0
   10.3319  -16.3362   22.1105 O   0  0  0  0  0  0  0  0  0  0  0  0
    8.5228  -21.0048   19.9323 O   0  0  0  0  0  0  0  0  0  0  0  0
    8.0627  -15.8932   22.2725 N   0  0  0  0  0  0  0  0  0  0  0  0
    8.2192  -15.1129   23.4898 C   0  0  1  0  0  0  0  0  0  0  0  0
    7.0494  -14.1940   23.7097 C   0  0  0  0  0  0  0  0  0  0  0  0
    7.1487  -13.4227   24.9543 C   0  0  0  0  0  0  0  0  0  0  0  0
    6.2179  -13.5518   25.9572 C   0  0  0  0  0  0  0  0  0  0  0  0
    6.3182  -12.8136   27.1425 C   0  0  0  0  0  0  0  0  0  0  0  0
    7.3714  -11.9383   27.3100 C   0  0  0  0  0  0  0  0  0  0  0  0
    8.3049  -11.8057   26.3096 C   0  0  0  0  0  0  0  0  0  0  0  0
    8.1926  -12.5444   25.1393 C   0  0  0  0  0  0  0  0  0  0  0  0
    8.3794  -16.0102   24.6634 C   0  0  0  0  0  0  0  0  0  0  0  0
    7.4176  -16.7530   24.9847 O   0  0  0  0  0  0  0  0  0  0  0  0
    9.5558  -16.0728   25.4375 N   0  0  0  0  0  0  0  0  0  0  0  0
    9.7910  -17.0448   26.5048 C   0  0  1  0  0  0  0  0  0  0  0  0
   11.0112  -17.8512   26.2423 C   0  0  0  0  0  0  0  0  0  0  0  0
   10.6561  -19.2162   25.7304 C   0  0  0  0  0  0  0  0  0  0  0  0
   11.8583  -20.0416   25.3686 C   0  0  0  0  0  0  0  0  0  0  0  0
   11.4414  -21.4122   24.9144 C   0  0  0  0  0  0  0  0  0  0  0  0
   12.6401  -22.1340   24.4879 N   0  0  0  0  0  0  0  0  0  0  0  0
    9.7985  -16.3946   27.8187 C   0  0  0  0  0  0  0  0  0  0  0  0
   10.0453  -15.1317   27.8373 O   0  0  0  0  0  0  0  0  0  0  0  0
    9.5737  -16.9544   29.0414 O   0  0  0  0  0  0  0  0  0  0  0  0
  2  1  1  6
  3  2  1  0
  4  3  1  0
  5  4  2  0
  6  2  1  0
  6  7  2  0
  8  4  1  0
  9  6  1  0
 10  9  1  0
 11 12  1  0
 10 11  1  1
 12 13  2  0
 12 17  1  0
 13 14  1  0
 14 15  2  0
 16 15  1  0
 17 16  2  0
 18 19  2  0
 18 10  1  0
 20 18  1  0
 21 20  1  0
 21 22  1  6
 23 22  1  0
 24 23  1  0
 25 24  1  0
 25 26  1  0
 27 21  1  0
 28 27  2  0
 29 27  1  0
M  END
$$$$
