DFK.pdb
     RDKit          3D

 29 29  0  0  1  0  0  0  0  0999 V2000
    9.8051  -16.1015   19.5917 N   0  0  0  0  0  0  0  0  0  0  0  0
    9.2602  -17.0416   20.6306 C   0  0  1  0  0  0  0  0  0  0  0  0
   10.1928  -18.2088   20.5503 C   0  0  0  0  0  0  0  0  0  0  0  0
   10.1689  -19.0275   19.3565 C   0  0  0  0  0  0  0  0  0  0  0  0
    9.6699  -18.8022   18.2474 O   0  0  0  0  0  0  0  0  0  0  0  0
    9.3562  -16.2633   21.8885 C   0  0  0  0  0  0  0  0  0  0  0  0
   10.4458  -16.2764   22.5613 O   0  0  0  0  0  0  0  0  0  0  0  0
   10.8227  -20.2882   19.4815 O   0  0  0  0  0  0  0  0  0  0  0  0
    8.2701  -15.5037   22.3593 N   0  0  0  0  0  0  0  0  0  0  0  0
    8.3095  -14.8099   23.6369 C   0  0  1  0  0  0  0  0  0  0  0  0
    7.1004  -13.9364   23.8273 C   0  0  0  0  0  0  0  0  0  0  0  0
    7.0661  -13.2780   25.1384 C   0  0  0  0  0  0  0  0  0  0  0  0
    6.1593  -13.6443   26.1041 C   0  0  0  0  0  0  0  0  0  0  0  0
    6.1317  -13.0127   27.3533 C   0  0  0  0  0  0  0  0  0  0  0  0
    7.0315  -12.0023   27.6231 C   0  0  0  0  0  0  0  0  0  0  0  0
    7.9403  -11.6325   26.6603 C   0  0  0  0  0  0  0  0  0  0  0  0
    7.9561  -12.2677   25.4258 C   0  0  0  0  0  0  0  0  0  0  0  0
    8.4040  -15.7856   24.7536 C   0  0  0  0  0  0  0  0  0  0  0  0
    7.4425  -16.5727   24.9438 O   0  0  0  0  0  0  0  0  0  0  0  0
    9.5175  -15.8757   25.6133 N   0  0  0  0  0  0  0  0  0  0  0  0
    9.6297  -16.8225   26.7226 C   0  0  1  0  0  0  0  0  0  0  0  0
   10.2610  -18.0946   26.2856 C   0  0  0  0  0  0  0  0  0  0  0  0
   11.6803  -17.8720   25.8525 C   0  0  0  0  0  0  0  0  0  0  0  0
   12.2947  -19.0790   25.2022 C   0  0  0  0  0  0  0  0  0  0  0  0
   13.7433  -18.8304   24.8882 C   0  0  0  0  0  0  0  0  0  0  0  0
   14.2822  -20.0305   24.2484 N   0  0  0  0  0  0  0  0  0  0  0  0
   10.2990  -16.2097   27.8739 C   0  0  0  0  0  0  0  0  0  0  0  0
   10.4313  -16.9429   28.9232 O   0  0  0  0  0  0  0  0  0  0  0  0
   10.8101  -14.9506   27.9843 O   0  0  0  0  0  0  0  0  0  0  0  0
  2  1  1  6
  3  2  1  0
  4  3  1  0
  5  4  2  0
  6  2  1  0
  6  7  2  0
  8  4  1  0
  9  6  1  0
 10  9  1  0
 11 12  1  0
 10 11  1  1
 12 13  2  0
 12 17  1  0
 13 14  1  0
 14 15  2  0
 16 15  1  0
 17 16  2  0
 18 19  2  0
 18 10  1  0
 20 18  1  0
 21 20  1  0
 21 22  1  6
 23 22  1  0
 24 23  1  0
 25 24  1  0
 25 26  1  0
 27 21  1  0
 28 27  2  0
 29 27  1  0
M  END
$$$$
