DFK.pdb
     RDKit          3D

 29 29  0  0  1  0  0  0  0  0999 V2000
    8.8023  -17.3073   21.0084 N   0  0  0  0  0  0  0  0  0  0  0  0
   10.2342  -17.7260   21.1942 C   0  0  1  0  0  0  0  0  0  0  0  0
   10.8934  -17.2344   19.9443 C   0  0  0  0  0  0  0  0  0  0  0  0
   10.3092  -17.5969   18.6702 C   0  0  0  0  0  0  0  0  0  0  0  0
   10.0712  -18.7130   18.1931 O   0  0  0  0  0  0  0  0  0  0  0  0
   10.6472  -17.0151   22.4276 C   0  0  0  0  0  0  0  0  0  0  0  0
   11.8894  -16.7951   22.6476 O   0  0  0  0  0  0  0  0  0  0  0  0
    9.9543  -16.4946   17.8386 O   0  0  0  0  0  0  0  0  0  0  0  0
    9.6970  -16.5716   23.3651 N   0  0  0  0  0  0  0  0  0  0  0  0
   10.0717  -16.1622   24.7093 C   0  0  1  0  0  0  0  0  0  0  0  0
    8.9803  -15.3632   25.3666 C   0  0  0  0  0  0  0  0  0  0  0  0
    9.3554  -14.8571   26.6921 C   0  0  0  0  0  0  0  0  0  0  0  0
    9.7369  -13.5505   26.8820 C   0  0  0  0  0  0  0  0  0  0  0  0
   10.0932  -13.0734   28.1491 C   0  0  0  0  0  0  0  0  0  0  0  0
   10.0617  -13.9296   29.2304 C   0  0  0  0  0  0  0  0  0  0  0  0
    9.6807  -15.2374   29.0454 C   0  0  0  0  0  0  0  0  0  0  0  0
    9.3300  -15.6967   27.7829 C   0  0  0  0  0  0  0  0  0  0  0  0
   10.3943  -17.3500   25.5418 C   0  0  0  0  0  0  0  0  0  0  0  0
    9.5037  -18.2204   25.7133 O   0  0  0  0  0  0  0  0  0  0  0  0
   11.6492  -17.5532   26.1508 N   0  0  0  0  0  0  0  0  0  0  0  0
   12.0477  -18.7863   26.8291 C   0  0  1  0  0  0  0  0  0  0  0  0
   13.2635  -19.3750   26.2101 C   0  0  0  0  0  0  0  0  0  0  0  0
   13.6797  -20.6277   26.9235 C   0  0  0  0  0  0  0  0  0  0  0  0
   14.9104  -21.2593   26.3370 C   0  0  0  0  0  0  0  0  0  0  0  0
   15.2359  -22.5428   27.0478 C   0  0  0  0  0  0  0  0  0  0  0  0
   16.4743  -23.0756   26.4799 N   0  0  0  0  0  0  0  0  0  0  0  0
   12.1780  -18.5756   28.2740 C   0  0  0  0  0  0  0  0  0  0  0  0
   12.4189  -19.6169   28.9906 O   0  0  0  0  0  0  0  0  0  0  0  0
   12.0794  -17.4082   28.9714 O   0  0  0  0  0  0  0  0  0  0  0  0
  2  1  1  6
  3  2  1  0
  4  3  1  0
  5  4  2  0
  6  2  1  0
  6  7  2  0
  8  4  1  0
  9  6  1  0
 10  9  1  0
 11 12  1  0
 10 11  1  1
 12 13  2  0
 12 17  1  0
 13 14  1  0
 14 15  2  0
 16 15  1  0
 17 16  2  0
 18 19  2  0
 18 10  1  0
 20 18  1  0
 21 20  1  0
 21 22  1  6
 23 22  1  0
 24 23  1  0
 25 24  1  0
 25 26  1  0
 27 21  1  0
 28 27  2  0
 29 27  1  0
M  END
$$$$
