DFK.pdb
     RDKit          3D

 29 29  0  0  1  0  0  0  0  0999 V2000
   10.1974  -16.1714   19.3937 N   0  0  0  0  0  0  0  0  0  0  0  0
    9.5451  -17.0160   20.4526 C   0  0  1  0  0  0  0  0  0  0  0  0
   10.4283  -18.2222   20.5121 C   0  0  0  0  0  0  0  0  0  0  0  0
   10.4501  -19.1157   19.3733 C   0  0  0  0  0  0  0  0  0  0  0  0
    9.5296  -19.7464   18.8393 O   0  0  0  0  0  0  0  0  0  0  0  0
    9.5935  -16.1582   21.6605 C   0  0  0  0  0  0  0  0  0  0  0  0
   10.7256  -15.8326   22.1627 O   0  0  0  0  0  0  0  0  0  0  0  0
   11.7325  -19.2948   18.7767 O   0  0  0  0  0  0  0  0  0  0  0  0
    8.4148  -15.6891   22.2679 N   0  0  0  0  0  0  0  0  0  0  0  0
    8.4305  -14.9776   23.5362 C   0  0  1  0  0  0  0  0  0  0  0  0
    7.1150  -14.3003   23.8047 C   0  0  0  0  0  0  0  0  0  0  0  0
    7.0887  -13.5787   25.0823 C   0  0  0  0  0  0  0  0  0  0  0  0
    6.3231  -14.0123   26.1381 C   0  0  0  0  0  0  0  0  0  0  0  0
    6.3025  -13.3198   27.3547 C   0  0  0  0  0  0  0  0  0  0  0  0
    7.0649  -12.1792   27.4995 C   0  0  0  0  0  0  0  0  0  0  0  0
    7.8323  -11.7416   26.4463 C   0  0  0  0  0  0  0  0  0  0  0  0
    7.8429  -12.4386   25.2454 C   0  0  0  0  0  0  0  0  0  0  0  0
    8.7511  -15.9089   24.6488 C   0  0  0  0  0  0  0  0  0  0  0  0
    7.9857  -16.8853   24.8516 O   0  0  0  0  0  0  0  0  0  0  0  0
    9.8709  -15.7554   25.4911 N   0  0  0  0  0  0  0  0  0  0  0  0
   10.2370  -16.6886   26.5563 C   0  0  1  0  0  0  0  0  0  0  0  0
   11.4362  -17.4851   26.1885 C   0  0  0  0  0  0  0  0  0  0  0  0
   11.1231  -18.4547   25.0870 C   0  0  0  0  0  0  0  0  0  0  0  0
   12.2956  -19.3137   24.7065 C   0  0  0  0  0  0  0  0  0  0  0  0
   11.9981  -20.0897   23.4543 C   0  0  0  0  0  0  0  0  0  0  0  0
   13.2175  -20.7916   23.0539 N   0  0  0  0  0  0  0  0  0  0  0  0
   10.3738  -15.9959   27.8410 C   0  0  0  0  0  0  0  0  0  0  0  0
   10.5054  -14.7165   27.7968 O   0  0  0  0  0  0  0  0  0  0  0  0
   10.3781  -16.5311   29.0949 O   0  0  0  0  0  0  0  0  0  0  0  0
  2  1  1  6
  3  2  1  0
  4  3  1  0
  5  4  2  0
  6  2  1  0
  6  7  2  0
  8  4  1  0
  9  6  1  0
 10  9  1  0
 11 12  1  0
 10 11  1  1
 12 13  2  0
 12 17  1  0
 13 14  1  0
 14 15  2  0
 16 15  1  0
 17 16  2  0
 18 19  2  0
 18 10  1  0
 20 18  1  0
 21 20  1  0
 21 22  1  6
 23 22  1  0
 24 23  1  0
 25 24  1  0
 25 26  1  0
 27 21  1  0
 28 27  2  0
 29 27  1  0
M  END
$$$$
