DFK.pdb
     RDKit          3D

 29 29  0  0  1  0  0  0  0  0999 V2000
    8.5607  -17.0365   19.9022 N   0  0  0  0  0  0  0  0  0  0  0  0
    9.9579  -17.1635   20.4424 C   0  0  1  0  0  0  0  0  0  0  0  0
   10.8022  -16.6668   19.3115 C   0  0  0  0  0  0  0  0  0  0  0  0
   10.8804  -17.4677   18.1080 C   0  0  0  0  0  0  0  0  0  0  0  0
    9.9882  -18.0543   17.4836 O   0  0  0  0  0  0  0  0  0  0  0  0
    9.9505  -16.2849   21.6362 C   0  0  0  0  0  0  0  0  0  0  0  0
   11.0545  -15.9917   22.2153 O   0  0  0  0  0  0  0  0  0  0  0  0
   12.1899  -17.5989   17.5597 O   0  0  0  0  0  0  0  0  0  0  0  0
    8.7494  -15.7608   22.1469 N   0  0  0  0  0  0  0  0  0  0  0  0
    8.7004  -15.0206   23.3979 C   0  0  1  0  0  0  0  0  0  0  0  0
    7.4040  -14.2731   23.5457 C   0  0  0  0  0  0  0  0  0  0  0  0
    7.3302  -13.4867   24.7826 C   0  0  0  0  0  0  0  0  0  0  0  0
    6.4751  -13.8286   25.8028 C   0  0  0  0  0  0  0  0  0  0  0  0
    6.4095  -13.0747   26.9806 C   0  0  0  0  0  0  0  0  0  0  0  0
    7.2182  -11.9660   27.1229 C   0  0  0  0  0  0  0  0  0  0  0  0
    8.0751  -11.6201   26.1052 C   0  0  0  0  0  0  0  0  0  0  0  0
    8.1295  -12.3772   24.9426 C   0  0  0  0  0  0  0  0  0  0  0  0
    8.8835  -15.9395   24.5511 C   0  0  0  0  0  0  0  0  0  0  0  0
    8.0617  -16.8782   24.7050 O   0  0  0  0  0  0  0  0  0  0  0  0
    9.9326  -15.8143   25.4843 N   0  0  0  0  0  0  0  0  0  0  0  0
   10.2688  -16.8228   26.4889 C   0  0  1  0  0  0  0  0  0  0  0  0
   11.6399  -17.3565   26.2814 C   0  0  0  0  0  0  0  0  0  0  0  0
   11.9712  -18.4049   27.3024 C   0  0  0  0  0  0  0  0  0  0  0  0
   11.7979  -19.8056   26.7871 C   0  0  0  0  0  0  0  0  0  0  0  0
   12.1253  -20.8073   27.8586 C   0  0  0  0  0  0  0  0  0  0  0  0
   12.0370  -22.1449   27.2727 N   0  0  0  0  0  0  0  0  0  0  0  0
   10.0455  -16.3121   27.8448 C   0  0  0  0  0  0  0  0  0  0  0  0
    9.5914  -17.1493   28.7103 O   0  0  0  0  0  0  0  0  0  0  0  0
   10.2591  -15.0525   28.3206 O   0  0  0  0  0  0  0  0  0  0  0  0
  2  1  1  6
  3  2  1  0
  4  3  1  0
  5  4  2  0
  6  2  1  0
  6  7  2  0
  8  4  1  0
  9  6  1  0
 10  9  1  0
 11 12  1  0
 10 11  1  1
 12 13  2  0
 12 17  1  0
 13 14  1  0
 14 15  2  0
 16 15  1  0
 17 16  2  0
 18 19  2  0
 18 10  1  0
 20 18  1  0
 21 20  1  0
 21 22  1  1
 23 22  1  0
 24 23  1  0
 25 24  1  0
 25 26  1  0
 27 21  1  0
 28 27  2  0
 29 27  1  0
M  END
$$$$
