DFK.pdb
     RDKit          3D

 29 29  0  0  1  0  0  0  0  0999 V2000
   10.4599  -16.0209   19.5635 N   0  0  0  0  0  0  0  0  0  0  0  0
    9.7506  -16.9593   20.4997 C   0  0  1  0  0  0  0  0  0  0  0  0
   10.6384  -18.1637   20.5052 C   0  0  0  0  0  0  0  0  0  0  0  0
   10.7272  -18.9583   19.2984 C   0  0  0  0  0  0  0  0  0  0  0  0
    9.8354  -19.3470   18.5345 O   0  0  0  0  0  0  0  0  0  0  0  0
    9.7177  -16.2139   21.7805 C   0  0  0  0  0  0  0  0  0  0  0  0
   10.7995  -16.0451   22.4446 O   0  0  0  0  0  0  0  0  0  0  0  0
   12.0487  -19.3527   18.9367 O   0  0  0  0  0  0  0  0  0  0  0  0
    8.5162  -15.6821   22.2826 N   0  0  0  0  0  0  0  0  0  0  0  0
    8.4577  -14.9670   23.5476 C   0  0  1  0  0  0  0  0  0  0  0  0
    7.2964  -14.0125   23.5881 C   0  0  0  0  0  0  0  0  0  0  0  0
    7.1594  -13.3263   24.8780 C   0  0  0  0  0  0  0  0  0  0  0  0
    6.1907  -13.6848   25.7846 C   0  0  0  0  0  0  0  0  0  0  0  0
    6.0653  -13.0266   27.0139 C   0  0  0  0  0  0  0  0  0  0  0  0
    6.9299  -11.9973   27.3241 C   0  0  0  0  0  0  0  0  0  0  0  0
    7.9005  -11.6351   26.4204 C   0  0  0  0  0  0  0  0  0  0  0  0
    8.0131  -12.2968   25.2050 C   0  0  0  0  0  0  0  0  0  0  0  0
    8.3596  -15.9242   24.6798 C   0  0  0  0  0  0  0  0  0  0  0  0
    7.3548  -16.6768   24.7421 O   0  0  0  0  0  0  0  0  0  0  0  0
    9.3362  -16.0334   25.6905 N   0  0  0  0  0  0  0  0  0  0  0  0
    9.3591  -17.0857   26.7062 C   0  0  1  0  0  0  0  0  0  0  0  0
    9.8629  -18.3666   26.1462 C   0  0  0  0  0  0  0  0  0  0  0  0
   11.3336  -18.2885   25.8587 C   0  0  0  0  0  0  0  0  0  0  0  0
   11.8897  -19.5587   25.2804 C   0  0  0  0  0  0  0  0  0  0  0  0
   13.3749  -19.4433   25.0815 C   0  0  0  0  0  0  0  0  0  0  0  0
   13.8701  -20.7314   24.5963 N   0  0  0  0  0  0  0  0  0  0  0  0
   10.0878  -16.6500   27.9013 C   0  0  0  0  0  0  0  0  0  0  0  0
   10.6059  -15.4726   27.8652 O   0  0  0  0  0  0  0  0  0  0  0  0
   10.2919  -17.3324   29.0639 O   0  0  0  0  0  0  0  0  0  0  0  0
  2  1  1  6
  3  2  1  0
  4  3  1  0
  5  4  2  0
  6  2  1  0
  6  7  2  0
  8  4  1  0
  9  6  1  0
 10  9  1  0
 11 12  1  0
 10 11  1  6
 12 13  2  0
 12 17  1  0
 13 14  1  0
 14 15  2  0
 16 15  1  0
 17 16  2  0
 18 19  2  0
 18 10  1  0
 20 18  1  0
 21 20  1  0
 21 22  1  6
 23 22  1  0
 24 23  1  0
 25 24  1  0
 25 26  1  0
 27 21  1  0
 28 27  2  0
 29 27  1  0
M  END
$$$$
