AYR.pdb
     RDKit          3D

 29 29  0  0  1  0  0  0  0  0999 V2000
    9.7731  -17.8570   19.4268 C   0  0  0  0  0  0  0  0  0  0  0  0
    9.2544  -18.4076   20.7381 C   0  0  2  0  0  0  0  0  0  0  0  0
    7.8972  -18.8289   20.5391 N   0  0  0  0  0  0  0  0  0  0  0  0
    9.3510  -17.3301   21.7612 C   0  0  0  0  0  0  0  0  0  0  0  0
   10.4724  -16.8974   22.1632 O   0  0  0  0  0  0  0  0  0  0  0  0
    8.1817  -12.0878   18.1147 O   0  0  0  0  0  0  0  0  0  0  0  0
    7.9827  -12.6983   19.3504 C   0  0  0  0  0  0  0  0  0  0  0  0
    8.9710  -12.7097   20.3154 C   0  0  0  0  0  0  0  0  0  0  0  0
    8.7581  -13.3271   21.5549 C   0  0  0  0  0  0  0  0  0  0  0  0
    7.5611  -13.9383   21.8445 C   0  0  0  0  0  0  0  0  0  0  0  0
    7.3529  -14.5814   23.1460 C   0  0  0  0  0  0  0  0  0  0  0  0
    8.3071  -15.6947   23.3846 C   0  0  2  0  0  0  0  0  0  0  0  0
    8.2152  -16.7202   22.3501 N   0  0  0  0  0  0  0  0  0  0  0  0
    8.1581  -16.3004   24.7347 C   0  0  0  0  0  0  0  0  0  0  0  0
    7.0348  -16.5500   25.2343 O   0  0  0  0  0  0  0  0  0  0  0  0
    6.6019  -13.9063   20.8588 C   0  0  0  0  0  0  0  0  0  0  0  0
    6.7904  -13.3077   19.6407 C   0  0  0  0  0  0  0  0  0  0  0  0
    5.3128  -22.5936   25.2587 N   0  0  0  0  0  0  0  0  0  0  0  0
    5.6055  -22.5168   26.6401 C   0  0  0  0  0  0  0  0  0  0  0  0
    4.9696  -23.2339   27.4686 N   0  0  0  0  0  0  0  0  0  0  0  0
    6.6190  -21.6257   27.0784 N   0  0  0  0  0  0  0  0  0  0  0  0
    7.2620  -20.7045   26.1254 C   0  0  0  0  0  0  0  0  0  0  0  0
    8.3343  -19.9760   26.8550 C   0  0  0  0  0  0  0  0  0  0  0  0
    9.1524  -19.0316   26.0562 C   0  0  0  0  0  0  0  0  0  0  0  0
    9.2524  -17.6418   26.5679 C   0  0  2  0  0  0  0  0  0  0  0  0
    9.2908  -16.6306   25.5349 N   0  0  0  0  0  0  0  0  0  0  0  0
   10.3815  -17.3934   27.4924 C   0  0  0  0  0  0  0  0  0  0  0  0
   10.5579  -18.1503   28.4767 O   0  0  0  0  0  0  0  0  0  0  0  0
   11.2627  -16.3399   27.3103 O   0  0  0  0  0  0  0  0  0  0  0  0
  2  1  1  6
  2  3  1  0
  4  2  1  0
  4  5  2  0
  7  8  2  0
  7  6  1  0
  9  8  1  0
 10  9  2  0
 11 10  1  0
 12 11  1  6
 12 13  1  0
 13  4  1  0
 14 12  1  0
 15 14  2  0
 16 10  1  0
 16 17  2  0
 17  7  1  0
 19 18  1  0
 19 21  1  0
 20 19  2  0
 21 22  1  0
 22 23  1  0
 23 24  1  0
 25 24  1  6
 25 26  1  0
 25 27  1  0
 26 14  1  0
 27 28  2  0
 27 29  1  0
M  END
$$$$
