AYR.pdb
     RDKit          3D

 29 29  0  0  1  0  0  0  0  0999 V2000
    8.1819  -13.8278   17.9429 C   0  0  0  0  0  0  0  0  0  0  0  0
    7.9919  -15.0736   18.7816 C   0  0  2  0  0  0  0  0  0  0  0  0
    6.6165  -15.4709   18.6848 N   0  0  0  0  0  0  0  0  0  0  0  0
    8.3728  -14.7482   20.1838 C   0  0  0  0  0  0  0  0  0  0  0  0
    9.5869  -14.6583   20.5363 O   0  0  0  0  0  0  0  0  0  0  0  0
    8.0708  -12.2997   28.6781 O   0  0  0  0  0  0  0  0  0  0  0  0
    7.7571  -12.5519   27.3449 C   0  0  0  0  0  0  0  0  0  0  0  0
    6.8273  -13.5109   26.9930 C   0  0  0  0  0  0  0  0  0  0  0  0
    6.5203  -13.7548   25.6480 C   0  0  0  0  0  0  0  0  0  0  0  0
    7.1356  -13.0475   24.6423 C   0  0  0  0  0  0  0  0  0  0  0  0
    6.8048  -13.3144   23.2388 C   0  0  0  0  0  0  0  0  0  0  0  0
    7.7922  -14.2129   22.5871 C   0  0  2  0  0  0  0  0  0  0  0  0
    7.4214  -14.5192   21.2090 N   0  0  0  0  0  0  0  0  0  0  0  0
    8.0253  -15.4648   23.3554 C   0  0  0  0  0  0  0  0  0  0  0  0
    7.1796  -16.3904   23.3963 O   0  0  0  0  0  0  0  0  0  0  0  0
    8.0554  -12.1015   25.0321 C   0  0  0  0  0  0  0  0  0  0  0  0
    8.3693  -11.8479   26.3415 C   0  0  0  0  0  0  0  0  0  0  0  0
   13.1213  -19.1832   20.6898 N   0  0  0  0  0  0  0  0  0  0  0  0
   13.8435  -19.0008   21.8919 C   0  0  0  0  0  0  0  0  0  0  0  0
   15.0808  -18.7304   21.8590 N   0  0  0  0  0  0  0  0  0  0  0  0
   13.1600  -19.1263   23.1290 N   0  0  0  0  0  0  0  0  0  0  0  0
   11.8607  -19.8175   23.1937 C   0  0  0  0  0  0  0  0  0  0  0  0
   10.9900  -19.0558   24.1289 C   0  0  0  0  0  0  0  0  0  0  0  0
   10.5206  -17.7289   23.6618 C   0  0  0  0  0  0  0  0  0  0  0  0
    9.6271  -16.9790   24.5798 C   0  0  2  0  0  0  0  0  0  0  0  0
    9.2289  -15.6783   24.0890 N   0  0  0  0  0  0  0  0  0  0  0  0
   10.1423  -16.8094   25.9571 C   0  0  0  0  0  0  0  0  0  0  0  0
   11.0857  -16.0123   26.1748 O   0  0  0  0  0  0  0  0  0  0  0  0
    9.6156  -17.5094   27.0305 O   0  0  0  0  0  0  0  0  0  0  0  0
  2  1  1  6
  2  3  1  0
  4  2  1  0
  4  5  2  0
  7  8  2  0
  7  6  1  0
  9  8  1  0
 10  9  2  0
 11 10  1  0
 12 11  1  1
 12 13  1  0
 13  4  1  0
 14 12  1  0
 15 14  2  0
 16 10  1  0
 16 17  2  0
 17  7  1  0
 19 18  1  0
 19 21  1  0
 20 19  2  0
 21 22  1  0
 22 23  1  0
 23 24  1  0
 25 24  1  6
 25 26  1  0
 25 27  1  0
 26 14  1  0
 27 28  2  0
 27 29  1  0
M  END
$$$$
