AYR.pdb
     RDKit          3D

 29 29  0  0  1  0  0  0  0  0999 V2000
    7.9182  -12.7220   20.4585 C   0  0  0  0  0  0  0  0  0  0  0  0
    8.8703  -13.2156   19.3901 C   0  0  2  0  0  0  0  0  0  0  0  0
    8.2120  -13.1038   18.1199 N   0  0  0  0  0  0  0  0  0  0  0  0
    9.2235  -14.6277   19.7038 C   0  0  0  0  0  0  0  0  0  0  0  0
    8.8830  -15.5806   18.9407 O   0  0  0  0  0  0  0  0  0  0  0  0
   15.8348  -14.1808   18.6506 O   0  0  0  0  0  0  0  0  0  0  0  0
   14.6696  -14.8701   18.9772 C   0  0  0  0  0  0  0  0  0  0  0  0
   14.6898  -15.9522   19.8354 C   0  0  0  0  0  0  0  0  0  0  0  0
   13.5104  -16.6370   20.1563 C   0  0  0  0  0  0  0  0  0  0  0  0
   12.3018  -16.2515   19.6262 C   0  0  0  0  0  0  0  0  0  0  0  0
   11.0756  -16.9784   19.9705 C   0  0  0  0  0  0  0  0  0  0  0  0
   10.3686  -16.3756   21.1297 C   0  0  2  0  0  0  0  0  0  0  0  0
    9.9540  -15.0026   20.8590 N   0  0  0  0  0  0  0  0  0  0  0  0
   11.1620  -16.4433   22.3858 C   0  0  0  0  0  0  0  0  0  0  0  0
   11.6606  -15.4219   22.9165 O   0  0  0  0  0  0  0  0  0  0  0  0
   12.3222  -15.1700   18.7761 C   0  0  0  0  0  0  0  0  0  0  0  0
   13.4644  -14.4871   18.4499 C   0  0  0  0  0  0  0  0  0  0  0  0
   10.0572  -21.6196   29.5860 N   0  0  0  0  0  0  0  0  0  0  0  0
   11.2555  -20.8959   29.7864 C   0  0  0  0  0  0  0  0  0  0  0  0
   11.8361  -20.9208   30.9121 N   0  0  0  0  0  0  0  0  0  0  0  0
   11.7921  -20.1449   28.7087 N   0  0  0  0  0  0  0  0  0  0  0  0
   11.0317  -19.9949   27.4559 C   0  0  0  0  0  0  0  0  0  0  0  0
   11.8114  -19.1003   26.5588 C   0  0  0  0  0  0  0  0  0  0  0  0
   11.2281  -18.8349   25.2214 C   0  0  0  0  0  0  0  0  0  0  0  0
   11.8599  -17.7544   24.4233 C   0  0  2  0  0  0  0  0  0  0  0  0
   11.3977  -17.6798   23.0551 N   0  0  0  0  0  0  0  0  0  0  0  0
   13.3400  -17.7713   24.4052 C   0  0  0  0  0  0  0  0  0  0  0  0
   13.9448  -18.2372   23.4102 O   0  0  0  0  0  0  0  0  0  0  0  0
   14.0938  -17.2868   25.4618 O   0  0  0  0  0  0  0  0  0  0  0  0
  2  1  1  1
  2  3  1  0
  4  2  1  0
  4  5  2  0
  7  8  2  0
  7  6  1  0
  9  8  1  0
 10  9  2  0
 11 10  1  0
 12 11  1  6
 12 13  1  0
 13  4  1  0
 14 12  1  0
 15 14  2  0
 16 10  1  0
 16 17  2  0
 17  7  1  0
 19 18  1  0
 19 21  1  0
 20 19  2  0
 21 22  1  0
 22 23  1  0
 23 24  1  0
 25 24  1  6
 25 26  1  0
 25 27  1  0
 26 14  1  0
 27 28  2  0
 27 29  1  0
M  END
$$$$
