AYR.pdb
     RDKit          3D

 29 29  0  0  1  0  0  0  0  0999 V2000
   10.2194  -16.9235   19.2763 C   0  0  0  0  0  0  0  0  0  0  0  0
    9.9351  -17.6441   20.5769 C   0  0  2  0  0  0  0  0  0  0  0  0
    8.6990  -18.3580   20.4303 N   0  0  0  0  0  0  0  0  0  0  0  0
    9.8567  -16.6260   21.6606 C   0  0  0  0  0  0  0  0  0  0  0  0
   10.9005  -16.1571   22.2055 O   0  0  0  0  0  0  0  0  0  0  0  0
    7.8625  -12.3381   17.4648 O   0  0  0  0  0  0  0  0  0  0  0  0
    7.7860  -12.7558   18.7911 C   0  0  0  0  0  0  0  0  0  0  0  0
    8.5528  -12.1659   19.7770 C   0  0  0  0  0  0  0  0  0  0  0  0
    8.4664  -12.5951   21.1078 C   0  0  0  0  0  0  0  0  0  0  0  0
    7.6171  -13.6143   21.4688 C   0  0  0  0  0  0  0  0  0  0  0  0
    7.5379  -14.0536   22.8657 C   0  0  0  0  0  0  0  0  0  0  0  0
    8.5509  -15.0908   23.1896 C   0  0  2  0  0  0  0  0  0  0  0  0
    8.6297  -16.1156   22.1534 N   0  0  0  0  0  0  0  0  0  0  0  0
    8.3315  -15.7123   24.5228 C   0  0  0  0  0  0  0  0  0  0  0  0
    8.2765  -15.0324   25.5756 O   0  0  0  0  0  0  0  0  0  0  0  0
    6.8702  -14.1766   20.4594 C   0  0  0  0  0  0  0  0  0  0  0  0
    6.9401  -13.7712   19.1524 C   0  0  0  0  0  0  0  0  0  0  0  0
    8.4872  -22.6530   27.4899 N   0  0  0  0  0  0  0  0  0  0  0  0
    7.5208  -22.5963   28.5207 C   0  0  0  0  0  0  0  0  0  0  0  0
    7.6409  -23.3255   29.5498 N   0  0  0  0  0  0  0  0  0  0  0  0
    6.4196  -21.7124   28.3812 N   0  0  0  0  0  0  0  0  0  0  0  0
    6.1999  -20.9925   27.1149 C   0  0  0  0  0  0  0  0  0  0  0  0
    6.9568  -19.7138   27.1852 C   0  0  0  0  0  0  0  0  0  0  0  0
    7.1418  -18.9847   25.9071 C   0  0  0  0  0  0  0  0  0  0  0  0
    7.9694  -17.7535   25.9581 C   0  0  2  0  0  0  0  0  0  0  0  0
    8.1714  -17.1208   24.6735 N   0  0  0  0  0  0  0  0  0  0  0  0
    9.2929  -17.9133   26.6017 C   0  0  0  0  0  0  0  0  0  0  0  0
   10.3118  -18.0933   25.8929 O   0  0  0  0  0  0  0  0  0  0  0  0
    9.4510  -17.8731   27.9774 O   0  0  0  0  0  0  0  0  0  0  0  0
  2  1  1  6
  2  3  1  0
  4  2  1  0
  4  5  2  0
  7  8  2  0
  7  6  1  0
  9  8  1  0
 10  9  2  0
 11 10  1  0
 12 11  1  6
 12 13  1  0
 13  4  1  0
 14 12  1  0
 15 14  2  0
 16 10  1  0
 16 17  2  0
 17  7  1  0
 19 18  1  0
 19 21  1  0
 20 19  2  0
 21 22  1  0
 22 23  1  0
 23 24  1  0
 25 24  1  6
 25 26  1  0
 25 27  1  0
 26 14  1  0
 27 28  2  0
 27 29  1  0
M  END
$$$$
