AYR.pdb
     RDKit          3D

 29 29  0  0  1  0  0  0  0  0999 V2000
    5.9542  -20.9234   23.3711 C   0  0  0  0  0  0  0  0  0  0  0  0
    5.3017  -20.3628   22.1255 C   0  0  2  0  0  0  0  0  0  0  0  0
    5.1979  -21.4208   21.1617 N   0  0  0  0  0  0  0  0  0  0  0  0
    6.1479  -19.2445   21.6250 C   0  0  0  0  0  0  0  0  0  0  0  0
    7.1209  -19.4506   20.8394 O   0  0  0  0  0  0  0  0  0  0  0  0
    8.9503  -11.2977   19.0927 O   0  0  0  0  0  0  0  0  0  0  0  0
    8.2489  -12.3256   19.7177 C   0  0  0  0  0  0  0  0  0  0  0  0
    7.7017  -13.3675   18.9945 C   0  0  0  0  0  0  0  0  0  0  0  0
    6.9985  -14.3958   19.6354 C   0  0  0  0  0  0  0  0  0  0  0  0
    6.8335  -14.3962   21.0004 C   0  0  0  0  0  0  0  0  0  0  0  0
    6.0941  -15.4789   21.6574 C   0  0  0  0  0  0  0  0  0  0  0  0
    6.7674  -16.7946   21.5069 C   0  0  2  0  0  0  0  0  0  0  0  0
    5.9306  -17.8909   21.9847 N   0  0  0  0  0  0  0  0  0  0  0  0
    8.1032  -16.8349   22.1595 C   0  0  0  0  0  0  0  0  0  0  0  0
    8.2371  -16.8458   23.4067 O   0  0  0  0  0  0  0  0  0  0  0  0
    7.3923  -13.3424   21.6858 C   0  0  0  0  0  0  0  0  0  0  0  0
    8.0836  -12.3275   21.0778 C   0  0  0  0  0  0  0  0  0  0  0  0
   10.9504  -22.4565   22.4447 N   0  0  0  0  0  0  0  0  0  0  0  0
   12.2965  -22.0779   22.6555 C   0  0  0  0  0  0  0  0  0  0  0  0
   13.0141  -22.7072   23.4887 N   0  0  0  0  0  0  0  0  0  0  0  0
   12.8253  -20.9853   21.9206 N   0  0  0  0  0  0  0  0  0  0  0  0
   12.0085  -20.3150   20.8942 C   0  0  0  0  0  0  0  0  0  0  0  0
   11.1510  -19.3132   21.5826 C   0  0  0  0  0  0  0  0  0  0  0  0
   11.5429  -17.8912   21.4286 C   0  0  0  0  0  0  0  0  0  0  0  0
   10.6194  -16.8813   22.0037 C   0  0  2  0  0  0  0  0  0  0  0  0
    9.3071  -16.8636   21.3965 N   0  0  0  0  0  0  0  0  0  0  0  0
   11.1358  -15.4940   22.0161 C   0  0  0  0  0  0  0  0  0  0  0  0
   12.1304  -15.2065   22.7238 O   0  0  0  0  0  0  0  0  0  0  0  0
   10.5524  -14.4857   21.2660 O   0  0  0  0  0  0  0  0  0  0  0  0
  2  1  1  1
  2  3  1  0
  4  2  1  0
  4  5  2  0
  7  8  2  0
  7  6  1  0
  9  8  1  0
 10  9  2  0
 11 10  1  0
 12 11  1  1
 12 13  1  0
 13  4  1  0
 14 12  1  0
 15 14  2  0
 16 10  1  0
 16 17  2  0
 17  7  1  0
 19 18  1  0
 19 21  1  0
 20 19  2  0
 21 22  1  0
 22 23  1  0
 23 24  1  0
 25 24  1  6
 25 26  1  0
 25 27  1  0
 26 14  1  0
 27 28  2  0
 27 29  1  0
M  END
$$$$
