AYR.pdb
     RDKit          3D

 29 29  0  0  1  0  0  0  0  0999 V2000
    8.4219  -18.2895   19.2842 C   0  0  0  0  0  0  0  0  0  0  0  0
    8.5917  -16.8071   19.0286 C   0  0  2  0  0  0  0  0  0  0  0  0
    9.7252  -16.6302   18.1667 N   0  0  0  0  0  0  0  0  0  0  0  0
    8.7885  -16.1323   20.3412 C   0  0  0  0  0  0  0  0  0  0  0  0
    9.9391  -16.0151   20.8595 O   0  0  0  0  0  0  0  0  0  0  0  0
    7.1809  -12.2801   28.1584 O   0  0  0  0  0  0  0  0  0  0  0  0
    7.0653  -12.7546   26.8543 C   0  0  0  0  0  0  0  0  0  0  0  0
    7.5891  -12.0551   25.7845 C   0  0  0  0  0  0  0  0  0  0  0  0
    7.4665  -12.5436   24.4771 C   0  0  0  0  0  0  0  0  0  0  0  0
    6.8218  -13.7311   24.2231 C   0  0  0  0  0  0  0  0  0  0  0  0
    6.7003  -14.2295   22.8492 C   0  0  0  0  0  0  0  0  0  0  0  0
    7.9002  -14.9910   22.4168 C   0  0  2  0  0  0  0  0  0  0  0  0
    7.7215  -15.5813   21.0939 N   0  0  0  0  0  0  0  0  0  0  0  0
    8.3079  -16.0291   23.4007 C   0  0  0  0  0  0  0  0  0  0  0  0
    7.6989  -17.1203   23.5112 O   0  0  0  0  0  0  0  0  0  0  0  0
    6.3137  -14.3984   25.3136 C   0  0  0  0  0  0  0  0  0  0  0  0
    6.4233  -13.9378   26.5994 C   0  0  0  0  0  0  0  0  0  0  0  0
   12.8614  -21.8232   24.1912 N   0  0  0  0  0  0  0  0  0  0  0  0
   13.4338  -21.4714   25.4355 C   0  0  0  0  0  0  0  0  0  0  0  0
   13.7412  -22.3700   26.2741 N   0  0  0  0  0  0  0  0  0  0  0  0
   13.6558  -20.1004   25.7258 N   0  0  0  0  0  0  0  0  0  0  0  0
   13.1872  -19.0583   24.7959 C   0  0  0  0  0  0  0  0  0  0  0  0
   11.9324  -18.4862   25.3538 C   0  0  0  0  0  0  0  0  0  0  0  0
   11.2820  -17.4180   24.5568 C   0  0  0  0  0  0  0  0  0  0  0  0
    9.9863  -16.9039   25.0667 C   0  0  2  0  0  0  0  0  0  0  0  0
    9.4183  -15.8363   24.2737 N   0  0  0  0  0  0  0  0  0  0  0  0
    9.9977  -16.4662   26.4808 C   0  0  0  0  0  0  0  0  0  0  0  0
   10.0947  -15.2460   26.7537 O   0  0  0  0  0  0  0  0  0  0  0  0
    9.9059  -17.3666   27.5298 O   0  0  0  0  0  0  0  0  0  0  0  0
  2  1  1  1
  2  3  1  0
  4  2  1  0
  4  5  2  0
  7  8  2  0
  7  6  1  0
  9  8  1  0
 10  9  2  0
 11 10  1  0
 12 11  1  1
 12 13  1  0
 13  4  1  0
 14 12  1  0
 15 14  2  0
 16 10  1  0
 16 17  2  0
 17  7  1  0
 19 18  1  0
 19 21  1  0
 20 19  2  0
 21 22  1  0
 22 23  1  0
 23 24  1  0
 25 24  1  6
 25 26  1  0
 25 27  1  0
 26 14  1  0
 27 28  2  0
 27 29  1  0
M  END
$$$$
