AYR.pdb
     RDKit          3D

 29 29  0  0  1  0  0  0  0  0999 V2000
    8.3406  -18.3019   19.5141 C   0  0  0  0  0  0  0  0  0  0  0  0
    8.6848  -16.8478   19.2721 C   0  0  2  0  0  0  0  0  0  0  0  0
    9.8914  -16.7982   18.4970 N   0  0  0  0  0  0  0  0  0  0  0  0
    8.8542  -16.1874   20.5959 C   0  0  0  0  0  0  0  0  0  0  0  0
    9.9788  -16.1523   21.1792 O   0  0  0  0  0  0  0  0  0  0  0  0
    7.3176  -11.5329   27.9731 O   0  0  0  0  0  0  0  0  0  0  0  0
    7.1897  -12.1432   26.7279 C   0  0  0  0  0  0  0  0  0  0  0  0
    7.7890  -11.6137   25.6016 C   0  0  0  0  0  0  0  0  0  0  0  0
    7.6531  -12.2375   24.3546 C   0  0  0  0  0  0  0  0  0  0  0  0
    6.9199  -13.3926   24.2175 C   0  0  0  0  0  0  0  0  0  0  0  0
    6.7856  -14.0340   22.9055 C   0  0  0  0  0  0  0  0  0  0  0  0
    7.9593  -14.8798   22.5679 C   0  0  2  0  0  0  0  0  0  0  0  0
    7.7881  -15.5606   21.2882 N   0  0  0  0  0  0  0  0  0  0  0  0
    8.2910  -15.8570   23.6388 C   0  0  0  0  0  0  0  0  0  0  0  0
    7.5696  -16.8546   23.8793 O   0  0  0  0  0  0  0  0  0  0  0  0
    6.3385  -13.8891   25.3611 C   0  0  0  0  0  0  0  0  0  0  0  0
    6.4596  -13.2943   26.5896 C   0  0  0  0  0  0  0  0  0  0  0  0
   12.7621  -20.8647   24.1670 N   0  0  0  0  0  0  0  0  0  0  0  0
   12.9048  -20.3787   22.8467 C   0  0  0  0  0  0  0  0  0  0  0  0
   12.8849  -21.1799   21.8655 N   0  0  0  0  0  0  0  0  0  0  0  0
   13.0701  -18.9843   22.6428 N   0  0  0  0  0  0  0  0  0  0  0  0
   12.9879  -18.0517   23.7803 C   0  0  0  0  0  0  0  0  0  0  0  0
   11.5902  -18.0816   24.2886 C   0  0  0  0  0  0  0  0  0  0  0  0
   11.2568  -17.1138   25.3617 C   0  0  0  0  0  0  0  0  0  0  0  0
    9.8396  -16.6813   25.4499 C   0  0  2  0  0  0  0  0  0  0  0  0
    9.4529  -15.7092   24.4516 N   0  0  0  0  0  0  0  0  0  0  0  0
    9.4216  -16.1676   26.7738 C   0  0  0  0  0  0  0  0  0  0  0  0
    9.5802  -14.9543   27.0487 O   0  0  0  0  0  0  0  0  0  0  0  0
    8.8554  -16.9884   27.7355 O   0  0  0  0  0  0  0  0  0  0  0  0
  2  1  1  1
  2  3  1  0
  4  2  1  0
  4  5  2  0
  7  8  2  0
  7  6  1  0
  9  8  1  0
 10  9  2  0
 11 10  1  0
 12 11  1  1
 12 13  1  0
 13  4  1  0
 14 12  1  0
 15 14  2  0
 16 10  1  0
 16 17  2  0
 17  7  1  0
 19 18  1  0
 19 21  1  0
 20 19  2  0
 21 22  1  0
 22 23  1  0
 23 24  1  0
 25 24  1  1
 25 26  1  0
 25 27  1  0
 26 14  1  0
 27 28  2  0
 27 29  1  0
M  END
$$$$
