AYR.pdb
     RDKit          3D

 29 29  0  0  1  0  0  0  0  0999 V2000
    9.6661  -16.8935   17.4720 C   0  0  0  0  0  0  0  0  0  0  0  0
    9.6538  -17.8677   18.6306 C   0  0  2  0  0  0  0  0  0  0  0  0
    8.3840  -18.5362   18.6376 N   0  0  0  0  0  0  0  0  0  0  0  0
    9.8757  -17.0959   19.8845 C   0  0  0  0  0  0  0  0  0  0  0  0
   11.0056  -16.5928   20.1612 O   0  0  0  0  0  0  0  0  0  0  0  0
    7.3405  -11.7543   17.7181 O   0  0  0  0  0  0  0  0  0  0  0  0
    7.5021  -12.5731   18.8329 C   0  0  0  0  0  0  0  0  0  0  0  0
    6.7387  -13.7111   19.0071 C   0  0  0  0  0  0  0  0  0  0  0  0
    6.9113  -14.5268   20.1330 C   0  0  0  0  0  0  0  0  0  0  0  0
    7.8439  -14.2173   21.0947 C   0  0  0  0  0  0  0  0  0  0  0  0
    8.0127  -15.0801   22.2684 C   0  0  0  0  0  0  0  0  0  0  0  0
    9.0686  -16.1056   22.0680 C   0  0  2  0  0  0  0  0  0  0  0  0
    8.8567  -16.8716   20.8437 N   0  0  0  0  0  0  0  0  0  0  0  0
    9.2146  -17.0163   23.2347 C   0  0  0  0  0  0  0  0  0  0  0  0
    8.3705  -17.9065   23.4967 O   0  0  0  0  0  0  0  0  0  0  0  0
    8.5844  -13.0768   20.8861 C   0  0  0  0  0  0  0  0  0  0  0  0
    8.4310  -12.2662   19.7920 C   0  0  0  0  0  0  0  0  0  0  0  0
   13.1305  -23.4736   22.8375 N   0  0  0  0  0  0  0  0  0  0  0  0
   14.3299  -22.7499   23.0313 C   0  0  0  0  0  0  0  0  0  0  0  0
   15.3741  -23.3412   23.4375 N   0  0  0  0  0  0  0  0  0  0  0  0
   14.3415  -21.3564   22.7639 N   0  0  0  0  0  0  0  0  0  0  0  0
   13.1048  -20.6673   22.3565 C   0  0  0  0  0  0  0  0  0  0  0  0
   12.5818  -19.9387   23.5433 C   0  0  0  0  0  0  0  0  0  0  0  0
   11.6403  -18.8253   23.2727 C   0  0  0  0  0  0  0  0  0  0  0  0
   11.1631  -18.0574   24.4500 C   0  0  2  0  0  0  0  0  0  0  0  0
   10.3281  -16.9238   24.1202 N   0  0  0  0  0  0  0  0  0  0  0  0
   12.2269  -17.5896   25.3671 C   0  0  0  0  0  0  0  0  0  0  0  0
   12.9390  -16.6088   25.0451 O   0  0  0  0  0  0  0  0  0  0  0  0
   12.4707  -18.2043   26.5845 O   0  0  0  0  0  0  0  0  0  0  0  0
  2  1  1  6
  2  3  1  0
  4  2  1  0
  4  5  2  0
  7  8  2  0
  7  6  1  0
  9  8  1  0
 10  9  2  0
 11 10  1  0
 12 11  1  1
 12 13  1  0
 13  4  1  0
 14 12  1  0
 15 14  2  0
 16 10  1  0
 16 17  2  0
 17  7  1  0
 19 18  1  0
 19 21  1  0
 20 19  2  0
 21 22  1  0
 22 23  1  0
 23 24  1  0
 25 24  1  6
 25 26  1  0
 25 27  1  0
 26 14  1  0
 27 28  2  0
 27 29  1  0
M  END
$$$$
