AYR.pdb
     RDKit          3D

 29 29  0  0  1  0  0  0  0  0999 V2000
    8.0377  -17.3570   18.7600 C   0  0  0  0  0  0  0  0  0  0  0  0
    8.4701  -15.9070   18.8044 C   0  0  2  0  0  0  0  0  0  0  0  0
    9.6791  -15.7787   18.0422 N   0  0  0  0  0  0  0  0  0  0  0  0
    8.6765  -15.5307   20.2302 C   0  0  0  0  0  0  0  0  0  0  0  0
    9.7738  -15.7571   20.8226 O   0  0  0  0  0  0  0  0  0  0  0  0
    7.2607  -12.7044   28.5077 O   0  0  0  0  0  0  0  0  0  0  0  0
    7.1384  -12.9540   27.1431 C   0  0  0  0  0  0  0  0  0  0  0  0
    7.6052  -12.0568   26.2024 C   0  0  0  0  0  0  0  0  0  0  0  0
    7.4764  -12.3198   24.8323 C   0  0  0  0  0  0  0  0  0  0  0  0
    6.8819  -13.4768   24.3869 C   0  0  0  0  0  0  0  0  0  0  0  0
    6.7532  -13.7383   22.9497 C   0  0  0  0  0  0  0  0  0  0  0  0
    7.8564  -14.5859   22.4290 C   0  0  2  0  0  0  0  0  0  0  0  0
    7.6777  -14.9024   21.0154 N   0  0  0  0  0  0  0  0  0  0  0  0
    8.0496  -15.8293   23.2218 C   0  0  0  0  0  0  0  0  0  0  0  0
    7.4712  -16.9036   22.9305 O   0  0  0  0  0  0  0  0  0  0  0  0
    6.4297  -14.3452   25.3534 C   0  0  0  0  0  0  0  0  0  0  0  0
    6.5464  -14.1065   26.6976 C   0  0  0  0  0  0  0  0  0  0  0  0
   10.3537  -20.4704   20.9975 N   0  0  0  0  0  0  0  0  0  0  0  0
   10.8850  -21.4536   21.8640 C   0  0  0  0  0  0  0  0  0  0  0  0
   10.5637  -22.6709   21.7222 N   0  0  0  0  0  0  0  0  0  0  0  0
   11.7794  -21.0532   22.8901 N   0  0  0  0  0  0  0  0  0  0  0  0
   11.9490  -19.6259   23.2133 C   0  0  0  0  0  0  0  0  0  0  0  0
   10.6271  -19.1016   23.6499 C   0  0  0  0  0  0  0  0  0  0  0  0
   10.4653  -17.6275   23.6398 C   0  0  0  0  0  0  0  0  0  0  0  0
    9.6591  -17.0399   24.7390 C   0  0  2  0  0  0  0  0  0  0  0  0
    8.9072  -15.8641   24.3601 N   0  0  0  0  0  0  0  0  0  0  0  0
   10.4158  -16.7208   25.9707 C   0  0  0  0  0  0  0  0  0  0  0  0
   11.0985  -17.6119   26.5299 O   0  0  0  0  0  0  0  0  0  0  0  0
   10.3967  -15.4574   26.5387 O   0  0  0  0  0  0  0  0  0  0  0  0
  2  1  1  1
  2  3  1  0
  4  2  1  0
  4  5  2  0
  7  8  2  0
  7  6  1  0
  9  8  1  0
 10  9  2  0
 11 10  1  0
 12 11  1  1
 12 13  1  0
 13  4  1  0
 14 12  1  0
 15 14  2  0
 16 10  1  0
 16 17  2  0
 17  7  1  0
 19 18  1  0
 19 21  1  0
 20 19  2  0
 21 22  1  0
 22 23  1  0
 23 24  1  0
 25 24  1  6
 25 26  1  0
 25 27  1  0
 26 14  1  0
 27 28  2  0
 27 29  1  0
M  END
$$$$
