AYR.pdb
     RDKit          3D

 29 29  0  0  1  0  0  0  0  0999 V2000
    8.9432  -19.8349   19.6786 C   0  0  0  0  0  0  0  0  0  0  0  0
    8.8430  -18.4255   19.1354 C   0  0  2  0  0  0  0  0  0  0  0  0
    9.5237  -18.3848   17.8728 N   0  0  0  0  0  0  0  0  0  0  0  0
    9.4658  -17.5042   20.1256 C   0  0  0  0  0  0  0  0  0  0  0  0
   10.6750  -17.1391   20.0212 O   0  0  0  0  0  0  0  0  0  0  0  0
    6.7368  -11.9425   18.0491 O   0  0  0  0  0  0  0  0  0  0  0  0
    7.1463  -12.6840   19.1545 C   0  0  0  0  0  0  0  0  0  0  0  0
    6.4084  -13.7569   19.6153 C   0  0  0  0  0  0  0  0  0  0  0  0
    6.8315  -14.4951   20.7284 C   0  0  0  0  0  0  0  0  0  0  0  0
    7.9913  -14.1721   21.3923 C   0  0  0  0  0  0  0  0  0  0  0  0
    8.4212  -14.9533   22.5565 C   0  0  0  0  0  0  0  0  0  0  0  0
    9.3602  -16.0442   22.1889 C   0  0  2  0  0  0  0  0  0  0  0  0
    8.7635  -16.9772   21.2382 N   0  0  0  0  0  0  0  0  0  0  0  0
    9.8880  -16.7723   23.3735 C   0  0  0  0  0  0  0  0  0  0  0  0
    9.2295  -17.6679   23.9547 O   0  0  0  0  0  0  0  0  0  0  0  0
    8.6985  -13.0978   20.9039 C   0  0  0  0  0  0  0  0  0  0  0  0
    8.3019  -12.3635   19.8171 C   0  0  0  0  0  0  0  0  0  0  0  0
   16.6581  -19.2886   21.0552 N   0  0  0  0  0  0  0  0  0  0  0  0
   16.3979  -20.5479   21.6436 C   0  0  0  0  0  0  0  0  0  0  0  0
   17.3479  -21.3538   21.8740 N   0  0  0  0  0  0  0  0  0  0  0  0
   15.0598  -20.8901   21.9688 N   0  0  0  0  0  0  0  0  0  0  0  0
   13.9594  -19.9594   21.6641 C   0  0  0  0  0  0  0  0  0  0  0  0
   13.6317  -19.2227   22.9143 C   0  0  0  0  0  0  0  0  0  0  0  0
   12.5199  -18.2447   22.8325 C   0  0  0  0  0  0  0  0  0  0  0  0
   12.1985  -17.4984   24.0747 C   0  0  2  0  0  0  0  0  0  0  0  0
   11.1769  -16.4879   23.9122 N   0  0  0  0  0  0  0  0  0  0  0  0
   13.3583  -16.8713   24.7477 C   0  0  0  0  0  0  0  0  0  0  0  0
   13.6951  -15.7015   24.4459 O   0  0  0  0  0  0  0  0  0  0  0  0
   14.0981  -17.5377   25.7110 O   0  0  0  0  0  0  0  0  0  0  0  0
  2  1  1  1
  2  3  1  0
  4  2  1  0
  4  5  2  0
  7  8  2  0
  7  6  1  0
  9  8  1  0
 10  9  2  0
 11 10  1  0
 12 11  1  1
 12 13  1  0
 13  4  1  0
 14 12  1  0
 15 14  2  0
 16 10  1  0
 16 17  2  0
 17  7  1  0
 19 18  1  0
 19 21  1  0
 20 19  2  0
 21 22  1  0
 22 23  1  0
 23 24  1  0
 25 24  1  6
 25 26  1  0
 25 27  1  0
 26 14  1  0
 27 28  2  0
 27 29  1  0
M  END
$$$$
