AYR.pdb
     RDKit          3D

 29 29  0  0  1  0  0  0  0  0999 V2000
    7.0399  -14.8544   19.4077 C   0  0  0  0  0  0  0  0  0  0  0  0
    7.1966  -13.6943   20.3675 C   0  0  2  0  0  0  0  0  0  0  0  0
    7.8736  -12.6334   19.6780 N   0  0  0  0  0  0  0  0  0  0  0  0
    7.9759  -14.1708   21.5435 C   0  0  0  0  0  0  0  0  0  0  0  0
    9.2419  -14.1157   21.5653 O   0  0  0  0  0  0  0  0  0  0  0  0
    6.8586   -9.6856   27.1045 O   0  0  0  0  0  0  0  0  0  0  0  0
    6.9660  -10.9872   26.6211 C   0  0  0  0  0  0  0  0  0  0  0  0
    8.1000  -11.7451   26.8397 C   0  0  0  0  0  0  0  0  0  0  0  0
    8.1955  -13.0536   26.3483 C   0  0  0  0  0  0  0  0  0  0  0  0
    7.1646  -13.6187   25.6355 C   0  0  0  0  0  0  0  0  0  0  0  0
    7.2792  -14.9892   25.1265 C   0  0  0  0  0  0  0  0  0  0  0  0
    8.1195  -15.0690   23.9040 C   0  0  2  0  0  0  0  0  0  0  0  0
    7.3688  -14.7115   22.7045 N   0  0  0  0  0  0  0  0  0  0  0  0
    8.7678  -16.3971   23.7375 C   0  0  0  0  0  0  0  0  0  0  0  0
    8.1304  -17.4083   23.3571 O   0  0  0  0  0  0  0  0  0  0  0  0
    6.0525  -12.8331   25.4384 C   0  0  0  0  0  0  0  0  0  0  0  0
    5.9396  -11.5518   25.9107 C   0  0  0  0  0  0  0  0  0  0  0  0
   17.1511  -19.3584   22.2516 N   0  0  0  0  0  0  0  0  0  0  0  0
   16.3250  -20.4868   22.4614 C   0  0  0  0  0  0  0  0  0  0  0  0
   16.8026  -21.6558   22.3601 N   0  0  0  0  0  0  0  0  0  0  0  0
   14.9582  -20.2860   22.7853 N   0  0  0  0  0  0  0  0  0  0  0  0
   14.3959  -18.9250   22.8255 C   0  0  0  0  0  0  0  0  0  0  0  0
   12.9827  -19.0333   23.2773 C   0  0  0  0  0  0  0  0  0  0  0  0
   12.2094  -17.7692   23.3361 C   0  0  0  0  0  0  0  0  0  0  0  0
   10.8149  -17.8659   23.8355 C   0  0  2  0  0  0  0  0  0  0  0  0
   10.1551  -16.5901   24.0032 N   0  0  0  0  0  0  0  0  0  0  0  0
   10.6496  -18.6341   25.0901 C   0  0  0  0  0  0  0  0  0  0  0  0
   10.5075  -18.0262   26.1777 O   0  0  0  0  0  0  0  0  0  0  0  0
   10.6478  -20.0194   25.1091 O   0  0  0  0  0  0  0  0  0  0  0  0
  2  1  1  6
  2  3  1  0
  4  2  1  0
  4  5  2  0
  7  8  2  0
  7  6  1  0
  9  8  1  0
 10  9  2  0
 11 10  1  0
 12 11  1  1
 12 13  1  0
 13  4  1  0
 14 12  1  0
 15 14  2  0
 16 10  1  0
 16 17  2  0
 17  7  1  0
 19 18  1  0
 19 21  1  0
 20 19  2  0
 21 22  1  0
 22 23  1  0
 23 24  1  0
 25 24  1  1
 25 26  1  0
 25 27  1  0
 26 14  1  0
 27 28  2  0
 27 29  1  0
M  END
$$$$
