AYR.pdb
     RDKit          3D

 29 29  0  0  1  0  0  0  0  0999 V2000
   10.7196  -16.8528   19.9766 C   0  0  0  0  0  0  0  0  0  0  0  0
   10.1937  -17.5876   21.1911 C   0  0  2  0  0  0  0  0  0  0  0  0
    9.0554  -18.3616   20.7858 N   0  0  0  0  0  0  0  0  0  0  0  0
    9.8317  -16.5755   22.2216 C   0  0  0  0  0  0  0  0  0  0  0  0
   10.7049  -15.8181   22.7413 O   0  0  0  0  0  0  0  0  0  0  0  0
    8.2223  -12.6165   17.8847 O   0  0  0  0  0  0  0  0  0  0  0  0
    7.9401  -13.0720   19.1701 C   0  0  0  0  0  0  0  0  0  0  0  0
    7.1606  -14.1925   19.3819 C   0  0  0  0  0  0  0  0  0  0  0  0
    6.8842  -14.6407   20.6802 C   0  0  0  0  0  0  0  0  0  0  0  0
    7.3803  -13.9782   21.7780 C   0  0  0  0  0  0  0  0  0  0  0  0
    7.0819  -14.4585   23.1311 C   0  0  0  0  0  0  0  0  0  0  0  0
    8.1397  -15.3597   23.6563 C   0  0  2  0  0  0  0  0  0  0  0  0
    8.5066  -16.3887   22.6884 N   0  0  0  0  0  0  0  0  0  0  0  0
    7.7752  -15.9757   24.9600 C   0  0  0  0  0  0  0  0  0  0  0  0
    6.5836  -16.1946   25.2852 O   0  0  0  0  0  0  0  0  0  0  0  0
    8.1519  -12.8672   21.5268 C   0  0  0  0  0  0  0  0  0  0  0  0
    8.4338  -12.4130   20.2651 C   0  0  0  0  0  0  0  0  0  0  0  0
    5.4996  -21.7695   23.4020 N   0  0  0  0  0  0  0  0  0  0  0  0
    5.7224  -22.3744   24.6606 C   0  0  0  0  0  0  0  0  0  0  0  0
    4.8877  -23.2058   25.1265 N   0  0  0  0  0  0  0  0  0  0  0  0
    6.8922  -22.0341   25.3882 N   0  0  0  0  0  0  0  0  0  0  0  0
    7.8198  -21.0139   24.8695 C   0  0  0  0  0  0  0  0  0  0  0  0
    7.8168  -19.8734   25.8245 C   0  0  0  0  0  0  0  0  0  0  0  0
    8.7896  -18.7863   25.5580 C   0  0  0  0  0  0  0  0  0  0  0  0
    8.8094  -17.6604   26.5252 C   0  0  2  0  0  0  0  0  0  0  0  0
    8.7673  -16.3512   25.9125 N   0  0  0  0  0  0  0  0  0  0  0  0
    9.9350  -17.6788   27.4864 C   0  0  0  0  0  0  0  0  0  0  0  0
   11.0048  -17.0886   27.2033 O   0  0  0  0  0  0  0  0  0  0  0  0
    9.8513  -18.3344   28.7041 O   0  0  0  0  0  0  0  0  0  0  0  0
  2  1  1  6
  2  3  1  0
  4  2  1  0
  4  5  2  0
  7  8  2  0
  7  6  1  0
  9  8  1  0
 10  9  2  0
 11 10  1  0
 12 11  1  6
 12 13  1  0
 13  4  1  0
 14 12  1  0
 15 14  2  0
 16 10  1  0
 16 17  2  0
 17  7  1  0
 19 18  1  0
 19 21  1  0
 20 19  2  0
 21 22  1  0
 22 23  1  0
 23 24  1  0
 25 24  1  6
 25 26  1  0
 25 27  1  0
 26 14  1  0
 27 28  2  0
 27 29  1  0
M  END
$$$$
