AYR.pdb
     RDKit          3D

 29 29  0  0  1  0  0  0  0  0999 V2000
    7.3838  -14.5364   19.1158 C   0  0  0  0  0  0  0  0  0  0  0  0
    7.4069  -13.2618   19.9321 C   0  0  2  0  0  0  0  0  0  0  0  0
    8.0367  -12.2399   19.1457 N   0  0  0  0  0  0  0  0  0  0  0  0
    8.1604  -13.5318   21.1877 C   0  0  0  0  0  0  0  0  0  0  0  0
    9.4275  -13.5471   21.2092 O   0  0  0  0  0  0  0  0  0  0  0  0
   10.2217  -14.9448   29.6770 O   0  0  0  0  0  0  0  0  0  0  0  0
    9.5254  -14.7091   28.4942 C   0  0  0  0  0  0  0  0  0  0  0  0
    8.9839  -15.7453   27.7588 C   0  0  0  0  0  0  0  0  0  0  0  0
    8.2852  -15.4949   26.5706 C   0  0  0  0  0  0  0  0  0  0  0  0
    8.1196  -14.2122   26.1041 C   0  0  0  0  0  0  0  0  0  0  0  0
    7.3866  -13.9653   24.8582 C   0  0  0  0  0  0  0  0  0  0  0  0
    8.2624  -14.0514   23.6614 C   0  0  2  0  0  0  0  0  0  0  0  0
    7.5262  -13.7871   22.4291 N   0  0  0  0  0  0  0  0  0  0  0  0
    8.9850  -15.3481   23.5697 C   0  0  0  0  0  0  0  0  0  0  0  0
    8.5338  -16.3192   22.9163 O   0  0  0  0  0  0  0  0  0  0  0  0
    8.6729  -13.2073   26.8636 C   0  0  0  0  0  0  0  0  0  0  0  0
    9.3594  -13.4314   28.0281 C   0  0  0  0  0  0  0  0  0  0  0  0
   15.6991  -14.6706   19.1599 N   0  0  0  0  0  0  0  0  0  0  0  0
   14.3332  -14.9768   18.9586 C   0  0  0  0  0  0  0  0  0  0  0  0
   13.7522  -14.6308   17.8872 N   0  0  0  0  0  0  0  0  0  0  0  0
   13.6294  -15.6746   19.9740 N   0  0  0  0  0  0  0  0  0  0  0  0
   14.2519  -15.8988   21.2902 C   0  0  0  0  0  0  0  0  0  0  0  0
   13.2556  -16.5943   22.1484 C   0  0  0  0  0  0  0  0  0  0  0  0
   12.2020  -15.7466   22.7572 C   0  0  0  0  0  0  0  0  0  0  0  0
   11.2642  -16.4197   23.6904 C   0  0  2  0  0  0  0  0  0  0  0  0
   10.2350  -15.5549   24.2233 N   0  0  0  0  0  0  0  0  0  0  0  0
   11.9046  -17.1211   24.8259 C   0  0  0  0  0  0  0  0  0  0  0  0
   11.7928  -18.3658   24.9313 O   0  0  0  0  0  0  0  0  0  0  0  0
   12.6317  -16.4448   25.7920 O   0  0  0  0  0  0  0  0  0  0  0  0
  2  1  1  6
  2  3  1  0
  4  2  1  0
  4  5  2  0
  7  8  2  0
  7  6  1  0
  9  8  1  0
 10  9  2  0
 11 10  1  0
 12 11  1  1
 12 13  1  0
 13  4  1  0
 14 12  1  0
 15 14  2  0
 16 10  1  0
 16 17  2  0
 17  7  1  0
 19 18  1  0
 19 21  1  0
 20 19  2  0
 21 22  1  0
 22 23  1  0
 23 24  1  0
 25 24  1  1
 25 26  1  0
 25 27  1  0
 26 14  1  0
 27 28  2  0
 27 29  1  0
M  END
$$$$
