AYR.pdb
     RDKit          3D

 29 29  0  0  1  0  0  0  0  0999 V2000
    9.6736  -19.7389   18.9282 C   0  0  0  0  0  0  0  0  0  0  0  0
    9.3099  -18.2870   18.7016 C   0  0  2  0  0  0  0  0  0  0  0  0
    9.9089  -17.8646   17.4680 N   0  0  0  0  0  0  0  0  0  0  0  0
    9.8182  -17.4983   19.8578 C   0  0  0  0  0  0  0  0  0  0  0  0
   10.9721  -16.9743   19.8459 O   0  0  0  0  0  0  0  0  0  0  0  0
    7.6830  -11.7028   18.4247 O   0  0  0  0  0  0  0  0  0  0  0  0
    7.9096  -12.6233   19.4448 C   0  0  0  0  0  0  0  0  0  0  0  0
    6.9552  -13.5579   19.7964 C   0  0  0  0  0  0  0  0  0  0  0  0
    7.1956  -14.4789   20.8243 C   0  0  0  0  0  0  0  0  0  0  0  0
    8.3867  -14.4776   21.5111 C   0  0  0  0  0  0  0  0  0  0  0  0
    8.6239  -15.4471   22.5856 C   0  0  0  0  0  0  0  0  0  0  0  0
    9.5641  -16.5226   22.1780 C   0  0  2  0  0  0  0  0  0  0  0  0
    9.0613  -17.2799   21.0361 N   0  0  0  0  0  0  0  0  0  0  0  0
    9.9124  -17.4369   23.2981 C   0  0  0  0  0  0  0  0  0  0  0  0
    9.0725  -18.2150   23.8107 O   0  0  0  0  0  0  0  0  0  0  0  0
    9.3118  -13.5324   21.1325 C   0  0  0  0  0  0  0  0  0  0  0  0
    9.0960  -12.6235   20.1301 C   0  0  0  0  0  0  0  0  0  0  0  0
   15.0100  -18.0042   21.3323 N   0  0  0  0  0  0  0  0  0  0  0  0
   15.1647  -19.3792   21.0404 C   0  0  0  0  0  0  0  0  0  0  0  0
   15.3443  -19.7625   19.8463 N   0  0  0  0  0  0  0  0  0  0  0  0
   15.1146  -20.3165   22.1046 N   0  0  0  0  0  0  0  0  0  0  0  0
   14.8615  -19.8632   23.4832 C   0  0  0  0  0  0  0  0  0  0  0  0
   13.4531  -19.3892   23.5514 C   0  0  0  0  0  0  0  0  0  0  0  0
   12.9989  -18.8539   24.8577 C   0  0  0  0  0  0  0  0  0  0  0  0
   11.5980  -18.3679   24.9259 C   0  0  2  0  0  0  0  0  0  0  0  0
   11.2263  -17.4763   23.8498 N   0  0  0  0  0  0  0  0  0  0  0  0
   11.2187  -17.7244   26.2039 C   0  0  0  0  0  0  0  0  0  0  0  0
   11.1682  -18.4082   27.2540 O   0  0  0  0  0  0  0  0  0  0  0  0
   10.9109  -16.3760   26.2851 O   0  0  0  0  0  0  0  0  0  0  0  0
  2  1  1  1
  2  3  1  0
  4  2  1  0
  4  5  2  0
  7  8  2  0
  7  6  1  0
  9  8  1  0
 10  9  2  0
 11 10  1  0
 12 11  1  1
 12 13  1  0
 13  4  1  0
 14 12  1  0
 15 14  2  0
 16 10  1  0
 16 17  2  0
 17  7  1  0
 19 18  1  0
 19 21  1  0
 20 19  2  0
 21 22  1  0
 22 23  1  0
 23 24  1  0
 25 24  1  1
 25 26  1  0
 25 27  1  0
 26 14  1  0
 27 28  2  0
 27 29  1  0
M  END
$$$$
