AYR.pdb
     RDKit          3D

 29 29  0  0  1  0  0  0  0  0999 V2000
    6.8764  -12.3565   20.2290 C   0  0  0  0  0  0  0  0  0  0  0  0
    7.1751  -13.8213   20.4676 C   0  0  2  0  0  0  0  0  0  0  0  0
    5.9303  -14.5000   20.6888 N   0  0  0  0  0  0  0  0  0  0  0  0
    8.0740  -13.9219   21.6504 C   0  0  0  0  0  0  0  0  0  0  0  0
    9.2942  -13.5857   21.5853 O   0  0  0  0  0  0  0  0  0  0  0  0
   11.0252  -15.1652   29.9153 O   0  0  0  0  0  0  0  0  0  0  0  0
   10.2198  -14.9714   28.7959 C   0  0  0  0  0  0  0  0  0  0  0  0
    9.9656  -13.7067   28.3020 C   0  0  0  0  0  0  0  0  0  0  0  0
    9.1538  -13.5252   27.1747 C   0  0  0  0  0  0  0  0  0  0  0  0
    8.5882  -14.5997   26.5297 C   0  0  0  0  0  0  0  0  0  0  0  0
    7.7398  -14.3943   25.3513 C   0  0  0  0  0  0  0  0  0  0  0  0
    8.5092  -14.4651   24.0825 C   0  0  2  0  0  0  0  0  0  0  0  0
    7.6377  -14.3932   22.9139 N   0  0  0  0  0  0  0  0  0  0  0  0
    9.3851  -15.6647   24.0074 C   0  0  0  0  0  0  0  0  0  0  0  0
    8.9275  -16.8135   23.7962 O   0  0  0  0  0  0  0  0  0  0  0  0
    8.8643  -15.8426   27.0510 C   0  0  0  0  0  0  0  0  0  0  0  0
    9.6555  -16.0411   28.1519 C   0  0  0  0  0  0  0  0  0  0  0  0
   14.0994  -14.2832   18.0026 N   0  0  0  0  0  0  0  0  0  0  0  0
   15.1644  -14.9667   18.6339 C   0  0  0  0  0  0  0  0  0  0  0  0
   16.3564  -14.7937   18.2412 N   0  0  0  0  0  0  0  0  0  0  0  0
   14.8742  -15.8455   19.7095 N   0  0  0  0  0  0  0  0  0  0  0  0
   13.4853  -16.0299   20.1648 C   0  0  0  0  0  0  0  0  0  0  0  0
   13.5235  -16.3283   21.6216 C   0  0  0  0  0  0  0  0  0  0  0  0
   12.5816  -15.5662   22.4769 C   0  0  0  0  0  0  0  0  0  0  0  0
   11.7317  -16.3592   23.3999 C   0  0  2  0  0  0  0  0  0  0  0  0
   10.7980  -15.5699   24.1722 N   0  0  0  0  0  0  0  0  0  0  0  0
   12.4707  -17.2370   24.3352 C   0  0  0  0  0  0  0  0  0  0  0  0
   13.2364  -18.1220   23.8844 O   0  0  0  0  0  0  0  0  0  0  0  0
   12.3453  -17.1178   25.7098 O   0  0  0  0  0  0  0  0  0  0  0  0
  2  1  1  1
  2  3  1  0
  4  2  1  0
  4  5  2  0
  7  8  2  0
  7  6  1  0
  9  8  1  0
 10  9  2  0
 11 10  1  0
 12 11  1  1
 12 13  1  0
 13  4  1  0
 14 12  1  0
 15 14  2  0
 16 10  1  0
 16 17  2  0
 17  7  1  0
 19 18  1  0
 19 21  1  0
 20 19  2  0
 21 22  1  0
 22 23  1  0
 23 24  1  0
 25 24  1  1
 25 26  1  0
 25 27  1  0
 26 14  1  0
 27 28  2  0
 27 29  1  0
M  END
$$$$
