VTA.pdb
     RDKit          3D

 20 19  0  0  1  0  0  0  0  0999 V2000
    8.1265  -12.4606   21.1348 C   0  0  0  0  0  0  0  0  0  0  0  0
    7.7447  -13.5064   20.1292 C   0  0  1  0  0  0  0  0  0  0  0  0
    8.0265  -13.0992   18.7208 C   0  0  0  0  0  0  0  0  0  0  0  0
    8.2851  -14.8801   20.4705 C   0  0  2  0  0  0  0  0  0  0  0  0
    7.6201  -15.7923   19.5244 N   0  0  0  0  0  0  0  0  0  0  0  0
    7.9710  -15.3298   21.8213 C   0  0  0  0  0  0  0  0  0  0  0  0
    6.9460  -16.0612   22.0524 O   0  0  0  0  0  0  0  0  0  0  0  0
    7.6439  -17.5675   23.0463 C   0  0  0  0  0  0  0  0  0  0  0  0
    8.6346  -17.1355   24.1105 C   0  0  1  0  0  0  0  0  0  0  0  0
    9.9378  -17.4512   23.7309 O   0  0  0  0  0  0  0  0  0  0  0  0
    8.4810  -15.6175   24.2827 C   0  0  2  0  0  0  0  0  0  0  0  0
    8.7242  -15.0284   22.9892 N   0  0  0  0  0  0  0  0  0  0  0  0
    9.5041  -15.2232   25.2895 C   0  0  0  0  0  0  0  0  0  0  0  0
   10.7316  -15.2374   25.0902 O   0  0  0  0  0  0  0  0  0  0  0  0
    9.0316  -13.3462   28.5195 C   0  0  0  0  0  0  0  0  0  0  0  0
    9.8336  -14.2476   27.5938 C   0  0  2  0  0  0  0  0  0  0  0  0
    9.0067  -14.8065   26.5571 N   0  0  0  0  0  0  0  0  0  0  0  0
   10.3205  -15.3849   28.4498 C   0  0  0  0  0  0  0  0  0  0  0  0
   11.1109  -15.2218   29.4011 O   0  0  0  0  0  0  0  0  0  0  0  0
    9.8882  -16.6844   28.1937 O   0  0  0  0  0  0  0  0  0  0  0  0
  2  1  1  1
  2  4  1  0
  3  2  1  0
  4  5  1  6
  6  4  1  0
  7  6  2  0
  9  8  1  6
  9 11  1  0
 10  9  1  0
 11 12  1  6
 11 13  1  0
 12  6  1  0
 13 17  1  0
 14 13  2  0
 16 18  1  0
 16 15  1  1
 17 16  1  0
 18 20  1  0
 19 18  2  0
M  END
$$$$
