VTA.pdb
     RDKit          3D

 20 19  0  0  1  0  0  0  0  0999 V2000
    2.5305  -18.7224   21.7761 C   0  0  0  0  0  0  0  0  0  0  0  0
    3.9563  -18.2687   21.8864 C   0  0  1  0  0  0  0  0  0  0  0  0
    4.8321  -19.2476   22.5960 C   0  0  0  0  0  0  0  0  0  0  0  0
    4.5329  -17.8043   20.5645 C   0  0  2  0  0  0  0  0  0  0  0  0
    4.3881  -18.9603   19.6633 N   0  0  0  0  0  0  0  0  0  0  0  0
    5.9468  -17.4525   20.6171 C   0  0  0  0  0  0  0  0  0  0  0  0
    6.8549  -18.3465   20.4938 O   0  0  0  0  0  0  0  0  0  0  0  0
    7.5331  -14.1708   19.2419 C   0  0  0  0  0  0  0  0  0  0  0  0
    8.0563  -14.3656   20.6522 C   0  0  1  0  0  0  0  0  0  0  0  0
    7.3648  -13.5574   21.5526 O   0  0  0  0  0  0  0  0  0  0  0  0
    7.8631  -15.8470   21.0062 C   0  0  2  0  0  0  0  0  0  0  0  0
    6.4664  -16.1418   20.8020 N   0  0  0  0  0  0  0  0  0  0  0  0
    8.2691  -15.9740   22.4328 C   0  0  0  0  0  0  0  0  0  0  0  0
    7.4760  -16.0745   23.3854 O   0  0  0  0  0  0  0  0  0  0  0  0
    9.9939  -17.5275   24.5510 C   0  0  0  0  0  0  0  0  0  0  0  0
   10.2429  -16.1330   23.9978 C   0  0  2  0  0  0  0  0  0  0  0  0
    9.6703  -15.9769   22.6867 N   0  0  0  0  0  0  0  0  0  0  0  0
   11.7357  -16.0073   23.8599 C   0  0  0  0  0  0  0  0  0  0  0  0
   12.5052  -16.0055   24.8419 O   0  0  0  0  0  0  0  0  0  0  0  0
   12.3111  -15.8866   22.5968 O   0  0  0  0  0  0  0  0  0  0  0  0
  2  1  1  6
  2  4  1  0
  3  2  1  0
  4  5  1  6
  6  4  1  0
  7  6  2  0
  9  8  1  6
  9 11  1  0
 10  9  1  0
 11 12  1  1
 11 13  1  0
 12  6  1  0
 13 17  1  0
 14 13  2  0
 16 18  1  0
 16 15  1  6
 17 16  1  0
 18 20  1  0
 19 18  2  0
M  END
$$$$
