VTA.pdb
     RDKit          3D

 20 19  0  0  1  0  0  0  0  0999 V2000
    8.4135  -12.5959   19.2477 C   0  0  0  0  0  0  0  0  0  0  0  0
    8.3210  -13.2551   20.5922 C   0  0  1  0  0  0  0  0  0  0  0  0
    6.9660  -13.1459   21.2093 C   0  0  0  0  0  0  0  0  0  0  0  0
    8.8637  -14.6698   20.5957 C   0  0  2  0  0  0  0  0  0  0  0  0
    8.0393  -15.3919   19.6116 N   0  0  0  0  0  0  0  0  0  0  0  0
    8.7379  -15.3575   21.8752 C   0  0  0  0  0  0  0  0  0  0  0  0
    7.6039  -15.7879   22.2850 O   0  0  0  0  0  0  0  0  0  0  0  0
    9.6345  -18.4227   23.1512 C   0  0  0  0  0  0  0  0  0  0  0  0
   10.3472  -17.5132   24.1337 C   0  0  1  0  0  0  0  0  0  0  0  0
   11.6857  -17.3542   23.7796 O   0  0  0  0  0  0  0  0  0  0  0  0
    9.6226  -16.1598   24.1056 C   0  0  2  0  0  0  0  0  0  0  0  0
    9.8027  -15.6223   22.7796 N   0  0  0  0  0  0  0  0  0  0  0  0
   10.2827  -15.3304   25.1507 C   0  0  0  0  0  0  0  0  0  0  0  0
   10.9286  -14.2923   24.9232 O   0  0  0  0  0  0  0  0  0  0  0  0
    9.7227  -13.8235   27.8888 C   0  0  0  0  0  0  0  0  0  0  0  0
   10.5952  -15.0437   27.6388 C   0  0  2  0  0  0  0  0  0  0  0  0
   10.1440  -15.7874   26.4923 N   0  0  0  0  0  0  0  0  0  0  0  0
   10.4252  -15.9236   28.8472 C   0  0  0  0  0  0  0  0  0  0  0  0
    9.7529  -16.9743   28.8264 O   0  0  0  0  0  0  0  0  0  0  0  0
   11.0316  -15.5766   30.0526 O   0  0  0  0  0  0  0  0  0  0  0  0
  2  1  1  6
  2  4  1  0
  3  2  1  0
  4  5  1  6
  6  4  1  0
  7  6  2  0
  9  8  1  6
  9 11  1  0
 10  9  1  0
 11 12  1  6
 11 13  1  0
 12  6  1  0
 13 17  1  0
 14 13  2  0
 16 18  1  0
 16 15  1  1
 17 16  1  0
 18 20  1  0
 19 18  2  0
M  END
$$$$
