VTA.pdb
     RDKit          3D

 20 19  0  0  1  0  0  0  0  0999 V2000
    7.9612  -16.2848   19.5986 C   0  0  0  0  0  0  0  0  0  0  0  0
    7.9596  -14.9026   19.0150 C   0  0  1  0  0  0  0  0  0  0  0  0
    7.2591  -14.8201   17.6993 C   0  0  0  0  0  0  0  0  0  0  0  0
    7.5021  -13.8457   19.9995 C   0  0  2  0  0  0  0  0  0  0  0  0
    7.7665  -12.5631   19.3253 N   0  0  0  0  0  0  0  0  0  0  0  0
    8.2314  -13.8460   21.2621 C   0  0  0  0  0  0  0  0  0  0  0  0
    9.4321  -13.4071   21.3314 O   0  0  0  0  0  0  0  0  0  0  0  0
    7.2672  -12.6483   24.7650 C   0  0  0  0  0  0  0  0  0  0  0  0
    7.6214  -14.1181   24.8868 C   0  0  1  0  0  0  0  0  0  0  0  0
    6.4729  -14.9072   24.8685 O   0  0  0  0  0  0  0  0  0  0  0  0
    8.5276  -14.4656   23.6971 C   0  0  2  0  0  0  0  0  0  0  0  0
    7.7267  -14.3090   22.5082 N   0  0  0  0  0  0  0  0  0  0  0  0
    8.9526  -15.8754   23.9158 C   0  0  0  0  0  0  0  0  0  0  0  0
    8.2961  -16.8720   23.5658 O   0  0  0  0  0  0  0  0  0  0  0  0
   12.2647  -17.3232   24.9317 C   0  0  0  0  0  0  0  0  0  0  0  0
   10.7443  -17.3465   24.9137 C   0  0  2  0  0  0  0  0  0  0  0  0
   10.2021  -16.0574   24.5740 N   0  0  0  0  0  0  0  0  0  0  0  0
   10.3225  -17.6601   26.3233 C   0  0  0  0  0  0  0  0  0  0  0  0
    9.6631  -16.8643   27.0221 O   0  0  0  0  0  0  0  0  0  0  0  0
   10.6679  -18.8811   26.8987 O   0  0  0  0  0  0  0  0  0  0  0  0
  2  1  1  1
  2  4  1  0
  3  2  1  0
  4  5  1  6
  6  4  1  0
  7  6  2  0
  9  8  1  6
  9 11  1  0
 10  9  1  0
 11 12  1  6
 11 13  1  0
 12  6  1  0
 13 17  1  0
 14 13  2  0
 16 18  1  0
 16 15  1  1
 17 16  1  0
 18 20  1  0
 19 18  2  0
M  END
$$$$
