VTA.pdb
     RDKit          3D

 20 19  0  0  1  0  0  0  0  0999 V2000
    8.1920  -12.3966   21.3774 C   0  0  0  0  0  0  0  0  0  0  0  0
    7.7553  -13.3814   20.3331 C   0  0  1  0  0  0  0  0  0  0  0  0
    7.8891  -12.8605   18.9405 C   0  0  0  0  0  0  0  0  0  0  0  0
    8.3743  -14.7520   20.5174 C   0  0  2  0  0  0  0  0  0  0  0  0
    7.6621  -15.6184   19.5625 N   0  0  0  0  0  0  0  0  0  0  0  0
    8.1980  -15.3157   21.8504 C   0  0  0  0  0  0  0  0  0  0  0  0
    7.0377  -15.6444   22.2803 O   0  0  0  0  0  0  0  0  0  0  0  0
   10.9190  -17.5695   23.5510 C   0  0  0  0  0  0  0  0  0  0  0  0
    9.4876  -17.5700   24.0527 C   0  0  1  0  0  0  0  0  0  0  0  0
    9.4065  -18.1509   25.3169 O   0  0  0  0  0  0  0  0  0  0  0  0
    9.0261  -16.1066   24.1064 C   0  0  2  0  0  0  0  0  0  0  0  0
    9.2377  -15.5582   22.7896 N   0  0  0  0  0  0  0  0  0  0  0  0
    9.8789  -15.4554   25.1382 C   0  0  0  0  0  0  0  0  0  0  0  0
   11.0031  -14.9704   24.9201 O   0  0  0  0  0  0  0  0  0  0  0  0
    8.9807  -13.8223   28.2877 C   0  0  0  0  0  0  0  0  0  0  0  0
    9.9684  -14.7112   27.5483 C   0  0  2  0  0  0  0  0  0  0  0  0
    9.3381  -15.4021   26.4545 N   0  0  0  0  0  0  0  0  0  0  0  0
   10.4130  -15.7471   28.5445 C   0  0  0  0  0  0  0  0  0  0  0  0
   10.0888  -16.9486   28.4574 O   0  0  0  0  0  0  0  0  0  0  0  0
   11.2204  -15.3793   29.6188 O   0  0  0  0  0  0  0  0  0  0  0  0
  2  1  1  1
  2  4  1  0
  3  2  1  0
  4  5  1  6
  6  4  1  0
  7  6  2  0
  9  8  1  1
  9 11  1  0
 10  9  1  0
 11 12  1  6
 11 13  1  0
 12  6  1  0
 13 17  1  0
 14 13  2  0
 16 18  1  0
 16 15  1  1
 17 16  1  0
 18 20  1  0
 19 18  2  0
M  END
$$$$
