VTA.pdb
     RDKit          3D

 20 19  0  0  1  0  0  0  0  0999 V2000
    6.5019  -10.6964   26.3492 C   0  0  0  0  0  0  0  0  0  0  0  0
    7.1351  -12.0083   25.9907 C   0  0  1  0  0  0  0  0  0  0  0  0
    7.7410  -12.7088   27.1616 C   0  0  0  0  0  0  0  0  0  0  0  0
    6.2250  -12.8996   25.1703 C   0  0  2  0  0  0  0  0  0  0  0  0
    5.0917  -13.2026   26.0611 N   0  0  0  0  0  0  0  0  0  0  0  0
    6.8279  -14.1645   24.7675 C   0  0  0  0  0  0  0  0  0  0  0  0
    6.8993  -15.1508   25.5806 O   0  0  0  0  0  0  0  0  0  0  0  0
    6.9967  -15.2228   20.9811 C   0  0  0  0  0  0  0  0  0  0  0  0
    8.2986  -15.6431   21.6360 C   0  0  1  0  0  0  0  0  0  0  0  0
    9.3192  -14.7448   21.3300 O   0  0  0  0  0  0  0  0  0  0  0  0
    8.0531  -15.6770   23.1512 C   0  0  2  0  0  0  0  0  0  0  0  0
    7.3823  -14.4459   23.4886 N   0  0  0  0  0  0  0  0  0  0  0  0
    9.4017  -15.7796   23.7733 C   0  0  0  0  0  0  0  0  0  0  0  0
   10.1310  -14.8081   24.0397 O   0  0  0  0  0  0  0  0  0  0  0  0
   11.0956  -18.6795   25.4627 C   0  0  0  0  0  0  0  0  0  0  0  0
   11.1328  -17.3841   24.6670 C   0  0  2  0  0  0  0  0  0  0  0  0
    9.8555  -17.0964   24.0699 N   0  0  0  0  0  0  0  0  0  0  0  0
   12.1145  -17.6167   23.5510 C   0  0  0  0  0  0  0  0  0  0  0  0
   11.7605  -17.7880   22.3671 O   0  0  0  0  0  0  0  0  0  0  0  0
   13.4812  -17.6472   23.8203 O   0  0  0  0  0  0  0  0  0  0  0  0
  2  1  1  1
  2  4  1  0
  3  2  1  0
  4  5  1  1
  6  4  1  0
  7  6  2  0
  9  8  1  6
  9 11  1  0
 10  9  1  0
 11 12  1  1
 11 13  1  0
 12  6  1  0
 13 17  1  0
 14 13  2  0
 16 18  1  0
 16 15  1  1
 17 16  1  0
 18 20  1  0
 19 18  2  0
M  END
$$$$
