VTA.pdb
     RDKit          3D

 20 19  0  0  1  0  0  0  0  0999 V2000
    6.4515  -10.6463   26.4921 C   0  0  0  0  0  0  0  0  0  0  0  0
    7.1285  -11.9277   26.1038 C   0  0  1  0  0  0  0  0  0  0  0  0
    7.9247  -12.5321   27.2127 C   0  0  0  0  0  0  0  0  0  0  0  0
    6.1902  -12.9143   25.4392 C   0  0  2  0  0  0  0  0  0  0  0  0
    5.2262  -13.2837   26.4898 N   0  0  0  0  0  0  0  0  0  0  0  0
    6.8355  -14.1364   24.9745 C   0  0  0  0  0  0  0  0  0  0  0  0
    7.0061  -15.1330   25.7598 O   0  0  0  0  0  0  0  0  0  0  0  0
    6.9128  -14.8262   21.1306 C   0  0  0  0  0  0  0  0  0  0  0  0
    8.1584  -15.4674   21.7118 C   0  0  1  0  0  0  0  0  0  0  0  0
    9.2841  -14.6886   21.4503 O   0  0  0  0  0  0  0  0  0  0  0  0
    7.9373  -15.5956   23.2258 C   0  0  2  0  0  0  0  0  0  0  0  0
    7.3296  -14.3621   23.6604 N   0  0  0  0  0  0  0  0  0  0  0  0
    9.2901  -15.8014   23.8121 C   0  0  0  0  0  0  0  0  0  0  0  0
   10.0747  -14.8849   24.1135 O   0  0  0  0  0  0  0  0  0  0  0  0
   10.7953  -18.9319   25.2848 C   0  0  0  0  0  0  0  0  0  0  0  0
   10.8996  -17.5370   24.6879 C   0  0  2  0  0  0  0  0  0  0  0  0
    9.6790  -17.1540   24.0288 N   0  0  0  0  0  0  0  0  0  0  0  0
   11.9758  -17.6191   23.6400 C   0  0  0  0  0  0  0  0  0  0  0  0
   13.1806  -17.7775   23.9225 O   0  0  0  0  0  0  0  0  0  0  0  0
   11.6438  -17.5172   22.2907 O   0  0  0  0  0  0  0  0  0  0  0  0
  2  1  1  1
  2  4  1  0
  3  2  1  0
  4  5  1  1
  6  4  1  0
  7  6  2  0
  9  8  1  6
  9 11  1  0
 10  9  1  0
 11 12  1  1
 11 13  1  0
 12  6  1  0
 13 17  1  0
 14 13  2  0
 16 18  1  0
 16 15  1  6
 17 16  1  0
 18 20  1  0
 19 18  2  0
M  END
$$$$
