VTA.pdb
     RDKit          3D

 20 19  0  0  1  0  0  0  0  0999 V2000
    1.3448  -20.3280   21.5094 C   0  0  0  0  0  0  0  0  0  0  0  0
    2.7682  -19.9822   21.1850 C   0  0  1  0  0  0  0  0  0  0  0  0
    2.9011  -19.0963   19.9907 C   0  0  0  0  0  0  0  0  0  0  0  0
    3.5434  -19.4808   22.3864 C   0  0  2  0  0  0  0  0  0  0  0  0
    2.7919  -18.3039   22.8553 N   0  0  0  0  0  0  0  0  0  0  0  0
    4.9042  -19.0521   22.0862 C   0  0  0  0  0  0  0  0  0  0  0  0
    5.8258  -19.9053   21.8378 O   0  0  0  0  0  0  0  0  0  0  0  0
    6.6909  -17.3285   19.4744 C   0  0  0  0  0  0  0  0  0  0  0  0
    6.8546  -16.4277   20.6837 C   0  0  1  0  0  0  0  0  0  0  0  0
    5.8727  -15.4389   20.7009 O   0  0  0  0  0  0  0  0  0  0  0  0
    6.7391  -17.3172   21.9299 C   0  0  2  0  0  0  0  0  0  0  0  0
    5.3538  -17.7041   22.0343 N   0  0  0  0  0  0  0  0  0  0  0  0
    7.1807  -16.4682   23.0702 C   0  0  0  0  0  0  0  0  0  0  0  0
    6.4190  -15.7842   23.7763 O   0  0  0  0  0  0  0  0  0  0  0  0
    8.6847  -15.7969   25.6935 C   0  0  0  0  0  0  0  0  0  0  0  0
    9.2049  -15.5719   24.2823 C   0  0  2  0  0  0  0  0  0  0  0  0
    8.5785  -16.4634   23.3421 N   0  0  0  0  0  0  0  0  0  0  0  0
   10.6694  -15.9131   24.3261 C   0  0  0  0  0  0  0  0  0  0  0  0
   11.1211  -16.9986   23.9090 O   0  0  0  0  0  0  0  0  0  0  0  0
   11.5824  -14.9994   24.8483 O   0  0  0  0  0  0  0  0  0  0  0  0
  2  1  1  1
  2  4  1  0
  3  2  1  0
  4  5  1  6
  6  4  1  0
  7  6  2  0
  9  8  1  6
  9 11  1  0
 10  9  1  0
 11 12  1  1
 11 13  1  0
 12  6  1  0
 13 17  1  0
 14 13  2  0
 16 18  1  0
 16 15  1  1
 17 16  1  0
 18 20  1  0
 19 18  2  0
M  END
$$$$
