VTA.pdb
     RDKit          3D

 20 19  0  0  1  0  0  0  0  0999 V2000
  -13.1562  -23.9614   31.3880 C   0  0  0  0  0  0  0  0  0  0  0  0
  -13.7493  -24.1205   30.0191 C   0  0  1  0  0  0  0  0  0  0  0  0
  -14.7989  -23.1047   29.7108 C   0  0  0  0  0  0  0  0  0  0  0  0
  -12.7016  -24.2420   28.9313 C   0  0  2  0  0  0  0  0  0  0  0  0
  -13.4492  -24.6613   27.7335 N   0  0  0  0  0  0  0  0  0  0  0  0
  -11.6778  -25.2463   29.1939 C   0  0  0  0  0  0  0  0  0  0  0  0
  -11.9565  -26.4956   29.1701 O   0  0  0  0  0  0  0  0  0  0  0  0
   -8.6386  -26.1829   27.4861 C   0  0  0  0  0  0  0  0  0  0  0  0
   -8.1592  -25.8021   28.8739 C   0  0  1  0  0  0  0  0  0  0  0  0
   -7.7209  -24.4795   28.9006 O   0  0  0  0  0  0  0  0  0  0  0  0
   -9.3452  -25.9915   29.8304 C   0  0  2  0  0  0  0  0  0  0  0  0
  -10.3138  -24.9777   29.4931 N   0  0  0  0  0  0  0  0  0  0  0  0
   -8.7880  -25.8135   31.1993 C   0  0  0  0  0  0  0  0  0  0  0  0
   -8.8754  -24.7672   31.8657 O   0  0  0  0  0  0  0  0  0  0  0  0
   -7.0080  -28.3427   33.4231 C   0  0  0  0  0  0  0  0  0  0  0  0
   -7.5931  -26.9784   33.0929 C   0  0  2  0  0  0  0  0  0  0  0  0
   -8.1150  -26.9401   31.7522 N   0  0  0  0  0  0  0  0  0  0  0  0
   -6.4425  -26.0117   33.1607 C   0  0  0  0  0  0  0  0  0  0  0  0
   -5.8278  -25.6237   32.1468 O   0  0  0  0  0  0  0  0  0  0  0  0
   -6.0237  -25.5123   34.3922 O   0  0  0  0  0  0  0  0  0  0  0  0
  2  1  1  1
  2  4  1  0
  3  2  1  0
  4  5  1  6
  6  4  1  0
  7  6  2  0
  9  8  1  6
  9 11  1  0
 10  9  1  0
 11 12  1  6
 11 13  1  0
 12  6  1  0
 13 17  1  0
 14 13  2  0
 16 18  1  0
 16 15  1  6
 17 16  1  0
 18 20  1  0
 19 18  2  0
M  END
$$$$
