CRP.pdb
     RDKit          3D

 25 25  0  0  1  0  0  0  0  0999 V2000
    7.1241  -15.1800   19.0163 N   0  0  0  0  0  0  0  0  0  0  0  0
    7.8751  -14.5107   20.0309 C   0  0  1  0  0  0  0  0  0  0  0  0
    7.9568  -13.0156   19.8120 C   0  0  0  0  0  0  0  0  0  0  0  0
    9.1372  -12.6787   18.4723 S   0  0  0  0  0  0  0  0  0  0  0  0
    7.3990  -14.7309   21.4004 C   0  0  0  0  0  0  0  0  0  0  0  0
    6.2204  -14.3740   21.6579 O   0  0  0  0  0  0  0  0  0  0  0  0
    7.8954  -21.6036   25.5092 N   0  0  0  0  0  0  0  0  0  0  0  0
    7.4546  -20.7008   26.5271 C   0  0  0  0  0  0  0  0  0  0  0  0
    6.9744  -21.1779   27.6281 N   0  0  0  0  0  0  0  0  0  0  0  0
    7.5250  -19.2962   26.3754 N   0  0  0  0  0  0  0  0  0  0  0  0
    6.5634  -18.6033   25.5724 C   0  0  0  0  0  0  0  0  0  0  0  0
    6.8780  -17.0958   25.5089 C   0  0  0  0  0  0  0  0  0  0  0  0
    7.3580  -16.8462   24.1165 C   0  0  0  0  0  0  0  0  0  0  0  0
    7.6071  -15.3946   23.7635 C   0  0  2  0  0  0  0  0  0  0  0  0
    8.1528  -15.3078   22.4472 N   0  0  0  0  0  0  0  0  0  0  0  0
    8.3149  -14.6316   24.8041 C   0  0  0  0  0  0  0  0  0  0  0  0
    9.6103  -14.7204   24.8473 O   0  0  0  0  0  0  0  0  0  0  0  0
    6.6754  -20.5301   28.3883 N   0  0  0  0  0  0  0  0  0  0  0  0
    7.7630  -13.7922   25.7909 C   0  0  0  0  0  0  0  0  0  0  0  0
    6.3111  -13.6097   25.9636 C   0  0  0  0  0  0  0  0  0  0  0  0
    6.1366  -12.6349   27.0842 C   0  0  0  0  0  0  0  0  0  0  0  0
    7.4244  -11.8525   27.0847 C   0  0  2  0  0  0  0  0  0  0  0  0
    8.4166  -12.9831   26.7718 C   0  0  0  0  0  0  0  0  0  0  0  0
    8.6141  -13.6892   28.0599 O   0  0  0  0  0  0  0  0  0  0  0  0
    9.3705  -13.1245   29.0664 O   0  0  0  0  0  0  0  0  0  0  0  0
  2  5  1  0
  2  1  1  6
  3  2  1  0
  4  3  1  0
  5  6  2  0
  7  8  1  0
  8 10  1  0
  8  9  2  0
 10 11  1  0
 11 12  1  0
 14 13  1  1
 13 12  1  0
 15 14  1  0
 15  5  1  0
 16 17  2  0
 16 14  1  0
 18 16  1  0
 19 18  1  0
 20 21  1  0
 20 19  1  0
 21 22  1  0
 22 18  1  0
 22 23  1  1
 24 23  1  0
 25 23  2  0
M  END
$$$$
