CRP.pdb
     RDKit          3D

 25 25  0  0  1  0  0  0  0  0999 V2000
    7.7062  -16.2207   18.8741 N   0  0  0  0  0  0  0  0  0  0  0  0
    8.1683  -15.1401   19.6866 C   0  0  1  0  0  0  0  0  0  0  0  0
    8.1514  -13.8112   18.9628 C   0  0  0  0  0  0  0  0  0  0  0  0
    8.7294  -12.5142   20.0965 S   0  0  0  0  0  0  0  0  0  0  0  0
    7.4462  -14.9633   20.9507 C   0  0  0  0  0  0  0  0  0  0  0  0
    6.2195  -15.2425   20.9498 O   0  0  0  0  0  0  0  0  0  0  0  0
    8.8285  -20.6593   25.8784 N   0  0  0  0  0  0  0  0  0  0  0  0
    7.6342  -20.1501   26.4786 C   0  0  0  0  0  0  0  0  0  0  0  0
    7.0217  -20.8622   27.3663 N   0  0  0  0  0  0  0  0  0  0  0  0
    7.0941  -18.8881   26.1370 N   0  0  0  0  0  0  0  0  0  0  0  0
    7.2755  -18.3524   24.8219 C   0  0  0  0  0  0  0  0  0  0  0  0
    6.6764  -16.9364   24.7130 C   0  0  0  0  0  0  0  0  0  0  0  0
    7.1931  -16.3818   23.4258 C   0  0  0  0  0  0  0  0  0  0  0  0
    7.4411  -14.8877   23.4129 C   0  0  2  0  0  0  0  0  0  0  0  0
    8.0138  -14.5073   22.1618 N   0  0  0  0  0  0  0  0  0  0  0  0
    8.1224  -14.3770   24.6133 C   0  0  0  0  0  0  0  0  0  0  0  0
    9.3442  -14.7625   24.8286 O   0  0  0  0  0  0  0  0  0  0  0  0
    6.1648  -20.4906   27.8295 N   0  0  0  0  0  0  0  0  0  0  0  0
    7.6153  -13.5003   25.5916 C   0  0  0  0  0  0  0  0  0  0  0  0
    6.2129  -13.0487   25.6098 C   0  0  0  0  0  0  0  0  0  0  0  0
    6.0816  -12.1197   26.7744 C   0  0  0  0  0  0  0  0  0  0  0  0
    7.4818  -11.6035   26.9829 C   0  0  2  0  0  0  0  0  0  0  0  0
    8.2778  -12.8869   26.7002 C   0  0  0  0  0  0  0  0  0  0  0  0
    8.1746  -13.6855   27.9445 O   0  0  0  0  0  0  0  0  0  0  0  0
    8.8724  -13.3212   29.0778 O   0  0  0  0  0  0  0  0  0  0  0  0
  2  5  1  0
  2  1  1  6
  3  2  1  0
  4  3  1  0
  5  6  2  0
  7  8  1  0
  8 10  1  0
  8  9  2  0
 10 11  1  0
 11 12  1  0
 14 13  1  1
 13 12  1  0
 15 14  1  0
 15  5  1  0
 16 17  2  0
 16 14  1  0
 18 16  1  0
 19 18  1  0
 20 21  1  0
 20 19  1  0
 21 22  1  0
 22 18  1  0
 22 23  1  1
 24 23  1  0
 25 23  2  0
M  END
$$$$
