CRP.pdb
     RDKit          3D

 25 25  0  0  1  0  0  0  0  0999 V2000
    7.6724  -15.6776   18.8842 N   0  0  0  0  0  0  0  0  0  0  0  0
    7.9657  -14.6422   19.8241 C   0  0  1  0  0  0  0  0  0  0  0  0
    7.4926  -13.2801   19.3650 C   0  0  0  0  0  0  0  0  0  0  0  0
    8.6538  -12.6396   18.1228 S   0  0  0  0  0  0  0  0  0  0  0  0
    7.4347  -14.8623   21.1733 C   0  0  0  0  0  0  0  0  0  0  0  0
    6.2485  -15.2729   21.2585 O   0  0  0  0  0  0  0  0  0  0  0  0
    8.7382  -20.8432   25.8015 N   0  0  0  0  0  0  0  0  0  0  0  0
    7.3786  -20.6930   25.3838 C   0  0  0  0  0  0  0  0  0  0  0  0
    6.6171  -21.7358   25.3284 N   0  0  0  0  0  0  0  0  0  0  0  0
    6.8304  -19.4386   25.0275 N   0  0  0  0  0  0  0  0  0  0  0  0
    7.5271  -18.2270   25.3378 C   0  0  0  0  0  0  0  0  0  0  0  0
    6.6906  -16.9920   24.9495 C   0  0  0  0  0  0  0  0  0  0  0  0
    7.2919  -16.4856   23.6792 C   0  0  0  0  0  0  0  0  0  0  0  0
    7.5514  -14.9942   23.6303 C   0  0  2  0  0  0  0  0  0  0  0  0
    8.1434  -14.6512   22.3774 N   0  0  0  0  0  0  0  0  0  0  0  0
    8.2208  -14.4569   24.8258 C   0  0  0  0  0  0  0  0  0  0  0  0
    9.4899  -14.6945   24.9699 O   0  0  0  0  0  0  0  0  0  0  0  0
    5.6103  -21.6313   25.0784 N   0  0  0  0  0  0  0  0  0  0  0  0
    7.6562  -13.6969   25.8681 C   0  0  0  0  0  0  0  0  0  0  0  0
    6.2059  -13.4703   25.9966 C   0  0  0  0  0  0  0  0  0  0  0  0
    6.0171  -12.6050   27.2017 C   0  0  0  0  0  0  0  0  0  0  0  0
    7.3325  -11.8825   27.3360 C   0  0  2  0  0  0  0  0  0  0  0  0
    8.2941  -13.0180   26.9527 C   0  0  0  0  0  0  0  0  0  0  0  0
    8.4042  -13.8563   28.1699 O   0  0  0  0  0  0  0  0  0  0  0  0
    9.1257  -13.4229   29.2634 O   0  0  0  0  0  0  0  0  0  0  0  0
  2  5  1  0
  2  1  1  6
  3  2  1  0
  4  3  1  0
  5  6  2  0
  7  8  1  0
  8 10  1  0
  8  9  2  0
 10 11  1  0
 11 12  1  0
 14 13  1  1
 13 12  1  0
 15 14  1  0
 15  5  1  0
 16 17  2  0
 16 14  1  0
 18 16  1  0
 19 18  1  0
 20 21  1  0
 20 19  1  0
 21 22  1  0
 22 18  1  0
 22 23  1  1
 24 23  1  0
 25 23  2  0
M  END
$$$$
