CRP.pdb
     RDKit          3D

 25 25  0  0  1  0  0  0  0  0999 V2000
    6.9724  -13.4864   18.7835 N   0  0  0  0  0  0  0  0  0  0  0  0
    8.0429  -13.7768   19.6842 C   0  0  1  0  0  0  0  0  0  0  0  0
    9.0902  -12.6852   19.7241 C   0  0  0  0  0  0  0  0  0  0  0  0
   10.5190  -13.2728   20.6807 S   0  0  0  0  0  0  0  0  0  0  0  0
    7.6332  -14.0461   21.0663 C   0  0  0  0  0  0  0  0  0  0  0  0
    7.0104  -13.1311   21.6643 O   0  0  0  0  0  0  0  0  0  0  0  0
    6.4119  -21.6813   24.2657 N   0  0  0  0  0  0  0  0  0  0  0  0
    7.3383  -20.8890   25.0137 C   0  0  0  0  0  0  0  0  0  0  0  0
    8.1327  -21.4704   25.8513 N   0  0  0  0  0  0  0  0  0  0  0  0
    7.4207  -19.4841   24.8710 N   0  0  0  0  0  0  0  0  0  0  0  0
    6.2359  -18.7024   24.6843 C   0  0  0  0  0  0  0  0  0  0  0  0
    6.5564  -17.1951   24.7132 C   0  0  0  0  0  0  0  0  0  0  0  0
    6.9866  -16.8513   23.3246 C   0  0  0  0  0  0  0  0  0  0  0  0
    7.3852  -15.4068   23.1046 C   0  0  2  0  0  0  0  0  0  0  0  0
    7.8805  -15.2429   21.7758 N   0  0  0  0  0  0  0  0  0  0  0  0
    8.2196  -14.8394   24.1760 C   0  0  0  0  0  0  0  0  0  0  0  0
    9.5012  -15.0455   24.1215 O   0  0  0  0  0  0  0  0  0  0  0  0
    8.8259  -20.9058   26.3875 N   0  0  0  0  0  0  0  0  0  0  0  0
    7.8061  -14.0802   25.2875 C   0  0  0  0  0  0  0  0  0  0  0  0
    6.4060  -13.6738   25.5012 C   0  0  0  0  0  0  0  0  0  0  0  0
    6.3855  -12.8702   26.7623 C   0  0  0  0  0  0  0  0  0  0  0  0
    7.7904  -12.3368   26.8723 C   0  0  2  0  0  0  0  0  0  0  0  0
    8.5741  -13.5618   26.3764 C   0  0  0  0  0  0  0  0  0  0  0  0
    8.6216  -14.4835   27.5360 O   0  0  0  0  0  0  0  0  0  0  0  0
    7.9299  -15.6774   27.5184 O   0  0  0  0  0  0  0  0  0  0  0  0
  2  5  1  0
  2  1  1  6
  3  2  1  0
  4  3  1  0
  5  6  2  0
  7  8  1  0
  8 10  1  0
  8  9  2  0
 10 11  1  0
 11 12  1  0
 14 13  1  1
 13 12  1  0
 15 14  1  0
 15  5  1  0
 16 17  2  0
 16 14  1  0
 18 16  1  0
 19 18  1  0
 20 21  1  0
 20 19  1  0
 21 22  1  0
 22 18  1  0
 22 23  1  1
 24 23  1  0
 25 23  2  0
M  END
$$$$
