CRP.pdb
     RDKit          3D

 25 25  0  0  1  0  0  0  0  0999 V2000
    7.1395  -15.1152   18.8878 N   0  0  0  0  0  0  0  0  0  0  0  0
    7.9206  -14.4471   19.8803 C   0  0  1  0  0  0  0  0  0  0  0  0
    7.9314  -12.9439   19.7064 C   0  0  0  0  0  0  0  0  0  0  0  0
    8.9365  -12.5251   18.2517 S   0  0  0  0  0  0  0  0  0  0  0  0
    7.5324  -14.7283   21.2663 C   0  0  0  0  0  0  0  0  0  0  0  0
    6.3170  -14.5843   21.5577 O   0  0  0  0  0  0  0  0  0  0  0  0
    5.8184  -21.0344   25.9402 N   0  0  0  0  0  0  0  0  0  0  0  0
    6.6751  -20.3760   26.8774 C   0  0  0  0  0  0  0  0  0  0  0  0
    6.5210  -20.6037   28.1403 N   0  0  0  0  0  0  0  0  0  0  0  0
    7.6923  -19.4799   26.4734 N   0  0  0  0  0  0  0  0  0  0  0  0
    7.6928  -18.9301   25.1516 C   0  0  0  0  0  0  0  0  0  0  0  0
    7.5792  -17.3934   25.1908 C   0  0  0  0  0  0  0  0  0  0  0  0
    7.8358  -16.9380   23.7915 C   0  0  0  0  0  0  0  0  0  0  0  0
    7.9015  -15.4375   23.5962 C   0  0  2  0  0  0  0  0  0  0  0  0
    8.4081  -15.1449   22.2941 N   0  0  0  0  0  0  0  0  0  0  0  0
    8.5314  -14.7094   24.7094 C   0  0  0  0  0  0  0  0  0  0  0  0
    9.8282  -14.7209   24.7862 O   0  0  0  0  0  0  0  0  0  0  0  0
    7.1529  -20.1458   28.8317 N   0  0  0  0  0  0  0  0  0  0  0  0
    7.9010  -13.9793   25.7353 C   0  0  0  0  0  0  0  0  0  0  0  0
    6.4364  -13.8783   25.8601 C   0  0  0  0  0  0  0  0  0  0  0  0
    6.1710  -13.0068   27.0461 C   0  0  0  0  0  0  0  0  0  0  0  0
    7.4177  -12.1687   27.1634 C   0  0  2  0  0  0  0  0  0  0  0  0
    8.4757  -13.2234   26.8042 C   0  0  0  0  0  0  0  0  0  0  0  0
    8.6578  -14.0219   28.0394 O   0  0  0  0  0  0  0  0  0  0  0  0
    9.3411  -13.5046   29.1209 O   0  0  0  0  0  0  0  0  0  0  0  0
  2  5  1  0
  2  1  1  6
  3  2  1  0
  4  3  1  0
  5  6  2  0
  7  8  1  0
  8 10  1  0
  8  9  2  0
 10 11  1  0
 11 12  1  0
 14 13  1  1
 13 12  1  0
 15 14  1  0
 15  5  1  0
 16 17  2  0
 16 14  1  0
 18 16  1  0
 19 18  1  0
 20 21  1  0
 20 19  1  0
 21 22  1  0
 22 18  1  0
 22 23  1  1
 24 23  1  0
 25 23  2  0
M  END
$$$$
