CRP.pdb
     RDKit          3D

 25 25  0  0  1  0  0  0  0  0999 V2000
    6.8712  -15.1058   19.1716 N   0  0  0  0  0  0  0  0  0  0  0  0
    7.7733  -14.5659   20.1391 C   0  0  1  0  0  0  0  0  0  0  0  0
    8.0370  -13.0895   19.9378 C   0  0  0  0  0  0  0  0  0  0  0  0
    9.0475  -12.8686   18.4438 S   0  0  0  0  0  0  0  0  0  0  0  0
    7.3690  -14.7556   21.5360 C   0  0  0  0  0  0  0  0  0  0  0  0
    6.3257  -14.1619   21.9126 O   0  0  0  0  0  0  0  0  0  0  0  0
    9.1990  -19.4309   24.1595 N   0  0  0  0  0  0  0  0  0  0  0  0
    9.3042  -19.5546   25.5805 C   0  0  0  0  0  0  0  0  0  0  0  0
   10.3884  -20.0368   26.0929 N   0  0  0  0  0  0  0  0  0  0  0  0
    8.2611  -19.1662   26.4534 N   0  0  0  0  0  0  0  0  0  0  0  0
    7.0013  -18.7307   25.9310 C   0  0  0  0  0  0  0  0  0  0  0  0
    6.9944  -17.2068   25.7001 C   0  0  0  0  0  0  0  0  0  0  0  0
    7.4040  -17.0166   24.2762 C   0  0  0  0  0  0  0  0  0  0  0  0
    7.6127  -15.5799   23.8445 C   0  0  2  0  0  0  0  0  0  0  0  0
    8.0529  -15.5461   22.4869 N   0  0  0  0  0  0  0  0  0  0  0  0
    8.3936  -14.7702   24.7935 C   0  0  0  0  0  0  0  0  0  0  0  0
    9.6757  -14.9712   24.8522 O   0  0  0  0  0  0  0  0  0  0  0  0
   10.4836  -20.1153   27.1281 N   0  0  0  0  0  0  0  0  0  0  0  0
    7.9264  -13.7763   25.6749 C   0  0  0  0  0  0  0  0  0  0  0  0
    6.5553  -13.2397   25.6195 C   0  0  0  0  0  0  0  0  0  0  0  0
    6.4635  -12.1995   26.6901 C   0  0  0  0  0  0  0  0  0  0  0  0
    7.8898  -11.7531   26.8817 C   0  0  2  0  0  0  0  0  0  0  0  0
    8.6076  -13.1038   26.7370 C   0  0  0  0  0  0  0  0  0  0  0  0
    8.4331  -13.7746   28.0470 O   0  0  0  0  0  0  0  0  0  0  0  0
    9.1389  -13.3543   29.1556 O   0  0  0  0  0  0  0  0  0  0  0  0
  2  5  1  0
  2  1  1  6
  3  2  1  0
  4  3  1  0
  5  6  2  0
  7  8  1  0
  8 10  1  0
  8  9  2  0
 10 11  1  0
 11 12  1  0
 14 13  1  1
 13 12  1  0
 15 14  1  0
 15  5  1  0
 16 17  2  0
 16 14  1  0
 18 16  1  0
 19 18  1  0
 20 21  1  0
 20 19  1  0
 21 22  1  0
 22 18  1  0
 22 23  1  1
 24 23  1  0
 25 23  2  0
M  END
$$$$
