CRP.pdb
     RDKit          3D

 25 25  0  0  1  0  0  0  0  0999 V2000
    6.8516  -14.2654   18.8281 N   0  0  0  0  0  0  0  0  0  0  0  0
    7.8388  -14.0562   19.8396 C   0  0  1  0  0  0  0  0  0  0  0  0
    8.3491  -12.6321   19.8775 C   0  0  0  0  0  0  0  0  0  0  0  0
    9.4310  -12.3544   18.4442 S   0  0  0  0  0  0  0  0  0  0  0  0
    7.4170  -14.4102   21.1988 C   0  0  0  0  0  0  0  0  0  0  0  0
    6.3424  -13.9031   21.6119 O   0  0  0  0  0  0  0  0  0  0  0  0
    6.8918  -21.6186   25.8052 N   0  0  0  0  0  0  0  0  0  0  0  0
    6.6962  -20.6142   26.8044 C   0  0  0  0  0  0  0  0  0  0  0  0
    6.3306  -20.9691   27.9921 N   0  0  0  0  0  0  0  0  0  0  0  0
    6.8897  -19.2377   26.5420 N   0  0  0  0  0  0  0  0  0  0  0  0
    7.1681  -18.7838   25.2130 C   0  0  0  0  0  0  0  0  0  0  0  0
    7.2055  -17.2442   25.1500 C   0  0  0  0  0  0  0  0  0  0  0  0
    7.5041  -16.9098   23.7250 C   0  0  0  0  0  0  0  0  0  0  0  0
    7.6753  -15.4355   23.4237 C   0  0  2  0  0  0  0  0  0  0  0  0
    8.1163  -15.2693   22.0762 N   0  0  0  0  0  0  0  0  0  0  0  0
    8.4332  -14.6934   24.4440 C   0  0  0  0  0  0  0  0  0  0  0  0
    9.7291  -14.7814   24.4217 O   0  0  0  0  0  0  0  0  0  0  0  0
    6.2686  -20.2571   28.7512 N   0  0  0  0  0  0  0  0  0  0  0  0
    7.9301  -13.8755   25.4740 C   0  0  0  0  0  0  0  0  0  0  0  0
    6.4894  -13.6444   25.6790 C   0  0  0  0  0  0  0  0  0  0  0  0
    6.3709  -12.7114   26.8417 C   0  0  0  0  0  0  0  0  0  0  0  0
    7.6883  -11.9801   26.8525 C   0  0  2  0  0  0  0  0  0  0  0  0
    8.6302  -13.1341   26.4761 C   0  0  0  0  0  0  0  0  0  0  0  0
    8.8199  -13.9006   27.7303 O   0  0  0  0  0  0  0  0  0  0  0  0
    9.6056  -13.4039   28.7501 O   0  0  0  0  0  0  0  0  0  0  0  0
  2  5  1  0
  2  1  1  6
  3  2  1  0
  4  3  1  0
  5  6  2  0
  7  8  1  0
  8 10  1  0
  8  9  2  0
 10 11  1  0
 11 12  1  0
 14 13  1  1
 13 12  1  0
 15 14  1  0
 15  5  1  0
 16 17  2  0
 16 14  1  0
 18 16  1  0
 19 18  1  0
 20 21  1  0
 20 19  1  0
 21 22  1  0
 22 18  1  0
 22 23  1  1
 24 23  1  0
 25 23  2  0
M  END
$$$$
