CRP.pdb
     RDKit          3D

 25 25  0  0  1  0  0  0  0  0999 V2000
   15.4012  -15.8892   14.9155 N   0  0  0  0  0  0  0  0  0  0  0  0
   14.2424  -16.4934   15.4930 C   0  0  1  0  0  0  0  0  0  0  0  0
   14.3625  -17.9970   15.6155 C   0  0  0  0  0  0  0  0  0  0  0  0
   15.9220  -18.3981   16.4572 S   0  0  0  0  0  0  0  0  0  0  0  0
   13.8639  -15.9722   16.8105 C   0  0  0  0  0  0  0  0  0  0  0  0
   14.8007  -15.6664   17.5926 O   0  0  0  0  0  0  0  0  0  0  0  0
    6.4900  -12.7098   19.1852 N   0  0  0  0  0  0  0  0  0  0  0  0
    7.4657  -13.1091   18.2186 C   0  0  0  0  0  0  0  0  0  0  0  0
    7.1782  -13.0264   16.9613 N   0  0  0  0  0  0  0  0  0  0  0  0
    8.7426  -13.5933   18.5875 N   0  0  0  0  0  0  0  0  0  0  0  0
    9.0505  -13.8568   19.9605 C   0  0  0  0  0  0  0  0  0  0  0  0
   10.4788  -14.4165   20.1104 C   0  0  0  0  0  0  0  0  0  0  0  0
   10.8995  -14.8121   18.7327 C   0  0  0  0  0  0  0  0  0  0  0  0
   12.2952  -15.3890   18.6179 C   0  0  2  0  0  0  0  0  0  0  0  0
   12.5402  -15.7874   17.2692 N   0  0  0  0  0  0  0  0  0  0  0  0
   12.6260  -16.3830   19.6517 C   0  0  0  0  0  0  0  0  0  0  0  0
   12.4218  -17.6362   19.3769 O   0  0  0  0  0  0  0  0  0  0  0  0
    7.8460  -13.3944   16.2503 N   0  0  0  0  0  0  0  0  0  0  0  0
   13.1495  -16.1544   20.9388 C   0  0  0  0  0  0  0  0  0  0  0  0
   13.4622  -14.8070   21.4464 C   0  0  0  0  0  0  0  0  0  0  0  0
   14.0143  -14.9904   22.8241 C   0  0  0  0  0  0  0  0  0  0  0  0
   14.5638  -16.3933   22.8080 C   0  0  1  0  0  0  0  0  0  0  0  0
   13.4799  -17.0884   21.9697 C   0  0  0  0  0  0  0  0  0  0  0  0
   12.3594  -17.3261   22.9101 O   0  0  0  0  0  0  0  0  0  0  0  0
   12.4733  -18.2545   23.9246 O   0  0  0  0  0  0  0  0  0  0  0  0
  2  5  1  0
  2  1  1  1
  3  2  1  0
  4  3  1  0
  5  6  2  0
  7  8  1  0
  8 10  1  0
  8  9  2  0
 10 11  1  0
 11 12  1  0
 14 13  1  6
 13 12  1  0
 15 14  1  0
 15  5  1  0
 16 17  2  0
 16 14  1  0
 18 16  1  0
 19 18  1  0
 20 21  1  0
 20 19  1  0
 21 22  1  0
 22 18  1  0
 22 23  1  1
 24 23  1  0
 25 23  2  0
M  END
$$$$
