CRP.pdb
     RDKit          3D

 25 25  0  0  1  0  0  0  0  0999 V2000
    6.9477  -14.9162   18.6105 N   0  0  0  0  0  0  0  0  0  0  0  0
    7.8168  -14.4317   19.6359 C   0  0  1  0  0  0  0  0  0  0  0  0
    8.1876  -12.9760   19.4531 C   0  0  0  0  0  0  0  0  0  0  0  0
    9.2754  -12.4681   20.8171 S   0  0  0  0  0  0  0  0  0  0  0  0
    7.3099  -14.5898   21.0029 C   0  0  0  0  0  0  0  0  0  0  0  0
    6.1415  -14.1812   21.2278 O   0  0  0  0  0  0  0  0  0  0  0  0
    5.9014  -21.4507   25.3138 N   0  0  0  0  0  0  0  0  0  0  0  0
    6.6367  -20.7242   26.3023 C   0  0  0  0  0  0  0  0  0  0  0  0
    6.8252  -21.2560   27.4651 N   0  0  0  0  0  0  0  0  0  0  0  0
    7.1704  -19.4377   26.0551 N   0  0  0  0  0  0  0  0  0  0  0  0
    6.8389  -18.7325   24.8542 C   0  0  0  0  0  0  0  0  0  0  0  0
    7.4046  -17.2989   24.8796 C   0  0  0  0  0  0  0  0  0  0  0  0
    6.9358  -16.6618   23.6124 C   0  0  0  0  0  0  0  0  0  0  0  0
    7.4251  -15.2485   23.3737 C   0  0  2  0  0  0  0  0  0  0  0  0
    8.0238  -15.1601   22.0808 N   0  0  0  0  0  0  0  0  0  0  0  0
    8.2082  -14.6835   24.4844 C   0  0  0  0  0  0  0  0  0  0  0  0
    9.4741  -14.9696   24.5424 O   0  0  0  0  0  0  0  0  0  0  0  0
    7.4457  -20.7845   28.1577 N   0  0  0  0  0  0  0  0  0  0  0  0
    7.7589  -13.8494   25.5262 C   0  0  0  0  0  0  0  0  0  0  0  0
    6.3619  -13.3951   25.6398 C   0  0  0  0  0  0  0  0  0  0  0  0
    6.2983  -12.5179   26.8494 C   0  0  0  0  0  0  0  0  0  0  0  0
    7.7103  -12.0154   27.0045 C   0  0  2  0  0  0  0  0  0  0  0  0
    8.4832  -13.2874   26.6234 C   0  0  0  0  0  0  0  0  0  0  0  0
    8.4429  -14.1398   27.8351 O   0  0  0  0  0  0  0  0  0  0  0  0
    9.1929  -13.8210   28.9486 O   0  0  0  0  0  0  0  0  0  0  0  0
  2  5  1  0
  2  1  1  6
  3  2  1  0
  4  3  1  0
  5  6  2  0
  7  8  1  0
  8 10  1  0
  8  9  2  0
 10 11  1  0
 11 12  1  0
 14 13  1  1
 13 12  1  0
 15 14  1  0
 15  5  1  0
 16 17  2  0
 16 14  1  0
 18 16  1  0
 19 18  1  0
 20 21  1  0
 20 19  1  0
 21 22  1  0
 22 18  1  0
 22 23  1  1
 24 23  1  0
 25 23  2  0
M  END
$$$$
