CRP.pdb
     RDKit          3D

 25 25  0  0  1  0  0  0  0  0999 V2000
    6.6972  -13.8599   18.8631 N   0  0  0  0  0  0  0  0  0  0  0  0
    7.7881  -13.9919   19.7763 C   0  0  1  0  0  0  0  0  0  0  0  0
    8.7177  -12.7980   19.7585 C   0  0  0  0  0  0  0  0  0  0  0  0
   10.2241  -13.2088   20.6879 S   0  0  0  0  0  0  0  0  0  0  0  0
    7.4025  -14.2304   21.1710 C   0  0  0  0  0  0  0  0  0  0  0  0
    6.7066  -13.3432   21.7291 O   0  0  0  0  0  0  0  0  0  0  0  0
    8.7404  -18.9305   27.4582 N   0  0  0  0  0  0  0  0  0  0  0  0
    8.4297  -19.8143   26.3774 C   0  0  0  0  0  0  0  0  0  0  0  0
    8.7140  -21.0702   26.4882 N   0  0  0  0  0  0  0  0  0  0  0  0
    7.8180  -19.3645   25.1838 N   0  0  0  0  0  0  0  0  0  0  0  0
    6.5658  -18.6719   25.2258 C   0  0  0  0  0  0  0  0  0  0  0  0
    6.7710  -17.1488   25.1084 C   0  0  0  0  0  0  0  0  0  0  0  0
    7.1164  -16.9015   23.6762 C   0  0  0  0  0  0  0  0  0  0  0  0
    7.3727  -15.4549   23.3082 C   0  0  2  0  0  0  0  0  0  0  0  0
    7.7478  -15.3688   21.9335 N   0  0  0  0  0  0  0  0  0  0  0  0
    8.2365  -14.7331   24.2563 C   0  0  0  0  0  0  0  0  0  0  0  0
    9.5225  -14.8645   24.1276 O   0  0  0  0  0  0  0  0  0  0  0  0
    8.5095  -21.7207   25.6996 N   0  0  0  0  0  0  0  0  0  0  0  0
    7.8477  -13.8935   25.3178 C   0  0  0  0  0  0  0  0  0  0  0  0
    6.4552  -13.4575   25.5227 C   0  0  0  0  0  0  0  0  0  0  0  0
    6.4620  -12.5676   26.7246 C   0  0  0  0  0  0  0  0  0  0  0  0
    7.8738  -12.0437   26.7768 C   0  0  2  0  0  0  0  0  0  0  0  0
    8.6373  -13.3090   26.3566 C   0  0  0  0  0  0  0  0  0  0  0  0
    8.6930  -14.1481   27.5770 O   0  0  0  0  0  0  0  0  0  0  0  0
    9.5468  -13.8315   28.6138 O   0  0  0  0  0  0  0  0  0  0  0  0
  2  5  1  0
  2  1  1  6
  3  2  1  0
  4  3  1  0
  5  6  2  0
  7  8  1  0
  8 10  1  0
  8  9  2  0
 10 11  1  0
 11 12  1  0
 14 13  1  1
 13 12  1  0
 15 14  1  0
 15  5  1  0
 16 17  2  0
 16 14  1  0
 18 16  1  0
 19 18  1  0
 20 21  1  0
 20 19  1  0
 21 22  1  0
 22 18  1  0
 22 23  1  1
 24 23  1  0
 25 23  2  0
M  END
$$$$
