CRP.pdb
     RDKit          3D

 25 25  0  0  1  0  0  0  0  0999 V2000
    4.7950  -12.6340   26.8144 N   0  0  0  0  0  0  0  0  0  0  0  0
    6.1545  -12.4883   26.3996 C   0  0  1  0  0  0  0  0  0  0  0  0
    7.1347  -12.6013   27.5469 C   0  0  0  0  0  0  0  0  0  0  0  0
    8.8154  -12.3170   26.9177 S   0  0  0  0  0  0  0  0  0  0  0  0
    6.5869  -13.4235   25.3560 C   0  0  0  0  0  0  0  0  0  0  0  0
    6.5010  -14.6506   25.6197 O   0  0  0  0  0  0  0  0  0  0  0  0
   11.1310  -13.8712   19.2257 N   0  0  0  0  0  0  0  0  0  0  0  0
   10.2011  -14.5557   18.3817 C   0  0  0  0  0  0  0  0  0  0  0  0
   10.6293  -15.4928   17.6014 N   0  0  0  0  0  0  0  0  0  0  0  0
    8.8209  -14.2459   18.3683 N   0  0  0  0  0  0  0  0  0  0  0  0
    8.2307  -13.5125   19.4469 C   0  0  0  0  0  0  0  0  0  0  0  0
    8.3444  -14.2899   20.7729 C   0  0  0  0  0  0  0  0  0  0  0  0
    7.5638  -13.4967   21.7694 C   0  0  0  0  0  0  0  0  0  0  0  0
    7.5336  -14.0632   23.1736 C   0  0  2  0  0  0  0  0  0  0  0  0
    7.0894  -13.0595   24.0864 N   0  0  0  0  0  0  0  0  0  0  0  0
    8.7546  -14.7883   23.5601 C   0  0  0  0  0  0  0  0  0  0  0  0
    9.7760  -14.0900   23.9562 O   0  0  0  0  0  0  0  0  0  0  0  0
    9.9542  -16.0325   17.0183 N   0  0  0  0  0  0  0  0  0  0  0  0
    8.9746  -16.1791   23.5590 C   0  0  0  0  0  0  0  0  0  0  0  0
    7.9704  -17.1464   23.0824 C   0  0  0  0  0  0  0  0  0  0  0  0
    8.5688  -18.5045   23.2669 C   0  0  0  0  0  0  0  0  0  0  0  0
    9.5748  -18.3077   24.3714 C   0  0  2  0  0  0  0  0  0  0  0  0
   10.1184  -16.9234   23.9855 C   0  0  0  0  0  0  0  0  0  0  0  0
   11.0793  -17.1799   22.8868 O   0  0  0  0  0  0  0  0  0  0  0  0
   12.3083  -17.7530   23.1423 O   0  0  0  0  0  0  0  0  0  0  0  0
  2  5  1  0
  2  1  1  1
  3  2  1  0
  4  3  1  0
  5  6  2  0
  7  8  1  0
  8 10  1  0
  8  9  2  0
 10 11  1  0
 11 12  1  0
 14 13  1  6
 13 12  1  0
 15 14  1  0
 15  5  1  0
 16 17  2  0
 16 14  1  0
 18 16  1  0
 19 18  1  0
 20 21  1  0
 20 19  1  0
 21 22  1  0
 22 18  1  0
 22 23  1  6
 24 23  1  0
 25 23  2  0
M  END
$$$$
