CRP.pdb
     RDKit          3D

 25 25  0  0  1  0  0  0  0  0999 V2000
    7.0585  -15.3162   18.7419 N   0  0  0  0  0  0  0  0  0  0  0  0
    7.8710  -14.6322   19.6976 C   0  0  1  0  0  0  0  0  0  0  0  0
    8.0141  -13.1558   19.3983 C   0  0  0  0  0  0  0  0  0  0  0  0
    9.0875  -12.4001   20.6546 S   0  0  0  0  0  0  0  0  0  0  0  0
    7.4288  -14.7594   21.0901 C   0  0  0  0  0  0  0  0  0  0  0  0
    6.2695  -14.3514   21.3590 O   0  0  0  0  0  0  0  0  0  0  0  0
    9.7928  -19.8641   24.2745 N   0  0  0  0  0  0  0  0  0  0  0  0
    9.1673  -20.0125   25.5521 C   0  0  0  0  0  0  0  0  0  0  0  0
    9.4260  -21.0604   26.2630 N   0  0  0  0  0  0  0  0  0  0  0  0
    8.2710  -19.0497   26.0725 N   0  0  0  0  0  0  0  0  0  0  0  0
    7.0845  -18.6983   25.3527 C   0  0  0  0  0  0  0  0  0  0  0  0
    6.9730  -17.1707   25.1805 C   0  0  0  0  0  0  0  0  0  0  0  0
    7.4600  -16.8880   23.7969 C   0  0  0  0  0  0  0  0  0  0  0  0
    7.6329  -15.4230   23.4535 C   0  0  2  0  0  0  0  0  0  0  0  0
    8.1952  -15.2996   22.1472 N   0  0  0  0  0  0  0  0  0  0  0  0
    8.2788  -14.6262   24.5090 C   0  0  0  0  0  0  0  0  0  0  0  0
    9.5771  -14.5826   24.5286 O   0  0  0  0  0  0  0  0  0  0  0  0
    8.9639  -21.1873   27.1889 N   0  0  0  0  0  0  0  0  0  0  0  0
    7.6629  -13.8815   25.5332 C   0  0  0  0  0  0  0  0  0  0  0  0
    6.2023  -13.8394   25.7226 C   0  0  0  0  0  0  0  0  0  0  0  0
    5.9514  -12.9308   26.8837 C   0  0  0  0  0  0  0  0  0  0  0  0
    7.1626  -12.0349   26.9082 C   0  0  2  0  0  0  0  0  0  0  0  0
    8.2503  -13.0566   26.5425 C   0  0  0  0  0  0  0  0  0  0  0  0
    8.5243  -13.7933   27.7989 O   0  0  0  0  0  0  0  0  0  0  0  0
    9.2343  -13.2024   28.8240 O   0  0  0  0  0  0  0  0  0  0  0  0
  2  5  1  0
  2  1  1  6
  3  2  1  0
  4  3  1  0
  5  6  2  0
  7  8  1  0
  8 10  1  0
  8  9  2  0
 10 11  1  0
 11 12  1  0
 14 13  1  1
 13 12  1  0
 15 14  1  0
 15  5  1  0
 16 17  2  0
 16 14  1  0
 18 16  1  0
 19 18  1  0
 20 21  1  0
 20 19  1  0
 21 22  1  0
 22 18  1  0
 22 23  1  1
 24 23  1  0
 25 23  2  0
M  END
$$$$
