CRP.pdb
     RDKit          3D

 25 25  0  0  1  0  0  0  0  0999 V2000
    7.8393  -15.2932   18.6383 N   0  0  0  0  0  0  0  0  0  0  0  0
    8.1200  -14.3271   19.6528 C   0  0  1  0  0  0  0  0  0  0  0  0
    7.5791  -12.9530   19.3219 C   0  0  0  0  0  0  0  0  0  0  0  0
    8.8760  -11.9938   18.4853 S   0  0  0  0  0  0  0  0  0  0  0  0
    7.6400  -14.6793   20.9930 C   0  0  0  0  0  0  0  0  0  0  0  0
    6.5073  -15.2218   21.0679 O   0  0  0  0  0  0  0  0  0  0  0  0
   10.9133  -19.4168   25.8155 N   0  0  0  0  0  0  0  0  0  0  0  0
   10.8489  -19.2628   24.3950 C   0  0  0  0  0  0  0  0  0  0  0  0
   11.9418  -19.0771   23.7307 N   0  0  0  0  0  0  0  0  0  0  0  0
    9.6271  -19.3073   23.6835 N   0  0  0  0  0  0  0  0  0  0  0  0
    8.5746  -18.3863   23.9893 C   0  0  0  0  0  0  0  0  0  0  0  0
    8.5761  -17.1977   23.0079 C   0  0  0  0  0  0  0  0  0  0  0  0
    7.4569  -16.3128   23.4505 C   0  0  0  0  0  0  0  0  0  0  0  0
    7.7599  -14.8288   23.4488 C   0  0  2  0  0  0  0  0  0  0  0  0
    8.3427  -14.4596   22.1991 N   0  0  0  0  0  0  0  0  0  0  0  0
    8.4630  -14.3534   24.6512 C   0  0  0  0  0  0  0  0  0  0  0  0
    9.7345  -14.6009   24.7490 O   0  0  0  0  0  0  0  0  0  0  0  0
   11.9150  -19.0268   22.6897 N   0  0  0  0  0  0  0  0  0  0  0  0
    7.9293  -13.6450   25.7449 C   0  0  0  0  0  0  0  0  0  0  0  0
    6.5130  -13.2463   25.8242 C   0  0  0  0  0  0  0  0  0  0  0  0
    6.3537  -12.5011   27.1110 C   0  0  0  0  0  0  0  0  0  0  0  0
    7.7367  -11.9759   27.3966 C   0  0  1  0  0  0  0  0  0  0  0  0
    8.5733  -13.1783   26.9330 C   0  0  0  0  0  0  0  0  0  0  0  0
    8.4980  -14.1522   28.0477 O   0  0  0  0  0  0  0  0  0  0  0  0
    9.2120  -13.9510   29.2112 O   0  0  0  0  0  0  0  0  0  0  0  0
  2  5  1  0
  2  1  1  6
  3  2  1  0
  4  3  1  0
  5  6  2  0
  7  8  1  0
  8 10  1  0
  8  9  2  0
 10 11  1  0
 11 12  1  0
 14 13  1  1
 13 12  1  0
 15 14  1  0
 15  5  1  0
 16 17  2  0
 16 14  1  0
 18 16  1  0
 19 18  1  0
 20 21  1  0
 20 19  1  0
 21 22  1  0
 22 18  1  0
 22 23  1  1
 24 23  1  0
 25 23  2  0
M  END
$$$$
