CRP.pdb
     RDKit          3D

 25 25  0  0  1  0  0  0  0  0999 V2000
    7.6352  -15.4847   19.0597 N   0  0  0  0  0  0  0  0  0  0  0  0
    8.0235  -14.5509   20.0689 C   0  0  1  0  0  0  0  0  0  0  0  0
    7.7863  -13.1128   19.6619 C   0  0  0  0  0  0  0  0  0  0  0  0
    9.2087  -12.5313   18.6922 S   0  0  0  0  0  0  0  0  0  0  0  0
    7.3874  -14.7506   21.3750 C   0  0  0  0  0  0  0  0  0  0  0  0
    6.1703  -14.4461   21.4682 O   0  0  0  0  0  0  0  0  0  0  0  0
    6.2340  -21.1383   26.5253 N   0  0  0  0  0  0  0  0  0  0  0  0
    7.5463  -20.6443   26.8068 C   0  0  0  0  0  0  0  0  0  0  0  0
    8.3170  -21.3166   27.5970 N   0  0  0  0  0  0  0  0  0  0  0  0
    8.0377  -19.4405   26.2495 N   0  0  0  0  0  0  0  0  0  0  0  0
    7.1675  -18.5710   25.5172 C   0  0  0  0  0  0  0  0  0  0  0  0
    7.9431  -17.3727   24.9355 C   0  0  0  0  0  0  0  0  0  0  0  0
    6.9211  -16.5358   24.2381 C   0  0  0  0  0  0  0  0  0  0  0  0
    7.3896  -15.1626   23.8037 C   0  0  2  0  0  0  0  0  0  0  0  0
    8.0275  -15.2541   22.5298 N   0  0  0  0  0  0  0  0  0  0  0  0
    8.1252  -14.4187   24.8388 C   0  0  0  0  0  0  0  0  0  0  0  0
    9.4190  -14.5335   24.8655 O   0  0  0  0  0  0  0  0  0  0  0  0
    9.2583  -20.9437   27.8460 N   0  0  0  0  0  0  0  0  0  0  0  0
    7.6023  -13.5731   25.8360 C   0  0  0  0  0  0  0  0  0  0  0  0
    6.1654  -13.2689   25.9527 C   0  0  0  0  0  0  0  0  0  0  0  0
    6.0235  -12.3274   27.1059 C   0  0  0  0  0  0  0  0  0  0  0  0
    7.3731  -11.6635   27.1969 C   0  0  2  0  0  0  0  0  0  0  0  0
    8.2767  -12.8648   26.8789 C   0  0  0  0  0  0  0  0  0  0  0  0
    8.3505  -13.6359   28.1424 O   0  0  0  0  0  0  0  0  0  0  0  0
    9.1004  -13.1784   29.2066 O   0  0  0  0  0  0  0  0  0  0  0  0
  2  5  1  0
  2  1  1  6
  3  2  1  0
  4  3  1  0
  5  6  2  0
  7  8  1  0
  8 10  1  0
  8  9  2  0
 10 11  1  0
 11 12  1  0
 14 13  1  1
 13 12  1  0
 15 14  1  0
 15  5  1  0
 16 17  2  0
 16 14  1  0
 18 16  1  0
 19 18  1  0
 20 21  1  0
 20 19  1  0
 21 22  1  0
 22 18  1  0
 22 23  1  1
 24 23  1  0
 25 23  2  0
M  END
$$$$
