CRP.pdb
     RDKit          3D

 25 25  0  0  1  0  0  0  0  0999 V2000
    7.3697  -15.1185   18.8009 N   0  0  0  0  0  0  0  0  0  0  0  0
    7.9446  -14.3261   19.8415 C   0  0  1  0  0  0  0  0  0  0  0  0
    7.7338  -12.8419   19.6351 C   0  0  0  0  0  0  0  0  0  0  0  0
    8.8428  -12.2661   18.3158 S   0  0  0  0  0  0  0  0  0  0  0  0
    7.4841  -14.6532   21.1949 C   0  0  0  0  0  0  0  0  0  0  0  0
    6.2471  -14.5736   21.4104 O   0  0  0  0  0  0  0  0  0  0  0  0
    8.3512  -21.2078   26.3746 N   0  0  0  0  0  0  0  0  0  0  0  0
    7.4709  -20.3265   27.0774 C   0  0  0  0  0  0  0  0  0  0  0  0
    7.2535  -20.5240   28.3361 N   0  0  0  0  0  0  0  0  0  0  0  0
    6.8250  -19.2386   26.4447 N   0  0  0  0  0  0  0  0  0  0  0  0
    7.3273  -18.7135   25.2112 C   0  0  0  0  0  0  0  0  0  0  0  0
    7.1381  -17.1854   25.1417 C   0  0  0  0  0  0  0  0  0  0  0  0
    7.6363  -16.7821   23.7924 C   0  0  0  0  0  0  0  0  0  0  0  0
    7.7513  -15.2900   23.5595 C   0  0  2  0  0  0  0  0  0  0  0  0
    8.3127  -15.0477   22.2694 N   0  0  0  0  0  0  0  0  0  0  0  0
    8.3610  -14.5486   24.6751 C   0  0  0  0  0  0  0  0  0  0  0  0
    9.6550  -14.5764   24.7878 O   0  0  0  0  0  0  0  0  0  0  0  0
    6.6485  -19.8630   28.8689 N   0  0  0  0  0  0  0  0  0  0  0  0
    7.7135  -13.7895   25.6688 C   0  0  0  0  0  0  0  0  0  0  0  0
    6.2471  -13.6786   25.7606 C   0  0  0  0  0  0  0  0  0  0  0  0
    5.9618  -12.7758   26.9183 C   0  0  0  0  0  0  0  0  0  0  0  0
    7.2102  -11.9409   27.0401 C   0  0  2  0  0  0  0  0  0  0  0  0
    8.2699  -13.0093   26.7299 C   0  0  0  0  0  0  0  0  0  0  0  0
    8.4224  -13.7768   27.9885 O   0  0  0  0  0  0  0  0  0  0  0  0
    9.0964  -13.2400   29.0662 O   0  0  0  0  0  0  0  0  0  0  0  0
  2  5  1  0
  2  1  1  6
  3  2  1  0
  4  3  1  0
  5  6  2  0
  7  8  1  0
  8 10  1  0
  8  9  2  0
 10 11  1  0
 11 12  1  0
 14 13  1  1
 13 12  1  0
 15 14  1  0
 15  5  1  0
 16 17  2  0
 16 14  1  0
 18 16  1  0
 19 18  1  0
 20 21  1  0
 20 19  1  0
 21 22  1  0
 22 18  1  0
 22 23  1  1
 24 23  1  0
 25 23  2  0
M  END
$$$$
