PMD.pdb
     RDKit          3D

 24 24  0  0  1  0  0  0  0  0999 V2000
    7.2530  -15.1018   19.8775 N   0  0  0  0  0  0  0  0  0  0  0  0
    6.4376  -13.9333   19.6145 C   0  0  0  0  0  0  0  0  0  0  0  0
    7.3382  -12.7600   19.4143 C   0  0  0  0  0  0  0  0  0  0  0  0
    8.6948  -13.3722   19.2430 C   0  0  0  0  0  0  0  0  0  0  0  0
    8.6019  -14.6148   20.0788 C   0  0  1  0  0  0  0  0  0  0  0  0
    8.9275  -14.4202   21.4959 C   0  0  0  0  0  0  0  0  0  0  0  0
   10.1031  -14.0509   21.7776 O   0  0  0  0  0  0  0  0  0  0  0  0
    6.4242  -10.9100   26.4562 C   0  0  0  0  0  0  0  0  0  0  0  0
    6.1946  -12.6445   26.8704 S   0  0  0  0  0  0  0  0  0  0  0  0
    7.5409  -13.6843   26.1792 C   0  0  0  0  0  0  0  0  0  0  0  0
    7.2943  -13.8606   24.7131 C   0  0  0  0  0  0  0  0  0  0  0  0
    8.4043  -14.5222   23.9591 C   0  0  2  0  0  0  0  0  0  0  0  0
    8.0276  -14.6147   22.5597 N   0  0  0  0  0  0  0  0  0  0  0  0
    8.8164  -15.8338   24.4984 C   0  0  0  0  0  0  0  0  0  0  0  0
    8.0373  -16.7905   24.4955 O   0  0  0  0  0  0  0  0  0  0  0  0
   10.1014  -16.0013   25.0233 N   0  0  0  0  0  0  0  0  0  0  0  0
   10.6749  -17.2027   25.5294 C   0  0  1  0  0  0  0  0  0  0  0  0
   12.1559  -17.3113   25.5046 C   0  0  0  0  0  0  0  0  0  0  0  0
   12.8175  -16.8120   24.2942 C   0  0  0  0  0  0  0  0  0  0  0  0
   12.6162  -17.2590   23.1396 O   0  0  0  0  0  0  0  0  0  0  0  0
   10.2186  -17.5345   26.8979 C   0  0  0  0  0  0  0  0  0  0  0  0
   10.5584  -18.7178   27.5207 O   0  0  0  0  0  0  0  0  0  0  0  0
   13.7333  -15.7748   24.4054 O   0  0  0  0  0  0  0  0  0  0  0  0
    9.5005  -16.7121   27.5080 O   0  0  0  0  0  0  0  0  0  0  0  0
  2  1  1  0
  2  3  1  0
  3  4  1  0
  5  1  1  0
  5  6  1  1
  5  4  1  0
  6  7  2  0
  8  9  1  0
  9 10  1  0
 10 11  1  0
 12 11  1  1
 12 14  1  0
 13 12  1  0
 13  6  1  0
 14 15  2  0
 14 16  1  0
 16 17  1  0
 17 21  1  0
 17 18  1  1
 19 18  1  0
 20 19  2  0
 21 24  2  0
 21 22  1  0
 23 19  1  0
M  END
$$$$
