PMD.pdb
     RDKit          3D

 24 24  0  0  1  0  0  0  0  0999 V2000
    7.2539  -15.2150   19.8119 N   0  0  0  0  0  0  0  0  0  0  0  0
    6.4600  -14.0381   19.5213 C   0  0  0  0  0  0  0  0  0  0  0  0
    7.3829  -12.8949   19.2583 C   0  0  0  0  0  0  0  0  0  0  0  0
    8.7212  -13.5450   19.0830 C   0  0  0  0  0  0  0  0  0  0  0  0
    8.6175  -14.7528   19.9672 C   0  0  1  0  0  0  0  0  0  0  0  0
    8.9775  -14.5128   21.3689 C   0  0  0  0  0  0  0  0  0  0  0  0
   10.1541  -14.1182   21.6084 O   0  0  0  0  0  0  0  0  0  0  0  0
    6.6535  -11.7590   28.2743 C   0  0  0  0  0  0  0  0  0  0  0  0
    6.3401  -12.3224   26.5959 S   0  0  0  0  0  0  0  0  0  0  0  0
    7.7307  -13.3370   25.9569 C   0  0  0  0  0  0  0  0  0  0  0  0
    7.4222  -13.7220   24.5435 C   0  0  0  0  0  0  0  0  0  0  0  0
    8.5033  -14.4837   23.8439 C   0  0  2  0  0  0  0  0  0  0  0  0
    8.1092  -14.6903   22.4617 N   0  0  0  0  0  0  0  0  0  0  0  0
    8.8804  -15.7536   24.4967 C   0  0  0  0  0  0  0  0  0  0  0  0
    8.0837  -16.6940   24.5558 O   0  0  0  0  0  0  0  0  0  0  0  0
   10.1518  -15.8996   25.0597 N   0  0  0  0  0  0  0  0  0  0  0  0
   10.7092  -17.0778   25.6339 C   0  0  1  0  0  0  0  0  0  0  0  0
   12.1885  -17.2081   25.6151 C   0  0  0  0  0  0  0  0  0  0  0  0
   12.8525  -16.8242   24.3647 C   0  0  0  0  0  0  0  0  0  0  0  0
   12.6271  -17.3534   23.2499 O   0  0  0  0  0  0  0  0  0  0  0  0
   10.2496  -17.3240   27.0193 C   0  0  0  0  0  0  0  0  0  0  0  0
    9.4704  -16.4178   27.7086 O   0  0  0  0  0  0  0  0  0  0  0  0
   13.7990  -15.8092   24.3878 O   0  0  0  0  0  0  0  0  0  0  0  0
   10.5807  -18.3910   27.5816 O   0  0  0  0  0  0  0  0  0  0  0  0
  2  1  1  0
  2  3  1  0
  3  4  1  0
  5  1  1  0
  5  6  1  1
  5  4  1  0
  6  7  2  0
  8  9  1  0
  9 10  1  0
 10 11  1  0
 12 11  1  1
 12 14  1  0
 13 12  1  0
 13  6  1  0
 14 15  2  0
 14 16  1  0
 16 17  1  0
 17 21  1  0
 17 18  1  1
 19 18  1  0
 20 19  2  0
 21 24  2  0
 21 22  1  0
 23 19  1  0
M  END
$$$$
