PMD.pdb
     RDKit          3D

 24 24  0  0  1  0  0  0  0  0999 V2000
    8.4638  -15.8433   19.1057 N   0  0  0  0  0  0  0  0  0  0  0  0
    8.9903  -17.1655   18.8336 C   0  0  0  0  0  0  0  0  0  0  0  0
    8.4336  -18.1158   19.8410 C   0  0  0  0  0  0  0  0  0  0  0  0
    7.3182  -17.3484   20.4824 C   0  0  0  0  0  0  0  0  0  0  0  0
    7.7999  -15.9304   20.3898 C   0  0  1  0  0  0  0  0  0  0  0  0
    8.6588  -15.5063   21.5008 C   0  0  0  0  0  0  0  0  0  0  0  0
    9.6448  -16.2430   21.7884 O   0  0  0  0  0  0  0  0  0  0  0  0
    6.5994  -11.2778   27.0212 C   0  0  0  0  0  0  0  0  0  0  0  0
    7.5919  -12.4993   26.1519 S   0  0  0  0  0  0  0  0  0  0  0  0
    6.5511  -13.8517   25.4741 C   0  0  0  0  0  0  0  0  0  0  0  0
    6.8638  -14.0016   24.0177 C   0  0  0  0  0  0  0  0  0  0  0  0
    8.2860  -14.3472   23.7074 C   0  0  2  0  0  0  0  0  0  0  0  0
    8.4637  -14.3419   22.2662 N   0  0  0  0  0  0  0  0  0  0  0  0
    8.7553  -15.6122   24.3077 C   0  0  0  0  0  0  0  0  0  0  0  0
    8.1138  -16.6562   24.1626 O   0  0  0  0  0  0  0  0  0  0  0  0
    9.9377  -15.6356   25.0536 N   0  0  0  0  0  0  0  0  0  0  0  0
   10.5647  -16.7730   25.6381 C   0  0  1  0  0  0  0  0  0  0  0  0
   12.0464  -16.8443   25.5649 C   0  0  0  0  0  0  0  0  0  0  0  0
   12.6024  -17.4410   24.3456 C   0  0  0  0  0  0  0  0  0  0  0  0
   12.3577  -17.0382   23.1831 O   0  0  0  0  0  0  0  0  0  0  0  0
   10.1689  -16.9966   27.0468 C   0  0  0  0  0  0  0  0  0  0  0  0
   10.5362  -18.1291   27.7440 O   0  0  0  0  0  0  0  0  0  0  0  0
   13.4604  -18.5264   24.4567 O   0  0  0  0  0  0  0  0  0  0  0  0
    9.4778  -16.1273   27.6221 O   0  0  0  0  0  0  0  0  0  0  0  0
  2  1  1  0
  2  3  1  0
  3  4  1  0
  5  1  1  0
  5  6  1  1
  5  4  1  0
  6  7  2  0
  8  9  1  0
  9 10  1  0
 10 11  1  0
 12 11  1  6
 12 14  1  0
 13 12  1  0
 13  6  1  0
 14 15  2  0
 14 16  1  0
 16 17  1  0
 17 21  1  0
 17 18  1  1
 19 18  1  0
 20 19  2  0
 21 24  2  0
 21 22  1  0
 23 19  1  0
M  END
$$$$
