PMD.pdb
     RDKit          3D

 24 24  0  0  1  0  0  0  0  0999 V2000
    8.5611  -15.5489   19.0954 N   0  0  0  0  0  0  0  0  0  0  0  0
    9.3389  -16.7339   18.7950 C   0  0  0  0  0  0  0  0  0  0  0  0
    8.7236  -17.8978   19.4983 C   0  0  0  0  0  0  0  0  0  0  0  0
    7.3835  -17.3885   19.9334 C   0  0  0  0  0  0  0  0  0  0  0  0
    7.6425  -15.9264   20.1494 C   0  0  1  0  0  0  0  0  0  0  0  0
    8.1449  -15.5889   21.4856 C   0  0  0  0  0  0  0  0  0  0  0  0
    9.3958  -15.4727   21.6250 O   0  0  0  0  0  0  0  0  0  0  0  0
    7.2208  -11.6897   27.9896 C   0  0  0  0  0  0  0  0  0  0  0  0
    6.7739  -12.2446   26.3388 S   0  0  0  0  0  0  0  0  0  0  0  0
    7.0777  -14.0433   26.1292 C   0  0  0  0  0  0  0  0  0  0  0  0
    6.7222  -14.4203   24.7246 C   0  0  0  0  0  0  0  0  0  0  0  0
    7.8518  -14.9676   23.9104 C   0  0  2  0  0  0  0  0  0  0  0  0
    7.3362  -15.3861   22.6190 N   0  0  0  0  0  0  0  0  0  0  0  0
    8.6142  -16.0487   24.5669 C   0  0  0  0  0  0  0  0  0  0  0  0
    8.1475  -17.1875   24.6538 O   0  0  0  0  0  0  0  0  0  0  0  0
    9.8791  -15.7866   25.1018 N   0  0  0  0  0  0  0  0  0  0  0  0
   10.7301  -16.6998   25.7877 C   0  0  1  0  0  0  0  0  0  0  0  0
   12.1934  -16.4623   25.6986 C   0  0  0  0  0  0  0  0  0  0  0  0
   12.7824  -16.5700   24.3594 C   0  0  0  0  0  0  0  0  0  0  0  0
   12.3389  -17.3066   23.4461 O   0  0  0  0  0  0  0  0  0  0  0  0
   10.3825  -16.8582   27.2177 C   0  0  0  0  0  0  0  0  0  0  0  0
   10.9914  -17.7978   28.0239 O   0  0  0  0  0  0  0  0  0  0  0  0
   13.9078  -15.8166   24.0551 O   0  0  0  0  0  0  0  0  0  0  0  0
    9.5063  -16.1132   27.7093 O   0  0  0  0  0  0  0  0  0  0  0  0
  2  1  1  0
  2  3  1  0
  3  4  1  0
  5  1  1  0
  5  6  1  1
  5  4  1  0
  6  7  2  0
  8  9  1  0
  9 10  1  0
 10 11  1  0
 12 11  1  1
 12 14  1  0
 13 12  1  0
 13  6  1  0
 14 15  2  0
 14 16  1  0
 16 17  1  0
 17 21  1  0
 17 18  1  1
 19 18  1  0
 20 19  2  0
 21 24  2  0
 21 22  1  0
 23 19  1  0
M  END
$$$$
