PMD.pdb
     RDKit          3D

 24 24  0  0  1  0  0  0  0  0999 V2000
    7.3923  -15.0474   19.6288 N   0  0  0  0  0  0  0  0  0  0  0  0
    6.6680  -13.8464   19.2644 C   0  0  0  0  0  0  0  0  0  0  0  0
    7.6492  -12.7369   19.0793 C   0  0  0  0  0  0  0  0  0  0  0  0
    8.9746  -13.4333   19.0255 C   0  0  0  0  0  0  0  0  0  0  0  0
    8.7520  -14.6305   19.9019 C   0  0  1  0  0  0  0  0  0  0  0  0
    8.9951  -14.3930   21.3290 C   0  0  0  0  0  0  0  0  0  0  0  0
   10.1727  -14.0929   21.6768 O   0  0  0  0  0  0  0  0  0  0  0  0
    6.4890  -11.4632   28.0822 C   0  0  0  0  0  0  0  0  0  0  0  0
    6.1897  -12.0380   26.4051 S   0  0  0  0  0  0  0  0  0  0  0  0
    7.5355  -13.1436   25.8235 C   0  0  0  0  0  0  0  0  0  0  0  0
    7.2796  -13.4818   24.3877 C   0  0  0  0  0  0  0  0  0  0  0  0
    8.3053  -14.3668   23.7528 C   0  0  2  0  0  0  0  0  0  0  0  0
    8.0143  -14.4753   22.3343 N   0  0  0  0  0  0  0  0  0  0  0  0
    8.4437  -15.6956   24.3820 C   0  0  0  0  0  0  0  0  0  0  0  0
    7.6156  -16.5849   24.1677 O   0  0  0  0  0  0  0  0  0  0  0  0
    9.5207  -15.9566   25.2344 N   0  0  0  0  0  0  0  0  0  0  0  0
   10.1422  -17.2152   25.4762 C   0  0  1  0  0  0  0  0  0  0  0  0
   11.2237  -17.6284   24.5460 C   0  0  0  0  0  0  0  0  0  0  0  0
   11.8328  -18.9369   24.8082 C   0  0  0  0  0  0  0  0  0  0  0  0
   11.5598  -19.6620   25.7947 O   0  0  0  0  0  0  0  0  0  0  0  0
   10.6538  -17.3563   26.8580 C   0  0  0  0  0  0  0  0  0  0  0  0
   10.5585  -16.3396   27.7858 O   0  0  0  0  0  0  0  0  0  0  0  0
   12.7789  -19.4304   23.9204 O   0  0  0  0  0  0  0  0  0  0  0  0
   11.1903  -18.4352   27.1931 O   0  0  0  0  0  0  0  0  0  0  0  0
  2  1  1  0
  2  3  1  0
  3  4  1  0
  5  1  1  0
  5  6  1  1
  5  4  1  0
  6  7  2  0
  8  9  1  0
  9 10  1  0
 10 11  1  0
 12 11  1  1
 12 14  1  0
 13 12  1  0
 13  6  1  0
 14 15  2  0
 14 16  1  0
 16 17  1  0
 17 21  1  0
 17 18  1  6
 19 18  1  0
 20 19  2  0
 21 24  2  0
 21 22  1  0
 23 19  1  0
M  END
$$$$
