PMD.pdb
     RDKit          3D

 24 24  0  0  1  0  0  0  0  0999 V2000
    6.8247  -14.9937   19.5176 N   0  0  0  0  0  0  0  0  0  0  0  0
    6.1413  -13.7288   19.3370 C   0  0  0  0  0  0  0  0  0  0  0  0
    7.1622  -12.6663   19.0991 C   0  0  0  0  0  0  0  0  0  0  0  0
    8.4200  -13.4311   18.8205 C   0  0  0  0  0  0  0  0  0  0  0  0
    8.2331  -14.6776   19.6343 C   0  0  1  0  0  0  0  0  0  0  0  0
    8.6740  -14.5651   21.0290 C   0  0  0  0  0  0  0  0  0  0  0  0
    9.9022  -14.3497   21.2356 O   0  0  0  0  0  0  0  0  0  0  0  0
    6.8058  -11.8499   27.9337 C   0  0  0  0  0  0  0  0  0  0  0  0
    6.3739  -12.4520   26.2955 S   0  0  0  0  0  0  0  0  0  0  0  0
    7.4243  -13.8758   25.8044 C   0  0  0  0  0  0  0  0  0  0  0  0
    7.0997  -14.2337   24.3874 C   0  0  0  0  0  0  0  0  0  0  0  0
    8.2841  -14.5172   23.5184 C   0  0  2  0  0  0  0  0  0  0  0  0
    7.8298  -14.6795   22.1487 N   0  0  0  0  0  0  0  0  0  0  0  0
    9.1071  -15.6623   23.9568 C   0  0  0  0  0  0  0  0  0  0  0  0
    8.6496  -16.8082   23.9492 O   0  0  0  0  0  0  0  0  0  0  0  0
   10.4200  -15.4543   24.3901 N   0  0  0  0  0  0  0  0  0  0  0  0
   11.3603  -16.4445   24.7951 C   0  0  1  0  0  0  0  0  0  0  0  0
   12.7878  -16.0398   24.8588 C   0  0  0  0  0  0  0  0  0  0  0  0
   13.7483  -17.1113   25.1439 C   0  0  0  0  0  0  0  0  0  0  0  0
   13.7865  -17.7638   26.2146 O   0  0  0  0  0  0  0  0  0  0  0  0
   11.0126  -17.0856   26.0831 C   0  0  0  0  0  0  0  0  0  0  0  0
   11.3994  -18.3732   26.3929 O   0  0  0  0  0  0  0  0  0  0  0  0
   14.6902  -17.4464   24.1811 O   0  0  0  0  0  0  0  0  0  0  0  0
   10.3452  -16.4352   26.9174 O   0  0  0  0  0  0  0  0  0  0  0  0
  2  1  1  0
  2  3  1  0
  3  4  1  0
  5  1  1  0
  5  6  1  1
  5  4  1  0
  6  7  2  0
  8  9  1  0
  9 10  1  0
 10 11  1  0
 12 11  1  1
 12 14  1  0
 13 12  1  0
 13  6  1  0
 14 15  2  0
 14 16  1  0
 16 17  1  0
 17 21  1  0
 17 18  1  1
 19 18  1  0
 20 19  2  0
 21 24  2  0
 21 22  1  0
 23 19  1  0
M  END
$$$$
