PMD.pdb
     RDKit          3D

 24 24  0  0  1  0  0  0  0  0999 V2000
    7.1591  -14.7422   20.0228 N   0  0  0  0  0  0  0  0  0  0  0  0
    6.4381  -13.4984   19.8418 C   0  0  0  0  0  0  0  0  0  0  0  0
    7.4285  -12.3926   19.6863 C   0  0  0  0  0  0  0  0  0  0  0  0
    8.7271  -13.1023   19.4525 C   0  0  0  0  0  0  0  0  0  0  0  0
    8.5467  -14.3782   20.2211 C   0  0  1  0  0  0  0  0  0  0  0  0
    8.9115  -14.2905   21.6393 C   0  0  0  0  0  0  0  0  0  0  0  0
   10.1036  -13.9736   21.9151 O   0  0  0  0  0  0  0  0  0  0  0  0
    6.6700  -11.2497   26.1611 C   0  0  0  0  0  0  0  0  0  0  0  0
    6.6874  -12.7079   27.2127 S   0  0  0  0  0  0  0  0  0  0  0  0
    7.6048  -14.0915   26.4281 C   0  0  0  0  0  0  0  0  0  0  0  0
    7.3412  -14.0556   24.9548 C   0  0  0  0  0  0  0  0  0  0  0  0
    8.4507  -14.5815   24.0998 C   0  0  2  0  0  0  0  0  0  0  0  0
    8.0319  -14.5334   22.7102 N   0  0  0  0  0  0  0  0  0  0  0  0
    8.9308  -15.9265   24.4760 C   0  0  0  0  0  0  0  0  0  0  0  0
    8.1966  -16.9122   24.3676 O   0  0  0  0  0  0  0  0  0  0  0  0
   10.2301  -16.0935   24.9646 N   0  0  0  0  0  0  0  0  0  0  0  0
   10.8565  -17.3146   25.3457 C   0  0  1  0  0  0  0  0  0  0  0  0
   12.3268  -17.4104   25.1602 C   0  0  0  0  0  0  0  0  0  0  0  0
   12.9426  -18.6845   25.5470 C   0  0  0  0  0  0  0  0  0  0  0  0
   12.3208  -19.7683   25.6585 O   0  0  0  0  0  0  0  0  0  0  0  0
   10.5473  -17.7187   26.7357 C   0  0  0  0  0  0  0  0  0  0  0  0
   10.8154  -18.9859   27.2110 O   0  0  0  0  0  0  0  0  0  0  0  0
   14.3042  -18.7220   25.8137 O   0  0  0  0  0  0  0  0  0  0  0  0
   10.0251  -16.8806   27.5032 O   0  0  0  0  0  0  0  0  0  0  0  0
  2  1  1  0
  2  3  1  0
  3  4  1  0
  5  1  1  0
  5  6  1  1
  5  4  1  0
  6  7  2  0
  8  9  1  0
  9 10  1  0
 10 11  1  0
 12 11  1  1
 12 14  1  0
 13 12  1  0
 13  6  1  0
 14 15  2  0
 14 16  1  0
 16 17  1  0
 17 21  1  0
 17 18  1  1
 19 18  1  0
 20 19  2  0
 21 24  2  0
 21 22  1  0
 23 19  1  0
M  END
$$$$
