PMD.pdb
     RDKit          3D

 24 24  0  0  1  0  0  0  0  0999 V2000
    7.3173  -15.1291   19.6850 N   0  0  0  0  0  0  0  0  0  0  0  0
    6.5005  -13.9639   19.4117 C   0  0  0  0  0  0  0  0  0  0  0  0
    7.3993  -12.7892   19.2114 C   0  0  0  0  0  0  0  0  0  0  0  0
    8.7585  -13.3986   19.0511 C   0  0  0  0  0  0  0  0  0  0  0  0
    8.6637  -14.6376   19.8922 C   0  0  1  0  0  0  0  0  0  0  0  0
    8.9803  -14.4354   21.3102 C   0  0  0  0  0  0  0  0  0  0  0  0
   10.1550  -14.0677   21.5978 O   0  0  0  0  0  0  0  0  0  0  0  0
    6.7203  -11.8422   28.2652 C   0  0  0  0  0  0  0  0  0  0  0  0
    6.4163  -12.2765   26.5472 S   0  0  0  0  0  0  0  0  0  0  0  0
    7.6229  -13.5229   25.9455 C   0  0  0  0  0  0  0  0  0  0  0  0
    7.3583  -13.7717   24.4931 C   0  0  0  0  0  0  0  0  0  0  0  0
    8.4384  -14.5129   23.7703 C   0  0  2  0  0  0  0  0  0  0  0  0
    8.0727  -14.6212   22.3691 N   0  0  0  0  0  0  0  0  0  0  0  0
    8.7711  -15.8306   24.3481 C   0  0  0  0  0  0  0  0  0  0  0  0
    7.9863  -16.7779   24.2532 O   0  0  0  0  0  0  0  0  0  0  0  0
    9.9861  -16.0147   25.0150 N   0  0  0  0  0  0  0  0  0  0  0  0
   10.4490  -17.2032   25.6488 C   0  0  1  0  0  0  0  0  0  0  0  0
   11.8860  -17.5425   25.4891 C   0  0  0  0  0  0  0  0  0  0  0  0
   12.3601  -17.7026   24.1102 C   0  0  0  0  0  0  0  0  0  0  0  0
   11.8311  -18.4597   23.2613 O   0  0  0  0  0  0  0  0  0  0  0  0
   10.1281  -17.2561   27.0928 C   0  0  0  0  0  0  0  0  0  0  0  0
    9.5672  -16.1879   27.7621 O   0  0  0  0  0  0  0  0  0  0  0  0
   13.4675  -16.9792   23.6894 O   0  0  0  0  0  0  0  0  0  0  0  0
   10.3750  -18.3065   27.7253 O   0  0  0  0  0  0  0  0  0  0  0  0
  2  1  1  0
  2  3  1  0
  3  4  1  0
  5  1  1  0
  5  6  1  1
  5  4  1  0
  6  7  2  0
  8  9  1  0
  9 10  1  0
 10 11  1  0
 12 11  1  1
 12 14  1  0
 13 12  1  0
 13  6  1  0
 14 15  2  0
 14 16  1  0
 16 17  1  0
 17 21  1  0
 17 18  1  1
 19 18  1  0
 20 19  2  0
 21 24  2  0
 21 22  1  0
 23 19  1  0
M  END
$$$$
