PMD.pdb
     RDKit          3D

 24 24  0  0  1  0  0  0  0  0999 V2000
    8.6632  -14.6984   19.6120 N   0  0  0  0  0  0  0  0  0  0  0  0
    7.4863  -14.2316   18.9073 C   0  0  0  0  0  0  0  0  0  0  0  0
    7.1285  -12.8776   19.4235 C   0  0  0  0  0  0  0  0  0  0  0  0
    8.3366  -12.4588   20.2043 C   0  0  0  0  0  0  0  0  0  0  0  0
    8.8762  -13.7678   20.7010 C   0  0  1  0  0  0  0  0  0  0  0  0
    8.2868  -14.2289   21.9627 C   0  0  0  0  0  0  0  0  0  0  0  0
    7.1888  -14.8519   21.8990 O   0  0  0  0  0  0  0  0  0  0  0  0
    6.9128  -10.9797   27.2900 C   0  0  0  0  0  0  0  0  0  0  0  0
    7.3154  -12.5778   26.5715 S   0  0  0  0  0  0  0  0  0  0  0  0
    6.4501  -12.8328   24.9722 C   0  0  0  0  0  0  0  0  0  0  0  0
    6.8013  -14.1945   24.4586 C   0  0  0  0  0  0  0  0  0  0  0  0
    8.2623  -14.5170   24.4663 C   0  0  2  0  0  0  0  0  0  0  0  0
    8.8547  -14.0275   23.2341 N   0  0  0  0  0  0  0  0  0  0  0  0
    8.5750  -15.9429   24.6902 C   0  0  0  0  0  0  0  0  0  0  0  0
    7.8154  -16.8269   24.2853 O   0  0  0  0  0  0  0  0  0  0  0  0
    9.7417  -16.3041   25.3708 N   0  0  0  0  0  0  0  0  0  0  0  0
   10.2809  -17.6138   25.5203 C   0  0  1  0  0  0  0  0  0  0  0  0
   11.5101  -17.9340   24.7507 C   0  0  0  0  0  0  0  0  0  0  0  0
   12.0563  -19.2820   24.9422 C   0  0  0  0  0  0  0  0  0  0  0  0
   11.5392  -20.1600   25.6738 O   0  0  0  0  0  0  0  0  0  0  0  0
   10.5195  -17.9878   26.9324 C   0  0  0  0  0  0  0  0  0  0  0  0
   10.8374  -19.2764   27.3093 O   0  0  0  0  0  0  0  0  0  0  0  0
   13.2241  -19.6366   24.2810 O   0  0  0  0  0  0  0  0  0  0  0  0
   10.4292  -17.1031   27.8120 O   0  0  0  0  0  0  0  0  0  0  0  0
  2  1  1  0
  2  3  1  0
  3  4  1  0
  5  1  1  0
  5  6  1  1
  5  4  1  0
  6  7  2  0
  8  9  1  0
  9 10  1  0
 10 11  1  0
 12 11  1  6
 12 14  1  0
 13 12  1  0
 13  6  1  0
 14 15  2  0
 14 16  1  0
 16 17  1  0
 17 21  1  0
 17 18  1  6
 19 18  1  0
 20 19  2  0
 21 24  2  0
 21 22  1  0
 23 19  1  0
M  END
$$$$
