PMD.pdb
     RDKit          3D

 24 24  0  0  1  0  0  0  0  0999 V2000
    7.2939  -15.0921   19.6775 N   0  0  0  0  0  0  0  0  0  0  0  0
    6.4561  -13.9301   19.4594 C   0  0  0  0  0  0  0  0  0  0  0  0
    7.3349  -12.7367   19.2822 C   0  0  0  0  0  0  0  0  0  0  0  0
    8.6988  -13.3211   19.0756 C   0  0  0  0  0  0  0  0  0  0  0  0
    8.6372  -14.5889   19.8757 C   0  0  1  0  0  0  0  0  0  0  0  0
    8.9785  -14.4302   21.2936 C   0  0  0  0  0  0  0  0  0  0  0  0
   10.1823  -14.1687   21.5768 O   0  0  0  0  0  0  0  0  0  0  0  0
    6.6835  -11.5388   28.0931 C   0  0  0  0  0  0  0  0  0  0  0  0
    6.2306  -12.3492   26.5533 S   0  0  0  0  0  0  0  0  0  0  0  0
    7.6025  -13.3869   25.9111 C   0  0  0  0  0  0  0  0  0  0  0  0
    7.3326  -13.6844   24.4689 C   0  0  0  0  0  0  0  0  0  0  0  0
    8.4327  -14.4034   23.7538 C   0  0  2  0  0  0  0  0  0  0  0  0
    8.0645  -14.5482   22.3566 N   0  0  0  0  0  0  0  0  0  0  0  0
    8.8102  -15.6993   24.3530 C   0  0  0  0  0  0  0  0  0  0  0  0
    8.0175  -16.6448   24.3636 O   0  0  0  0  0  0  0  0  0  0  0  0
   10.0774  -15.8645   24.9201 N   0  0  0  0  0  0  0  0  0  0  0  0
   10.5812  -17.0217   25.5803 C   0  0  1  0  0  0  0  0  0  0  0  0
   12.0497  -17.2399   25.5424 C   0  0  0  0  0  0  0  0  0  0  0  0
   12.6426  -17.3982   24.2100 C   0  0  0  0  0  0  0  0  0  0  0  0
   11.9837  -17.5535   23.1539 O   0  0  0  0  0  0  0  0  0  0  0  0
   10.1435  -17.1244   26.9906 C   0  0  0  0  0  0  0  0  0  0  0  0
    9.4460  -16.1144   27.6206 O   0  0  0  0  0  0  0  0  0  0  0  0
   14.0244  -17.3788   24.0800 O   0  0  0  0  0  0  0  0  0  0  0  0
   10.4168  -18.1637   27.6305 O   0  0  0  0  0  0  0  0  0  0  0  0
  2  1  1  0
  2  3  1  0
  3  4  1  0
  5  1  1  0
  5  6  1  1
  5  4  1  0
  6  7  2  0
  8  9  1  0
  9 10  1  0
 10 11  1  0
 12 11  1  1
 12 14  1  0
 13 12  1  0
 13  6  1  0
 14 15  2  0
 14 16  1  0
 16 17  1  0
 17 21  1  0
 17 18  1  1
 19 18  1  0
 20 19  2  0
 21 24  2  0
 21 22  1  0
 23 19  1  0
M  END
$$$$
