PMD.pdb
     RDKit          3D

 24 24  0  0  1  0  0  0  0  0999 V2000
    7.0969  -14.9473   19.7007 N   0  0  0  0  0  0  0  0  0  0  0  0
    6.3371  -13.7301   19.4986 C   0  0  0  0  0  0  0  0  0  0  0  0
    7.2903  -12.5865   19.3924 C   0  0  0  0  0  0  0  0  0  0  0  0
    8.6235  -13.2445   19.2078 C   0  0  0  0  0  0  0  0  0  0  0  0
    8.4602  -14.5330   19.9591 C   0  0  1  0  0  0  0  0  0  0  0  0
    8.7626  -14.4439   21.3918 C   0  0  0  0  0  0  0  0  0  0  0  0
    9.9364  -14.1083   21.7193 O   0  0  0  0  0  0  0  0  0  0  0  0
    7.1144  -11.0482   26.8300 C   0  0  0  0  0  0  0  0  0  0  0  0
    6.1638  -12.5671   26.6818 S   0  0  0  0  0  0  0  0  0  0  0  0
    7.1992  -13.9498   26.0591 C   0  0  0  0  0  0  0  0  0  0  0  0
    7.0230  -14.0388   24.5751 C   0  0  0  0  0  0  0  0  0  0  0  0
    8.1765  -14.6392   23.8351 C   0  0  2  0  0  0  0  0  0  0  0  0
    7.8421  -14.7045   22.4235 N   0  0  0  0  0  0  0  0  0  0  0  0
    8.6199  -15.9507   24.3493 C   0  0  0  0  0  0  0  0  0  0  0  0
    7.8214  -16.8830   24.4734 O   0  0  0  0  0  0  0  0  0  0  0  0
    9.9579  -16.1458   24.7051 N   0  0  0  0  0  0  0  0  0  0  0  0
   10.5474  -17.3361   25.2192 C   0  0  1  0  0  0  0  0  0  0  0  0
   12.0229  -17.4651   25.1100 C   0  0  0  0  0  0  0  0  0  0  0  0
   12.6015  -18.7046   25.6400 C   0  0  0  0  0  0  0  0  0  0  0  0
   12.0452  -19.8276   25.5853 O   0  0  0  0  0  0  0  0  0  0  0  0
   10.1704  -17.6132   26.6235 C   0  0  0  0  0  0  0  0  0  0  0  0
   10.1369  -16.6250   27.5856 O   0  0  0  0  0  0  0  0  0  0  0  0
   13.8482  -18.6606   26.2487 O   0  0  0  0  0  0  0  0  0  0  0  0
    9.8726  -18.7844   26.9459 O   0  0  0  0  0  0  0  0  0  0  0  0
  2  1  1  0
  2  3  1  0
  3  4  1  0
  5  1  1  0
  5  6  1  1
  5  4  1  0
  6  7  2  0
  8  9  1  0
  9 10  1  0
 10 11  1  0
 12 11  1  1
 12 14  1  0
 13 12  1  0
 13  6  1  0
 14 15  2  0
 14 16  1  0
 16 17  1  0
 17 21  1  0
 17 18  1  1
 19 18  1  0
 20 19  2  0
 21 24  2  0
 21 22  1  0
 23 19  1  0
M  END
$$$$
