PMD.pdb
     RDKit          3D

 24 24  0  0  1  0  0  0  0  0999 V2000
    7.2199  -15.0383   19.8643 N   0  0  0  0  0  0  0  0  0  0  0  0
    6.3908  -13.8747   19.6226 C   0  0  0  0  0  0  0  0  0  0  0  0
    7.2752  -12.6797   19.4900 C   0  0  0  0  0  0  0  0  0  0  0  0
    8.6466  -13.2620   19.3328 C   0  0  0  0  0  0  0  0  0  0  0  0
    8.5540  -14.5363   20.1196 C   0  0  1  0  0  0  0  0  0  0  0  0
    8.8389  -14.3891   21.5511 C   0  0  0  0  0  0  0  0  0  0  0  0
    9.9884  -13.9764   21.8765 O   0  0  0  0  0  0  0  0  0  0  0  0
    6.5168  -10.9834   26.5811 C   0  0  0  0  0  0  0  0  0  0  0  0
    6.0218  -12.6914   26.8466 S   0  0  0  0  0  0  0  0  0  0  0  0
    7.2824  -13.8635   26.2074 C   0  0  0  0  0  0  0  0  0  0  0  0
    7.1003  -13.9895   24.7268 C   0  0  0  0  0  0  0  0  0  0  0  0
    8.2583  -14.5914   23.9951 C   0  0  2  0  0  0  0  0  0  0  0  0
    7.9267  -14.6737   22.5838 N   0  0  0  0  0  0  0  0  0  0  0  0
    8.7082  -15.8948   24.5241 C   0  0  0  0  0  0  0  0  0  0  0  0
    7.9553  -16.8722   24.5187 O   0  0  0  0  0  0  0  0  0  0  0  0
    9.9998  -16.0308   25.0420 N   0  0  0  0  0  0  0  0  0  0  0  0
   10.5852  -17.2037   25.5988 C   0  0  1  0  0  0  0  0  0  0  0  0
   12.0611  -17.3375   25.5023 C   0  0  0  0  0  0  0  0  0  0  0  0
   12.6331  -17.2011   24.1583 C   0  0  0  0  0  0  0  0  0  0  0  0
   12.0100  -17.4339   23.0949 O   0  0  0  0  0  0  0  0  0  0  0  0
   10.2001  -17.4335   27.0094 C   0  0  0  0  0  0  0  0  0  0  0  0
    9.5104  -16.4933   27.7470 O   0  0  0  0  0  0  0  0  0  0  0  0
   13.9516  -16.7882   24.0253 O   0  0  0  0  0  0  0  0  0  0  0  0
   10.5120  -18.5182   27.5485 O   0  0  0  0  0  0  0  0  0  0  0  0
  2  1  1  0
  2  3  1  0
  3  4  1  0
  5  1  1  0
  5  6  1  1
  5  4  1  0
  6  7  2  0
  8  9  1  0
  9 10  1  0
 10 11  1  0
 12 11  1  1
 12 14  1  0
 13 12  1  0
 13  6  1  0
 14 15  2  0
 14 16  1  0
 16 17  1  0
 17 21  1  0
 17 18  1  1
 19 18  1  0
 20 19  2  0
 21 24  2  0
 21 22  1  0
 23 19  1  0
M  END
$$$$
