PMD.pdb
     RDKit          3D

 24 24  0  0  1  0  0  0  0  0999 V2000
    7.1070  -14.8519   20.0923 N   0  0  0  0  0  0  0  0  0  0  0  0
    6.4471  -13.5687   19.9592 C   0  0  0  0  0  0  0  0  0  0  0  0
    7.4900  -12.5069   19.8463 C   0  0  0  0  0  0  0  0  0  0  0  0
    8.7533  -13.2690   19.5853 C   0  0  0  0  0  0  0  0  0  0  0  0
    8.5102  -14.5633   20.3043 C   0  0  1  0  0  0  0  0  0  0  0  0
    8.8763  -14.5477   21.7248 C   0  0  0  0  0  0  0  0  0  0  0  0
   10.0942  -14.3658   22.0100 O   0  0  0  0  0  0  0  0  0  0  0  0
    7.0970  -11.4570   27.4541 C   0  0  0  0  0  0  0  0  0  0  0  0
    6.0034  -12.1160   26.1883 S   0  0  0  0  0  0  0  0  0  0  0  0
    6.9494  -12.7700   24.7568 C   0  0  0  0  0  0  0  0  0  0  0  0
    7.2702  -14.2081   25.0219 C   0  0  0  0  0  0  0  0  0  0  0  0
    8.3710  -14.7766   24.1832 C   0  0  2  0  0  0  0  0  0  0  0  0
    7.9714  -14.7204   22.7882 N   0  0  0  0  0  0  0  0  0  0  0  0
    8.7990  -16.1357   24.5711 C   0  0  0  0  0  0  0  0  0  0  0  0
    8.0513  -17.1036   24.4083 O   0  0  0  0  0  0  0  0  0  0  0  0
   10.0634  -16.3366   25.1332 N   0  0  0  0  0  0  0  0  0  0  0  0
   10.6464  -17.5771   25.5204 C   0  0  1  0  0  0  0  0  0  0  0  0
   12.0087  -17.8759   25.0100 C   0  0  0  0  0  0  0  0  0  0  0  0
   12.6099  -19.1301   25.4763 C   0  0  0  0  0  0  0  0  0  0  0  0
   12.0457  -20.2494   25.4260 O   0  0  0  0  0  0  0  0  0  0  0  0
   10.6555  -17.7841   26.9860 C   0  0  0  0  0  0  0  0  0  0  0  0
   10.9886  -18.9953   27.5565 O   0  0  0  0  0  0  0  0  0  0  0  0
   13.8891  -19.1056   26.0146 O   0  0  0  0  0  0  0  0  0  0  0  0
   10.3504  -16.8263   27.7301 O   0  0  0  0  0  0  0  0  0  0  0  0
  2  1  1  0
  2  3  1  0
  3  4  1  0
  5  1  1  0
  5  6  1  1
  5  4  1  0
  6  7  2  0
  8  9  1  0
  9 10  1  0
 10 11  1  0
 12 11  1  1
 12 14  1  0
 13 12  1  0
 13  6  1  0
 14 15  2  0
 14 16  1  0
 16 17  1  0
 17 21  1  0
 17 18  1  1
 19 18  1  0
 20 19  2  0
 21 24  2  0
 21 22  1  0
 23 19  1  0
M  END
$$$$
