PMD.pdb
     RDKit          3D

 24 24  0  0  1  0  0  0  0  0999 V2000
    7.2029  -15.0563   19.5175 N   0  0  0  0  0  0  0  0  0  0  0  0
    6.4696  -13.8271   19.2917 C   0  0  0  0  0  0  0  0  0  0  0  0
    7.4490  -12.7166   19.1036 C   0  0  0  0  0  0  0  0  0  0  0  0
    8.7561  -13.4197   18.8993 C   0  0  0  0  0  0  0  0  0  0  0  0
    8.5856  -14.6710   19.7094 C   0  0  1  0  0  0  0  0  0  0  0  0
    8.9429  -14.5320   21.1254 C   0  0  0  0  0  0  0  0  0  0  0  0
   10.1704  -14.4282   21.4086 O   0  0  0  0  0  0  0  0  0  0  0  0
    6.6463  -11.7415   28.0931 C   0  0  0  0  0  0  0  0  0  0  0  0
    6.3335  -12.1968   26.3821 S   0  0  0  0  0  0  0  0  0  0  0  0
    7.6064  -13.3611   25.7530 C   0  0  0  0  0  0  0  0  0  0  0  0
    7.3288  -13.6252   24.3058 C   0  0  0  0  0  0  0  0  0  0  0  0
    8.4013  -14.3762   23.5818 C   0  0  2  0  0  0  0  0  0  0  0  0
    8.0196  -14.5061   22.1867 N   0  0  0  0  0  0  0  0  0  0  0  0
    8.7422  -15.6847   24.1756 C   0  0  0  0  0  0  0  0  0  0  0  0
    7.9357  -16.6182   24.1519 O   0  0  0  0  0  0  0  0  0  0  0  0
    9.9901  -15.8757   24.7766 N   0  0  0  0  0  0  0  0  0  0  0  0
   10.5170  -17.0913   25.2993 C   0  0  1  0  0  0  0  0  0  0  0  0
   11.9848  -17.2943   25.1982 C   0  0  0  0  0  0  0  0  0  0  0  0
   12.5043  -18.5365   25.7804 C   0  0  0  0  0  0  0  0  0  0  0  0
   12.2798  -18.9185   26.9539 O   0  0  0  0  0  0  0  0  0  0  0  0
   10.1201  -17.3422   26.7030 C   0  0  0  0  0  0  0  0  0  0  0  0
   10.2747  -18.5751   27.3029 O   0  0  0  0  0  0  0  0  0  0  0  0
   13.3013  -19.3644   25.0019 O   0  0  0  0  0  0  0  0  0  0  0  0
    9.6279  -16.4025   27.3656 O   0  0  0  0  0  0  0  0  0  0  0  0
  2  1  1  0
  2  3  1  0
  3  4  1  0
  5  1  1  0
  5  6  1  1
  5  4  1  0
  6  7  2  0
  8  9  1  0
  9 10  1  0
 10 11  1  0
 12 11  1  1
 12 14  1  0
 13 12  1  0
 13  6  1  0
 14 15  2  0
 14 16  1  0
 16 17  1  0
 17 21  1  0
 17 18  1  1
 19 18  1  0
 20 19  2  0
 21 24  2  0
 21 22  1  0
 23 19  1  0
M  END
$$$$
