PMD.pdb
     RDKit          3D

 24 24  0  0  1  0  0  0  0  0999 V2000
    7.4009  -16.9667   20.7812 N   0  0  0  0  0  0  0  0  0  0  0  0
    6.4258  -16.1966   20.0359 C   0  0  0  0  0  0  0  0  0  0  0  0
    7.1486  -15.1819   19.2138 C   0  0  0  0  0  0  0  0  0  0  0  0
    8.5781  -15.6269   19.2672 C   0  0  0  0  0  0  0  0  0  0  0  0
    8.6671  -16.2842   20.6130 C   0  0  1  0  0  0  0  0  0  0  0  0
    8.9671  -15.3678   21.7185 C   0  0  0  0  0  0  0  0  0  0  0  0
   10.0877  -14.7833   21.7024 O   0  0  0  0  0  0  0  0  0  0  0  0
    5.8248  -10.9948   27.4978 C   0  0  0  0  0  0  0  0  0  0  0  0
    5.8910  -12.5163   26.5422 S   0  0  0  0  0  0  0  0  0  0  0  0
    7.4399  -12.6276   25.5623 C   0  0  0  0  0  0  0  0  0  0  0  0
    7.2193  -13.5948   24.4411 C   0  0  0  0  0  0  0  0  0  0  0  0
    8.4571  -14.2557   23.9219 C   0  0  2  0  0  0  0  0  0  0  0  0
    8.0992  -15.0943   22.7917 N   0  0  0  0  0  0  0  0  0  0  0  0
    9.2225  -15.0087   24.9359 C   0  0  0  0  0  0  0  0  0  0  0  0
    9.5441  -14.4814   26.0041 O   0  0  0  0  0  0  0  0  0  0  0  0
    9.5939  -16.3339   24.6896 N   0  0  0  0  0  0  0  0  0  0  0  0
   10.3037  -17.2059   25.5638 C   0  0  1  0  0  0  0  0  0  0  0  0
    9.7012  -18.5365   25.8322 C   0  0  0  0  0  0  0  0  0  0  0  0
   10.4582  -19.4166   26.7291 C   0  0  0  0  0  0  0  0  0  0  0  0
   11.2775  -20.2857   26.3455 O   0  0  0  0  0  0  0  0  0  0  0  0
   11.7110  -17.4189   25.1575 C   0  0  0  0  0  0  0  0  0  0  0  0
   12.7058  -17.7043   26.0700 O   0  0  0  0  0  0  0  0  0  0  0  0
   10.2746  -19.3015   28.1001 O   0  0  0  0  0  0  0  0  0  0  0  0
   12.0055  -17.3366   23.9447 O   0  0  0  0  0  0  0  0  0  0  0  0
  2  1  1  0
  2  3  1  0
  3  4  1  0
  5  1  1  0
  5  6  1  1
  5  4  1  0
  6  7  2  0
  8  9  1  0
  9 10  1  0
 10 11  1  0
 12 11  1  1
 12 14  1  0
 13 12  1  0
 13  6  1  0
 14 15  2  0
 14 16  1  0
 16 17  1  0
 17 21  1  0
 17 18  1  6
 19 18  1  0
 20 19  2  0
 21 24  2  0
 21 22  1  0
 23 19  1  0
M  END
$$$$
