WAK.pdb
     RDKit          3D

 29 30  0  0  1  0  0  0  0  0999 V2000
   14.5844  -17.4299    3.3713 N   0  0  0  0  0  0  0  0  0  0  0  0
   15.6311  -18.2633    2.8551 C   0  0  1  0  0  0  0  0  0  0  0  0
   16.9019  -18.1723    3.6681 C   0  0  0  0  0  0  0  0  0  0  0  0
   17.5938  -16.8803    3.5313 C   0  0  0  0  0  0  0  0  0  0  0  0
   17.3790  -15.6902    4.1948 C   0  0  0  0  0  0  0  0  0  0  0  0
   18.2503  -14.7795    3.7452 N   0  0  0  0  0  0  0  0  0  0  0  0
   19.0474  -15.3070    2.8019 C   0  0  0  0  0  0  0  0  0  0  0  0
   20.0805  -14.7903    2.0486 C   0  0  0  0  0  0  0  0  0  0  0  0
   20.7108  -15.6162    1.1430 C   0  0  0  0  0  0  0  0  0  0  0  0
   20.3284  -16.9192    0.9875 C   0  0  0  0  0  0  0  0  0  0  0  0
   19.2896  -17.4146    1.7544 C   0  0  0  0  0  0  0  0  0  0  0  0
   18.6481  -16.6215    2.6575 C   0  0  0  0  0  0  0  0  0  0  0  0
   15.2236  -19.6926    2.8455 C   0  0  0  0  0  0  0  0  0  0  0  0
   14.6285  -20.2213    3.8300 O   0  0  0  0  0  0  0  0  0  0  0  0
   15.4503  -22.4450    0.2661 C   0  0  0  0  0  0  0  0  0  0  0  0
   15.2422  -21.9385    1.6834 C   0  0  2  0  0  0  0  0  0  0  0  0
   15.4854  -20.5161    1.7355 N   0  0  0  0  0  0  0  0  0  0  0  0
   16.0754  -22.6977    2.6197 C   0  0  0  0  0  0  0  0  0  0  0  0
   15.8704  -23.9310    2.7524 O   0  0  0  0  0  0  0  0  0  0  0  0
   17.1106  -22.1209    3.3941 N   0  0  0  0  0  0  0  0  0  0  0  0
   17.8851  -22.8559    4.3951 C   0  0  1  0  0  0  0  0  0  0  0  0
   18.8474  -21.8877    5.0065 C   0  0  0  0  0  0  0  0  0  0  0  0
   19.6363  -22.3920    6.1616 C   0  0  0  0  0  0  0  0  0  0  0  0
   20.5263  -21.3284    6.7564 C   0  0  0  0  0  0  0  0  0  0  0  0
   21.1858  -21.7902    8.0366 C   0  0  0  0  0  0  0  0  0  0  0  0
   22.0853  -20.8298    8.5963 N   0  0  0  0  0  0  0  0  0  0  0  0
   16.9991  -23.5463    5.3448 C   0  0  0  0  0  0  0  0  0  0  0  0
   15.9990  -22.8470    5.9885 O   0  0  0  0  0  0  0  0  0  0  0  0
   17.1228  -24.7895    5.6019 O   0  0  0  0  0  0  0  0  0  0  0  0
  2  1  1  1
  2 13  1  0
  3  2  1  0
  3  4  1  0
  4 12  1  0
  5  4  2  0
  5  6  1  0
  6  7  1  0
  7  8  1  0
  8  9  2  0
 10  9  1  0
 11 10  2  0
 12  7  2  0
 12 11  1  0
 13 17  1  0
 13 14  2  0
 16 15  1  6
 16 18  1  0
 17 16  1  0
 18 19  2  0
 20 21  1  0
 20 18  1  0
 22 23  1  0
 21 22  1  1
 24 23  1  0
 25 24  1  0
 26 25  1  0
 27 28  1  0
 27 21  1  0
 29 27  2  0
M  END
$$$$
