WAK.pdb
     RDKit          3D

 29 30  0  0  1  0  0  0  0  0999 V2000
   22.9232  -19.4476  -16.8642 N   0  0  0  0  0  0  0  0  0  0  0  0
   22.2973  -18.6782  -15.8283 C   0  0  1  0  0  0  0  0  0  0  0  0
   20.8032  -18.5528  -16.0185 C   0  0  0  0  0  0  0  0  0  0  0  0
   20.4153  -18.1974  -17.3933 C   0  0  0  0  0  0  0  0  0  0  0  0
   19.7757  -18.9544  -18.3527 C   0  0  0  0  0  0  0  0  0  0  0  0
   19.6275  -18.2168  -19.4594 N   0  0  0  0  0  0  0  0  0  0  0  0
   20.1425  -16.9886  -19.2866 C   0  0  0  0  0  0  0  0  0  0  0  0
   20.2360  -15.8851  -20.1082 C   0  0  0  0  0  0  0  0  0  0  0  0
   20.8386  -14.7478  -19.6155 C   0  0  0  0  0  0  0  0  0  0  0  0
   21.3354  -14.7043  -18.3429 C   0  0  0  0  0  0  0  0  0  0  0  0
   21.2298  -15.8238  -17.5377 C   0  0  0  0  0  0  0  0  0  0  0  0
   20.6392  -16.9620  -17.9979 C   0  0  0  0  0  0  0  0  0  0  0  0
   22.5144  -19.2970  -14.4946 C   0  0  0  0  0  0  0  0  0  0  0  0
   21.9548  -18.8455  -13.4525 O   0  0  0  0  0  0  0  0  0  0  0  0
   23.8711  -22.5593  -13.3323 C   0  0  0  0  0  0  0  0  0  0  0  0
   23.6254  -21.0800  -13.0868 C   0  0  2  0  0  0  0  0  0  0  0  0
   23.3550  -20.4144  -14.3393 N   0  0  0  0  0  0  0  0  0  0  0  0
   24.7530  -20.4939  -12.3573 C   0  0  0  0  0  0  0  0  0  0  0  0
   25.7979  -20.1978  -12.9907 O   0  0  0  0  0  0  0  0  0  0  0  0
   24.7384  -20.2370  -10.9653 N   0  0  0  0  0  0  0  0  0  0  0  0
   25.7705  -20.7061  -10.0396 C   0  0  1  0  0  0  0  0  0  0  0  0
   26.1909  -19.5310   -9.2152 C   0  0  0  0  0  0  0  0  0  0  0  0
   27.2215  -19.7967   -8.1768 C   0  0  0  0  0  0  0  0  0  0  0  0
   27.5679  -18.5609   -7.3831 C   0  0  0  0  0  0  0  0  0  0  0  0
   28.7154  -18.8022   -6.4281 C   0  0  0  0  0  0  0  0  0  0  0  0
   29.1935  -17.6125   -5.7949 N   0  0  0  0  0  0  0  0  0  0  0  0
   25.3037  -21.8742   -9.2773 C   0  0  0  0  0  0  0  0  0  0  0  0
   23.9519  -22.1163   -9.1450 O   0  0  0  0  0  0  0  0  0  0  0  0
   26.1157  -22.6866   -8.7224 O   0  0  0  0  0  0  0  0  0  0  0  0
  2  1  1  6
  2 13  1  0
  3  2  1  0
  3  4  1  0
  4 12  1  0
  5  4  2  0
  5  6  1  0
  6  7  1  0
  7  8  1  0
  8  9  2  0
 10  9  1  0
 11 10  2  0
 12  7  2  0
 12 11  1  0
 13 17  1  0
 13 14  2  0
 16 15  1  6
 16 18  1  0
 17 16  1  0
 18 19  2  0
 20 21  1  0
 20 18  1  0
 22 23  1  0
 21 22  1  1
 24 23  1  0
 25 24  1  0
 26 25  1  0
 27 28  1  0
 27 21  1  0
 29 27  2  0
M  END
$$$$
