WAK.pdb
     RDKit          3D

 29 30  0  0  1  0  0  0  0  0999 V2000
   25.4498  -18.6016   -8.9378 N   0  0  0  0  0  0  0  0  0  0  0  0
   26.4299  -19.5894   -9.2850 C   0  0  1  0  0  0  0  0  0  0  0  0
   26.4348  -20.7637   -8.3336 C   0  0  0  0  0  0  0  0  0  0  0  0
   26.7488  -20.3913   -6.9446 C   0  0  0  0  0  0  0  0  0  0  0  0
   25.9038  -20.0312   -5.9156 C   0  0  0  0  0  0  0  0  0  0  0  0
   26.6340  -19.7777   -4.8232 N   0  0  0  0  0  0  0  0  0  0  0  0
   27.9419  -19.9522   -5.0728 C   0  0  0  0  0  0  0  0  0  0  0  0
   29.0726  -19.8198   -4.2945 C   0  0  0  0  0  0  0  0  0  0  0  0
   30.2990  -20.0798   -4.8670 C   0  0  0  0  0  0  0  0  0  0  0  0
   30.4031  -20.4610   -6.1755 C   0  0  0  0  0  0  0  0  0  0  0  0
   29.2548  -20.5870   -6.9359 C   0  0  0  0  0  0  0  0  0  0  0  0
   28.0290  -20.3364   -6.3968 C   0  0  0  0  0  0  0  0  0  0  0  0
   26.1839  -20.1344  -10.6457 C   0  0  0  0  0  0  0  0  0  0  0  0
   25.0130  -20.2580  -11.1112 O   0  0  0  0  0  0  0  0  0  0  0  0
   28.4979  -21.2165  -13.4364 C   0  0  0  0  0  0  0  0  0  0  0  0
   27.1263  -20.9009  -12.8636 C   0  0  2  0  0  0  0  0  0  0  0  0
   27.2493  -20.5355  -11.4721 N   0  0  0  0  0  0  0  0  0  0  0  0
   26.2150  -22.0271  -13.0827 C   0  0  0  0  0  0  0  0  0  0  0  0
   26.3510  -23.0632  -12.3837 O   0  0  0  0  0  0  0  0  0  0  0  0
   25.1771  -22.0208  -14.0455 N   0  0  0  0  0  0  0  0  0  0  0  0
   24.2444  -23.1309  -14.2450 C   0  0  1  0  0  0  0  0  0  0  0  0
   23.0004  -22.5593  -14.8475 C   0  0  0  0  0  0  0  0  0  0  0  0
   21.8966  -23.5220  -15.1037 C   0  0  0  0  0  0  0  0  0  0  0  0
   20.6547  -22.8442  -15.6285 C   0  0  0  0  0  0  0  0  0  0  0  0
   19.5477  -23.8327  -15.9191 C   0  0  0  0  0  0  0  0  0  0  0  0
   18.3218  -23.2174  -16.3232 N   0  0  0  0  0  0  0  0  0  0  0  0
   24.8733  -24.2166  -15.0127 C   0  0  0  0  0  0  0  0  0  0  0  0
   24.6655  -25.5305  -14.6464 O   0  0  0  0  0  0  0  0  0  0  0  0
   25.6181  -23.9859  -16.0222 O   0  0  0  0  0  0  0  0  0  0  0  0
  2  1  1  1
  2 13  1  0
  3  2  1  0
  3  4  1  0
  4 12  1  0
  5  4  2  0
  5  6  1  0
  6  7  1  0
  7  8  1  0
  8  9  2  0
 10  9  1  0
 11 10  2  0
 12  7  2  0
 12 11  1  0
 13 17  1  0
 13 14  2  0
 16 15  1  1
 16 18  1  0
 17 16  1  0
 18 19  2  0
 20 21  1  0
 20 18  1  0
 22 23  1  0
 21 22  1  6
 24 23  1  0
 25 24  1  0
 26 25  1  0
 27 28  1  0
 27 21  1  0
 29 27  2  0
M  END
$$$$
