WAK.pdb
     RDKit          3D

 29 30  0  0  1  0  0  0  0  0999 V2000
   26.8020  -22.0683  -13.7006 N   0  0  0  0  0  0  0  0  0  0  0  0
   26.2845  -21.5483  -12.4684 C   0  0  1  0  0  0  0  0  0  0  0  0
   27.0129  -20.3062  -12.0094 C   0  0  0  0  0  0  0  0  0  0  0  0
   28.0630  -20.5768  -11.0141 C   0  0  0  0  0  0  0  0  0  0  0  0
   29.4118  -20.8028  -11.1943 C   0  0  0  0  0  0  0  0  0  0  0  0
   29.9815  -21.0025  -10.0001 N   0  0  0  0  0  0  0  0  0  0  0  0
   29.0701  -20.9206   -9.0171 C   0  0  0  0  0  0  0  0  0  0  0  0
   29.1527  -21.0480   -7.6465 C   0  0  0  0  0  0  0  0  0  0  0  0
   28.0018  -20.9036   -6.9023 C   0  0  0  0  0  0  0  0  0  0  0  0
   26.8008  -20.6402   -7.4994 C   0  0  0  0  0  0  0  0  0  0  0  0
   26.7432  -20.5168   -8.8757 C   0  0  0  0  0  0  0  0  0  0  0  0
   27.8646  -20.6545   -9.6369 C   0  0  0  0  0  0  0  0  0  0  0  0
   24.8491  -21.1860  -12.5996 C   0  0  0  0  0  0  0  0  0  0  0  0
   24.3434  -20.8641  -13.7148 O   0  0  0  0  0  0  0  0  0  0  0  0
   21.9940  -20.9726  -10.1276 C   0  0  0  0  0  0  0  0  0  0  0  0
   22.5605  -21.0184  -11.5368 C   0  0  2  0  0  0  0  0  0  0  0  0
   23.9936  -21.1873  -11.4828 N   0  0  0  0  0  0  0  0  0  0  0  0
   22.1509  -19.8277  -12.2860 C   0  0  0  0  0  0  0  0  0  0  0  0
   22.7257  -18.7346  -12.0505 O   0  0  0  0  0  0  0  0  0  0  0  0
   21.1348  -19.8319  -13.2716 N   0  0  0  0  0  0  0  0  0  0  0  0
   20.7728  -18.6621  -14.0732 C   0  0  1  0  0  0  0  0  0  0  0  0
   21.1033  -18.9828  -15.4963 C   0  0  0  0  0  0  0  0  0  0  0  0
   20.7325  -17.9519  -16.5015 C   0  0  0  0  0  0  0  0  0  0  0  0
   20.9894  -18.4112  -17.9158 C   0  0  0  0  0  0  0  0  0  0  0  0
   20.5679  -17.3762  -18.9346 C   0  0  0  0  0  0  0  0  0  0  0  0
   20.7157  -17.8119  -20.2886 N   0  0  0  0  0  0  0  0  0  0  0  0
   19.3784  -18.2643  -13.8260 C   0  0  0  0  0  0  0  0  0  0  0  0
   18.9793  -16.9651  -14.0634 O   0  0  0  0  0  0  0  0  0  0  0  0
   18.5080  -19.0893  -13.3914 O   0  0  0  0  0  0  0  0  0  0  0  0
  2  1  1  6
  2 13  1  0
  3  2  1  0
  3  4  1  0
  4 12  1  0
  5  4  2  0
  5  6  1  0
  6  7  1  0
  7  8  1  0
  8  9  2  0
 10  9  1  0
 11 10  2  0
 12  7  2  0
 12 11  1  0
 13 17  1  0
 13 14  2  0
 16 15  1  1
 16 18  1  0
 17 16  1  0
 18 19  2  0
 20 21  1  0
 20 18  1  0
 22 23  1  0
 21 22  1  6
 24 23  1  0
 25 24  1  0
 26 25  1  0
 27 28  1  0
 27 21  1  0
 29 27  2  0
M  END
$$$$
