WAK.pdb
     RDKit          3D

 29 30  0  0  1  0  0  0  0  0999 V2000
   24.3666  -20.2637  -11.9317 N   0  0  0  0  0  0  0  0  0  0  0  0
   25.7946  -20.2977  -12.0590 C   0  0  1  0  0  0  0  0  0  0  0  0
   26.4490  -21.1957  -11.0346 C   0  0  0  0  0  0  0  0  0  0  0  0
   26.3498  -20.6838   -9.6581 C   0  0  0  0  0  0  0  0  0  0  0  0
   25.2395  -20.2856   -8.9431 C   0  0  0  0  0  0  0  0  0  0  0  0
   25.6265  -19.8931   -7.7237 N   0  0  0  0  0  0  0  0  0  0  0  0
   26.9572  -20.0101   -7.5850 C   0  0  0  0  0  0  0  0  0  0  0  0
   27.8203  -19.7418   -6.5435 C   0  0  0  0  0  0  0  0  0  0  0  0
   29.1656  -19.9773   -6.7274 C   0  0  0  0  0  0  0  0  0  0  0  0
   29.6439  -20.4657   -7.9110 C   0  0  0  0  0  0  0  0  0  0  0  0
   28.7586  -20.7271   -8.9409 C   0  0  0  0  0  0  0  0  0  0  0  0
   27.4233  -20.5039   -8.7879 C   0  0  0  0  0  0  0  0  0  0  0  0
   26.2022  -20.7979  -13.3979 C   0  0  0  0  0  0  0  0  0  0  0  0
   25.9137  -21.9676  -13.7873 O   0  0  0  0  0  0  0  0  0  0  0  0
   28.0178  -19.2045  -16.3087 C   0  0  0  0  0  0  0  0  0  0  0  0
   27.3490  -20.3778  -15.6123 C   0  0  2  0  0  0  0  0  0  0  0  0
   26.9281  -19.9855  -14.2879 N   0  0  0  0  0  0  0  0  0  0  0  0
   28.2408  -21.5403  -15.6101 C   0  0  0  0  0  0  0  0  0  0  0  0
   29.2209  -21.5524  -14.8227 O   0  0  0  0  0  0  0  0  0  0  0  0
   28.0649  -22.6658  -16.4507 N   0  0  0  0  0  0  0  0  0  0  0  0
   29.0217  -23.7692  -16.5453 C   0  0  1  0  0  0  0  0  0  0  0  0
   28.2306  -25.0384  -16.5691 C   0  0  0  0  0  0  0  0  0  0  0  0
   29.0157  -26.2954  -16.6889 C   0  0  0  0  0  0  0  0  0  0  0  0
   28.1332  -27.5133  -16.8120 C   0  0  0  0  0  0  0  0  0  0  0  0
   28.9375  -28.7908  -16.9023 C   0  0  0  0  0  0  0  0  0  0  0  0
   28.1334  -29.9655  -17.0383 N   0  0  0  0  0  0  0  0  0  0  0  0
   29.9371  -23.5776  -17.6806 C   0  0  0  0  0  0  0  0  0  0  0  0
   29.5369  -22.8336  -18.7714 O   0  0  0  0  0  0  0  0  0  0  0  0
   31.1081  -24.0832  -17.6964 O   0  0  0  0  0  0  0  0  0  0  0  0
  2  1  1  6
  2 13  1  0
  3  2  1  0
  3  4  1  0
  4 12  1  0
  5  4  2  0
  5  6  1  0
  6  7  1  0
  7  8  1  0
  8  9  2  0
 10  9  1  0
 11 10  2  0
 12  7  2  0
 12 11  1  0
 13 17  1  0
 13 14  2  0
 16 15  1  1
 16 18  1  0
 17 16  1  0
 18 19  2  0
 20 21  1  0
 20 18  1  0
 22 23  1  0
 21 22  1  6
 24 23  1  0
 25 24  1  0
 26 25  1  0
 27 28  1  0
 27 21  1  0
 29 27  2  0
M  END
$$$$
