WAK.pdb
     RDKit          3D

 29 30  0  0  1  0  0  0  0  0999 V2000
   26.4659  -22.3455  -12.6449 N   0  0  0  0  0  0  0  0  0  0  0  0
   25.7585  -21.5074  -11.7209 C   0  0  1  0  0  0  0  0  0  0  0  0
   26.4792  -20.2081  -11.4443 C   0  0  0  0  0  0  0  0  0  0  0  0
   27.6524  -20.3635  -10.5690 C   0  0  0  0  0  0  0  0  0  0  0  0
   28.9781  -20.5572  -10.8972 C   0  0  0  0  0  0  0  0  0  0  0  0
   29.6957  -20.6426   -9.7709 N   0  0  0  0  0  0  0  0  0  0  0  0
   28.9067  -20.5144   -8.6918 C   0  0  0  0  0  0  0  0  0  0  0  0
   29.1594  -20.5303   -7.3362 C   0  0  0  0  0  0  0  0  0  0  0  0
   28.1013  -20.3668   -6.4684 C   0  0  0  0  0  0  0  0  0  0  0  0
   26.8269  -20.1922   -6.9304 C   0  0  0  0  0  0  0  0  0  0  0  0
   26.5985  -20.1798   -8.2944 C   0  0  0  0  0  0  0  0  0  0  0  0
   27.6250  -20.3390   -9.1760 C   0  0  0  0  0  0  0  0  0  0  0  0
   24.4112  -21.1544  -12.2397 C   0  0  0  0  0  0  0  0  0  0  0  0
   24.2152  -20.9016  -13.4647 O   0  0  0  0  0  0  0  0  0  0  0  0
   21.0159  -20.8257  -10.6026 C   0  0  0  0  0  0  0  0  0  0  0  0
   21.9489  -20.7807  -11.8011 C   0  0  2  0  0  0  0  0  0  0  0  0
   23.2968  -21.0874  -11.3838 N   0  0  0  0  0  0  0  0  0  0  0  0
   21.8388  -19.4869  -12.4799 C   0  0  0  0  0  0  0  0  0  0  0  0
   22.8091  -18.6891  -12.4275 O   0  0  0  0  0  0  0  0  0  0  0  0
   20.6925  -19.0740  -13.2007 N   0  0  0  0  0  0  0  0  0  0  0  0
   20.7463  -18.3735  -14.4846 C   0  0  1  0  0  0  0  0  0  0  0  0
   21.9662  -18.8587  -15.2013 C   0  0  0  0  0  0  0  0  0  0  0  0
   22.2833  -18.1791  -16.4852 C   0  0  0  0  0  0  0  0  0  0  0  0
   22.8029  -19.1376  -17.5285 C   0  0  0  0  0  0  0  0  0  0  0  0
   23.1687  -18.4328  -18.8155 C   0  0  0  0  0  0  0  0  0  0  0  0
   23.6674  -19.3111  -19.8278 N   0  0  0  0  0  0  0  0  0  0  0  0
   19.4823  -18.5250  -15.2215 C   0  0  0  0  0  0  0  0  0  0  0  0
   18.8682  -17.4191  -15.7724 O   0  0  0  0  0  0  0  0  0  0  0  0
   18.9210  -19.6604  -15.3727 O   0  0  0  0  0  0  0  0  0  0  0  0
  2  1  1  6
  2 13  1  0
  3  2  1  0
  3  4  1  0
  4 12  1  0
  5  4  2  0
  5  6  1  0
  6  7  1  0
  7  8  1  0
  8  9  2  0
 10  9  1  0
 11 10  2  0
 12  7  2  0
 12 11  1  0
 13 17  1  0
 13 14  2  0
 16 15  1  1
 16 18  1  0
 17 16  1  0
 18 19  2  0
 20 21  1  0
 20 18  1  0
 22 23  1  0
 21 22  1  6
 24 23  1  0
 25 24  1  0
 26 25  1  0
 27 28  1  0
 27 21  1  0
 29 27  2  0
M  END
$$$$
