WAK.pdb
     RDKit          3D

 29 30  0  0  1  0  0  0  0  0999 V2000
   26.0373  -19.2904  -11.1620 N   0  0  0  0  0  0  0  0  0  0  0  0
   26.1762  -20.7071  -11.3362 C   0  0  1  0  0  0  0  0  0  0  0  0
   26.0688  -21.4668  -10.0342 C   0  0  0  0  0  0  0  0  0  0  0  0
   26.7127  -20.7821   -8.9014 C   0  0  0  0  0  0  0  0  0  0  0  0
   26.1819  -19.8904   -7.9926 C   0  0  0  0  0  0  0  0  0  0  0  0
   27.1399  -19.5258   -7.1324 N   0  0  0  0  0  0  0  0  0  0  0  0
   28.3000  -20.1364   -7.4236 C   0  0  0  0  0  0  0  0  0  0  0  0
   29.5534  -20.0949   -6.8499 C   0  0  0  0  0  0  0  0  0  0  0  0
   30.5557  -20.8614   -7.4040 C   0  0  0  0  0  0  0  0  0  0  0  0
   30.3234  -21.6482   -8.4972 C   0  0  0  0  0  0  0  0  0  0  0  0
   29.0581  -21.6732   -9.0549 C   0  0  0  0  0  0  0  0  0  0  0  0
   28.0478  -20.9260   -8.5286 C   0  0  0  0  0  0  0  0  0  0  0  0
   25.1238  -21.2424  -12.2390 C   0  0  0  0  0  0  0  0  0  0  0  0
   23.9371  -20.8022  -12.2120 O   0  0  0  0  0  0  0  0  0  0  0  0
   25.1552  -23.8555  -14.9751 C   0  0  0  0  0  0  0  0  0  0  0  0
   24.5071  -22.7267  -14.1913 C   0  0  2  0  0  0  0  0  0  0  0  0
   25.4089  -22.2644  -13.1627 N   0  0  0  0  0  0  0  0  0  0  0  0
   23.2086  -23.1560  -13.6654 C   0  0  0  0  0  0  0  0  0  0  0  0
   23.1793  -23.8881  -12.6437 O   0  0  0  0  0  0  0  0  0  0  0  0
   21.9687  -22.7927  -14.2440 N   0  0  0  0  0  0  0  0  0  0  0  0
   20.6686  -23.1607  -13.6817 C   0  0  1  0  0  0  0  0  0  0  0  0
   19.6640  -22.1939  -14.2233 C   0  0  0  0  0  0  0  0  0  0  0  0
   18.2508  -22.4282  -13.8247 C   0  0  0  0  0  0  0  0  0  0  0  0
   17.2975  -21.4773  -14.5060 C   0  0  0  0  0  0  0  0  0  0  0  0
   15.8577  -21.7535  -14.1351 C   0  0  0  0  0  0  0  0  0  0  0  0
   14.9218  -20.8965  -14.7942 N   0  0  0  0  0  0  0  0  0  0  0  0
   20.3706  -24.5802  -13.9268 C   0  0  0  0  0  0  0  0  0  0  0  0
   20.8761  -25.2077  -15.0467 O   0  0  0  0  0  0  0  0  0  0  0  0
   19.6486  -25.2658  -13.1295 O   0  0  0  0  0  0  0  0  0  0  0  0
  2  1  1  1
  2 13  1  0
  3  2  1  0
  3  4  1  0
  4 12  1  0
  5  4  2  0
  5  6  1  0
  6  7  1  0
  7  8  1  0
  8  9  2  0
 10  9  1  0
 11 10  2  0
 12  7  2  0
 12 11  1  0
 13 17  1  0
 13 14  2  0
 16 15  1  1
 16 18  1  0
 17 16  1  0
 18 19  2  0
 20 21  1  0
 20 18  1  0
 22 23  1  0
 21 22  1  6
 24 23  1  0
 25 24  1  0
 26 25  1  0
 27 28  1  0
 27 21  1  0
 29 27  2  0
M  END
$$$$
