WAK.pdb
     RDKit          3D

 29 30  0  0  1  0  0  0  0  0999 V2000
   24.3709  -19.5630  -10.6214 N   0  0  0  0  0  0  0  0  0  0  0  0
   25.7795  -19.7413  -10.8232 C   0  0  1  0  0  0  0  0  0  0  0  0
   26.3467  -20.8740   -9.9989 C   0  0  0  0  0  0  0  0  0  0  0  0
   26.3377  -20.6070   -8.5514 C   0  0  0  0  0  0  0  0  0  0  0  0
   25.2758  -20.5390   -7.6737 C   0  0  0  0  0  0  0  0  0  0  0  0
   25.7423  -20.2724   -6.4482 N   0  0  0  0  0  0  0  0  0  0  0  0
   27.0802  -20.1570   -6.4618 C   0  0  0  0  0  0  0  0  0  0  0  0
   28.0105  -19.8940   -5.4784 C   0  0  0  0  0  0  0  0  0  0  0  0
   29.3420  -19.8415   -5.8301 C   0  0  0  0  0  0  0  0  0  0  0  0
   29.7419  -20.0439   -7.1214 C   0  0  0  0  0  0  0  0  0  0  0  0
   28.7903  -20.3061   -8.0901 C   0  0  0  0  0  0  0  0  0  0  0  0
   27.4669  -20.3640   -7.7717 C   0  0  0  0  0  0  0  0  0  0  0  0
   26.0835  -20.0455  -12.2459 C   0  0  0  0  0  0  0  0  0  0  0  0
   25.2949  -20.7282  -12.9635 O   0  0  0  0  0  0  0  0  0  0  0  0
   28.8945  -19.0014  -14.5519 C   0  0  0  0  0  0  0  0  0  0  0  0
   27.5731  -19.6918  -14.2586 C   0  0  2  0  0  0  0  0  0  0  0  0
   27.2660  -19.5833  -12.8519 N   0  0  0  0  0  0  0  0  0  0  0  0
   27.6101  -21.0778  -14.7325 C   0  0  0  0  0  0  0  0  0  0  0  0
   28.2785  -21.9233  -14.0852 O   0  0  0  0  0  0  0  0  0  0  0  0
   26.9308  -21.5298  -15.8894 N   0  0  0  0  0  0  0  0  0  0  0  0
   26.9532  -22.9163  -16.3575 C   0  0  1  0  0  0  0  0  0  0  0  0
   25.8176  -23.6256  -15.6906 C   0  0  0  0  0  0  0  0  0  0  0  0
   25.5617  -25.0187  -16.1428 C   0  0  0  0  0  0  0  0  0  0  0  0
   24.3216  -25.6067  -15.5153 C   0  0  0  0  0  0  0  0  0  0  0  0
   24.5417  -27.0272  -15.0455 C   0  0  0  0  0  0  0  0  0  0  0  0
   23.3707  -27.6365  -14.4956 N   0  0  0  0  0  0  0  0  0  0  0  0
   26.9560  -22.9768  -17.8272 C   0  0  0  0  0  0  0  0  0  0  0  0
   26.7591  -21.8279  -18.5653 O   0  0  0  0  0  0  0  0  0  0  0  0
   27.1356  -24.0712  -18.4574 O   0  0  0  0  0  0  0  0  0  0  0  0
  2  1  1  6
  2 13  1  0
  3  2  1  0
  3  4  1  0
  4 12  1  0
  5  4  2  0
  5  6  1  0
  6  7  1  0
  7  8  1  0
  8  9  2  0
 10  9  1  0
 11 10  2  0
 12  7  2  0
 12 11  1  0
 13 17  1  0
 13 14  2  0
 16 15  1  1
 16 18  1  0
 17 16  1  0
 18 19  2  0
 20 21  1  0
 20 18  1  0
 22 23  1  0
 21 22  1  6
 24 23  1  0
 25 24  1  0
 26 25  1  0
 27 28  1  0
 27 21  1  0
 29 27  2  0
M  END
$$$$
