WAK.pdb
     RDKit          3D

 29 30  0  0  1  0  0  0  0  0999 V2000
   23.6318  -20.4385  -14.8802 N   0  0  0  0  0  0  0  0  0  0  0  0
   22.2947  -20.1322  -14.4618 C   0  0  1  0  0  0  0  0  0  0  0  0
   21.2580  -20.5357  -15.4848 C   0  0  0  0  0  0  0  0  0  0  0  0
   21.2001  -19.6346  -16.6472 C   0  0  0  0  0  0  0  0  0  0  0  0
   22.0932  -19.4774  -17.6866 C   0  0  0  0  0  0  0  0  0  0  0  0
   21.6269  -18.5411  -18.5212 N   0  0  0  0  0  0  0  0  0  0  0  0
   20.4517  -18.0575  -18.0870 C   0  0  0  0  0  0  0  0  0  0  0  0
   19.5890  -17.1017  -18.5809 C   0  0  0  0  0  0  0  0  0  0  0  0
   18.4350  -16.8315  -17.8778 C   0  0  0  0  0  0  0  0  0  0  0  0
   18.1427  -17.4903  -16.7164 C   0  0  0  0  0  0  0  0  0  0  0  0
   19.0234  -18.4448  -16.2410 C   0  0  0  0  0  0  0  0  0  0  0  0
   20.1719  -18.7327  -16.9149 C   0  0  0  0  0  0  0  0  0  0  0  0
   21.9536  -20.8356  -13.1977 C   0  0  0  0  0  0  0  0  0  0  0  0
   22.2863  -22.0404  -12.9960 O   0  0  0  0  0  0  0  0  0  0  0  0
   20.5639  -19.6836   -9.8988 C   0  0  0  0  0  0  0  0  0  0  0  0
   20.8964  -20.7760  -10.9012 C   0  0  2  0  0  0  0  0  0  0  0  0
   21.2440  -20.1849  -12.1719 N   0  0  0  0  0  0  0  0  0  0  0  0
   19.7883  -21.7300  -10.9962 C   0  0  0  0  0  0  0  0  0  0  0  0
   18.8812  -21.5249  -11.8423 O   0  0  0  0  0  0  0  0  0  0  0  0
   19.6744  -22.8837  -10.1837 N   0  0  0  0  0  0  0  0  0  0  0  0
   18.5398  -23.8069  -10.2345 C   0  0  1  0  0  0  0  0  0  0  0  0
   18.9205  -25.0178   -9.4433 C   0  0  0  0  0  0  0  0  0  0  0  0
   17.8933  -26.0891   -9.3537 C   0  0  0  0  0  0  0  0  0  0  0  0
   18.3760  -27.2820   -8.5655 C   0  0  0  0  0  0  0  0  0  0  0  0
   17.3581  -28.4002   -8.5468 C   0  0  0  0  0  0  0  0  0  0  0  0
   17.8502  -29.6132   -7.9713 N   0  0  0  0  0  0  0  0  0  0  0  0
   17.2991  -23.1417   -9.8080 C   0  0  0  0  0  0  0  0  0  0  0  0
   17.3354  -22.1869   -8.8127 O   0  0  0  0  0  0  0  0  0  0  0  0
   16.1698  -23.4195  -10.3319 O   0  0  0  0  0  0  0  0  0  0  0  0
  2  1  1  6
  2 13  1  0
  3  2  1  0
  3  4  1  0
  4 12  1  0
  5  4  2  0
  5  6  1  0
  6  7  1  0
  7  8  1  0
  8  9  2  0
 10  9  1  0
 11 10  2  0
 12  7  2  0
 12 11  1  0
 13 17  1  0
 13 14  2  0
 16 15  1  1
 16 18  1  0
 17 16  1  0
 18 19  2  0
 20 21  1  0
 20 18  1  0
 22 23  1  0
 21 22  1  1
 24 23  1  0
 25 24  1  0
 26 25  1  0
 27 28  1  0
 27 21  1  0
 29 27  2  0
M  END
$$$$
