WAK.pdb
     RDKit          3D

 29 30  0  0  1  0  0  0  0  0999 V2000
   25.5422  -23.0649  -11.6916 N   0  0  0  0  0  0  0  0  0  0  0  0
   25.0968  -21.7850  -11.2224 C   0  0  1  0  0  0  0  0  0  0  0  0
   26.0820  -20.6794  -11.5245 C   0  0  0  0  0  0  0  0  0  0  0  0
   27.3197  -20.7649  -10.7325 C   0  0  0  0  0  0  0  0  0  0  0  0
   28.6062  -21.0568  -11.1356 C   0  0  0  0  0  0  0  0  0  0  0  0
   29.4137  -21.0201  -10.0691 N   0  0  0  0  0  0  0  0  0  0  0  0
   28.7235  -20.7145   -8.9585 C   0  0  0  0  0  0  0  0  0  0  0  0
   29.0895  -20.5584   -7.6381 C   0  0  0  0  0  0  0  0  0  0  0  0
   28.1144  -20.2350   -6.7194 C   0  0  0  0  0  0  0  0  0  0  0  0
   26.8114  -20.0705   -7.0980 C   0  0  0  0  0  0  0  0  0  0  0  0
   26.4687  -20.2323   -8.4280 C   0  0  0  0  0  0  0  0  0  0  0  0
   27.4113  -20.5520   -9.3584 C   0  0  0  0  0  0  0  0  0  0  0  0
   23.8070  -21.4012  -11.8534 C   0  0  0  0  0  0  0  0  0  0  0  0
   23.5172  -21.7448  -13.0371 O   0  0  0  0  0  0  0  0  0  0  0  0
   20.7431  -19.6166  -10.5371 C   0  0  0  0  0  0  0  0  0  0  0  0
   21.5086  -20.3754  -11.6081 C   0  0  2  0  0  0  0  0  0  0  0  0
   22.8544  -20.6373  -11.1549 N   0  0  0  0  0  0  0  0  0  0  0  0
   21.4627  -19.6443  -12.8771 C   0  0  0  0  0  0  0  0  0  0  0  0
   22.2901  -18.7187  -13.0750 O   0  0  0  0  0  0  0  0  0  0  0  0
   20.5320  -19.9194  -13.9078 N   0  0  0  0  0  0  0  0  0  0  0  0
   20.5493  -19.2650  -15.2168 C   0  0  1  0  0  0  0  0  0  0  0  0
   20.0129  -20.2477  -16.2086 C   0  0  0  0  0  0  0  0  0  0  0  0
   19.9146  -19.7706  -17.6134 C   0  0  0  0  0  0  0  0  0  0  0  0
   19.3380  -20.8168  -18.5355 C   0  0  0  0  0  0  0  0  0  0  0  0
   19.3391  -20.3649  -19.9786 C   0  0  0  0  0  0  0  0  0  0  0  0
   18.8321  -21.3465  -20.8866 N   0  0  0  0  0  0  0  0  0  0  0  0
   19.8480  -17.9728  -15.1697 C   0  0  0  0  0  0  0  0  0  0  0  0
   20.1743  -16.9778  -16.0681 O   0  0  0  0  0  0  0  0  0  0  0  0
   18.9336  -17.7319  -14.3137 O   0  0  0  0  0  0  0  0  0  0  0  0
  2  1  1  6
  2 13  1  0
  3  2  1  0
  3  4  1  0
  4 12  1  0
  5  4  2  0
  5  6  1  0
  6  7  1  0
  7  8  1  0
  8  9  2  0
 10  9  1  0
 11 10  2  0
 12  7  2  0
 12 11  1  0
 13 17  1  0
 13 14  2  0
 16 15  1  1
 16 18  1  0
 17 16  1  0
 18 19  2  0
 20 21  1  0
 20 18  1  0
 22 23  1  0
 21 22  1  6
 24 23  1  0
 25 24  1  0
 26 25  1  0
 27 28  1  0
 27 21  1  0
 29 27  2  0
M  END
$$$$
