FNC.pdb
     RDKit          3D

 26 26  0  0  1  0  0  0  0  0999 V2000
   10.6727  -16.1617   20.2846 N   0  0  0  0  0  0  0  0  0  0  0  0
   10.0771  -15.8569   21.5697 C   0  0  1  0  0  0  0  0  0  0  0  0
    8.5896  -15.5765   21.3365 C   0  0  0  0  0  0  0  0  0  0  0  0
    8.3956  -14.3113   20.6097 C   0  0  0  0  0  0  0  0  0  0  0  0
    9.4901  -13.5903   20.1796 C   0  0  0  0  0  0  0  0  0  0  0  0
    9.3251  -12.4028   19.4973 C   0  0  0  0  0  0  0  0  0  0  0  0
    8.0408  -11.9472   19.2517 C   0  0  0  0  0  0  0  0  0  0  0  0
    6.9203  -12.6397   19.6656 C   0  0  0  0  0  0  0  0  0  0  0  0
    7.1321  -13.8247   20.3458 C   0  0  0  0  0  0  0  0  0  0  0  0
   10.1374  -17.0966   22.3931 C   0  0  0  0  0  0  0  0  0  0  0  0
    9.4718  -17.2766   23.4208 O   0  0  0  0  0  0  0  0  0  0  0  0
   12.8821  -22.5683   21.5279 N   0  0  0  0  0  0  0  0  0  0  0  0
   11.9504  -21.6917   22.1717 C   0  0  0  0  0  0  0  0  0  0  0  0
   11.3604  -22.1503   23.1754 O   0  0  0  0  0  0  0  0  0  0  0  0
   11.7768  -20.3552   21.6017 C   0  0  0  0  0  0  0  0  0  0  0  0
   11.1804  -19.3913   22.6197 C   0  0  2  0  0  0  0  0  0  0  0  0
   11.0187  -18.1158   21.9499 N   0  0  0  0  0  0  0  0  0  0  0  0
   12.1712  -19.1457   23.7280 C   0  0  0  0  0  0  0  0  0  0  0  0
   13.2044  -18.4555   23.5843 O   0  0  0  0  0  0  0  0  0  0  0  0
   11.9463  -19.7156   25.0150 N   0  0  0  0  0  0  0  0  0  0  0  0
   12.8477  -19.6021   26.1148 C   0  0  1  0  0  0  0  0  0  0  0  0
   12.2808  -18.8502   27.2936 C   0  0  0  0  0  0  0  0  0  0  0  0
   10.5401  -19.3013   27.5358 S   0  0  0  0  0  0  0  0  0  0  0  0
   13.2997  -20.9453   26.5466 C   0  0  0  0  0  0  0  0  0  0  0  0
   14.3402  -21.0454   27.4531 O   0  0  0  0  0  0  0  0  0  0  0  0
   12.7751  -21.9971   26.1219 O   0  0  0  0  0  0  0  0  0  0  0  0
  2  1  1  6
  2 10  1  0
  2  3  1  0
  3  4  1  0
  4  5  2  0
  6  5  1  0
  7  6  2  0
  8  9  2  0
  8  7  1  0
  9  4  1  0
 10 17  1  0
 11 10  2  0
 13 12  1  0
 14 13  2  0
 15 13  1  0
 16 15  1  6
 16 18  1  0
 17 16  1  0
 18 19  2  0
 18 20  1  0
 20 21  1  0
 21 24  1  0
 21 22  1  1
 23 22  1  0
 24 26  2  0
 24 25  1  0
M  END
$$$$
