FNC.pdb
     RDKit          3D

 26 26  0  0  1  0  0  0  0  0999 V2000
    6.1843  -16.6021   25.9368 N   0  0  0  0  0  0  0  0  0  0  0  0
    7.1755  -16.3137   24.9201 C   0  0  1  0  0  0  0  0  0  0  0  0
    8.2183  -15.3795   25.5410 C   0  0  0  0  0  0  0  0  0  0  0  0
    7.6508  -14.0455   25.7960 C   0  0  0  0  0  0  0  0  0  0  0  0
    7.4729  -13.1625   24.7513 C   0  0  0  0  0  0  0  0  0  0  0  0
    6.9425  -11.9088   24.9737 C   0  0  0  0  0  0  0  0  0  0  0  0
    6.5915  -11.5521   26.2648 C   0  0  0  0  0  0  0  0  0  0  0  0
    6.7540  -12.4072   27.3367 C   0  0  0  0  0  0  0  0  0  0  0  0
    7.2891  -13.6535   27.0681 C   0  0  0  0  0  0  0  0  0  0  0  0
    7.8897  -17.5863   24.6217 C   0  0  0  0  0  0  0  0  0  0  0  0
    7.9910  -18.5256   25.4211 O   0  0  0  0  0  0  0  0  0  0  0  0
    6.8440  -20.1481   22.7169 N   0  0  0  0  0  0  0  0  0  0  0  0
    7.4409  -19.8475   21.4503 C   0  0  0  0  0  0  0  0  0  0  0  0
    6.7998  -20.2042   20.4366 O   0  0  0  0  0  0  0  0  0  0  0  0
    8.7317  -19.1584   21.4593 C   0  0  0  0  0  0  0  0  0  0  0  0
    9.1993  -18.8749   22.8813 C   0  0  2  0  0  0  0  0  0  0  0  0
    8.4796  -17.7018   23.3370 N   0  0  0  0  0  0  0  0  0  0  0  0
   10.6534  -18.4803   22.8687 C   0  0  0  0  0  0  0  0  0  0  0  0
   11.5758  -19.2688   22.5654 O   0  0  0  0  0  0  0  0  0  0  0  0
   11.0267  -17.1490   23.2152 N   0  0  0  0  0  0  0  0  0  0  0  0
   12.3718  -16.6768   23.2653 C   0  0  1  0  0  0  0  0  0  0  0  0
   12.5547  -15.2930   22.6926 C   0  0  0  0  0  0  0  0  0  0  0  0
   11.8476  -15.2160   21.0234 S   0  0  0  0  0  0  0  0  0  0  0  0
   12.8757  -16.7141   24.6581 C   0  0  0  0  0  0  0  0  0  0  0  0
   14.1906  -16.3629   24.9070 O   0  0  0  0  0  0  0  0  0  0  0  0
   12.1557  -17.0522   25.6220 O   0  0  0  0  0  0  0  0  0  0  0  0
  2  1  1  1
  2 10  1  0
  2  3  1  0
  3  4  1  0
  4  5  2  0
  6  5  1  0
  7  6  2  0
  8  9  2  0
  8  7  1  0
  9  4  1  0
 10 17  1  0
 11 10  2  0
 13 12  1  0
 14 13  2  0
 15 13  1  0
 16 15  1  6
 16 18  1  0
 17 16  1  0
 18 19  2  0
 18 20  1  0
 20 21  1  0
 21 24  1  0
 21 22  1  1
 23 22  1  0
 24 26  2  0
 24 25  1  0
M  END
$$$$
