FNC.pdb
     RDKit          3D

 26 26  0  0  1  0  0  0  0  0999 V2000
    7.8905  -17.3334   20.7022 N   0  0  0  0  0  0  0  0  0  0  0  0
    9.1928  -16.7165   20.5522 C   0  0  1  0  0  0  0  0  0  0  0  0
    9.2193  -15.4681   21.4391 C   0  0  0  0  0  0  0  0  0  0  0  0
    8.4275  -14.3785   20.8456 C   0  0  0  0  0  0  0  0  0  0  0  0
    7.6851  -13.5465   21.6575 C   0  0  0  0  0  0  0  0  0  0  0  0
    6.9378  -12.5209   21.1166 C   0  0  0  0  0  0  0  0  0  0  0  0
    6.9462  -12.3412   19.7437 C   0  0  0  0  0  0  0  0  0  0  0  0
    7.6760  -13.1525   18.8977 C   0  0  0  0  0  0  0  0  0  0  0  0
    8.4103  -14.1676   19.4824 C   0  0  0  0  0  0  0  0  0  0  0  0
   10.1974  -17.6523   21.1297 C   0  0  0  0  0  0  0  0  0  0  0  0
    9.9054  -18.6805   21.7535 O   0  0  0  0  0  0  0  0  0  0  0  0
   14.3735  -19.4384   19.1953 N   0  0  0  0  0  0  0  0  0  0  0  0
   13.9733  -18.0815   19.4182 C   0  0  0  0  0  0  0  0  0  0  0  0
   13.6915  -17.4121   18.3991 O   0  0  0  0  0  0  0  0  0  0  0  0
   13.9317  -17.6090   20.8024 C   0  0  0  0  0  0  0  0  0  0  0  0
   12.6640  -18.0726   21.5089 C   0  0  2  0  0  0  0  0  0  0  0  0
   11.5633  -17.3211   20.9386 N   0  0  0  0  0  0  0  0  0  0  0  0
   12.7178  -17.6756   22.9614 C   0  0  0  0  0  0  0  0  0  0  0  0
   13.3165  -16.6572   23.3727 O   0  0  0  0  0  0  0  0  0  0  0  0
   12.0632  -18.4812   23.9382 N   0  0  0  0  0  0  0  0  0  0  0  0
   12.0934  -18.2289   25.3419 C   0  0  1  0  0  0  0  0  0  0  0  0
   10.7281  -18.0564   25.9606 C   0  0  0  0  0  0  0  0  0  0  0  0
    9.8027  -16.7750   25.0695 S   0  0  0  0  0  0  0  0  0  0  0  0
   12.8279  -19.3094   26.0404 C   0  0  0  0  0  0  0  0  0  0  0  0
   13.2152  -20.4296   25.3265 O   0  0  0  0  0  0  0  0  0  0  0  0
   13.1130  -19.2484   27.2556 O   0  0  0  0  0  0  0  0  0  0  0  0
  2  1  1  1
  2 10  1  0
  2  3  1  0
  3  4  1  0
  4  5  2  0
  6  5  1  0
  7  6  2  0
  8  9  2  0
  8  7  1  0
  9  4  1  0
 10 17  1  0
 11 10  2  0
 13 12  1  0
 14 13  2  0
 15 13  1  0
 16 15  1  6
 16 18  1  0
 17 16  1  0
 18 19  2  0
 18 20  1  0
 20 21  1  0
 21 24  1  0
 21 22  1  1
 23 22  1  0
 24 26  2  0
 24 25  1  0
M  END
$$$$
