FNC.pdb
     RDKit          3D

 26 26  0  0  1  0  0  0  0  0999 V2000
    9.7805  -16.6174   19.6065 N   0  0  0  0  0  0  0  0  0  0  0  0
   10.7617  -15.5539   19.6806 C   0  0  1  0  0  0  0  0  0  0  0  0
   10.3231  -14.5951   20.7915 C   0  0  0  0  0  0  0  0  0  0  0  0
    9.1244  -13.8377   20.3962 C   0  0  0  0  0  0  0  0  0  0  0  0
    7.9003  -14.1490   20.9503 C   0  0  0  0  0  0  0  0  0  0  0  0
    6.7677  -13.4486   20.5903 C   0  0  0  0  0  0  0  0  0  0  0  0
    6.8815  -12.4272   19.6624 C   0  0  0  0  0  0  0  0  0  0  0  0
    8.0884  -12.0855   19.0853 C   0  0  0  0  0  0  0  0  0  0  0  0
    9.1974  -12.8134   19.4751 C   0  0  0  0  0  0  0  0  0  0  0  0
   12.0410  -16.1606   20.1428 C   0  0  0  0  0  0  0  0  0  0  0  0
   12.1279  -17.2842   20.6542 O   0  0  0  0  0  0  0  0  0  0  0  0
   15.0982  -13.6798   17.6608 N   0  0  0  0  0  0  0  0  0  0  0  0
   15.5449  -14.8484   18.3578 C   0  0  0  0  0  0  0  0  0  0  0  0
   15.9128  -15.8107   17.6476 O   0  0  0  0  0  0  0  0  0  0  0  0
   15.5296  -14.8087   19.8205 C   0  0  0  0  0  0  0  0  0  0  0  0
   14.5351  -15.8113   20.3922 C   0  0  2  0  0  0  0  0  0  0  0  0
   13.2149  -15.3822   19.9747 N   0  0  0  0  0  0  0  0  0  0  0  0
   14.5341  -15.7243   21.8965 C   0  0  0  0  0  0  0  0  0  0  0  0
   15.0311  -14.7662   22.5288 O   0  0  0  0  0  0  0  0  0  0  0  0
   13.9445  -16.7708   22.6638 N   0  0  0  0  0  0  0  0  0  0  0  0
   13.9356  -16.8176   24.0895 C   0  0  1  0  0  0  0  0  0  0  0  0
   12.5867  -17.1446   24.6810 C   0  0  0  0  0  0  0  0  0  0  0  0
   11.3783  -15.8783   24.2030 S   0  0  0  0  0  0  0  0  0  0  0  0
   14.9452  -17.7865   24.5761 C   0  0  0  0  0  0  0  0  0  0  0  0
   15.5481  -18.6413   23.6704 O   0  0  0  0  0  0  0  0  0  0  0  0
   15.2754  -17.8625   25.7790 O   0  0  0  0  0  0  0  0  0  0  0  0
  2  1  1  1
  2 10  1  0
  2  3  1  0
  3  4  1  0
  4  5  2  0
  6  5  1  0
  7  6  2  0
  8  9  2  0
  8  7  1  0
  9  4  1  0
 10 17  1  0
 11 10  2  0
 13 12  1  0
 14 13  2  0
 15 13  1  0
 16 15  1  6
 16 18  1  0
 17 16  1  0
 18 19  2  0
 18 20  1  0
 20 21  1  0
 21 24  1  0
 21 22  1  6
 23 22  1  0
 24 26  2  0
 24 25  1  0
M  END
$$$$
