FNC.pdb
     RDKit          3D

 26 26  0  0  1  0  0  0  0  0999 V2000
    5.4318  -17.5785   24.6191 N   0  0  0  0  0  0  0  0  0  0  0  0
    6.1443  -16.3314   24.4287 C   0  0  1  0  0  0  0  0  0  0  0  0
    6.6223  -15.8559   25.8038 C   0  0  0  0  0  0  0  0  0  0  0  0
    6.5631  -14.3888   25.9082 C   0  0  0  0  0  0  0  0  0  0  0  0
    5.4537  -13.7826   26.4597 C   0  0  0  0  0  0  0  0  0  0  0  0
    5.3829  -12.4090   26.5645 C   0  0  0  0  0  0  0  0  0  0  0  0
    6.4458  -11.6491   26.1061 C   0  0  0  0  0  0  0  0  0  0  0  0
    7.5733  -12.2182   25.5481 C   0  0  0  0  0  0  0  0  0  0  0  0
    7.6018  -13.5978   25.4628 C   0  0  0  0  0  0  0  0  0  0  0  0
    7.3758  -16.6374   23.6488 C   0  0  0  0  0  0  0  0  0  0  0  0
    7.9773  -17.7176   23.7028 O   0  0  0  0  0  0  0  0  0  0  0  0
    6.6753  -13.6469   20.2877 N   0  0  0  0  0  0  0  0  0  0  0  0
    7.5843  -14.7407   20.1201 C   0  0  0  0  0  0  0  0  0  0  0  0
    7.2061  -15.6655   19.3666 O   0  0  0  0  0  0  0  0  0  0  0  0
    8.8577  -14.6759   20.8381 C   0  0  0  0  0  0  0  0  0  0  0  0
    8.9674  -15.7875   21.8742 C   0  0  2  0  0  0  0  0  0  0  0  0
    7.8670  -15.6115   22.8013 N   0  0  0  0  0  0  0  0  0  0  0  0
   10.2203  -15.5996   22.6900 C   0  0  0  0  0  0  0  0  0  0  0  0
   10.8456  -14.5178   22.7480 O   0  0  0  0  0  0  0  0  0  0  0  0
   10.7425  -16.6911   23.4434 N   0  0  0  0  0  0  0  0  0  0  0  0
   11.8088  -16.5830   24.3847 C   0  0  1  0  0  0  0  0  0  0  0  0
   11.5946  -15.5162   25.4299 C   0  0  0  0  0  0  0  0  0  0  0  0
   10.4975  -16.1393   26.7339 S   0  0  0  0  0  0  0  0  0  0  0  0
   12.0453  -17.8894   25.0423 C   0  0  0  0  0  0  0  0  0  0  0  0
   11.1695  -18.9327   24.7996 O   0  0  0  0  0  0  0  0  0  0  0  0
   13.0101  -18.0871   25.8117 O   0  0  0  0  0  0  0  0  0  0  0  0
  2  1  1  1
  2 10  1  0
  2  3  1  0
  3  4  1  0
  4  5  2  0
  6  5  1  0
  7  6  2  0
  8  9  2  0
  8  7  1  0
  9  4  1  0
 10 17  1  0
 11 10  2  0
 13 12  1  0
 14 13  2  0
 15 13  1  0
 16 15  1  6
 16 18  1  0
 17 16  1  0
 18 19  2  0
 18 20  1  0
 20 21  1  0
 21 24  1  0
 21 22  1  1
 23 22  1  0
 24 26  2  0
 24 25  1  0
M  END
$$$$
