FNC.pdb
     RDKit          3D

 26 26  0  0  1  0  0  0  0  0999 V2000
    8.8425  -14.3635   24.7362 N   0  0  0  0  0  0  0  0  0  0  0  0
    7.7133  -15.1848   24.3493 C   0  0  1  0  0  0  0  0  0  0  0  0
    6.4817  -14.2770   24.2808 C   0  0  0  0  0  0  0  0  0  0  0  0
    6.4428  -13.3483   25.4221 C   0  0  0  0  0  0  0  0  0  0  0  0
    7.0603  -12.1183   25.3295 C   0  0  0  0  0  0  0  0  0  0  0  0
    7.0328  -11.2368   26.3902 C   0  0  0  0  0  0  0  0  0  0  0  0
    6.3741  -11.6086   27.5500 C   0  0  0  0  0  0  0  0  0  0  0  0
    5.7443  -12.8303   27.6817 C   0  0  0  0  0  0  0  0  0  0  0  0
    5.7967  -13.6824   26.5942 C   0  0  0  0  0  0  0  0  0  0  0  0
    7.9588  -15.6503   22.9559 C   0  0  0  0  0  0  0  0  0  0  0  0
    7.3912  -16.6227   22.4422 O   0  0  0  0  0  0  0  0  0  0  0  0
    7.6878  -12.7397   19.5028 N   0  0  0  0  0  0  0  0  0  0  0  0
    8.2277  -14.0634   19.4176 C   0  0  0  0  0  0  0  0  0  0  0  0
    7.5068  -14.9214   18.8606 O   0  0  0  0  0  0  0  0  0  0  0  0
    9.5582  -14.2873   19.9838 C   0  0  0  0  0  0  0  0  0  0  0  0
    9.5456  -15.4246   20.9974 C   0  0  2  0  0  0  0  0  0  0  0  0
    8.9045  -14.9170   22.1945 N   0  0  0  0  0  0  0  0  0  0  0  0
   10.9576  -15.7591   21.4032 C   0  0  0  0  0  0  0  0  0  0  0  0
   11.6500  -15.0276   22.1448 O   0  0  0  0  0  0  0  0  0  0  0  0
   11.5607  -16.9624   20.9341 N   0  0  0  0  0  0  0  0  0  0  0  0
   12.5586  -17.6934   21.6445 C   0  0  1  0  0  0  0  0  0  0  0  0
   12.1432  -18.0981   23.0373 C   0  0  0  0  0  0  0  0  0  0  0  0
   12.3833  -16.7110   24.1820 S   0  0  0  0  0  0  0  0  0  0  0  0
   12.9615  -18.8921   20.8727 C   0  0  0  0  0  0  0  0  0  0  0  0
   14.3078  -19.1726   20.7204 O   0  0  0  0  0  0  0  0  0  0  0  0
   12.1285  -19.6640   20.3511 O   0  0  0  0  0  0  0  0  0  0  0  0
  2  1  1  6
  2 10  1  0
  2  3  1  0
  3  4  1  0
  4  5  2  0
  6  5  1  0
  7  6  2  0
  8  9  2  0
  8  7  1  0
  9  4  1  0
 10 17  1  0
 11 10  2  0
 13 12  1  0
 14 13  2  0
 15 13  1  0
 16 15  1  6
 16 18  1  0
 17 16  1  0
 18 19  2  0
 18 20  1  0
 20 21  1  0
 21 24  1  0
 21 22  1  1
 23 22  1  0
 24 26  2  0
 24 25  1  0
M  END
$$$$
