FNC.pdb
     RDKit          3D

 26 26  0  0  1  0  0  0  0  0999 V2000
    5.4863  -17.3092   24.2156 N   0  0  0  0  0  0  0  0  0  0  0  0
    6.5200  -16.3063   24.3744 C   0  0  1  0  0  0  0  0  0  0  0  0
    6.6201  -15.9760   25.8665 C   0  0  0  0  0  0  0  0  0  0  0  0
    6.7942  -14.5299   26.0793 C   0  0  0  0  0  0  0  0  0  0  0  0
    8.0087  -13.9358   25.8065 C   0  0  0  0  0  0  0  0  0  0  0  0
    8.1878  -12.5819   26.0007 C   0  0  0  0  0  0  0  0  0  0  0  0
    7.1264  -11.8295   26.4747 C   0  0  0  0  0  0  0  0  0  0  0  0
    5.8957  -12.3870   26.7594 C   0  0  0  0  0  0  0  0  0  0  0  0
    5.7606  -13.7469   26.5501 C   0  0  0  0  0  0  0  0  0  0  0  0
    7.8160  -16.9414   24.0062 C   0  0  0  0  0  0  0  0  0  0  0  0
    8.1242  -18.1034   24.3002 O   0  0  0  0  0  0  0  0  0  0  0  0
   11.8415  -16.8054   20.1455 N   0  0  0  0  0  0  0  0  0  0  0  0
   11.8730  -15.9918   21.3236 C   0  0  0  0  0  0  0  0  0  0  0  0
   13.0065  -15.7120   21.7740 O   0  0  0  0  0  0  0  0  0  0  0  0
   10.5901  -15.5678   21.8854 C   0  0  0  0  0  0  0  0  0  0  0  0
   10.0548  -16.5904   22.8798 C   0  0  2  0  0  0  0  0  0  0  0  0
    8.7334  -16.1441   23.2751 N   0  0  0  0  0  0  0  0  0  0  0  0
   10.8865  -16.5610   24.1359 C   0  0  0  0  0  0  0  0  0  0  0  0
   11.1626  -15.5078   24.7516 O   0  0  0  0  0  0  0  0  0  0  0  0
   11.3976  -17.7785   24.6728 N   0  0  0  0  0  0  0  0  0  0  0  0
   12.1474  -17.8732   25.8826 C   0  0  1  0  0  0  0  0  0  0  0  0
   11.4214  -17.3417   27.0938 C   0  0  0  0  0  0  0  0  0  0  0  0
    9.9859  -18.3882   27.4631 S   0  0  0  0  0  0  0  0  0  0  0  0
   12.5599  -19.2761   26.1205 C   0  0  0  0  0  0  0  0  0  0  0  0
   13.4347  -19.5535   27.1559 O   0  0  0  0  0  0  0  0  0  0  0  0
   12.1466  -20.2240   25.4186 O   0  0  0  0  0  0  0  0  0  0  0  0
  2  1  1  1
  2 10  1  0
  2  3  1  0
  3  4  1  0
  4  5  2  0
  6  5  1  0
  7  6  2  0
  8  9  2  0
  8  7  1  0
  9  4  1  0
 10 17  1  0
 11 10  2  0
 13 12  1  0
 14 13  2  0
 15 13  1  0
 16 15  1  6
 16 18  1  0
 17 16  1  0
 18 19  2  0
 18 20  1  0
 20 21  1  0
 21 24  1  0
 21 22  1  1
 23 22  1  0
 24 26  2  0
 24 25  1  0
M  END
$$$$
