FNC.pdb
     RDKit          3D

 26 26  0  0  1  0  0  0  0  0999 V2000
    5.9756  -16.7899   25.0065 N   0  0  0  0  0  0  0  0  0  0  0  0
    7.1011  -15.9995   24.5506 C   0  0  1  0  0  0  0  0  0  0  0  0
    7.6655  -15.2539   25.7635 C   0  0  0  0  0  0  0  0  0  0  0  0
    7.0931  -13.9019   25.8690 C   0  0  0  0  0  0  0  0  0  0  0  0
    7.6240  -12.8701   25.1233 C   0  0  0  0  0  0  0  0  0  0  0  0
    7.0989  -11.5975   25.2110 C   0  0  0  0  0  0  0  0  0  0  0  0
    6.0289  -11.3742   26.0610 C   0  0  0  0  0  0  0  0  0  0  0  0
    5.4697  -12.3804   26.8235 C   0  0  0  0  0  0  0  0  0  0  0  0
    6.0273  -13.6399   26.7045 C   0  0  0  0  0  0  0  0  0  0  0  0
    8.1653  -16.9483   24.1197 C   0  0  0  0  0  0  0  0  0  0  0  0
    8.3076  -18.0855   24.5866 O   0  0  0  0  0  0  0  0  0  0  0  0
   11.8859  -18.1546   20.1509 N   0  0  0  0  0  0  0  0  0  0  0  0
   12.0869  -17.0743   21.0693 C   0  0  0  0  0  0  0  0  0  0  0  0
   13.2751  -16.7967   21.3471 O   0  0  0  0  0  0  0  0  0  0  0  0
   10.8966  -16.4025   21.5919 C   0  0  0  0  0  0  0  0  0  0  0  0
   10.2587  -17.2026   22.7206 C   0  0  2  0  0  0  0  0  0  0  0  0
    9.0552  -16.4957   23.1122 N   0  0  0  0  0  0  0  0  0  0  0  0
   11.1563  -17.1783   23.9306 C   0  0  0  0  0  0  0  0  0  0  0  0
   11.6246  -16.1251   24.4166 O   0  0  0  0  0  0  0  0  0  0  0  0
   11.5063  -18.4008   24.5746 N   0  0  0  0  0  0  0  0  0  0  0  0
   12.3583  -18.4953   25.7149 C   0  0  1  0  0  0  0  0  0  0  0  0
   11.7195  -18.0173   26.9954 C   0  0  0  0  0  0  0  0  0  0  0  0
   10.2710  -19.0390   27.3831 S   0  0  0  0  0  0  0  0  0  0  0  0
   12.8368  -19.8875   25.8821 C   0  0  0  0  0  0  0  0  0  0  0  0
   12.3797  -20.8643   25.0154 O   0  0  0  0  0  0  0  0  0  0  0  0
   13.6415  -20.2158   26.7801 O   0  0  0  0  0  0  0  0  0  0  0  0
  2  1  1  1
  2 10  1  0
  2  3  1  0
  3  4  1  0
  4  5  2  0
  6  5  1  0
  7  6  2  0
  8  9  2  0
  8  7  1  0
  9  4  1  0
 10 17  1  0
 11 10  2  0
 13 12  1  0
 14 13  2  0
 15 13  1  0
 16 15  1  6
 16 18  1  0
 17 16  1  0
 18 19  2  0
 18 20  1  0
 20 21  1  0
 21 24  1  0
 21 22  1  1
 23 22  1  0
 24 26  2  0
 24 25  1  0
M  END
$$$$
