FNC.pdb
     RDKit          3D

 26 26  0  0  1  0  0  0  0  0999 V2000
    5.9061  -17.5487   24.0353 N   0  0  0  0  0  0  0  0  0  0  0  0
    6.7184  -16.3877   24.3378 C   0  0  1  0  0  0  0  0  0  0  0  0
    6.3824  -15.9461   25.7653 C   0  0  0  0  0  0  0  0  0  0  0  0
    6.8750  -14.5843   26.0293 C   0  0  0  0  0  0  0  0  0  0  0  0
    8.1865  -14.3887   26.4089 C   0  0  0  0  0  0  0  0  0  0  0  0
    8.6633  -13.1189   26.6599 C   0  0  0  0  0  0  0  0  0  0  0  0
    7.8016  -12.0435   26.5240 C   0  0  0  0  0  0  0  0  0  0  0  0
    6.4825  -12.1980   26.1462 C   0  0  0  0  0  0  0  0  0  0  0  0
    6.0472  -13.4879   25.9046 C   0  0  0  0  0  0  0  0  0  0  0  0
    8.1388  -16.8349   24.3695 C   0  0  0  0  0  0  0  0  0  0  0  0
    8.5447  -17.8004   25.0288 O   0  0  0  0  0  0  0  0  0  0  0  0
   11.1046  -17.8267   21.0544 N   0  0  0  0  0  0  0  0  0  0  0  0
   10.7476  -16.4399   21.0540 C   0  0  0  0  0  0  0  0  0  0  0  0
   10.2358  -15.9994   20.0004 O   0  0  0  0  0  0  0  0  0  0  0  0
   11.0116  -15.6747   22.2731 C   0  0  0  0  0  0  0  0  0  0  0  0
   10.4760  -16.3927   23.5055 C   0  0  2  0  0  0  0  0  0  0  0  0
    9.0603  -16.0918   23.5882 N   0  0  0  0  0  0  0  0  0  0  0  0
   11.0909  -15.7990   24.7464 C   0  0  0  0  0  0  0  0  0  0  0  0
   11.2225  -14.5681   24.9256 O   0  0  0  0  0  0  0  0  0  0  0  0
   11.5547  -16.6583   25.7848 N   0  0  0  0  0  0  0  0  0  0  0  0
   11.5483  -16.3225   27.1712 C   0  0  1  0  0  0  0  0  0  0  0  0
   10.1988  -15.8886   27.6879 C   0  0  0  0  0  0  0  0  0  0  0  0
   10.4040  -14.5936   28.9422 S   0  0  0  0  0  0  0  0  0  0  0  0
   12.0515  -17.4603   27.9757 C   0  0  0  0  0  0  0  0  0  0  0  0
   12.9080  -17.2096   29.0329 O   0  0  0  0  0  0  0  0  0  0  0  0
   11.7308  -18.6441   27.7354 O   0  0  0  0  0  0  0  0  0  0  0  0
  2  1  1  1
  2 10  1  0
  2  3  1  0
  3  4  1  0
  4  5  2  0
  6  5  1  0
  7  6  2  0
  8  9  2  0
  8  7  1  0
  9  4  1  0
 10 17  1  0
 11 10  2  0
 13 12  1  0
 14 13  2  0
 15 13  1  0
 16 15  1  6
 16 18  1  0
 17 16  1  0
 18 19  2  0
 18 20  1  0
 20 21  1  0
 21 24  1  0
 21 22  1  1
 23 22  1  0
 24 26  2  0
 24 25  1  0
M  END
$$$$
