FNC.pdb
     RDKit          3D

 26 26  0  0  1  0  0  0  0  0999 V2000
    6.5607  -16.3951   25.5690 N   0  0  0  0  0  0  0  0  0  0  0  0
    7.1608  -15.6825   24.4594 C   0  0  1  0  0  0  0  0  0  0  0  0
    8.2554  -14.7752   25.0287 C   0  0  0  0  0  0  0  0  0  0  0  0
    7.6774  -13.6891   25.8367 C   0  0  0  0  0  0  0  0  0  0  0  0
    8.2164  -13.3876   27.0701 C   0  0  0  0  0  0  0  0  0  0  0  0
    7.6862  -12.3728   27.8394 C   0  0  0  0  0  0  0  0  0  0  0  0
    6.6028  -11.6617   27.3513 C   0  0  0  0  0  0  0  0  0  0  0  0
    6.0352  -11.9331   26.1222 C   0  0  0  0  0  0  0  0  0  0  0  0
    6.5983  -12.9582   25.3849 C   0  0  0  0  0  0  0  0  0  0  0  0
    7.8600  -16.6878   23.6114 C   0  0  0  0  0  0  0  0  0  0  0  0
    8.0519  -17.8629   23.9490 O   0  0  0  0  0  0  0  0  0  0  0  0
    6.5366  -17.3553   19.9292 N   0  0  0  0  0  0  0  0  0  0  0  0
    7.4328  -16.2539   19.7425 C   0  0  0  0  0  0  0  0  0  0  0  0
    6.9201  -15.1827   19.3482 O   0  0  0  0  0  0  0  0  0  0  0  0
    8.8500  -16.4814   20.0271 C   0  0  0  0  0  0  0  0  0  0  0  0
    9.0477  -17.0844   21.4122 C   0  0  2  0  0  0  0  0  0  0  0  0
    8.3235  -16.2449   22.3461 N   0  0  0  0  0  0  0  0  0  0  0  0
   10.4972  -16.9785   21.8100 C   0  0  0  0  0  0  0  0  0  0  0  0
   11.2689  -16.1011   21.3638 O   0  0  0  0  0  0  0  0  0  0  0  0
   11.0441  -17.9108   22.7393 N   0  0  0  0  0  0  0  0  0  0  0  0
   12.1769  -17.6527   23.5669 C   0  0  1  0  0  0  0  0  0  0  0  0
   12.0599  -16.3911   24.3860 C   0  0  0  0  0  0  0  0  0  0  0  0
   13.1847  -15.1247   23.7353 S   0  0  0  0  0  0  0  0  0  0  0  0
   12.4330  -18.8079   24.4585 C   0  0  0  0  0  0  0  0  0  0  0  0
   13.6157  -18.8551   25.1749 O   0  0  0  0  0  0  0  0  0  0  0  0
   11.6182  -19.7464   24.5896 O   0  0  0  0  0  0  0  0  0  0  0  0
  2  1  1  1
  2 10  1  0
  2  3  1  0
  3  4  1  0
  4  5  2  0
  6  5  1  0
  7  6  2  0
  8  9  2  0
  8  7  1  0
  9  4  1  0
 10 17  1  0
 11 10  2  0
 13 12  1  0
 14 13  2  0
 15 13  1  0
 16 15  1  6
 16 18  1  0
 17 16  1  0
 18 19  2  0
 18 20  1  0
 20 21  1  0
 21 24  1  0
 21 22  1  1
 23 22  1  0
 24 26  2  0
 24 25  1  0
M  END
$$$$
