FNC.pdb
     RDKit          3D

 26 26  0  0  1  0  0  0  0  0999 V2000
    6.0100  -17.7884   24.1069 N   0  0  0  0  0  0  0  0  0  0  0  0
    6.8027  -16.5888   24.2851 C   0  0  1  0  0  0  0  0  0  0  0  0
    6.4267  -15.9817   25.6399 C   0  0  0  0  0  0  0  0  0  0  0  0
    6.6852  -14.5327   25.6622 C   0  0  0  0  0  0  0  0  0  0  0  0
    7.7152  -14.0061   24.9111 C   0  0  0  0  0  0  0  0  0  0  0  0
    7.9703  -12.6505   24.9213 C   0  0  0  0  0  0  0  0  0  0  0  0
    7.1737  -11.8274   25.6993 C   0  0  0  0  0  0  0  0  0  0  0  0
    6.1336  -12.3161   26.4647 C   0  0  0  0  0  0  0  0  0  0  0  0
    5.9136  -13.6804   26.4246 C   0  0  0  0  0  0  0  0  0  0  0  0
    8.2263  -17.0102   24.4044 C   0  0  0  0  0  0  0  0  0  0  0  0
    8.5991  -18.0204   25.0144 O   0  0  0  0  0  0  0  0  0  0  0  0
   12.9513  -16.9287   21.5081 N   0  0  0  0  0  0  0  0  0  0  0  0
   12.5983  -15.8378   22.3662 C   0  0  0  0  0  0  0  0  0  0  0  0
   13.5489  -15.1927   22.8623 O   0  0  0  0  0  0  0  0  0  0  0  0
   11.1737  -15.5818   22.5807 C   0  0  0  0  0  0  0  0  0  0  0  0
   10.5765  -16.5684   23.5762 C   0  0  2  0  0  0  0  0  0  0  0  0
    9.1919  -16.1862   23.7715 N   0  0  0  0  0  0  0  0  0  0  0  0
   11.2384  -16.3985   24.9191 C   0  0  0  0  0  0  0  0  0  0  0  0
   12.3386  -16.9165   25.2123 O   0  0  0  0  0  0  0  0  0  0  0  0
   10.6029  -15.6140   25.9252 N   0  0  0  0  0  0  0  0  0  0  0  0
   11.1625  -15.3440   27.2093 C   0  0  1  0  0  0  0  0  0  0  0  0
   10.6566  -14.0703   27.8401 C   0  0  0  0  0  0  0  0  0  0  0  0
    8.8504  -14.1343   28.0001 S   0  0  0  0  0  0  0  0  0  0  0  0
   10.9227  -16.4859   28.1223 C   0  0  0  0  0  0  0  0  0  0  0  0
   11.5421  -16.4992   29.3594 O   0  0  0  0  0  0  0  0  0  0  0  0
   10.1789  -17.4427   27.8171 O   0  0  0  0  0  0  0  0  0  0  0  0
  2  1  1  1
  2 10  1  0
  2  3  1  0
  3  4  1  0
  4  5  2  0
  6  5  1  0
  7  6  2  0
  8  9  2  0
  8  7  1  0
  9  4  1  0
 10 17  1  0
 11 10  2  0
 13 12  1  0
 14 13  2  0
 15 13  1  0
 16 15  1  6
 16 18  1  0
 17 16  1  0
 18 19  2  0
 18 20  1  0
 20 21  1  0
 21 24  1  0
 21 22  1  1
 23 22  1  0
 24 26  2  0
 24 25  1  0
M  END
$$$$
