FNC.pdb
     RDKit          3D

 26 26  0  0  1  0  0  0  0  0999 V2000
    6.3876  -16.2725   25.0648 N   0  0  0  0  0  0  0  0  0  0  0  0
    7.1947  -16.2955   23.8618 C   0  0  1  0  0  0  0  0  0  0  0  0
    7.2029  -14.8780   23.2819 C   0  0  0  0  0  0  0  0  0  0  0  0
    7.2300  -13.8671   24.3515 C   0  0  0  0  0  0  0  0  0  0  0  0
    6.2138  -13.8242   25.2832 C   0  0  0  0  0  0  0  0  0  0  0  0
    6.2245  -12.8830   26.2916 C   0  0  0  0  0  0  0  0  0  0  0  0
    7.2740  -11.9817   26.3520 C   0  0  0  0  0  0  0  0  0  0  0  0
    8.3094  -11.9923   25.4386 C   0  0  0  0  0  0  0  0  0  0  0  0
    8.2582  -12.9524   24.4450 C   0  0  0  0  0  0  0  0  0  0  0  0
    8.5978  -16.5795   24.2729 C   0  0  0  0  0  0  0  0  0  0  0  0
    8.9049  -17.2070   25.2944 O   0  0  0  0  0  0  0  0  0  0  0  0
   14.1634  -15.3111   22.1166 N   0  0  0  0  0  0  0  0  0  0  0  0
   13.1329  -16.2925   22.2771 C   0  0  0  0  0  0  0  0  0  0  0  0
   13.5057  -17.4864   22.3175 O   0  0  0  0  0  0  0  0  0  0  0  0
   11.7541  -15.8130   22.3777 C   0  0  0  0  0  0  0  0  0  0  0  0
   11.0135  -16.4902   23.5241 C   0  0  2  0  0  0  0  0  0  0  0  0
    9.6238  -16.0898   23.4247 N   0  0  0  0  0  0  0  0  0  0  0  0
   11.5019  -15.9406   24.8393 C   0  0  0  0  0  0  0  0  0  0  0  0
   12.3563  -15.0313   24.9283 O   0  0  0  0  0  0  0  0  0  0  0  0
   10.9825  -16.4634   26.0594 N   0  0  0  0  0  0  0  0  0  0  0  0
   11.3878  -16.0326   27.3575 C   0  0  1  0  0  0  0  0  0  0  0  0
   10.6501  -14.8138   27.8541 C   0  0  0  0  0  0  0  0  0  0  0  0
   11.0153  -14.5429   29.6107 S   0  0  0  0  0  0  0  0  0  0  0  0
   11.2425  -17.1388   28.3323 C   0  0  0  0  0  0  0  0  0  0  0  0
   11.7263  -16.9704   29.6175 O   0  0  0  0  0  0  0  0  0  0  0  0
   10.6972  -18.2240   28.0375 O   0  0  0  0  0  0  0  0  0  0  0  0
  2  1  1  1
  2 10  1  0
  2  3  1  0
  3  4  1  0
  4  5  2  0
  6  5  1  0
  7  6  2  0
  8  9  2  0
  8  7  1  0
  9  4  1  0
 10 17  1  0
 11 10  2  0
 13 12  1  0
 14 13  2  0
 15 13  1  0
 16 15  1  6
 16 18  1  0
 17 16  1  0
 18 19  2  0
 18 20  1  0
 20 21  1  0
 21 24  1  0
 21 22  1  1
 23 22  1  0
 24 26  2  0
 24 25  1  0
M  END
$$$$
