NPY.pdb
     RDKit          3D

 28 29  0  0  1  0  0  0  0  0999 V2000
   10.3663  -20.7461   18.1313 N   0  0  0  0  0  0  0  0  0  0  0  0
    9.4354  -19.6876   18.2401 C   0  0  0  0  0  0  0  0  0  0  0  0
    8.5627  -19.4387   17.3499 O   0  0  0  0  0  0  0  0  0  0  0  0
    9.4565  -18.8268   19.4226 C   0  0  0  0  0  0  0  0  0  0  0  0
    9.7741  -17.3854   18.9949 C   0  0  2  0  0  0  0  0  0  0  0  0
   10.9917  -17.3305   18.2574 N   0  0  0  0  0  0  0  0  0  0  0  0
    9.7625  -16.4950   20.1490 C   0  0  0  0  0  0  0  0  0  0  0  0
   10.8188  -16.5353   20.8760 O   0  0  0  0  0  0  0  0  0  0  0  0
    8.7260  -15.6311   20.5150 N   0  0  0  0  0  0  0  0  0  0  0  0
    8.0178  -14.6728   19.6075 C   0  0  0  0  0  0  0  0  0  0  0  0
    6.5637  -15.1339   19.8740 C   0  0  0  0  0  0  0  0  0  0  0  0
    6.6011  -15.5935   21.3111 C   0  0  0  0  0  0  0  0  0  0  0  0
    8.0615  -15.3524   21.7396 C   0  0  1  0  0  0  0  0  0  0  0  0
    8.3990  -16.0337   22.9612 C   0  0  0  0  0  0  0  0  0  0  0  0
    8.5496  -17.2623   23.1800 O   0  0  0  0  0  0  0  0  0  0  0  0
    5.2869  -10.8848   26.7768 O   0  0  0  0  0  0  0  0  0  0  0  0
    6.2516  -11.8687   26.7099 C   0  0  0  0  0  0  0  0  0  0  0  0
    7.3993  -11.6443   25.9710 C   0  0  0  0  0  0  0  0  0  0  0  0
    8.3768  -12.6088   25.8865 C   0  0  0  0  0  0  0  0  0  0  0  0
    8.2384  -13.8180   26.5340 C   0  0  0  0  0  0  0  0  0  0  0  0
    9.3057  -14.8302   26.4056 C   0  0  0  0  0  0  0  0  0  0  0  0
    8.9068  -15.9153   25.4435 C   0  0  2  0  0  0  0  0  0  0  0  0
    8.6183  -15.2663   24.1875 N   0  0  0  0  0  0  0  0  0  0  0  0
    7.7825  -16.7334   25.9192 C   0  0  0  0  0  0  0  0  0  0  0  0
    6.6219  -16.6727   25.4280 O   0  0  0  0  0  0  0  0  0  0  0  0
    7.1004  -14.0580   27.2757 C   0  0  0  0  0  0  0  0  0  0  0  0
    6.1150  -13.0951   27.3650 C   0  0  0  0  0  0  0  0  0  0  0  0
    7.9895  -17.6196   26.9541 O   0  0  0  0  0  0  0  0  0  0  0  0
  2  1  1  0
  2  4  1  0
  3  2  2  0
  5  4  1  0
  5  6  1  1
  7  8  2  0
  7  5  1  0
  9  7  1  0
 10  9  1  0
 11 10  1  0
 12 11  1  0
 12 13  1  0
 13  9  1  0
 14 23  1  0
 13 14  1  1
 15 14  2  0
 17 18  2  0
 17 16  1  0
 19 18  1  0
 20 19  2  0
 21 20  1  0
 22 21  1  1
 22 23  1  0
 22 24  1  0
 24 28  1  0
 25 24  2  0
 26 20  1  0
 26 27  2  0
 27 17  1  0
M  END
$$$$
