NPY.pdb
     RDKit          3D

 28 29  0  0  1  0  0  0  0  0999 V2000
    8.0228  -19.3009   17.6906 N   0  0  0  0  0  0  0  0  0  0  0  0
    7.4387  -19.3359   18.9775 C   0  0  0  0  0  0  0  0  0  0  0  0
    6.5623  -20.1917   19.3172 O   0  0  0  0  0  0  0  0  0  0  0  0
    7.8465  -18.3537   19.9820 C   0  0  0  0  0  0  0  0  0  0  0  0
    8.7852  -17.3246   19.3330 C   0  0  2  0  0  0  0  0  0  0  0  0
    9.7998  -17.9717   18.5706 N   0  0  0  0  0  0  0  0  0  0  0  0
    9.3174  -16.4125   20.3379 C   0  0  0  0  0  0  0  0  0  0  0  0
   10.3611  -16.8332   20.9541 O   0  0  0  0  0  0  0  0  0  0  0  0
    8.7973  -15.1588   20.6732 N   0  0  0  0  0  0  0  0  0  0  0  0
    8.0999  -14.2176   19.7399 C   0  0  0  0  0  0  0  0  0  0  0  0
    6.7960  -14.0129   20.5498 C   0  0  0  0  0  0  0  0  0  0  0  0
    7.2527  -14.1348   21.9832 C   0  0  0  0  0  0  0  0  0  0  0  0
    8.7678  -14.3920   21.8689 C   0  0  1  0  0  0  0  0  0  0  0  0
    9.3408  -14.8748   23.0974 C   0  0  0  0  0  0  0  0  0  0  0  0
   10.4249  -14.5659   23.6534 O   0  0  0  0  0  0  0  0  0  0  0  0
    5.9520  -10.9487   26.4433 O   0  0  0  0  0  0  0  0  0  0  0  0
    6.3968  -12.2515   26.3525 C   0  0  0  0  0  0  0  0  0  0  0  0
    7.6867  -12.5570   26.7477 C   0  0  0  0  0  0  0  0  0  0  0  0
    8.1562  -13.8478   26.6667 C   0  0  0  0  0  0  0  0  0  0  0  0
    7.3561  -14.8653   26.1922 C   0  0  0  0  0  0  0  0  0  0  0  0
    7.9043  -16.2337   26.1094 C   0  0  0  0  0  0  0  0  0  0  0  0
    9.0960  -16.2826   25.1931 C   0  0  2  0  0  0  0  0  0  0  0  0
    8.6292  -15.8788   23.8887 N   0  0  0  0  0  0  0  0  0  0  0  0
    9.7589  -17.5938   25.1664 C   0  0  0  0  0  0  0  0  0  0  0  0
   10.3396  -18.0997   26.1658 O   0  0  0  0  0  0  0  0  0  0  0  0
    6.0669  -14.5781   25.7944 C   0  0  0  0  0  0  0  0  0  0  0  0
    5.5888  -13.2853   25.8726 C   0  0  0  0  0  0  0  0  0  0  0  0
    9.7544  -18.3232   23.9970 O   0  0  0  0  0  0  0  0  0  0  0  0
  2  1  1  0
  2  4  1  0
  3  2  2  0
  5  4  1  0
  5  6  1  1
  7  8  2  0
  7  5  1  0
  9  7  1  0
 10  9  1  0
 11 10  1  0
 12 11  1  0
 12 13  1  0
 13  9  1  0
 14 23  1  0
 13 14  1  1
 15 14  2  0
 17 18  2  0
 17 16  1  0
 19 18  1  0
 20 19  2  0
 21 20  1  0
 22 21  1  1
 22 23  1  0
 22 24  1  0
 24 28  1  0
 25 24  2  0
 26 20  1  0
 26 27  2  0
 27 17  1  0
M  END
$$$$
