NPY.pdb
     RDKit          3D

 28 29  0  0  1  0  0  0  0  0999 V2000
    7.3649  -21.3776   20.7048 N   0  0  0  0  0  0  0  0  0  0  0  0
    7.7917  -20.3084   19.8844 C   0  0  0  0  0  0  0  0  0  0  0  0
    7.4509  -20.1923   18.6652 O   0  0  0  0  0  0  0  0  0  0  0  0
    8.6642  -19.2749   20.4417 C   0  0  0  0  0  0  0  0  0  0  0  0
    8.1582  -17.8925   20.0010 C   0  0  2  0  0  0  0  0  0  0  0  0
    8.5482  -17.6121   18.6598 N   0  0  0  0  0  0  0  0  0  0  0  0
    8.5815  -16.8674   20.9471 C   0  0  0  0  0  0  0  0  0  0  0  0
    9.0086  -17.3110   22.0726 O   0  0  0  0  0  0  0  0  0  0  0  0
    8.5581  -15.4860   20.7332 N   0  0  0  0  0  0  0  0  0  0  0  0
    8.4981  -14.8031   19.4015 C   0  0  0  0  0  0  0  0  0  0  0  0
    7.2574  -13.9115   19.6547 C   0  0  0  0  0  0  0  0  0  0  0  0
    7.3359  -13.6160   21.1327 C   0  0  0  0  0  0  0  0  0  0  0  0
    8.6079  -14.3549   21.5915 C   0  0  1  0  0  0  0  0  0  0  0  0
    8.6845  -14.4877   23.0223 C   0  0  0  0  0  0  0  0  0  0  0  0
    8.2154  -13.7477   23.9235 O   0  0  0  0  0  0  0  0  0  0  0  0
    6.8476  -10.4166   27.0224 O   0  0  0  0  0  0  0  0  0  0  0  0
    7.1199  -11.7203   26.6625 C   0  0  0  0  0  0  0  0  0  0  0  0
    8.3789  -12.2411   26.9015 C   0  0  0  0  0  0  0  0  0  0  0  0
    8.6778  -13.5378   26.5516 C   0  0  0  0  0  0  0  0  0  0  0  0
    7.7339  -14.3478   25.9571 C   0  0  0  0  0  0  0  0  0  0  0  0
    8.1010  -15.7288   25.5857 C   0  0  0  0  0  0  0  0  0  0  0  0
    9.5020  -15.7865   25.0418 C   0  0  2  0  0  0  0  0  0  0  0  0
    9.3959  -15.6221   23.6122 N   0  0  0  0  0  0  0  0  0  0  0  0
   10.2213  -17.0141   25.4096 C   0  0  0  0  0  0  0  0  0  0  0  0
   10.4733  -17.9430   24.5937 O   0  0  0  0  0  0  0  0  0  0  0  0
    6.4732  -13.8445   25.7122 C   0  0  0  0  0  0  0  0  0  0  0  0
    6.1659  -12.5443   26.0602 C   0  0  0  0  0  0  0  0  0  0  0  0
   10.6513  -17.1749   26.7090 O   0  0  0  0  0  0  0  0  0  0  0  0
  2  1  1  0
  2  4  1  0
  3  2  2  0
  5  4  1  0
  5  6  1  6
  7  8  2  0
  7  5  1  0
  9  7  1  0
 10  9  1  0
 11 10  1  0
 12 11  1  0
 12 13  1  0
 13  9  1  0
 14 23  1  0
 13 14  1  1
 15 14  2  0
 17 18  2  0
 17 16  1  0
 19 18  1  0
 20 19  2  0
 21 20  1  0
 22 21  1  1
 22 23  1  0
 22 24  1  0
 24 28  1  0
 25 24  2  0
 26 20  1  0
 26 27  2  0
 27 17  1  0
M  END
$$$$
