NPY.pdb
     RDKit          3D

 28 29  0  0  1  0  0  0  0  0999 V2000
   13.1358  -18.4885   16.8173 N   0  0  0  0  0  0  0  0  0  0  0  0
   12.6957  -18.2165   18.1329 C   0  0  0  0  0  0  0  0  0  0  0  0
   13.2325  -18.7325   19.1633 O   0  0  0  0  0  0  0  0  0  0  0  0
   11.5743  -17.3012   18.3440 C   0  0  0  0  0  0  0  0  0  0  0  0
   10.5099  -17.9944   19.2089 C   0  0  2  0  0  0  0  0  0  0  0  0
    9.3460  -18.2903   18.4426 N   0  0  0  0  0  0  0  0  0  0  0  0
   10.2259  -17.2049   20.4009 C   0  0  0  0  0  0  0  0  0  0  0  0
   11.1789  -17.1547   21.2583 O   0  0  0  0  0  0  0  0  0  0  0  0
    9.0369  -16.5225   20.6754 N   0  0  0  0  0  0  0  0  0  0  0  0
    8.0890  -15.9633   19.6594 C   0  0  0  0  0  0  0  0  0  0  0  0
    6.7919  -16.6527   20.1496 C   0  0  0  0  0  0  0  0  0  0  0  0
    6.9971  -16.7626   21.6408 C   0  0  0  0  0  0  0  0  0  0  0  0
    8.3816  -16.1268   21.8723 C   0  0  1  0  0  0  0  0  0  0  0  0
    8.9198  -16.4317   23.1716 C   0  0  0  0  0  0  0  0  0  0  0  0
    9.3041  -17.5315   23.6434 O   0  0  0  0  0  0  0  0  0  0  0  0
    4.9486  -11.6740   27.0988 O   0  0  0  0  0  0  0  0  0  0  0  0
    6.1446  -12.3045   26.8240 C   0  0  0  0  0  0  0  0  0  0  0  0
    6.7871  -13.0072   27.8274 C   0  0  0  0  0  0  0  0  0  0  0  0
    7.9815  -13.6443   27.5810 C   0  0  0  0  0  0  0  0  0  0  0  0
    8.5653  -13.5993   26.3329 C   0  0  0  0  0  0  0  0  0  0  0  0
    9.8543  -14.2858   26.1155 C   0  0  0  0  0  0  0  0  0  0  0  0
    9.6485  -15.6254   25.4634 C   0  0  2  0  0  0  0  0  0  0  0  0
    9.0809  -15.3670   24.1621 N   0  0  0  0  0  0  0  0  0  0  0  0
    8.8211  -16.5420   26.2602 C   0  0  0  0  0  0  0  0  0  0  0  0
    7.6478  -16.8769   25.9387 O   0  0  0  0  0  0  0  0  0  0  0  0
    7.9376  -12.9034   25.3208 C   0  0  0  0  0  0  0  0  0  0  0  0
    6.7391  -12.2614   25.5605 C   0  0  0  0  0  0  0  0  0  0  0  0
    9.3387  -17.0739   27.4214 O   0  0  0  0  0  0  0  0  0  0  0  0
  2  1  1  0
  2  4  1  0
  3  2  2  0
  5  4  1  0
  5  6  1  6
  7  8  2  0
  7  5  1  0
  9  7  1  0
 10  9  1  0
 11 10  1  0
 12 11  1  0
 12 13  1  0
 13  9  1  0
 14 23  1  0
 13 14  1  1
 15 14  2  0
 17 18  2  0
 17 16  1  0
 19 18  1  0
 20 19  2  0
 21 20  1  0
 22 21  1  1
 22 23  1  0
 22 24  1  0
 24 28  1  0
 25 24  2  0
 26 20  1  0
 26 27  2  0
 27 17  1  0
M  END
$$$$
