NPY.pdb
     RDKit          3D

 28 29  0  0  1  0  0  0  0  0999 V2000
   13.1384  -18.9303   20.6483 N   0  0  0  0  0  0  0  0  0  0  0  0
   11.8275  -18.6411   20.2050 C   0  0  0  0  0  0  0  0  0  0  0  0
   10.7942  -19.2063   20.6833 O   0  0  0  0  0  0  0  0  0  0  0  0
   11.6252  -17.6483   19.1498 C   0  0  0  0  0  0  0  0  0  0  0  0
   10.1965  -17.0907   19.2456 C   0  0  2  0  0  0  0  0  0  0  0  0
    9.9042  -16.2478   18.1349 N   0  0  0  0  0  0  0  0  0  0  0  0
    9.9877  -16.4369   20.5317 C   0  0  0  0  0  0  0  0  0  0  0  0
   10.9489  -16.5711   21.3709 O   0  0  0  0  0  0  0  0  0  0  0  0
    8.8608  -15.7015   20.9109 N   0  0  0  0  0  0  0  0  0  0  0  0
    8.0500  -14.8120   20.0194 C   0  0  0  0  0  0  0  0  0  0  0  0
    6.6566  -15.4381   20.2737 C   0  0  0  0  0  0  0  0  0  0  0  0
    6.7447  -15.9171   21.7023 C   0  0  0  0  0  0  0  0  0  0  0  0
    8.1687  -15.5218   22.1387 C   0  0  1  0  0  0  0  0  0  0  0  0
    8.5800  -16.1836   23.3485 C   0  0  0  0  0  0  0  0  0  0  0  0
    9.2279  -17.2499   23.4998 O   0  0  0  0  0  0  0  0  0  0  0  0
    5.6460  -10.8063   27.3073 O   0  0  0  0  0  0  0  0  0  0  0  0
    6.4778  -11.9001   27.1839 C   0  0  0  0  0  0  0  0  0  0  0  0
    7.8448  -11.7065   27.0987 C   0  0  0  0  0  0  0  0  0  0  0  0
    8.6971  -12.7794   26.9740 C   0  0  0  0  0  0  0  0  0  0  0  0
    8.2123  -14.0693   26.9317 C   0  0  0  0  0  0  0  0  0  0  0  0
    9.1612  -15.1908   26.7836 C   0  0  0  0  0  0  0  0  0  0  0  0
    8.5994  -16.2571   25.8838 C   0  0  2  0  0  0  0  0  0  0  0  0
    8.2383  -15.6051   24.6482 N   0  0  0  0  0  0  0  0  0  0  0  0
    7.4718  -16.9885   26.4781 C   0  0  0  0  0  0  0  0  0  0  0  0
    6.2804  -16.8728   26.0790 O   0  0  0  0  0  0  0  0  0  0  0  0
    6.8518  -14.2803   27.0159 C   0  0  0  0  0  0  0  0  0  0  0  0
    5.9904  -13.2087   27.1410 C   0  0  0  0  0  0  0  0  0  0  0  0
    7.7105  -17.8511   27.5262 O   0  0  0  0  0  0  0  0  0  0  0  0
  2  1  1  0
  2  4  1  0
  3  2  2  0
  5  4  1  0
  5  6  1  6
  7  8  2  0
  7  5  1  0
  9  7  1  0
 10  9  1  0
 11 10  1  0
 12 11  1  0
 12 13  1  0
 13  9  1  0
 14 23  1  0
 13 14  1  1
 15 14  2  0
 17 18  2  0
 17 16  1  0
 19 18  1  0
 20 19  2  0
 21 20  1  0
 22 21  1  1
 22 23  1  0
 22 24  1  0
 24 28  1  0
 25 24  2  0
 26 20  1  0
 26 27  2  0
 27 17  1  0
M  END
$$$$
