NPY.pdb
     RDKit          3D

 28 29  0  0  1  0  0  0  0  0999 V2000
    6.8384  -20.1746   17.9565 N   0  0  0  0  0  0  0  0  0  0  0  0
    8.1417  -19.6545   17.7841 C   0  0  0  0  0  0  0  0  0  0  0  0
    8.8234  -19.8313   16.7259 O   0  0  0  0  0  0  0  0  0  0  0  0
    8.7543  -18.8724   18.8578 C   0  0  0  0  0  0  0  0  0  0  0  0
    8.5638  -17.3756   18.5669 C   0  0  2  0  0  0  0  0  0  0  0  0
    9.1130  -17.0302   17.2986 N   0  0  0  0  0  0  0  0  0  0  0  0
    9.0950  -16.5704   19.6598 C   0  0  0  0  0  0  0  0  0  0  0  0
    9.7747  -17.2207   20.5322 O   0  0  0  0  0  0  0  0  0  0  0  0
    8.9268  -15.1927   19.8280 N   0  0  0  0  0  0  0  0  0  0  0  0
    8.9971  -14.1595   18.7459 C   0  0  0  0  0  0  0  0  0  0  0  0
    7.6261  -13.4805   18.9854 C   0  0  0  0  0  0  0  0  0  0  0  0
    7.4220  -13.6216   20.4741 C   0  0  0  0  0  0  0  0  0  0  0  0
    8.6871  -14.3594   20.9535 C   0  0  1  0  0  0  0  0  0  0  0  0
    8.5449  -14.8954   22.2813 C   0  0  0  0  0  0  0  0  0  0  0  0
    7.5049  -15.2137   22.9114 O   0  0  0  0  0  0  0  0  0  0  0  0
    5.6255  -11.1661   27.1345 O   0  0  0  0  0  0  0  0  0  0  0  0
    6.2806  -12.2383   26.5649 C   0  0  0  0  0  0  0  0  0  0  0  0
    5.5663  -13.3801   26.2496 C   0  0  0  0  0  0  0  0  0  0  0  0
    6.1950  -14.4643   25.6818 C   0  0  0  0  0  0  0  0  0  0  0  0
    7.5469  -14.4400   25.4131 C   0  0  0  0  0  0  0  0  0  0  0  0
    8.1840  -15.6305   24.8156 C   0  0  0  0  0  0  0  0  0  0  0  0
    9.6363  -15.3738   24.5204 C   0  0  2  0  0  0  0  0  0  0  0  0
    9.7327  -15.1405   23.0997 N   0  0  0  0  0  0  0  0  0  0  0  0
   10.5236  -16.4560   24.9688 C   0  0  0  0  0  0  0  0  0  0  0  0
   11.1826  -17.1869   24.1791 O   0  0  0  0  0  0  0  0  0  0  0  0
    8.2742  -13.3091   25.7208 C   0  0  0  0  0  0  0  0  0  0  0  0
    7.6505  -12.2173   26.2909 C   0  0  0  0  0  0  0  0  0  0  0  0
   10.6557  -16.6979   26.3191 O   0  0  0  0  0  0  0  0  0  0  0  0
  2  1  1  0
  2  4  1  0
  3  2  2  0
  5  4  1  0
  5  6  1  6
  7  8  2  0
  7  5  1  0
  9  7  1  0
 10  9  1  0
 11 10  1  0
 12 11  1  0
 12 13  1  0
 13  9  1  0
 14 23  1  0
 13 14  1  1
 15 14  2  0
 17 18  2  0
 17 16  1  0
 19 18  1  0
 20 19  2  0
 21 20  1  0
 22 21  1  6
 22 23  1  0
 22 24  1  0
 24 28  1  0
 25 24  2  0
 26 20  1  0
 26 27  2  0
 27 17  1  0
M  END
$$$$
