NPY.pdb
     RDKit          3D

 28 29  0  0  1  0  0  0  0  0999 V2000
   11.7805  -18.6514   20.3100 N   0  0  0  0  0  0  0  0  0  0  0  0
   12.1607  -17.9113   19.1671 C   0  0  0  0  0  0  0  0  0  0  0  0
   13.3685  -17.6146   18.9043 O   0  0  0  0  0  0  0  0  0  0  0  0
   11.1354  -17.4565   18.2280 C   0  0  0  0  0  0  0  0  0  0  0  0
    9.7472  -17.6626   18.8540 C   0  0  2  0  0  0  0  0  0  0  0  0
    8.7189  -17.2581   17.9550 N   0  0  0  0  0  0  0  0  0  0  0  0
    9.6676  -17.0014   20.1508 C   0  0  0  0  0  0  0  0  0  0  0  0
   10.6214  -17.2812   20.9619 O   0  0  0  0  0  0  0  0  0  0  0  0
    8.6674  -16.1178   20.5671 N   0  0  0  0  0  0  0  0  0  0  0  0
    7.6140  -15.5073   19.6945 C   0  0  0  0  0  0  0  0  0  0  0  0
    6.3659  -15.9366   20.5043 C   0  0  0  0  0  0  0  0  0  0  0  0
    6.8610  -15.9457   21.9301 C   0  0  0  0  0  0  0  0  0  0  0  0
    8.3371  -15.5193   21.8126 C   0  0  1  0  0  0  0  0  0  0  0  0
    9.0878  -15.7899   23.0101 C   0  0  0  0  0  0  0  0  0  0  0  0
   10.3184  -15.6628   23.2321 O   0  0  0  0  0  0  0  0  0  0  0  0
    5.3524  -11.4302   26.5247 O   0  0  0  0  0  0  0  0  0  0  0  0
    6.3730  -12.3476   26.3833 C   0  0  0  0  0  0  0  0  0  0  0  0
    7.4936  -12.0076   25.6471 C   0  0  0  0  0  0  0  0  0  0  0  0
    8.5256  -12.9038   25.4893 C   0  0  0  0  0  0  0  0  0  0  0  0
    8.4696  -14.1579   26.0591 C   0  0  0  0  0  0  0  0  0  0  0  0
    9.5933  -15.0933   25.8534 C   0  0  0  0  0  0  0  0  0  0  0  0
    9.0948  -16.4561   25.4575 C   0  0  2  0  0  0  0  0  0  0  0  0
    8.4034  -16.2927   24.2016 N   0  0  0  0  0  0  0  0  0  0  0  0
    8.2505  -17.0890   26.4802 C   0  0  0  0  0  0  0  0  0  0  0  0
    7.0129  -17.2873   26.3347 O   0  0  0  0  0  0  0  0  0  0  0  0
    7.3596  -14.5131   26.7969 C   0  0  0  0  0  0  0  0  0  0  0  0
    6.3200  -13.6193   26.9595 C   0  0  0  0  0  0  0  0  0  0  0  0
    8.8244  -17.4948   27.6657 O   0  0  0  0  0  0  0  0  0  0  0  0
  2  1  1  0
  2  4  1  0
  3  2  2  0
  5  4  1  0
  5  6  1  6
  7  8  2  0
  7  5  1  0
  9  7  1  0
 10  9  1  0
 11 10  1  0
 12 11  1  0
 12 13  1  0
 13  9  1  0
 14 23  1  0
 13 14  1  1
 15 14  2  0
 17 18  2  0
 17 16  1  0
 19 18  1  0
 20 19  2  0
 21 20  1  0
 22 21  1  1
 22 23  1  0
 22 24  1  0
 24 28  1  0
 25 24  2  0
 26 20  1  0
 26 27  2  0
 27 17  1  0
M  END
$$$$
