NPY.pdb
     RDKit          3D

 28 29  0  0  1  0  0  0  0  0999 V2000
    8.9285  -20.0548   18.4135 N   0  0  0  0  0  0  0  0  0  0  0  0
   10.2158  -19.5395   18.6890 C   0  0  0  0  0  0  0  0  0  0  0  0
   11.2869  -20.1540   18.3871 O   0  0  0  0  0  0  0  0  0  0  0  0
   10.3471  -18.2409   19.3494 C   0  0  0  0  0  0  0  0  0  0  0  0
    8.9522  -17.7260   19.7373 C   0  0  2  0  0  0  0  0  0  0  0  0
    8.2226  -17.3165   18.5843 N   0  0  0  0  0  0  0  0  0  0  0  0
    9.0554  -16.6830   20.7505 C   0  0  0  0  0  0  0  0  0  0  0  0
    9.5352  -17.0664   21.8769 O   0  0  0  0  0  0  0  0  0  0  0  0
    8.6841  -15.3438   20.5977 N   0  0  0  0  0  0  0  0  0  0  0  0
    8.4491  -14.6390   19.2972 C   0  0  0  0  0  0  0  0  0  0  0  0
    7.0249  -14.1008   19.5801 C   0  0  0  0  0  0  0  0  0  0  0  0
    7.0318  -13.8616   21.0703 C   0  0  0  0  0  0  0  0  0  0  0  0
    8.4506  -14.2763   21.5057 C   0  0  1  0  0  0  0  0  0  0  0  0
    8.5635  -14.4495   22.9298 C   0  0  0  0  0  0  0  0  0  0  0  0
    8.0301  -13.7973   23.8626 O   0  0  0  0  0  0  0  0  0  0  0  0
    6.1337  -10.9985   27.2892 O   0  0  0  0  0  0  0  0  0  0  0  0
    6.5745  -12.2169   26.8154 C   0  0  0  0  0  0  0  0  0  0  0  0
    7.9167  -12.5370   26.9121 C   0  0  0  0  0  0  0  0  0  0  0  0
    8.3833  -13.7448   26.4466 C   0  0  0  0  0  0  0  0  0  0  0  0
    7.5285  -14.6630   25.8750 C   0  0  0  0  0  0  0  0  0  0  0  0
    8.0735  -15.9414   25.3763 C   0  0  0  0  0  0  0  0  0  0  0  0
    9.4859  -15.7715   24.8881 C   0  0  2  0  0  0  0  0  0  0  0  0
    9.4037  -15.5186   23.4699 N   0  0  0  0  0  0  0  0  0  0  0  0
   10.3536  -16.9156   25.2007 C   0  0  0  0  0  0  0  0  0  0  0  0
   10.6382  -17.2711   26.3774 O   0  0  0  0  0  0  0  0  0  0  0  0
    6.1868  -14.3600   25.7713 C   0  0  0  0  0  0  0  0  0  0  0  0
    5.7112  -13.1501   26.2359 C   0  0  0  0  0  0  0  0  0  0  0  0
   10.8919  -17.6505   24.1665 O   0  0  0  0  0  0  0  0  0  0  0  0
  2  1  1  0
  2  4  1  0
  3  2  2  0
  5  4  1  0
  5  6  1  6
  7  8  2  0
  7  5  1  0
  9  7  1  0
 10  9  1  0
 11 10  1  0
 12 11  1  0
 12 13  1  0
 13  9  1  0
 14 23  1  0
 13 14  1  1
 15 14  2  0
 17 18  2  0
 17 16  1  0
 19 18  1  0
 20 19  2  0
 21 20  1  0
 22 21  1  6
 22 23  1  0
 22 24  1  0
 24 28  1  0
 25 24  2  0
 26 20  1  0
 26 27  2  0
 27 17  1  0
M  END
$$$$
