NPY.pdb
     RDKit          3D

 28 29  0  0  1  0  0  0  0  0999 V2000
   13.1217  -18.4510   16.7973 N   0  0  0  0  0  0  0  0  0  0  0  0
   12.0484  -18.7334   17.6730 C   0  0  0  0  0  0  0  0  0  0  0  0
   11.3237  -19.7725   17.5677 O   0  0  0  0  0  0  0  0  0  0  0  0
   11.7392  -17.8032   18.7588 C   0  0  0  0  0  0  0  0  0  0  0  0
   10.2270  -17.5311   18.7782 C   0  0  2  0  0  0  0  0  0  0  0  0
    9.8150  -16.8643   17.5887 N   0  0  0  0  0  0  0  0  0  0  0  0
    9.8508  -16.8197   19.9937 C   0  0  0  0  0  0  0  0  0  0  0  0
   10.8335  -16.4319   20.7215 O   0  0  0  0  0  0  0  0  0  0  0  0
    8.5481  -16.5373   20.4156 N   0  0  0  0  0  0  0  0  0  0  0  0
    7.3847  -16.2214   19.5267 C   0  0  0  0  0  0  0  0  0  0  0  0
    6.3962  -17.2922   20.0505 C   0  0  0  0  0  0  0  0  0  0  0  0
    6.7690  -17.4287   21.5067 C   0  0  0  0  0  0  0  0  0  0  0  0
    7.9265  -16.4279   21.6885 C   0  0  1  0  0  0  0  0  0  0  0  0
    8.6539  -16.6401   22.9118 C   0  0  0  0  0  0  0  0  0  0  0  0
    9.4339  -17.5727   23.2305 O   0  0  0  0  0  0  0  0  0  0  0  0
    5.0448  -11.5449   27.2009 O   0  0  0  0  0  0  0  0  0  0  0  0
    6.1648  -12.2371   26.7890 C   0  0  0  0  0  0  0  0  0  0  0  0
    6.8840  -12.9747   27.7121 C   0  0  0  0  0  0  0  0  0  0  0  0
    8.0055  -13.6735   27.3286 C   0  0  0  0  0  0  0  0  0  0  0  0
    8.4386  -13.6570   26.0199 C   0  0  0  0  0  0  0  0  0  0  0  0
    9.6548  -14.4102   25.6542 C   0  0  0  0  0  0  0  0  0  0  0  0
    9.3121  -15.8074   25.2155 C   0  0  2  0  0  0  0  0  0  0  0  0
    8.5307  -15.6802   24.0091 N   0  0  0  0  0  0  0  0  0  0  0  0
    8.6193  -16.5905   26.2481 C   0  0  0  0  0  0  0  0  0  0  0  0
    7.4324  -17.0018   26.1293 O   0  0  0  0  0  0  0  0  0  0  0  0
    7.7328  -12.9270   25.0864 C   0  0  0  0  0  0  0  0  0  0  0  0
    6.6067  -12.2230   25.4637 C   0  0  0  0  0  0  0  0  0  0  0  0
    9.2867  -16.9023   27.4130 O   0  0  0  0  0  0  0  0  0  0  0  0
  2  1  1  0
  2  4  1  0
  3  2  2  0
  5  4  1  0
  5  6  1  6
  7  8  2  0
  7  5  1  0
  9  7  1  0
 10  9  1  0
 11 10  1  0
 12 11  1  0
 12 13  1  0
 13  9  1  0
 14 23  1  0
 13 14  1  1
 15 14  2  0
 17 18  2  0
 17 16  1  0
 19 18  1  0
 20 19  2  0
 21 20  1  0
 22 21  1  1
 22 23  1  0
 22 24  1  0
 24 28  1  0
 25 24  2  0
 26 20  1  0
 26 27  2  0
 27 17  1  0
M  END
$$$$
