GDV.pdb
     RDKit          3D

 20 19  0  0  1  0  0  0  0  0999 V2000
   21.0557  -12.8538  -19.1463 N   0  0  0  0  0  0  0  0  0  0  0  0
   20.4491  -12.9778  -17.8562 C   0  0  0  0  0  0  0  0  0  0  0  0
   19.5757  -11.8010  -17.5603 C   0  0  0  0  0  0  0  0  0  0  0  0
   18.7237  -11.4004  -18.3661 O   0  0  0  0  0  0  0  0  0  0  0  0
   19.7227  -11.1197  -16.3221 N   0  0  0  0  0  0  0  0  0  0  0  0
   18.8943  -10.0035  -15.9113 C   0  0  1  0  0  0  0  0  0  0  0  0
   18.3147  -10.2738  -14.5520 C   0  0  0  0  0  0  0  0  0  0  0  0
   17.4730   -9.1685  -14.0596 C   0  0  0  0  0  0  0  0  0  0  0  0
   16.8150   -8.5000  -14.8966 O   0  0  0  0  0  0  0  0  0  0  0  0
   19.8223   -8.8208  -15.7897 C   0  0  0  0  0  0  0  0  0  0  0  0
   20.9494   -8.9843  -15.2407 O   0  0  0  0  0  0  0  0  0  0  0  0
   17.3610   -8.8188  -12.7283 O   0  0  0  0  0  0  0  0  0  0  0  0
   21.3489   -6.8812  -18.3998 C   0  0  0  0  0  0  0  0  0  0  0  0
   20.6699   -5.8475  -17.5080 C   0  0  1  0  0  0  0  0  0  0  0  0
   19.3921   -5.3530  -18.1464 C   0  0  0  0  0  0  0  0  0  0  0  0
   20.4177   -6.4255  -16.1298 C   0  0  2  0  0  0  0  0  0  0  0  0
   19.4971   -7.5389  -16.2579 N   0  0  0  0  0  0  0  0  0  0  0  0
   19.8965   -5.4329  -15.1885 C   0  0  0  0  0  0  0  0  0  0  0  0
   18.6880   -5.4496  -14.8697 O   0  0  0  0  0  0  0  0  0  0  0  0
   20.7390   -4.4811  -14.6549 O   0  0  0  0  0  0  0  0  0  0  0  0
  2  1  1  0
  2  3  1  0
  3  4  2  0
  3  5  1  0
  5  6  1  0
  6  7  1  1
  7  8  1  0
  8 12  1  0
  9  8  2  0
 10 11  2  0
 10  6  1  0
 14 13  1  6
 15 14  1  0
 16 14  1  0
 16 17  1  6
 17 10  1  0
 18 16  1  0
 19 18  2  0
 20 18  1  0
M  END
$$$$
