GDV.pdb
     RDKit          3D

 20 19  0  0  1  0  0  0  0  0999 V2000
   17.5633  -14.3420  -17.3035 N   0  0  0  0  0  0  0  0  0  0  0  0
   18.2153  -13.4062  -18.1678 C   0  0  0  0  0  0  0  0  0  0  0  0
   19.3827  -12.7698  -17.4840 C   0  0  0  0  0  0  0  0  0  0  0  0
   19.8348  -13.2098  -16.4174 O   0  0  0  0  0  0  0  0  0  0  0  0
   19.9942  -11.6286  -18.0694 N   0  0  0  0  0  0  0  0  0  0  0  0
   21.0704  -10.8817  -17.4491 C   0  0  1  0  0  0  0  0  0  0  0  0
   22.1276  -10.5708  -18.4700 C   0  0  0  0  0  0  0  0  0  0  0  0
   23.2435   -9.7835  -17.9154 C   0  0  0  0  0  0  0  0  0  0  0  0
   23.9089  -10.2749  -16.9686 O   0  0  0  0  0  0  0  0  0  0  0  0
   20.4643   -9.5754  -17.0008 C   0  0  0  0  0  0  0  0  0  0  0  0
   19.7631   -8.9157  -17.8205 O   0  0  0  0  0  0  0  0  0  0  0  0
   23.6065   -8.5321  -18.3733 O   0  0  0  0  0  0  0  0  0  0  0  0
   17.8325   -9.0479  -15.0874 C   0  0  0  0  0  0  0  0  0  0  0  0
   18.8471   -8.1651  -14.3691 C   0  0  1  0  0  0  0  0  0  0  0  0
   19.3358   -8.8373  -13.1065 C   0  0  0  0  0  0  0  0  0  0  0  0
   19.9944   -7.8194  -15.2970 C   0  0  2  0  0  0  0  0  0  0  0  0
   20.6395   -9.0505  -15.7118 N   0  0  0  0  0  0  0  0  0  0  0  0
   20.9647   -6.9126  -14.6810 C   0  0  0  0  0  0  0  0  0  0  0  0
   20.6409   -5.7329  -14.4248 O   0  0  0  0  0  0  0  0  0  0  0  0
   22.2341   -7.3610  -14.3842 O   0  0  0  0  0  0  0  0  0  0  0  0
  2  1  1  0
  2  3  1  0
  3  4  2  0
  3  5  1  0
  5  6  1  0
  6  7  1  6
  7  8  1  0
  8 12  1  0
  9  8  2  0
 10 11  2  0
 10  6  1  0
 14 13  1  6
 15 14  1  0
 16 14  1  0
 16 17  1  1
 17 10  1  0
 18 16  1  0
 19 18  2  0
 20 18  1  0
M  END
$$$$
