GDV.pdb
     RDKit          3D

 20 19  0  0  1  0  0  0  0  0999 V2000
   17.1340  -12.3790  -15.7492 N   0  0  0  0  0  0  0  0  0  0  0  0
   16.5713  -11.3032  -14.9917 C   0  0  0  0  0  0  0  0  0  0  0  0
   17.2104  -10.0013  -15.3551 C   0  0  0  0  0  0  0  0  0  0  0  0
   18.0845   -9.9242  -16.2302 O   0  0  0  0  0  0  0  0  0  0  0  0
   16.8078   -8.8169  -14.6814 N   0  0  0  0  0  0  0  0  0  0  0  0
   17.3408   -7.5010  -14.9733 C   0  0  1  0  0  0  0  0  0  0  0  0
   16.4036   -6.4469  -14.4567 C   0  0  0  0  0  0  0  0  0  0  0  0
   15.1649   -6.3454  -15.2492 C   0  0  0  0  0  0  0  0  0  0  0  0
   15.2573   -6.0437  -16.4661 O   0  0  0  0  0  0  0  0  0  0  0  0
   18.6290   -7.3933  -14.1962 C   0  0  0  0  0  0  0  0  0  0  0  0
   18.6424   -7.7564  -12.9851 O   0  0  0  0  0  0  0  0  0  0  0  0
   13.9013   -6.5621  -14.7358 O   0  0  0  0  0  0  0  0  0  0  0  0
   22.2722   -7.3293  -16.1863 C   0  0  0  0  0  0  0  0  0  0  0  0
   22.0301   -7.8679  -14.7806 C   0  0  1  0  0  0  0  0  0  0  0  0
   23.3392   -8.0351  -14.0435 C   0  0  0  0  0  0  0  0  0  0  0  0
   21.0770   -6.9623  -14.0267 C   0  0  2  0  0  0  0  0  0  0  0  0
   19.8220   -6.9074  -14.7517 N   0  0  0  0  0  0  0  0  0  0  0  0
   21.6159   -5.6156  -13.8288 C   0  0  0  0  0  0  0  0  0  0  0  0
   22.5560   -5.4316  -13.0258 O   0  0  0  0  0  0  0  0  0  0  0  0
   21.0861   -4.5524  -14.5282 O   0  0  0  0  0  0  0  0  0  0  0  0
  2  1  1  0
  2  3  1  0
  3  4  2  0
  3  5  1  0
  5  6  1  0
  6  7  1  1
  7  8  1  0
  8 12  1  0
  9  8  2  0
 10 11  2  0
 10  6  1  0
 14 13  1  6
 15 14  1  0
 16 14  1  0
 16 17  1  6
 17 10  1  0
 18 16  1  0
 19 18  2  0
 20 18  1  0
M  END
$$$$
