GDV.pdb
     RDKit          3D

 20 19  0  0  1  0  0  0  0  0999 V2000
   24.8379   -9.7230  -19.1521 N   0  0  0  0  0  0  0  0  0  0  0  0
   23.7586   -8.7834  -19.1616 C   0  0  0  0  0  0  0  0  0  0  0  0
   23.1217   -8.6865  -17.8124 C   0  0  0  0  0  0  0  0  0  0  0  0
   22.7528   -9.6926  -17.1900 O   0  0  0  0  0  0  0  0  0  0  0  0
   22.9320   -7.4076  -17.2231 N   0  0  0  0  0  0  0  0  0  0  0  0
   22.4216   -7.2041  -15.8820 C   0  0  1  0  0  0  0  0  0  0  0  0
   22.7975   -5.8328  -15.3975 C   0  0  0  0  0  0  0  0  0  0  0  0
   22.3061   -5.5529  -14.0363 C   0  0  0  0  0  0  0  0  0  0  0  0
   22.3613   -6.4722  -13.1805 O   0  0  0  0  0  0  0  0  0  0  0  0
   20.9186   -7.2560  -15.9977 C   0  0  0  0  0  0  0  0  0  0  0  0
   20.3409   -6.4627  -16.7949 O   0  0  0  0  0  0  0  0  0  0  0  0
   21.7857   -4.3369  -13.6393 O   0  0  0  0  0  0  0  0  0  0  0  0
   18.7586   -9.6380  -17.3924 C   0  0  0  0  0  0  0  0  0  0  0  0
   18.2533   -9.4930  -15.9612 C   0  0  1  0  0  0  0  0  0  0  0  0
   18.7359  -10.6441  -15.1087 C   0  0  0  0  0  0  0  0  0  0  0  0
   18.6776   -8.1565  -15.3860 C   0  0  2  0  0  0  0  0  0  0  0  0
   20.1225   -8.1457  -15.2610 N   0  0  0  0  0  0  0  0  0  0  0  0
   18.0476   -7.8722  -14.0955 C   0  0  0  0  0  0  0  0  0  0  0  0
   16.8200   -7.6443  -14.0372 O   0  0  0  0  0  0  0  0  0  0  0  0
   18.8089   -7.8562  -12.9463 O   0  0  0  0  0  0  0  0  0  0  0  0
  2  1  1  0
  2  3  1  0
  3  4  2  0
  3  5  1  0
  5  6  1  0
  6  7  1  6
  7  8  1  0
  8 12  1  0
  9  8  2  0
 10 11  2  0
 10  6  1  0
 14 13  1  6
 15 14  1  0
 16 14  1  0
 16 17  1  1
 17 10  1  0
 18 16  1  0
 19 18  2  0
 20 18  1  0
M  END
$$$$
