GDV.pdb
     RDKit          3D

 20 19  0  0  1  0  0  0  0  0999 V2000
   16.6051  -12.0152  -14.3060 N   0  0  0  0  0  0  0  0  0  0  0  0
   15.9857  -10.9306  -15.0045 C   0  0  0  0  0  0  0  0  0  0  0  0
   17.0116   -9.9869  -15.5450 C   0  0  0  0  0  0  0  0  0  0  0  0
   17.8763  -10.3544  -16.3532 O   0  0  0  0  0  0  0  0  0  0  0  0
   16.9991   -8.6300  -15.1236 N   0  0  0  0  0  0  0  0  0  0  0  0
   17.8943   -7.6150  -15.6425 C   0  0  1  0  0  0  0  0  0  0  0  0
   17.1761   -6.2982  -15.7257 C   0  0  0  0  0  0  0  0  0  0  0  0
   16.1221   -6.2862  -16.7560 C   0  0  0  0  0  0  0  0  0  0  0  0
   14.9313   -6.1161  -16.3905 O   0  0  0  0  0  0  0  0  0  0  0  0
   18.9976   -7.4747  -14.6237 C   0  0  0  0  0  0  0  0  0  0  0  0
   18.6933   -7.4370  -13.3971 O   0  0  0  0  0  0  0  0  0  0  0  0
   16.3618   -6.4510  -18.1060 O   0  0  0  0  0  0  0  0  0  0  0  0
   22.0422   -9.7223  -14.5182 C   0  0  0  0  0  0  0  0  0  0  0  0
   22.5231   -8.2783  -14.4278 C   0  0  1  0  0  0  0  0  0  0  0  0
   23.0881   -7.8230  -15.7539 C   0  0  0  0  0  0  0  0  0  0  0  0
   21.3975   -7.3767  -13.9619 C   0  0  2  0  0  0  0  0  0  0  0  0
   20.3541   -7.3830  -14.9693 N   0  0  0  0  0  0  0  0  0  0  0  0
   21.8447   -6.0088  -13.6933 C   0  0  0  0  0  0  0  0  0  0  0  0
   22.5213   -5.7629  -12.6715 O   0  0  0  0  0  0  0  0  0  0  0  0
   21.5191   -4.9939  -14.5675 O   0  0  0  0  0  0  0  0  0  0  0  0
  2  1  1  0
  2  3  1  0
  3  4  2  0
  3  5  1  0
  5  6  1  0
  6  7  1  1
  7  8  1  0
  8 12  1  0
  9  8  2  0
 10 11  2  0
 10  6  1  0
 14 13  1  6
 15 14  1  0
 16 14  1  0
 16 17  1  6
 17 10  1  0
 18 16  1  0
 19 18  2  0
 20 18  1  0
M  END
$$$$
