GDV.pdb
     RDKit          3D

 20 19  0  0  1  0  0  0  0  0999 V2000
   15.6976  -13.6798  -14.0816 N   0  0  0  0  0  0  0  0  0  0  0  0
   15.5608  -12.3642  -14.6278 C   0  0  0  0  0  0  0  0  0  0  0  0
   16.3850  -11.3789  -13.8629 C   0  0  0  0  0  0  0  0  0  0  0  0
   16.8589  -11.6477  -12.7498 O   0  0  0  0  0  0  0  0  0  0  0  0
   16.6347  -10.0973  -14.4234 N   0  0  0  0  0  0  0  0  0  0  0  0
   17.4631   -9.0882  -13.7940 C   0  0  1  0  0  0  0  0  0  0  0  0
   18.0554   -8.1902  -14.8425 C   0  0  0  0  0  0  0  0  0  0  0  0
   18.9867   -7.1945  -14.2824 C   0  0  0  0  0  0  0  0  0  0  0  0
   18.9653   -6.0274  -14.7493 O   0  0  0  0  0  0  0  0  0  0  0  0
   16.5324   -8.2564  -12.9472 C   0  0  0  0  0  0  0  0  0  0  0  0
   15.3563   -8.0461  -13.3608 O   0  0  0  0  0  0  0  0  0  0  0  0
   19.8871   -7.4645  -13.2706 O   0  0  0  0  0  0  0  0  0  0  0  0
   15.3275   -6.6536   -8.4700 C   0  0  0  0  0  0  0  0  0  0  0  0
   16.1993   -7.4605   -9.4259 C   0  0  1  0  0  0  0  0  0  0  0  0
   15.9631   -8.9416   -9.2378 C   0  0  0  0  0  0  0  0  0  0  0  0
   15.9464   -7.0326  -10.8577 C   0  0  2  0  0  0  0  0  0  0  0  0
   16.9072   -7.6998  -11.7152 N   0  0  0  0  0  0  0  0  0  0  0  0
   16.0204   -5.5812  -11.0342 C   0  0  0  0  0  0  0  0  0  0  0  0
   17.0986   -5.0483  -11.3743 O   0  0  0  0  0  0  0  0  0  0  0  0
   14.9010   -4.8042  -10.8251 O   0  0  0  0  0  0  0  0  0  0  0  0
  2  1  1  0
  2  3  1  0
  3  4  2  0
  3  5  1  0
  5  6  1  0
  6  7  1  6
  7  8  1  0
  8 12  1  0
  9  8  2  0
 10 11  2  0
 10  6  1  0
 14 13  1  1
 15 14  1  0
 16 14  1  0
 16 17  1  6
 17 10  1  0
 18 16  1  0
 19 18  2  0
 20 18  1  0
M  END
$$$$
