GDV.pdb
     RDKit          3D

 20 19  0  0  1  0  0  0  0  0999 V2000
   15.5359   -7.5190   -8.1459 N   0  0  0  0  0  0  0  0  0  0  0  0
   15.9377   -6.6489   -9.2085 C   0  0  0  0  0  0  0  0  0  0  0  0
   16.6597   -7.4064  -10.2763 C   0  0  0  0  0  0  0  0  0  0  0  0
   17.1213   -8.5389  -10.0759 O   0  0  0  0  0  0  0  0  0  0  0  0
   16.8238   -6.8158  -11.5582 N   0  0  0  0  0  0  0  0  0  0  0  0
   17.2674   -7.5424  -12.7312 C   0  0  1  0  0  0  0  0  0  0  0  0
   16.4687   -7.1114  -13.9283 C   0  0  0  0  0  0  0  0  0  0  0  0
   15.0859   -7.6213  -13.9064 C   0  0  0  0  0  0  0  0  0  0  0  0
   14.9084   -8.8637  -13.8317 O   0  0  0  0  0  0  0  0  0  0  0  0
   18.6995   -7.1278  -12.9592 C   0  0  0  0  0  0  0  0  0  0  0  0
   19.0653   -5.9736  -12.5950 O   0  0  0  0  0  0  0  0  0  0  0  0
   13.9660   -6.8152  -13.9632 O   0  0  0  0  0  0  0  0  0  0  0  0
   21.7229   -9.7595  -12.6853 C   0  0  0  0  0  0  0  0  0  0  0  0
   21.8839   -8.8165  -13.8725 C   0  0  1  0  0  0  0  0  0  0  0  0
   21.5325   -9.5221  -15.1623 C   0  0  0  0  0  0  0  0  0  0  0  0
   21.0455   -7.5698  -13.6722 C   0  0  2  0  0  0  0  0  0  0  0  0
   19.6540   -7.9629  -13.5589 N   0  0  0  0  0  0  0  0  0  0  0  0
   21.2183   -6.5946  -14.7501 C   0  0  0  0  0  0  0  0  0  0  0  0
   22.2404   -5.8759  -14.7834 O   0  0  0  0  0  0  0  0  0  0  0  0
   20.2537   -6.4700  -15.7271 O   0  0  0  0  0  0  0  0  0  0  0  0
  2  1  1  0
  2  3  1  0
  3  4  2  0
  3  5  1  0
  5  6  1  0
  6  7  1  6
  7  8  1  0
  8 12  1  0
  9  8  2  0
 10 11  2  0
 10  6  1  0
 14 13  1  1
 15 14  1  0
 16 14  1  0
 16 17  1  6
 17 10  1  0
 18 16  1  0
 19 18  2  0
 20 18  1  0
M  END
$$$$
