GDV.pdb
     RDKit          3D

 20 19  0  0  1  0  0  0  0  0999 V2000
   29.3477  -23.3855  -16.9609 N   0  0  0  0  0  0  0  0  0  0  0  0
   27.9843  -23.6922  -16.6529 C   0  0  0  0  0  0  0  0  0  0  0  0
   27.2765  -22.4938  -16.1068 C   0  0  0  0  0  0  0  0  0  0  0  0
   27.8625  -21.4182  -15.9183 O   0  0  0  0  0  0  0  0  0  0  0  0
   25.8936  -22.5856  -15.7936 N   0  0  0  0  0  0  0  0  0  0  0  0
   25.0889  -21.4629  -15.3544 C   0  0  1  0  0  0  0  0  0  0  0  0
   23.8120  -21.4129  -16.1440 C   0  0  0  0  0  0  0  0  0  0  0  0
   22.8779  -20.3827  -15.6554 C   0  0  0  0  0  0  0  0  0  0  0  0
   23.3026  -19.2072  -15.5197 O   0  0  0  0  0  0  0  0  0  0  0  0
   24.7310  -21.7461  -13.9168 C   0  0  0  0  0  0  0  0  0  0  0  0
   24.2648  -22.8826  -13.6173 O   0  0  0  0  0  0  0  0  0  0  0  0
   21.5572  -20.6289  -15.3353 O   0  0  0  0  0  0  0  0  0  0  0  0
   25.0793  -20.6605   -9.1342 C   0  0  0  0  0  0  0  0  0  0  0  0
   25.5030  -20.4571  -10.5847 C   0  0  1  0  0  0  0  0  0  0  0  0
   26.8987  -20.9920  -10.8099 C   0  0  0  0  0  0  0  0  0  0  0  0
   24.5007  -21.1014  -11.5213 C   0  0  2  0  0  0  0  0  0  0  0  0
   24.8899  -20.8068  -12.8871 N   0  0  0  0  0  0  0  0  0  0  0  0
   23.1282  -20.6579  -11.2706 C   0  0  0  0  0  0  0  0  0  0  0  0
   22.6562  -19.6958  -11.9138 O   0  0  0  0  0  0  0  0  0  0  0  0
   22.3584  -21.3019  -10.3255 O   0  0  0  0  0  0  0  0  0  0  0  0
  2  1  1  0
  2  3  1  0
  3  4  2  0
  3  5  1  0
  5  6  1  0
  6  7  1  6
  7  8  1  0
  8 12  1  0
  9  8  2  0
 10 11  2  0
 10  6  1  0
 14 13  1  1
 15 14  1  0
 16 14  1  0
 16 17  1  6
 17 10  1  0
 18 16  1  0
 19 18  2  0
 20 18  1  0
M  END
$$$$
