GDV.pdb
     RDKit          3D

 20 19  0  0  1  0  0  0  0  0999 V2000
   18.6802  -12.4422  -17.0968 N   0  0  0  0  0  0  0  0  0  0  0  0
   19.5906  -11.7115  -16.2692 C   0  0  0  0  0  0  0  0  0  0  0  0
   19.4167  -10.2381  -16.4536 C   0  0  0  0  0  0  0  0  0  0  0  0
   19.8948   -9.6404  -17.4283 O   0  0  0  0  0  0  0  0  0  0  0  0
   18.6836   -9.4980  -15.4873 N   0  0  0  0  0  0  0  0  0  0  0  0
   18.4828   -8.0640  -15.5505 C   0  0  1  0  0  0  0  0  0  0  0  0
   17.2273   -7.6934  -14.8136 C   0  0  0  0  0  0  0  0  0  0  0  0
   16.9827   -6.2400  -14.7961 C   0  0  0  0  0  0  0  0  0  0  0  0
   16.4800   -5.7311  -13.7623 O   0  0  0  0  0  0  0  0  0  0  0  0
   19.6473   -7.4491  -14.8151 C   0  0  0  0  0  0  0  0  0  0  0  0
   20.0144   -7.9607  -13.7186 O   0  0  0  0  0  0  0  0  0  0  0  0
   17.2729   -5.3966  -15.8505 O   0  0  0  0  0  0  0  0  0  0  0  0
   22.4599   -5.3361  -16.8978 C   0  0  0  0  0  0  0  0  0  0  0  0
   22.7234   -6.0440  -15.5733 C   0  0  1  0  0  0  0  0  0  0  0  0
   24.0158   -5.5570  -14.9591 C   0  0  0  0  0  0  0  0  0  0  0  0
   21.5513   -5.8528  -14.6317 C   0  0  2  0  0  0  0  0  0  0  0  0
   20.3494   -6.3306  -15.2881 N   0  0  0  0  0  0  0  0  0  0  0  0
   21.3879   -4.4605  -14.2098 C   0  0  0  0  0  0  0  0  0  0  0  0
   20.5643   -3.7240  -14.7942 O   0  0  0  0  0  0  0  0  0  0  0  0
   22.1426   -3.9635  -13.1686 O   0  0  0  0  0  0  0  0  0  0  0  0
  2  1  1  0
  2  3  1  0
  3  4  2  0
  3  5  1  0
  5  6  1  0
  6  7  1  1
  7  8  1  0
  8 12  1  0
  9  8  2  0
 10 11  2  0
 10  6  1  0
 14 13  1  6
 15 14  1  0
 16 14  1  0
 16 17  1  6
 17 10  1  0
 18 16  1  0
 19 18  2  0
 20 18  1  0
M  END
$$$$
