GDV.pdb
     RDKit          3D

 20 19  0  0  1  0  0  0  0  0999 V2000
   12.9782  -11.3460   -9.7267 N   0  0  0  0  0  0  0  0  0  0  0  0
   13.3789  -10.2808   -8.8591 C   0  0  0  0  0  0  0  0  0  0  0  0
   13.9637   -9.1470   -9.6387 C   0  0  0  0  0  0  0  0  0  0  0  0
   13.4811   -8.7792  -10.7193 O   0  0  0  0  0  0  0  0  0  0  0  0
   15.1046   -8.4692   -9.1309 N   0  0  0  0  0  0  0  0  0  0  0  0
   15.6657   -7.2736   -9.7280 C   0  0  1  0  0  0  0  0  0  0  0  0
   15.9952   -6.2758   -8.6544 C   0  0  0  0  0  0  0  0  0  0  0  0
   16.4524   -4.9835   -9.1961 C   0  0  0  0  0  0  0  0  0  0  0  0
   16.5073   -4.8448  -10.4445 O   0  0  0  0  0  0  0  0  0  0  0  0
   16.9603   -7.7004  -10.3735 C   0  0  0  0  0  0  0  0  0  0  0  0
   17.8568   -8.2250   -9.6527 O   0  0  0  0  0  0  0  0  0  0  0  0
   16.8268   -3.9087   -8.4139 O   0  0  0  0  0  0  0  0  0  0  0  0
   17.7002  -10.2856  -12.6926 C   0  0  0  0  0  0  0  0  0  0  0  0
   18.2228   -9.0195  -13.3624 C   0  0  1  0  0  0  0  0  0  0  0  0
   17.2563   -8.5418  -14.4219 C   0  0  0  0  0  0  0  0  0  0  0  0
   18.4889   -7.9467  -12.3255 C   0  0  2  0  0  0  0  0  0  0  0  0
   17.2231   -7.5443  -11.7426 N   0  0  0  0  0  0  0  0  0  0  0  0
   19.1912   -6.7880  -12.8799 C   0  0  0  0  0  0  0  0  0  0  0  0
   18.5582   -5.7439  -13.1471 O   0  0  0  0  0  0  0  0  0  0  0  0
   20.5496   -6.8499  -13.1064 O   0  0  0  0  0  0  0  0  0  0  0  0
  2  1  1  0
  2  3  1  0
  3  4  2  0
  3  5  1  0
  5  6  1  0
  6  7  1  1
  7  8  1  0
  8 12  1  0
  9  8  2  0
 10 11  2  0
 10  6  1  0
 14 13  1  1
 15 14  1  0
 16 14  1  0
 16 17  1  6
 17 10  1  0
 18 16  1  0
 19 18  2  0
 20 18  1  0
M  END
$$$$
