GDV.pdb
     RDKit          3D

 20 19  0  0  1  0  0  0  0  0999 V2000
   17.3446  -15.1271  -15.6585 N   0  0  0  0  0  0  0  0  0  0  0  0
   16.6646  -13.9830  -15.1326 C   0  0  0  0  0  0  0  0  0  0  0  0
   17.3491  -12.7185  -15.5424 C   0  0  0  0  0  0  0  0  0  0  0  0
   18.3669  -12.7259  -16.2493 O   0  0  0  0  0  0  0  0  0  0  0  0
   16.8219  -11.4713  -15.1119 N   0  0  0  0  0  0  0  0  0  0  0  0
   17.3239  -10.1861  -15.5556 C   0  0  1  0  0  0  0  0  0  0  0  0
   16.3355   -9.1081  -15.2124 C   0  0  0  0  0  0  0  0  0  0  0  0
   15.0932   -9.2000  -16.0003 C   0  0  0  0  0  0  0  0  0  0  0  0
   15.1847   -9.3119  -17.2491 O   0  0  0  0  0  0  0  0  0  0  0  0
   18.5782   -9.9324  -14.7571 C   0  0  0  0  0  0  0  0  0  0  0  0
   18.5533  -10.1203  -13.5070 O   0  0  0  0  0  0  0  0  0  0  0  0
   13.8271   -9.1707  -15.4496 O   0  0  0  0  0  0  0  0  0  0  0  0
   23.4571   -9.8423  -14.6239 C   0  0  0  0  0  0  0  0  0  0  0  0
   22.1368   -9.9885  -15.3724 C   0  0  1  0  0  0  0  0  0  0  0  0
   21.8775  -11.4381  -15.7131 C   0  0  0  0  0  0  0  0  0  0  0  0
   21.0029   -9.3945  -14.5609 C   0  0  2  0  0  0  0  0  0  0  0  0
   19.7799   -9.4956  -15.3341 N   0  0  0  0  0  0  0  0  0  0  0  0
   21.2535   -8.0050  -14.1742 C   0  0  0  0  0  0  0  0  0  0  0  0
   21.9818   -7.7529  -13.1901 O   0  0  0  0  0  0  0  0  0  0  0  0
   20.6860   -6.9765  -14.8956 O   0  0  0  0  0  0  0  0  0  0  0  0
  2  1  1  0
  2  3  1  0
  3  4  2  0
  3  5  1  0
  5  6  1  0
  6  7  1  1
  7  8  1  0
  8 12  1  0
  9  8  2  0
 10 11  2  0
 10  6  1  0
 14 13  1  1
 15 14  1  0
 16 14  1  0
 16 17  1  6
 17 10  1  0
 18 16  1  0
 19 18  2  0
 20 18  1  0
M  END
$$$$
