GDV.pdb
     RDKit          3D

 20 19  0  0  1  0  0  0  0  0999 V2000
   15.7943   -9.1538  -18.5586 N   0  0  0  0  0  0  0  0  0  0  0  0
   16.2325   -7.8312  -18.2321 C   0  0  0  0  0  0  0  0  0  0  0  0
   17.1676   -7.8500  -17.0657 C   0  0  0  0  0  0  0  0  0  0  0  0
   16.8608   -7.3500  -15.9740 O   0  0  0  0  0  0  0  0  0  0  0  0
   18.4445   -8.4569  -17.2076 N   0  0  0  0  0  0  0  0  0  0  0  0
   19.3934   -8.6048  -16.1221 C   0  0  1  0  0  0  0  0  0  0  0  0
   20.3086   -9.7629  -16.4011 C   0  0  0  0  0  0  0  0  0  0  0  0
   19.6574  -11.0688  -16.1933 C   0  0  0  0  0  0  0  0  0  0  0  0
   19.0183  -11.2547  -15.1267 O   0  0  0  0  0  0  0  0  0  0  0  0
   20.2268   -7.3477  -16.1252 C   0  0  0  0  0  0  0  0  0  0  0  0
   20.8296   -7.0187  -17.1868 O   0  0  0  0  0  0  0  0  0  0  0  0
   19.7055  -12.1076  -17.1020 O   0  0  0  0  0  0  0  0  0  0  0  0
   21.0934   -2.8400  -14.7708 C   0  0  0  0  0  0  0  0  0  0  0  0
   20.2716   -4.1130  -14.9404 C   0  0  1  0  0  0  0  0  0  0  0  0
   19.3624   -4.0017  -16.1428 C   0  0  0  0  0  0  0  0  0  0  0  0
   21.1838   -5.3192  -15.0404 C   0  0  2  0  0  0  0  0  0  0  0  0
   20.3689   -6.5184  -15.0026 N   0  0  0  0  0  0  0  0  0  0  0  0
   22.1951   -5.3511  -13.9824 C   0  0  0  0  0  0  0  0  0  0  0  0
   23.2522   -4.6965  -14.1098 O   0  0  0  0  0  0  0  0  0  0  0  0
   21.9802   -6.1028  -12.8470 O   0  0  0  0  0  0  0  0  0  0  0  0
  2  1  1  0
  2  3  1  0
  3  4  2  0
  3  5  1  0
  5  6  1  0
  6  7  1  6
  7  8  1  0
  8 12  1  0
  9  8  2  0
 10 11  2  0
 10  6  1  0
 14 13  1  6
 15 14  1  0
 16 14  1  0
 16 17  1  1
 17 10  1  0
 18 16  1  0
 19 18  2  0
 20 18  1  0
M  END
$$$$
