GDV.pdb
     RDKit          3D

 20 19  0  0  1  0  0  0  0  0999 V2000
   15.4407  -13.5155  -14.6692 N   0  0  0  0  0  0  0  0  0  0  0  0
   15.2187  -12.4530  -15.6016 C   0  0  0  0  0  0  0  0  0  0  0  0
   16.5149  -11.9027  -16.1043 C   0  0  0  0  0  0  0  0  0  0  0  0
   17.4446  -12.6413  -16.4592 O   0  0  0  0  0  0  0  0  0  0  0  0
   16.6904  -10.4947  -16.1790 N   0  0  0  0  0  0  0  0  0  0  0  0
   17.8428   -9.8556  -16.7825 C   0  0  1  0  0  0  0  0  0  0  0  0
   17.4118   -8.6168  -17.5147 C   0  0  0  0  0  0  0  0  0  0  0  0
   18.5304   -7.9319  -18.1871 C   0  0  0  0  0  0  0  0  0  0  0  0
   18.5213   -6.6756  -18.2322 O   0  0  0  0  0  0  0  0  0  0  0  0
   18.7281   -9.4299  -15.6379 C   0  0  0  0  0  0  0  0  0  0  0  0
   18.1898   -9.0793  -14.5489 O   0  0  0  0  0  0  0  0  0  0  0  0
   19.5946   -8.5875  -18.7744 O   0  0  0  0  0  0  0  0  0  0  0  0
   22.9453  -10.1069  -15.7205 C   0  0  0  0  0  0  0  0  0  0  0  0
   22.0385  -10.2160  -14.4996 C   0  0  1  0  0  0  0  0  0  0  0  0
   22.8482  -10.1194  -13.2268 C   0  0  0  0  0  0  0  0  0  0  0  0
   20.9543   -9.1583  -14.5528 C   0  0  2  0  0  0  0  0  0  0  0  0
   20.1283   -9.4026  -15.7197 N   0  0  0  0  0  0  0  0  0  0  0  0
   21.4942   -7.7978  -14.5807 C   0  0  0  0  0  0  0  0  0  0  0  0
   21.5315   -7.1633  -15.6569 O   0  0  0  0  0  0  0  0  0  0  0  0
   21.9606   -7.2183  -13.4201 O   0  0  0  0  0  0  0  0  0  0  0  0
  2  1  1  0
  2  3  1  0
  3  4  2  0
  3  5  1  0
  5  6  1  0
  6  7  1  1
  7  8  1  0
  8 12  1  0
  9  8  2  0
 10 11  2  0
 10  6  1  0
 14 13  1  6
 15 14  1  0
 16 14  1  0
 16 17  1  6
 17 10  1  0
 18 16  1  0
 19 18  2  0
 20 18  1  0
M  END
$$$$
