GDV.pdb
     RDKit          3D

 20 19  0  0  1  0  0  0  0  0999 V2000
   18.4403  -13.7161  -17.7496 N   0  0  0  0  0  0  0  0  0  0  0  0
   19.5009  -12.8692  -17.2961 C   0  0  0  0  0  0  0  0  0  0  0  0
   18.9870  -11.5100  -16.9442 C   0  0  0  0  0  0  0  0  0  0  0  0
   18.5173  -10.7470  -17.8004 O   0  0  0  0  0  0  0  0  0  0  0  0
   19.0365  -11.0763  -15.5921 N   0  0  0  0  0  0  0  0  0  0  0  0
   18.5710   -9.7794  -15.1425 C   0  0  1  0  0  0  0  0  0  0  0  0
   18.0234   -9.8912  -13.7481 C   0  0  0  0  0  0  0  0  0  0  0  0
   17.5237   -8.6067  -13.2257 C   0  0  0  0  0  0  0  0  0  0  0  0
   17.1699   -7.7242  -14.0482 O   0  0  0  0  0  0  0  0  0  0  0  0
   19.7922   -8.8960  -15.0886 C   0  0  0  0  0  0  0  0  0  0  0  0
   20.8192   -9.3122  -14.4797 O   0  0  0  0  0  0  0  0  0  0  0  0
   17.4191   -8.3096  -11.8810 O   0  0  0  0  0  0  0  0  0  0  0  0
   21.9906   -8.0192  -17.6573 C   0  0  0  0  0  0  0  0  0  0  0  0
   21.5503   -6.6723  -17.0945 C   0  0  1  0  0  0  0  0  0  0  0  0
   20.4953   -6.0470  -17.9780 C   0  0  0  0  0  0  0  0  0  0  0  0
   21.0613   -6.8319  -15.6688 C   0  0  2  0  0  0  0  0  0  0  0  0
   19.8481   -7.6268  -15.6835 N   0  0  0  0  0  0  0  0  0  0  0  0
   20.8269   -5.5480  -15.0057 C   0  0  0  0  0  0  0  0  0  0  0  0
   19.6667   -5.0900  -14.9252 O   0  0  0  0  0  0  0  0  0  0  0  0
   21.8859   -4.8458  -14.4711 O   0  0  0  0  0  0  0  0  0  0  0  0
  2  1  1  0
  2  3  1  0
  3  4  2  0
  3  5  1  0
  5  6  1  0
  6  7  1  1
  7  8  1  0
  8 12  1  0
  9  8  2  0
 10 11  2  0
 10  6  1  0
 14 13  1  6
 15 14  1  0
 16 14  1  0
 16 17  1  6
 17 10  1  0
 18 16  1  0
 19 18  2  0
 20 18  1  0
M  END
$$$$
