GGW.pdb
     RDKit          3D

 23 24  0  0  1  0  0  0  0  0999 V2000
   25.7459  -18.4527  -17.7002 N   0  0  0  0  0  0  0  0  0  0  0  0
   25.5798  -17.4842  -16.6519 C   0  0  0  0  0  0  0  0  0  0  0  0
   26.2009  -17.9356  -15.3757 C   0  0  0  0  0  0  0  0  0  0  0  0
   25.4386  -18.1081  -14.3920 O   0  0  0  0  0  0  0  0  0  0  0  0
   27.6010  -18.1705  -15.2456 N   0  0  0  0  0  0  0  0  0  0  0  0
   28.2171  -18.7554  -14.1054 C   0  0  0  0  0  0  0  0  0  0  0  0
   27.6684  -20.0422  -13.6619 C   0  0  0  0  0  0  0  0  0  0  0  0
   28.1387  -21.0841  -14.2177 O   0  0  0  0  0  0  0  0  0  0  0  0
   26.6788  -20.2357  -12.6914 N   0  0  0  0  0  0  0  0  0  0  0  0
   26.1294  -21.5411  -12.3557 C   0  0  1  0  0  0  0  0  0  0  0  0
   26.6062  -22.0934  -11.0592 C   0  0  0  0  0  0  0  0  0  0  0  0
   26.4584  -21.2052   -9.8974 C   0  0  0  0  0  0  0  0  0  0  0  0
   25.3624  -20.4416   -9.5946 C   0  0  0  0  0  0  0  0  0  0  0  0
   25.5567  -19.7524   -8.4655 N   0  0  0  0  0  0  0  0  0  0  0  0
   26.7868  -20.0494   -8.0019 C   0  0  0  0  0  0  0  0  0  0  0  0
   27.4774  -19.6138   -6.8773 C   0  0  0  0  0  0  0  0  0  0  0  0
   28.7457  -20.0719   -6.6168 C   0  0  0  0  0  0  0  0  0  0  0  0
   29.3134  -20.9777   -7.5054 C   0  0  0  0  0  0  0  0  0  0  0  0
   28.6374  -21.4148   -8.6216 C   0  0  0  0  0  0  0  0  0  0  0  0
   27.3616  -20.9563   -8.8872 C   0  0  0  0  0  0  0  0  0  0  0  0
   24.6534  -21.3696  -12.2703 C   0  0  0  0  0  0  0  0  0  0  0  0
   24.0958  -20.2443  -12.1622 O   0  0  0  0  0  0  0  0  0  0  0  0
   23.7833  -22.4662  -12.3057 O   0  0  0  0  0  0  0  0  0  0  0  0
  2  1  1  0
  3  5  1  0
  3  2  1  0
  4  3  2  0
  6  5  1  0
  7  9  1  0
  7  6  1  0
  8  7  2  0
 10 21  1  0
 10  9  1  0
 10 11  1  1
 11 12  1  0
 12 13  2  0
 12 20  1  0
 13 14  1  0
 14 15  1  0
 15 16  2  0
 17 16  1  0
 18 17  2  0
 19 20  2  0
 19 18  1  0
 20 15  1  0
 21 23  1  0
 22 21  2  0
M  END
$$$$
