GGW.pdb
     RDKit          3D

 23 24  0  0  1  0  0  0  0  0999 V2000
   25.9927  -19.0353  -16.9203 N   0  0  0  0  0  0  0  0  0  0  0  0
   25.5251  -19.9169  -15.8866 C   0  0  0  0  0  0  0  0  0  0  0  0
   26.0523  -19.5315  -14.5481 C   0  0  0  0  0  0  0  0  0  0  0  0
   25.2331  -19.0658  -13.7171 O   0  0  0  0  0  0  0  0  0  0  0  0
   27.4264  -19.6738  -14.1953 N   0  0  0  0  0  0  0  0  0  0  0  0
   27.9350  -19.5541  -12.8729 C   0  0  0  0  0  0  0  0  0  0  0  0
   27.4320  -20.5262  -11.8954 C   0  0  0  0  0  0  0  0  0  0  0  0
   27.7789  -21.7372  -12.0660 O   0  0  0  0  0  0  0  0  0  0  0  0
   26.6078  -20.2535  -10.7978 N   0  0  0  0  0  0  0  0  0  0  0  0
   26.1336  -21.2767   -9.8775 C   0  0  1  0  0  0  0  0  0  0  0  0
   27.0682  -21.5786   -8.7600 C   0  0  0  0  0  0  0  0  0  0  0  0
   27.3333  -20.4670   -7.8354 C   0  0  0  0  0  0  0  0  0  0  0  0
   26.9402  -19.1652   -7.9986 C   0  0  0  0  0  0  0  0  0  0  0  0
   27.3432  -18.4114   -6.9704 N   0  0  0  0  0  0  0  0  0  0  0  0
   28.0107  -19.2039   -6.1086 C   0  0  0  0  0  0  0  0  0  0  0  0
   28.6287  -18.9294   -4.8945 C   0  0  0  0  0  0  0  0  0  0  0  0
   29.2555  -19.9277   -4.1895 C   0  0  0  0  0  0  0  0  0  0  0  0
   29.2528  -21.2113   -4.7232 C   0  0  0  0  0  0  0  0  0  0  0  0
   28.6435  -21.4926   -5.9247 C   0  0  0  0  0  0  0  0  0  0  0  0
   28.0121  -20.4913   -6.6368 C   0  0  0  0  0  0  0  0  0  0  0  0
   24.8642  -20.7644   -9.2930 C   0  0  0  0  0  0  0  0  0  0  0  0
   24.3577  -19.6548   -9.6113 O   0  0  0  0  0  0  0  0  0  0  0  0
   24.1464  -21.4969   -8.3396 O   0  0  0  0  0  0  0  0  0  0  0  0
  2  1  1  0
  3  5  1  0
  3  2  1  0
  4  3  2  0
  6  5  1  0
  7  9  1  0
  7  6  1  0
  8  7  2  0
 10 21  1  0
 10  9  1  0
 10 11  1  1
 11 12  1  0
 12 13  2  0
 12 20  1  0
 13 14  1  0
 14 15  1  0
 15 16  2  0
 17 16  1  0
 18 17  2  0
 19 20  2  0
 19 18  1  0
 20 15  1  0
 21 23  1  0
 22 21  2  0
M  END
$$$$
