GGW.pdb
     RDKit          3D

 23 24  0  0  1  0  0  0  0  0999 V2000
   29.6481  -22.0747  -16.4625 N   0  0  0  0  0  0  0  0  0  0  0  0
   29.6760  -20.6464  -16.6169 C   0  0  0  0  0  0  0  0  0  0  0  0
   28.4159  -20.0119  -16.1396 C   0  0  0  0  0  0  0  0  0  0  0  0
   27.3542  -20.3139  -16.7395 O   0  0  0  0  0  0  0  0  0  0  0  0
   28.3850  -19.0950  -15.0483 N   0  0  0  0  0  0  0  0  0  0  0  0
   27.2049  -18.4831  -14.5435 C   0  0  0  0  0  0  0  0  0  0  0  0
   26.2118  -19.3851  -13.9486 C   0  0  0  0  0  0  0  0  0  0  0  0
   25.1647  -19.6105  -14.6330 O   0  0  0  0  0  0  0  0  0  0  0  0
   26.3020  -20.0187  -12.7040 N   0  0  0  0  0  0  0  0  0  0  0  0
   25.5739  -21.2336  -12.3683 C   0  0  1  0  0  0  0  0  0  0  0  0
   26.0537  -21.9167  -11.1369 C   0  0  0  0  0  0  0  0  0  0  0  0
   26.1644  -21.0682   -9.9416 C   0  0  0  0  0  0  0  0  0  0  0  0
   25.1591  -20.3312   -9.3743 C   0  0  0  0  0  0  0  0  0  0  0  0
   25.5973  -19.6754   -8.2948 N   0  0  0  0  0  0  0  0  0  0  0  0
   26.9024  -19.9684   -8.1300 C   0  0  0  0  0  0  0  0  0  0  0  0
   27.8251  -19.5584   -7.1750 C   0  0  0  0  0  0  0  0  0  0  0  0
   29.1229  -20.0054   -7.2220 C   0  0  0  0  0  0  0  0  0  0  0  0
   29.4828  -20.8739   -8.2460 C   0  0  0  0  0  0  0  0  0  0  0  0
   28.5762  -21.2854   -9.1961 C   0  0  0  0  0  0  0  0  0  0  0  0
   27.2699  -20.8380   -9.1523 C   0  0  0  0  0  0  0  0  0  0  0  0
   24.1572  -20.8317  -12.1520 C   0  0  0  0  0  0  0  0  0  0  0  0
   23.1987  -21.6503  -12.1690 O   0  0  0  0  0  0  0  0  0  0  0  0
   23.8001  -19.4990  -11.9130 O   0  0  0  0  0  0  0  0  0  0  0  0
  2  1  1  0
  3  5  1  0
  3  2  1  0
  4  3  2  0
  6  5  1  0
  7  9  1  0
  7  6  1  0
  8  7  2  0
 10 21  1  0
 10  9  1  0
 10 11  1  1
 11 12  1  0
 12 13  2  0
 12 20  1  0
 13 14  1  0
 14 15  1  0
 15 16  2  0
 17 16  1  0
 18 17  2  0
 19 20  2  0
 19 18  1  0
 20 15  1  0
 21 23  1  0
 22 21  2  0
M  END
$$$$
