GGW.pdb
     RDKit          3D

 23 24  0  0  1  0  0  0  0  0999 V2000
   27.0994  -20.9063  -16.7614 N   0  0  0  0  0  0  0  0  0  0  0  0
   26.1488  -20.1050  -16.0412 C   0  0  0  0  0  0  0  0  0  0  0  0
   26.5093  -19.9756  -14.6020 C   0  0  0  0  0  0  0  0  0  0  0  0
   25.7735  -19.2520  -13.8854 O   0  0  0  0  0  0  0  0  0  0  0  0
   27.6381  -20.6343  -14.0322 N   0  0  0  0  0  0  0  0  0  0  0  0
   27.9937  -20.5784  -12.6566 C   0  0  0  0  0  0  0  0  0  0  0  0
   27.0666  -21.2264  -11.7216 C   0  0  0  0  0  0  0  0  0  0  0  0
   26.6581  -22.3879  -12.0375 O   0  0  0  0  0  0  0  0  0  0  0  0
   26.5866  -20.6926  -10.5203 N   0  0  0  0  0  0  0  0  0  0  0  0
   25.7421  -21.4334   -9.5946 C   0  0  1  0  0  0  0  0  0  0  0  0
   26.3210  -21.6007   -8.2345 C   0  0  0  0  0  0  0  0  0  0  0  0
   26.9707  -20.4093   -7.6695 C   0  0  0  0  0  0  0  0  0  0  0  0
   26.8738  -19.1294   -8.1472 C   0  0  0  0  0  0  0  0  0  0  0  0
   27.5872  -18.2834   -7.3969 N   0  0  0  0  0  0  0  0  0  0  0  0
   28.1689  -18.9913   -6.4085 C   0  0  0  0  0  0  0  0  0  0  0  0
   29.0040  -18.6048   -5.3671 C   0  0  0  0  0  0  0  0  0  0  0  0
   29.4755  -19.5320   -4.4703 C   0  0  0  0  0  0  0  0  0  0  0  0
   29.0948  -20.8589   -4.6346 C   0  0  0  0  0  0  0  0  0  0  0  0
   28.2682  -21.2510   -5.6627 C   0  0  0  0  0  0  0  0  0  0  0  0
   27.7920  -20.3215   -6.5668 C   0  0  0  0  0  0  0  0  0  0  0  0
   24.4760  -20.6614   -9.4665 C   0  0  0  0  0  0  0  0  0  0  0  0
   24.3238  -19.5041   -9.9426 O   0  0  0  0  0  0  0  0  0  0  0  0
   23.3616  -21.1837   -8.7988 O   0  0  0  0  0  0  0  0  0  0  0  0
  2  1  1  0
  3  5  1  0
  3  2  1  0
  4  3  2  0
  6  5  1  0
  7  9  1  0
  7  6  1  0
  8  7  2  0
 10 21  1  0
 10  9  1  0
 10 11  1  1
 11 12  1  0
 12 13  2  0
 12 20  1  0
 13 14  1  0
 14 15  1  0
 15 16  2  0
 17 16  1  0
 18 17  2  0
 19 20  2  0
 19 18  1  0
 20 15  1  0
 21 23  1  0
 22 21  2  0
M  END
$$$$
