GGW.pdb
     RDKit          3D

 23 24  0  0  1  0  0  0  0  0999 V2000
   26.7256  -15.7559  -17.4764 N   0  0  0  0  0  0  0  0  0  0  0  0
   26.1544  -17.0390  -17.1734 C   0  0  0  0  0  0  0  0  0  0  0  0
   27.0543  -17.8584  -16.3149 C   0  0  0  0  0  0  0  0  0  0  0  0
   27.7362  -18.7499  -16.8793 O   0  0  0  0  0  0  0  0  0  0  0  0
   27.1587  -17.6618  -14.9067 N   0  0  0  0  0  0  0  0  0  0  0  0
   27.9805  -18.4377  -14.0439 C   0  0  0  0  0  0  0  0  0  0  0  0
   27.4787  -19.7734  -13.7005 C   0  0  0  0  0  0  0  0  0  0  0  0
   27.9581  -20.7488  -14.3596 O   0  0  0  0  0  0  0  0  0  0  0  0
   26.5250  -20.0790  -12.7230 N   0  0  0  0  0  0  0  0  0  0  0  0
   26.0349  -21.4270  -12.4749 C   0  0  1  0  0  0  0  0  0  0  0  0
   26.5125  -22.0295  -11.2014 C   0  0  0  0  0  0  0  0  0  0  0  0
   26.4223  -21.1648  -10.0161 C   0  0  0  0  0  0  0  0  0  0  0  0
   25.3221  -20.4572   -9.6104 C   0  0  0  0  0  0  0  0  0  0  0  0
   25.5788  -19.7749   -8.4896 N   0  0  0  0  0  0  0  0  0  0  0  0
   26.8556  -20.0205   -8.1349 C   0  0  0  0  0  0  0  0  0  0  0  0
   27.6174  -19.5683   -7.0641 C   0  0  0  0  0  0  0  0  0  0  0  0
   28.9225  -19.9703   -6.9176 C   0  0  0  0  0  0  0  0  0  0  0  0
   29.4543  -20.8368   -7.8657 C   0  0  0  0  0  0  0  0  0  0  0  0
   28.7077  -21.2898   -8.9293 C   0  0  0  0  0  0  0  0  0  0  0  0
   27.3947  -20.8877   -9.0802 C   0  0  0  0  0  0  0  0  0  0  0  0
   24.5507  -21.3329  -12.4138 C   0  0  0  0  0  0  0  0  0  0  0  0
   23.9375  -20.2544  -12.1902 O   0  0  0  0  0  0  0  0  0  0  0  0
   23.7351  -22.4550  -12.6042 O   0  0  0  0  0  0  0  0  0  0  0  0
  2  1  1  0
  3  5  1  0
  3  2  1  0
  4  3  2  0
  6  5  1  0
  7  9  1  0
  7  6  1  0
  8  7  2  0
 10 21  1  0
 10  9  1  0
 10 11  1  1
 11 12  1  0
 12 13  2  0
 12 20  1  0
 13 14  1  0
 14 15  1  0
 15 16  2  0
 17 16  1  0
 18 17  2  0
 19 20  2  0
 19 18  1  0
 20 15  1  0
 21 23  1  0
 22 21  2  0
M  END
$$$$
