GGW.pdb
     RDKit          3D

 23 24  0  0  1  0  0  0  0  0999 V2000
   24.6272  -17.8253  -15.8196 N   0  0  0  0  0  0  0  0  0  0  0  0
   26.0380  -17.7549  -16.0826 C   0  0  0  0  0  0  0  0  0  0  0  0
   26.8447  -18.1203  -14.8852 C   0  0  0  0  0  0  0  0  0  0  0  0
   26.5828  -17.5264  -13.8094 O   0  0  0  0  0  0  0  0  0  0  0  0
   27.8790  -19.1007  -14.9276 N   0  0  0  0  0  0  0  0  0  0  0  0
   28.6339  -19.5245  -13.7997 C   0  0  0  0  0  0  0  0  0  0  0  0
   28.0032  -20.5338  -12.9410 C   0  0  0  0  0  0  0  0  0  0  0  0
   27.8810  -21.7010  -13.4291 O   0  0  0  0  0  0  0  0  0  0  0  0
   27.5217  -20.3385  -11.6415 N   0  0  0  0  0  0  0  0  0  0  0  0
   27.0711  -21.4234  -10.7820 C   0  0  1  0  0  0  0  0  0  0  0  0
   27.8395  -21.5635   -9.5159 C   0  0  0  0  0  0  0  0  0  0  0  0
   27.3082  -20.8200   -8.3645 C   0  0  0  0  0  0  0  0  0  0  0  0
   26.0160  -20.3974   -8.1983 C   0  0  0  0  0  0  0  0  0  0  0  0
   25.8696  -19.7517   -7.0368 N   0  0  0  0  0  0  0  0  0  0  0  0
   27.0648  -19.7365   -6.4144 C   0  0  0  0  0  0  0  0  0  0  0  0
   27.4614  -19.2015   -5.1945 C   0  0  0  0  0  0  0  0  0  0  0  0
   28.7629  -19.3186   -4.7717 C   0  0  0  0  0  0  0  0  0  0  0  0
   29.6647  -19.9835   -5.5946 C   0  0  0  0  0  0  0  0  0  0  0  0
   29.2812  -20.5164   -6.8041 C   0  0  0  0  0  0  0  0  0  0  0  0
   27.9731  -20.4007   -7.2330 C   0  0  0  0  0  0  0  0  0  0  0  0
   25.6550  -21.1263  -10.4330 C   0  0  0  0  0  0  0  0  0  0  0  0
   25.1529  -19.9729  -10.5143 O   0  0  0  0  0  0  0  0  0  0  0  0
   24.7832  -22.1269   -9.9866 O   0  0  0  0  0  0  0  0  0  0  0  0
  2  1  1  0
  3  5  1  0
  3  2  1  0
  4  3  2  0
  6  5  1  0
  7  9  1  0
  7  6  1  0
  8  7  2  0
 10 21  1  0
 10  9  1  0
 10 11  1  1
 11 12  1  0
 12 13  2  0
 12 20  1  0
 13 14  1  0
 14 15  1  0
 15 16  2  0
 17 16  1  0
 18 17  2  0
 19 20  2  0
 19 18  1  0
 20 15  1  0
 21 23  1  0
 22 21  2  0
M  END
$$$$
