GGW.pdb
     RDKit          3D

 23 24  0  0  1  0  0  0  0  0999 V2000
   27.7843  -25.5942  -17.8837 N   0  0  0  0  0  0  0  0  0  0  0  0
   27.3007  -24.4262  -17.2008 C   0  0  0  0  0  0  0  0  0  0  0  0
   26.1776  -24.7484  -16.2773 C   0  0  0  0  0  0  0  0  0  0  0  0
   25.4302  -25.7086  -16.5902 O   0  0  0  0  0  0  0  0  0  0  0  0
   25.9357  -24.0145  -15.0792 N   0  0  0  0  0  0  0  0  0  0  0  0
   24.6514  -23.5921  -14.6388 C   0  0  0  0  0  0  0  0  0  0  0  0
   24.6176  -22.8116  -13.3964 C   0  0  0  0  0  0  0  0  0  0  0  0
   23.5051  -22.2796  -13.0881 O   0  0  0  0  0  0  0  0  0  0  0  0
   25.6869  -22.5934  -12.5205 N   0  0  0  0  0  0  0  0  0  0  0  0
   25.6130  -21.7032  -11.3712 C   0  0  1  0  0  0  0  0  0  0  0  0
   26.8524  -21.6566  -10.5497 C   0  0  0  0  0  0  0  0  0  0  0  0
   26.7987  -20.7847   -9.3674 C   0  0  0  0  0  0  0  0  0  0  0  0
   25.7141  -20.0674   -8.9374 C   0  0  0  0  0  0  0  0  0  0  0  0
   26.0043  -19.3806   -7.8276 N   0  0  0  0  0  0  0  0  0  0  0  0
   27.2882  -19.6327   -7.5047 C   0  0  0  0  0  0  0  0  0  0  0  0
   28.0805  -19.1797   -6.4567 C   0  0  0  0  0  0  0  0  0  0  0  0
   29.3863  -19.5897   -6.3417 C   0  0  0  0  0  0  0  0  0  0  0  0
   29.8876  -20.4650   -7.2983 C   0  0  0  0  0  0  0  0  0  0  0  0
   29.1106  -20.9189   -8.3396 C   0  0  0  0  0  0  0  0  0  0  0  0
   27.7969  -20.5089   -8.4587 C   0  0  0  0  0  0  0  0  0  0  0  0
   25.3632  -20.3380  -11.9090 C   0  0  0  0  0  0  0  0  0  0  0  0
   26.0107  -19.8484  -12.8734 O   0  0  0  0  0  0  0  0  0  0  0  0
   24.3781  -19.5037  -11.3664 O   0  0  0  0  0  0  0  0  0  0  0  0
  2  1  1  0
  3  5  1  0
  3  2  1  0
  4  3  2  0
  6  5  1  0
  7  9  1  0
  7  6  1  0
  8  7  2  0
 10 21  1  0
 10  9  1  0
 10 11  1  6
 11 12  1  0
 12 13  2  0
 12 20  1  0
 13 14  1  0
 14 15  1  0
 15 16  2  0
 17 16  1  0
 18 17  2  0
 19 20  2  0
 19 18  1  0
 20 15  1  0
 21 23  1  0
 22 21  2  0
M  END
$$$$
