GGW.pdb
     RDKit          3D

 23 24  0  0  1  0  0  0  0  0999 V2000
   29.8513  -16.6912  -17.2434 N   0  0  0  0  0  0  0  0  0  0  0  0
   29.6130  -17.9410  -16.5758 C   0  0  0  0  0  0  0  0  0  0  0  0
   28.1981  -18.0710  -16.1295 C   0  0  0  0  0  0  0  0  0  0  0  0
   27.3542  -18.4373  -16.9851 O   0  0  0  0  0  0  0  0  0  0  0  0
   27.7880  -17.7974  -14.7917 N   0  0  0  0  0  0  0  0  0  0  0  0
   26.4474  -17.8855  -14.3262 C   0  0  0  0  0  0  0  0  0  0  0  0
   25.9330  -19.2390  -14.0870 C   0  0  0  0  0  0  0  0  0  0  0  0
   25.7482  -19.9676  -15.1120 O   0  0  0  0  0  0  0  0  0  0  0  0
   25.6239  -19.8052  -12.8451 N   0  0  0  0  0  0  0  0  0  0  0  0
   25.1527  -21.1728  -12.6824 C   0  0  1  0  0  0  0  0  0  0  0  0
   25.9078  -21.9670  -11.6763 C   0  0  0  0  0  0  0  0  0  0  0  0
   26.1604  -21.2933  -10.3945 C   0  0  0  0  0  0  0  0  0  0  0  0
   25.2359  -20.6337   -9.6290 C   0  0  0  0  0  0  0  0  0  0  0  0
   25.7979  -20.1375   -8.5219 N   0  0  0  0  0  0  0  0  0  0  0  0
   27.1061  -20.4613   -8.5371 C   0  0  0  0  0  0  0  0  0  0  0  0
   28.1313  -20.1953   -7.6374 C   0  0  0  0  0  0  0  0  0  0  0  0
   29.4069  -20.6423   -7.8815 C   0  0  0  0  0  0  0  0  0  0  0  0
   29.6395  -21.3635   -9.0469 C   0  0  0  0  0  0  0  0  0  0  0  0
   28.6306  -21.6317   -9.9437 C   0  0  0  0  0  0  0  0  0  0  0  0
   27.3464  -21.1839   -9.7018 C   0  0  0  0  0  0  0  0  0  0  0  0
   23.7371  -21.0817  -12.2318 C   0  0  0  0  0  0  0  0  0  0  0  0
   23.2191  -20.0172  -11.7987 O   0  0  0  0  0  0  0  0  0  0  0  0
   22.8836  -22.1914  -12.2629 O   0  0  0  0  0  0  0  0  0  0  0  0
  2  1  1  0
  3  5  1  0
  3  2  1  0
  4  3  2  0
  6  5  1  0
  7  9  1  0
  7  6  1  0
  8  7  2  0
 10 21  1  0
 10  9  1  0
 10 11  1  1
 11 12  1  0
 12 13  2  0
 12 20  1  0
 13 14  1  0
 14 15  1  0
 15 16  2  0
 17 16  1  0
 18 17  2  0
 19 20  2  0
 19 18  1  0
 20 15  1  0
 21 23  1  0
 22 21  2  0
M  END
$$$$
