GGW.pdb
     RDKit          3D

 23 24  0  0  1  0  0  0  0  0999 V2000
   25.9498  -17.3986  -16.0674 N   0  0  0  0  0  0  0  0  0  0  0  0
   27.1142  -17.4422  -15.2268 C   0  0  0  0  0  0  0  0  0  0  0  0
   27.3845  -18.8178  -14.7238 C   0  0  0  0  0  0  0  0  0  0  0  0
   28.5759  -19.1092  -14.4517 O   0  0  0  0  0  0  0  0  0  0  0  0
   26.3531  -19.7862  -14.5481 N   0  0  0  0  0  0  0  0  0  0  0  0
   26.5675  -21.1199  -14.1044 C   0  0  0  0  0  0  0  0  0  0  0  0
   26.3117  -21.3781  -12.6826 C   0  0  0  0  0  0  0  0  0  0  0  0
   25.5922  -22.3893  -12.4077 O   0  0  0  0  0  0  0  0  0  0  0  0
   26.7781  -20.6217  -11.6016 N   0  0  0  0  0  0  0  0  0  0  0  0
   26.4211  -20.8964  -10.2174 C   0  0  1  0  0  0  0  0  0  0  0  0
   27.0902  -20.0142   -9.2238 C   0  0  0  0  0  0  0  0  0  0  0  0
   26.8163  -20.3237   -7.8132 C   0  0  0  0  0  0  0  0  0  0  0  0
   25.7764  -21.0759   -7.3351 C   0  0  0  0  0  0  0  0  0  0  0  0
   25.8227  -21.1635   -6.0017 N   0  0  0  0  0  0  0  0  0  0  0  0
   26.8962  -20.4693   -5.5751 C   0  0  0  0  0  0  0  0  0  0  0  0
   27.3981  -20.2411   -4.2994 C   0  0  0  0  0  0  0  0  0  0  0  0
   28.5306  -19.4849   -4.1204 C   0  0  0  0  0  0  0  0  0  0  0  0
   29.1548  -18.9586   -5.2455 C   0  0  0  0  0  0  0  0  0  0  0  0
   28.6652  -19.1792   -6.5126 C   0  0  0  0  0  0  0  0  0  0  0  0
   27.5264  -19.9392   -6.6969 C   0  0  0  0  0  0  0  0  0  0  0  0
   24.9519  -20.6836  -10.1093 C   0  0  0  0  0  0  0  0  0  0  0  0
   24.2254  -21.3006   -9.2844 O   0  0  0  0  0  0  0  0  0  0  0  0
   24.2796  -19.7706  -10.9310 O   0  0  0  0  0  0  0  0  0  0  0  0
  2  1  1  0
  3  5  1  0
  3  2  1  0
  4  3  2  0
  6  5  1  0
  7  9  1  0
  7  6  1  0
  8  7  2  0
 10 21  1  0
 10  9  1  0
 10 11  1  1
 11 12  1  0
 12 13  2  0
 12 20  1  0
 13 14  1  0
 14 15  1  0
 15 16  2  0
 17 16  1  0
 18 17  2  0
 19 20  2  0
 19 18  1  0
 20 15  1  0
 21 23  1  0
 22 21  2  0
M  END
$$$$
