GGW.pdb
     RDKit          3D

 23 24  0  0  1  0  0  0  0  0999 V2000
   25.7684  -18.5187  -18.0247 N   0  0  0  0  0  0  0  0  0  0  0  0
   25.2837  -17.6206  -17.0134 C   0  0  0  0  0  0  0  0  0  0  0  0
   25.8396  -17.9449  -15.6703 C   0  0  0  0  0  0  0  0  0  0  0  0
   25.0258  -18.2833  -14.7750 O   0  0  0  0  0  0  0  0  0  0  0  0
   27.2346  -17.8827  -15.3826 N   0  0  0  0  0  0  0  0  0  0  0  0
   27.8259  -18.3156  -14.1641 C   0  0  0  0  0  0  0  0  0  0  0  0
   27.4810  -19.6723  -13.7235 C   0  0  0  0  0  0  0  0  0  0  0  0
   28.2486  -20.6090  -14.1096 O   0  0  0  0  0  0  0  0  0  0  0  0
   26.3917  -20.0368  -12.9241 N   0  0  0  0  0  0  0  0  0  0  0  0
   26.1000  -21.4115  -12.5449 C   0  0  1  0  0  0  0  0  0  0  0  0
   26.7951  -21.8691  -11.3118 C   0  0  0  0  0  0  0  0  0  0  0  0
   26.5344  -21.0742  -10.1031 C   0  0  0  0  0  0  0  0  0  0  0  0
   25.3461  -20.4857   -9.7603 C   0  0  0  0  0  0  0  0  0  0  0  0
   25.4514  -19.8388   -8.5949 N   0  0  0  0  0  0  0  0  0  0  0  0
   26.7135  -19.9892   -8.1469 C   0  0  0  0  0  0  0  0  0  0  0  0
   27.3450  -19.5248   -6.9993 C   0  0  0  0  0  0  0  0  0  0  0  0
   28.6657  -19.8183   -6.7627 C   0  0  0  0  0  0  0  0  0  0  0  0
   29.3465  -20.5880   -7.6989 C   0  0  0  0  0  0  0  0  0  0  0  0
   28.7296  -21.0522   -8.8382 C   0  0  0  0  0  0  0  0  0  0  0  0
   27.4014  -20.7592   -9.0798 C   0  0  0  0  0  0  0  0  0  0  0  0
   24.6332  -21.4812  -12.3017 C   0  0  0  0  0  0  0  0  0  0  0  0
   24.0125  -22.5664  -12.1405 O   0  0  0  0  0  0  0  0  0  0  0  0
   23.8438  -20.3265  -12.2369 O   0  0  0  0  0  0  0  0  0  0  0  0
  2  1  1  0
  3  5  1  0
  3  2  1  0
  4  3  2  0
  6  5  1  0
  7  9  1  0
  7  6  1  0
  8  7  2  0
 10 21  1  0
 10  9  1  0
 10 11  1  1
 11 12  1  0
 12 13  2  0
 12 20  1  0
 13 14  1  0
 14 15  1  0
 15 16  2  0
 17 16  1  0
 18 17  2  0
 19 20  2  0
 19 18  1  0
 20 15  1  0
 21 23  1  0
 22 21  2  0
M  END
$$$$
