GGW.pdb
     RDKit          3D

 23 24  0  0  1  0  0  0  0  0999 V2000
   26.8060  -19.5888  -16.8259 N   0  0  0  0  0  0  0  0  0  0  0  0
   26.4621  -20.5886  -15.8531 C   0  0  0  0  0  0  0  0  0  0  0  0
   26.8177  -20.1635  -14.4707 C   0  0  0  0  0  0  0  0  0  0  0  0
   25.9747  -19.4745  -13.8438 O   0  0  0  0  0  0  0  0  0  0  0  0
   28.0574  -20.5093  -13.8573 N   0  0  0  0  0  0  0  0  0  0  0  0
   28.3723  -20.2767  -12.4904 C   0  0  0  0  0  0  0  0  0  0  0  0
   27.5828  -21.0280  -11.5075 C   0  0  0  0  0  0  0  0  0  0  0  0
   27.8190  -22.2739  -11.4195 O   0  0  0  0  0  0  0  0  0  0  0  0
   26.5961  -20.5104  -10.6608 N   0  0  0  0  0  0  0  0  0  0  0  0
   25.9064  -21.3041   -9.6542 C   0  0  1  0  0  0  0  0  0  0  0  0
   26.7076  -21.5745   -8.4302 C   0  0  0  0  0  0  0  0  0  0  0  0
   27.1112  -20.3891   -7.6602 C   0  0  0  0  0  0  0  0  0  0  0  0
   26.8168  -19.0863   -7.9633 C   0  0  0  0  0  0  0  0  0  0  0  0
   27.3341  -18.2547   -7.0531 N   0  0  0  0  0  0  0  0  0  0  0  0
   27.9805  -18.9953   -6.1312 C   0  0  0  0  0  0  0  0  0  0  0  0
   28.6832  -18.6347   -4.9877 C   0  0  0  0  0  0  0  0  0  0  0  0
   29.2639  -19.5938   -4.1944 C   0  0  0  0  0  0  0  0  0  0  0  0
   29.1286  -20.9261   -4.5673 C   0  0  0  0  0  0  0  0  0  0  0  0
   28.4348  -21.2928   -5.6978 C   0  0  0  0  0  0  0  0  0  0  0  0
   27.8492  -20.3312   -6.4983 C   0  0  0  0  0  0  0  0  0  0  0  0
   24.7011  -20.5272   -9.2556 C   0  0  0  0  0  0  0  0  0  0  0  0
   24.4638  -19.3616   -9.6730 O   0  0  0  0  0  0  0  0  0  0  0  0
   23.7444  -21.0539   -8.3792 O   0  0  0  0  0  0  0  0  0  0  0  0
  2  1  1  0
  3  5  1  0
  3  2  1  0
  4  3  2  0
  6  5  1  0
  7  9  1  0
  7  6  1  0
  8  7  2  0
 10 21  1  0
 10  9  1  0
 10 11  1  1
 11 12  1  0
 12 13  2  0
 12 20  1  0
 13 14  1  0
 14 15  1  0
 15 16  2  0
 17 16  1  0
 18 17  2  0
 19 20  2  0
 19 18  1  0
 20 15  1  0
 21 23  1  0
 22 21  2  0
M  END
$$$$
