IVF.pdb
     RDKit          3D

 27 27  0  0  1  0  0  0  0  0999 V2000
   17.4665  -13.1283  -21.3885 C   0  0  0  0  0  0  0  0  0  0  0  0
   18.7001  -13.7693  -20.7828 C   0  0  0  0  0  0  0  0  0  0  0  0
   19.2014  -13.0481  -19.5772 C   0  0  2  0  0  0  0  0  0  0  0  0
   19.5393  -11.6328  -19.8719 C   0  0  0  0  0  0  0  0  0  0  0  0
   20.3266  -13.7547  -18.8509 C   0  0  2  0  0  0  0  0  0  0  0  0
   19.8688  -15.0959  -18.4682 N   0  0  0  0  0  0  0  0  0  0  0  0
   20.6290  -12.9958  -17.6139 C   0  0  0  0  0  0  0  0  0  0  0  0
   19.8015  -13.0352  -16.6760 O   0  0  0  0  0  0  0  0  0  0  0  0
   23.8839  -10.6800  -14.7556 C   0  0  0  0  0  0  0  0  0  0  0  0
   23.6238  -11.5355  -15.9707 C   0  0  1  0  0  0  0  0  0  0  0  0
   24.0196  -12.9619  -15.6565 C   0  0  0  0  0  0  0  0  0  0  0  0
   22.1503  -11.4440  -16.3255 C   0  0  2  0  0  0  0  0  0  0  0  0
   21.8262  -12.2372  -17.4715 N   0  0  0  0  0  0  0  0  0  0  0  0
   21.7998  -10.0240  -16.5400 C   0  0  0  0  0  0  0  0  0  0  0  0
   21.7714   -9.5807  -17.7336 O   0  0  0  0  0  0  0  0  0  0  0  0
   21.4888   -9.1048  -15.5089 N   0  0  0  0  0  0  0  0  0  0  0  0
   21.0151   -7.7556  -15.7140 C   0  0  1  0  0  0  0  0  0  0  0  0
   19.9215   -7.7728  -16.7287 C   0  0  0  0  0  0  0  0  0  0  0  0
   19.3264   -6.4518  -17.0199 C   0  0  0  0  0  0  0  0  0  0  0  0
   18.1091   -6.0522  -16.5115 C   0  0  0  0  0  0  0  0  0  0  0  0
   17.5603   -4.8182  -16.7884 C   0  0  0  0  0  0  0  0  0  0  0  0
   18.2430   -3.9165  -17.6136 C   0  0  0  0  0  0  0  0  0  0  0  0
   19.4603   -4.3046  -18.1264 C   0  0  0  0  0  0  0  0  0  0  0  0
   19.9789   -5.5512  -17.8272 C   0  0  0  0  0  0  0  0  0  0  0  0
   20.7357   -7.0023  -14.4913 C   0  0  0  0  0  0  0  0  0  0  0  0
   20.4780   -5.7773  -14.5366 O   0  0  0  0  0  0  0  0  0  0  0  0
   20.7530   -7.6277  -13.2661 O   0  0  0  0  0  0  0  0  0  0  0  0
  2  1  1  0
  3  2  1  0
  3  4  1  6
  5  3  1  0
  5  6  1  1
  7 13  1  0
  7  5  1  0
  8  7  2  0
 10  9  1  1
 11 10  1  0
 12 10  1  0
 12 13  1  6
 14 12  1  0
 14 15  2  0
 16 14  1  0
 17 16  1  0
 17 25  1  0
 17 18  1  6
 19 20  2  0
 19 18  1  0
 21 20  1  0
 22 21  2  0
 23 22  1  0
 23 24  2  0
 24 19  1  0
 25 27  1  0
 26 25  2  0
M  END
$$$$
