IVF.pdb
     RDKit          3D

 27 27  0  0  1  0  0  0  0  0999 V2000
   31.4538  -20.2231  -11.4146 C   0  0  0  0  0  0  0  0  0  0  0  0
   30.2253  -19.9088  -12.2461 C   0  0  0  0  0  0  0  0  0  0  0  0
   29.7407  -21.0768  -13.0373 C   0  0  2  0  0  0  0  0  0  0  0  0
   30.8329  -21.7227  -13.8079 C   0  0  0  0  0  0  0  0  0  0  0  0
   28.5364  -20.7839  -13.9075 C   0  0  2  0  0  0  0  0  0  0  0  0
   28.9139  -19.7781  -14.9079 N   0  0  0  0  0  0  0  0  0  0  0  0
   27.4726  -20.2100  -13.0493 C   0  0  0  0  0  0  0  0  0  0  0  0
   27.3158  -18.9686  -13.0484 O   0  0  0  0  0  0  0  0  0  0  0  0
   23.2937  -20.3959  -10.6734 C   0  0  0  0  0  0  0  0  0  0  0  0
   24.2698  -21.0451  -11.6230 C   0  0  1  0  0  0  0  0  0  0  0  0
   23.8684  -20.7059  -13.0421 C   0  0  0  0  0  0  0  0  0  0  0  0
   25.6654  -20.5331  -11.3138 C   0  0  2  0  0  0  0  0  0  0  0  0
   26.6350  -21.0310  -12.2408 N   0  0  0  0  0  0  0  0  0  0  0  0
   26.0115  -20.9040   -9.9253 C   0  0  0  0  0  0  0  0  0  0  0  0
   27.1930  -21.3138   -9.6844 O   0  0  0  0  0  0  0  0  0  0  0  0
   25.1207  -20.8387   -8.8266 N   0  0  0  0  0  0  0  0  0  0  0  0
   25.5118  -20.6313   -7.4514 C   0  0  1  0  0  0  0  0  0  0  0  0
   26.5564  -19.5675   -7.3978 C   0  0  0  0  0  0  0  0  0  0  0  0
   27.6120  -19.7869   -6.3870 C   0  0  0  0  0  0  0  0  0  0  0  0
   28.7226  -20.5681   -6.6239 C   0  0  0  0  0  0  0  0  0  0  0  0
   29.7028  -20.7685   -5.6754 C   0  0  0  0  0  0  0  0  0  0  0  0
   29.5926  -20.1678   -4.4156 C   0  0  0  0  0  0  0  0  0  0  0  0
   28.4878  -19.3843   -4.1680 C   0  0  0  0  0  0  0  0  0  0  0  0
   27.5243  -19.2071   -5.1441 C   0  0  0  0  0  0  0  0  0  0  0  0
   24.4052  -20.4837   -6.5059 C   0  0  0  0  0  0  0  0  0  0  0  0
   24.5431  -20.7994   -5.3017 O   0  0  0  0  0  0  0  0  0  0  0  0
   23.1890  -19.9957   -6.9247 O   0  0  0  0  0  0  0  0  0  0  0  0
  2  1  1  0
  3  2  1  0
  3  4  1  6
  5  3  1  0
  5  6  1  6
  7 13  1  0
  7  5  1  0
  8  7  2  0
 10  9  1  1
 11 10  1  0
 12 10  1  0
 12 13  1  6
 14 12  1  0
 14 15  2  0
 16 14  1  0
 17 16  1  0
 17 25  1  0
 17 18  1  6
 19 20  2  0
 19 18  1  0
 21 20  1  0
 22 21  2  0
 23 22  1  0
 23 24  2  0
 24 19  1  0
 25 27  1  0
 26 25  2  0
M  END
$$$$
