IVF.pdb
     RDKit          3D

 27 27  0  0  1  0  0  0  0  0999 V2000
   16.4616  -15.1506  -15.9379 C   0  0  0  0  0  0  0  0  0  0  0  0
   15.6058  -14.0788  -16.5847 C   0  0  0  0  0  0  0  0  0  0  0  0
   16.3379  -12.7972  -16.8001 C   0  0  2  0  0  0  0  0  0  0  0  0
   16.9741  -12.2999  -15.5544 C   0  0  0  0  0  0  0  0  0  0  0  0
   15.5215  -11.7198  -17.4827 C   0  0  2  0  0  0  0  0  0  0  0  0
   15.0936  -12.2167  -18.7960 N   0  0  0  0  0  0  0  0  0  0  0  0
   16.3940  -10.5401  -17.6934 C   0  0  0  0  0  0  0  0  0  0  0  0
   17.2510  -10.5904  -18.6039 O   0  0  0  0  0  0  0  0  0  0  0  0
   17.1137   -5.7433  -17.2708 C   0  0  0  0  0  0  0  0  0  0  0  0
   16.2426   -6.9702  -17.3793 C   0  0  1  0  0  0  0  0  0  0  0  0
   15.6849   -7.0496  -18.7838 C   0  0  0  0  0  0  0  0  0  0  0  0
   17.0809   -8.1941  -17.0555 C   0  0  2  0  0  0  0  0  0  0  0  0
   16.2761   -9.3662  -16.8951 N   0  0  0  0  0  0  0  0  0  0  0  0
   17.8751   -7.9186  -15.8395 C   0  0  0  0  0  0  0  0  0  0  0  0
   17.3780   -8.2277  -14.7085 O   0  0  0  0  0  0  0  0  0  0  0  0
   19.1629   -7.3301  -15.8328 N   0  0  0  0  0  0  0  0  0  0  0  0
   19.9503   -7.0682  -14.6501 C   0  0  1  0  0  0  0  0  0  0  0  0
   20.0494   -8.3200  -13.8445 C   0  0  0  0  0  0  0  0  0  0  0  0
   21.0964   -9.2624  -14.2913 C   0  0  0  0  0  0  0  0  0  0  0  0
   22.2875   -9.4299  -13.6183 C   0  0  0  0  0  0  0  0  0  0  0  0
   23.2597  -10.3108  -14.0420 C   0  0  0  0  0  0  0  0  0  0  0  0
   23.0564  -11.0775  -15.1956 C   0  0  0  0  0  0  0  0  0  0  0  0
   21.8697  -10.9192  -15.8755 C   0  0  0  0  0  0  0  0  0  0  0  0
   20.9180  -10.0249  -15.4207 C   0  0  0  0  0  0  0  0  0  0  0  0
   21.2101   -6.3627  -14.8857 C   0  0  0  0  0  0  0  0  0  0  0  0
   21.6080   -6.1307  -16.0506 O   0  0  0  0  0  0  0  0  0  0  0  0
   21.9834   -5.9419  -13.8285 O   0  0  0  0  0  0  0  0  0  0  0  0
  2  1  1  0
  3  2  1  0
  3  4  1  1
  5  3  1  0
  5  6  1  6
  7 13  1  0
  7  5  1  0
  8  7  2  0
 10  9  1  6
 11 10  1  0
 12 10  1  0
 12 13  1  1
 14 12  1  0
 14 15  2  0
 16 14  1  0
 17 16  1  0
 17 25  1  0
 17 18  1  6
 19 20  2  0
 19 18  1  0
 21 20  1  0
 22 21  2  0
 23 22  1  0
 23 24  2  0
 24 19  1  0
 25 27  1  0
 26 25  2  0
M  END
$$$$
