IVF.pdb
     RDKit          3D

 27 27  0  0  1  0  0  0  0  0999 V2000
   17.3337   -2.9336  -19.9308 C   0  0  0  0  0  0  0  0  0  0  0  0
   17.9331   -3.0372  -18.5418 C   0  0  0  0  0  0  0  0  0  0  0  0
   18.0815   -1.7142  -17.8690 C   0  0  2  0  0  0  0  0  0  0  0  0
   18.9020   -0.7692  -18.6676 C   0  0  0  0  0  0  0  0  0  0  0  0
   18.5553   -1.7945  -16.4330 C   0  0  2  0  0  0  0  0  0  0  0  0
   17.5095   -2.4388  -15.6293 N   0  0  0  0  0  0  0  0  0  0  0  0
   18.7446   -0.4133  -15.9291 C   0  0  0  0  0  0  0  0  0  0  0  0
   19.6124    0.3042  -16.4750 O   0  0  0  0  0  0  0  0  0  0  0  0
   17.0831    3.4643  -13.4469 C   0  0  0  0  0  0  0  0  0  0  0  0
   16.8204    2.1303  -14.1007 C   0  0  1  0  0  0  0  0  0  0  0  0
   16.1393    2.3651  -15.4314 C   0  0  0  0  0  0  0  0  0  0  0  0
   18.1434    1.4084  -14.2852 C   0  0  2  0  0  0  0  0  0  0  0  0
   17.9677    0.1076  -14.8547 N   0  0  0  0  0  0  0  0  0  0  0  0
   18.8306    1.3331  -12.9785 C   0  0  0  0  0  0  0  0  0  0  0  0
   18.8335    0.2204  -12.3589 O   0  0  0  0  0  0  0  0  0  0  0  0
   19.4952    2.4154  -12.3526 N   0  0  0  0  0  0  0  0  0  0  0  0
   20.3145    2.3133  -11.1671 C   0  0  1  0  0  0  0  0  0  0  0  0
   21.3109    1.2192  -11.3569 C   0  0  0  0  0  0  0  0  0  0  0  0
   22.3486    1.1381  -10.3079 C   0  0  0  0  0  0  0  0  0  0  0  0
   23.6764    1.4204  -10.5468 C   0  0  0  0  0  0  0  0  0  0  0  0
   24.6387    1.3418   -9.5628 C   0  0  0  0  0  0  0  0  0  0  0  0
   24.2826    0.9641   -8.2625 C   0  0  0  0  0  0  0  0  0  0  0  0
   22.9588    0.6806   -8.0119 C   0  0  0  0  0  0  0  0  0  0  0  0
   22.0216    0.7696   -9.0249 C   0  0  0  0  0  0  0  0  0  0  0  0
   20.8497    3.5811  -10.6704 C   0  0  0  0  0  0  0  0  0  0  0  0
   20.7498    3.8902   -9.4606 O   0  0  0  0  0  0  0  0  0  0  0  0
   21.4725    4.4597  -11.5264 O   0  0  0  0  0  0  0  0  0  0  0  0
  2  1  1  0
  3  2  1  0
  3  4  1  6
  5  3  1  0
  5  6  1  1
  7 13  1  0
  7  5  1  0
  8  7  2  0
 10  9  1  6
 11 10  1  0
 12 10  1  0
 12 13  1  1
 14 12  1  0
 14 15  2  0
 16 14  1  0
 17 16  1  0
 17 25  1  0
 17 18  1  6
 19 20  2  0
 19 18  1  0
 21 20  1  0
 22 21  2  0
 23 22  1  0
 23 24  2  0
 24 19  1  0
 25 27  1  0
 26 25  2  0
M  END
$$$$
