IVF.pdb
     RDKit          3D

 27 27  0  0  1  0  0  0  0  0999 V2000
   28.4536  -16.4702  -16.8022 C   0  0  0  0  0  0  0  0  0  0  0  0
   27.2818  -15.8685  -16.0511 C   0  0  0  0  0  0  0  0  0  0  0  0
   26.6721  -16.8102  -15.0680 C   0  0  2  0  0  0  0  0  0  0  0  0
   27.4877  -16.9365  -13.8340 C   0  0  0  0  0  0  0  0  0  0  0  0
   26.3096  -18.1634  -15.6428 C   0  0  2  0  0  0  0  0  0  0  0  0
   25.3929  -17.9633  -16.7717 N   0  0  0  0  0  0  0  0  0  0  0  0
   25.5979  -18.9361  -14.5969 C   0  0  0  0  0  0  0  0  0  0  0  0
   24.4787  -18.5271  -14.2148 O   0  0  0  0  0  0  0  0  0  0  0  0
   24.6195  -23.2334  -12.6200 C   0  0  0  0  0  0  0  0  0  0  0  0
   25.4100  -22.4100  -13.6065 C   0  0  1  0  0  0  0  0  0  0  0  0
   24.7381  -22.4932  -14.9598 C   0  0  0  0  0  0  0  0  0  0  0  0
   25.4642  -20.9755  -13.1119 C   0  0  2  0  0  0  0  0  0  0  0  0
   26.1518  -20.1194  -14.0293 N   0  0  0  0  0  0  0  0  0  0  0  0
   26.1028  -20.9557  -11.7788 C   0  0  0  0  0  0  0  0  0  0  0  0
   27.3732  -20.8903  -11.7166 O   0  0  0  0  0  0  0  0  0  0  0  0
   25.4040  -21.0044  -10.5483 N   0  0  0  0  0  0  0  0  0  0  0  0
   26.0209  -20.9997   -9.2420 C   0  0  1  0  0  0  0  0  0  0  0  0
   26.9492  -19.8356   -9.1464 C   0  0  0  0  0  0  0  0  0  0  0  0
   27.5668  -19.6439   -7.8176 C   0  0  0  0  0  0  0  0  0  0  0  0
   27.0604  -18.7728   -6.8770 C   0  0  0  0  0  0  0  0  0  0  0  0
   27.6429  -18.5990   -5.6396 C   0  0  0  0  0  0  0  0  0  0  0  0
   28.7923  -19.3217   -5.2980 C   0  0  0  0  0  0  0  0  0  0  0  0
   29.3064  -20.1955   -6.2294 C   0  0  0  0  0  0  0  0  0  0  0  0
   28.6952  -20.3427   -7.4612 C   0  0  0  0  0  0  0  0  0  0  0  0
   25.0994  -21.1715   -8.1188 C   0  0  0  0  0  0  0  0  0  0  0  0
   23.9352  -20.7118   -8.1672 O   0  0  0  0  0  0  0  0  0  0  0  0
   25.4973  -21.8414   -6.9849 O   0  0  0  0  0  0  0  0  0  0  0  0
  2  1  1  0
  3  2  1  0
  3  4  1  1
  5  3  1  0
  5  6  1  6
  7 13  1  0
  7  5  1  0
  8  7  2  0
 10  9  1  1
 11 10  1  0
 12 10  1  0
 12 13  1  6
 14 12  1  0
 14 15  2  0
 16 14  1  0
 17 16  1  0
 17 25  1  0
 17 18  1  1
 19 20  2  0
 19 18  1  0
 21 20  1  0
 22 21  2  0
 23 22  1  0
 23 24  2  0
 24 19  1  0
 25 27  1  0
 26 25  2  0
M  END
$$$$
