IVF.pdb
     RDKit          3D

 27 27  0  0  1  0  0  0  0  0999 V2000
   28.3884  -15.3507  -17.2546 C   0  0  0  0  0  0  0  0  0  0  0  0
   28.0895  -16.7835  -17.6509 C   0  0  0  0  0  0  0  0  0  0  0  0
   27.2447  -17.5018  -16.6532 C   0  0  2  0  0  0  0  0  0  0  0  0
   27.8141  -17.4318  -15.2839 C   0  0  0  0  0  0  0  0  0  0  0  0
   26.8911  -18.9218  -17.0426 C   0  0  2  0  0  0  0  0  0  0  0  0
   26.1885  -18.8938  -18.3312 N   0  0  0  0  0  0  0  0  0  0  0  0
   25.9662  -19.4665  -16.0202 C   0  0  0  0  0  0  0  0  0  0  0  0
   24.8554  -18.9108  -15.8681 O   0  0  0  0  0  0  0  0  0  0  0  0
   24.2651  -23.2232  -13.5053 C   0  0  0  0  0  0  0  0  0  0  0  0
   25.1222  -22.6405  -14.6016 C   0  0  1  0  0  0  0  0  0  0  0  0
   24.3682  -22.7315  -15.9104 C   0  0  0  0  0  0  0  0  0  0  0  0
   25.4421  -21.1971  -14.2558 C   0  0  2  0  0  0  0  0  0  0  0  0
   26.3092  -20.5955  -15.2220 N   0  0  0  0  0  0  0  0  0  0  0  0
   26.0347  -21.1522  -12.9022 C   0  0  0  0  0  0  0  0  0  0  0  0
   27.3028  -21.1990  -12.7943 O   0  0  0  0  0  0  0  0  0  0  0  0
   25.2935  -21.0599  -11.6994 N   0  0  0  0  0  0  0  0  0  0  0  0
   25.8655  -20.9860  -10.3748 C   0  0  1  0  0  0  0  0  0  0  0  0
   26.9400  -19.9510  -10.3659 C   0  0  0  0  0  0  0  0  0  0  0  0
   27.5665  -19.7205   -9.0474 C   0  0  0  0  0  0  0  0  0  0  0  0
   28.6142  -20.4812   -8.5747 C   0  0  0  0  0  0  0  0  0  0  0  0
   29.1929  -20.2603   -7.3431 C   0  0  0  0  0  0  0  0  0  0  0  0
   28.7195  -19.2310   -6.5205 C   0  0  0  0  0  0  0  0  0  0  0  0
   27.6738  -18.4639   -6.9828 C   0  0  0  0  0  0  0  0  0  0  0  0
   27.1179  -18.7160   -8.2238 C   0  0  0  0  0  0  0  0  0  0  0  0
   24.8957  -20.9047   -9.2825 C   0  0  0  0  0  0  0  0  0  0  0  0
   23.8496  -20.2262   -9.4018 O   0  0  0  0  0  0  0  0  0  0  0  0
   25.1173  -21.5727   -8.1004 O   0  0  0  0  0  0  0  0  0  0  0  0
  2  1  1  0
  3  2  1  0
  3  4  1  1
  5  3  1  0
  5  6  1  6
  7 13  1  0
  7  5  1  0
  8  7  2  0
 10  9  1  1
 11 10  1  0
 12 10  1  0
 12 13  1  6
 14 12  1  0
 14 15  2  0
 16 14  1  0
 17 16  1  0
 17 25  1  0
 17 18  1  6
 19 20  2  0
 19 18  1  0
 21 20  1  0
 22 21  2  0
 23 22  1  0
 23 24  2  0
 24 19  1  0
 25 27  1  0
 26 25  2  0
M  END
$$$$
