IVF.pdb
     RDKit          3D

 27 27  0  0  1  0  0  0  0  0999 V2000
   26.8005  -13.6242  -15.6829 C   0  0  0  0  0  0  0  0  0  0  0  0
   26.7731  -12.8945  -17.0119 C   0  0  0  0  0  0  0  0  0  0  0  0
   25.7249  -11.8352  -17.0756 C   0  0  2  0  0  0  0  0  0  0  0  0
   25.8724  -10.8358  -15.9877 C   0  0  0  0  0  0  0  0  0  0  0  0
   24.3087  -12.3638  -17.1645 C   0  0  2  0  0  0  0  0  0  0  0  0
   24.2182  -13.2719  -18.3144 N   0  0  0  0  0  0  0  0  0  0  0  0
   23.3999  -11.2175  -17.4044 C   0  0  0  0  0  0  0  0  0  0  0  0
   23.6333  -10.4688  -18.3795 O   0  0  0  0  0  0  0  0  0  0  0  0
   20.1078  -10.7518  -18.5478 C   0  0  0  0  0  0  0  0  0  0  0  0
   20.0260  -10.2106  -17.1419 C   0  0  1  0  0  0  0  0  0  0  0  0
   19.4401  -11.2770  -16.2423 C   0  0  0  0  0  0  0  0  0  0  0  0
   21.4211   -9.8200  -16.6876 C   0  0  2  0  0  0  0  0  0  0  0  0
   22.2806  -10.9571  -16.5626 N   0  0  0  0  0  0  0  0  0  0  0  0
   21.3168   -9.0840  -15.4098 C   0  0  0  0  0  0  0  0  0  0  0  0
   21.8515   -9.5931  -14.3721 O   0  0  0  0  0  0  0  0  0  0  0  0
   20.6601   -7.8403  -15.2460 N   0  0  0  0  0  0  0  0  0  0  0  0
   20.6285   -7.0724  -14.0227 C   0  0  1  0  0  0  0  0  0  0  0  0
   22.0194   -6.9282  -13.5027 C   0  0  0  0  0  0  0  0  0  0  0  0
   22.8857   -6.0291  -14.2933 C   0  0  0  0  0  0  0  0  0  0  0  0
   22.7436   -4.6581  -14.2868 C   0  0  0  0  0  0  0  0  0  0  0  0
   23.5555   -3.8261  -15.0278 C   0  0  0  0  0  0  0  0  0  0  0  0
   24.5714   -4.3663  -15.8256 C   0  0  0  0  0  0  0  0  0  0  0  0
   24.7233   -5.7346  -15.8391 C   0  0  0  0  0  0  0  0  0  0  0  0
   23.8889   -6.5376  -15.0831 C   0  0  0  0  0  0  0  0  0  0  0  0
   19.8413   -5.8407  -14.0822 C   0  0  0  0  0  0  0  0  0  0  0  0
   19.3873   -5.4207  -15.1714 O   0  0  0  0  0  0  0  0  0  0  0  0
   19.5868   -5.1185  -12.9392 O   0  0  0  0  0  0  0  0  0  0  0  0
  2  1  1  0
  3  2  1  0
  3  4  1  1
  5  3  1  0
  5  6  1  6
  7 13  1  0
  7  5  1  0
  8  7  2  0
 10  9  1  6
 11 10  1  0
 12 10  1  0
 12 13  1  1
 14 12  1  0
 14 15  2  0
 16 14  1  0
 17 16  1  0
 17 25  1  0
 17 18  1  6
 19 20  2  0
 19 18  1  0
 21 20  1  0
 22 21  2  0
 23 22  1  0
 23 24  2  0
 24 19  1  0
 25 27  1  0
 26 25  2  0
M  END
$$$$
