IVF.pdb
     RDKit          3D

 27 27  0  0  1  0  0  0  0  0999 V2000
   20.5045  -18.9253  -13.9246 C   0  0  0  0  0  0  0  0  0  0  0  0
   21.9363  -18.7216  -14.3807 C   0  0  0  0  0  0  0  0  0  0  0  0
   22.9068  -19.6051  -13.6718 C   0  0  2  0  0  0  0  0  0  0  0  0
   22.7029  -19.5941  -12.2013 C   0  0  0  0  0  0  0  0  0  0  0  0
   24.3554  -19.3618  -14.0399 C   0  0  2  0  0  0  0  0  0  0  0  0
   24.5019  -19.5117  -15.4928 N   0  0  0  0  0  0  0  0  0  0  0  0
   25.1824  -20.3999  -13.3794 C   0  0  0  0  0  0  0  0  0  0  0  0
   24.9226  -21.6019  -13.6107 O   0  0  0  0  0  0  0  0  0  0  0  0
   29.3190  -21.9638  -11.4940 C   0  0  0  0  0  0  0  0  0  0  0  0
   28.5323  -20.8999  -12.2187 C   0  0  1  0  0  0  0  0  0  0  0  0
   28.7058  -21.0955  -13.7091 C   0  0  0  0  0  0  0  0  0  0  0  0
   27.0719  -21.0163  -11.8198 C   0  0  2  0  0  0  0  0  0  0  0  0
   26.2535  -20.0620  -12.5031 N   0  0  0  0  0  0  0  0  0  0  0  0
   26.9653  -20.8615  -10.3536 C   0  0  0  0  0  0  0  0  0  0  0  0
   27.9217  -20.2936   -9.7333 O   0  0  0  0  0  0  0  0  0  0  0  0
   25.8685  -21.3008   -9.5732 N   0  0  0  0  0  0  0  0  0  0  0  0
   25.7326  -21.1072   -8.1481 C   0  0  1  0  0  0  0  0  0  0  0  0
   26.1625  -19.7210   -7.8022 C   0  0  0  0  0  0  0  0  0  0  0  0
   27.1409  -19.6338   -6.6980 C   0  0  0  0  0  0  0  0  0  0  0  0
   27.5633  -20.7352   -5.9851 C   0  0  0  0  0  0  0  0  0  0  0  0
   28.4759  -20.6454   -4.9557 C   0  0  0  0  0  0  0  0  0  0  0  0
   29.0111  -19.4016   -4.5997 C   0  0  0  0  0  0  0  0  0  0  0  0
   28.5972  -18.2945   -5.3057 C   0  0  0  0  0  0  0  0  0  0  0  0
   27.6790  -18.4234   -6.3318 C   0  0  0  0  0  0  0  0  0  0  0  0
   24.4535  -21.5357   -7.5817 C   0  0  0  0  0  0  0  0  0  0  0  0
   23.4495  -21.6975   -8.3129 O   0  0  0  0  0  0  0  0  0  0  0  0
   24.3302  -21.7674   -6.2312 O   0  0  0  0  0  0  0  0  0  0  0  0
  2  1  1  0
  3  2  1  0
  3  4  1  1
  5  3  1  0
  5  6  1  6
  7 13  1  0
  7  5  1  0
  8  7  2  0
 10  9  1  1
 11 10  1  0
 12 10  1  0
 12 13  1  6
 14 12  1  0
 14 15  2  0
 16 14  1  0
 17 16  1  0
 17 25  1  0
 17 18  1  6
 19 20  2  0
 19 18  1  0
 21 20  1  0
 22 21  2  0
 23 22  1  0
 23 24  2  0
 24 19  1  0
 25 27  1  0
 26 25  2  0
M  END
$$$$
