IVF.pdb
     RDKit          3D

 27 27  0  0  1  0  0  0  0  0999 V2000
   26.7142  -32.9695  -19.7436 C   0  0  0  0  0  0  0  0  0  0  0  0
   27.9720  -32.2304  -19.3302 C   0  0  0  0  0  0  0  0  0  0  0  0
   27.7022  -31.0846  -18.4140 C   0  0  2  0  0  0  0  0  0  0  0  0
   26.6621  -30.1715  -18.9509 C   0  0  0  0  0  0  0  0  0  0  0  0
   28.9406  -30.3304  -17.9773 C   0  0  2  0  0  0  0  0  0  0  0  0
   29.7851  -31.2333  -17.1859 N   0  0  0  0  0  0  0  0  0  0  0  0
   28.5170  -29.2075  -17.1070 C   0  0  0  0  0  0  0  0  0  0  0  0
   28.5416  -29.3753  -15.8672 O   0  0  0  0  0  0  0  0  0  0  0  0
   27.9553  -24.3720  -16.5886 C   0  0  0  0  0  0  0  0  0  0  0  0
   28.4980  -25.5685  -17.3300 C   0  0  1  0  0  0  0  0  0  0  0  0
   29.9818  -25.6806  -17.0550 C   0  0  0  0  0  0  0  0  0  0  0  0
   27.7609  -26.8097  -16.8594 C   0  0  2  0  0  0  0  0  0  0  0  0
   28.0928  -27.9586  -17.6451 N   0  0  0  0  0  0  0  0  0  0  0  0
   26.3077  -26.5406  -16.8906 C   0  0  0  0  0  0  0  0  0  0  0  0
   25.7472  -26.3711  -18.0216 O   0  0  0  0  0  0  0  0  0  0  0  0
   25.4779  -26.4552  -15.7465 N   0  0  0  0  0  0  0  0  0  0  0  0
   24.0592  -26.1833  -15.7677 C   0  0  1  0  0  0  0  0  0  0  0  0
   23.4178  -26.8535  -14.5993 C   0  0  0  0  0  0  0  0  0  0  0  0
   21.9638  -26.6210  -14.4737 C   0  0  0  0  0  0  0  0  0  0  0  0
   21.4351  -25.5440  -13.7951 C   0  0  0  0  0  0  0  0  0  0  0  0
   20.0773  -25.3344  -13.6818 C   0  0  0  0  0  0  0  0  0  0  0  0
   19.1779  -26.2327  -14.2687 C   0  0  0  0  0  0  0  0  0  0  0  0
   19.6947  -27.3116  -14.9501 C   0  0  0  0  0  0  0  0  0  0  0  0
   21.0630  -27.4896  -15.0419 C   0  0  0  0  0  0  0  0  0  0  0  0
   23.6982  -24.7805  -15.9727 C   0  0  0  0  0  0  0  0  0  0  0  0
   24.3439  -23.8632  -15.4154 O   0  0  0  0  0  0  0  0  0  0  0  0
   22.6382  -24.4431  -16.7823 O   0  0  0  0  0  0  0  0  0  0  0  0
  2  1  1  0
  3  2  1  0
  3  4  1  6
  5  3  1  0
  5  6  1  1
  7 13  1  0
  7  5  1  0
  8  7  2  0
 10  9  1  1
 11 10  1  0
 12 10  1  0
 12 13  1  6
 14 12  1  0
 14 15  2  0
 16 14  1  0
 17 16  1  0
 17 25  1  0
 17 18  1  1
 19 20  2  0
 19 18  1  0
 21 20  1  0
 22 21  2  0
 23 22  1  0
 23 24  2  0
 24 19  1  0
 25 27  1  0
 26 25  2  0
M  END
$$$$
