IVF.pdb
     RDKit          3D

 27 27  0  0  1  0  0  0  0  0999 V2000
   17.9699  -20.1331  -12.9050 C   0  0  0  0  0  0  0  0  0  0  0  0
   19.2906  -19.5170  -13.3240 C   0  0  0  0  0  0  0  0  0  0  0  0
   20.4688  -20.1650  -12.6783 C   0  0  2  0  0  0  0  0  0  0  0  0
   20.3049  -20.2859  -11.2077 C   0  0  0  0  0  0  0  0  0  0  0  0
   21.8006  -19.5452  -13.0459 C   0  0  2  0  0  0  0  0  0  0  0  0
   21.9120  -19.5062  -14.5091 N   0  0  0  0  0  0  0  0  0  0  0  0
   22.8786  -20.4166  -12.5204 C   0  0  0  0  0  0  0  0  0  0  0  0
   22.5633  -21.5309  -12.0464 O   0  0  0  0  0  0  0  0  0  0  0  0
   27.4989  -21.8746  -12.6551 C   0  0  0  0  0  0  0  0  0  0  0  0
   26.3991  -20.9871  -13.1830 C   0  0  1  0  0  0  0  0  0  0  0  0
   25.8239  -21.6152  -14.4338 C   0  0  0  0  0  0  0  0  0  0  0  0
   25.3357  -20.8370  -12.1097 C   0  0  2  0  0  0  0  0  0  0  0  0
   24.2463  -20.0190  -12.5472 N   0  0  0  0  0  0  0  0  0  0  0  0
   25.9644  -20.2854  -10.8908 C   0  0  0  0  0  0  0  0  0  0  0  0
   25.5493  -19.1653  -10.4490 O   0  0  0  0  0  0  0  0  0  0  0  0
   27.0062  -20.9125  -10.1655 N   0  0  0  0  0  0  0  0  0  0  0  0
   27.6679  -20.3523   -9.0099 C   0  0  1  0  0  0  0  0  0  0  0  0
   26.6530  -20.0878   -7.9488 C   0  0  0  0  0  0  0  0  0  0  0  0
   27.2097  -19.6157   -6.6638 C   0  0  0  0  0  0  0  0  0  0  0  0
   27.5047  -18.2918   -6.4185 C   0  0  0  0  0  0  0  0  0  0  0  0
   28.0246  -17.8595   -5.2171 C   0  0  0  0  0  0  0  0  0  0  0  0
   28.2717  -18.7774   -4.1892 C   0  0  0  0  0  0  0  0  0  0  0  0
   27.9799  -20.1025   -4.4226 C   0  0  0  0  0  0  0  0  0  0  0  0
   27.4601  -20.4991   -5.6412 C   0  0  0  0  0  0  0  0  0  0  0  0
   28.8702  -21.0640   -8.5761 C   0  0  0  0  0  0  0  0  0  0  0  0
   28.9535  -22.3091   -8.6844 O   0  0  0  0  0  0  0  0  0  0  0  0
   29.9332  -20.3761   -8.0380 O   0  0  0  0  0  0  0  0  0  0  0  0
  2  1  1  0
  3  2  1  0
  3  4  1  1
  5  3  1  0
  5  6  1  6
  7 13  1  0
  7  5  1  0
  8  7  2  0
 10  9  1  1
 11 10  1  0
 12 10  1  0
 12 13  1  6
 14 12  1  0
 14 15  2  0
 16 14  1  0
 17 16  1  0
 17 25  1  0
 17 18  1  1
 19 20  2  0
 19 18  1  0
 21 20  1  0
 22 21  2  0
 23 22  1  0
 23 24  2  0
 24 19  1  0
 25 27  1  0
 26 25  2  0
M  END
$$$$
