IVF.pdb
     RDKit          3D

 27 27  0  0  1  0  0  0  0  0999 V2000
   19.3184  -11.7607    4.2213 C   0  0  0  0  0  0  0  0  0  0  0  0
   18.0634  -12.4598    3.7356 C   0  0  0  0  0  0  0  0  0  0  0  0
   17.8880  -13.8200    4.3220 C   0  0  2  0  0  0  0  0  0  0  0  0
   19.0651  -14.6910    4.0774 C   0  0  0  0  0  0  0  0  0  0  0  0
   16.5933  -14.5036    3.9350 C   0  0  2  0  0  0  0  0  0  0  0  0
   15.4724  -13.7291    4.4814 N   0  0  0  0  0  0  0  0  0  0  0  0
   16.5756  -15.8493    4.5565 C   0  0  0  0  0  0  0  0  0  0  0  0
   16.3576  -15.9327    5.7859 O   0  0  0  0  0  0  0  0  0  0  0  0
   16.7587  -20.7708    4.0313 C   0  0  0  0  0  0  0  0  0  0  0  0
   16.5656  -19.4289    3.3695 C   0  0  1  0  0  0  0  0  0  0  0  0
   15.1175  -19.2953    2.9514 C   0  0  0  0  0  0  0  0  0  0  0  0
   16.9517  -18.3393    4.3540 C   0  0  2  0  0  0  0  0  0  0  0  0
   16.7942  -17.0322    3.7935 N   0  0  0  0  0  0  0  0  0  0  0  0
   18.3435  -18.5688    4.7961 C   0  0  0  0  0  0  0  0  0  0  0  0
   19.2903  -18.1073    4.0802 O   0  0  0  0  0  0  0  0  0  0  0  0
   18.7124  -19.2710    5.9690 N   0  0  0  0  0  0  0  0  0  0  0  0
   19.8637  -18.9718    6.7887 C   0  0  1  0  0  0  0  0  0  0  0  0
   19.8907  -17.5076    7.0739 C   0  0  0  0  0  0  0  0  0  0  0  0
   20.9898  -17.0696    7.9593 C   0  0  0  0  0  0  0  0  0  0  0  0
   22.3165  -17.1323    7.5908 C   0  0  0  0  0  0  0  0  0  0  0  0
   23.3363  -16.7223    8.4229 C   0  0  0  0  0  0  0  0  0  0  0  0
   23.0428  -16.2183    9.6958 C   0  0  0  0  0  0  0  0  0  0  0  0
   21.7208  -16.1501   10.0743 C   0  0  0  0  0  0  0  0  0  0  0  0
   20.7248  -16.5718    9.2126 C   0  0  0  0  0  0  0  0  0  0  0  0
   20.0476  -19.8480    7.9458 C   0  0  0  0  0  0  0  0  0  0  0  0
   21.1868  -20.2596    8.2649 O   0  0  0  0  0  0  0  0  0  0  0  0
   18.9687  -20.2383    8.7049 O   0  0  0  0  0  0  0  0  0  0  0  0
  2  1  1  0
  3  2  1  0
  3  4  1  6
  5  3  1  0
  5  6  1  1
  7 13  1  0
  7  5  1  0
  8  7  2  0
 10  9  1  1
 11 10  1  0
 12 10  1  0
 12 13  1  6
 14 12  1  0
 14 15  2  0
 16 14  1  0
 17 16  1  0
 17 25  1  0
 17 18  1  1
 19 20  2  0
 19 18  1  0
 21 20  1  0
 22 21  2  0
 23 22  1  0
 23 24  2  0
 24 19  1  0
 25 27  1  0
 26 25  2  0
M  END
$$$$
