IVF.pdb
     RDKit          3D

 27 27  0  0  1  0  0  0  0  0999 V2000
   19.2684  -19.3769  -12.3709 C   0  0  0  0  0  0  0  0  0  0  0  0
   20.4896  -19.6484  -13.2277 C   0  0  0  0  0  0  0  0  0  0  0  0
   21.5933  -20.3150  -12.4778 C   0  0  2  0  0  0  0  0  0  0  0  0
   21.9102  -19.6141  -11.2080 C   0  0  0  0  0  0  0  0  0  0  0  0
   22.8373  -20.5764  -13.3006 C   0  0  2  0  0  0  0  0  0  0  0  0
   22.5056  -21.5364  -14.3605 N   0  0  0  0  0  0  0  0  0  0  0  0
   23.8566  -21.1922  -12.4178 C   0  0  0  0  0  0  0  0  0  0  0  0
   23.6445  -22.3451  -11.9800 O   0  0  0  0  0  0  0  0  0  0  0  0
   28.4749  -21.7506  -11.1650 C   0  0  0  0  0  0  0  0  0  0  0  0
   27.4172  -21.1452  -12.0543 C   0  0  1  0  0  0  0  0  0  0  0  0
   27.2736  -22.0017  -13.2936 C   0  0  0  0  0  0  0  0  0  0  0  0
   26.1110  -21.0784  -11.2832 C   0  0  2  0  0  0  0  0  0  0  0  0
   25.0567  -20.5100  -12.0659 N   0  0  0  0  0  0  0  0  0  0  0  0
   26.3309  -20.3086  -10.0405 C   0  0  0  0  0  0  0  0  0  0  0  0
   25.4098  -19.5241   -9.6430 O   0  0  0  0  0  0  0  0  0  0  0  0
   27.5011  -20.3754   -9.2461 N   0  0  0  0  0  0  0  0  0  0  0  0
   27.8475  -19.4438   -8.1977 C   0  0  1  0  0  0  0  0  0  0  0  0
   26.7351  -19.3930   -7.2048 C   0  0  0  0  0  0  0  0  0  0  0  0
   27.1310  -19.7037   -5.8153 C   0  0  0  0  0  0  0  0  0  0  0  0
   27.9034  -18.8557   -5.0509 C   0  0  0  0  0  0  0  0  0  0  0  0
   28.2691  -19.1531   -3.7554 C   0  0  0  0  0  0  0  0  0  0  0  0
   27.8542  -20.3543   -3.1680 C   0  0  0  0  0  0  0  0  0  0  0  0
   27.0813  -21.2088   -3.9218 C   0  0  0  0  0  0  0  0  0  0  0  0
   26.7350  -20.8768   -5.2188 C   0  0  0  0  0  0  0  0  0  0  0  0
   29.1902  -19.6069   -7.6399 C   0  0  0  0  0  0  0  0  0  0  0  0
   29.7291  -18.6860   -6.9838 O   0  0  0  0  0  0  0  0  0  0  0  0
   29.8876  -20.7776   -7.8288 O   0  0  0  0  0  0  0  0  0  0  0  0
  2  1  1  0
  3  2  1  0
  3  4  1  1
  5  3  1  0
  5  6  1  6
  7 13  1  0
  7  5  1  0
  8  7  2  0
 10  9  1  1
 11 10  1  0
 12 10  1  0
 12 13  1  6
 14 12  1  0
 14 15  2  0
 16 14  1  0
 17 16  1  0
 17 25  1  0
 17 18  1  1
 19 20  2  0
 19 18  1  0
 21 20  1  0
 22 21  2  0
 23 22  1  0
 23 24  2  0
 24 19  1  0
 25 27  1  0
 26 25  2  0
M  END
$$$$
