IVF.pdb
     RDKit          3D

 27 27  0  0  1  0  0  0  0  0999 V2000
   27.1155  -14.5240  -15.7056 C   0  0  0  0  0  0  0  0  0  0  0  0
   27.4926  -15.9913  -15.7701 C   0  0  0  0  0  0  0  0  0  0  0  0
   26.7733  -16.8245  -14.7634 C   0  0  2  0  0  0  0  0  0  0  0  0
   27.4461  -16.8082  -13.4400 C   0  0  0  0  0  0  0  0  0  0  0  0
   26.4716  -18.2355  -15.2228 C   0  0  2  0  0  0  0  0  0  0  0  0
   25.6181  -18.1682  -16.4152 N   0  0  0  0  0  0  0  0  0  0  0  0
   25.7157  -18.9216  -14.1478 C   0  0  0  0  0  0  0  0  0  0  0  0
   24.5408  -18.5551  -13.9212 O   0  0  0  0  0  0  0  0  0  0  0  0
   24.5902  -22.9467  -11.8598 C   0  0  0  0  0  0  0  0  0  0  0  0
   25.4402  -22.2100  -12.8652 C   0  0  1  0  0  0  0  0  0  0  0  0
   24.7810  -22.3054  -14.2240 C   0  0  0  0  0  0  0  0  0  0  0  0
   25.5738  -20.7633  -12.4243 C   0  0  2  0  0  0  0  0  0  0  0  0
   26.2894  -19.9766  -13.3817 N   0  0  0  0  0  0  0  0  0  0  0  0
   26.2328  -20.7279  -11.1016 C   0  0  0  0  0  0  0  0  0  0  0  0
   27.4986  -20.5941  -11.0588 O   0  0  0  0  0  0  0  0  0  0  0  0
   25.5586  -20.8325   -9.8609 N   0  0  0  0  0  0  0  0  0  0  0  0
   26.2011  -20.8809   -8.5678 C   0  0  1  0  0  0  0  0  0  0  0  0
   27.1710  -19.7520   -8.4639 C   0  0  0  0  0  0  0  0  0  0  0  0
   27.8387  -19.6284   -7.1513 C   0  0  0  0  0  0  0  0  0  0  0  0
   27.4961  -18.6656   -6.2263 C   0  0  0  0  0  0  0  0  0  0  0  0
   28.1243  -18.5564   -5.0040 C   0  0  0  0  0  0  0  0  0  0  0  0
   29.1520  -19.4437   -4.6622 C   0  0  0  0  0  0  0  0  0  0  0  0
   29.5020  -20.4103   -5.5780 C   0  0  0  0  0  0  0  0  0  0  0  0
   28.8496  -20.4885   -6.7949 C   0  0  0  0  0  0  0  0  0  0  0  0
   25.2967  -21.0485   -7.4302 C   0  0  0  0  0  0  0  0  0  0  0  0
   24.1325  -20.5876   -7.4621 O   0  0  0  0  0  0  0  0  0  0  0  0
   25.7112  -21.7157   -6.3007 O   0  0  0  0  0  0  0  0  0  0  0  0
  2  1  1  0
  3  2  1  0
  3  4  1  1
  5  3  1  0
  5  6  1  6
  7 13  1  0
  7  5  1  0
  8  7  2  0
 10  9  1  1
 11 10  1  0
 12 10  1  0
 12 13  1  6
 14 12  1  0
 14 15  2  0
 16 14  1  0
 17 16  1  0
 17 25  1  0
 17 18  1  1
 19 20  2  0
 19 18  1  0
 21 20  1  0
 22 21  2  0
 23 22  1  0
 23 24  2  0
 24 19  1  0
 25 27  1  0
 26 25  2  0
M  END
$$$$
