IVF.pdb
     RDKit          3D

 27 27  0  0  1  0  0  0  0  0999 V2000
   21.2885  -18.0119  -14.3913 C   0  0  0  0  0  0  0  0  0  0  0  0
   20.1709  -17.2492  -15.0758 C   0  0  0  0  0  0  0  0  0  0  0  0
   20.6293  -15.9730  -15.6971 C   0  0  2  0  0  0  0  0  0  0  0  0
   21.3429  -15.1034  -14.7282 C   0  0  0  0  0  0  0  0  0  0  0  0
   19.5475  -15.2170  -16.4395 C   0  0  2  0  0  0  0  0  0  0  0  0
   19.0664  -16.0527  -17.5464 N   0  0  0  0  0  0  0  0  0  0  0  0
   20.1490  -13.9887  -17.0115 C   0  0  0  0  0  0  0  0  0  0  0  0
   21.0575  -14.1135  -17.8629 O   0  0  0  0  0  0  0  0  0  0  0  0
   19.8757   -9.4064  -18.4066 C   0  0  0  0  0  0  0  0  0  0  0  0
   19.3310  -10.7787  -18.0966 C   0  0  1  0  0  0  0  0  0  0  0  0
   19.2171  -11.5610  -19.3869 C   0  0  0  0  0  0  0  0  0  0  0  0
   20.2698  -11.4677  -17.1222 C   0  0  2  0  0  0  0  0  0  0  0  0
   19.7176  -12.6886  -16.6205 N   0  0  0  0  0  0  0  0  0  0  0  0
   20.5862  -10.5310  -16.0233 C   0  0  0  0  0  0  0  0  0  0  0  0
   19.6744  -10.2608  -15.1762 O   0  0  0  0  0  0  0  0  0  0  0  0
   21.8405   -9.9015  -15.8353 N   0  0  0  0  0  0  0  0  0  0  0  0
   22.1356   -8.9272  -14.8102 C   0  0  1  0  0  0  0  0  0  0  0  0
   23.2108   -9.4626  -13.9252 C   0  0  0  0  0  0  0  0  0  0  0  0
   24.4223   -9.9256  -14.6335 C   0  0  0  0  0  0  0  0  0  0  0  0
   25.2377   -9.0779  -15.3522 C   0  0  0  0  0  0  0  0  0  0  0  0
   26.3660   -9.5177  -16.0109 C   0  0  0  0  0  0  0  0  0  0  0  0
   26.7218  -10.8711  -15.9651 C   0  0  0  0  0  0  0  0  0  0  0  0
   25.9152  -11.7271  -15.2493 C   0  0  0  0  0  0  0  0  0  0  0  0
   24.7904  -11.2493  -14.6020 C   0  0  0  0  0  0  0  0  0  0  0  0
   22.3304   -7.5591  -15.2905 C   0  0  0  0  0  0  0  0  0  0  0  0
   22.5744   -7.3311  -16.4978 O   0  0  0  0  0  0  0  0  0  0  0  0
   22.2508   -6.4957  -14.4214 O   0  0  0  0  0  0  0  0  0  0  0  0
  2  1  1  0
  3  2  1  0
  3  4  1  1
  5  3  1  0
  5  6  1  6
  7 13  1  0
  7  5  1  0
  8  7  2  0
 10  9  1  6
 11 10  1  0
 12 10  1  0
 12 13  1  1
 14 12  1  0
 14 15  2  0
 16 14  1  0
 17 16  1  0
 17 25  1  0
 17 18  1  6
 19 20  2  0
 19 18  1  0
 21 20  1  0
 22 21  2  0
 23 22  1  0
 23 24  2  0
 24 19  1  0
 25 27  1  0
 26 25  2  0
M  END
$$$$
