YAL.pdb
     RDKit          3D

 26 26  0  0  1  0  0  0  0  0999 V2000
   14.3891  -21.0182   17.6580 O   0  0  0  0  0  0  0  0  0  0  0  0
   13.3242  -20.2521   18.1196 C   0  0  0  0  0  0  0  0  0  0  0  0
   12.0464  -20.6373   17.7819 C   0  0  0  0  0  0  0  0  0  0  0  0
   10.9926  -19.8605   18.2515 C   0  0  0  0  0  0  0  0  0  0  0  0
   11.2023  -18.7439   19.0268 C   0  0  0  0  0  0  0  0  0  0  0  0
   10.0623  -17.9357   19.5130 C   0  0  0  0  0  0  0  0  0  0  0  0
   10.2108  -17.6636   20.9771 C   0  0  2  0  0  0  0  0  0  0  0  0
   10.4299  -18.8825   21.7410 N   0  0  0  0  0  0  0  0  0  0  0  0
    8.9732  -17.0168   21.4563 C   0  0  0  0  0  0  0  0  0  0  0  0
    8.5138  -16.0342   20.8402 O   0  0  0  0  0  0  0  0  0  0  0  0
   12.4982  -18.3989   19.3380 C   0  0  0  0  0  0  0  0  0  0  0  0
   13.5819  -19.1455   18.8909 C   0  0  0  0  0  0  0  0  0  0  0  0
    5.9509  -17.8834   23.1813 C   0  0  0  0  0  0  0  0  0  0  0  0
    7.0821  -16.8891   23.0504 C   0  0  2  0  0  0  0  0  0  0  0  0
    8.2965  -17.4837   22.5960 N   0  0  0  0  0  0  0  0  0  0  0  0
    7.2908  -16.1304   24.3023 C   0  0  0  0  0  0  0  0  0  0  0  0
    6.3455  -15.4602   24.7642 O   0  0  0  0  0  0  0  0  0  0  0  0
    7.6420  -12.5133   27.5150 C   0  0  0  0  0  0  0  0  0  0  0  0
    7.1404  -13.3812   26.3511 C   0  0  2  0  0  0  0  0  0  0  0  0
    5.6389  -13.2114   26.2802 C   0  0  0  0  0  0  0  0  0  0  0  0
    7.5127  -14.7863   26.6796 C   0  0  0  0  0  0  0  0  0  0  0  0
    8.8246  -15.2345   26.1005 C   0  0  2  0  0  0  0  0  0  0  0  0
    8.5376  -16.1490   24.9855 N   0  0  0  0  0  0  0  0  0  0  0  0
    9.6891  -15.9144   27.0618 C   0  0  0  0  0  0  0  0  0  0  0  0
   10.4494  -15.2151   28.0063 O   0  0  0  0  0  0  0  0  0  0  0  0
    9.7860  -17.1677   27.0797 O   0  0  0  0  0  0  0  0  0  0  0  0
  1  2  1  0
  2  3  2  0
  4  3  1  0
  5  4  2  0
  6  5  1  0
  7  9  1  0
  7  6  1  0
  7  8  1  1
  9 15  1  0
 10  9  2  0
 11 12  2  0
 11  5  1  0
 12  2  1  0
 14 13  1  1
 15 14  1  0
 16 23  1  0
 16 14  1  0
 17 16  2  0
 19 18  1  1
 19 21  1  0
 20 19  1  0
 22 21  1  1
 22 24  1  0
 22 23  1  0
 24 25  1  0
 26 24  2  0
M  END
$$$$
