YAL.pdb
     RDKit          3D

 26 26  0  0  1  0  0  0  0  0999 V2000
    7.2965  -22.5231   28.8646 O   0  0  0  0  0  0  0  0  0  0  0  0
    7.4110  -21.4971   27.9329 C   0  0  0  0  0  0  0  0  0  0  0  0
    8.5299  -20.6961   27.9758 C   0  0  0  0  0  0  0  0  0  0  0  0
    8.6291  -19.6747   27.0371 C   0  0  0  0  0  0  0  0  0  0  0  0
    7.6528  -19.4587   26.0925 C   0  0  0  0  0  0  0  0  0  0  0  0
    7.7843  -18.3644   25.1054 C   0  0  0  0  0  0  0  0  0  0  0  0
    7.8762  -18.9268   23.7217 C   0  0  2  0  0  0  0  0  0  0  0  0
    8.8943  -19.9611   23.6176 N   0  0  0  0  0  0  0  0  0  0  0  0
    8.2166  -17.8280   22.7963 C   0  0  0  0  0  0  0  0  0  0  0  0
    9.4140  -17.5459   22.5895 O   0  0  0  0  0  0  0  0  0  0  0  0
    6.5525  -20.2860   26.0896 C   0  0  0  0  0  0  0  0  0  0  0  0
    6.4111  -21.3192   27.0084 C   0  0  0  0  0  0  0  0  0  0  0  0
    6.2354  -15.1512   21.0053 C   0  0  0  0  0  0  0  0  0  0  0  0
    7.4595  -15.7752   21.6358 C   0  0  2  0  0  0  0  0  0  0  0  0
    7.2189  -17.0881   22.1390 N   0  0  0  0  0  0  0  0  0  0  0  0
    8.0456  -14.9008   22.6742 C   0  0  0  0  0  0  0  0  0  0  0  0
    9.1088  -14.2984   22.4232 O   0  0  0  0  0  0  0  0  0  0  0  0
    5.9718  -11.8527   27.5162 C   0  0  0  0  0  0  0  0  0  0  0  0
    7.2613  -12.2784   26.7983 C   0  0  2  0  0  0  0  0  0  0  0  0
    7.9081  -11.0227   26.2568 C   0  0  0  0  0  0  0  0  0  0  0  0
    6.8503  -13.1951   25.6977 C   0  0  0  0  0  0  0  0  0  0  0  0
    7.9924  -13.8468   24.9709 C   0  0  2  0  0  0  0  0  0  0  0  0
    7.4270  -14.7336   23.9434 N   0  0  0  0  0  0  0  0  0  0  0  0
    8.8724  -14.6258   25.8384 C   0  0  0  0  0  0  0  0  0  0  0  0
   10.0971  -14.1284   26.2989 O   0  0  0  0  0  0  0  0  0  0  0  0
    8.5621  -15.7860   26.2101 O   0  0  0  0  0  0  0  0  0  0  0  0
  1  2  1  0
  2  3  2  0
  4  3  1  0
  5  4  2  0
  6  5  1  0
  7  9  1  0
  7  6  1  0
  7  8  1  1
  9 15  1  0
 10  9  2  0
 11 12  2  0
 11  5  1  0
 12  2  1  0
 14 13  1  1
 15 14  1  0
 16 23  1  0
 16 14  1  0
 17 16  2  0
 19 18  1  6
 19 21  1  0
 20 19  1  0
 22 21  1  1
 22 24  1  0
 22 23  1  0
 24 25  1  0
 26 24  2  0
M  END
$$$$
