YAL.pdb
     RDKit          3D

 26 26  0  0  1  0  0  0  0  0999 V2000
    8.2320  -12.4116   17.0631 O   0  0  0  0  0  0  0  0  0  0  0  0
    7.9923  -13.1169   18.2374 C   0  0  0  0  0  0  0  0  0  0  0  0
    7.2672  -14.2848   18.1628 C   0  0  0  0  0  0  0  0  0  0  0  0
    7.0362  -14.9781   19.3462 C   0  0  0  0  0  0  0  0  0  0  0  0
    7.5085  -14.5268   20.5567 C   0  0  0  0  0  0  0  0  0  0  0  0
    7.2482  -15.2848   21.8003 C   0  0  0  0  0  0  0  0  0  0  0  0
    8.3157  -16.3122   22.0107 C   0  0  2  0  0  0  0  0  0  0  0  0
    8.3694  -17.2767   20.9225 N   0  0  0  0  0  0  0  0  0  0  0  0
    8.0281  -17.0288   23.2690 C   0  0  0  0  0  0  0  0  0  0  0  0
    7.1637  -17.9280   23.2816 O   0  0  0  0  0  0  0  0  0  0  0  0
    8.2285  -13.3537   20.5804 C   0  0  0  0  0  0  0  0  0  0  0  0
    8.4836  -12.6278   19.4230 C   0  0  0  0  0  0  0  0  0  0  0  0
   10.1002  -18.7356   24.5402 C   0  0  0  0  0  0  0  0  0  0  0  0
    9.2598  -17.7337   25.2987 C   0  0  2  0  0  0  0  0  0  0  0  0
    8.7082  -16.7207   24.4595 N   0  0  0  0  0  0  0  0  0  0  0  0
   10.0022  -17.1455   26.4342 C   0  0  0  0  0  0  0  0  0  0  0  0
   10.5307  -17.9089   27.2673 O   0  0  0  0  0  0  0  0  0  0  0  0
    9.4854  -13.0045   26.0427 C   0  0  0  0  0  0  0  0  0  0  0  0
    8.6968  -13.6660   27.1827 C   0  0  2  0  0  0  0  0  0  0  0  0
    7.7073  -12.6432   27.6956 C   0  0  0  0  0  0  0  0  0  0  0  0
    9.6922  -14.0308   28.2301 C   0  0  0  0  0  0  0  0  0  0  0  0
   10.6269  -15.1408   27.8411 C   0  0  2  0  0  0  0  0  0  0  0  0
   10.1252  -15.7382   26.5948 N   0  0  0  0  0  0  0  0  0  0  0  0
   10.7496  -16.1869   28.8533 C   0  0  0  0  0  0  0  0  0  0  0  0
    9.8586  -17.2640   28.9248 O   0  0  0  0  0  0  0  0  0  0  0  0
   11.6698  -16.1616   29.7096 O   0  0  0  0  0  0  0  0  0  0  0  0
  1  2  1  0
  2  3  2  0
  4  3  1  0
  5  4  2  0
  6  5  1  0
  7  9  1  0
  7  6  1  0
  7  8  1  6
  9 15  1  0
 10  9  2  0
 11 12  2  0
 11  5  1  0
 12  2  1  0
 14 13  1  6
 15 14  1  0
 16 23  1  0
 16 14  1  0
 17 16  2  0
 19 18  1  6
 19 21  1  0
 20 19  1  0
 22 21  1  1
 22 24  1  0
 22 23  1  0
 24 25  1  0
 26 24  2  0
M  END
$$$$
