YAL.pdb
     RDKit          3D

 26 26  0  0  1  0  0  0  0  0999 V2000
    7.9008  -13.7085   14.8677 O   0  0  0  0  0  0  0  0  0  0  0  0
    7.7784  -13.9612   16.2297 C   0  0  0  0  0  0  0  0  0  0  0  0
    8.2297  -13.0084   17.1150 C   0  0  0  0  0  0  0  0  0  0  0  0
    8.1000  -13.2765   18.4736 C   0  0  0  0  0  0  0  0  0  0  0  0
    7.5429  -14.4471   18.9332 C   0  0  0  0  0  0  0  0  0  0  0  0
    7.4171  -14.7062   20.3845 C   0  0  0  0  0  0  0  0  0  0  0  0
    8.7642  -14.9730   20.9791 C   0  0  2  0  0  0  0  0  0  0  0  0
    9.4925  -15.9981   20.2470 N   0  0  0  0  0  0  0  0  0  0  0  0
    8.5750  -15.4253   22.3716 C   0  0  0  0  0  0  0  0  0  0  0  0
    7.8217  -14.7830   23.1306 O   0  0  0  0  0  0  0  0  0  0  0  0
    7.1062  -15.3693   18.0092 C   0  0  0  0  0  0  0  0  0  0  0  0
    7.2155  -15.1441   16.6421 C   0  0  0  0  0  0  0  0  0  0  0  0
    9.5987  -18.4008   24.4491 C   0  0  0  0  0  0  0  0  0  0  0  0
    9.0686  -17.0047   24.2145 C   0  0  2  0  0  0  0  0  0  0  0  0
    9.2267  -16.5682   22.8656 N   0  0  0  0  0  0  0  0  0  0  0  0
    9.6489  -16.0324   25.1654 C   0  0  0  0  0  0  0  0  0  0  0  0
   10.8326  -15.6711   25.0087 O   0  0  0  0  0  0  0  0  0  0  0  0
    7.5187  -12.8651   25.1162 C   0  0  0  0  0  0  0  0  0  0  0  0
    7.3688  -13.4048   26.5465 C   0  0  2  0  0  0  0  0  0  0  0  0
    6.3549  -12.5310   27.2512 C   0  0  0  0  0  0  0  0  0  0  0  0
    8.7123  -13.2981   27.1823 C   0  0  0  0  0  0  0  0  0  0  0  0
    9.4817  -14.5875   27.2325 C   0  0  2  0  0  0  0  0  0  0  0  0
    8.8913  -15.5048   26.2466 N   0  0  0  0  0  0  0  0  0  0  0  0
    9.4684  -15.2286   28.5450 C   0  0  0  0  0  0  0  0  0  0  0  0
   10.0958  -14.6597   29.6595 O   0  0  0  0  0  0  0  0  0  0  0  0
    8.8871  -16.3281   28.7283 O   0  0  0  0  0  0  0  0  0  0  0  0
  1  2  1  0
  2  3  2  0
  4  3  1  0
  5  4  2  0
  6  5  1  0
  7  9  1  0
  7  6  1  0
  7  8  1  6
  9 15  1  0
 10  9  2  0
 11 12  2  0
 11  5  1  0
 12  2  1  0
 14 13  1  6
 15 14  1  0
 16 23  1  0
 16 14  1  0
 17 16  2  0
 19 18  1  6
 19 21  1  0
 20 19  1  0
 22 21  1  1
 22 24  1  0
 22 23  1  0
 24 25  1  0
 26 24  2  0
M  END
$$$$
