YAL.pdb
     RDKit          3D

 26 26  0  0  1  0  0  0  0  0999 V2000
    7.6543  -12.4882   16.6593 O   0  0  0  0  0  0  0  0  0  0  0  0
    7.7659  -13.1204   17.8930 C   0  0  0  0  0  0  0  0  0  0  0  0
    6.6119  -13.4224   18.5801 C   0  0  0  0  0  0  0  0  0  0  0  0
    6.7408  -14.0545   19.8123 C   0  0  0  0  0  0  0  0  0  0  0  0
    7.9703  -14.3737   20.3400 C   0  0  0  0  0  0  0  0  0  0  0  0
    8.0781  -15.0465   21.6533 C   0  0  0  0  0  0  0  0  0  0  0  0
    8.3728  -16.5015   21.4643 C   0  0  2  0  0  0  0  0  0  0  0  0
    7.2095  -17.2394   20.9958 N   0  0  0  0  0  0  0  0  0  0  0  0
    8.8008  -17.0603   22.7620 C   0  0  0  0  0  0  0  0  0  0  0  0
    7.9590  -17.6003   23.5075 O   0  0  0  0  0  0  0  0  0  0  0  0
    9.0955  -14.0514   19.6153 C   0  0  0  0  0  0  0  0  0  0  0  0
    9.0146  -13.4196   18.3800 C   0  0  0  0  0  0  0  0  0  0  0  0
   12.0142  -17.9629   24.4311 C   0  0  0  0  0  0  0  0  0  0  0  0
   10.5666  -17.5271   24.4347 C   0  0  2  0  0  0  0  0  0  0  0  0
   10.1411  -16.9981   23.1802 N   0  0  0  0  0  0  0  0  0  0  0  0
   10.2816  -16.5861   25.5391 C   0  0  0  0  0  0  0  0  0  0  0  0
   10.5128  -16.9463   26.7109 O   0  0  0  0  0  0  0  0  0  0  0  0
    6.1264  -12.3522   26.4805 C   0  0  0  0  0  0  0  0  0  0  0  0
    7.4467  -12.8866   27.0555 C   0  0  2  0  0  0  0  0  0  0  0  0
    8.3146  -11.6890   27.3727 C   0  0  0  0  0  0  0  0  0  0  0  0
    8.0587  -13.7342   25.9935 C   0  0  0  0  0  0  0  0  0  0  0  0
    9.3462  -14.3982   26.3916 C   0  0  2  0  0  0  0  0  0  0  0  0
    9.7534  -15.2889   25.2949 N   0  0  0  0  0  0  0  0  0  0  0  0
    9.2491  -15.1763   27.6240 C   0  0  0  0  0  0  0  0  0  0  0  0
    8.4015  -16.2840   27.7422 O   0  0  0  0  0  0  0  0  0  0  0  0
    9.9298  -14.8795   28.6385 O   0  0  0  0  0  0  0  0  0  0  0  0
  1  2  1  0
  2  3  2  0
  4  3  1  0
  5  4  2  0
  6  5  1  0
  7  9  1  0
  7  6  1  0
  7  8  1  1
  9 15  1  0
 10  9  2  0
 11 12  2  0
 11  5  1  0
 12  2  1  0
 14 13  1  6
 15 14  1  0
 16 23  1  0
 16 14  1  0
 17 16  2  0
 19 18  1  6
 19 21  1  0
 20 19  1  0
 22 21  1  6
 22 24  1  0
 22 23  1  0
 24 25  1  0
 26 24  2  0
M  END
$$$$
