YAL.pdb
     RDKit          3D

 26 26  0  0  1  0  0  0  0  0999 V2000
    7.5059  -14.9264   15.4835 O   0  0  0  0  0  0  0  0  0  0  0  0
    7.8010  -14.6365   16.8112 C   0  0  0  0  0  0  0  0  0  0  0  0
    7.4863  -13.3860   17.2934 C   0  0  0  0  0  0  0  0  0  0  0  0
    7.7879  -13.1120   18.6232 C   0  0  0  0  0  0  0  0  0  0  0  0
    8.3796  -14.0461   19.4413 C   0  0  0  0  0  0  0  0  0  0  0  0
    8.6892  -13.7276   20.8526 C   0  0  0  0  0  0  0  0  0  0  0  0
    8.6706  -14.9754   21.6785 C   0  0  2  0  0  0  0  0  0  0  0  0
    7.4078  -15.6892   21.5637 N   0  0  0  0  0  0  0  0  0  0  0  0
    8.8790  -14.5997   23.0910 C   0  0  0  0  0  0  0  0  0  0  0  0
    9.9315  -14.0192   23.4247 O   0  0  0  0  0  0  0  0  0  0  0  0
    8.6753  -15.2826   18.9134 C   0  0  0  0  0  0  0  0  0  0  0  0
    8.3920  -15.6006   17.5905 C   0  0  0  0  0  0  0  0  0  0  0  0
    6.8950  -13.9869   26.1144 C   0  0  0  0  0  0  0  0  0  0  0  0
    8.1232  -14.5654   25.4493 C   0  0  2  0  0  0  0  0  0  0  0  0
    7.9151  -14.8816   24.0740 N   0  0  0  0  0  0  0  0  0  0  0  0
    8.6519  -15.7283   26.1940 C   0  0  0  0  0  0  0  0  0  0  0  0
    8.8714  -15.6104   27.4164 O   0  0  0  0  0  0  0  0  0  0  0  0
    6.7675  -19.1831   27.1869 C   0  0  0  0  0  0  0  0  0  0  0  0
    7.2926  -19.2053   25.7435 C   0  0  2  0  0  0  0  0  0  0  0  0
    6.6624  -20.3961   25.0557 C   0  0  0  0  0  0  0  0  0  0  0  0
    8.7729  -19.3515   25.8337 C   0  0  0  0  0  0  0  0  0  0  0  0
    9.4956  -18.1095   26.2725 C   0  0  2  0  0  0  0  0  0  0  0  0
    8.9132  -16.9688   25.5504 N   0  0  0  0  0  0  0  0  0  0  0  0
   10.9339  -18.1470   26.0201 C   0  0  0  0  0  0  0  0  0  0  0  0
   11.7713  -19.0977   26.6152 O   0  0  0  0  0  0  0  0  0  0  0  0
   11.4831  -17.3185   25.2503 O   0  0  0  0  0  0  0  0  0  0  0  0
  1  2  1  0
  2  3  2  0
  4  3  1  0
  5  4  2  0
  6  5  1  0
  7  9  1  0
  7  6  1  0
  7  8  1  1
  9 15  1  0
 10  9  2  0
 11 12  2  0
 11  5  1  0
 12  2  1  0
 14 13  1  1
 15 14  1  0
 16 23  1  0
 16 14  1  0
 17 16  2  0
 19 18  1  1
 19 21  1  0
 20 19  1  0
 22 21  1  6
 22 24  1  0
 22 23  1  0
 24 25  1  0
 26 24  2  0
M  END
$$$$
