YAL.pdb
     RDKit          3D

 26 26  0  0  1  0  0  0  0  0999 V2000
    7.8919  -13.3027   15.1176 O   0  0  0  0  0  0  0  0  0  0  0  0
    7.8875  -13.6751   16.4575 C   0  0  0  0  0  0  0  0  0  0  0  0
    8.7790  -14.6389   16.8716 C   0  0  0  0  0  0  0  0  0  0  0  0
    8.7618  -15.0000   18.2146 C   0  0  0  0  0  0  0  0  0  0  0  0
    7.8913  -14.4243   19.1106 C   0  0  0  0  0  0  0  0  0  0  0  0
    7.8949  -14.8274   20.5342 C   0  0  0  0  0  0  0  0  0  0  0  0
    7.6853  -16.3044   20.6522 C   0  0  2  0  0  0  0  0  0  0  0  0
    6.3333  -16.6967   20.2841 N   0  0  0  0  0  0  0  0  0  0  0  0
    7.9305  -16.6971   22.0540 C   0  0  0  0  0  0  0  0  0  0  0  0
    7.0519  -16.4884   22.9145 O   0  0  0  0  0  0  0  0  0  0  0  0
    7.0186  -13.4650   18.6489 C   0  0  0  0  0  0  0  0  0  0  0  0
    7.0003  -13.0729   17.3156 C   0  0  0  0  0  0  0  0  0  0  0  0
   10.5050  -18.6767   23.9434 C   0  0  0  0  0  0  0  0  0  0  0  0
    9.4020  -17.6525   23.8021 C   0  0  2  0  0  0  0  0  0  0  0  0
    9.1366  -17.3035   22.4447 N   0  0  0  0  0  0  0  0  0  0  0  0
    9.6623  -16.4517   24.6247 C   0  0  0  0  0  0  0  0  0  0  0  0
   10.7159  -15.8107   24.4368 O   0  0  0  0  0  0  0  0  0  0  0  0
    6.7051  -12.0042   27.3345 C   0  0  0  0  0  0  0  0  0  0  0  0
    8.0347  -12.7706   27.3995 C   0  0  2  0  0  0  0  0  0  0  0  0
    9.1160  -11.8347   26.9067 C   0  0  0  0  0  0  0  0  0  0  0  0
    7.8875  -13.9506   26.5014 C   0  0  0  0  0  0  0  0  0  0  0  0
    9.0522  -14.8994   26.5239 C   0  0  2  0  0  0  0  0  0  0  0  0
    8.7433  -16.0158   25.6181 N   0  0  0  0  0  0  0  0  0  0  0  0
    9.3494  -15.4330   27.8508 C   0  0  0  0  0  0  0  0  0  0  0  0
   10.3977  -14.9390   28.6359 O   0  0  0  0  0  0  0  0  0  0  0  0
    8.6688  -16.3668   28.3461 O   0  0  0  0  0  0  0  0  0  0  0  0
  1  2  1  0
  2  3  2  0
  4  3  1  0
  5  4  2  0
  6  5  1  0
  7  9  1  0
  7  6  1  0
  7  8  1  1
  9 15  1  0
 10  9  2  0
 11 12  2  0
 11  5  1  0
 12  2  1  0
 14 13  1  6
 15 14  1  0
 16 23  1  0
 16 14  1  0
 17 16  2  0
 19 18  1  6
 19 21  1  0
 20 19  1  0
 22 21  1  1
 22 24  1  0
 22 23  1  0
 24 25  1  0
 26 24  2  0
M  END
$$$$
