YAL.pdb
     RDKit          3D

 26 26  0  0  1  0  0  0  0  0999 V2000
    8.4205  -12.3928   17.3263 O   0  0  0  0  0  0  0  0  0  0  0  0
    8.0886  -13.0022   18.5314 C   0  0  0  0  0  0  0  0  0  0  0  0
    6.8107  -13.4900   18.6878 C   0  0  0  0  0  0  0  0  0  0  0  0
    6.4949  -14.0966   19.8988 C   0  0  0  0  0  0  0  0  0  0  0  0
    7.4149  -14.2132   20.9147 C   0  0  0  0  0  0  0  0  0  0  0  0
    7.0517  -14.8636   22.1931 C   0  0  0  0  0  0  0  0  0  0  0  0
    7.3831  -16.3220   22.1417 C   0  0  2  0  0  0  0  0  0  0  0  0
    6.4132  -17.0768   21.3627 N   0  0  0  0  0  0  0  0  0  0  0  0
    7.3950  -16.8437   23.5227 C   0  0  0  0  0  0  0  0  0  0  0  0
    6.3525  -17.3286   24.0066 O   0  0  0  0  0  0  0  0  0  0  0  0
    8.6799  -13.7100   20.7110 C   0  0  0  0  0  0  0  0  0  0  0  0
    9.0401  -13.0960   19.5173 C   0  0  0  0  0  0  0  0  0  0  0  0
   10.3152  -18.3356   25.0729 C   0  0  0  0  0  0  0  0  0  0  0  0
    8.8893  -17.8552   25.2192 C   0  0  2  0  0  0  0  0  0  0  0  0
    8.5587  -16.8071   24.3098 N   0  0  0  0  0  0  0  0  0  0  0  0
    8.5813  -17.4733   26.6141 C   0  0  0  0  0  0  0  0  0  0  0  0
    8.3956  -18.3739   27.4571 O   0  0  0  0  0  0  0  0  0  0  0  0
    6.9532  -12.3802   26.0255 C   0  0  0  0  0  0  0  0  0  0  0  0
    7.6839  -13.4225   26.8853 C   0  0  2  0  0  0  0  0  0  0  0  0
    8.1734  -12.7140   28.1289 C   0  0  0  0  0  0  0  0  0  0  0  0
    8.8212  -13.9262   26.0646 C   0  0  0  0  0  0  0  0  0  0  0  0
    9.5195  -15.1264   26.6382 C   0  0  2  0  0  0  0  0  0  0  0  0
    8.4931  -16.1110   27.0113 N   0  0  0  0  0  0  0  0  0  0  0  0
   10.3371  -14.8254   27.8106 C   0  0  0  0  0  0  0  0  0  0  0  0
   10.1229  -15.4433   29.0482 O   0  0  0  0  0  0  0  0  0  0  0  0
   11.2757  -13.9908   27.7548 O   0  0  0  0  0  0  0  0  0  0  0  0
  1  2  1  0
  2  3  2  0
  4  3  1  0
  5  4  2  0
  6  5  1  0
  7  9  1  0
  7  6  1  0
  7  8  1  6
  9 15  1  0
 10  9  2  0
 11 12  2  0
 11  5  1  0
 12  2  1  0
 14 13  1  1
 15 14  1  0
 16 23  1  0
 16 14  1  0
 17 16  2  0
 19 18  1  6
 19 21  1  0
 20 19  1  0
 22 21  1  1
 22 24  1  0
 22 23  1  0
 24 25  1  0
 26 24  2  0
M  END
$$$$
