YAL.pdb
     RDKit          3D

 26 26  0  0  1  0  0  0  0  0999 V2000
    7.9969  -12.5603   16.9360 O   0  0  0  0  0  0  0  0  0  0  0  0
    7.9713  -13.1086   18.2138 C   0  0  0  0  0  0  0  0  0  0  0  0
    7.8995  -14.4779   18.3368 C   0  0  0  0  0  0  0  0  0  0  0  0
    7.8747  -15.0102   19.6215 C   0  0  0  0  0  0  0  0  0  0  0  0
    7.9197  -14.2111   20.7401 C   0  0  0  0  0  0  0  0  0  0  0  0
    7.8922  -14.8044   22.0952 C   0  0  0  0  0  0  0  0  0  0  0  0
    7.6681  -16.2813   22.0067 C   0  0  2  0  0  0  0  0  0  0  0  0
    6.2575  -16.6142   21.8768 N   0  0  0  0  0  0  0  0  0  0  0  0
    8.1936  -16.9047   23.2374 C   0  0  0  0  0  0  0  0  0  0  0  0
    7.5146  -16.8703   24.2833 O   0  0  0  0  0  0  0  0  0  0  0  0
    7.9912  -12.8474   20.5659 C   0  0  0  0  0  0  0  0  0  0  0  0
    8.0183  -12.2714   19.3014 C   0  0  0  0  0  0  0  0  0  0  0  0
   10.9272  -19.2940   24.1170 C   0  0  0  0  0  0  0  0  0  0  0  0
    9.9462  -18.1867   24.4286 C   0  0  2  0  0  0  0  0  0  0  0  0
    9.4472  -17.5394   23.2595 N   0  0  0  0  0  0  0  0  0  0  0  0
   10.5099  -17.2097   25.3846 C   0  0  0  0  0  0  0  0  0  0  0  0
   11.4301  -16.4582   25.0043 O   0  0  0  0  0  0  0  0  0  0  0  0
    9.0670  -13.0408   28.3670 C   0  0  0  0  0  0  0  0  0  0  0  0
    9.9129  -14.0398   27.5635 C   0  0  2  0  0  0  0  0  0  0  0  0
    9.2633  -14.1865   26.2053 C   0  0  0  0  0  0  0  0  0  0  0  0
    9.8846  -15.3233   28.3201 C   0  0  0  0  0  0  0  0  0  0  0  0
   10.7777  -16.3949   27.7622 C   0  0  2  0  0  0  0  0  0  0  0  0
   10.0283  -17.1099   26.7186 N   0  0  0  0  0  0  0  0  0  0  0  0
   11.2355  -17.3569   28.7616 C   0  0  0  0  0  0  0  0  0  0  0  0
   10.8056  -18.6890   28.7667 O   0  0  0  0  0  0  0  0  0  0  0  0
   12.0423  -17.0239   29.6664 O   0  0  0  0  0  0  0  0  0  0  0  0
  1  2  1  0
  2  3  2  0
  4  3  1  0
  5  4  2  0
  6  5  1  0
  7  9  1  0
  7  6  1  0
  7  8  1  1
  9 15  1  0
 10  9  2  0
 11 12  2  0
 11  5  1  0
 12  2  1  0
 14 13  1  6
 15 14  1  0
 16 23  1  0
 16 14  1  0
 17 16  2  0
 19 18  1  1
 19 21  1  0
 20 19  1  0
 22 21  1  1
 22 24  1  0
 22 23  1  0
 24 25  1  0
 26 24  2  0
M  END
$$$$
