IIF.pdb
     RDKit          3D

 28 28  0  0  1  0  0  0  0  0999 V2000
    8.3586  -18.0231   16.5682 C   0  0  0  0  0  0  0  0  0  0  0  0
    8.2195  -17.8317   18.0661 C   0  0  0  0  0  0  0  0  0  0  0  0
    9.1844  -18.7895   18.7334 C   0  0  2  0  0  0  0  0  0  0  0  0
    8.8996  -20.1707   18.2398 C   0  0  0  0  0  0  0  0  0  0  0  0
    9.0122  -18.6314   20.2221 C   0  0  2  0  0  0  0  0  0  0  0  0
    7.6086  -18.7895   20.5192 N   0  0  0  0  0  0  0  0  0  0  0  0
    9.4602  -17.2824   20.6860 C   0  0  0  0  0  0  0  0  0  0  0  0
   10.6388  -16.8870   20.4651 O   0  0  0  0  0  0  0  0  0  0  0  0
    6.6334  -13.0644   19.6221 C   0  0  0  0  0  0  0  0  0  0  0  0
    7.8495  -13.9477   19.9843 C   0  0  0  0  0  0  0  0  0  0  0  0
    7.9107  -14.1764   21.4587 C   0  0  2  0  0  0  0  0  0  0  0  0
    7.8461  -12.8651   22.2318 C   0  0  0  0  0  0  0  0  0  0  0  0
    8.8674  -15.1654   21.9731 C   0  0  2  0  0  0  0  0  0  0  0  0
    8.5419  -16.4686   21.3708 N   0  0  0  0  0  0  0  0  0  0  0  0
    9.1795  -15.2659   23.3748 C   0  0  0  0  0  0  0  0  0  0  0  0
   10.1214  -14.5876   23.8689 O   0  0  0  0  0  0  0  0  0  0  0  0
    8.4738  -16.1008   24.2742 N   0  0  0  0  0  0  0  0  0  0  0  0
    8.8298  -16.1619   25.7036 C   0  0  1  0  0  0  0  0  0  0  0  0
    7.5689  -15.7840   26.4551 C   0  0  0  0  0  0  0  0  0  0  0  0
    7.3366  -14.3184   26.4780 C   0  0  0  0  0  0  0  0  0  0  0  0
    8.3263  -13.4328   26.8841 C   0  0  0  0  0  0  0  0  0  0  0  0
    8.1406  -12.0664   26.9114 C   0  0  0  0  0  0  0  0  0  0  0  0
    6.9086  -11.5933   26.5124 C   0  0  0  0  0  0  0  0  0  0  0  0
    5.9252  -12.4445   26.1108 C   0  0  0  0  0  0  0  0  0  0  0  0
    6.1138  -13.8235   26.0836 C   0  0  0  0  0  0  0  0  0  0  0  0
    9.3130  -17.5230   26.0377 C   0  0  0  0  0  0  0  0  0  0  0  0
    9.6664  -17.8317   27.1967 O   0  0  0  0  0  0  0  0  0  0  0  0
    9.3898  -18.5100   25.0638 O   0  0  0  0  0  0  0  0  0  0  0  0
  2  1  1  0
  3  2  1  0
  3  4  1  6
  5  3  1  0
  5  6  1  6
  7  5  1  0
  8  7  2  0
 10 11  1  0
 10  9  1  0
 11 13  1  0
 11 12  1  1
 13 14  1  1
 14  7  1  0
 15 13  1  0
 15 16  2  0
 17 18  1  0
 17 15  1  0
 18 19  1  1
 19 20  1  0
 20 25  2  0
 21 22  2  0
 21 20  1  0
 22 23  1  0
 23 24  2  0
 25 24  1  0
 26 18  1  0
 27 26  2  0
 28 26  1  0
M  END
$$$$
