IIF.pdb
     RDKit          3D

 28 28  0  0  1  0  0  0  0  0999 V2000
    7.8638  -12.3737   18.7452 C   0  0  0  0  0  0  0  0  0  0  0  0
    7.7804  -13.8876   18.7728 C   0  0  0  0  0  0  0  0  0  0  0  0
    7.4347  -14.2932   20.1904 C   0  0  2  0  0  0  0  0  0  0  0  0
    8.4931  -13.7687   21.1055 C   0  0  0  0  0  0  0  0  0  0  0  0
    7.3101  -15.7948   20.2072 C   0  0  2  0  0  0  0  0  0  0  0  0
    6.3184  -16.1623   19.2249 N   0  0  0  0  0  0  0  0  0  0  0  0
    6.8772  -16.2944   21.5483 C   0  0  0  0  0  0  0  0  0  0  0  0
    5.8008  -15.8873   22.0676 O   0  0  0  0  0  0  0  0  0  0  0  0
    5.5858  -20.8689   22.9241 C   0  0  0  0  0  0  0  0  0  0  0  0
    5.8736  -19.3528   22.8306 C   0  0  0  0  0  0  0  0  0  0  0  0
    7.0515  -18.9898   23.6737 C   0  0  2  0  0  0  0  0  0  0  0  0
    6.9549  -19.6040   25.0646 C   0  0  0  0  0  0  0  0  0  0  0  0
    7.5436  -17.6064   23.6277 C   0  0  2  0  0  0  0  0  0  0  0  0
    7.6938  -17.2242   22.2141 N   0  0  0  0  0  0  0  0  0  0  0  0
    8.6452  -17.1625   24.4412 C   0  0  0  0  0  0  0  0  0  0  0  0
    9.8340  -17.3654   24.0710 O   0  0  0  0  0  0  0  0  0  0  0  0
    8.4830  -16.4838   25.6728 N   0  0  0  0  0  0  0  0  0  0  0  0
    9.6421  -16.1335   26.5138 C   0  0  1  0  0  0  0  0  0  0  0  0
    9.8264  -14.6377   26.3529 C   0  0  0  0  0  0  0  0  0  0  0  0
    8.6161  -13.8696   26.7373 C   0  0  0  0  0  0  0  0  0  0  0  0
    7.5319  -13.7456   25.8783 C   0  0  0  0  0  0  0  0  0  0  0  0
    6.3928  -13.0422   26.2099 C   0  0  0  0  0  0  0  0  0  0  0  0
    6.3622  -12.4496   27.4543 C   0  0  0  0  0  0  0  0  0  0  0  0
    7.4143  -12.5592   28.3111 C   0  0  0  0  0  0  0  0  0  0  0  0
    8.5635  -13.2694   27.9754 C   0  0  0  0  0  0  0  0  0  0  0  0
    9.3774  -16.5333   27.9166 C   0  0  0  0  0  0  0  0  0  0  0  0
    8.2677  -16.9836   28.2761 O   0  0  0  0  0  0  0  0  0  0  0  0
   10.3639  -16.4195   28.8874 O   0  0  0  0  0  0  0  0  0  0  0  0
  2  1  1  0
  3  2  1  0
  3  4  1  1
  5  3  1  0
  5  6  1  6
  7  5  1  0
  8  7  2  0
 10 11  1  0
 10  9  1  0
 11 13  1  0
 11 12  1  1
 13 14  1  6
 14  7  1  0
 15 13  1  0
 15 16  2  0
 17 18  1  0
 17 15  1  0
 18 19  1  1
 19 20  1  0
 20 25  2  0
 21 22  2  0
 21 20  1  0
 22 23  1  0
 23 24  2  0
 25 24  1  0
 26 18  1  0
 27 26  2  0
 28 26  1  0
M  END
$$$$
