IIF.pdb
     RDKit          3D

 28 28  0  0  1  0  0  0  0  0999 V2000
    7.9758  -12.0073   19.3131 C   0  0  0  0  0  0  0  0  0  0  0  0
    7.9216  -13.5212   19.2425 C   0  0  0  0  0  0  0  0  0  0  0  0
    7.7332  -14.0309   20.6562 C   0  0  2  0  0  0  0  0  0  0  0  0
    8.8190  -13.4658   21.5131 C   0  0  0  0  0  0  0  0  0  0  0  0
    7.7348  -15.5364   20.5917 C   0  0  2  0  0  0  0  0  0  0  0  0
    6.6968  -15.9359   19.6717 N   0  0  0  0  0  0  0  0  0  0  0  0
    7.4605  -16.1431   21.9304 C   0  0  0  0  0  0  0  0  0  0  0  0
    6.3978  -15.8672   22.5540 O   0  0  0  0  0  0  0  0  0  0  0  0
    7.9181  -21.2935   22.4076 C   0  0  0  0  0  0  0  0  0  0  0  0
    7.5701  -19.7921   22.5289 C   0  0  0  0  0  0  0  0  0  0  0  0
    8.4223  -19.1385   23.5664 C   0  0  2  0  0  0  0  0  0  0  0  0
    8.5089  -19.9819   24.8323 C   0  0  0  0  0  0  0  0  0  0  0  0
    8.2768  -17.6925   23.7805 C   0  0  2  0  0  0  0  0  0  0  0  0
    8.4097  -17.0242   22.4756 N   0  0  0  0  0  0  0  0  0  0  0  0
    8.9812  -17.0031   24.8297 C   0  0  0  0  0  0  0  0  0  0  0  0
   10.1554  -16.5824   24.6403 O   0  0  0  0  0  0  0  0  0  0  0  0
    8.4266  -16.7497   26.1072 N   0  0  0  0  0  0  0  0  0  0  0  0
    9.2128  -16.0939   27.1681 C   0  0  1  0  0  0  0  0  0  0  0  0
    8.2277  -15.2330   27.9336 C   0  0  0  0  0  0  0  0  0  0  0  0
    7.7390  -14.0802   27.1370 C   0  0  0  0  0  0  0  0  0  0  0  0
    6.4875  -14.0924   26.5348 C   0  0  0  0  0  0  0  0  0  0  0  0
    6.0053  -13.0344   25.7928 C   0  0  0  0  0  0  0  0  0  0  0  0
    6.8260  -11.9342   25.6633 C   0  0  0  0  0  0  0  0  0  0  0  0
    8.0559  -11.9023   26.2456 C   0  0  0  0  0  0  0  0  0  0  0  0
    8.5416  -12.9706   26.9944 C   0  0  0  0  0  0  0  0  0  0  0  0
    9.8583  -17.1236   28.0170 C   0  0  0  0  0  0  0  0  0  0  0  0
   10.7186  -16.8272   28.8747 O   0  0  0  0  0  0  0  0  0  0  0  0
    9.5251  -18.4654   27.8858 O   0  0  0  0  0  0  0  0  0  0  0  0
  2  1  1  0
  3  2  1  0
  3  4  1  1
  5  3  1  0
  5  6  1  6
  7  5  1  0
  8  7  2  0
 10 11  1  0
 10  9  1  0
 11 13  1  0
 11 12  1  1
 13 14  1  6
 14  7  1  0
 15 13  1  0
 15 16  2  0
 17 18  1  0
 17 15  1  0
 18 19  1  1
 19 20  1  0
 20 25  2  0
 21 22  2  0
 21 20  1  0
 22 23  1  0
 23 24  2  0
 25 24  1  0
 26 18  1  0
 27 26  2  0
 28 26  1  0
M  END
$$$$
