IIF.pdb
     RDKit          3D

 28 28  0  0  1  0  0  0  0  0999 V2000
   10.7436  -21.4377   19.0971 C   0  0  0  0  0  0  0  0  0  0  0  0
    9.6141  -20.4330   18.9771 C   0  0  0  0  0  0  0  0  0  0  0  0
    9.9510  -19.2672   19.8831 C   0  0  2  0  0  0  0  0  0  0  0  0
    9.4721  -19.5843   21.2625 C   0  0  0  0  0  0  0  0  0  0  0  0
    9.3109  -18.0397   19.2877 C   0  0  2  0  0  0  0  0  0  0  0  0
    9.8880  -17.8361   17.9804 N   0  0  0  0  0  0  0  0  0  0  0  0
    9.5629  -16.8279   20.1265 C   0  0  0  0  0  0  0  0  0  0  0  0
   10.7206  -16.3299   20.2026 O   0  0  0  0  0  0  0  0  0  0  0  0
    7.2894  -12.3752   19.3929 C   0  0  0  0  0  0  0  0  0  0  0  0
    8.1921  -13.5570   19.8156 C   0  0  0  0  0  0  0  0  0  0  0  0
    7.8679  -13.9930   21.2066 C   0  0  2  0  0  0  0  0  0  0  0  0
    7.6957  -12.8019   22.1408 C   0  0  0  0  0  0  0  0  0  0  0  0
    8.6004  -15.1353   21.7692 C   0  0  2  0  0  0  0  0  0  0  0  0
    8.4846  -16.2590   20.8253 N   0  0  0  0  0  0  0  0  0  0  0  0
    8.4370  -15.5446   23.1397 C   0  0  0  0  0  0  0  0  0  0  0  0
    7.3823  -16.1298   23.5092 O   0  0  0  0  0  0  0  0  0  0  0  0
    9.4160  -15.3330   24.1400 N   0  0  0  0  0  0  0  0  0  0  0  0
    9.1449  -15.6426   25.5558 C   0  0  1  0  0  0  0  0  0  0  0  0
    7.6441  -15.5117   25.7225 C   0  0  0  0  0  0  0  0  0  0  0  0
    7.2338  -14.1485   26.1420 C   0  0  0  0  0  0  0  0  0  0  0  0
    5.8974  -13.7732   26.1832 C   0  0  0  0  0  0  0  0  0  0  0  0
    5.4864  -12.5156   26.5729 C   0  0  0  0  0  0  0  0  0  0  0  0
    6.4697  -11.6177   26.9302 C   0  0  0  0  0  0  0  0  0  0  0  0
    7.7852  -11.9658   26.8968 C   0  0  0  0  0  0  0  0  0  0  0  0
    8.1989  -13.2354   26.5033 C   0  0  0  0  0  0  0  0  0  0  0  0
    9.6428  -17.0028   25.8713 C   0  0  0  0  0  0  0  0  0  0  0  0
    9.6269  -17.4576   27.0359 O   0  0  0  0  0  0  0  0  0  0  0  0
   10.1485  -17.8250   24.8729 O   0  0  0  0  0  0  0  0  0  0  0  0
  2  1  1  0
  3  2  1  0
  3  4  1  1
  5  3  1  0
  5  6  1  6
  7  5  1  0
  8  7  2  0
 10 11  1  0
 10  9  1  0
 11 13  1  0
 11 12  1  1
 13 14  1  6
 14  7  1  0
 15 13  1  0
 15 16  2  0
 17 18  1  0
 17 15  1  0
 18 19  1  6
 19 20  1  0
 20 25  2  0
 21 22  2  0
 21 20  1  0
 22 23  1  0
 23 24  2  0
 25 24  1  0
 26 18  1  0
 27 26  2  0
 28 26  1  0
M  END
$$$$
