IIF.pdb
     RDKit          3D

 28 28  0  0  1  0  0  0  0  0999 V2000
   11.1672  -21.4504   18.0093 C   0  0  0  0  0  0  0  0  0  0  0  0
   10.5964  -20.0803   17.6981 C   0  0  0  0  0  0  0  0  0  0  0  0
   10.7111  -19.2484   18.9585 C   0  0  2  0  0  0  0  0  0  0  0  0
   10.0864  -20.0053   20.0852 C   0  0  0  0  0  0  0  0  0  0  0  0
   10.0506  -17.9230   18.6800 C   0  0  2  0  0  0  0  0  0  0  0  0
   10.7166  -17.3325   17.5438 N   0  0  0  0  0  0  0  0  0  0  0  0
   10.1649  -16.9969   19.8483 C   0  0  0  0  0  0  0  0  0  0  0  0
   11.2906  -16.5492   20.2041 O   0  0  0  0  0  0  0  0  0  0  0  0
    6.8740  -12.9338   20.0445 C   0  0  0  0  0  0  0  0  0  0  0  0
    8.0866  -13.8795   20.2045 C   0  0  0  0  0  0  0  0  0  0  0  0
    7.9503  -14.7016   21.4436 C   0  0  2  0  0  0  0  0  0  0  0  0
    7.5673  -13.8455   22.6442 C   0  0  0  0  0  0  0  0  0  0  0  0
    8.9537  -15.7423   21.7053 C   0  0  2  0  0  0  0  0  0  0  0  0
    8.9943  -16.6383   20.5380 N   0  0  0  0  0  0  0  0  0  0  0  0
    9.0016  -16.4573   22.9538 C   0  0  0  0  0  0  0  0  0  0  0  0
    8.3229  -17.5088   23.1132 O   0  0  0  0  0  0  0  0  0  0  0  0
    9.7906  -16.0513   24.0567 N   0  0  0  0  0  0  0  0  0  0  0  0
   10.1049  -16.9799   25.1579 C   0  0  1  0  0  0  0  0  0  0  0  0
   11.1790  -16.2929   25.9775 C   0  0  0  0  0  0  0  0  0  0  0  0
   10.6274  -15.2574   26.8864 C   0  0  0  0  0  0  0  0  0  0  0  0
   10.6031  -15.4385   28.2632 C   0  0  0  0  0  0  0  0  0  0  0  0
   10.1010  -14.4924   29.1322 C   0  0  0  0  0  0  0  0  0  0  0  0
    9.6106  -13.3294   28.5774 C   0  0  0  0  0  0  0  0  0  0  0  0
    9.6254  -13.1324   27.2307 C   0  0  0  0  0  0  0  0  0  0  0  0
   10.1324  -14.0879   26.3544 C   0  0  0  0  0  0  0  0  0  0  0  0
    8.8759  -17.2597   25.9382 C   0  0  0  0  0  0  0  0  0  0  0  0
    8.8807  -18.0301   26.9230 O   0  0  0  0  0  0  0  0  0  0  0  0
    7.6663  -16.6688   25.5971 O   0  0  0  0  0  0  0  0  0  0  0  0
  2  1  1  0
  3  2  1  0
  3  4  1  1
  5  3  1  0
  5  6  1  6
  7  5  1  0
  8  7  2  0
 10 11  1  0
 10  9  1  0
 11 13  1  0
 11 12  1  1
 13 14  1  6
 14  7  1  0
 15 13  1  0
 15 16  2  0
 17 18  1  0
 17 15  1  0
 18 19  1  1
 19 20  1  0
 20 25  2  0
 21 22  2  0
 21 20  1  0
 22 23  1  0
 23 24  2  0
 25 24  1  0
 26 18  1  0
 27 26  2  0
 28 26  1  0
M  END
$$$$
