IIF.pdb
     RDKit          3D

 28 28  0  0  1  0  0  0  0  0999 V2000
    9.1757  -20.8565   17.4218 C   0  0  0  0  0  0  0  0  0  0  0  0
    9.1905  -20.6503   18.9241 C   0  0  0  0  0  0  0  0  0  0  0  0
    9.7207  -19.2552   19.1814 C   0  0  2  0  0  0  0  0  0  0  0  0
   11.0858  -19.1485   18.5832 C   0  0  0  0  0  0  0  0  0  0  0  0
    9.6943  -19.0355   20.6719 C   0  0  2  0  0  0  0  0  0  0  0  0
    8.4023  -19.4618   21.1540 N   0  0  0  0  0  0  0  0  0  0  0  0
    9.8930  -17.5944   21.0177 C   0  0  0  0  0  0  0  0  0  0  0  0
   10.8588  -16.9448   20.5283 O   0  0  0  0  0  0  0  0  0  0  0  0
    5.9661  -14.4423   20.3662 C   0  0  0  0  0  0  0  0  0  0  0  0
    7.3458  -15.1140   20.5544 C   0  0  0  0  0  0  0  0  0  0  0  0
    7.8533  -14.8896   21.9408 C   0  0  2  0  0  0  0  0  0  0  0  0
    7.7721  -13.4204   22.3358 C   0  0  0  0  0  0  0  0  0  0  0  0
    9.0760  -15.5885   22.3586 C   0  0  2  0  0  0  0  0  0  0  0  0
    8.9829  -16.9831   21.8966 N   0  0  0  0  0  0  0  0  0  0  0  0
    9.5941  -15.4825   23.6976 C   0  0  0  0  0  0  0  0  0  0  0  0
   10.7777  -15.0928   23.8945 O   0  0  0  0  0  0  0  0  0  0  0  0
    8.8389  -15.7918   24.8541 N   0  0  0  0  0  0  0  0  0  0  0  0
    9.4583  -15.8114   26.1919 C   0  0  1  0  0  0  0  0  0  0  0  0
    8.3605  -15.4086   27.1563 C   0  0  0  0  0  0  0  0  0  0  0  0
    7.8438  -14.0424   26.8933 C   0  0  0  0  0  0  0  0  0  0  0  0
    6.5886  -13.8360   26.3360 C   0  0  0  0  0  0  0  0  0  0  0  0
    6.0806  -12.5786   26.0845 C   0  0  0  0  0  0  0  0  0  0  0  0
    6.8786  -11.5032   26.4124 C   0  0  0  0  0  0  0  0  0  0  0  0
    8.1118  -11.6840   26.9596 C   0  0  0  0  0  0  0  0  0  0  0  0
    8.6235  -12.9536   27.2129 C   0  0  0  0  0  0  0  0  0  0  0  0
   10.0004  -17.1631   26.4688 C   0  0  0  0  0  0  0  0  0  0  0  0
   10.7519  -17.3857   27.4431 O   0  0  0  0  0  0  0  0  0  0  0  0
    9.6880  -18.2375   25.6463 O   0  0  0  0  0  0  0  0  0  0  0  0
  2  1  1  0
  3  2  1  0
  3  4  1  1
  5  3  1  0
  5  6  1  6
  7  5  1  0
  8  7  2  0
 10 11  1  0
 10  9  1  0
 11 13  1  0
 11 12  1  6
 13 14  1  1
 14  7  1  0
 15 13  1  0
 15 16  2  0
 17 18  1  0
 17 15  1  0
 18 19  1  1
 19 20  1  0
 20 25  2  0
 21 22  2  0
 21 20  1  0
 22 23  1  0
 23 24  2  0
 25 24  1  0
 26 18  1  0
 27 26  2  0
 28 26  1  0
M  END
$$$$
