IIF.pdb
     RDKit          3D

 28 28  0  0  1  0  0  0  0  0999 V2000
    8.6434  -22.1424   20.3981 C   0  0  0  0  0  0  0  0  0  0  0  0
    8.1058  -20.8671   19.7781 C   0  0  0  0  0  0  0  0  0  0  0  0
    8.7594  -19.7064   20.4988 C   0  0  2  0  0  0  0  0  0  0  0  0
    8.5711  -19.8942   21.9692 C   0  0  0  0  0  0  0  0  0  0  0  0
    8.1364  -18.4422   19.9655 C   0  0  2  0  0  0  0  0  0  0  0  0
    8.2337  -18.4802   18.5259 N   0  0  0  0  0  0  0  0  0  0  0  0
    8.8448  -17.2262   20.4707 C   0  0  0  0  0  0  0  0  0  0  0  0
   10.0741  -17.0570   20.2377 O   0  0  0  0  0  0  0  0  0  0  0  0
    6.8785  -12.4876   19.5931 C   0  0  0  0  0  0  0  0  0  0  0  0
    7.8812  -13.6245   19.8973 C   0  0  0  0  0  0  0  0  0  0  0  0
    7.9169  -13.9140   21.3619 C   0  0  2  0  0  0  0  0  0  0  0  0
    8.0942  -12.6411   22.1801 C   0  0  0  0  0  0  0  0  0  0  0  0
    8.6887  -15.0747   21.8258 C   0  0  2  0  0  0  0  0  0  0  0  0
    8.1125  -16.2801   21.2078 N   0  0  0  0  0  0  0  0  0  0  0  0
    9.0147  -15.2667   23.2147 C   0  0  0  0  0  0  0  0  0  0  0  0
    9.9440  -14.6020   23.7497 O   0  0  0  0  0  0  0  0  0  0  0  0
    8.3371  -16.1807   24.0570 N   0  0  0  0  0  0  0  0  0  0  0  0
    8.6405  -16.2659   25.4973 C   0  0  1  0  0  0  0  0  0  0  0  0
    7.3631  -15.8654   26.2082 C   0  0  0  0  0  0  0  0  0  0  0  0
    7.3073  -14.4122   26.5045 C   0  0  0  0  0  0  0  0  0  0  0  0
    6.1243  -13.6934   26.3917 C   0  0  0  0  0  0  0  0  0  0  0  0
    6.0414  -12.3439   26.6645 C   0  0  0  0  0  0  0  0  0  0  0  0
    7.2004  -11.7129   27.0636 C   0  0  0  0  0  0  0  0  0  0  0  0
    8.3701  -12.3993   27.1804 C   0  0  0  0  0  0  0  0  0  0  0  0
    8.4526  -13.7613   26.9049 C   0  0  0  0  0  0  0  0  0  0  0  0
    9.0786  -17.6419   25.8323 C   0  0  0  0  0  0  0  0  0  0  0  0
    9.3694  -17.9754   27.0018 O   0  0  0  0  0  0  0  0  0  0  0  0
    9.1813  -18.6158   24.8476 O   0  0  0  0  0  0  0  0  0  0  0  0
  2  1  1  0
  3  2  1  0
  3  4  1  1
  5  3  1  0
  5  6  1  6
  7  5  1  0
  8  7  2  0
 10 11  1  0
 10  9  1  0
 11 13  1  0
 11 12  1  1
 13 14  1  1
 14  7  1  0
 15 13  1  0
 15 16  2  0
 17 18  1  0
 17 15  1  0
 18 19  1  1
 19 20  1  0
 20 25  2  0
 21 22  2  0
 21 20  1  0
 22 23  1  0
 23 24  2  0
 25 24  1  0
 26 18  1  0
 27 26  2  0
 28 26  1  0
M  END
$$$$
