IIF.pdb
     RDKit          3D

 28 28  0  0  1  0  0  0  0  0999 V2000
   10.0841  -21.9332   19.9732 C   0  0  0  0  0  0  0  0  0  0  0  0
    9.5584  -20.7088   19.2491 C   0  0  0  0  0  0  0  0  0  0  0  0
    9.7964  -19.5160   20.1513 C   0  0  2  0  0  0  0  0  0  0  0  0
    9.2415  -19.8257   21.5037 C   0  0  0  0  0  0  0  0  0  0  0  0
    9.1538  -18.3228   19.4924 C   0  0  2  0  0  0  0  0  0  0  0  0
    9.7248  -18.1916   18.1732 N   0  0  0  0  0  0  0  0  0  0  0  0
    9.4100  -17.0669   20.2622 C   0  0  0  0  0  0  0  0  0  0  0  0
   10.5617  -16.5497   20.2810 O   0  0  0  0  0  0  0  0  0  0  0  0
    7.0434  -12.7951   19.2296 C   0  0  0  0  0  0  0  0  0  0  0  0
    8.0812  -13.7891   19.7998 C   0  0  0  0  0  0  0  0  0  0  0  0
    7.7098  -14.1961   21.1878 C   0  0  2  0  0  0  0  0  0  0  0  0
    7.4448  -12.9855   22.0741 C   0  0  0  0  0  0  0  0  0  0  0  0
    8.4612  -15.2886   21.8201 C   0  0  2  0  0  0  0  0  0  0  0  0
    8.3426  -16.4783   20.9613 N   0  0  0  0  0  0  0  0  0  0  0  0
    8.3215  -15.5993   23.2187 C   0  0  0  0  0  0  0  0  0  0  0  0
    7.2325  -16.0531   23.6657 O   0  0  0  0  0  0  0  0  0  0  0  0
    9.3613  -15.4297   24.1642 N   0  0  0  0  0  0  0  0  0  0  0  0
    9.1241  -15.6187   25.6070 C   0  0  1  0  0  0  0  0  0  0  0  0
    7.6644  -15.2764   25.8293 C   0  0  0  0  0  0  0  0  0  0  0  0
    7.4460  -13.8246   26.0465 C   0  0  0  0  0  0  0  0  0  0  0  0
    6.1696  -13.2776   26.0668 C   0  0  0  0  0  0  0  0  0  0  0  0
    5.9361  -11.9336   26.2708 C   0  0  0  0  0  0  0  0  0  0  0  0
    7.0386  -11.1275   26.4592 C   0  0  0  0  0  0  0  0  0  0  0  0
    8.2979  -11.6439   26.4430 C   0  0  0  0  0  0  0  0  0  0  0  0
    8.5325  -13.0006   26.2371 C   0  0  0  0  0  0  0  0  0  0  0  0
    9.4524  -17.0137   25.9862 C   0  0  0  0  0  0  0  0  0  0  0  0
    9.4811  -17.3836   27.1803 O   0  0  0  0  0  0  0  0  0  0  0  0
    9.7420  -17.9653   25.0171 O   0  0  0  0  0  0  0  0  0  0  0  0
  2  1  1  0
  3  2  1  0
  3  4  1  1
  5  3  1  0
  5  6  1  6
  7  5  1  0
  8  7  2  0
 10 11  1  0
 10  9  1  0
 11 13  1  0
 11 12  1  1
 13 14  1  6
 14  7  1  0
 15 13  1  0
 15 16  2  0
 17 18  1  0
 17 15  1  0
 18 19  1  6
 19 20  1  0
 20 25  2  0
 21 22  2  0
 21 20  1  0
 22 23  1  0
 23 24  2  0
 25 24  1  0
 26 18  1  0
 27 26  2  0
 28 26  1  0
M  END
$$$$
