IIF.pdb
     RDKit          3D

 28 28  0  0  1  0  0  0  0  0999 V2000
    8.3536  -22.1119   20.2809 C   0  0  0  0  0  0  0  0  0  0  0  0
    8.0126  -20.8163   19.5704 C   0  0  0  0  0  0  0  0  0  0  0  0
    8.6542  -19.6908   20.3549 C   0  0  2  0  0  0  0  0  0  0  0  0
    8.2854  -19.8456   21.7946 C   0  0  0  0  0  0  0  0  0  0  0  0
    8.1821  -18.3962   19.7451 C   0  0  2  0  0  0  0  0  0  0  0  0
    8.4687  -18.4484   18.3315 N   0  0  0  0  0  0  0  0  0  0  0  0
    8.8855  -17.2198   20.3426 C   0  0  0  0  0  0  0  0  0  0  0  0
   10.1113  -17.0214   20.1138 O   0  0  0  0  0  0  0  0  0  0  0  0
    6.6766  -12.5660   19.8753 C   0  0  0  0  0  0  0  0  0  0  0  0
    7.7614  -13.6521   20.0593 C   0  0  0  0  0  0  0  0  0  0  0  0
    7.9138  -14.0016   21.5031 C   0  0  2  0  0  0  0  0  0  0  0  0
    8.1542  -12.7627   22.3567 C   0  0  0  0  0  0  0  0  0  0  0  0
    8.7211  -15.1771   21.8558 C   0  0  2  0  0  0  0  0  0  0  0  0
    8.1526  -16.3440   21.1613 N   0  0  0  0  0  0  0  0  0  0  0  0
    9.0887  -15.4680   23.2169 C   0  0  0  0  0  0  0  0  0  0  0  0
   10.2270  -15.1435   23.6535 O   0  0  0  0  0  0  0  0  0  0  0  0
    8.2285  -16.1132   24.1375 N   0  0  0  0  0  0  0  0  0  0  0  0
    8.5787  -16.2254   25.5653 C   0  0  1  0  0  0  0  0  0  0  0  0
    7.3106  -15.8896   26.3245 C   0  0  0  0  0  0  0  0  0  0  0  0
    7.0176  -14.4347   26.3296 C   0  0  0  0  0  0  0  0  0  0  0  0
    5.8099  -13.9358   25.8590 C   0  0  0  0  0  0  0  0  0  0  0  0
    5.5082  -12.5900   25.8554 C   0  0  0  0  0  0  0  0  0  0  0  0
    6.4684  -11.7312   26.3467 C   0  0  0  0  0  0  0  0  0  0  0  0
    7.6585  -12.1999   26.8126 C   0  0  0  0  0  0  0  0  0  0  0  0
    7.9619  -13.5585   26.8158 C   0  0  0  0  0  0  0  0  0  0  0  0
    9.0746  -17.5933   25.8494 C   0  0  0  0  0  0  0  0  0  0  0  0
    8.9984  -18.5116   25.0042 O   0  0  0  0  0  0  0  0  0  0  0  0
    9.6461  -17.9025   27.0767 O   0  0  0  0  0  0  0  0  0  0  0  0
  2  1  1  0
  3  2  1  0
  3  4  1  1
  5  3  1  0
  5  6  1  6
  7  5  1  0
  8  7  2  0
 10 11  1  0
 10  9  1  0
 11 13  1  0
 11 12  1  1
 13 14  1  1
 14  7  1  0
 15 13  1  0
 15 16  2  0
 17 18  1  0
 17 15  1  0
 18 19  1  1
 19 20  1  0
 20 25  2  0
 21 22  2  0
 21 20  1  0
 22 23  1  0
 23 24  2  0
 25 24  1  0
 26 18  1  0
 27 26  2  0
 28 26  1  0
M  END
$$$$
