IIF.pdb
     RDKit          3D

 28 28  0  0  1  0  0  0  0  0999 V2000
    5.3616  -21.7017   23.1312 C   0  0  0  0  0  0  0  0  0  0  0  0
    5.1493  -20.6861   22.0253 C   0  0  0  0  0  0  0  0  0  0  0  0
    6.2590  -19.6616   22.1364 C   0  0  2  0  0  0  0  0  0  0  0  0
    6.2959  -19.1524   23.5407 C   0  0  0  0  0  0  0  0  0  0  0  0
    5.9828  -18.5916   21.1119 C   0  0  2  0  0  0  0  0  0  0  0  0
    5.8819  -19.2351   19.8238 N   0  0  0  0  0  0  0  0  0  0  0  0
    7.0817  -17.5787   21.0666 C   0  0  0  0  0  0  0  0  0  0  0  0
    8.1960  -17.8640   20.5461 O   0  0  0  0  0  0  0  0  0  0  0  0
    6.3759  -12.8113   19.2651 C   0  0  0  0  0  0  0  0  0  0  0  0
    6.9797  -14.1556   19.7326 C   0  0  0  0  0  0  0  0  0  0  0  0
    7.4527  -14.0547   21.1454 C   0  0  2  0  0  0  0  0  0  0  0  0
    8.3552  -12.8442   21.3486 C   0  0  0  0  0  0  0  0  0  0  0  0
    7.8815  -15.2829   21.8278 C   0  0  2  0  0  0  0  0  0  0  0  0
    6.8453  -16.3067   21.6150 N   0  0  0  0  0  0  0  0  0  0  0  0
    8.3775  -15.2699   23.1792 C   0  0  0  0  0  0  0  0  0  0  0  0
    7.7516  -14.6504   24.0825 O   0  0  0  0  0  0  0  0  0  0  0  0
    9.5612  -15.9327   23.5832 N   0  0  0  0  0  0  0  0  0  0  0  0
   10.3581  -15.4506   24.7262 C   0  0  1  0  0  0  0  0  0  0  0  0
    9.4382  -15.5307   25.9282 C   0  0  0  0  0  0  0  0  0  0  0  0
    8.7697  -16.8503   26.0475 C   0  0  0  0  0  0  0  0  0  0  0  0
    7.4029  -16.9925   25.8462 C   0  0  0  0  0  0  0  0  0  0  0  0
    6.7555  -18.2062   25.9460 C   0  0  0  0  0  0  0  0  0  0  0  0
    7.5275  -19.3043   26.2603 C   0  0  0  0  0  0  0  0  0  0  0  0
    8.8686  -19.1864   26.4614 C   0  0  0  0  0  0  0  0  0  0  0  0
    9.5211  -17.9609   26.3604 C   0  0  0  0  0  0  0  0  0  0  0  0
   11.5725  -16.2879   24.8738 C   0  0  0  0  0  0  0  0  0  0  0  0
   12.4086  -16.0835   25.7808 O   0  0  0  0  0  0  0  0  0  0  0  0
   11.8237  -17.3377   24.0001 O   0  0  0  0  0  0  0  0  0  0  0  0
  2  1  1  0
  3  2  1  0
  3  4  1  1
  5  3  1  0
  5  6  1  6
  7  5  1  0
  8  7  2  0
 10 11  1  0
 10  9  1  0
 11 13  1  0
 11 12  1  6
 13 14  1  1
 14  7  1  0
 15 13  1  0
 15 16  2  0
 17 18  1  0
 17 15  1  0
 18 19  1  1
 19 20  1  0
 20 25  2  0
 21 22  2  0
 21 20  1  0
 22 23  1  0
 23 24  2  0
 25 24  1  0
 26 18  1  0
 27 26  2  0
 28 26  1  0
M  END
$$$$
