IIF.pdb
     RDKit          3D

 28 28  0  0  1  0  0  0  0  0999 V2000
    7.3202  -11.5928   20.1572 C   0  0  0  0  0  0  0  0  0  0  0  0
    7.5347  -13.0562   19.8224 C   0  0  0  0  0  0  0  0  0  0  0  0
    7.7440  -13.7907   21.1302 C   0  0  2  0  0  0  0  0  0  0  0  0
    8.8733  -13.1426   21.8631 C   0  0  0  0  0  0  0  0  0  0  0  0
    7.9923  -15.2385   20.7941 C   0  0  2  0  0  0  0  0  0  0  0  0
    6.8557  -15.7141   20.0422 N   0  0  0  0  0  0  0  0  0  0  0  0
    8.1440  -16.0699   22.0276 C   0  0  0  0  0  0  0  0  0  0  0  0
    7.1278  -16.4552   22.6703 O   0  0  0  0  0  0  0  0  0  0  0  0
   11.1943  -20.0272   21.5338 C   0  0  0  0  0  0  0  0  0  0  0  0
   10.0407  -19.2936   22.2557 C   0  0  0  0  0  0  0  0  0  0  0  0
   10.5800  -18.3340   23.2649 C   0  0  2  0  0  0  0  0  0  0  0  0
   11.2826  -19.0582   24.4065 C   0  0  0  0  0  0  0  0  0  0  0  0
    9.7430  -17.1937   23.6615 C   0  0  2  0  0  0  0  0  0  0  0  0
    9.4393  -16.4106   22.4526 N   0  0  0  0  0  0  0  0  0  0  0  0
   10.0723  -16.3635   24.7905 C   0  0  0  0  0  0  0  0  0  0  0  0
   11.0126  -15.5259   24.7138 O   0  0  0  0  0  0  0  0  0  0  0  0
    9.3860  -16.4189   26.0274 N   0  0  0  0  0  0  0  0  0  0  0  0
    9.8382  -15.6346   27.1910 C   0  0  1  0  0  0  0  0  0  0  0  0
    8.5897  -14.9894   27.7588 C   0  0  0  0  0  0  0  0  0  0  0  0
    8.0449  -13.9278   26.8762 C   0  0  0  0  0  0  0  0  0  0  0  0
    6.8966  -14.1297   26.1215 C   0  0  0  0  0  0  0  0  0  0  0  0
    6.3651  -13.1607   25.2965 C   0  0  0  0  0  0  0  0  0  0  0  0
    7.0264  -11.9522   25.2421 C   0  0  0  0  0  0  0  0  0  0  0  0
    8.1533  -11.7341   25.9739 C   0  0  0  0  0  0  0  0  0  0  0  0
    8.6890  -12.7129   26.8063 C   0  0  0  0  0  0  0  0  0  0  0  0
   10.5157  -16.5287   28.1601 C   0  0  0  0  0  0  0  0  0  0  0  0
   11.1022  -16.0831   29.1705 O   0  0  0  0  0  0  0  0  0  0  0  0
   10.5210  -17.9051   27.9754 O   0  0  0  0  0  0  0  0  0  0  0  0
  2  1  1  0
  3  2  1  0
  3  4  1  6
  5  3  1  0
  5  6  1  1
  7  5  1  0
  8  7  2  0
 10 11  1  0
 10  9  1  0
 11 13  1  0
 11 12  1  1
 13 14  1  6
 14  7  1  0
 15 13  1  0
 15 16  2  0
 17 18  1  0
 17 15  1  0
 18 19  1  1
 19 20  1  0
 20 25  2  0
 21 22  2  0
 21 20  1  0
 22 23  1  0
 23 24  2  0
 25 24  1  0
 26 18  1  0
 27 26  2  0
 28 26  1  0
M  END
$$$$
