IIF.pdb
     RDKit          3D

 28 28  0  0  1  0  0  0  0  0999 V2000
    8.2402  -11.7481   19.5086 C   0  0  0  0  0  0  0  0  0  0  0  0
    8.2064  -13.2444   19.2645 C   0  0  0  0  0  0  0  0  0  0  0  0
    7.8036  -13.9036   20.5671 C   0  0  2  0  0  0  0  0  0  0  0  0
    8.7741  -13.4935   21.6266 C   0  0  0  0  0  0  0  0  0  0  0  0
    7.7671  -15.3901   20.3225 C   0  0  2  0  0  0  0  0  0  0  0  0
    6.8013  -15.6380   19.2789 N   0  0  0  0  0  0  0  0  0  0  0  0
    7.3607  -16.1385   21.5514 C   0  0  0  0  0  0  0  0  0  0  0  0
    6.1582  -16.1346   21.9365 O   0  0  0  0  0  0  0  0  0  0  0  0
    7.6105  -21.0447   21.8541 C   0  0  0  0  0  0  0  0  0  0  0  0
    7.3153  -19.5469   22.0987 C   0  0  0  0  0  0  0  0  0  0  0  0
    8.1640  -19.0198   23.2086 C   0  0  2  0  0  0  0  0  0  0  0  0
    8.1438  -19.9468   24.4175 C   0  0  0  0  0  0  0  0  0  0  0  0
    8.1025  -17.5840   23.5135 C   0  0  2  0  0  0  0  0  0  0  0  0
    8.3451  -16.8434   22.2647 N   0  0  0  0  0  0  0  0  0  0  0  0
    8.7963  -17.0140   24.6387 C   0  0  0  0  0  0  0  0  0  0  0  0
   10.0158  -16.7045   24.5462 O   0  0  0  0  0  0  0  0  0  0  0  0
    8.1821  -16.7618   25.8889 N   0  0  0  0  0  0  0  0  0  0  0  0
    8.9339  -16.1595   27.0050 C   0  0  1  0  0  0  0  0  0  0  0  0
    7.9341  -15.3024   27.7556 C   0  0  0  0  0  0  0  0  0  0  0  0
    7.4926  -14.1225   26.9711 C   0  0  0  0  0  0  0  0  0  0  0  0
    6.2858  -14.1181   26.2838 C   0  0  0  0  0  0  0  0  0  0  0  0
    5.8477  -13.0351   25.5506 C   0  0  0  0  0  0  0  0  0  0  0  0
    6.6666  -11.9264   25.5201 C   0  0  0  0  0  0  0  0  0  0  0  0
    7.8532  -11.9104   26.1869 C   0  0  0  0  0  0  0  0  0  0  0  0
    8.2944  -13.0041   26.9266 C   0  0  0  0  0  0  0  0  0  0  0  0
    9.5191  -17.2312   27.8457 C   0  0  0  0  0  0  0  0  0  0  0  0
   10.3668  -16.9861   28.7316 O   0  0  0  0  0  0  0  0  0  0  0  0
    9.1407  -18.5564   27.6748 O   0  0  0  0  0  0  0  0  0  0  0  0
  2  1  1  0
  3  2  1  0
  3  4  1  1
  5  3  1  0
  5  6  1  6
  7  5  1  0
  8  7  2  0
 10 11  1  0
 10  9  1  0
 11 13  1  0
 11 12  1  1
 13 14  1  6
 14  7  1  0
 15 13  1  0
 15 16  2  0
 17 18  1  0
 17 15  1  0
 18 19  1  1
 19 20  1  0
 20 25  2  0
 21 22  2  0
 21 20  1  0
 22 23  1  0
 23 24  2  0
 25 24  1  0
 26 18  1  0
 27 26  2  0
 28 26  1  0
M  END
$$$$
