IIF.pdb
     RDKit          3D

 28 28  0  0  1  0  0  0  0  0999 V2000
    8.0217  -12.1360   19.2482 C   0  0  0  0  0  0  0  0  0  0  0  0
    7.9016  -13.6477   19.2580 C   0  0  0  0  0  0  0  0  0  0  0  0
    7.5952  -14.0653   20.6811 C   0  0  2  0  0  0  0  0  0  0  0  0
    8.7162  -13.6138   21.5599 C   0  0  0  0  0  0  0  0  0  0  0  0
    7.3953  -15.5588   20.6747 C   0  0  2  0  0  0  0  0  0  0  0  0
    6.3218  -15.8524   19.7555 N   0  0  0  0  0  0  0  0  0  0  0  0
    7.0292  -16.0692   22.0316 C   0  0  0  0  0  0  0  0  0  0  0  0
    5.9208  -15.7644   22.5538 O   0  0  0  0  0  0  0  0  0  0  0  0
    6.5452  -20.9356   22.8895 C   0  0  0  0  0  0  0  0  0  0  0  0
    6.5423  -19.3902   22.9348 C   0  0  0  0  0  0  0  0  0  0  0  0
    7.5376  -18.8931   23.9308 C   0  0  2  0  0  0  0  0  0  0  0  0
    7.4448  -19.6583   25.2450 C   0  0  0  0  0  0  0  0  0  0  0  0
    7.7340  -17.4428   24.0579 C   0  0  2  0  0  0  0  0  0  0  0  0
    7.9445  -16.8927   22.7088 N   0  0  0  0  0  0  0  0  0  0  0  0
    8.6311  -16.8781   25.0320 C   0  0  0  0  0  0  0  0  0  0  0  0
    9.8448  -16.6868   24.7461 O   0  0  0  0  0  0  0  0  0  0  0  0
    8.2313  -16.5032   26.3371 N   0  0  0  0  0  0  0  0  0  0  0  0
    9.1838  -15.9007   27.2875 C   0  0  1  0  0  0  0  0  0  0  0  0
    8.3706  -14.9308   28.1215 C   0  0  0  0  0  0  0  0  0  0  0  0
    7.7823  -13.8360   27.3105 C   0  0  0  0  0  0  0  0  0  0  0  0
    6.4872  -13.9148   26.8152 C   0  0  0  0  0  0  0  0  0  0  0  0
    5.9129  -12.9116   26.0629 C   0  0  0  0  0  0  0  0  0  0  0  0
    6.6847  -11.7974   25.8104 C   0  0  0  0  0  0  0  0  0  0  0  0
    7.9562  -11.7006   26.2867 C   0  0  0  0  0  0  0  0  0  0  0  0
    8.5349  -12.7137   27.0460 C   0  0  0  0  0  0  0  0  0  0  0  0
    9.8176  -16.9670   28.0993 C   0  0  0  0  0  0  0  0  0  0  0  0
   10.7887  -16.7342   28.8518 O   0  0  0  0  0  0  0  0  0  0  0  0
    9.3483  -18.2731   28.0499 O   0  0  0  0  0  0  0  0  0  0  0  0
  2  1  1  0
  3  2  1  0
  3  4  1  1
  5  3  1  0
  5  6  1  6
  7  5  1  0
  8  7  2  0
 10 11  1  0
 10  9  1  0
 11 13  1  0
 11 12  1  1
 13 14  1  6
 14  7  1  0
 15 13  1  0
 15 16  2  0
 17 18  1  0
 17 15  1  0
 18 19  1  1
 19 20  1  0
 20 25  2  0
 21 22  2  0
 21 20  1  0
 22 23  1  0
 23 24  2  0
 25 24  1  0
 26 18  1  0
 27 26  2  0
 28 26  1  0
M  END
$$$$
