IIF.pdb
     RDKit          3D

 28 28  0  0  1  0  0  0  0  0999 V2000
    5.9445  -21.9146   23.6948 C   0  0  0  0  0  0  0  0  0  0  0  0
    5.7683  -20.9728   22.5194 C   0  0  0  0  0  0  0  0  0  0  0  0
    6.5692  -19.7232   22.8204 C   0  0  2  0  0  0  0  0  0  0  0  0
    6.1433  -19.1959   24.1520 C   0  0  0  0  0  0  0  0  0  0  0  0
    6.3364  -18.7597   21.6854 C   0  0  2  0  0  0  0  0  0  0  0  0
    6.3255  -19.5221   20.4598 N   0  0  0  0  0  0  0  0  0  0  0  0
    7.4175  -17.7295   21.6098 C   0  0  0  0  0  0  0  0  0  0  0  0
    8.4695  -17.9513   20.9479 O   0  0  0  0  0  0  0  0  0  0  0  0
    6.6859  -13.1480   19.6421 C   0  0  0  0  0  0  0  0  0  0  0  0
    7.3856  -14.4178   20.1791 C   0  0  0  0  0  0  0  0  0  0  0  0
    7.6908  -14.2728   21.6336 C   0  0  2  0  0  0  0  0  0  0  0  0
    8.3691  -12.9419   21.9334 C   0  0  0  0  0  0  0  0  0  0  0  0
    8.2331  -15.4334   22.3526 C   0  0  2  0  0  0  0  0  0  0  0  0
    7.2352  -16.5137   22.2903 N   0  0  0  0  0  0  0  0  0  0  0  0
    8.8345  -15.3098   23.6547 C   0  0  0  0  0  0  0  0  0  0  0  0
    8.9267  -14.1809   24.2102 O   0  0  0  0  0  0  0  0  0  0  0  0
    9.3452  -16.4085   24.3867 N   0  0  0  0  0  0  0  0  0  0  0  0
    9.9530  -16.2272   25.7177 C   0  0  1  0  0  0  0  0  0  0  0  0
   10.0519  -14.7284   25.9208 C   0  0  0  0  0  0  0  0  0  0  0  0
    8.7987  -14.1419   26.4575 C   0  0  0  0  0  0  0  0  0  0  0  0
    8.7986  -13.3479   27.5969 C   0  0  0  0  0  0  0  0  0  0  0  0
    7.6508  -12.7862   28.1158 C   0  0  0  0  0  0  0  0  0  0  0  0
    6.4710  -13.0440   27.4508 C   0  0  0  0  0  0  0  0  0  0  0  0
    6.4495  -13.8196   26.3324 C   0  0  0  0  0  0  0  0  0  0  0  0
    7.6087  -14.3860   25.8094 C   0  0  0  0  0  0  0  0  0  0  0  0
    9.1136  -16.8928   26.7423 C   0  0  0  0  0  0  0  0  0  0  0  0
    8.0483  -17.4763   26.4451 O   0  0  0  0  0  0  0  0  0  0  0  0
    9.4870  -16.8901   28.0799 O   0  0  0  0  0  0  0  0  0  0  0  0
  2  1  1  0
  3  2  1  0
  3  4  1  1
  5  3  1  0
  5  6  1  6
  7  5  1  0
  8  7  2  0
 10 11  1  0
 10  9  1  0
 11 13  1  0
 11 12  1  6
 13 14  1  1
 14  7  1  0
 15 13  1  0
 15 16  2  0
 17 18  1  0
 17 15  1  0
 18 19  1  1
 19 20  1  0
 20 25  2  0
 21 22  2  0
 21 20  1  0
 22 23  1  0
 23 24  2  0
 25 24  1  0
 26 18  1  0
 27 26  2  0
 28 26  1  0
M  END
$$$$
