IIF.pdb
     RDKit          3D

 28 28  0  0  1  0  0  0  0  0999 V2000
    7.7955  -11.8823   19.6129 C   0  0  0  0  0  0  0  0  0  0  0  0
    7.7142  -13.3902   19.4743 C   0  0  0  0  0  0  0  0  0  0  0  0
    7.6474  -13.9674   20.8729 C   0  0  2  0  0  0  0  0  0  0  0  0
    8.8066  -13.4450   21.6578 C   0  0  0  0  0  0  0  0  0  0  0  0
    7.6362  -15.4680   20.7363 C   0  0  2  0  0  0  0  0  0  0  0  0
    6.4955  -15.8250   19.9272 N   0  0  0  0  0  0  0  0  0  0  0  0
    7.5195  -16.1392   22.0673 C   0  0  0  0  0  0  0  0  0  0  0  0
    6.4317  -16.1095   22.7075 O   0  0  0  0  0  0  0  0  0  0  0  0
    8.7723  -21.0998   22.3700 C   0  0  0  0  0  0  0  0  0  0  0  0
    8.2456  -19.6552   22.5305 C   0  0  0  0  0  0  0  0  0  0  0  0
    9.0182  -18.9293   23.5823 C   0  0  2  0  0  0  0  0  0  0  0  0
    9.2558  -19.8045   24.8066 C   0  0  0  0  0  0  0  0  0  0  0  0
    8.6696  -17.5305   23.8649 C   0  0  2  0  0  0  0  0  0  0  0  0
    8.6452  -16.8010   22.5865 N   0  0  0  0  0  0  0  0  0  0  0  0
    9.3091  -16.7836   24.9163 C   0  0  0  0  0  0  0  0  0  0  0  0
   10.4095  -16.2029   24.7078 O   0  0  0  0  0  0  0  0  0  0  0  0
    8.7675  -16.6451   26.2168 N   0  0  0  0  0  0  0  0  0  0  0  0
    9.5404  -16.0221   27.3069 C   0  0  1  0  0  0  0  0  0  0  0  0
    8.5771  -15.0838   28.0061 C   0  0  0  0  0  0  0  0  0  0  0  0
    8.1589  -13.9501   27.1444 C   0  0  0  0  0  0  0  0  0  0  0  0
    7.0081  -14.0133   26.3696 C   0  0  0  0  0  0  0  0  0  0  0  0
    6.5926  -12.9744   25.5631 C   0  0  0  0  0  0  0  0  0  0  0  0
    7.3760  -11.8401   25.5491 C   0  0  0  0  0  0  0  0  0  0  0  0
    8.5076  -11.7580   26.3011 C   0  0  0  0  0  0  0  0  0  0  0  0
    8.9260  -12.8071   27.1148 C   0  0  0  0  0  0  0  0  0  0  0  0
   10.0716  -17.0756   28.2045 C   0  0  0  0  0  0  0  0  0  0  0  0
    9.6339  -18.2466   28.1789 O   0  0  0  0  0  0  0  0  0  0  0  0
   11.0834  -16.7930   29.1128 O   0  0  0  0  0  0  0  0  0  0  0  0
  2  1  1  0
  3  2  1  0
  3  4  1  1
  5  3  1  0
  5  6  1  6
  7  5  1  0
  8  7  2  0
 10 11  1  0
 10  9  1  0
 11 13  1  0
 11 12  1  1
 13 14  1  6
 14  7  1  0
 15 13  1  0
 15 16  2  0
 17 18  1  0
 17 15  1  0
 18 19  1  1
 19 20  1  0
 20 25  2  0
 21 22  2  0
 21 20  1  0
 22 23  1  0
 23 24  2  0
 25 24  1  0
 26 18  1  0
 27 26  2  0
 28 26  1  0
M  END
$$$$
