DKV.pdb
     RDKit          3D

 25 24  0  0  1  0  0  0  0  0999 V2000
   26.9212  -20.5534  -17.7347 N   0  0  0  0  0  0  0  0  0  0  0  0
   27.2386  -19.5526  -16.7596 C   0  0  1  0  0  0  0  0  0  0  0  0
   27.6041  -18.2274  -17.3757 C   0  0  0  0  0  0  0  0  0  0  0  0
   28.6483  -18.4331  -18.4139 C   0  0  0  0  0  0  0  0  0  0  0  0
   28.9018  -19.5565  -18.8925 O   0  0  0  0  0  0  0  0  0  0  0  0
   26.0961  -19.3792  -15.8327 C   0  0  0  0  0  0  0  0  0  0  0  0
   26.1628  -18.5149  -14.9187 O   0  0  0  0  0  0  0  0  0  0  0  0
   29.3899  -17.3248  -18.8811 O   0  0  0  0  0  0  0  0  0  0  0  0
   24.9033  -20.1476  -15.9190 N   0  0  0  0  0  0  0  0  0  0  0  0
   23.8157  -19.8647  -14.9948 C   0  0  1  0  0  0  0  0  0  0  0  0
   22.5411  -20.0845  -15.7827 C   0  0  0  0  0  0  0  0  0  0  0  0
   22.1562  -18.9550  -16.6692 C   0  0  0  0  0  0  0  0  0  0  0  0
   21.0375  -18.1114  -16.0968 C   0  0  0  0  0  0  0  0  0  0  0  0
   20.7064  -16.9804  -17.0446 C   0  0  0  0  0  0  0  0  0  0  0  0
   19.5362  -16.2388  -16.5939 N   0  0  0  0  0  0  0  0  0  0  0  0
   23.8638  -20.7841  -13.8503 C   0  0  0  0  0  0  0  0  0  0  0  0
   23.8131  -22.0302  -14.0478 O   0  0  0  0  0  0  0  0  0  0  0  0
   25.4384  -19.7764   -9.9721 C   0  0  0  0  0  0  0  0  0  0  0  0
   25.2204  -21.0768  -10.6695 C   0  0  2  0  0  0  0  0  0  0  0  0
   26.4030  -21.3539  -11.5898 C   0  0  0  0  0  0  0  0  0  0  0  0
   23.9057  -21.2102  -11.3765 C   0  0  2  0  0  0  0  0  0  0  0  0
   23.9662  -20.3241  -12.5247 N   0  0  0  0  0  0  0  0  0  0  0  0
   22.7193  -20.9543  -10.5942 C   0  0  0  0  0  0  0  0  0  0  0  0
   21.8154  -19.9127  -10.8084 O   0  0  0  0  0  0  0  0  0  0  0  0
   22.4451  -21.7134   -9.6302 O   0  0  0  0  0  0  0  0  0  0  0  0
  2  1  1  6
  2  3  1  0
  3  4  1  0
  4  8  1  0
  5  4  2  0
  6  9  1  0
  6  2  1  0
  7  6  2  0
 10  9  1  0
 10 11  1  6
 11 12  1  0
 12 13  1  0
 13 14  1  0
 14 15  1  0
 16 10  1  0
 17 16  2  0
 19 18  1  6
 19 20  1  0
 19 21  1  0
 21 22  1  6
 21 23  1  0
 22 16  1  0
 23 24  1  0
 25 23  2  0
M  END
$$$$
