DKV.pdb
     RDKit          3D

 25 24  0  0  1  0  0  0  0  0999 V2000
   28.4390  -22.2143  -16.5859 N   0  0  0  0  0  0  0  0  0  0  0  0
   27.6447  -21.0248  -16.4993 C   0  0  1  0  0  0  0  0  0  0  0  0
   27.2342  -20.4933  -17.8477 C   0  0  0  0  0  0  0  0  0  0  0  0
   28.4391  -20.0387  -18.5906 C   0  0  0  0  0  0  0  0  0  0  0  0
   28.6463  -20.3489  -19.7807 O   0  0  0  0  0  0  0  0  0  0  0  0
   26.4429  -21.2865  -15.6738 C   0  0  0  0  0  0  0  0  0  0  0  0
   25.7070  -22.2730  -15.9424 O   0  0  0  0  0  0  0  0  0  0  0  0
   29.3936  -19.2286  -17.9352 O   0  0  0  0  0  0  0  0  0  0  0  0
   26.0661  -20.4717  -14.5716 N   0  0  0  0  0  0  0  0  0  0  0  0
   24.9185  -20.8630  -13.7673 C   0  0  1  0  0  0  0  0  0  0  0  0
   25.0697  -20.1267  -12.4525 C   0  0  0  0  0  0  0  0  0  0  0  0
   25.3649  -20.9966  -11.2837 C   0  0  0  0  0  0  0  0  0  0  0  0
   25.5454  -20.2166   -9.9993 C   0  0  0  0  0  0  0  0  0  0  0  0
   25.8697  -21.1605   -8.8629 C   0  0  0  0  0  0  0  0  0  0  0  0
   26.0521  -20.4375   -7.6114 N   0  0  0  0  0  0  0  0  0  0  0  0
   23.6694  -20.4611  -14.4274 C   0  0  0  0  0  0  0  0  0  0  0  0
   23.5637  -19.2989  -14.9095 O   0  0  0  0  0  0  0  0  0  0  0  0
   22.1042  -21.7519  -17.3598 C   0  0  0  0  0  0  0  0  0  0  0  0
   21.0600  -21.8135  -16.2965 C   0  0  2  0  0  0  0  0  0  0  0  0
   19.6918  -21.5821  -16.9266 C   0  0  0  0  0  0  0  0  0  0  0  0
   21.2993  -20.9250  -15.1136 C   0  0  2  0  0  0  0  0  0  0  0  0
   22.5714  -21.3328  -14.5455 N   0  0  0  0  0  0  0  0  0  0  0  0
   20.2703  -20.9014  -14.1009 C   0  0  0  0  0  0  0  0  0  0  0  0
   19.2491  -19.9551  -14.0039 O   0  0  0  0  0  0  0  0  0  0  0  0
   20.2618  -21.7933  -13.2148 O   0  0  0  0  0  0  0  0  0  0  0  0
  2  1  1  6
  2  3  1  0
  3  4  1  0
  4  8  1  0
  5  4  2  0
  6  9  1  0
  6  2  1  0
  7  6  2  0
 10  9  1  0
 10 11  1  1
 11 12  1  0
 12 13  1  0
 13 14  1  0
 14 15  1  0
 16 10  1  0
 17 16  2  0
 19 18  1  6
 19 20  1  0
 19 21  1  0
 21 22  1  1
 21 23  1  0
 22 16  1  0
 23 24  1  0
 25 23  2  0
M  END
$$$$
