DKV.pdb
     RDKit          3D

 25 24  0  0  1  0  0  0  0  0999 V2000
   24.3178  -21.2100  -11.0244 N   0  0  0  0  0  0  0  0  0  0  0  0
   23.9108  -21.2919  -12.3959 C   0  0  1  0  0  0  0  0  0  0  0  0
   22.4505  -20.9799  -12.5947 C   0  0  0  0  0  0  0  0  0  0  0  0
   21.6255  -21.9632  -11.8442 C   0  0  0  0  0  0  0  0  0  0  0  0
   21.7401  -23.1942  -12.0083 O   0  0  0  0  0  0  0  0  0  0  0  0
   24.7377  -20.3775  -13.2171 C   0  0  0  0  0  0  0  0  0  0  0  0
   24.8985  -19.1840  -12.8475 O   0  0  0  0  0  0  0  0  0  0  0  0
   20.6708  -21.4992  -10.9115 O   0  0  0  0  0  0  0  0  0  0  0  0
   25.3748  -20.7792  -14.4227 N   0  0  0  0  0  0  0  0  0  0  0  0
   26.1819  -19.8104  -15.1485 C   0  0  1  0  0  0  0  0  0  0  0  0
   27.1156  -20.6254  -16.0190 C   0  0  0  0  0  0  0  0  0  0  0  0
   28.0317  -19.8214  -16.8700 C   0  0  0  0  0  0  0  0  0  0  0  0
   28.8987  -20.6737  -17.7714 C   0  0  0  0  0  0  0  0  0  0  0  0
   29.9100  -19.8060  -18.4867 C   0  0  0  0  0  0  0  0  0  0  0  0
   30.7522  -20.5977  -19.3734 N   0  0  0  0  0  0  0  0  0  0  0  0
   25.3286  -18.9586  -15.9874 C   0  0  0  0  0  0  0  0  0  0  0  0
   24.2937  -19.4454  -16.5224 O   0  0  0  0  0  0  0  0  0  0  0  0
   23.2689  -14.7235  -16.6192 C   0  0  0  0  0  0  0  0  0  0  0  0
   24.1845  -15.7392  -16.0233 C   0  0  2  0  0  0  0  0  0  0  0  0
   25.2646  -15.0262  -15.2185 C   0  0  0  0  0  0  0  0  0  0  0  0
   24.7568  -16.7297  -16.9915 C   0  0  2  0  0  0  0  0  0  0  0  0
   25.6231  -17.6027  -16.2205 N   0  0  0  0  0  0  0  0  0  0  0  0
   25.4580  -16.1906  -18.1330 C   0  0  0  0  0  0  0  0  0  0  0  0
   24.9002  -15.9548  -19.3904 O   0  0  0  0  0  0  0  0  0  0  0  0
   26.6754  -15.8970  -18.0220 O   0  0  0  0  0  0  0  0  0  0  0  0
  2  1  1  1
  2  3  1  0
  3  4  1  0
  4  8  1  0
  5  4  2  0
  6  9  1  0
  6  2  1  0
  7  6  2  0
 10  9  1  0
 10 11  1  6
 11 12  1  0
 12 13  1  0
 13 14  1  0
 14 15  1  0
 16 10  1  0
 17 16  2  0
 19 18  1  6
 19 20  1  0
 19 21  1  0
 21 22  1  1
 21 23  1  0
 22 16  1  0
 23 24  1  0
 25 23  2  0
M  END
$$$$
