DKV.pdb
     RDKit          3D

 25 24  0  0  1  0  0  0  0  0999 V2000
   18.2217  -15.0809  -17.4035 N   0  0  0  0  0  0  0  0  0  0  0  0
   17.6145  -14.0665  -16.5939 C   0  0  1  0  0  0  0  0  0  0  0  0
   17.4376  -14.4883  -15.1586 C   0  0  0  0  0  0  0  0  0  0  0  0
   16.2481  -15.3727  -15.0434 C   0  0  0  0  0  0  0  0  0  0  0  0
   15.3515  -15.4021  -15.9099 O   0  0  0  0  0  0  0  0  0  0  0  0
   18.4224  -12.8265  -16.6587 C   0  0  0  0  0  0  0  0  0  0  0  0
   19.6797  -12.9025  -16.6459 O   0  0  0  0  0  0  0  0  0  0  0  0
   16.1145  -16.2122  -13.9146 O   0  0  0  0  0  0  0  0  0  0  0  0
   17.8473  -11.5289  -16.7380 N   0  0  0  0  0  0  0  0  0  0  0  0
   18.7237  -10.3804  -16.9110 C   0  0  1  0  0  0  0  0  0  0  0  0
   17.8471   -9.2760  -17.4637 C   0  0  0  0  0  0  0  0  0  0  0  0
   18.5641   -8.0122  -17.7775 C   0  0  0  0  0  0  0  0  0  0  0  0
   17.6610   -6.9553  -18.3761 C   0  0  0  0  0  0  0  0  0  0  0  0
   18.4550   -5.7011  -18.6658 C   0  0  0  0  0  0  0  0  0  0  0  0
   17.6789   -4.7557  -19.4573 N   0  0  0  0  0  0  0  0  0  0  0  0
   19.2929   -9.9714  -15.6201 C   0  0  0  0  0  0  0  0  0  0  0  0
   18.5766  -10.0110  -14.5811 O   0  0  0  0  0  0  0  0  0  0  0  0
   23.5446   -9.5687  -15.1324 C   0  0  0  0  0  0  0  0  0  0  0  0
   22.5070   -9.9527  -14.1320 C   0  0  2  0  0  0  0  0  0  0  0  0
   22.2875  -11.4595  -14.1938 C   0  0  0  0  0  0  0  0  0  0  0  0
   21.2219   -9.1864  -14.2181 C   0  0  2  0  0  0  0  0  0  0  0  0
   20.6235   -9.5320  -15.4947 N   0  0  0  0  0  0  0  0  0  0  0  0
   21.3095   -7.7532  -14.0649 C   0  0  0  0  0  0  0  0  0  0  0  0
   21.4543   -7.0742  -12.8542 O   0  0  0  0  0  0  0  0  0  0  0  0
   21.2542   -7.0230  -15.0868 O   0  0  0  0  0  0  0  0  0  0  0  0
  2  1  1  6
  2  3  1  0
  3  4  1  0
  4  8  1  0
  5  4  2  0
  6  9  1  0
  6  2  1  0
  7  6  2  0
 10  9  1  0
 10 11  1  1
 11 12  1  0
 12 13  1  0
 13 14  1  0
 14 15  1  0
 16 10  1  0
 17 16  2  0
 19 18  1  6
 19 20  1  0
 19 21  1  0
 21 22  1  6
 21 23  1  0
 22 16  1  0
 23 24  1  0
 25 23  2  0
M  END
$$$$
