DKV.pdb
     RDKit          3D

 25 24  0  0  1  0  0  0  0  0999 V2000
   16.4391  -14.0263  -17.3749 N   0  0  0  0  0  0  0  0  0  0  0  0
   16.5927  -13.3165  -16.1396 C   0  0  1  0  0  0  0  0  0  0  0  0
   17.1550  -14.1736  -15.0358 C   0  0  0  0  0  0  0  0  0  0  0  0
   16.1517  -15.1974  -14.6413 C   0  0  0  0  0  0  0  0  0  0  0  0
   14.9473  -14.9215  -14.4718 O   0  0  0  0  0  0  0  0  0  0  0  0
   17.4583  -12.1327  -16.3489 C   0  0  0  0  0  0  0  0  0  0  0  0
   18.5830  -12.2744  -16.8982 O   0  0  0  0  0  0  0  0  0  0  0  0
   16.5652  -16.5343  -14.4444 O   0  0  0  0  0  0  0  0  0  0  0  0
   17.0831  -10.8183  -15.9584 N   0  0  0  0  0  0  0  0  0  0  0  0
   17.9429   -9.7032  -16.3247 C   0  0  1  0  0  0  0  0  0  0  0  0
   17.0156   -8.5264  -16.5456 C   0  0  0  0  0  0  0  0  0  0  0  0
   17.6999   -7.2523  -16.8894 C   0  0  0  0  0  0  0  0  0  0  0  0
   16.7418   -6.0897  -17.0355 C   0  0  0  0  0  0  0  0  0  0  0  0
   17.5096   -4.8229  -17.3407 C   0  0  0  0  0  0  0  0  0  0  0  0
   16.6375   -3.6562  -17.3097 N   0  0  0  0  0  0  0  0  0  0  0  0
   18.8844   -9.4038  -15.2378 C   0  0  0  0  0  0  0  0  0  0  0  0
   18.4768   -9.3967  -14.0428 O   0  0  0  0  0  0  0  0  0  0  0  0
   23.0846   -9.4316  -15.9918 C   0  0  0  0  0  0  0  0  0  0  0  0
   22.3905   -9.7218  -14.7038 C   0  0  2  0  0  0  0  0  0  0  0  0
   22.0673  -11.2095  -14.6352 C   0  0  0  0  0  0  0  0  0  0  0  0
   21.1947   -8.8658  -14.4154 C   0  0  2  0  0  0  0  0  0  0  0  0
   20.2413   -9.1215  -15.4797 N   0  0  0  0  0  0  0  0  0  0  0  0
   21.4310   -7.4488  -14.2693 C   0  0  0  0  0  0  0  0  0  0  0  0
   21.8897   -6.8179  -13.1119 O   0  0  0  0  0  0  0  0  0  0  0  0
   21.2163   -6.6875  -15.2465 O   0  0  0  0  0  0  0  0  0  0  0  0
  2  1  1  6
  2  3  1  0
  3  4  1  0
  4  8  1  0
  5  4  2  0
  6  9  1  0
  6  2  1  0
  7  6  2  0
 10  9  1  0
 10 11  1  1
 11 12  1  0
 12 13  1  0
 13 14  1  0
 14 15  1  0
 16 10  1  0
 17 16  2  0
 19 18  1  6
 19 20  1  0
 19 21  1  0
 21 22  1  6
 21 23  1  0
 22 16  1  0
 23 24  1  0
 25 23  2  0
M  END
$$$$
