DKV.pdb
     RDKit          3D

 25 24  0  0  1  0  0  0  0  0999 V2000
   17.4857  -12.2042  -17.6515 N   0  0  0  0  0  0  0  0  0  0  0  0
   17.2536  -11.3108  -16.5554 C   0  0  1  0  0  0  0  0  0  0  0  0
   17.2710  -12.0047  -15.2185 C   0  0  0  0  0  0  0  0  0  0  0  0
   16.0367  -12.8194  -15.0653 C   0  0  0  0  0  0  0  0  0  0  0  0
   15.0839  -12.7451  -15.8665 O   0  0  0  0  0  0  0  0  0  0  0  0
   18.2629  -10.2265  -16.5734 C   0  0  0  0  0  0  0  0  0  0  0  0
   19.4658  -10.5013  -16.8266 O   0  0  0  0  0  0  0  0  0  0  0  0
   15.9250  -13.7111  -13.9748 O   0  0  0  0  0  0  0  0  0  0  0  0
   17.9438   -8.8651  -16.3176 N   0  0  0  0  0  0  0  0  0  0  0  0
   18.9941   -7.8641  -16.4255 C   0  0  1  0  0  0  0  0  0  0  0  0
   18.2940   -6.5747  -16.8010 C   0  0  0  0  0  0  0  0  0  0  0  0
   17.9484   -6.4522  -18.2416 C   0  0  0  0  0  0  0  0  0  0  0  0
   17.1786   -5.1879  -18.5575 C   0  0  0  0  0  0  0  0  0  0  0  0
   16.7893   -5.1716  -20.0188 C   0  0  0  0  0  0  0  0  0  0  0  0
   15.9736   -4.0067  -20.3352 N   0  0  0  0  0  0  0  0  0  0  0  0
   19.6841   -7.7048  -15.1386 C   0  0  0  0  0  0  0  0  0  0  0  0
   19.0137   -7.6855  -14.0689 O   0  0  0  0  0  0  0  0  0  0  0  0
   22.0402  -10.0523  -14.0060 C   0  0  0  0  0  0  0  0  0  0  0  0
   22.7079   -8.7357  -13.7923 C   0  0  2  0  0  0  0  0  0  0  0  0
   23.5686   -8.8104  -12.5369 C   0  0  0  0  0  0  0  0  0  0  0  0
   21.7928   -7.5489  -13.7850 C   0  0  2  0  0  0  0  0  0  0  0  0
   21.0819   -7.5717  -15.0504 N   0  0  0  0  0  0  0  0  0  0  0  0
   22.4040   -6.2594  -13.5643 C   0  0  0  0  0  0  0  0  0  0  0  0
   22.6958   -5.7025  -12.3183 O   0  0  0  0  0  0  0  0  0  0  0  0
   22.7135   -5.5500  -14.5552 O   0  0  0  0  0  0  0  0  0  0  0  0
  2  1  1  6
  2  3  1  0
  3  4  1  0
  4  8  1  0
  5  4  2  0
  6  9  1  0
  6  2  1  0
  7  6  2  0
 10  9  1  0
 10 11  1  1
 11 12  1  0
 12 13  1  0
 13 14  1  0
 14 15  1  0
 16 10  1  0
 17 16  2  0
 19 18  1  1
 19 20  1  0
 19 21  1  0
 21 22  1  6
 21 23  1  0
 22 16  1  0
 23 24  1  0
 25 23  2  0
M  END
$$$$
