DKV.pdb
     RDKit          3D

 25 24  0  0  1  0  0  0  0  0999 V2000
   17.1407  -14.4199  -16.6234 N   0  0  0  0  0  0  0  0  0  0  0  0
   16.7019  -13.1393  -16.1535 C   0  0  1  0  0  0  0  0  0  0  0  0
   16.2709  -13.1593  -14.7103 C   0  0  0  0  0  0  0  0  0  0  0  0
   15.0655  -14.0173  -14.5634 C   0  0  0  0  0  0  0  0  0  0  0  0
   14.0266  -13.8283  -15.2269 O   0  0  0  0  0  0  0  0  0  0  0  0
   17.7806  -12.1419  -16.3434 C   0  0  0  0  0  0  0  0  0  0  0  0
   18.9645  -12.4401  -16.0331 O   0  0  0  0  0  0  0  0  0  0  0  0
   15.0833  -15.0863  -13.6394 O   0  0  0  0  0  0  0  0  0  0  0  0
   17.5510  -10.8410  -16.8685 N   0  0  0  0  0  0  0  0  0  0  0  0
   18.6941   -9.9988  -17.1862 C   0  0  1  0  0  0  0  0  0  0  0  0
   18.1710   -8.9382  -18.1323 C   0  0  0  0  0  0  0  0  0  0  0  0
   19.1319   -8.5164  -19.1852 C   0  0  0  0  0  0  0  0  0  0  0  0
   18.5774   -7.4385  -20.0916 C   0  0  0  0  0  0  0  0  0  0  0  0
   19.6096   -7.0533  -21.1277 C   0  0  0  0  0  0  0  0  0  0  0  0
   19.1615   -5.9180  -21.9230 N   0  0  0  0  0  0  0  0  0  0  0  0
   19.2211   -9.3695  -15.9680 C   0  0  0  0  0  0  0  0  0  0  0  0
   18.4282   -9.0396  -15.0425 O   0  0  0  0  0  0  0  0  0  0  0  0
   23.3211   -9.6087  -14.9878 C   0  0  0  0  0  0  0  0  0  0  0  0
   22.1944   -9.2965  -14.0615 C   0  0  2  0  0  0  0  0  0  0  0  0
   21.6370  -10.5978  -13.4972 C   0  0  0  0  0  0  0  0  0  0  0  0
   21.1224   -8.4186  -14.6324 C   0  0  2  0  0  0  0  0  0  0  0  0
   20.5937   -9.1172  -15.7898 N   0  0  0  0  0  0  0  0  0  0  0  0
   21.5044   -7.0698  -14.9790 C   0  0  0  0  0  0  0  0  0  0  0  0
   21.5007   -6.5311  -16.2665 O   0  0  0  0  0  0  0  0  0  0  0  0
   21.8776   -6.2856  -14.0699 O   0  0  0  0  0  0  0  0  0  0  0  0
  2  1  1  1
  2  3  1  0
  3  4  1  0
  4  8  1  0
  5  4  2  0
  6  9  1  0
  6  2  1  0
  7  6  2  0
 10  9  1  0
 10 11  1  6
 11 12  1  0
 12 13  1  0
 13 14  1  0
 14 15  1  0
 16 10  1  0
 17 16  2  0
 19 18  1  6
 19 20  1  0
 19 21  1  0
 21 22  1  6
 21 23  1  0
 22 16  1  0
 23 24  1  0
 25 23  2  0
M  END
$$$$
