DKV.pdb
     RDKit          3D

 25 24  0  0  1  0  0  0  0  0999 V2000
   16.6560  -13.7326  -17.1584 N   0  0  0  0  0  0  0  0  0  0  0  0
   16.2761  -12.5278  -16.4820 C   0  0  1  0  0  0  0  0  0  0  0  0
   15.9841  -12.7424  -15.0198 C   0  0  0  0  0  0  0  0  0  0  0  0
   14.7762  -13.5970  -14.8744 C   0  0  0  0  0  0  0  0  0  0  0  0
   13.7158  -13.3643  -15.4882 O   0  0  0  0  0  0  0  0  0  0  0  0
   17.3413  -11.5104  -16.6390 C   0  0  0  0  0  0  0  0  0  0  0  0
   18.5496  -11.8645  -16.6001 O   0  0  0  0  0  0  0  0  0  0  0  0
   14.8166  -14.7138  -14.0096 O   0  0  0  0  0  0  0  0  0  0  0  0
   17.0717  -10.1288  -16.8370 N   0  0  0  0  0  0  0  0  0  0  0  0
   18.1702   -9.2406  -17.1855 C   0  0  1  0  0  0  0  0  0  0  0  0
   17.5491   -8.1166  -17.9883 C   0  0  0  0  0  0  0  0  0  0  0  0
   17.3990   -8.3994  -19.4400 C   0  0  0  0  0  0  0  0  0  0  0  0
   16.7959   -7.2421  -20.2066 C   0  0  0  0  0  0  0  0  0  0  0  0
   16.5722   -7.6384  -21.6489 C   0  0  0  0  0  0  0  0  0  0  0  0
   16.1112   -6.5068  -22.4422 N   0  0  0  0  0  0  0  0  0  0  0  0
   18.7991   -8.7031  -15.9718 C   0  0  0  0  0  0  0  0  0  0  0  0
   18.0804   -8.3933  -14.9809 O   0  0  0  0  0  0  0  0  0  0  0  0
   22.5555   -8.9346  -13.0033 C   0  0  0  0  0  0  0  0  0  0  0  0
   21.8411   -9.1378  -14.2969 C   0  0  2  0  0  0  0  0  0  0  0  0
   22.8657   -9.3515  -15.4047 C   0  0  0  0  0  0  0  0  0  0  0  0
   20.8380   -8.0805  -14.6458 C   0  0  2  0  0  0  0  0  0  0  0  0
   20.1899   -8.5180  -15.8688 N   0  0  0  0  0  0  0  0  0  0  0  0
   21.3375   -6.7328  -14.7849 C   0  0  0  0  0  0  0  0  0  0  0  0
   21.5601   -5.8380  -13.7372 O   0  0  0  0  0  0  0  0  0  0  0  0
   21.6056   -6.2937  -15.9321 O   0  0  0  0  0  0  0  0  0  0  0  0
  2  1  1  1
  2  3  1  0
  3  4  1  0
  4  8  1  0
  5  4  2  0
  6  9  1  0
  6  2  1  0
  7  6  2  0
 10  9  1  0
 10 11  1  6
 11 12  1  0
 12 13  1  0
 13 14  1  0
 14 15  1  0
 16 10  1  0
 17 16  2  0
 19 18  1  1
 19 20  1  0
 19 21  1  0
 21 22  1  6
 21 23  1  0
 22 16  1  0
 23 24  1  0
 25 23  2  0
M  END
$$$$
