DKV.pdb
     RDKit          3D

 25 24  0  0  1  0  0  0  0  0999 V2000
   23.4563  -11.9751  -18.3617 N   0  0  0  0  0  0  0  0  0  0  0  0
   23.3885  -11.6660  -16.9642 C   0  0  1  0  0  0  0  0  0  0  0  0
   24.7453  -11.5785  -16.3156 C   0  0  0  0  0  0  0  0  0  0  0  0
   25.3646  -12.9295  -16.2745 C   0  0  0  0  0  0  0  0  0  0  0  0
   24.8148  -13.9315  -16.7738 O   0  0  0  0  0  0  0  0  0  0  0  0
   22.6542  -10.3942  -16.7697 C   0  0  0  0  0  0  0  0  0  0  0  0
   22.9008   -9.4130  -17.5202 O   0  0  0  0  0  0  0  0  0  0  0  0
   26.6192  -13.0988  -15.6468 O   0  0  0  0  0  0  0  0  0  0  0  0
   21.6652  -10.2151  -15.7644 N   0  0  0  0  0  0  0  0  0  0  0  0
   20.8573   -9.0052  -15.7799 C   0  0  1  0  0  0  0  0  0  0  0  0
   19.5548   -9.3737  -15.1008 C   0  0  0  0  0  0  0  0  0  0  0  0
   18.6575  -10.2420  -15.9075 C   0  0  0  0  0  0  0  0  0  0  0  0
   17.3537  -10.5557  -15.2056 C   0  0  0  0  0  0  0  0  0  0  0  0
   16.4926  -11.4352  -16.0843 C   0  0  0  0  0  0  0  0  0  0  0  0
   15.1992  -11.6950  -15.4660 N   0  0  0  0  0  0  0  0  0  0  0  0
   21.5272   -7.9322  -15.0332 C   0  0  0  0  0  0  0  0  0  0  0  0
   22.0223   -8.1767  -13.8977 O   0  0  0  0  0  0  0  0  0  0  0  0
   22.4601   -4.2337  -16.9806 C   0  0  0  0  0  0  0  0  0  0  0  0
   23.1983   -4.8767  -15.8551 C   0  0  2  0  0  0  0  0  0  0  0  0
   24.2718   -5.7970  -16.4234 C   0  0  0  0  0  0  0  0  0  0  0  0
   22.3392   -5.5646  -14.8379 C   0  0  2  0  0  0  0  0  0  0  0  0
   21.6408   -6.6252  -15.5412 N   0  0  0  0  0  0  0  0  0  0  0  0
   21.4093   -4.7363  -14.1069 C   0  0  0  0  0  0  0  0  0  0  0  0
   20.0190   -4.7830  -14.2200 O   0  0  0  0  0  0  0  0  0  0  0  0
   21.8534   -3.8897  -13.2904 O   0  0  0  0  0  0  0  0  0  0  0  0
  2  1  1  6
  2  3  1  0
  3  4  1  0
  4  8  1  0
  5  4  2  0
  6  9  1  0
  6  2  1  0
  7  6  2  0
 10  9  1  0
 10 11  1  1
 11 12  1  0
 12 13  1  0
 13 14  1  0
 14 15  1  0
 16 10  1  0
 17 16  2  0
 19 18  1  6
 19 20  1  0
 19 21  1  0
 21 22  1  6
 21 23  1  0
 22 16  1  0
 23 24  1  0
 25 23  2  0
M  END
$$$$
