DKV.pdb
     RDKit          3D

 25 24  0  0  1  0  0  0  0  0999 V2000
   18.3720  -23.3301  -13.1250 N   0  0  0  0  0  0  0  0  0  0  0  0
   18.2863  -22.4418  -14.2461 C   0  0  1  0  0  0  0  0  0  0  0  0
   17.2412  -21.3715  -14.0687 C   0  0  0  0  0  0  0  0  0  0  0  0
   15.8978  -21.9342  -14.3672 C   0  0  0  0  0  0  0  0  0  0  0  0
   15.7323  -23.1223  -14.7081 O   0  0  0  0  0  0  0  0  0  0  0  0
   19.6080  -21.8196  -14.4917 C   0  0  0  0  0  0  0  0  0  0  0  0
   19.9389  -20.7886  -13.8481 O   0  0  0  0  0  0  0  0  0  0  0  0
   14.7597  -21.1024  -14.2685 O   0  0  0  0  0  0  0  0  0  0  0  0
   20.5443  -22.3317  -15.4309 N   0  0  0  0  0  0  0  0  0  0  0  0
   21.8744  -21.7451  -15.4895 C   0  0  1  0  0  0  0  0  0  0  0  0
   22.7854  -22.8452  -15.9930 C   0  0  0  0  0  0  0  0  0  0  0  0
   24.2203  -22.4687  -16.0880 C   0  0  0  0  0  0  0  0  0  0  0  0
   25.0993  -23.6094  -16.5539 C   0  0  0  0  0  0  0  0  0  0  0  0
   26.5517  -23.1891  -16.5212 C   0  0  0  0  0  0  0  0  0  0  0  0
   27.4291  -24.2915  -16.8919 N   0  0  0  0  0  0  0  0  0  0  0  0
   21.8933  -20.6108  -16.4227 C   0  0  0  0  0  0  0  0  0  0  0  0
   21.2780  -20.6962  -17.5219 O   0  0  0  0  0  0  0  0  0  0  0  0
   20.5620  -17.2842  -16.2147 C   0  0  0  0  0  0  0  0  0  0  0  0
   22.0280  -17.1409  -16.4495 C   0  0  2  0  0  0  0  0  0  0  0  0
   22.2865  -15.8507  -17.2184 C   0  0  0  0  0  0  0  0  0  0  0  0
   22.6921  -18.3246  -17.0849 C   0  0  2  0  0  0  0  0  0  0  0  0
   22.5792  -19.4166  -16.1350 N   0  0  0  0  0  0  0  0  0  0  0  0
   24.0626  -18.1516  -17.5055 C   0  0  0  0  0  0  0  0  0  0  0  0
   24.4748  -17.6479  -18.7400 O   0  0  0  0  0  0  0  0  0  0  0  0
   24.9902  -18.4711  -16.7192 O   0  0  0  0  0  0  0  0  0  0  0  0
  2  1  1  1
  2  3  1  0
  3  4  1  0
  4  8  1  0
  5  4  2  0
  6  9  1  0
  6  2  1  0
  7  6  2  0
 10  9  1  0
 10 11  1  6
 11 12  1  0
 12 13  1  0
 13 14  1  0
 14 15  1  0
 16 10  1  0
 17 16  2  0
 19 18  1  6
 19 20  1  0
 19 21  1  0
 21 22  1  1
 21 23  1  0
 22 16  1  0
 23 24  1  0
 25 23  2  0
M  END
$$$$
