DKV.pdb
     RDKit          3D

 25 24  0  0  1  0  0  0  0  0999 V2000
   17.7542  -14.6644  -17.6782 N   0  0  0  0  0  0  0  0  0  0  0  0
   17.7173  -14.0347  -16.3915 C   0  0  1  0  0  0  0  0  0  0  0  0
   18.5247  -14.7705  -15.3543 C   0  0  0  0  0  0  0  0  0  0  0  0
   17.7346  -15.9154  -14.8295 C   0  0  0  0  0  0  0  0  0  0  0  0
   16.5069  -16.0227  -15.0205 O   0  0  0  0  0  0  0  0  0  0  0  0
   18.1970  -12.6379  -16.5059 C   0  0  0  0  0  0  0  0  0  0  0  0
   19.2883  -12.4012  -17.0888 O   0  0  0  0  0  0  0  0  0  0  0  0
   18.3854  -16.9230  -14.0825 O   0  0  0  0  0  0  0  0  0  0  0  0
   17.4798  -11.5261  -15.9858 N   0  0  0  0  0  0  0  0  0  0  0  0
   18.0020  -10.1862  -16.2071 C   0  0  1  0  0  0  0  0  0  0  0  0
   16.7952   -9.2712  -16.2073 C   0  0  0  0  0  0  0  0  0  0  0  0
   15.9432   -9.3669  -17.4217 C   0  0  0  0  0  0  0  0  0  0  0  0
   14.7103   -8.4922  -17.3470 C   0  0  0  0  0  0  0  0  0  0  0  0
   13.8931   -8.6423  -18.6107 C   0  0  0  0  0  0  0  0  0  0  0  0
   12.7289   -7.7665  -18.5941 N   0  0  0  0  0  0  0  0  0  0  0  0
   18.9189   -9.8083  -15.1236 C   0  0  0  0  0  0  0  0  0  0  0  0
   18.5821  -10.0064  -13.9230 O   0  0  0  0  0  0  0  0  0  0  0  0
   23.0001   -8.9687  -15.9979 C   0  0  0  0  0  0  0  0  0  0  0  0
   22.4302   -9.4892  -14.7214 C   0  0  2  0  0  0  0  0  0  0  0  0
   22.3834  -11.0113  -14.7798 C   0  0  0  0  0  0  0  0  0  0  0  0
   21.1147   -8.8944  -14.3196 C   0  0  2  0  0  0  0  0  0  0  0  0
   20.1751   -9.2269  -15.3750 N   0  0  0  0  0  0  0  0  0  0  0  0
   21.0994   -7.4762  -14.0485 C   0  0  0  0  0  0  0  0  0  0  0  0
   21.6028   -6.8644  -12.8996 O   0  0  0  0  0  0  0  0  0  0  0  0
   20.5981   -6.6953  -14.8969 O   0  0  0  0  0  0  0  0  0  0  0  0
  2  1  1  6
  2  3  1  0
  3  4  1  0
  4  8  1  0
  5  4  2  0
  6  9  1  0
  6  2  1  0
  7  6  2  0
 10  9  1  0
 10 11  1  1
 11 12  1  0
 12 13  1  0
 13 14  1  0
 14 15  1  0
 16 10  1  0
 17 16  2  0
 19 18  1  6
 19 20  1  0
 19 21  1  0
 21 22  1  6
 21 23  1  0
 22 16  1  0
 23 24  1  0
 25 23  2  0
M  END
$$$$
