DKV.pdb
     RDKit          3D

 25 24  0  0  1  0  0  0  0  0999 V2000
   26.3360  -20.2621  -18.3126 N   0  0  0  0  0  0  0  0  0  0  0  0
   26.3620  -19.3230  -17.2307 C   0  0  1  0  0  0  0  0  0  0  0  0
   25.0884  -18.5272  -17.1130 C   0  0  0  0  0  0  0  0  0  0  0  0
   24.9989  -17.5628  -18.2410 C   0  0  0  0  0  0  0  0  0  0  0  0
   23.9798  -17.4605  -18.9526 O   0  0  0  0  0  0  0  0  0  0  0  0
   26.6311  -20.0340  -15.9593 C   0  0  0  0  0  0  0  0  0  0  0  0
   25.8647  -20.9642  -15.5931 O   0  0  0  0  0  0  0  0  0  0  0  0
   26.1026  -16.7292  -18.5303 O   0  0  0  0  0  0  0  0  0  0  0  0
   27.7290  -19.7209  -15.1123 N   0  0  0  0  0  0  0  0  0  0  0  0
   27.8636  -20.4245  -13.8459 C   0  0  1  0  0  0  0  0  0  0  0  0
   29.2545  -20.0992  -13.3426 C   0  0  0  0  0  0  0  0  0  0  0  0
   29.5977  -20.7063  -12.0297 C   0  0  0  0  0  0  0  0  0  0  0  0
   31.0333  -20.4548  -11.6216 C   0  0  0  0  0  0  0  0  0  0  0  0
   31.3274  -21.1506  -10.3114 C   0  0  0  0  0  0  0  0  0  0  0  0
   31.3559  -22.5978  -10.4766 N   0  0  0  0  0  0  0  0  0  0  0  0
   26.8582  -19.9493  -12.8864 C   0  0  0  0  0  0  0  0  0  0  0  0
   26.6781  -18.7090  -12.7335 O   0  0  0  0  0  0  0  0  0  0  0  0
   22.6999  -20.2205  -10.6346 C   0  0  0  0  0  0  0  0  0  0  0  0
   23.7891  -20.6018  -11.5796 C   0  0  2  0  0  0  0  0  0  0  0  0
   23.5606  -22.0320  -12.0537 C   0  0  0  0  0  0  0  0  0  0  0  0
   25.1818  -20.3872  -11.0695 C   0  0  2  0  0  0  0  0  0  0  0  0
   26.0770  -20.8344  -12.1211 N   0  0  0  0  0  0  0  0  0  0  0  0
   25.5160  -21.0134   -9.8120 C   0  0  0  0  0  0  0  0  0  0  0  0
   26.3786  -22.0986   -9.6501 O   0  0  0  0  0  0  0  0  0  0  0  0
   25.0057  -20.5704   -8.7518 O   0  0  0  0  0  0  0  0  0  0  0  0
  2  1  1  6
  2  3  1  0
  3  4  1  0
  4  8  1  0
  5  4  2  0
  6  9  1  0
  6  2  1  0
  7  6  2  0
 10  9  1  0
 10 11  1  1
 11 12  1  0
 12 13  1  0
 13 14  1  0
 14 15  1  0
 16 10  1  0
 17 16  2  0
 19 18  1  1
 19 20  1  0
 19 21  1  0
 21 22  1  6
 21 23  1  0
 22 16  1  0
 23 24  1  0
 25 23  2  0
M  END
$$$$
