DKQ.pdb
     RDKit          3D

 27 26  0  0  1  0  0  0  0  0999 V2000
   24.9349  -10.9503  -19.5054 N   0  0  0  0  0  0  0  0  0  0  0  0
   23.9154  -11.2557  -18.5334 C   0  0  1  0  0  0  0  0  0  0  0  0
   24.5758  -11.2917  -17.1687 C   0  0  0  0  0  0  0  0  0  0  0  0
   25.4104  -12.5153  -17.0110 C   0  0  0  0  0  0  0  0  0  0  0  0
   25.5295  -13.2966  -17.9836 O   0  0  0  0  0  0  0  0  0  0  0  0
   22.9082  -10.1805  -18.5194 C   0  0  0  0  0  0  0  0  0  0  0  0
   23.1505   -9.0232  -18.9695 O   0  0  0  0  0  0  0  0  0  0  0  0
   26.0587  -12.8225  -15.8336 O   0  0  0  0  0  0  0  0  0  0  0  0
   21.6315  -10.4239  -17.9949 N   0  0  0  0  0  0  0  0  0  0  0  0
   20.4927   -9.4768  -18.1696 C   0  0  1  0  0  0  0  0  0  0  0  0
   19.2586  -10.3041  -18.2469 C   0  0  0  0  0  0  0  0  0  0  0  0
   18.0267   -9.5270  -18.4686 C   0  0  0  0  0  0  0  0  0  0  0  0
   16.7800  -10.3658  -18.6120 C   0  0  0  0  0  0  0  0  0  0  0  0
   15.5510   -9.5657  -18.9079 C   0  0  0  0  0  0  0  0  0  0  0  0
   14.3448  -10.3629  -18.9023 N   0  0  0  0  0  0  0  0  0  0  0  0
   20.5600   -8.4412  -17.1536 C   0  0  0  0  0  0  0  0  0  0  0  0
   19.6371   -7.5481  -17.1734 O   0  0  0  0  0  0  0  0  0  0  0  0
   23.0389   -3.8706  -17.3414 N   0  0  0  0  0  0  0  0  0  0  0  0
   23.7188   -4.2693  -16.1834 C   0  0  0  0  0  0  0  0  0  0  0  0
   24.7870   -3.7389  -15.8557 O   0  0  0  0  0  0  0  0  0  0  0  0
   23.1735   -5.3548  -15.3000 C   0  0  0  0  0  0  0  0  0  0  0  0
   21.8857   -5.8965  -15.8519 C   0  0  0  0  0  0  0  0  0  0  0  0
   21.5096   -7.1663  -15.1859 C   0  0  2  0  0  0  0  0  0  0  0  0
   21.5106   -8.2849  -16.1330 N   0  0  0  0  0  0  0  0  0  0  0  0
   20.2192   -7.0953  -14.5181 C   0  0  0  0  0  0  0  0  0  0  0  0
   19.1596   -7.2348  -15.2360 O   0  0  0  0  0  0  0  0  0  0  0  0
   20.0360   -6.8893  -13.1479 O   0  0  0  0  0  0  0  0  0  0  0  0
  2  1  1  6
  3  2  1  0
  4  3  1  0
  5  4  2  0
  6  7  2  0
  6  2  1  0
  8  4  1  0
  9  6  1  0
 10 11  1  1
 10  9  1  0
 11 12  1  0
 13 12  1  0
 14 13  1  0
 15 14  1  0
 16 17  2  0
 16 10  1  0
 18 19  1  0
 19 20  2  0
 19 21  1  0
 21 22  1  0
 23 22  1  6
 23 24  1  0
 24 16  1  0
 25 23  1  0
 25 27  1  0
 26 25  2  0
M  END
$$$$
