DKQ.pdb
     RDKit          3D

 27 26  0  0  1  0  0  0  0  0999 V2000
   27.9317  -23.2124  -18.1324 N   0  0  0  0  0  0  0  0  0  0  0  0
   28.0987  -23.6382  -16.7656 C   0  0  1  0  0  0  0  0  0  0  0  0
   29.5863  -23.7733  -16.5035 C   0  0  0  0  0  0  0  0  0  0  0  0
   30.1819  -24.8476  -17.3458 C   0  0  0  0  0  0  0  0  0  0  0  0
   29.4726  -25.3920  -18.2239 O   0  0  0  0  0  0  0  0  0  0  0  0
   27.5723  -22.6037  -15.8581 C   0  0  0  0  0  0  0  0  0  0  0  0
   28.3152  -21.9720  -15.0519 O   0  0  0  0  0  0  0  0  0  0  0  0
   31.4867  -25.2675  -17.1966 O   0  0  0  0  0  0  0  0  0  0  0  0
   26.2061  -22.2913  -15.8698 N   0  0  0  0  0  0  0  0  0  0  0  0
   25.6220  -21.1921  -15.0484 C   0  0  1  0  0  0  0  0  0  0  0  0
   26.2718  -19.9319  -15.4990 C   0  0  0  0  0  0  0  0  0  0  0  0
   26.2989  -19.7590  -16.9619 C   0  0  0  0  0  0  0  0  0  0  0  0
   25.8501  -18.3978  -17.4354 C   0  0  0  0  0  0  0  0  0  0  0  0
   26.0215  -18.1894  -18.9068 C   0  0  0  0  0  0  0  0  0  0  0  0
   25.4855  -16.9266  -19.3633 N   0  0  0  0  0  0  0  0  0  0  0  0
   24.1724  -21.2684  -15.0925 C   0  0  0  0  0  0  0  0  0  0  0  0
   23.6357  -21.4509  -16.2451 O   0  0  0  0  0  0  0  0  0  0  0  0
   20.4103  -23.0775  -16.3869 N   0  0  0  0  0  0  0  0  0  0  0  0
   19.4067  -22.8559  -15.4352 C   0  0  0  0  0  0  0  0  0  0  0  0
   18.2103  -22.9225  -15.7417 O   0  0  0  0  0  0  0  0  0  0  0  0
   19.7494  -22.5299  -14.0096 C   0  0  0  0  0  0  0  0  0  0  0  0
   21.2381  -22.5047  -13.8102 C   0  0  0  0  0  0  0  0  0  0  0  0
   21.8081  -21.1919  -14.1962 C   0  0  2  0  0  0  0  0  0  0  0  0
   23.2638  -21.1730  -14.0270 N   0  0  0  0  0  0  0  0  0  0  0  0
   21.2187  -20.0811  -13.4648 C   0  0  0  0  0  0  0  0  0  0  0  0
   21.9416  -19.4911  -12.5778 O   0  0  0  0  0  0  0  0  0  0  0  0
   19.9209  -19.5970  -13.6515 O   0  0  0  0  0  0  0  0  0  0  0  0
  2  1  1  6
  3  2  1  0
  4  3  1  0
  5  4  2  0
  6  7  2  0
  6  2  1  0
  8  4  1  0
  9  6  1  0
 10 11  1  6
 10  9  1  0
 11 12  1  0
 13 12  1  0
 14 13  1  0
 15 14  1  0
 16 17  2  0
 16 10  1  0
 18 19  1  0
 19 20  2  0
 19 21  1  0
 21 22  1  0
 23 22  1  1
 23 24  1  0
 24 16  1  0
 25 23  1  0
 25 27  1  0
 26 25  2  0
M  END
$$$$
