DKQ.pdb
     RDKit          3D

 27 26  0  0  1  0  0  0  0  0999 V2000
   21.3889  -12.0918  -21.5051 N   0  0  0  0  0  0  0  0  0  0  0  0
   22.0583  -12.0357  -20.2300 C   0  0  1  0  0  0  0  0  0  0  0  0
   23.3883  -11.3375  -20.4382 C   0  0  0  0  0  0  0  0  0  0  0  0
   24.3622  -12.2349  -21.1199 C   0  0  0  0  0  0  0  0  0  0  0  0
   24.0533  -13.4354  -21.3039 O   0  0  0  0  0  0  0  0  0  0  0  0
   21.2646  -11.2246  -19.2904 C   0  0  0  0  0  0  0  0  0  0  0  0
   20.6238  -10.1982  -19.6600 O   0  0  0  0  0  0  0  0  0  0  0  0
   25.5934  -11.7950  -21.5575 O   0  0  0  0  0  0  0  0  0  0  0  0
   21.2021  -11.5821  -17.9367 N   0  0  0  0  0  0  0  0  0  0  0  0
   20.3282  -10.8773  -16.9549 C   0  0  1  0  0  0  0  0  0  0  0  0
   19.7763  -11.9209  -16.0496 C   0  0  0  0  0  0  0  0  0  0  0  0
   18.8584  -11.4007  -15.0214 C   0  0  0  0  0  0  0  0  0  0  0  0
   17.4039  -11.7212  -15.2671 C   0  0  0  0  0  0  0  0  0  0  0  0
   16.4922  -11.2306  -14.1873 C   0  0  0  0  0  0  0  0  0  0  0  0
   15.1402  -11.7243  -14.3239 N   0  0  0  0  0  0  0  0  0  0  0  0
   21.0573   -9.7710  -16.3600 C   0  0  0  0  0  0  0  0  0  0  0  0
   22.3314   -9.7617  -16.5222 O   0  0  0  0  0  0  0  0  0  0  0  0
   21.8424   -4.3251  -17.7410 N   0  0  0  0  0  0  0  0  0  0  0  0
   22.4599   -4.2533  -16.4857 C   0  0  0  0  0  0  0  0  0  0  0  0
   23.1248   -3.2635  -16.1571 O   0  0  0  0  0  0  0  0  0  0  0  0
   22.3354   -5.3761  -15.4958 C   0  0  0  0  0  0  0  0  0  0  0  0
   21.5014   -6.4926  -16.0562 C   0  0  0  0  0  0  0  0  0  0  0  0
   21.3797   -7.6084  -15.0879 C   0  0  2  0  0  0  0  0  0  0  0  0
   20.5482   -8.6901  -15.6236 N   0  0  0  0  0  0  0  0  0  0  0  0
   20.8559   -7.1850  -13.7985 C   0  0  0  0  0  0  0  0  0  0  0  0
   19.6028   -7.3676  -13.5666 O   0  0  0  0  0  0  0  0  0  0  0  0
   21.6109   -6.5939  -12.7816 O   0  0  0  0  0  0  0  0  0  0  0  0
  2  1  1  6
  3  2  1  0
  4  3  1  0
  5  4  2  0
  6  7  2  0
  6  2  1  0
  8  4  1  0
  9  6  1  0
 10 11  1  1
 10  9  1  0
 11 12  1  0
 13 12  1  0
 14 13  1  0
 15 14  1  0
 16 17  2  0
 16 10  1  0
 18 19  1  0
 19 20  2  0
 19 21  1  0
 21 22  1  0
 23 22  1  6
 23 24  1  0
 24 16  1  0
 25 23  1  0
 25 27  1  0
 26 25  2  0
M  END
$$$$
