DKQ.pdb
     RDKit          3D

 27 26  0  0  1  0  0  0  0  0999 V2000
   21.0844  -12.9961  -19.8006 N   0  0  0  0  0  0  0  0  0  0  0  0
   21.0020  -13.0675  -18.3634 C   0  0  1  0  0  0  0  0  0  0  0  0
   22.3360  -12.6141  -17.8024 C   0  0  0  0  0  0  0  0  0  0  0  0
   23.4028  -13.6142  -18.0859 C   0  0  0  0  0  0  0  0  0  0  0  0
   23.0989  -14.6684  -18.6914 O   0  0  0  0  0  0  0  0  0  0  0  0
   19.9686  -12.1348  -17.8808 C   0  0  0  0  0  0  0  0  0  0  0  0
   19.7459  -11.0242  -18.4443 O   0  0  0  0  0  0  0  0  0  0  0  0
   24.7148  -13.4246  -17.7070 O   0  0  0  0  0  0  0  0  0  0  0  0
   19.1934  -12.4670  -16.7614 N   0  0  0  0  0  0  0  0  0  0  0  0
   18.1209  -11.5777  -16.2292 C   0  0  1  0  0  0  0  0  0  0  0  0
   17.0443  -12.4677  -15.7173 C   0  0  0  0  0  0  0  0  0  0  0  0
   15.8713  -11.7500  -15.1888 C   0  0  0  0  0  0  0  0  0  0  0  0
   14.7842  -12.6478  -14.6496 C   0  0  0  0  0  0  0  0  0  0  0  0
   13.6127  -11.9017  -14.0938 C   0  0  0  0  0  0  0  0  0  0  0  0
   12.5073  -12.7664  -13.7464 N   0  0  0  0  0  0  0  0  0  0  0  0
   18.7003  -10.6088  -15.3154 C   0  0  0  0  0  0  0  0  0  0  0  0
   19.7042  -10.9992  -14.6158 O   0  0  0  0  0  0  0  0  0  0  0  0
   22.2437   -6.4244  -16.1528 N   0  0  0  0  0  0  0  0  0  0  0  0
   22.1369   -6.2641  -14.7653 C   0  0  0  0  0  0  0  0  0  0  0  0
   22.8896   -5.4984  -14.1514 O   0  0  0  0  0  0  0  0  0  0  0  0
   21.1044   -7.0167  -13.9757 C   0  0  0  0  0  0  0  0  0  0  0  0
   20.3399   -7.9611  -14.8590 C   0  0  0  0  0  0  0  0  0  0  0  0
   19.0480   -8.3450  -14.2416 C   0  0  2  0  0  0  0  0  0  0  0  0
   18.3075   -9.2797  -15.0937 N   0  0  0  0  0  0  0  0  0  0  0  0
   18.2069   -7.1999  -13.9296 C   0  0  0  0  0  0  0  0  0  0  0  0
   18.6240   -6.3696  -13.0384 O   0  0  0  0  0  0  0  0  0  0  0  0
   16.9736   -6.9248  -14.5269 O   0  0  0  0  0  0  0  0  0  0  0  0
  2  1  1  6
  3  2  1  0
  4  3  1  0
  5  4  2  0
  6  7  2  0
  6  2  1  0
  8  4  1  0
  9  6  1  0
 10 11  1  1
 10  9  1  0
 11 12  1  0
 13 12  1  0
 14 13  1  0
 15 14  1  0
 16 17  2  0
 16 10  1  0
 18 19  1  0
 19 20  2  0
 19 21  1  0
 21 22  1  0
 23 22  1  6
 23 24  1  0
 24 16  1  0
 25 23  1  0
 25 27  1  0
 26 25  2  0
M  END
$$$$
