DKQ.pdb
     RDKit          3D

 27 26  0  0  1  0  0  0  0  0999 V2000
   16.5419  -12.6901  -14.9998 N   0  0  0  0  0  0  0  0  0  0  0  0
   16.7825  -11.5600  -15.8613 C   0  0  1  0  0  0  0  0  0  0  0  0
   16.0007  -10.3841  -15.3082 C   0  0  0  0  0  0  0  0  0  0  0  0
   14.5341  -10.6302  -15.3925 C   0  0  0  0  0  0  0  0  0  0  0  0
   13.8622  -10.6530  -14.3349 O   0  0  0  0  0  0  0  0  0  0  0  0
   18.2128  -11.2079  -15.8266 C   0  0  0  0  0  0  0  0  0  0  0  0
   18.8128  -10.9286  -14.7483 O   0  0  0  0  0  0  0  0  0  0  0  0
   13.8856  -10.8345  -16.5919 O   0  0  0  0  0  0  0  0  0  0  0  0
   18.9547  -11.1745  -17.0151 N   0  0  0  0  0  0  0  0  0  0  0  0
   20.4331  -10.9797  -17.0390 C   0  0  1  0  0  0  0  0  0  0  0  0
   20.9361  -11.6829  -18.2498 C   0  0  0  0  0  0  0  0  0  0  0  0
   20.8989  -13.1523  -18.1507 C   0  0  0  0  0  0  0  0  0  0  0  0
   21.2767  -13.8708  -19.4233 C   0  0  0  0  0  0  0  0  0  0  0  0
   21.1493  -15.3586  -19.3311 C   0  0  0  0  0  0  0  0  0  0  0  0
   21.3513  -16.0211  -20.6001 N   0  0  0  0  0  0  0  0  0  0  0  0
   20.7411   -9.5683  -16.8897 C   0  0  0  0  0  0  0  0  0  0  0  0
   19.9380   -8.7368  -17.4496 O   0  0  0  0  0  0  0  0  0  0  0  0
   21.5683   -5.6642  -12.7463 N   0  0  0  0  0  0  0  0  0  0  0  0
   22.3789   -4.9826  -13.6631 C   0  0  0  0  0  0  0  0  0  0  0  0
   22.5792   -3.7667  -13.5574 O   0  0  0  0  0  0  0  0  0  0  0  0
   23.0326   -5.7054  -14.8060 C   0  0  0  0  0  0  0  0  0  0  0  0
   22.6373   -7.1546  -14.8179 C   0  0  0  0  0  0  0  0  0  0  0  0
   22.0287   -7.5332  -16.1156 C   0  0  2  0  0  0  0  0  0  0  0  0
   21.8131   -8.9804  -16.2004 N   0  0  0  0  0  0  0  0  0  0  0  0
   22.8111   -7.0898  -17.2590 C   0  0  0  0  0  0  0  0  0  0  0  0
   23.6244   -7.9308  -17.7965 O   0  0  0  0  0  0  0  0  0  0  0  0
   22.7477   -5.8147  -17.8278 O   0  0  0  0  0  0  0  0  0  0  0  0
  2  1  1  1
  3  2  1  0
  4  3  1  0
  5  4  2  0
  6  7  2  0
  6  2  1  0
  8  4  1  0
  9  6  1  0
 10 11  1  6
 10  9  1  0
 11 12  1  0
 13 12  1  0
 14 13  1  0
 15 14  1  0
 16 17  2  0
 16 10  1  0
 18 19  1  0
 19 20  2  0
 19 21  1  0
 21 22  1  0
 23 22  1  1
 23 24  1  0
 24 16  1  0
 25 23  1  0
 25 27  1  0
 26 25  2  0
M  END
$$$$
