DKQ.pdb
     RDKit          3D

 27 26  0  0  1  0  0  0  0  0999 V2000
   18.8866  -13.1699  -16.6629 N   0  0  0  0  0  0  0  0  0  0  0  0
   19.2521  -12.3245  -15.5543 C   0  0  1  0  0  0  0  0  0  0  0  0
   20.5295  -11.5986  -15.9299 C   0  0  0  0  0  0  0  0  0  0  0  0
   21.6814  -12.5410  -15.9915 C   0  0  0  0  0  0  0  0  0  0  0  0
   21.5546  -13.6853  -15.4966 O   0  0  0  0  0  0  0  0  0  0  0  0
   18.2039  -11.3118  -15.3387 C   0  0  0  0  0  0  0  0  0  0  0  0
   17.5869  -10.7646  -16.2981 O   0  0  0  0  0  0  0  0  0  0  0  0
   22.8846  -12.2023  -16.5734 O   0  0  0  0  0  0  0  0  0  0  0  0
   17.8614  -10.9251  -14.0358 N   0  0  0  0  0  0  0  0  0  0  0  0
   16.7921   -9.9270  -13.7445 C   0  0  1  0  0  0  0  0  0  0  0  0
   16.1425  -10.3563  -12.4768 C   0  0  0  0  0  0  0  0  0  0  0  0
   15.0190   -9.5005  -12.0571 C   0  0  0  0  0  0  0  0  0  0  0  0
   14.3377   -9.9480  -10.7866 C   0  0  0  0  0  0  0  0  0  0  0  0
   13.1888   -9.0780  -10.3853 C   0  0  0  0  0  0  0  0  0  0  0  0
   12.4518   -9.6026   -9.2574 N   0  0  0  0  0  0  0  0  0  0  0  0
   17.3464   -8.5862  -13.8097 C   0  0  0  0  0  0  0  0  0  0  0  0
   18.4145   -8.3662  -13.1311 O   0  0  0  0  0  0  0  0  0  0  0  0
   18.5047   -4.8595  -18.4897 N   0  0  0  0  0  0  0  0  0  0  0  0
   18.8097   -4.0174  -17.4127 C   0  0  0  0  0  0  0  0  0  0  0  0
   19.3063   -2.8997  -17.5969 O   0  0  0  0  0  0  0  0  0  0  0  0
   18.5439   -4.4432  -15.9971 C   0  0  0  0  0  0  0  0  0  0  0  0
   17.8478   -5.7739  -15.9610 C   0  0  0  0  0  0  0  0  0  0  0  0
   17.5424   -6.1811  -14.5687 C   0  0  2  0  0  0  0  0  0  0  0  0
   16.8670   -7.4813  -14.5303 N   0  0  0  0  0  0  0  0  0  0  0  0
   16.7454   -5.1972  -13.8526 C   0  0  0  0  0  0  0  0  0  0  0  0
   15.4867   -5.4277  -13.7108 O   0  0  0  0  0  0  0  0  0  0  0  0
   17.2412   -4.0136  -13.2986 O   0  0  0  0  0  0  0  0  0  0  0  0
  2  1  1  6
  3  2  1  0
  4  3  1  0
  5  4  2  0
  6  7  2  0
  6  2  1  0
  8  4  1  0
  9  6  1  0
 10 11  1  1
 10  9  1  0
 11 12  1  0
 13 12  1  0
 14 13  1  0
 15 14  1  0
 16 17  2  0
 16 10  1  0
 18 19  1  0
 19 20  2  0
 19 21  1  0
 21 22  1  0
 23 22  1  6
 23 24  1  0
 24 16  1  0
 25 23  1  0
 25 27  1  0
 26 25  2  0
M  END
$$$$
