DKQ.pdb
     RDKit          3D

 27 26  0  0  1  0  0  0  0  0999 V2000
   16.3980  -12.4946  -12.5423 N   0  0  0  0  0  0  0  0  0  0  0  0
   16.2944  -11.4010  -13.4754 C   0  0  1  0  0  0  0  0  0  0  0  0
   15.1889  -11.7368  -14.4578 C   0  0  0  0  0  0  0  0  0  0  0  0
   15.5005  -12.9861  -15.2066 C   0  0  0  0  0  0  0  0  0  0  0  0
   16.2404  -12.9185  -16.2159 O   0  0  0  0  0  0  0  0  0  0  0  0
   15.9040  -10.1748  -12.7581 C   0  0  0  0  0  0  0  0  0  0  0  0
   15.6810   -9.0838  -13.3587 O   0  0  0  0  0  0  0  0  0  0  0  0
   15.0054  -14.2170  -14.8316 O   0  0  0  0  0  0  0  0  0  0  0  0
   15.7688  -10.1926  -11.3632 N   0  0  0  0  0  0  0  0  0  0  0  0
   15.2938   -9.0137  -10.5828 C   0  0  1  0  0  0  0  0  0  0  0  0
   14.3729   -9.5372   -9.5381 C   0  0  0  0  0  0  0  0  0  0  0  0
   12.9444   -9.3726   -9.8585 C   0  0  0  0  0  0  0  0  0  0  0  0
   12.0057   -9.8621   -8.7825 C   0  0  0  0  0  0  0  0  0  0  0  0
   10.5625   -9.7927   -9.1704 C   0  0  0  0  0  0  0  0  0  0  0  0
    9.6866  -10.3991   -8.1930 N   0  0  0  0  0  0  0  0  0  0  0  0
   16.4332   -8.2208  -10.1559 C   0  0  0  0  0  0  0  0  0  0  0  0
   17.0867   -8.6466   -9.1354 O   0  0  0  0  0  0  0  0  0  0  0  0
   21.2432   -5.6437  -12.6039 N   0  0  0  0  0  0  0  0  0  0  0  0
   20.8677   -6.9478  -12.2568 C   0  0  0  0  0  0  0  0  0  0  0  0
   21.4633   -7.9281  -12.7193 O   0  0  0  0  0  0  0  0  0  0  0  0
   19.7287   -7.2002  -11.3108 C   0  0  0  0  0  0  0  0  0  0  0  0
   19.0784   -5.9095  -10.9009 C   0  0  0  0  0  0  0  0  0  0  0  0
   17.8895   -6.1551  -10.0503 C   0  0  2  0  0  0  0  0  0  0  0  0
   16.9278   -7.0349  -10.7206 N   0  0  0  0  0  0  0  0  0  0  0  0
   17.2233   -4.9288   -9.6400 C   0  0  0  0  0  0  0  0  0  0  0  0
   17.8833   -4.0986   -8.9100 O   0  0  0  0  0  0  0  0  0  0  0  0
   15.9147   -4.5750   -9.9802 O   0  0  0  0  0  0  0  0  0  0  0  0
  2  1  1  1
  3  2  1  0
  4  3  1  0
  5  4  2  0
  6  7  2  0
  6  2  1  0
  8  4  1  0
  9  6  1  0
 10 11  1  1
 10  9  1  0
 11 12  1  0
 13 12  1  0
 14 13  1  0
 15 14  1  0
 16 17  2  0
 16 10  1  0
 18 19  1  0
 19 20  2  0
 19 21  1  0
 21 22  1  0
 23 22  1  6
 23 24  1  0
 24 16  1  0
 25 23  1  0
 25 27  1  0
 26 25  2  0
M  END
$$$$
