DKQ.pdb
     RDKit          3D

 27 26  0  0  1  0  0  0  0  0999 V2000
   22.0745  -12.4118  -20.6017 N   0  0  0  0  0  0  0  0  0  0  0  0
   22.5969  -12.1264  -19.2891 C   0  0  1  0  0  0  0  0  0  0  0  0
   24.0392  -11.6870  -19.4526 C   0  0  0  0  0  0  0  0  0  0  0  0
   24.9148  -12.8430  -19.7924 C   0  0  0  0  0  0  0  0  0  0  0  0
   24.4482  -14.0027  -19.7037 O   0  0  0  0  0  0  0  0  0  0  0  0
   21.8485  -11.0065  -18.6921 C   0  0  0  0  0  0  0  0  0  0  0  0
   21.6306   -9.9299  -19.3199 O   0  0  0  0  0  0  0  0  0  0  0  0
   26.2220  -12.6862  -20.2018 O   0  0  0  0  0  0  0  0  0  0  0  0
   21.3513  -11.1138  -17.3862 N   0  0  0  0  0  0  0  0  0  0  0  0
   20.4639  -10.0839  -16.7728 C   0  0  1  0  0  0  0  0  0  0  0  0
   19.3628  -10.8195  -16.0947 C   0  0  0  0  0  0  0  0  0  0  0  0
   18.3813   -9.9487  -15.4247 C   0  0  0  0  0  0  0  0  0  0  0  0
   17.1760  -10.6754  -14.8790 C   0  0  0  0  0  0  0  0  0  0  0  0
   16.1252   -9.7632  -14.3297 C   0  0  0  0  0  0  0  0  0  0  0  0
   14.9002  -10.4534  -13.9927 N   0  0  0  0  0  0  0  0  0  0  0  0
   21.2608   -9.1630  -15.9815 C   0  0  0  0  0  0  0  0  0  0  0  0
   22.3824   -9.6018  -15.5353 O   0  0  0  0  0  0  0  0  0  0  0  0
   24.6624   -5.5223  -18.1359 N   0  0  0  0  0  0  0  0  0  0  0  0
   24.7743   -4.9836  -16.8478 C   0  0  0  0  0  0  0  0  0  0  0  0
   25.6643   -4.1705  -16.5709 O   0  0  0  0  0  0  0  0  0  0  0  0
   23.8170   -5.3750  -15.7586 C   0  0  0  0  0  0  0  0  0  0  0  0
   22.8665   -6.4349  -16.2379 C   0  0  0  0  0  0  0  0  0  0  0  0
   21.9686   -6.8824  -15.1466 C   0  0  2  0  0  0  0  0  0  0  0  0
   20.9678   -7.8342  -15.6371 N   0  0  0  0  0  0  0  0  0  0  0  0
   21.3017   -5.7789  -14.4731 C   0  0  0  0  0  0  0  0  0  0  0  0
   20.1035   -5.4834  -14.8400 O   0  0  0  0  0  0  0  0  0  0  0  0
   21.8608   -5.0094  -13.4490 O   0  0  0  0  0  0  0  0  0  0  0  0
  2  1  1  6
  3  2  1  0
  4  3  1  0
  5  4  2  0
  6  7  2  0
  6  2  1  0
  8  4  1  0
  9  6  1  0
 10 11  1  1
 10  9  1  0
 11 12  1  0
 13 12  1  0
 14 13  1  0
 15 14  1  0
 16 17  2  0
 16 10  1  0
 18 19  1  0
 19 20  2  0
 19 21  1  0
 21 22  1  0
 23 22  1  6
 23 24  1  0
 24 16  1  0
 25 23  1  0
 25 27  1  0
 26 25  2  0
M  END
$$$$
