DKQ.pdb
     RDKit          3D

 27 26  0  0  1  0  0  0  0  0999 V2000
   13.8902  -10.7147  -11.1136 N   0  0  0  0  0  0  0  0  0  0  0  0
   15.2242  -10.3978  -10.6692 C   0  0  1  0  0  0  0  0  0  0  0  0
   16.1974  -11.1144  -11.5852 C   0  0  0  0  0  0  0  0  0  0  0  0
   16.0938  -12.5915  -11.4246 C   0  0  0  0  0  0  0  0  0  0  0  0
   15.3003  -13.0537  -10.5718 O   0  0  0  0  0  0  0  0  0  0  0  0
   15.4592   -8.9496  -10.8047 C   0  0  0  0  0  0  0  0  0  0  0  0
   15.2008   -8.3212  -11.8719 O   0  0  0  0  0  0  0  0  0  0  0  0
   16.8389  -13.4723  -12.1796 O   0  0  0  0  0  0  0  0  0  0  0  0
   15.9860   -8.2221   -9.7289 N   0  0  0  0  0  0  0  0  0  0  0  0
   16.1979   -6.7467   -9.7784 C   0  0  1  0  0  0  0  0  0  0  0  0
   15.5348   -6.1802   -8.5731 C   0  0  0  0  0  0  0  0  0  0  0  0
   15.6042   -4.7113   -8.4831 C   0  0  0  0  0  0  0  0  0  0  0  0
   14.7447   -4.1140   -7.3955 C   0  0  0  0  0  0  0  0  0  0  0  0
   14.8389   -2.6234   -7.3090 C   0  0  0  0  0  0  0  0  0  0  0  0
   14.0126   -2.0665   -6.2614 N   0  0  0  0  0  0  0  0  0  0  0  0
   17.6080   -6.4635   -9.9805 C   0  0  0  0  0  0  0  0  0  0  0  0
   18.4399   -7.0985   -9.2359 O   0  0  0  0  0  0  0  0  0  0  0  0
   19.9853   -9.6250  -13.2758 N   0  0  0  0  0  0  0  0  0  0  0  0
   21.0593   -8.7280  -13.3387 C   0  0  0  0  0  0  0  0  0  0  0  0
   22.1355   -9.0558  -13.8526 O   0  0  0  0  0  0  0  0  0  0  0  0
   20.9406   -7.3373  -12.7840 C   0  0  0  0  0  0  0  0  0  0  0  0
   19.6109   -7.1412  -12.1132 C   0  0  0  0  0  0  0  0  0  0  0  0
   19.5106   -5.7924  -11.5065 C   0  0  2  0  0  0  0  0  0  0  0  0
   18.1942   -5.5784  -10.8986 N   0  0  0  0  0  0  0  0  0  0  0  0
   19.7892   -4.7234  -12.4530 C   0  0  0  0  0  0  0  0  0  0  0  0
   21.0204   -4.4657  -12.7272 O   0  0  0  0  0  0  0  0  0  0  0  0
   18.8193   -3.9494  -13.0963 O   0  0  0  0  0  0  0  0  0  0  0  0
  2  1  1  6
  3  2  1  0
  4  3  1  0
  5  4  2  0
  6  7  2  0
  6  2  1  0
  8  4  1  0
  9  6  1  0
 10 11  1  1
 10  9  1  0
 11 12  1  0
 13 12  1  0
 14 13  1  0
 15 14  1  0
 16 17  2  0
 16 10  1  0
 18 19  1  0
 19 20  2  0
 19 21  1  0
 21 22  1  0
 23 22  1  6
 23 24  1  0
 24 16  1  0
 25 23  1  0
 25 27  1  0
 26 25  2  0
M  END
$$$$
