DKQ.pdb
     RDKit          3D

 27 26  0  0  1  0  0  0  0  0999 V2000
   15.6662  -12.2131  -15.9512 N   0  0  0  0  0  0  0  0  0  0  0  0
   17.0414  -11.9302  -15.6254 C   0  0  1  0  0  0  0  0  0  0  0  0
   17.8954  -13.0185  -16.2468 C   0  0  0  0  0  0  0  0  0  0  0  0
   17.6318  -14.3366  -15.6051 C   0  0  0  0  0  0  0  0  0  0  0  0
   18.0101  -14.5219  -14.4249 O   0  0  0  0  0  0  0  0  0  0  0  0
   17.4379  -10.6456  -16.2282 C   0  0  0  0  0  0  0  0  0  0  0  0
   18.6457  -10.2744  -16.2918 O   0  0  0  0  0  0  0  0  0  0  0  0
   16.9861  -15.3632  -16.2609 O   0  0  0  0  0  0  0  0  0  0  0  0
   16.4620   -9.7889  -16.7555 N   0  0  0  0  0  0  0  0  0  0  0  0
   16.7990   -8.5254  -17.4727 C   0  0  1  0  0  0  0  0  0  0  0  0
   15.5954   -8.1495  -18.2622 C   0  0  0  0  0  0  0  0  0  0  0  0
   15.7330   -6.8829  -19.0020 C   0  0  0  0  0  0  0  0  0  0  0  0
   14.5128   -6.4940  -19.8009 C   0  0  0  0  0  0  0  0  0  0  0  0
   14.6802   -5.2201  -20.5673 C   0  0  0  0  0  0  0  0  0  0  0  0
   13.5377   -4.9070  -21.3962 N   0  0  0  0  0  0  0  0  0  0  0  0
   17.3292   -7.5565  -16.5297 C   0  0  0  0  0  0  0  0  0  0  0  0
   16.6552   -7.3657  -15.4531 O   0  0  0  0  0  0  0  0  0  0  0  0
   22.8257   -6.7981  -14.0877 N   0  0  0  0  0  0  0  0  0  0  0  0
   22.1548   -5.6919  -13.5508 C   0  0  0  0  0  0  0  0  0  0  0  0
   22.6714   -5.0001  -12.6652 O   0  0  0  0  0  0  0  0  0  0  0  0
   20.7848   -5.3082  -14.0324 C   0  0  0  0  0  0  0  0  0  0  0  0
   20.2958   -6.2717  -15.0759 C   0  0  0  0  0  0  0  0  0  0  0  0
   18.9667   -5.8700  -15.5951 C   0  0  2  0  0  0  0  0  0  0  0  0
   18.5010   -6.7912  -16.6357 N   0  0  0  0  0  0  0  0  0  0  0  0
   18.9461   -4.5081  -16.1061 C   0  0  0  0  0  0  0  0  0  0  0  0
   18.9248   -4.3427  -17.3827 O   0  0  0  0  0  0  0  0  0  0  0  0
   18.9442   -3.3554  -15.3157 O   0  0  0  0  0  0  0  0  0  0  0  0
  2  1  1  6
  3  2  1  0
  4  3  1  0
  5  4  2  0
  6  7  2  0
  6  2  1  0
  8  4  1  0
  9  6  1  0
 10 11  1  1
 10  9  1  0
 11 12  1  0
 13 12  1  0
 14 13  1  0
 15 14  1  0
 16 17  2  0
 16 10  1  0
 18 19  1  0
 19 20  2  0
 19 21  1  0
 21 22  1  0
 23 22  1  6
 23 24  1  0
 24 16  1  0
 25 23  1  0
 25 27  1  0
 26 25  2  0
M  END
$$$$
