DKQ.pdb
     RDKit          3D

 27 26  0  0  1  0  0  0  0  0999 V2000
   13.2324  -10.0844  -11.0642 N   0  0  0  0  0  0  0  0  0  0  0  0
   14.3830   -9.6439  -10.3163 C   0  0  1  0  0  0  0  0  0  0  0  0
   15.5227  -10.5970  -10.6205 C   0  0  0  0  0  0  0  0  0  0  0  0
   15.2046  -11.9760  -10.1561 C   0  0  0  0  0  0  0  0  0  0  0  0
   16.1123  -12.8401  -10.1580 O   0  0  0  0  0  0  0  0  0  0  0  0
   14.7836   -8.3011  -10.7713 C   0  0  0  0  0  0  0  0  0  0  0  0
   15.0180   -8.0429  -11.9875 O   0  0  0  0  0  0  0  0  0  0  0  0
   13.9472  -12.3397   -9.7230 O   0  0  0  0  0  0  0  0  0  0  0  0
   14.9162   -7.2583   -9.8443 N   0  0  0  0  0  0  0  0  0  0  0  0
   15.3270   -5.8786  -10.2342 C   0  0  1  0  0  0  0  0  0  0  0  0
   14.6795   -4.9519   -9.2670 C   0  0  0  0  0  0  0  0  0  0  0  0
   14.1728   -5.6104   -8.0503 C   0  0  0  0  0  0  0  0  0  0  0  0
   13.6051   -4.6630   -7.0214 C   0  0  0  0  0  0  0  0  0  0  0  0
   13.1246   -5.3457   -5.7800 C   0  0  0  0  0  0  0  0  0  0  0  0
   12.5117   -4.4360   -4.8380 N   0  0  0  0  0  0  0  0  0  0  0  0
   16.7714   -5.8217  -10.3746 C   0  0  0  0  0  0  0  0  0  0  0  0
   17.4678   -6.1546   -9.3480 O   0  0  0  0  0  0  0  0  0  0  0  0
   20.1067   -9.2236  -13.5778 N   0  0  0  0  0  0  0  0  0  0  0  0
   21.1177   -8.3876  -13.0868 C   0  0  0  0  0  0  0  0  0  0  0  0
   22.3095   -8.7056  -13.1781 O   0  0  0  0  0  0  0  0  0  0  0  0
   20.7888   -7.0762  -12.4325 C   0  0  0  0  0  0  0  0  0  0  0  0
   19.3055   -6.9290  -12.2464 C   0  0  0  0  0  0  0  0  0  0  0  0
   18.9717   -5.6333  -11.6083 C   0  0  2  0  0  0  0  0  0  0  0  0
   17.5214   -5.4504  -11.5013 N   0  0  0  0  0  0  0  0  0  0  0  0
   19.5562   -4.4943  -12.2992 C   0  0  0  0  0  0  0  0  0  0  0  0
   20.8399   -4.4017  -12.3314 O   0  0  0  0  0  0  0  0  0  0  0  0
   18.8300   -3.4859  -12.9388 O   0  0  0  0  0  0  0  0  0  0  0  0
  2  1  1  6
  3  2  1  0
  4  3  1  0
  5  4  2  0
  6  7  2  0
  6  2  1  0
  8  4  1  0
  9  6  1  0
 10 11  1  1
 10  9  1  0
 11 12  1  0
 13 12  1  0
 14 13  1  0
 15 14  1  0
 16 17  2  0
 16 10  1  0
 18 19  1  0
 19 20  2  0
 19 21  1  0
 21 22  1  0
 23 22  1  6
 23 24  1  0
 24 16  1  0
 25 23  1  0
 25 27  1  0
 26 25  2  0
M  END
$$$$
