CSG.pdb
     RDKit          3D

 17 16  0  0  1  0  0  0  0  0999 V2000
   13.0765  -18.9412   14.5947 N   0  0  0  0  0  0  0  0  0  0  0  0
   12.6906  -19.9373   15.5432 C   0  0  1  0  0  0  0  0  0  0  0  0
   13.7308  -21.0355   15.5850 C   0  0  0  0  0  0  0  0  0  0  0  0
   13.3331  -22.2766   16.8457 S   0  0  0  0  0  0  0  0  0  0  0  0
   12.4501  -19.3693   16.9016 C   0  0  0  0  0  0  0  0  0  0  0  0
   13.2287  -18.5126   17.3920 O   0  0  0  0  0  0  0  0  0  0  0  0
    8.7589  -19.2551   18.7421 O   0  0  0  0  0  0  0  0  0  0  0  0
    9.8132  -18.4241   19.0980 C   0  0  0  0  0  0  0  0  0  0  0  0
   11.1035  -19.2461   19.0205 C   0  0  2  0  0  0  0  0  0  0  0  0
   11.3431  -19.7570   17.7099 N   0  0  0  0  0  0  0  0  0  0  0  0
   11.0979  -20.3116   20.0632 C   0  0  0  0  0  0  0  0  0  0  0  0
   10.6971  -21.4732   19.7926 O   0  0  0  0  0  0  0  0  0  0  0  0
   11.5351  -20.0864   21.3977 N   0  0  0  0  0  0  0  0  0  0  0  0
   11.5594  -21.1543   22.3793 C   0  0  0  0  0  0  0  0  0  0  0  0
   12.0872  -20.7390   23.6736 C   0  0  0  0  0  0  0  0  0  0  0  0
   13.3309  -20.5835   23.7824 O   0  0  0  0  0  0  0  0  0  0  0  0
   11.3259  -20.4995   24.8030 O   0  0  0  0  0  0  0  0  0  0  0  0
  2  1  1  6
  2  3  1  0
  4  3  1  0
  5  2  1  0
  6  5  2  0
  8  7  1  0
  9  8  1  6
  9 10  1  0
 10  5  1  0
 11  9  1  0
 11 13  1  0
 12 11  2  0
 14 13  1  0
 14 15  1  0
 15 17  1  0
 16 15  2  0
M  END
$$$$
