CSG.pdb
     RDKit          3D

 17 16  0  0  1  0  0  0  0  0999 V2000
    7.1291  -15.3747   19.1910 N   0  0  0  0  0  0  0  0  0  0  0  0
    7.5528  -14.7955   20.4262 C   0  0  1  0  0  0  0  0  0  0  0  0
    7.3552  -13.2959   20.3836 C   0  0  0  0  0  0  0  0  0  0  0  0
    8.7961  -12.4583   19.6693 S   0  0  0  0  0  0  0  0  0  0  0  0
    6.8644  -15.3976   21.6048 C   0  0  0  0  0  0  0  0  0  0  0  0
    5.6216  -15.5882   21.6007 O   0  0  0  0  0  0  0  0  0  0  0  0
    7.1832  -18.8856   23.7045 O   0  0  0  0  0  0  0  0  0  0  0  0
    6.3387  -17.8431   23.3458 C   0  0  0  0  0  0  0  0  0  0  0  0
    6.9692  -16.5383   23.8423 C   0  0  2  0  0  0  0  0  0  0  0  0
    7.5619  -15.7858   22.7846 N   0  0  0  0  0  0  0  0  0  0  0  0
    7.9208  -16.8179   24.9553 C   0  0  0  0  0  0  0  0  0  0  0  0
    9.1165  -17.1281   24.7156 O   0  0  0  0  0  0  0  0  0  0  0  0
    7.5450  -16.7529   26.3254 N   0  0  0  0  0  0  0  0  0  0  0  0
    8.5335  -16.7895   27.3866 C   0  0  0  0  0  0  0  0  0  0  0  0
    8.8626  -18.1408   27.8248 C   0  0  0  0  0  0  0  0  0  0  0  0
    8.3442  -19.1056   27.2058 O   0  0  0  0  0  0  0  0  0  0  0  0
    9.7062  -18.4526   28.8753 O   0  0  0  0  0  0  0  0  0  0  0  0
  2  1  1  6
  2  3  1  0
  4  3  1  0
  5  2  1  0
  6  5  2  0
  8  7  1  0
  9  8  1  6
  9 10  1  0
 10  5  1  0
 11  9  1  0
 11 13  1  0
 12 11  2  0
 14 13  1  0
 14 15  1  0
 15 17  1  0
 16 15  2  0
M  END
$$$$
