CSG.pdb
     RDKit          3D

 17 16  0  0  1  0  0  0  0  0999 V2000
    8.0138  -13.8442   16.6626 N   0  0  0  0  0  0  0  0  0  0  0  0
    7.9589  -14.8963   17.6275 C   0  0  1  0  0  0  0  0  0  0  0  0
    8.7357  -16.0937   17.1249 C   0  0  0  0  0  0  0  0  0  0  0  0
    7.6269  -17.4210   16.5802 S   0  0  0  0  0  0  0  0  0  0  0  0
    8.4421  -14.4643   18.9712 C   0  0  0  0  0  0  0  0  0  0  0  0
    9.5279  -13.8436   19.0997 O   0  0  0  0  0  0  0  0  0  0  0  0
    6.2981  -15.2323   22.6052 O   0  0  0  0  0  0  0  0  0  0  0  0
    7.0775  -14.0924   22.4566 C   0  0  0  0  0  0  0  0  0  0  0  0
    8.2050  -14.4215   21.4732 C   0  0  2  0  0  0  0  0  0  0  0  0
    7.7146  -14.7247   20.1679 N   0  0  0  0  0  0  0  0  0  0  0  0
    9.0732  -15.4989   22.0282 C   0  0  0  0  0  0  0  0  0  0  0  0
    8.9133  -16.6970   21.6785 O   0  0  0  0  0  0  0  0  0  0  0  0
   10.1122  -15.2452   22.9656 N   0  0  0  0  0  0  0  0  0  0  0  0
   10.8662  -16.3249   23.5743 C   0  0  0  0  0  0  0  0  0  0  0  0
   12.1851  -16.5155   22.9821 C   0  0  0  0  0  0  0  0  0  0  0  0
   12.9445  -17.3772   23.4953 O   0  0  0  0  0  0  0  0  0  0  0  0
   12.6751  -15.8202   21.8917 O   0  0  0  0  0  0  0  0  0  0  0  0
  2  1  1  6
  2  3  1  0
  4  3  1  0
  5  2  1  0
  6  5  2  0
  8  7  1  0
  9  8  1  1
  9 10  1  0
 10  5  1  0
 11  9  1  0
 11 13  1  0
 12 11  2  0
 14 13  1  0
 14 15  1  0
 15 17  1  0
 16 15  2  0
M  END
$$$$
