CSG.pdb
     RDKit          3D

 17 16  0  0  1  0  0  0  0  0999 V2000
   -2.6282  -22.8508   24.6954 N   0  0  0  0  0  0  0  0  0  0  0  0
   -3.1705  -23.0554   26.0011 C   0  0  1  0  0  0  0  0  0  0  0  0
   -2.7832  -21.9037   26.9030 C   0  0  0  0  0  0  0  0  0  0  0  0
   -1.0163  -21.9454   27.3083 S   0  0  0  0  0  0  0  0  0  0  0  0
   -4.6492  -23.2518   25.9808 C   0  0  0  0  0  0  0  0  0  0  0  0
   -5.4016  -22.4411   25.3827 O   0  0  0  0  0  0  0  0  0  0  0  0
   -6.5107  -26.8053   27.3867 O   0  0  0  0  0  0  0  0  0  0  0  0
   -7.0070  -26.0775   26.3131 C   0  0  0  0  0  0  0  0  0  0  0  0
   -6.6893  -24.5999   26.5626 C   0  0  2  0  0  0  0  0  0  0  0  0
   -5.2859  -24.3503   26.6265 N   0  0  0  0  0  0  0  0  0  0  0  0
   -7.4174  -24.1141   27.7695 C   0  0  0  0  0  0  0  0  0  0  0  0
   -8.6733  -24.1663   27.8265 O   0  0  0  0  0  0  0  0  0  0  0  0
   -6.7530  -23.5739   28.9050 N   0  0  0  0  0  0  0  0  0  0  0  0
   -7.4816  -23.1868   30.0983 C   0  0  0  0  0  0  0  0  0  0  0  0
   -7.7653  -21.7581   30.1654 C   0  0  0  0  0  0  0  0  0  0  0  0
   -7.4754  -21.0504   29.1664 O   0  0  0  0  0  0  0  0  0  0  0  0
   -8.3324  -21.1100   31.2474 O   0  0  0  0  0  0  0  0  0  0  0  0
  2  1  1  6
  2  3  1  0
  4  3  1  0
  5  2  1  0
  6  5  2  0
  8  7  1  0
  9  8  1  1
  9 10  1  0
 10  5  1  0
 11  9  1  0
 11 13  1  0
 12 11  2  0
 14 13  1  0
 14 15  1  0
 15 17  1  0
 16 15  2  0
M  END
$$$$
