CSG.pdb
     RDKit          3D

 17 16  0  0  1  0  0  0  0  0999 V2000
    8.9782  -15.0790   13.2754 N   0  0  0  0  0  0  0  0  0  0  0  0
    8.0581  -15.0628   14.3682 C   0  0  1  0  0  0  0  0  0  0  0  0
    7.2314  -16.3302   14.3609 C   0  0  0  0  0  0  0  0  0  0  0  0
    6.3380  -16.5289   12.7956 S   0  0  0  0  0  0  0  0  0  0  0  0
    8.7363  -14.8680   15.6826 C   0  0  0  0  0  0  0  0  0  0  0  0
    9.9310  -15.2210   15.8531 O   0  0  0  0  0  0  0  0  0  0  0  0
    6.6701  -13.5160   19.0968 O   0  0  0  0  0  0  0  0  0  0  0  0
    7.9562  -13.0252   18.9134 C   0  0  0  0  0  0  0  0  0  0  0  0
    8.7240  -14.0343   18.0539 C   0  0  2  0  0  0  0  0  0  0  0  0
    8.0823  -14.2805   16.8034 N   0  0  0  0  0  0  0  0  0  0  0  0
    8.9764  -15.2828   18.8286 C   0  0  0  0  0  0  0  0  0  0  0  0
    8.2621  -16.3036   18.6528 O   0  0  0  0  0  0  0  0  0  0  0  0
   10.0164  -15.3949   19.7923 N   0  0  0  0  0  0  0  0  0  0  0  0
   10.2117  -16.6096   20.5610 C   0  0  0  0  0  0  0  0  0  0  0  0
   11.3586  -16.5480   21.4594 C   0  0  0  0  0  0  0  0  0  0  0  0
   12.1146  -15.5452   21.3848 O   0  0  0  0  0  0  0  0  0  0  0  0
   11.6874  -17.5107   22.3962 O   0  0  0  0  0  0  0  0  0  0  0  0
  2  1  1  6
  2  3  1  0
  4  3  1  0
  5  2  1  0
  6  5  2  0
  8  7  1  0
  9  8  1  1
  9 10  1  0
 10  5  1  0
 11  9  1  0
 11 13  1  0
 12 11  2  0
 14 13  1  0
 14 15  1  0
 15 17  1  0
 16 15  2  0
M  END
$$$$
