CSG.pdb
     RDKit          3D

 17 16  0  0  1  0  0  0  0  0999 V2000
    3.9512  -19.3839   20.4271 N   0  0  0  0  0  0  0  0  0  0  0  0
    4.1782  -18.2102   21.2093 C   0  0  1  0  0  0  0  0  0  0  0  0
    3.7727  -18.4647   22.6447 C   0  0  0  0  0  0  0  0  0  0  0  0
    1.9701  -18.5576   22.8170 S   0  0  0  0  0  0  0  0  0  0  0  0
    5.5883  -17.7308   21.1233 C   0  0  0  0  0  0  0  0  0  0  0  0
    6.5425  -18.5426   21.0169 O   0  0  0  0  0  0  0  0  0  0  0  0
    6.6371  -13.5915   21.1742 O   0  0  0  0  0  0  0  0  0  0  0  0
    7.3163  -14.4825   20.3535 C   0  0  0  0  0  0  0  0  0  0  0  0
    7.2659  -15.8619   21.0177 C   0  0  2  0  0  0  0  0  0  0  0  0
    5.9317  -16.3487   21.1559 N   0  0  0  0  0  0  0  0  0  0  0  0
    8.0082  -15.8377   22.3103 C   0  0  0  0  0  0  0  0  0  0  0  0
    7.3945  -15.7107   23.4014 O   0  0  0  0  0  0  0  0  0  0  0  0
    9.4235  -15.9540   22.3887 N   0  0  0  0  0  0  0  0  0  0  0  0
   10.1288  -15.8089   23.6481 C   0  0  0  0  0  0  0  0  0  0  0  0
   11.5741  -15.9561   23.5224 C   0  0  0  0  0  0  0  0  0  0  0  0
   12.2708  -15.8618   24.5656 O   0  0  0  0  0  0  0  0  0  0  0  0
   12.2493  -16.1933   22.3389 O   0  0  0  0  0  0  0  0  0  0  0  0
  2  1  1  6
  2  3  1  0
  4  3  1  0
  5  2  1  0
  6  5  2  0
  8  7  1  0
  9  8  1  1
  9 10  1  0
 10  5  1  0
 11  9  1  0
 11 13  1  0
 12 11  2  0
 14 13  1  0
 14 15  1  0
 15 17  1  0
 16 15  2  0
M  END
$$$$
