CSG.pdb
     RDKit          3D

 17 16  0  0  1  0  0  0  0  0999 V2000
    8.5214  -17.2543   18.0370 N   0  0  0  0  0  0  0  0  0  0  0  0
    7.8527  -17.0886   19.2884 C   0  0  1  0  0  0  0  0  0  0  0  0
    7.4566  -18.4405   19.8408 C   0  0  0  0  0  0  0  0  0  0  0  0
    5.9528  -19.0665   19.0441 S   0  0  0  0  0  0  0  0  0  0  0  0
    8.6676  -16.3202   20.2738 C   0  0  0  0  0  0  0  0  0  0  0  0
    9.9217  -16.2868   20.1904 O   0  0  0  0  0  0  0  0  0  0  0  0
    7.0180  -14.5820   23.7716 O   0  0  0  0  0  0  0  0  0  0  0  0
    7.9652  -13.8436   23.0743 C   0  0  0  0  0  0  0  0  0  0  0  0
    8.8385  -14.8263   22.2880 C   0  0  2  0  0  0  0  0  0  0  0  0
    8.0836  -15.5911   21.3492 N   0  0  0  0  0  0  0  0  0  0  0  0
    9.6265  -15.6772   23.2248 C   0  0  0  0  0  0  0  0  0  0  0  0
    9.0633  -16.5691   23.9109 O   0  0  0  0  0  0  0  0  0  0  0  0
   11.0312  -15.5369   23.3972 N   0  0  0  0  0  0  0  0  0  0  0  0
   11.7590  -16.3254   24.3736 C   0  0  0  0  0  0  0  0  0  0  0  0
   13.2041  -16.1443   24.3027 C   0  0  0  0  0  0  0  0  0  0  0  0
   13.6671  -15.4476   23.3631 O   0  0  0  0  0  0  0  0  0  0  0  0
   14.1172  -16.6807   25.1922 O   0  0  0  0  0  0  0  0  0  0  0  0
  2  1  1  6
  2  3  1  0
  4  3  1  0
  5  2  1  0
  6  5  2  0
  8  7  1  0
  9  8  1  1
  9 10  1  0
 10  5  1  0
 11  9  1  0
 11 13  1  0
 12 11  2  0
 14 13  1  0
 14 15  1  0
 15 17  1  0
 16 15  2  0
M  END
$$$$
