CSG.pdb
     RDKit          3D

 17 16  0  0  1  0  0  0  0  0999 V2000
    6.8903  -19.0427   24.8981 N   0  0  0  0  0  0  0  0  0  0  0  0
    7.4083  -17.7263   24.6988 C   0  0  1  0  0  0  0  0  0  0  0  0
    7.5696  -17.0316   26.0335 C   0  0  0  0  0  0  0  0  0  0  0  0
    7.9706  -15.2760   25.8218 S   0  0  0  0  0  0  0  0  0  0  0  0
    8.6880  -17.7265   23.9320 C   0  0  0  0  0  0  0  0  0  0  0  0
    9.5868  -18.5719   24.1731 O   0  0  0  0  0  0  0  0  0  0  0  0
    9.6989  -14.8191   20.8954 O   0  0  0  0  0  0  0  0  0  0  0  0
   10.0264  -16.1630   20.7714 C   0  0  0  0  0  0  0  0  0  0  0  0
   10.1959  -16.7353   22.1822 C   0  0  2  0  0  0  0  0  0  0  0  0
    8.9630  -16.7852   22.8988 N   0  0  0  0  0  0  0  0  0  0  0  0
   11.2596  -15.9906   22.9148 C   0  0  0  0  0  0  0  0  0  0  0  0
   10.9642  -15.0418   23.6867 O   0  0  0  0  0  0  0  0  0  0  0  0
   12.6422  -16.2994   22.7897 N   0  0  0  0  0  0  0  0  0  0  0  0
   13.6551  -15.5549   23.5138 C   0  0  0  0  0  0  0  0  0  0  0  0
   15.0174  -15.9316   23.1551 C   0  0  0  0  0  0  0  0  0  0  0  0
   15.9655  -15.3066   23.6967 O   0  0  0  0  0  0  0  0  0  0  0  0
   15.3569  -16.9292   22.2595 O   0  0  0  0  0  0  0  0  0  0  0  0
  2  1  1  1
  2  3  1  0
  4  3  1  0
  5  2  1  0
  6  5  2  0
  8  7  1  0
  9  8  1  6
  9 10  1  0
 10  5  1  0
 11  9  1  0
 11 13  1  0
 12 11  2  0
 14 13  1  0
 14 15  1  0
 15 17  1  0
 16 15  2  0
M  END
$$$$
