CSG.pdb
     RDKit          3D

 17 16  0  0  1  0  0  0  0  0999 V2000
    7.5201  -18.8753   17.2938 N   0  0  0  0  0  0  0  0  0  0  0  0
    7.3408  -18.7929   18.7087 C   0  0  1  0  0  0  0  0  0  0  0  0
    7.6533  -20.1305   19.3436 C   0  0  0  0  0  0  0  0  0  0  0  0
    6.2528  -20.7442   20.3181 S   0  0  0  0  0  0  0  0  0  0  0  0
    8.1496  -17.7008   19.3240 C   0  0  0  0  0  0  0  0  0  0  0  0
    9.3425  -17.5052   18.9780 O   0  0  0  0  0  0  0  0  0  0  0  0
    6.5348  -15.0492   22.2059 O   0  0  0  0  0  0  0  0  0  0  0  0
    7.5065  -14.5888   21.3268 C   0  0  0  0  0  0  0  0  0  0  0  0
    8.3820  -15.7818   20.9307 C   0  0  2  0  0  0  0  0  0  0  0  0
    7.6278  -16.8297   20.3230 N   0  0  0  0  0  0  0  0  0  0  0  0
    9.1771  -16.2477   22.1025 C   0  0  0  0  0  0  0  0  0  0  0  0
    8.6314  -16.8970   23.0320 O   0  0  0  0  0  0  0  0  0  0  0  0
   10.5696  -15.9932   22.2395 N   0  0  0  0  0  0  0  0  0  0  0  0
   11.3105  -16.4316   23.4072 C   0  0  0  0  0  0  0  0  0  0  0  0
   12.6935  -15.9696   23.4222 C   0  0  0  0  0  0  0  0  0  0  0  0
   13.1196  -15.3468   22.4157 O   0  0  0  0  0  0  0  0  0  0  0  0
   13.5847  -16.1616   24.4622 O   0  0  0  0  0  0  0  0  0  0  0  0
  2  1  1  6
  2  3  1  0
  4  3  1  0
  5  2  1  0
  6  5  2  0
  8  7  1  0
  9  8  1  1
  9 10  1  0
 10  5  1  0
 11  9  1  0
 11 13  1  0
 12 11  2  0
 14 13  1  0
 14 15  1  0
 15 17  1  0
 16 15  2  0
M  END
$$$$
