YCG.pdb
     RDKit          3D

 23 23  0  0  1  0  0  0  0  0999 V2000
   16.2030  -18.1258  -20.9628 O   0  0  0  0  0  0  0  0  0  0  0  0
   17.3305  -18.2395  -20.1318 C   0  0  0  0  0  0  0  0  0  0  0  0
   17.4085  -19.2665  -19.2128 C   0  0  0  0  0  0  0  0  0  0  0  0
   18.5080  -19.3853  -18.3956 C   0  0  0  0  0  0  0  0  0  0  0  0
   19.5514  -18.4884  -18.4736 C   0  0  0  0  0  0  0  0  0  0  0  0
   20.7461  -18.6144  -17.5883 C   0  0  0  0  0  0  0  0  0  0  0  0
   20.3463  -18.6905  -16.1224 C   0  0  2  0  0  0  0  0  0  0  0  0
   19.7298  -17.4863  -15.6665 N   0  0  0  0  0  0  0  0  0  0  0  0
   21.5681  -19.0477  -15.3650 C   0  0  0  0  0  0  0  0  0  0  0  0
   22.4977  -18.2178  -15.2829 O   0  0  0  0  0  0  0  0  0  0  0  0
   19.4510  -17.4706  -19.3995 C   0  0  0  0  0  0  0  0  0  0  0  0
   18.3624  -17.3282  -20.2294 C   0  0  0  0  0  0  0  0  0  0  0  0
   21.7475  -20.3043  -14.7136 N   0  0  0  0  0  0  0  0  0  0  0  0
   22.8862  -20.6092  -13.9047 C   0  0  1  0  0  0  0  0  0  0  0  0
   22.5206  -21.2243  -12.5712 C   0  0  0  0  0  0  0  0  0  0  0  0
   21.5146  -20.0994  -11.5737 S   0  0  0  0  0  0  0  0  0  0  0  0
   23.7536  -21.5826  -14.6038 C   0  0  0  0  0  0  0  0  0  0  0  0
   23.2131  -22.5754  -15.1435 O   0  0  0  0  0  0  0  0  0  0  0  0
   25.1613  -21.4487  -14.6935 N   0  0  0  0  0  0  0  0  0  0  0  0
   25.9102  -22.3804  -15.5127 C   0  0  0  0  0  0  0  0  0  0  0  0
   27.1331  -21.7180  -16.0286 C   0  0  0  0  0  0  0  0  0  0  0  0
   27.3528  -20.4909  -15.8644 O   0  0  0  0  0  0  0  0  0  0  0  0
   28.0394  -22.5421  -16.7157 O   0  0  0  0  0  0  0  0  0  0  0  0
  1  2  1  0
  2 12  2  0
  3  4  2  0
  3  2  1  0
  4  5  1  0
  5  6  1  0
  5 11  2  0
  6  7  1  0
  7  9  1  0
  7  8  1  1
  9 13  1  0
 10  9  2  0
 12 11  1  0
 13 14  1  0
 14 15  1  1
 14 17  1  0
 16 15  1  0
 17 18  2  0
 17 19  1  0
 19 20  1  0
 21 20  1  0
 21 23  1  0
 22 21  2  0
M  END
$$$$
