YCG.pdb
     RDKit          3D

 23 23  0  0  1  0  0  0  0  0999 V2000
   16.3792  -24.8896  -12.8187 O   0  0  0  0  0  0  0  0  0  0  0  0
   17.5788  -24.1861  -13.0213 C   0  0  0  0  0  0  0  0  0  0  0  0
   18.7282  -24.5811  -12.3669 C   0  0  0  0  0  0  0  0  0  0  0  0
   19.9063  -23.8986  -12.5592 C   0  0  0  0  0  0  0  0  0  0  0  0
   19.9679  -22.8114  -13.4038 C   0  0  0  0  0  0  0  0  0  0  0  0
   21.2447  -22.0685  -13.6148 C   0  0  0  0  0  0  0  0  0  0  0  0
   21.4792  -21.0425  -12.5161 C   0  0  2  0  0  0  0  0  0  0  0  0
   20.5260  -19.9805  -12.5553 N   0  0  0  0  0  0  0  0  0  0  0  0
   22.8794  -20.5801  -12.6560 C   0  0  0  0  0  0  0  0  0  0  0  0
   23.1218  -19.5774  -13.3598 O   0  0  0  0  0  0  0  0  0  0  0  0
   18.8066  -22.4354  -14.0467 C   0  0  0  0  0  0  0  0  0  0  0  0
   17.6142  -23.1004  -13.8725 C   0  0  0  0  0  0  0  0  0  0  0  0
   23.9845  -21.2237  -12.0235 N   0  0  0  0  0  0  0  0  0  0  0  0
   25.3325  -20.7646  -12.1498 C   0  0  1  0  0  0  0  0  0  0  0  0
   26.1607  -21.0024  -10.9057 C   0  0  0  0  0  0  0  0  0  0  0  0
   25.6123  -19.9597   -9.5328 S   0  0  0  0  0  0  0  0  0  0  0  0
   26.0054  -21.4786  -13.2571 C   0  0  0  0  0  0  0  0  0  0  0  0
   25.8630  -22.7209  -13.3325 O   0  0  0  0  0  0  0  0  0  0  0  0
   26.8006  -20.8299  -14.2339 N   0  0  0  0  0  0  0  0  0  0  0  0
   26.6981  -21.2437  -15.6190 C   0  0  0  0  0  0  0  0  0  0  0  0
   28.0567  -21.4150  -16.1891 C   0  0  0  0  0  0  0  0  0  0  0  0
   29.0899  -21.0119  -15.5967 O   0  0  0  0  0  0  0  0  0  0  0  0
   28.1272  -22.0569  -17.4365 O   0  0  0  0  0  0  0  0  0  0  0  0
  1  2  1  0
  2 12  2  0
  3  4  2  0
  3  2  1  0
  4  5  1  0
  5  6  1  0
  5 11  2  0
  6  7  1  0
  7  9  1  0
  7  8  1  6
  9 13  1  0
 10  9  2  0
 12 11  1  0
 13 14  1  0
 14 15  1  1
 14 17  1  0
 16 15  1  0
 17 18  2  0
 17 19  1  0
 19 20  1  0
 21 20  1  0
 21 23  1  0
 22 21  2  0
M  END
$$$$
