YCG.pdb
     RDKit          3D

 23 23  0  0  1  0  0  0  0  0999 V2000
   28.6067  -15.1880  -18.1307 O   0  0  0  0  0  0  0  0  0  0  0  0
   27.9471  -16.1448  -17.3406 C   0  0  0  0  0  0  0  0  0  0  0  0
   27.4322  -17.2844  -17.9249 C   0  0  0  0  0  0  0  0  0  0  0  0
   26.7853  -18.2259  -17.1594 C   0  0  0  0  0  0  0  0  0  0  0  0
   26.6364  -18.0559  -15.8000 C   0  0  0  0  0  0  0  0  0  0  0  0
   25.9350  -19.0756  -14.9663 C   0  0  0  0  0  0  0  0  0  0  0  0
   26.9235  -19.9707  -14.2341 C   0  0  2  0  0  0  0  0  0  0  0  0
   27.6961  -20.7699  -15.1299 N   0  0  0  0  0  0  0  0  0  0  0  0
   26.1388  -20.7685  -13.2636 C   0  0  0  0  0  0  0  0  0  0  0  0
   25.6351  -21.8505  -13.6313 O   0  0  0  0  0  0  0  0  0  0  0  0
   27.1591  -16.9093  -15.2386 C   0  0  0  0  0  0  0  0  0  0  0  0
   27.8110  -15.9510  -15.9810 C   0  0  0  0  0  0  0  0  0  0  0  0
   25.9216  -20.3665  -11.9121 N   0  0  0  0  0  0  0  0  0  0  0  0
   25.0849  -21.0904  -11.0067 C   0  0  1  0  0  0  0  0  0  0  0  0
   25.4388  -20.8569   -9.5540 C   0  0  0  0  0  0  0  0  0  0  0  0
   27.1662  -21.2742   -9.2153 S   0  0  0  0  0  0  0  0  0  0  0  0
   23.6766  -20.6711  -11.1788 C   0  0  0  0  0  0  0  0  0  0  0  0
   23.4503  -19.5789  -11.7489 O   0  0  0  0  0  0  0  0  0  0  0  0
   22.5739  -21.4407  -10.7325 N   0  0  0  0  0  0  0  0  0  0  0  0
   21.2364  -20.8951  -10.8491 C   0  0  0  0  0  0  0  0  0  0  0  0
   20.6448  -21.3005  -12.1476 C   0  0  0  0  0  0  0  0  0  0  0  0
   21.2915  -21.9527  -13.0063 O   0  0  0  0  0  0  0  0  0  0  0  0
   19.3127  -20.9134  -12.3677 O   0  0  0  0  0  0  0  0  0  0  0  0
  1  2  1  0
  2 12  2  0
  3  4  2  0
  3  2  1  0
  4  5  1  0
  5  6  1  0
  5 11  2  0
  6  7  1  0
  7  9  1  0
  7  8  1  6
  9 13  1  0
 10  9  2  0
 12 11  1  0
 13 14  1  0
 14 15  1  1
 14 17  1  0
 16 15  1  0
 17 18  2  0
 17 19  1  0
 19 20  1  0
 21 20  1  0
 21 23  1  0
 22 21  2  0
M  END
$$$$
