YCG.pdb
     RDKit          3D

 23 23  0  0  1  0  0  0  0  0999 V2000
   29.5435  -17.1256  -19.3342 O   0  0  0  0  0  0  0  0  0  0  0  0
   28.9124  -17.9855  -18.4193 C   0  0  0  0  0  0  0  0  0  0  0  0
   29.4987  -19.1908  -18.0893 C   0  0  0  0  0  0  0  0  0  0  0  0
   28.8882  -20.0383  -17.1950 C   0  0  0  0  0  0  0  0  0  0  0  0
   27.6849  -19.7076  -16.6105 C   0  0  0  0  0  0  0  0  0  0  0  0
   27.0197  -20.6250  -15.6397 C   0  0  0  0  0  0  0  0  0  0  0  0
   26.9157  -19.9935  -14.2595 C   0  0  2  0  0  0  0  0  0  0  0  0
   28.1911  -19.8430  -13.6359 N   0  0  0  0  0  0  0  0  0  0  0  0
   25.9751  -20.8290  -13.4778 C   0  0  0  0  0  0  0  0  0  0  0  0
   25.4454  -21.8206  -14.0216 O   0  0  0  0  0  0  0  0  0  0  0  0
   27.1182  -18.4980  -16.9557 C   0  0  0  0  0  0  0  0  0  0  0  0
   27.7074  -17.6310  -17.8476 C   0  0  0  0  0  0  0  0  0  0  0  0
   25.6335  -20.5626  -12.1184 N   0  0  0  0  0  0  0  0  0  0  0  0
   24.5869  -21.2486  -11.4271 C   0  0  1  0  0  0  0  0  0  0  0  0
   24.6066  -21.0119   -9.9326 C   0  0  0  0  0  0  0  0  0  0  0  0
   26.2148  -20.3962   -9.3783 S   0  0  0  0  0  0  0  0  0  0  0  0
   23.2710  -20.7843  -11.9186 C   0  0  0  0  0  0  0  0  0  0  0  0
   23.1184  -19.5596  -12.1331 O   0  0  0  0  0  0  0  0  0  0  0  0
   22.1775  -21.6528  -12.1583 N   0  0  0  0  0  0  0  0  0  0  0  0
   20.9393  -21.1059  -12.6758 C   0  0  0  0  0  0  0  0  0  0  0  0
   19.8530  -21.3103  -11.6865 C   0  0  0  0  0  0  0  0  0  0  0  0
   19.5985  -22.4377  -11.1913 O   0  0  0  0  0  0  0  0  0  0  0  0
   19.1184  -20.1675  -11.3301 O   0  0  0  0  0  0  0  0  0  0  0  0
  1  2  1  0
  2 12  2  0
  3  4  2  0
  3  2  1  0
  4  5  1  0
  5  6  1  0
  5 11  2  0
  6  7  1  0
  7  9  1  0
  7  8  1  1
  9 13  1  0
 10  9  2  0
 12 11  1  0
 13 14  1  0
 14 15  1  1
 14 17  1  0
 16 15  1  0
 17 18  2  0
 17 19  1  0
 19 20  1  0
 21 20  1  0
 21 23  1  0
 22 21  2  0
M  END
$$$$
