YCG.pdb
     RDKit          3D

 23 23  0  0  1  0  0  0  0  0999 V2000
   28.6549  -11.7600  -16.4254 O   0  0  0  0  0  0  0  0  0  0  0  0
   27.3822  -11.1678  -16.4931 C   0  0  0  0  0  0  0  0  0  0  0  0
   26.9932  -10.2587  -15.5301 C   0  0  0  0  0  0  0  0  0  0  0  0
   25.7498   -9.6744  -15.5885 C   0  0  0  0  0  0  0  0  0  0  0  0
   24.8681   -9.9800  -16.6025 C   0  0  0  0  0  0  0  0  0  0  0  0
   23.5180   -9.3477  -16.6689 C   0  0  0  0  0  0  0  0  0  0  0  0
   22.5159  -10.0832  -15.7918 C   0  0  2  0  0  0  0  0  0  0  0  0
   22.4763  -11.4825  -16.0719 N   0  0  0  0  0  0  0  0  0  0  0  0
   21.2100   -9.4098  -15.9792 C   0  0  0  0  0  0  0  0  0  0  0  0
   20.4048   -9.8659  -16.8178 O   0  0  0  0  0  0  0  0  0  0  0  0
   25.2791  -10.8911  -17.5534 C   0  0  0  0  0  0  0  0  0  0  0  0
   26.5175  -11.4907  -17.5191 C   0  0  0  0  0  0  0  0  0  0  0  0
   20.8123   -8.2524  -15.2460 N   0  0  0  0  0  0  0  0  0  0  0  0
   19.5270   -7.6422  -15.3865 C   0  0  1  0  0  0  0  0  0  0  0  0
   18.5102   -8.1621  -14.3935 C   0  0  0  0  0  0  0  0  0  0  0  0
   19.2281   -8.3497  -12.7436 S   0  0  0  0  0  0  0  0  0  0  0  0
   19.6361   -6.1834  -15.1661 C   0  0  0  0  0  0  0  0  0  0  0  0
   20.3629   -5.7796  -14.2291 O   0  0  0  0  0  0  0  0  0  0  0  0
   18.9618   -5.2224  -15.9594 N   0  0  0  0  0  0  0  0  0  0  0  0
   19.1043   -3.8159  -15.6411 C   0  0  0  0  0  0  0  0  0  0  0  0
   20.2535   -3.2502  -16.3893 C   0  0  0  0  0  0  0  0  0  0  0  0
   21.4413   -3.5879  -16.1525 O   0  0  0  0  0  0  0  0  0  0  0  0
   19.9406   -2.3095  -17.3843 O   0  0  0  0  0  0  0  0  0  0  0  0
  1  2  1  0
  2 12  2  0
  3  4  2  0
  3  2  1  0
  4  5  1  0
  5  6  1  0
  5 11  2  0
  6  7  1  0
  7  9  1  0
  7  8  1  6
  9 13  1  0
 10  9  2  0
 12 11  1  0
 13 14  1  0
 14 15  1  1
 14 17  1  0
 16 15  1  0
 17 18  2  0
 17 19  1  0
 19 20  1  0
 21 20  1  0
 21 23  1  0
 22 21  2  0
M  END
$$$$
