YCG.pdb
     RDKit          3D

 23 23  0  0  1  0  0  0  0  0999 V2000
   24.0181  -12.1197  -16.8936 O   0  0  0  0  0  0  0  0  0  0  0  0
   24.1095  -13.4229  -16.3756 C   0  0  0  0  0  0  0  0  0  0  0  0
   25.1125  -13.7404  -15.4820 C   0  0  0  0  0  0  0  0  0  0  0  0
   25.2095  -15.0130  -14.9702 C   0  0  0  0  0  0  0  0  0  0  0  0
   24.3143  -15.9954  -15.3343 C   0  0  0  0  0  0  0  0  0  0  0  0
   24.4167  -17.3774  -14.7809 C   0  0  0  0  0  0  0  0  0  0  0  0
   25.4552  -18.2003  -15.5285 C   0  0  2  0  0  0  0  0  0  0  0  0
   25.0838  -18.4352  -16.8868 N   0  0  0  0  0  0  0  0  0  0  0  0
   25.6540  -19.4449  -14.7506 C   0  0  0  0  0  0  0  0  0  0  0  0
   24.8912  -20.4140  -14.9473 O   0  0  0  0  0  0  0  0  0  0  0  0
   23.3207  -15.6545  -16.2287 C   0  0  0  0  0  0  0  0  0  0  0  0
   23.2004  -14.3890  -16.7562 C   0  0  0  0  0  0  0  0  0  0  0  0
   26.6823  -19.6037  -13.7745 N   0  0  0  0  0  0  0  0  0  0  0  0
   26.7899  -20.7548  -12.9334 C   0  0  1  0  0  0  0  0  0  0  0  0
   28.1874  -20.9681  -12.3934 C   0  0  0  0  0  0  0  0  0  0  0  0
   29.3096  -21.5766  -13.6752 S   0  0  0  0  0  0  0  0  0  0  0  0
   25.8949  -20.6089  -11.7644 C   0  0  0  0  0  0  0  0  0  0  0  0
   25.7172  -19.4610  -11.2954 O   0  0  0  0  0  0  0  0  0  0  0  0
   25.2305  -21.6992  -11.1503 N   0  0  0  0  0  0  0  0  0  0  0  0
   24.3745  -21.4536  -10.0070 C   0  0  0  0  0  0  0  0  0  0  0  0
   22.9535  -21.5023  -10.4295 C   0  0  0  0  0  0  0  0  0  0  0  0
   22.6142  -21.6718  -11.6283 O   0  0  0  0  0  0  0  0  0  0  0  0
   21.9998  -21.3476   -9.4100 O   0  0  0  0  0  0  0  0  0  0  0  0
  1  2  1  0
  2 12  2  0
  3  4  2  0
  3  2  1  0
  4  5  1  0
  5  6  1  0
  5 11  2  0
  6  7  1  0
  7  9  1  0
  7  8  1  6
  9 13  1  0
 10  9  2  0
 12 11  1  0
 13 14  1  0
 14 15  1  1
 14 17  1  0
 16 15  1  0
 17 18  2  0
 17 19  1  0
 19 20  1  0
 21 20  1  0
 21 23  1  0
 22 21  2  0
M  END
$$$$
