YCG.pdb
     RDKit          3D

 23 23  0  0  1  0  0  0  0  0999 V2000
   26.3859  -17.4378  -19.2532 O   0  0  0  0  0  0  0  0  0  0  0  0
   26.7442  -17.8628  -17.9625 C   0  0  0  0  0  0  0  0  0  0  0  0
   28.0695  -17.8521  -17.5767 C   0  0  0  0  0  0  0  0  0  0  0  0
   28.4291  -18.2662  -16.3157 C   0  0  0  0  0  0  0  0  0  0  0  0
   27.4820  -18.6988  -15.4129 C   0  0  0  0  0  0  0  0  0  0  0  0
   27.8688  -19.1489  -14.0437 C   0  0  0  0  0  0  0  0  0  0  0  0
   27.9110  -20.6666  -13.9485 C   0  0  2  0  0  0  0  0  0  0  0  0
   28.0872  -21.2841  -15.2235 N   0  0  0  0  0  0  0  0  0  0  0  0
   26.6683  -21.0856  -13.2600 C   0  0  0  0  0  0  0  0  0  0  0  0
   25.8458  -21.8002  -13.8702 O   0  0  0  0  0  0  0  0  0  0  0  0
   26.1642  -18.7005  -15.8211 C   0  0  0  0  0  0  0  0  0  0  0  0
   25.7766  -18.2915  -17.0768 C   0  0  0  0  0  0  0  0  0  0  0  0
   26.3514  -20.7146  -11.9194 N   0  0  0  0  0  0  0  0  0  0  0  0
   25.1358  -21.0951  -11.2702 C   0  0  1  0  0  0  0  0  0  0  0  0
   25.1468  -20.8242   -9.7814 C   0  0  0  0  0  0  0  0  0  0  0  0
   23.5704  -21.2687   -9.0132 S   0  0  0  0  0  0  0  0  0  0  0  0
   24.0024  -20.3321  -11.8376 C   0  0  0  0  0  0  0  0  0  0  0  0
   24.2327  -19.1951  -12.3103 O   0  0  0  0  0  0  0  0  0  0  0  0
   22.6732  -20.8213  -11.8734 N   0  0  0  0  0  0  0  0  0  0  0  0
   21.7552  -20.3046  -12.8685 C   0  0  0  0  0  0  0  0  0  0  0  0
   21.2591  -21.4181  -13.7138 C   0  0  0  0  0  0  0  0  0  0  0  0
   21.9401  -22.4528  -13.9298 O   0  0  0  0  0  0  0  0  0  0  0  0
   19.9775  -21.2527  -14.2643 O   0  0  0  0  0  0  0  0  0  0  0  0
  1  2  1  0
  2 12  2  0
  3  4  2  0
  3  2  1  0
  4  5  1  0
  5  6  1  0
  5 11  2  0
  6  7  1  0
  7  9  1  0
  7  8  1  6
  9 13  1  0
 10  9  2  0
 12 11  1  0
 13 14  1  0
 14 15  1  1
 14 17  1  0
 16 15  1  0
 17 18  2  0
 17 19  1  0
 19 20  1  0
 21 20  1  0
 21 23  1  0
 22 21  2  0
M  END
$$$$
