YCG.pdb
     RDKit          3D

 23 23  0  0  1  0  0  0  0  0999 V2000
   21.8569  -30.6319  -15.1254 O   0  0  0  0  0  0  0  0  0  0  0  0
   23.2017  -31.0073  -15.2854 C   0  0  0  0  0  0  0  0  0  0  0  0
   24.0046  -30.3289  -16.1800 C   0  0  0  0  0  0  0  0  0  0  0  0
   25.3216  -30.6894  -16.3429 C   0  0  0  0  0  0  0  0  0  0  0  0
   25.8680  -31.7293  -15.6224 C   0  0  0  0  0  0  0  0  0  0  0  0
   27.2967  -32.1231  -15.7968 C   0  0  0  0  0  0  0  0  0  0  0  0
   27.4936  -32.9599  -17.0520 C   0  0  2  0  0  0  0  0  0  0  0  0
   26.8675  -34.2391  -16.9531 N   0  0  0  0  0  0  0  0  0  0  0  0
   28.9537  -33.0377  -17.2882 C   0  0  0  0  0  0  0  0  0  0  0  0
   29.5584  -34.0966  -17.0187 O   0  0  0  0  0  0  0  0  0  0  0  0
   25.0461  -32.3923  -14.7345 C   0  0  0  0  0  0  0  0  0  0  0  0
   23.7250  -32.0525  -14.5517 C   0  0  0  0  0  0  0  0  0  0  0  0
   29.7216  -31.9563  -17.8139 N   0  0  0  0  0  0  0  0  0  0  0  0
   31.0986  -32.0804  -18.1779 C   0  0  1  0  0  0  0  0  0  0  0  0
   31.5311  -31.0729  -19.2210 C   0  0  0  0  0  0  0  0  0  0  0  0
   33.2499  -31.3316  -19.7225 S   0  0  0  0  0  0  0  0  0  0  0  0
   31.9541  -31.8640  -16.9905 C   0  0  0  0  0  0  0  0  0  0  0  0
   31.6973  -30.8895  -16.2464 O   0  0  0  0  0  0  0  0  0  0  0  0
   33.0462  -32.7013  -16.6533 N   0  0  0  0  0  0  0  0  0  0  0  0
   33.7945  -32.4351  -15.4412 C   0  0  0  0  0  0  0  0  0  0  0  0
   34.9193  -33.3957  -15.3295 C   0  0  0  0  0  0  0  0  0  0  0  0
   35.0499  -34.3714  -16.1117 O   0  0  0  0  0  0  0  0  0  0  0  0
   35.8377  -33.1545  -14.2946 O   0  0  0  0  0  0  0  0  0  0  0  0
  1  2  1  0
  2 12  2  0
  3  4  2  0
  3  2  1  0
  4  5  1  0
  5  6  1  0
  5 11  2  0
  6  7  1  0
  7  9  1  0
  7  8  1  1
  9 13  1  0
 10  9  2  0
 12 11  1  0
 13 14  1  0
 14 15  1  6
 14 17  1  0
 16 15  1  0
 17 18  2  0
 17 19  1  0
 19 20  1  0
 21 20  1  0
 21 23  1  0
 22 21  2  0
M  END
$$$$
