YCG.pdb
     RDKit          3D

 23 23  0  0  1  0  0  0  0  0999 V2000
   28.7841  -14.9966  -18.1646 O   0  0  0  0  0  0  0  0  0  0  0  0
   28.0489  -15.9734  -17.4717 C   0  0  0  0  0  0  0  0  0  0  0  0
   27.8118  -15.8273  -16.1198 C   0  0  0  0  0  0  0  0  0  0  0  0
   27.0933  -16.7781  -15.4339 C   0  0  0  0  0  0  0  0  0  0  0  0
   26.5960  -17.8922  -16.0748 C   0  0  0  0  0  0  0  0  0  0  0  0
   25.8159  -18.9260  -15.3334 C   0  0  0  0  0  0  0  0  0  0  0  0
   26.7298  -19.8563  -14.5499 C   0  0  2  0  0  0  0  0  0  0  0  0
   27.5429  -20.6613  -15.4036 N   0  0  0  0  0  0  0  0  0  0  0  0
   25.8611  -20.6482  -13.6487 C   0  0  0  0  0  0  0  0  0  0  0  0
   25.3199  -21.6867  -14.0825 O   0  0  0  0  0  0  0  0  0  0  0  0
   26.8457  -18.0165  -17.4259 C   0  0  0  0  0  0  0  0  0  0  0  0
   27.5616  -17.0802  -18.1367 C   0  0  0  0  0  0  0  0  0  0  0  0
   25.6026  -20.2880  -12.2927 N   0  0  0  0  0  0  0  0  0  0  0  0
   24.7621  -21.0553  -11.4272 C   0  0  1  0  0  0  0  0  0  0  0  0
   25.1464  -20.9385   -9.9682 C   0  0  0  0  0  0  0  0  0  0  0  0
   26.8925  -21.3334   -9.7070 S   0  0  0  0  0  0  0  0  0  0  0  0
   23.3628  -20.5890  -11.5419 C   0  0  0  0  0  0  0  0  0  0  0  0
   23.1220  -19.3804  -11.3168 O   0  0  0  0  0  0  0  0  0  0  0  0
   22.2843  -21.4381  -11.8925 N   0  0  0  0  0  0  0  0  0  0  0  0
   20.9410  -20.8959  -11.9345 C   0  0  0  0  0  0  0  0  0  0  0  0
   19.9821  -21.9688  -12.2945 C   0  0  0  0  0  0  0  0  0  0  0  0
   18.7372  -21.7939  -12.2689 O   0  0  0  0  0  0  0  0  0  0  0  0
   20.5443  -23.2004  -12.6685 O   0  0  0  0  0  0  0  0  0  0  0  0
  1  2  1  0
  2 12  2  0
  3  4  2  0
  3  2  1  0
  4  5  1  0
  5  6  1  0
  5 11  2  0
  6  7  1  0
  7  9  1  0
  7  8  1  6
  9 13  1  0
 10  9  2  0
 12 11  1  0
 13 14  1  0
 14 15  1  1
 14 17  1  0
 16 15  1  0
 17 18  2  0
 17 19  1  0
 19 20  1  0
 21 20  1  0
 21 23  1  0
 22 21  2  0
M  END
$$$$
