YCG.pdb
     RDKit          3D

 23 23  0  0  1  0  0  0  0  0999 V2000
   27.8350  -13.9602  -17.6097 O   0  0  0  0  0  0  0  0  0  0  0  0
   27.4302  -15.1518  -16.9842 C   0  0  0  0  0  0  0  0  0  0  0  0
   27.2523  -15.1856  -15.6158 C   0  0  0  0  0  0  0  0  0  0  0  0
   26.8564  -16.3471  -14.9954 C   0  0  0  0  0  0  0  0  0  0  0  0
   26.6293  -17.4975  -15.7193 C   0  0  0  0  0  0  0  0  0  0  0  0
   26.1996  -18.7597  -15.0492 C   0  0  0  0  0  0  0  0  0  0  0  0
   27.3837  -19.4994  -14.4448 C   0  0  2  0  0  0  0  0  0  0  0  0
   28.2245  -20.0805  -15.4415 N   0  0  0  0  0  0  0  0  0  0  0  0
   26.8278  -20.4906  -13.4949 C   0  0  0  0  0  0  0  0  0  0  0  0
   26.7890  -21.6945  -13.8247 O   0  0  0  0  0  0  0  0  0  0  0  0
   26.8136  -17.4394  -17.0853 C   0  0  0  0  0  0  0  0  0  0  0  0
   27.2092  -16.2906  -17.7318 C   0  0  0  0  0  0  0  0  0  0  0  0
   26.3263  -20.1446  -12.2049 N   0  0  0  0  0  0  0  0  0  0  0  0
   25.7327  -21.0950  -11.3169 C   0  0  1  0  0  0  0  0  0  0  0  0
   26.3656  -21.1004   -9.9423 C   0  0  0  0  0  0  0  0  0  0  0  0
   25.1704  -21.5535   -8.6620 S   0  0  0  0  0  0  0  0  0  0  0  0
   24.2993  -20.7807  -11.1290 C   0  0  0  0  0  0  0  0  0  0  0  0
   23.9580  -19.5760  -11.0928 O   0  0  0  0  0  0  0  0  0  0  0  0
   23.2959  -21.7710  -10.9884 N   0  0  0  0  0  0  0  0  0  0  0  0
   22.5391  -22.1825  -12.1537 C   0  0  0  0  0  0  0  0  0  0  0  0
   21.4045  -21.2506  -12.3649 C   0  0  0  0  0  0  0  0  0  0  0  0
   21.5612  -20.0989  -12.8444 O   0  0  0  0  0  0  0  0  0  0  0  0
   20.1357  -21.7281  -11.9975 O   0  0  0  0  0  0  0  0  0  0  0  0
  1  2  1  0
  2 12  2  0
  3  4  2  0
  3  2  1  0
  4  5  1  0
  5  6  1  0
  5 11  2  0
  6  7  1  0
  7  9  1  0
  7  8  1  6
  9 13  1  0
 10  9  2  0
 12 11  1  0
 13 14  1  0
 14 15  1  1
 14 17  1  0
 16 15  1  0
 17 18  2  0
 17 19  1  0
 19 20  1  0
 21 20  1  0
 21 23  1  0
 22 21  2  0
M  END
$$$$
