YCG.pdb
     RDKit          3D

 23 23  0  0  1  0  0  0  0  0999 V2000
   17.7064  -23.5603  -12.1472 O   0  0  0  0  0  0  0  0  0  0  0  0
   18.9938  -23.2281  -12.6024 C   0  0  0  0  0  0  0  0  0  0  0  0
   19.3438  -23.4689  -13.9157 C   0  0  0  0  0  0  0  0  0  0  0  0
   20.6012  -23.1470  -14.3696 C   0  0  0  0  0  0  0  0  0  0  0  0
   21.5360  -22.5803  -13.5305 C   0  0  0  0  0  0  0  0  0  0  0  0
   22.9015  -22.2298  -14.0199 C   0  0  0  0  0  0  0  0  0  0  0  0
   23.0791  -20.7237  -14.1412 C   0  0  2  0  0  0  0  0  0  0  0  0
   21.9754  -20.0999  -14.7976 N   0  0  0  0  0  0  0  0  0  0  0  0
   24.3726  -20.5006  -14.8274 C   0  0  0  0  0  0  0  0  0  0  0  0
   24.3735  -20.0675  -15.9988 O   0  0  0  0  0  0  0  0  0  0  0  0
   21.1634  -22.3491  -12.2225 C   0  0  0  0  0  0  0  0  0  0  0  0
   19.9120  -22.6614  -11.7419 C   0  0  0  0  0  0  0  0  0  0  0  0
   25.6374  -20.7557  -14.2186 N   0  0  0  0  0  0  0  0  0  0  0  0
   26.8835  -20.4396  -14.8443 C   0  0  1  0  0  0  0  0  0  0  0  0
   27.9182  -19.9105  -13.8750 C   0  0  0  0  0  0  0  0  0  0  0  0
   27.3664  -18.3802  -13.0836 S   0  0  0  0  0  0  0  0  0  0  0  0
   27.4570  -21.6540  -15.4648 C   0  0  0  0  0  0  0  0  0  0  0  0
   27.2434  -22.7577  -14.9120 O   0  0  0  0  0  0  0  0  0  0  0  0
   28.2336  -21.6317  -16.6496 N   0  0  0  0  0  0  0  0  0  0  0  0
   28.6574  -22.8845  -17.2420 C   0  0  0  0  0  0  0  0  0  0  0  0
   28.2003  -22.9483  -18.6517 C   0  0  0  0  0  0  0  0  0  0  0  0
   26.9835  -23.0155  -18.9613 O   0  0  0  0  0  0  0  0  0  0  0  0
   29.2082  -22.9294  -19.6298 O   0  0  0  0  0  0  0  0  0  0  0  0
  1  2  1  0
  2 12  2  0
  3  4  2  0
  3  2  1  0
  4  5  1  0
  5  6  1  0
  5 11  2  0
  6  7  1  0
  7  9  1  0
  7  8  1  6
  9 13  1  0
 10  9  2  0
 12 11  1  0
 13 14  1  0
 14 15  1  1
 14 17  1  0
 16 15  1  0
 17 18  2  0
 17 19  1  0
 19 20  1  0
 21 20  1  0
 21 23  1  0
 22 21  2  0
M  END
$$$$
