YCG.pdb
     RDKit          3D

 23 23  0  0  1  0  0  0  0  0999 V2000
   35.7529  -10.7303  -18.2587 O   0  0  0  0  0  0  0  0  0  0  0  0
   34.3822  -10.4776  -18.0793 C   0  0  0  0  0  0  0  0  0  0  0  0
   33.5170  -11.5218  -17.8216 C   0  0  0  0  0  0  0  0  0  0  0  0
   32.1743  -11.2837  -17.6447 C   0  0  0  0  0  0  0  0  0  0  0  0
   31.6633  -10.0061  -17.7198 C   0  0  0  0  0  0  0  0  0  0  0  0
   30.2068   -9.7442  -17.5283 C   0  0  0  0  0  0  0  0  0  0  0  0
   29.3581  -10.6614  -18.3961 C   0  0  2  0  0  0  0  0  0  0  0  0
   29.6970  -10.5636  -19.7794 N   0  0  0  0  0  0  0  0  0  0  0  0
   27.9431  -10.3273  -18.1133 C   0  0  0  0  0  0  0  0  0  0  0  0
   27.2626   -9.7637  -18.9958 O   0  0  0  0  0  0  0  0  0  0  0  0
   32.5472   -8.9788  -17.9783 C   0  0  0  0  0  0  0  0  0  0  0  0
   33.8953   -9.1887  -18.1594 C   0  0  0  0  0  0  0  0  0  0  0  0
   27.3022  -10.6166  -16.8719 N   0  0  0  0  0  0  0  0  0  0  0  0
   25.9048  -10.4133  -16.6483 C   0  0  1  0  0  0  0  0  0  0  0  0
   25.3609  -11.2346  -15.4995 C   0  0  0  0  0  0  0  0  0  0  0  0
   25.8253  -12.9766  -15.6493 S   0  0  0  0  0  0  0  0  0  0  0  0
   25.6492   -8.9935  -16.3205 C   0  0  0  0  0  0  0  0  0  0  0  0
   26.5180   -8.3720  -15.6661 O   0  0  0  0  0  0  0  0  0  0  0  0
   24.4745   -8.3030  -16.7085 N   0  0  0  0  0  0  0  0  0  0  0  0
   24.3467   -6.8933  -16.3981 C   0  0  0  0  0  0  0  0  0  0  0  0
   24.6421   -6.0883  -17.6085 C   0  0  0  0  0  0  0  0  0  0  0  0
   23.7361   -5.5592  -18.3013 O   0  0  0  0  0  0  0  0  0  0  0  0
   25.9994   -5.9479  -17.9415 O   0  0  0  0  0  0  0  0  0  0  0  0
  1  2  1  0
  2 12  2  0
  3  4  2  0
  3  2  1  0
  4  5  1  0
  5  6  1  0
  5 11  2  0
  6  7  1  0
  7  9  1  0
  7  8  1  6
  9 13  1  0
 10  9  2  0
 12 11  1  0
 13 14  1  0
 14 15  1  1
 14 17  1  0
 16 15  1  0
 17 18  2  0
 17 19  1  0
 19 20  1  0
 21 20  1  0
 21 23  1  0
 22 21  2  0
M  END
$$$$
