YCG.pdb
     RDKit          3D

 23 23  0  0  1  0  0  0  0  0999 V2000
   15.3322  -20.5419  -12.3532 O   0  0  0  0  0  0  0  0  0  0  0  0
   16.6860  -20.2545  -12.1093 C   0  0  0  0  0  0  0  0  0  0  0  0
   17.5591  -20.1002  -13.1673 C   0  0  0  0  0  0  0  0  0  0  0  0
   18.8854  -19.8189  -12.9379 C   0  0  0  0  0  0  0  0  0  0  0  0
   19.3718  -19.6850  -11.6555 C   0  0  0  0  0  0  0  0  0  0  0  0
   20.8105  -19.3797  -11.4030 C   0  0  0  0  0  0  0  0  0  0  0  0
   21.6045  -20.6443  -11.1118 C   0  0  2  0  0  0  0  0  0  0  0  0
   21.5745  -20.9954   -9.7284 N   0  0  0  0  0  0  0  0  0  0  0  0
   22.9733  -20.4176  -11.6304 C   0  0  0  0  0  0  0  0  0  0  0  0
   23.7742  -19.7360  -10.9570 O   0  0  0  0  0  0  0  0  0  0  0  0
   18.4805  -19.8435  -10.6144 C   0  0  0  0  0  0  0  0  0  0  0  0
   17.1484  -20.1253  -10.8154 C   0  0  0  0  0  0  0  0  0  0  0  0
   23.4373  -20.9408  -12.8740 N   0  0  0  0  0  0  0  0  0  0  0  0
   24.7706  -20.7496  -13.3531 C   0  0  1  0  0  0  0  0  0  0  0  0
   25.6074  -22.0095  -13.3015 C   0  0  0  0  0  0  0  0  0  0  0  0
   25.9478  -22.5120  -11.5973 S   0  0  0  0  0  0  0  0  0  0  0  0
   24.7394  -20.3118  -14.7659 C   0  0  0  0  0  0  0  0  0  0  0  0
   23.7065  -20.5460  -15.4348 O   0  0  0  0  0  0  0  0  0  0  0  0
   25.8160  -19.6427  -15.3988 N   0  0  0  0  0  0  0  0  0  0  0  0
   25.6456  -19.1474  -16.7500 C   0  0  0  0  0  0  0  0  0  0  0  0
   26.9025  -18.5062  -17.2074 C   0  0  0  0  0  0  0  0  0  0  0  0
   27.9235  -18.4323  -16.4774 O   0  0  0  0  0  0  0  0  0  0  0  0
   26.8905  -17.9820  -18.5104 O   0  0  0  0  0  0  0  0  0  0  0  0
  1  2  1  0
  2 12  2  0
  3  4  2  0
  3  2  1  0
  4  5  1  0
  5  6  1  0
  5 11  2  0
  6  7  1  0
  7  9  1  0
  7  8  1  1
  9 13  1  0
 10  9  2  0
 12 11  1  0
 13 14  1  0
 14 15  1  6
 14 17  1  0
 16 15  1  0
 17 18  2  0
 17 19  1  0
 19 20  1  0
 21 20  1  0
 21 23  1  0
 22 21  2  0
M  END
$$$$
