YCG.pdb
     RDKit          3D

 23 23  0  0  1  0  0  0  0  0999 V2000
   14.6051  -16.4193  -15.5197 O   0  0  0  0  0  0  0  0  0  0  0  0
   15.5716  -15.4001  -15.4740 C   0  0  0  0  0  0  0  0  0  0  0  0
   15.4720  -14.3174  -16.3243 C   0  0  0  0  0  0  0  0  0  0  0  0
   16.4132  -13.3156  -16.2864 C   0  0  0  0  0  0  0  0  0  0  0  0
   17.4713  -13.3677  -15.4050 C   0  0  0  0  0  0  0  0  0  0  0  0
   18.4944  -12.2823  -15.3612 C   0  0  0  0  0  0  0  0  0  0  0  0
   19.2655  -12.1920  -16.6696 C   0  0  2  0  0  0  0  0  0  0  0  0
   20.0784  -13.3430  -16.8990 N   0  0  0  0  0  0  0  0  0  0  0  0
   20.0368  -10.9283  -16.6239 C   0  0  0  0  0  0  0  0  0  0  0  0
   21.2015  -10.9420  -16.1735 O   0  0  0  0  0  0  0  0  0  0  0  0
   17.5498  -14.4595  -14.5651 C   0  0  0  0  0  0  0  0  0  0  0  0
   16.6220  -15.4759  -14.5819 C   0  0  0  0  0  0  0  0  0  0  0  0
   19.5184   -9.6767  -17.0713 N   0  0  0  0  0  0  0  0  0  0  0  0
   20.3026   -8.4828  -17.1311 C   0  0  1  0  0  0  0  0  0  0  0  0
   19.7977   -7.4904  -18.1559 C   0  0  0  0  0  0  0  0  0  0  0  0
   19.5119   -8.2779  -19.7593 S   0  0  0  0  0  0  0  0  0  0  0  0
   20.2765   -7.7978  -15.8200 C   0  0  0  0  0  0  0  0  0  0  0  0
   19.3233   -8.0415  -15.0445 O   0  0  0  0  0  0  0  0  0  0  0  0
   21.2725   -6.8826  -15.3985 N   0  0  0  0  0  0  0  0  0  0  0  0
   21.2129   -6.3400  -14.0561 C   0  0  0  0  0  0  0  0  0  0  0  0
   22.4072   -5.4964  -13.8066 C   0  0  0  0  0  0  0  0  0  0  0  0
   23.3195   -5.3540  -14.6601 O   0  0  0  0  0  0  0  0  0  0  0  0
   22.4644   -4.8603  -12.5557 O   0  0  0  0  0  0  0  0  0  0  0  0
  1  2  1  0
  2 12  2  0
  3  4  2  0
  3  2  1  0
  4  5  1  0
  5  6  1  0
  5 11  2  0
  6  7  1  0
  7  9  1  0
  7  8  1  1
  9 13  1  0
 10  9  2  0
 12 11  1  0
 13 14  1  0
 14 15  1  6
 14 17  1  0
 16 15  1  0
 17 18  2  0
 17 19  1  0
 19 20  1  0
 21 20  1  0
 21 23  1  0
 22 21  2  0
M  END
$$$$
