YCG.pdb
     RDKit          3D

 23 23  0  0  1  0  0  0  0  0999 V2000
   17.9001  -12.6973  -17.2607 O   0  0  0  0  0  0  0  0  0  0  0  0
   18.4511  -11.5265  -16.7124 C   0  0  0  0  0  0  0  0  0  0  0  0
   18.4032  -11.3154  -15.3492 C   0  0  0  0  0  0  0  0  0  0  0  0
   18.9398  -10.1727  -14.8041 C   0  0  0  0  0  0  0  0  0  0  0  0
   19.5341   -9.2172  -15.5997 C   0  0  0  0  0  0  0  0  0  0  0  0
   20.1173   -7.9760  -15.0115 C   0  0  0  0  0  0  0  0  0  0  0  0
   21.6327   -7.9561  -15.1453 C   0  0  2  0  0  0  0  0  0  0  0  0
   22.2615   -8.9381  -14.3217 N   0  0  0  0  0  0  0  0  0  0  0  0
   22.0692   -6.5726  -14.8466 C   0  0  0  0  0  0  0  0  0  0  0  0
   22.4473   -6.2899  -13.6904 O   0  0  0  0  0  0  0  0  0  0  0  0
   19.5700   -9.4502  -16.9590 C   0  0  0  0  0  0  0  0  0  0  0  0
   19.0408  -10.5848  -17.5309 C   0  0  0  0  0  0  0  0  0  0  0  0
   22.0831   -5.5278  -15.8180 N   0  0  0  0  0  0  0  0  0  0  0  0
   22.5729   -4.2129  -15.5440 C   0  0  1  0  0  0  0  0  0  0  0  0
   23.6592   -3.7717  -16.5008 C   0  0  0  0  0  0  0  0  0  0  0  0
   24.2791   -2.1230  -16.0881 S   0  0  0  0  0  0  0  0  0  0  0  0
   21.4721   -3.2316  -15.6614 C   0  0  0  0  0  0  0  0  0  0  0  0
   20.7052   -3.3185  -16.6481 O   0  0  0  0  0  0  0  0  0  0  0  0
   21.2422   -2.2011  -14.7166 N   0  0  0  0  0  0  0  0  0  0  0  0
   20.1796   -1.2452  -14.9561 C   0  0  0  0  0  0  0  0  0  0  0  0
   18.9176   -1.7431  -14.3562 C   0  0  0  0  0  0  0  0  0  0  0  0
   18.8341   -2.8705  -13.8059 O   0  0  0  0  0  0  0  0  0  0  0  0
   17.8123   -0.8802  -14.4368 O   0  0  0  0  0  0  0  0  0  0  0  0
  1  2  1  0
  2 12  2  0
  3  4  2  0
  3  2  1  0
  4  5  1  0
  5  6  1  0
  5 11  2  0
  6  7  1  0
  7  9  1  0
  7  8  1  1
  9 13  1  0
 10  9  2  0
 12 11  1  0
 13 14  1  0
 14 15  1  6
 14 17  1  0
 16 15  1  0
 17 18  2  0
 17 19  1  0
 19 20  1  0
 21 20  1  0
 21 23  1  0
 22 21  2  0
M  END
$$$$
