PHM.pdb
     RDKit          3D

 26 27  0  0  1  0  0  0  0  0999 V2000
   27.6472  -19.5146  -16.8314 N   0  0  0  0  0  0  0  0  0  0  0  0
   28.7656  -19.2138  -17.7055 C   0  0  0  0  0  0  0  0  0  0  0  0
   28.8281  -17.7107  -17.8419 C   0  0  0  0  0  0  0  0  0  0  0  0
   27.7559  -17.2231  -16.8773 C   0  0  0  0  0  0  0  0  0  0  0  0
   27.6720  -18.3820  -15.9202 C   0  0  1  0  0  0  0  0  0  0  0  0
   26.5064  -18.3428  -15.0337 C   0  0  0  0  0  0  0  0  0  0  0  0
   26.3930  -17.4091  -14.2242 O   0  0  0  0  0  0  0  0  0  0  0  0
   25.4774  -19.3509  -15.0617 N   0  0  0  0  0  0  0  0  0  0  0  0
   24.3064  -19.2943  -14.2463 C   0  0  1  0  0  0  0  0  0  0  0  0
   23.0196  -19.3489  -15.0319 C   0  0  0  0  0  0  0  0  0  0  0  0
   22.9265  -18.1807  -15.9407 C   0  0  0  0  0  0  0  0  0  0  0  0
   23.2211  -18.1424  -17.2855 C   0  0  0  0  0  0  0  0  0  0  0  0
   23.0045  -16.8842  -17.7497 N   0  0  0  0  0  0  0  0  0  0  0  0
   22.5806  -16.1427  -16.7139 C   0  0  0  0  0  0  0  0  0  0  0  0
   22.5383  -16.9354  -15.6323 N   0  0  0  0  0  0  0  0  0  0  0  0
   24.3306  -20.2416  -13.1115 C   0  0  0  0  0  0  0  0  0  0  0  0
   24.0486  -21.4678  -13.2283 O   0  0  0  0  0  0  0  0  0  0  0  0
   26.3295  -18.9299   -6.5937 C   0  0  0  0  0  0  0  0  0  0  0  0
   26.9298  -20.5202   -7.2108 S   0  0  0  0  0  0  0  0  0  0  0  0
   25.8265  -21.1780   -8.5037 C   0  0  0  0  0  0  0  0  0  0  0  0
   25.7290  -20.2485   -9.6690 C   0  0  0  0  0  0  0  0  0  0  0  0
   24.7795  -20.7925  -10.7020 C   0  0  2  0  0  0  0  0  0  0  0  0
   24.6803  -19.8292  -11.7815 N   0  0  0  0  0  0  0  0  0  0  0  0
   23.4414  -21.0758  -10.1419 C   0  0  0  0  0  0  0  0  0  0  0  0
   23.3064  -21.9675   -9.2697 O   0  0  0  0  0  0  0  0  0  0  0  0
   22.3122  -20.3852  -10.5480 O   0  0  0  0  0  0  0  0  0  0  0  0
  1  2  1  0
  2  3  1  0
  4  3  1  0
  5  6  1  6
  5  1  1  0
  5  4  1  0
  6  8  1  0
  7  6  2  0
  8  9  1  0
  9 10  1  6
 10 11  1  0
 11 12  2  0
 11 15  1  0
 12 13  1  0
 13 14  1  0
 15 14  2  0
 16  9  1  0
 17 16  2  0
 18 19  1  0
 20 19  1  0
 21 20  1  0
 22 21  1  1
 22 23  1  0
 22 24  1  0
 23 16  1  0
 24 26  1  0
 25 24  2  0
M  END
$$$$
