PHM.pdb
     RDKit          3D

 26 27  0  0  1  0  0  0  0  0999 V2000
   23.9684  -12.5018  -16.1571 N   0  0  0  0  0  0  0  0  0  0  0  0
   25.0007  -13.4851  -16.4272 C   0  0  0  0  0  0  0  0  0  0  0  0
   25.5390  -13.1928  -17.8079 C   0  0  0  0  0  0  0  0  0  0  0  0
   24.8227  -11.9086  -18.2024 C   0  0  0  0  0  0  0  0  0  0  0  0
   24.4841  -11.3340  -16.8528 C   0  0  1  0  0  0  0  0  0  0  0  0
   23.5218  -10.2302  -16.8967 C   0  0  0  0  0  0  0  0  0  0  0  0
   23.8941   -9.1189  -17.3044 O   0  0  0  0  0  0  0  0  0  0  0  0
   22.1501  -10.3814  -16.4829 N   0  0  0  0  0  0  0  0  0  0  0  0
   21.1616   -9.3680  -16.6709 C   0  0  1  0  0  0  0  0  0  0  0  0
   19.8083   -9.9087  -17.0612 C   0  0  0  0  0  0  0  0  0  0  0  0
   19.3316  -10.8751  -16.0423 C   0  0  0  0  0  0  0  0  0  0  0  0
   19.9164  -12.0698  -15.6853 C   0  0  0  0  0  0  0  0  0  0  0  0
   19.1679  -12.6556  -14.7147 N   0  0  0  0  0  0  0  0  0  0  0  0
   18.1289  -11.8428  -14.4650 C   0  0  0  0  0  0  0  0  0  0  0  0
   18.2402  -10.7758  -15.2705 N   0  0  0  0  0  0  0  0  0  0  0  0
   21.0957   -8.3940  -15.5606 C   0  0  0  0  0  0  0  0  0  0  0  0
   21.3735   -8.6898  -14.3639 O   0  0  0  0  0  0  0  0  0  0  0  0
   23.1503   -1.9584  -17.2898 C   0  0  0  0  0  0  0  0  0  0  0  0
   23.3233   -3.1887  -15.9758 S   0  0  0  0  0  0  0  0  0  0  0  0
   21.8249   -4.2176  -15.8427 C   0  0  0  0  0  0  0  0  0  0  0  0
   21.9573   -5.2459  -14.7673 C   0  0  0  0  0  0  0  0  0  0  0  0
   20.7062   -6.0766  -14.6724 C   0  0  2  0  0  0  0  0  0  0  0  0
   20.7068   -7.0275  -15.7673 N   0  0  0  0  0  0  0  0  0  0  0  0
   19.4799   -5.2524  -14.7086 C   0  0  0  0  0  0  0  0  0  0  0  0
   18.7642   -5.2442  -15.7390 O   0  0  0  0  0  0  0  0  0  0  0  0
   19.0828   -4.4761  -13.6332 O   0  0  0  0  0  0  0  0  0  0  0  0
  1  2  1  0
  2  3  1  0
  4  3  1  0
  5  6  1  6
  5  1  1  0
  5  4  1  0
  6  8  1  0
  7  6  2  0
  8  9  1  0
  9 10  1  1
 10 11  1  0
 11 12  2  0
 11 15  1  0
 12 13  1  0
 13 14  1  0
 15 14  2  0
 16  9  1  0
 17 16  2  0
 18 19  1  0
 20 19  1  0
 21 20  1  0
 22 21  1  6
 22 23  1  0
 22 24  1  0
 23 16  1  0
 24 26  1  0
 25 24  2  0
M  END
$$$$
