PHM.pdb
     RDKit          3D

 26 27  0  0  1  0  0  0  0  0999 V2000
   17.6882  -13.9415  -16.2652 N   0  0  0  0  0  0  0  0  0  0  0  0
   17.6850  -15.3891  -16.3646 C   0  0  0  0  0  0  0  0  0  0  0  0
   18.1972  -15.7385  -17.7421 C   0  0  0  0  0  0  0  0  0  0  0  0
   18.6013  -14.3901  -18.3218 C   0  0  0  0  0  0  0  0  0  0  0  0
   18.8485  -13.5931  -17.0688 C   0  0  1  0  0  0  0  0  0  0  0  0
   18.9705  -12.1503  -17.2916 C   0  0  0  0  0  0  0  0  0  0  0  0
   19.8885  -11.7246  -18.0099 O   0  0  0  0  0  0  0  0  0  0  0  0
   18.0626  -11.1966  -16.7071 N   0  0  0  0  0  0  0  0  0  0  0  0
   18.1920   -9.7854  -16.8838 C   0  0  1  0  0  0  0  0  0  0  0  0
   16.8908   -9.0954  -17.2108 C   0  0  0  0  0  0  0  0  0  0  0  0
   15.7744  -10.0712  -17.1820 C   0  0  0  0  0  0  0  0  0  0  0  0
   15.5603  -11.1220  -18.0461 C   0  0  0  0  0  0  0  0  0  0  0  0
   14.4273  -11.7741  -17.6768 N   0  0  0  0  0  0  0  0  0  0  0  0
   13.9363  -11.1439  -16.5978 C   0  0  0  0  0  0  0  0  0  0  0  0
   14.7566  -10.1217  -16.3113 N   0  0  0  0  0  0  0  0  0  0  0  0
   18.9409   -9.1202  -15.7965 C   0  0  0  0  0  0  0  0  0  0  0  0
   18.6458   -9.2487  -14.5745 O   0  0  0  0  0  0  0  0  0  0  0  0
   23.7026  -12.2612  -14.2444 C   0  0  0  0  0  0  0  0  0  0  0  0
   23.8011  -10.5124  -14.6938 S   0  0  0  0  0  0  0  0  0  0  0  0
   22.1871   -9.6921  -14.4845 C   0  0  0  0  0  0  0  0  0  0  0  0
   22.2144   -8.2867  -14.9904 C   0  0  0  0  0  0  0  0  0  0  0  0
   20.8333   -7.6898  -14.9696 C   0  0  2  0  0  0  0  0  0  0  0  0
   20.0693   -8.2715  -16.0564 N   0  0  0  0  0  0  0  0  0  0  0  0
   20.8555   -6.2168  -15.0883 C   0  0  0  0  0  0  0  0  0  0  0  0
   20.5637   -5.6748  -16.1816 O   0  0  0  0  0  0  0  0  0  0  0  0
   21.1908   -5.3975  -14.0238 O   0  0  0  0  0  0  0  0  0  0  0  0
  1  2  1  0
  2  3  1  0
  4  3  1  0
  5  6  1  6
  5  1  1  0
  5  4  1  0
  6  8  1  0
  7  6  2  0
  8  9  1  0
  9 10  1  1
 10 11  1  0
 11 12  2  0
 11 15  1  0
 12 13  1  0
 13 14  1  0
 15 14  2  0
 16  9  1  0
 17 16  2  0
 18 19  1  0
 20 19  1  0
 21 20  1  0
 22 21  1  6
 22 23  1  0
 22 24  1  0
 23 16  1  0
 24 26  1  0
 25 24  2  0
M  END
$$$$
