PHM.pdb
     RDKit          3D

 26 27  0  0  1  0  0  0  0  0999 V2000
   22.0941  -13.3075  -14.8771 N   0  0  0  0  0  0  0  0  0  0  0  0
   22.7127  -14.6083  -14.7019 C   0  0  0  0  0  0  0  0  0  0  0  0
   23.4186  -14.9399  -15.9955 C   0  0  0  0  0  0  0  0  0  0  0  0
   23.2512  -13.6739  -16.8244 C   0  0  0  0  0  0  0  0  0  0  0  0
   23.0494  -12.6415  -15.7475 C   0  0  1  0  0  0  0  0  0  0  0  0
   22.5626  -11.3505  -16.2399 C   0  0  0  0  0  0  0  0  0  0  0  0
   23.2625  -10.7030  -17.0341 O   0  0  0  0  0  0  0  0  0  0  0  0
   21.2952  -10.7958  -15.8376 N   0  0  0  0  0  0  0  0  0  0  0  0
   20.7587   -9.5929  -16.3895 C   0  0  1  0  0  0  0  0  0  0  0  0
   19.3455   -9.7384  -16.8970 C   0  0  0  0  0  0  0  0  0  0  0  0
   19.3233  -10.5971  -18.1060 C   0  0  0  0  0  0  0  0  0  0  0  0
   19.5839  -10.2191  -19.4045 C   0  0  0  0  0  0  0  0  0  0  0  0
   19.4575  -11.3026  -20.2140 N   0  0  0  0  0  0  0  0  0  0  0  0
   19.1227  -12.3456  -19.4376 C   0  0  0  0  0  0  0  0  0  0  0  0
   19.0456  -11.9067  -18.1723 N   0  0  0  0  0  0  0  0  0  0  0  0
   20.9410   -8.4114  -15.5198 C   0  0  0  0  0  0  0  0  0  0  0  0
   20.8828   -8.4656  -14.2587 O   0  0  0  0  0  0  0  0  0  0  0  0
   23.3621   -0.8729  -15.0183 C   0  0  0  0  0  0  0  0  0  0  0  0
   23.0333   -2.3001  -16.0791 S   0  0  0  0  0  0  0  0  0  0  0  0
   22.2765   -3.6593  -15.1296 C   0  0  0  0  0  0  0  0  0  0  0  0
   22.0376   -4.8610  -15.9843 C   0  0  0  0  0  0  0  0  0  0  0  0
   21.4122   -5.9675  -15.1787 C   0  0  2  0  0  0  0  0  0  0  0  0
   21.1999   -7.1042  -16.0540 N   0  0  0  0  0  0  0  0  0  0  0  0
   20.1380   -5.5563  -14.5528 C   0  0  0  0  0  0  0  0  0  0  0  0
   20.1291   -5.1480  -13.3665 O   0  0  0  0  0  0  0  0  0  0  0  0
   18.9338   -5.6046  -15.2344 O   0  0  0  0  0  0  0  0  0  0  0  0
  1  2  1  0
  2  3  1  0
  4  3  1  0
  5  6  1  6
  5  1  1  0
  5  4  1  0
  6  8  1  0
  7  6  2  0
  8  9  1  0
  9 10  1  1
 10 11  1  0
 11 12  2  0
 11 15  1  0
 12 13  1  0
 13 14  1  0
 15 14  2  0
 16  9  1  0
 17 16  2  0
 18 19  1  0
 20 19  1  0
 21 20  1  0
 22 21  1  6
 22 23  1  0
 22 24  1  0
 23 16  1  0
 24 26  1  0
 25 24  2  0
M  END
$$$$
