PHM.pdb
     RDKit          3D

 26 27  0  0  1  0  0  0  0  0999 V2000
   27.2484  -20.8359  -16.4956 N   0  0  0  0  0  0  0  0  0  0  0  0
   28.6601  -20.8736  -16.8291 C   0  0  0  0  0  0  0  0  0  0  0  0
   29.1342  -19.4415  -16.9064 C   0  0  0  0  0  0  0  0  0  0  0  0
   27.9181  -18.6416  -16.4601 C   0  0  0  0  0  0  0  0  0  0  0  0
   27.1789  -19.6637  -15.6385 C   0  0  1  0  0  0  0  0  0  0  0  0
   25.8030  -19.2845  -15.3081 C   0  0  0  0  0  0  0  0  0  0  0  0
   25.6032  -18.4651  -14.3979 O   0  0  0  0  0  0  0  0  0  0  0  0
   24.6622  -19.8272  -16.0008 N   0  0  0  0  0  0  0  0  0  0  0  0
   23.3174  -19.4440  -15.7106 C   0  0  1  0  0  0  0  0  0  0  0  0
   22.4379  -19.3523  -16.9329 C   0  0  0  0  0  0  0  0  0  0  0  0
   22.8581  -18.2095  -17.7796 C   0  0  0  0  0  0  0  0  0  0  0  0
   23.2093  -16.9449  -17.3623 C   0  0  0  0  0  0  0  0  0  0  0  0
   23.5297  -16.1943  -18.4482 N   0  0  0  0  0  0  0  0  0  0  0  0
   23.3826  -16.9738  -19.5313 C   0  0  0  0  0  0  0  0  0  0  0  0
   22.9784  -18.1831  -19.1143 N   0  0  0  0  0  0  0  0  0  0  0  0
   22.7041  -20.2248  -14.6153 C   0  0  0  0  0  0  0  0  0  0  0  0
   22.6605  -21.4877  -14.6068 O   0  0  0  0  0  0  0  0  0  0  0  0
   25.0327  -20.1986   -9.1569 C   0  0  0  0  0  0  0  0  0  0  0  0
   23.3466  -20.4570   -8.5563 S   0  0  0  0  0  0  0  0  0  0  0  0
   22.2013  -20.7706   -9.9389 C   0  0  0  0  0  0  0  0  0  0  0  0
   22.6450  -20.0816  -11.1879 C   0  0  0  0  0  0  0  0  0  0  0  0
   21.6964  -20.3737  -12.3190 C   0  0  2  0  0  0  0  0  0  0  0  0
   22.1080  -19.5950  -13.4711 N   0  0  0  0  0  0  0  0  0  0  0  0
   20.2931  -20.0699  -11.9686 C   0  0  0  0  0  0  0  0  0  0  0  0
   19.8648  -18.8952  -12.0719 O   0  0  0  0  0  0  0  0  0  0  0  0
   19.4177  -21.0459  -11.5235 O   0  0  0  0  0  0  0  0  0  0  0  0
  1  2  1  0
  2  3  1  0
  4  3  1  0
  5  6  1  6
  5  1  1  0
  5  4  1  0
  6  8  1  0
  7  6  2  0
  8  9  1  0
  9 10  1  6
 10 11  1  0
 11 12  2  0
 11 15  1  0
 12 13  1  0
 13 14  1  0
 15 14  2  0
 16  9  1  0
 17 16  2  0
 18 19  1  0
 20 19  1  0
 21 20  1  0
 22 21  1  1
 22 23  1  0
 22 24  1  0
 23 16  1  0
 24 26  1  0
 25 24  2  0
M  END
$$$$
