PHM.pdb
     RDKit          3D

 26 27  0  0  1  0  0  0  0  0999 V2000
   17.8055  -12.3479  -17.5367 N   0  0  0  0  0  0  0  0  0  0  0  0
   17.4931  -13.6828  -18.0119 C   0  0  0  0  0  0  0  0  0  0  0  0
   18.6405  -14.5767  -17.6043 C   0  0  0  0  0  0  0  0  0  0  0  0
   19.5205  -13.6618  -16.7638 C   0  0  0  0  0  0  0  0  0  0  0  0
   18.5216  -12.6336  -16.3042 C   0  0  1  0  0  0  0  0  0  0  0  0
   19.1241  -11.4381  -15.7092 C   0  0  0  0  0  0  0  0  0  0  0  0
   19.7794  -11.5485  -14.6612 O   0  0  0  0  0  0  0  0  0  0  0  0
   18.9869  -10.1285  -16.2939 N   0  0  0  0  0  0  0  0  0  0  0  0
   19.5591   -8.9529  -15.7194 C   0  0  1  0  0  0  0  0  0  0  0  0
   20.4521   -8.1904  -16.6666 C   0  0  0  0  0  0  0  0  0  0  0  0
   21.6868   -8.9655  -16.9393 C   0  0  0  0  0  0  0  0  0  0  0  0
   22.8538   -8.9631  -16.2080 C   0  0  0  0  0  0  0  0  0  0  0  0
   23.7427   -9.8085  -16.7914 N   0  0  0  0  0  0  0  0  0  0  0  0
   23.1448  -10.3345  -17.8724 C   0  0  0  0  0  0  0  0  0  0  0  0
   21.9088   -9.8186  -17.9490 N   0  0  0  0  0  0  0  0  0  0  0  0
   18.5729   -8.0899  -15.0350 C   0  0  0  0  0  0  0  0  0  0  0  0
   17.4777   -7.7408  -15.5598 O   0  0  0  0  0  0  0  0  0  0  0  0
   15.3959   -6.0164   -8.2013 C   0  0  0  0  0  0  0  0  0  0  0  0
   16.4206   -7.1324   -9.1887 S   0  0  0  0  0  0  0  0  0  0  0  0
   16.6397   -6.4927  -10.8811 C   0  0  0  0  0  0  0  0  0  0  0  0
   17.4970   -7.3973  -11.7046 C   0  0  0  0  0  0  0  0  0  0  0  0
   17.7911   -6.7747  -13.0426 C   0  0  2  0  0  0  0  0  0  0  0  0
   18.7936   -7.5823  -13.7103 N   0  0  0  0  0  0  0  0  0  0  0  0
   18.2547   -5.3764  -12.9224 C   0  0  0  0  0  0  0  0  0  0  0  0
   17.4668   -4.4914  -12.5100 O   0  0  0  0  0  0  0  0  0  0  0  0
   19.5449   -4.9978  -13.2523 O   0  0  0  0  0  0  0  0  0  0  0  0
  1  2  1  0
  2  3  1  0
  4  3  1  0
  5  6  1  6
  5  1  1  0
  5  4  1  0
  6  8  1  0
  7  6  2  0
  8  9  1  0
  9 10  1  6
 10 11  1  0
 11 12  2  0
 11 15  1  0
 12 13  1  0
 13 14  1  0
 15 14  2  0
 16  9  1  0
 17 16  2  0
 18 19  1  0
 20 19  1  0
 21 20  1  0
 22 21  1  1
 22 23  1  0
 22 24  1  0
 23 16  1  0
 24 26  1  0
 25 24  2  0
M  END
$$$$
