PHM.pdb
     RDKit          3D

 26 27  0  0  1  0  0  0  0  0999 V2000
   22.7666  -13.6169  -15.0388 N   0  0  0  0  0  0  0  0  0  0  0  0
   23.4463  -14.8941  -14.9279 C   0  0  0  0  0  0  0  0  0  0  0  0
   24.0471  -15.1938  -16.2810 C   0  0  0  0  0  0  0  0  0  0  0  0
   23.7600  -13.9319  -17.0830 C   0  0  0  0  0  0  0  0  0  0  0  0
   23.6157  -12.9120  -15.9852 C   0  0  1  0  0  0  0  0  0  0  0  0
   23.0395  -11.6384  -16.4235 C   0  0  0  0  0  0  0  0  0  0  0  0
   23.6984  -10.9031  -17.1752 O   0  0  0  0  0  0  0  0  0  0  0  0
   21.7294  -11.1996  -16.0153 N   0  0  0  0  0  0  0  0  0  0  0  0
   21.1084  -10.0178  -16.5226 C   0  0  1  0  0  0  0  0  0  0  0  0
   19.7152  -10.2475  -17.0539 C   0  0  0  0  0  0  0  0  0  0  0  0
   19.7694  -11.0574  -18.2951 C   0  0  0  0  0  0  0  0  0  0  0  0
   20.1028  -10.6270  -19.5601 C   0  0  0  0  0  0  0  0  0  0  0  0
   20.0313  -11.6780  -20.4177 N   0  0  0  0  0  0  0  0  0  0  0  0
   19.6589  -12.7525  -19.7041 C   0  0  0  0  0  0  0  0  0  0  0  0
   19.5050  -12.3646  -18.4291 N   0  0  0  0  0  0  0  0  0  0  0  0
   21.1921   -8.8646  -15.6014 C   0  0  0  0  0  0  0  0  0  0  0  0
   20.9650   -8.9523  -14.3614 O   0  0  0  0  0  0  0  0  0  0  0  0
   24.7691   -3.3284  -16.7927 C   0  0  0  0  0  0  0  0  0  0  0  0
   23.4007   -2.7641  -15.7538 S   0  0  0  0  0  0  0  0  0  0  0  0
   22.6006   -4.1666  -14.9085 C   0  0  0  0  0  0  0  0  0  0  0  0
   22.3838   -5.3171  -15.8363 C   0  0  0  0  0  0  0  0  0  0  0  0
   21.7002   -6.4515  -15.1220 C   0  0  2  0  0  0  0  0  0  0  0  0
   21.5413   -7.5486  -16.0570 N   0  0  0  0  0  0  0  0  0  0  0  0
   20.3891   -6.0570  -14.5655 C   0  0  0  0  0  0  0  0  0  0  0  0
   20.2789   -5.8169  -13.3391 O   0  0  0  0  0  0  0  0  0  0  0  0
   19.2589   -5.9399  -15.3566 O   0  0  0  0  0  0  0  0  0  0  0  0
  1  2  1  0
  2  3  1  0
  4  3  1  0
  5  6  1  6
  5  1  1  0
  5  4  1  0
  6  8  1  0
  7  6  2  0
  8  9  1  0
  9 10  1  1
 10 11  1  0
 11 12  2  0
 11 15  1  0
 12 13  1  0
 13 14  1  0
 15 14  2  0
 16  9  1  0
 17 16  2  0
 18 19  1  0
 20 19  1  0
 21 20  1  0
 22 21  1  6
 22 23  1  0
 22 24  1  0
 23 16  1  0
 24 26  1  0
 25 24  2  0
M  END
$$$$
