PHM.pdb
     RDKit          3D

 26 27  0  0  1  0  0  0  0  0999 V2000
   16.3674  -26.6216   -5.7859 N   0  0  0  0  0  0  0  0  0  0  0  0
   17.2569  -27.3809   -6.6449 C   0  0  0  0  0  0  0  0  0  0  0  0
   18.2321  -26.3986   -7.2498 C   0  0  0  0  0  0  0  0  0  0  0  0
   17.8917  -25.0880   -6.5539 C   0  0  0  0  0  0  0  0  0  0  0  0
   17.2554  -25.5858   -5.2836 C   0  0  1  0  0  0  0  0  0  0  0  0
   16.5475  -24.5524   -4.5240 C   0  0  0  0  0  0  0  0  0  0  0  0
   17.1708  -23.5509   -4.1389 O   0  0  0  0  0  0  0  0  0  0  0  0
   15.1466  -24.6504   -4.2022 N   0  0  0  0  0  0  0  0  0  0  0  0
   14.4301  -23.6252   -3.5128 C   0  0  1  0  0  0  0  0  0  0  0  0
   12.9751  -23.5384   -3.9019 C   0  0  0  0  0  0  0  0  0  0  0  0
   12.8493  -23.0935   -5.3111 C   0  0  0  0  0  0  0  0  0  0  0  0
   13.2894  -21.9076   -5.8556 C   0  0  0  0  0  0  0  0  0  0  0  0
   12.9800  -21.8868   -7.1781 N   0  0  0  0  0  0  0  0  0  0  0  0
   12.3553  -23.0409   -7.4614 C   0  0  0  0  0  0  0  0  0  0  0  0
   12.2837  -23.7570   -6.3292 N   0  0  0  0  0  0  0  0  0  0  0  0
   14.6362  -23.6428   -2.0490 C   0  0  0  0  0  0  0  0  0  0  0  0
   14.8563  -24.7010   -1.3944 O   0  0  0  0  0  0  0  0  0  0  0  0
   18.2512  -19.9386    3.7343 C   0  0  0  0  0  0  0  0  0  0  0  0
   17.6207  -19.9081    2.0396 S   0  0  0  0  0  0  0  0  0  0  0  0
   16.4229  -21.2537    1.7637 C   0  0  0  0  0  0  0  0  0  0  0  0
   15.9728  -21.3064    0.3403 C   0  0  0  0  0  0  0  0  0  0  0  0
   15.0186  -22.4506    0.1290 C   0  0  2  0  0  0  0  0  0  0  0  0
   14.6001  -22.4441   -1.2595 N   0  0  0  0  0  0  0  0  0  0  0  0
   13.8421  -22.3735    1.0203 C   0  0  0  0  0  0  0  0  0  0  0  0
   12.7923  -21.8147    0.6204 O   0  0  0  0  0  0  0  0  0  0  0  0
   13.8522  -22.9019    2.2999 O   0  0  0  0  0  0  0  0  0  0  0  0
  1  2  1  0
  2  3  1  0
  4  3  1  0
  5  6  1  6
  5  1  1  0
  5  4  1  0
  6  8  1  0
  7  6  2  0
  8  9  1  0
  9 10  1  1
 10 11  1  0
 11 12  2  0
 11 15  1  0
 12 13  1  0
 13 14  1  0
 15 14  2  0
 16  9  1  0
 17 16  2  0
 18 19  1  0
 20 19  1  0
 21 20  1  0
 22 21  1  6
 22 23  1  0
 22 24  1  0
 23 16  1  0
 24 26  1  0
 25 24  2  0
M  END
$$$$
