PHM.pdb
     RDKit          3D

 26 27  0  0  1  0  0  0  0  0999 V2000
   21.9482  -17.2375  -17.3705 N   0  0  0  0  0  0  0  0  0  0  0  0
   21.5139  -18.6213  -17.4130 C   0  0  0  0  0  0  0  0  0  0  0  0
   22.1125  -19.3095  -16.2089 C   0  0  0  0  0  0  0  0  0  0  0  0
   22.7822  -18.1732  -15.4485 C   0  0  0  0  0  0  0  0  0  0  0  0
   21.9957  -16.9871  -15.9391 C   0  0  1  0  0  0  0  0  0  0  0  0
   22.5976  -15.6925  -15.6104 C   0  0  0  0  0  0  0  0  0  0  0  0
   22.7306  -15.3723  -14.4189 O   0  0  0  0  0  0  0  0  0  0  0  0
   23.0452  -14.7675  -16.6202 N   0  0  0  0  0  0  0  0  0  0  0  0
   23.7513  -13.5634  -16.3183 C   0  0  1  0  0  0  0  0  0  0  0  0
   25.1390  -13.5124  -16.9081 C   0  0  0  0  0  0  0  0  0  0  0  0
   25.9198  -14.6980  -16.4788 C   0  0  0  0  0  0  0  0  0  0  0  0
   26.4289  -14.9542  -15.2251 C   0  0  0  0  0  0  0  0  0  0  0  0
   27.0808  -16.1458  -15.2479 N   0  0  0  0  0  0  0  0  0  0  0  0
   26.9835  -16.6316  -16.4957 C   0  0  0  0  0  0  0  0  0  0  0  0
   26.2826  -15.7505  -17.2252 N   0  0  0  0  0  0  0  0  0  0  0  0
   22.9674  -12.3376  -16.5801 C   0  0  0  0  0  0  0  0  0  0  0  0
   22.2429  -12.1857  -17.6042 O   0  0  0  0  0  0  0  0  0  0  0  0
   21.2720   -8.3598  -11.7914 C   0  0  0  0  0  0  0  0  0  0  0  0
   20.6272   -7.3917  -13.1761 S   0  0  0  0  0  0  0  0  0  0  0  0
   20.9763   -8.2122  -14.7657 C   0  0  0  0  0  0  0  0  0  0  0  0
   21.8856   -9.3846  -14.5916 C   0  0  0  0  0  0  0  0  0  0  0  0
   22.1292  -10.0659  -15.9110 C   0  0  2  0  0  0  0  0  0  0  0  0
   22.9748  -11.2207  -15.6780 N   0  0  0  0  0  0  0  0  0  0  0  0
   22.7527   -9.1645  -16.9026 C   0  0  0  0  0  0  0  0  0  0  0  0
   24.0026   -9.1059  -16.9929 O   0  0  0  0  0  0  0  0  0  0  0  0
   22.0001   -8.3692  -17.7499 O   0  0  0  0  0  0  0  0  0  0  0  0
  1  2  1  0
  2  3  1  0
  4  3  1  0
  5  6  1  6
  5  1  1  0
  5  4  1  0
  6  8  1  0
  7  6  2  0
  8  9  1  0
  9 10  1  6
 10 11  1  0
 11 12  2  0
 11 15  1  0
 12 13  1  0
 13 14  1  0
 15 14  2  0
 16  9  1  0
 17 16  2  0
 18 19  1  0
 20 19  1  0
 21 20  1  0
 22 21  1  1
 22 23  1  0
 22 24  1  0
 23 16  1  0
 24 26  1  0
 25 24  2  0
M  END
$$$$
