PHM.pdb
     RDKit          3D

 26 27  0  0  1  0  0  0  0  0999 V2000
   19.2440  -13.5484  -15.3117 N   0  0  0  0  0  0  0  0  0  0  0  0
   19.1285  -14.9936  -15.3694 C   0  0  0  0  0  0  0  0  0  0  0  0
   18.2965  -15.3222  -16.5866 C   0  0  0  0  0  0  0  0  0  0  0  0
   18.0895  -13.9676  -17.2498 C   0  0  0  0  0  0  0  0  0  0  0  0
   19.2710  -13.1981  -16.7224 C   0  0  1  0  0  0  0  0  0  0  0  0
   19.1931  -11.7527  -16.9486 C   0  0  0  0  0  0  0  0  0  0  0  0
   19.3506  -11.3108  -18.0974 O   0  0  0  0  0  0  0  0  0  0  0  0
   18.9395  -10.8147  -15.8849 N   0  0  0  0  0  0  0  0  0  0  0  0
   18.8238   -9.4070  -16.0961 C   0  0  1  0  0  0  0  0  0  0  0  0
   17.4831   -8.8438  -15.6945 C   0  0  0  0  0  0  0  0  0  0  0  0
   16.4203   -9.3730  -16.5832 C   0  0  0  0  0  0  0  0  0  0  0  0
   16.1282   -8.9714  -17.8678 C   0  0  0  0  0  0  0  0  0  0  0  0
   15.0841   -9.7051  -18.3336 N   0  0  0  0  0  0  0  0  0  0  0  0
   14.7250  -10.5546  -17.3580 C   0  0  0  0  0  0  0  0  0  0  0  0
   15.5371  -10.3439  -16.3112 N   0  0  0  0  0  0  0  0  0  0  0  0
   19.9609   -8.6330  -15.5543 C   0  0  0  0  0  0  0  0  0  0  0  0
   20.5080   -8.8926  -14.4453 O   0  0  0  0  0  0  0  0  0  0  0  0
   25.4418   -3.0434  -16.8986 C   0  0  0  0  0  0  0  0  0  0  0  0
   24.0329   -3.9792  -17.5386 S   0  0  0  0  0  0  0  0  0  0  0  0
   23.3173   -5.0477  -16.2472 C   0  0  0  0  0  0  0  0  0  0  0  0
   22.1894   -5.8714  -16.7772 C   0  0  0  0  0  0  0  0  0  0  0  0
   21.6406   -6.7710  -15.7030 C   0  0  2  0  0  0  0  0  0  0  0  0
   20.5296   -7.5190  -16.2591 N   0  0  0  0  0  0  0  0  0  0  0  0
   21.2061   -6.0187  -14.5073 C   0  0  0  0  0  0  0  0  0  0  0  0
   20.0411   -5.5564  -14.4507 O   0  0  0  0  0  0  0  0  0  0  0  0
   22.0470   -5.8000  -13.4294 O   0  0  0  0  0  0  0  0  0  0  0  0
  1  2  1  0
  2  3  1  0
  4  3  1  0
  5  6  1  1
  5  1  1  0
  5  4  1  0
  6  8  1  0
  7  6  2  0
  8  9  1  0
  9 10  1  1
 10 11  1  0
 11 12  2  0
 11 15  1  0
 12 13  1  0
 13 14  1  0
 15 14  2  0
 16  9  1  0
 17 16  2  0
 18 19  1  0
 20 19  1  0
 21 20  1  0
 22 21  1  6
 22 23  1  0
 22 24  1  0
 23 16  1  0
 24 26  1  0
 25 24  2  0
M  END
$$$$
