PHM.pdb
     RDKit          3D

 26 27  0  0  1  0  0  0  0  0999 V2000
   29.4575  -35.3245   -3.9422 N   0  0  0  0  0  0  0  0  0  0  0  0
   29.9291  -35.2371   -5.3116 C   0  0  0  0  0  0  0  0  0  0  0  0
   28.7887  -34.6903   -6.1376 C   0  0  0  0  0  0  0  0  0  0  0  0
   27.7241  -34.3645   -5.0992 C   0  0  0  0  0  0  0  0  0  0  0  0
   28.5646  -34.1798   -3.8640 C   0  0  1  0  0  0  0  0  0  0  0  0
   27.7963  -34.1449   -2.6171 C   0  0  0  0  0  0  0  0  0  0  0  0
   26.9777  -33.2301   -2.4363 O   0  0  0  0  0  0  0  0  0  0  0  0
   27.9523  -35.1359   -1.5831 N   0  0  0  0  0  0  0  0  0  0  0  0
   27.1511  -35.1642   -0.4013 C   0  0  1  0  0  0  0  0  0  0  0  0
   26.6639  -36.5441   -0.0342 C   0  0  0  0  0  0  0  0  0  0  0  0
   25.5655  -36.9557   -0.9416 C   0  0  0  0  0  0  0  0  0  0  0  0
   24.7664  -36.1392   -1.7108 C   0  0  0  0  0  0  0  0  0  0  0  0
   23.8819  -36.9072   -2.3986 N   0  0  0  0  0  0  0  0  0  0  0  0
   24.1204  -38.1863   -2.0677 C   0  0  0  0  0  0  0  0  0  0  0  0
   25.1356  -38.2005   -1.1908 N   0  0  0  0  0  0  0  0  0  0  0  0
   27.7549  -34.4429    0.7392 C   0  0  0  0  0  0  0  0  0  0  0  0
   28.9959  -34.4409    0.9771 O   0  0  0  0  0  0  0  0  0  0  0  0
   25.4086  -28.8031    3.8795 C   0  0  0  0  0  0  0  0  0  0  0  0
   25.9270  -30.0209    5.1118 S   0  0  0  0  0  0  0  0  0  0  0  0
   27.1496  -31.1779    4.4129 C   0  0  0  0  0  0  0  0  0  0  0  0
   26.5358  -32.0732    3.3866 C   0  0  0  0  0  0  0  0  0  0  0  0
   27.5850  -32.9406    2.7455 C   0  0  2  0  0  0  0  0  0  0  0  0
   26.9637  -33.6851    1.6671 N   0  0  0  0  0  0  0  0  0  0  0  0
   28.2166  -33.8651    3.7103 C   0  0  0  0  0  0  0  0  0  0  0  0
   27.5867  -34.8728    4.1125 O   0  0  0  0  0  0  0  0  0  0  0  0
   29.4968  -33.6601    4.1962 O   0  0  0  0  0  0  0  0  0  0  0  0
  1  2  1  0
  2  3  1  0
  4  3  1  0
  5  6  1  1
  5  1  1  0
  5  4  1  0
  6  8  1  0
  7  6  2  0
  8  9  1  0
  9 10  1  1
 10 11  1  0
 11 12  2  0
 11 15  1  0
 12 13  1  0
 13 14  1  0
 15 14  2  0
 16  9  1  0
 17 16  2  0
 18 19  1  0
 20 19  1  0
 21 20  1  0
 22 21  1  1
 22 23  1  0
 22 24  1  0
 23 16  1  0
 24 26  1  0
 25 24  2  0
M  END
$$$$
