PHM.pdb
     RDKit          3D

 26 27  0  0  1  0  0  0  0  0999 V2000
   22.5349  -12.1171  -18.3340 N   0  0  0  0  0  0  0  0  0  0  0  0
   22.7917  -13.0418  -19.4223 C   0  0  0  0  0  0  0  0  0  0  0  0
   21.5516  -13.0650  -20.2844 C   0  0  0  0  0  0  0  0  0  0  0  0
   20.6683  -11.9921  -19.6627 C   0  0  0  0  0  0  0  0  0  0  0  0
   21.6936  -11.1245  -18.9827 C   0  0  1  0  0  0  0  0  0  0  0  0
   21.1279  -10.1576  -18.0386 C   0  0  0  0  0  0  0  0  0  0  0  0
   20.6900   -9.0786  -18.4674 O   0  0  0  0  0  0  0  0  0  0  0  0
   21.0581  -10.4081  -16.6216 N   0  0  0  0  0  0  0  0  0  0  0  0
   20.4744   -9.4921  -15.6944 C   0  0  1  0  0  0  0  0  0  0  0  0
   19.8341  -10.1624  -14.5042 C   0  0  0  0  0  0  0  0  0  0  0  0
   18.4635  -10.6127  -14.8483 C   0  0  0  0  0  0  0  0  0  0  0  0
   17.7864  -10.4024  -16.0290 C   0  0  0  0  0  0  0  0  0  0  0  0
   16.5578  -10.9753  -15.9419 N   0  0  0  0  0  0  0  0  0  0  0  0
   16.4632  -11.5369  -14.7261 C   0  0  0  0  0  0  0  0  0  0  0  0
   17.6166  -11.3111  -14.0793 N   0  0  0  0  0  0  0  0  0  0  0  0
   21.3734   -8.3809  -15.3167 C   0  0  0  0  0  0  0  0  0  0  0  0
   22.5884   -8.5475  -15.0119 O   0  0  0  0  0  0  0  0  0  0  0  0
   23.3429   -0.9211  -16.5076 C   0  0  0  0  0  0  0  0  0  0  0  0
   22.1650   -2.2651  -16.7848 S   0  0  0  0  0  0  0  0  0  0  0  0
   22.4882   -3.6600  -15.6572 C   0  0  0  0  0  0  0  0  0  0  0  0
   21.5866   -4.8168  -15.9406 C   0  0  0  0  0  0  0  0  0  0  0  0
   21.8422   -5.9374  -14.9693 C   0  0  2  0  0  0  0  0  0  0  0  0
   20.9232   -7.0184  -15.2691 N   0  0  0  0  0  0  0  0  0  0  0  0
   21.6896   -5.5086  -13.5632 C   0  0  0  0  0  0  0  0  0  0  0  0
   20.6375   -5.7843  -12.9378 O   0  0  0  0  0  0  0  0  0  0  0  0
   22.6775   -4.8031  -12.8974 O   0  0  0  0  0  0  0  0  0  0  0  0
  1  2  1  0
  2  3  1  0
  4  3  1  0
  5  6  1  1
  5  1  1  0
  5  4  1  0
  6  8  1  0
  7  6  2  0
  8  9  1  0
  9 10  1  1
 10 11  1  0
 11 12  2  0
 11 15  1  0
 12 13  1  0
 13 14  1  0
 15 14  2  0
 16  9  1  0
 17 16  2  0
 18 19  1  0
 20 19  1  0
 21 20  1  0
 22 21  1  6
 22 23  1  0
 22 24  1  0
 23 16  1  0
 24 26  1  0
 25 24  2  0
M  END
$$$$
