PHM.pdb
     RDKit          3D

 26 27  0  0  1  0  0  0  0  0999 V2000
   27.5847  -20.0961  -17.8610 N   0  0  0  0  0  0  0  0  0  0  0  0
   28.6442  -20.2144  -18.8453 C   0  0  0  0  0  0  0  0  0  0  0  0
   29.7558  -21.0114  -18.2045 C   0  0  0  0  0  0  0  0  0  0  0  0
   29.1661  -21.4262  -16.8636 C   0  0  0  0  0  0  0  0  0  0  0  0
   27.6913  -21.3648  -17.1590 C   0  0  1  0  0  0  0  0  0  0  0  0
   26.8394  -21.4267  -15.9688 C   0  0  0  0  0  0  0  0  0  0  0  0
   25.6799  -21.8555  -16.0763 O   0  0  0  0  0  0  0  0  0  0  0  0
   27.2944  -21.0071  -14.6678 N   0  0  0  0  0  0  0  0  0  0  0  0
   26.4440  -20.9580  -13.5215 C   0  0  1  0  0  0  0  0  0  0  0  0
   27.1758  -20.6492  -12.2389 C   0  0  0  0  0  0  0  0  0  0  0  0
   26.2551  -20.7747  -11.0830 C   0  0  0  0  0  0  0  0  0  0  0  0
   24.9196  -21.1101  -11.1108 C   0  0  0  0  0  0  0  0  0  0  0  0
   24.4388  -21.1155   -9.8404 N   0  0  0  0  0  0  0  0  0  0  0  0
   25.4551  -20.7888   -9.0262 C   0  0  0  0  0  0  0  0  0  0  0  0
   26.5413  -20.5866   -9.7871 N   0  0  0  0  0  0  0  0  0  0  0  0
   25.2399  -20.1224  -13.7147 C   0  0  0  0  0  0  0  0  0  0  0  0
   25.2903  -18.8940  -14.0068 O   0  0  0  0  0  0  0  0  0  0  0  0
   22.0203  -17.7928  -18.2480 C   0  0  0  0  0  0  0  0  0  0  0  0
   20.9239  -18.9587  -17.4061 S   0  0  0  0  0  0  0  0  0  0  0  0
   21.2658  -19.0014  -15.6164 C   0  0  0  0  0  0  0  0  0  0  0  0
   22.4512  -19.8547  -15.3029 C   0  0  0  0  0  0  0  0  0  0  0  0
   22.7476  -19.8275  -13.8279 C   0  0  2  0  0  0  0  0  0  0  0  0
   23.9131  -20.6548  -13.5823 N   0  0  0  0  0  0  0  0  0  0  0  0
   21.6050  -20.2960  -13.0160 C   0  0  0  0  0  0  0  0  0  0  0  0
   21.5353  -21.5012  -12.6743 O   0  0  0  0  0  0  0  0  0  0  0  0
   20.5916  -19.4441  -12.6107 O   0  0  0  0  0  0  0  0  0  0  0  0
  1  2  1  0
  2  3  1  0
  4  3  1  0
  5  6  1  1
  5  1  1  0
  5  4  1  0
  6  8  1  0
  7  6  2  0
  8  9  1  0
  9 10  1  1
 10 11  1  0
 11 12  2  0
 11 15  1  0
 12 13  1  0
 13 14  1  0
 15 14  2  0
 16  9  1  0
 17 16  2  0
 18 19  1  0
 20 19  1  0
 21 20  1  0
 22 21  1  6
 22 23  1  0
 22 24  1  0
 23 16  1  0
 24 26  1  0
 25 24  2  0
M  END
$$$$
