HMR.pdb
     RDKit          3D

 30 30  0  0  1  0  0  0  0  0999 V2000
   27.7652  -23.3522  -16.3619 N   0  0  0  0  0  0  0  0  0  0  0  0
   27.3638  -22.0329  -15.9173 C   0  0  1  0  0  0  0  0  0  0  0  0
   26.9594  -21.1598  -17.0579 C   0  0  0  0  0  0  0  0  0  0  0  0
   28.1187  -20.6257  -17.8070 C   0  0  0  0  0  0  0  0  0  0  0  0
   28.1834  -19.4325  -18.5297 C   0  0  0  0  0  0  0  0  0  0  0  0
   29.3964  -19.2932  -19.0687 N   0  0  0  0  0  0  0  0  0  0  0  0
   30.1146  -20.3657  -18.7119 C   0  0  0  0  0  0  0  0  0  0  0  0
   29.3497  -21.1701  -17.9527 N   0  0  0  0  0  0  0  0  0  0  0  0
   26.2300  -22.2087  -14.9494 C   0  0  0  0  0  0  0  0  0  0  0  0
   25.4898  -23.2131  -15.0921 O   0  0  0  0  0  0  0  0  0  0  0  0
   24.9614  -20.2427   -8.4500 C   0  0  0  0  0  0  0  0  0  0  0  0
   26.5428  -20.5738   -9.2697 S   0  0  0  0  0  0  0  0  0  0  0  0
   26.2426  -21.4441  -10.8770 C   0  0  0  0  0  0  0  0  0  0  0  0
   25.2016  -20.6676  -11.6150 C   0  0  0  0  0  0  0  0  0  0  0  0
   24.9130  -21.3174  -12.9582 C   0  0  2  0  0  0  0  0  0  0  0  0
   25.9681  -21.2984  -13.8985 N   0  0  0  0  0  0  0  0  0  0  0  0
   23.5691  -21.0375  -13.4537 C   0  0  0  0  0  0  0  0  0  0  0  0
   23.4408  -20.0499  -14.2580 O   0  0  0  0  0  0  0  0  0  0  0  0
   16.0148  -25.2355  -13.7871 N   0  0  0  0  0  0  0  0  0  0  0  0
   17.3603  -25.3886  -13.3256 C   0  0  0  0  0  0  0  0  0  0  0  0
   17.9216  -26.5418  -13.3234 N   0  0  0  0  0  0  0  0  0  0  0  0
   18.0831  -24.2599  -12.8676 N   0  0  0  0  0  0  0  0  0  0  0  0
   17.5566  -22.9113  -12.9452 C   0  0  0  0  0  0  0  0  0  0  0  0
   18.5985  -21.9435  -13.3967 C   0  0  0  0  0  0  0  0  0  0  0  0
   20.0051  -22.2600  -13.1345 C   0  0  0  0  0  0  0  0  0  0  0  0
   21.0637  -21.3208  -13.5755 C   0  0  2  0  0  0  0  0  0  0  0  0
   22.3957  -21.7549  -13.1295 N   0  0  0  0  0  0  0  0  0  0  0  0
   20.8550  -19.8998  -13.2301 C   0  0  0  0  0  0  0  0  0  0  0  0
   20.3139  -19.0366  -14.1602 O   0  0  0  0  0  0  0  0  0  0  0  0
   21.1513  -19.4141  -12.1070 O   0  0  0  0  0  0  0  0  0  0  0  0
  2  1  1  6
  2  9  1  0
  2  3  1  0
  3  4  1  0
  4  8  1  0
  5  6  1  0
  5  4  2  0
  6  7  1  0
  7  8  2  0
  9 16  1  0
 10  9  2  0
 11 12  1  0
 12 13  1  0
 13 14  1  0
 15 14  1  1
 16 15  1  0
 17 15  1  0
 18 17  2  0
 19 20  1  0
 20 22  1  0
 21 20  2  0
 22 23  1  0
 23 24  1  0
 24 25  1  0
 26 25  1  1
 26 28  1  0
 26 27  1  0
 27 17  1  0
 28 29  1  0
 30 28  2  0
M  END
$$$$
