HMR.pdb
     RDKit          3D

 30 30  0  0  1  0  0  0  0  0999 V2000
   29.3614  -22.9862  -17.7371 N   0  0  0  0  0  0  0  0  0  0  0  0
   27.9293  -23.1884  -17.8249 C   0  0  1  0  0  0  0  0  0  0  0  0
   27.5890  -24.5545  -18.3195 C   0  0  0  0  0  0  0  0  0  0  0  0
   28.0401  -24.7873  -19.7097 C   0  0  0  0  0  0  0  0  0  0  0  0
   28.9902  -25.7120  -20.1484 C   0  0  0  0  0  0  0  0  0  0  0  0
   29.1293  -25.6265  -21.4730 N   0  0  0  0  0  0  0  0  0  0  0  0
   28.2934  -24.6707  -21.8988 C   0  0  0  0  0  0  0  0  0  0  0  0
   27.6361  -24.1631  -20.8411 N   0  0  0  0  0  0  0  0  0  0  0  0
   27.3563  -22.9559  -16.4571 C   0  0  0  0  0  0  0  0  0  0  0  0
   28.1080  -23.1427  -15.4687 O   0  0  0  0  0  0  0  0  0  0  0  0
   28.1632  -17.9674  -15.4833 C   0  0  0  0  0  0  0  0  0  0  0  0
   26.7382  -17.7448  -14.3869 S   0  0  0  0  0  0  0  0  0  0  0  0
   25.7501  -19.3103  -14.3217 C   0  0  0  0  0  0  0  0  0  0  0  0
   26.3404  -20.2502  -15.3213 C   0  0  0  0  0  0  0  0  0  0  0  0
   25.5376  -21.5396  -15.3705 C   0  0  2  0  0  0  0  0  0  0  0  0
   26.0207  -22.5409  -16.2435 N   0  0  0  0  0  0  0  0  0  0  0  0
   24.0954  -21.3189  -15.3374 C   0  0  0  0  0  0  0  0  0  0  0  0
   23.5767  -20.7184  -16.3419 O   0  0  0  0  0  0  0  0  0  0  0  0
   18.7805  -25.5421  -10.3064 N   0  0  0  0  0  0  0  0  0  0  0  0
   18.6392  -24.1239  -10.1825 C   0  0  0  0  0  0  0  0  0  0  0  0
   18.1241  -23.6097   -9.1265 N   0  0  0  0  0  0  0  0  0  0  0  0
   19.0718  -23.2763  -11.2317 N   0  0  0  0  0  0  0  0  0  0  0  0
   18.9513  -23.6403  -12.6298 C   0  0  0  0  0  0  0  0  0  0  0  0
   19.6045  -22.6323  -13.5149 C   0  0  0  0  0  0  0  0  0  0  0  0
   21.0630  -22.5003  -13.4640 C   0  0  0  0  0  0  0  0  0  0  0  0
   21.7558  -21.6268  -14.4410 C   0  0  2  0  0  0  0  0  0  0  0  0
   23.2171  -21.7065  -14.3005 N   0  0  0  0  0  0  0  0  0  0  0  0
   21.3281  -20.2131  -14.4643 C   0  0  0  0  0  0  0  0  0  0  0  0
   20.2286  -19.8378  -15.2082 O   0  0  0  0  0  0  0  0  0  0  0  0
   21.9243  -19.3034  -13.8303 O   0  0  0  0  0  0  0  0  0  0  0  0
  2  1  1  1
  2  9  1  0
  2  3  1  0
  3  4  1  0
  4  8  1  0
  5  6  1  0
  5  4  2  0
  6  7  1  0
  7  8  2  0
  9 16  1  0
 10  9  2  0
 11 12  1  0
 12 13  1  0
 13 14  1  0
 15 14  1  6
 16 15  1  0
 17 15  1  0
 18 17  2  0
 19 20  1  0
 20 22  1  0
 21 20  2  0
 22 23  1  0
 23 24  1  0
 24 25  1  0
 26 25  1  1
 26 28  1  0
 26 27  1  0
 27 17  1  0
 28 29  1  0
 30 28  2  0
M  END
$$$$
