HMR.pdb
     RDKit          3D

 30 30  0  0  1  0  0  0  0  0999 V2000
   19.2274  -12.5733  -16.5958 N   0  0  0  0  0  0  0  0  0  0  0  0
   20.2648  -12.0143  -17.4389 C   0  0  1  0  0  0  0  0  0  0  0  0
   19.6999  -11.3418  -18.6452 C   0  0  0  0  0  0  0  0  0  0  0  0
   19.0164  -12.2857  -19.5576 C   0  0  0  0  0  0  0  0  0  0  0  0
   19.6091  -13.2265  -20.4024 C   0  0  0  0  0  0  0  0  0  0  0  0
   18.6664  -13.8937  -21.0714 N   0  0  0  0  0  0  0  0  0  0  0  0
   17.4820  -13.4068  -20.6793 C   0  0  0  0  0  0  0  0  0  0  0  0
   17.6879  -12.4391  -19.7686 N   0  0  0  0  0  0  0  0  0  0  0  0
   21.0507  -11.0452  -16.6043 C   0  0  0  0  0  0  0  0  0  0  0  0
   20.4127  -10.2835  -15.8363 O   0  0  0  0  0  0  0  0  0  0  0  0
   27.7074  -11.1925  -16.0355 C   0  0  0  0  0  0  0  0  0  0  0  0
   27.1517  -10.3906  -14.5089 S   0  0  0  0  0  0  0  0  0  0  0  0
   25.4543   -9.6906  -14.7536 C   0  0  0  0  0  0  0  0  0  0  0  0
   24.7362  -10.5892  -15.7065 C   0  0  0  0  0  0  0  0  0  0  0  0
   23.3167  -10.0945  -15.9295 C   0  0  2  0  0  0  0  0  0  0  0  0
   22.4621  -10.9591  -16.6506 N   0  0  0  0  0  0  0  0  0  0  0  0
   23.2481   -8.6708  -16.2426 C   0  0  0  0  0  0  0  0  0  0  0  0
   23.6744   -8.3082  -17.3939 O   0  0  0  0  0  0  0  0  0  0  0  0
   17.4588   -3.8413  -19.5786 N   0  0  0  0  0  0  0  0  0  0  0  0
   18.4333   -2.8708  -19.1849 C   0  0  0  0  0  0  0  0  0  0  0  0
   18.3154   -1.6454  -19.5444 N   0  0  0  0  0  0  0  0  0  0  0  0
   19.5387   -3.2615  -18.3901 N   0  0  0  0  0  0  0  0  0  0  0  0
   19.7283   -4.6238  -17.9317 C   0  0  0  0  0  0  0  0  0  0  0  0
   21.0004   -4.7703  -17.1660 C   0  0  0  0  0  0  0  0  0  0  0  0
   21.3677   -6.0999  -16.6714 C   0  0  0  0  0  0  0  0  0  0  0  0
   22.5896   -6.2658  -15.8489 C   0  0  2  0  0  0  0  0  0  0  0  0
   22.7545   -7.6542  -15.3942 N   0  0  0  0  0  0  0  0  0  0  0  0
   22.7325   -5.3410  -14.7060 C   0  0  0  0  0  0  0  0  0  0  0  0
   23.0084   -4.0077  -14.9283 O   0  0  0  0  0  0  0  0  0  0  0  0
   22.6167   -5.7063  -13.5067 O   0  0  0  0  0  0  0  0  0  0  0  0
  2  1  1  1
  2  9  1  0
  2  3  1  0
  3  4  1  0
  4  8  1  0
  5  6  1  0
  5  4  2  0
  6  7  1  0
  7  8  2  0
  9 16  1  0
 10  9  2  0
 11 12  1  0
 12 13  1  0
 13 14  1  0
 15 14  1  6
 16 15  1  0
 17 15  1  0
 18 17  2  0
 19 20  1  0
 20 22  1  0
 21 20  2  0
 22 23  1  0
 23 24  1  0
 24 25  1  0
 26 25  1  1
 26 28  1  0
 26 27  1  0
 27 17  1  0
 28 29  1  0
 30 28  2  0
M  END
$$$$
