HMR.pdb
     RDKit          3D

 30 30  0  0  1  0  0  0  0  0999 V2000
   22.0217  -21.3784   -8.6108 N   0  0  0  0  0  0  0  0  0  0  0  0
   22.5700  -21.2057   -9.9409 C   0  0  1  0  0  0  0  0  0  0  0  0
   21.6490  -20.4361  -10.8275 C   0  0  0  0  0  0  0  0  0  0  0  0
   20.3668  -21.1365  -11.0644 C   0  0  0  0  0  0  0  0  0  0  0  0
   19.9298  -22.3253  -10.4764 C   0  0  0  0  0  0  0  0  0  0  0  0
   18.7200  -22.6441  -10.9415 N   0  0  0  0  0  0  0  0  0  0  0  0
   18.3667  -21.6912  -11.8136 C   0  0  0  0  0  0  0  0  0  0  0  0
   19.3546  -20.7822  -11.8907 N   0  0  0  0  0  0  0  0  0  0  0  0
   23.8879  -20.5016   -9.7976 C   0  0  0  0  0  0  0  0  0  0  0  0
   24.0031  -19.6587   -8.8738 O   0  0  0  0  0  0  0  0  0  0  0  0
   27.8827  -18.3389   -5.6639 C   0  0  0  0  0  0  0  0  0  0  0  0
   27.9494  -19.7873   -6.7502 S   0  0  0  0  0  0  0  0  0  0  0  0
   26.7844  -19.5557   -8.1716 C   0  0  0  0  0  0  0  0  0  0  0  0
   26.8671  -20.7835   -9.0184 C   0  0  0  0  0  0  0  0  0  0  0  0
   26.3589  -20.4918  -10.4206 C   0  0  2  0  0  0  0  0  0  0  0  0
   24.9883  -20.7482  -10.6520 N   0  0  0  0  0  0  0  0  0  0  0  0
   27.2994  -20.8851  -11.4648 C   0  0  0  0  0  0  0  0  0  0  0  0
   27.9688  -21.9585  -11.2691 O   0  0  0  0  0  0  0  0  0  0  0  0
   22.3637  -24.7574  -15.0627 N   0  0  0  0  0  0  0  0  0  0  0  0
   22.4738  -23.9458  -16.2356 C   0  0  0  0  0  0  0  0  0  0  0  0
   22.1013  -24.3958  -17.3773 N   0  0  0  0  0  0  0  0  0  0  0  0
   22.9968  -22.6329  -16.1399 N   0  0  0  0  0  0  0  0  0  0  0  0
   23.5089  -22.0847  -14.8993 C   0  0  0  0  0  0  0  0  0  0  0  0
   24.9429  -21.6926  -15.0263 C   0  0  0  0  0  0  0  0  0  0  0  0
   25.6286  -21.1638  -13.8442 C   0  0  0  0  0  0  0  0  0  0  0  0
   27.0193  -20.6646  -13.9639 C   0  0  2  0  0  0  0  0  0  0  0  0
   27.5403  -20.1925  -12.6727 N   0  0  0  0  0  0  0  0  0  0  0  0
   27.2546  -19.6443  -15.0058 C   0  0  0  0  0  0  0  0  0  0  0  0
   27.7614  -20.0169  -16.2336 O   0  0  0  0  0  0  0  0  0  0  0  0
   27.0161  -18.4198  -14.8359 O   0  0  0  0  0  0  0  0  0  0  0  0
  2  1  1  1
  2  9  1  0
  2  3  1  0
  3  4  1  0
  4  8  1  0
  5  6  1  0
  5  4  2  0
  6  7  1  0
  7  8  2  0
  9 16  1  0
 10  9  2  0
 11 12  1  0
 12 13  1  0
 13 14  1  0
 15 14  1  1
 16 15  1  0
 17 15  1  0
 18 17  2  0
 19 20  1  0
 20 22  1  0
 21 20  2  0
 22 23  1  0
 23 24  1  0
 24 25  1  0
 26 25  1  1
 26 28  1  0
 26 27  1  0
 27 17  1  0
 28 29  1  0
 30 28  2  0
M  END
$$$$
