HMR.pdb
     RDKit          3D

 30 30  0  0  1  0  0  0  0  0999 V2000
   27.9190  -21.0569  -15.3203 N   0  0  0  0  0  0  0  0  0  0  0  0
   27.7941  -20.0483  -14.2875 C   0  0  1  0  0  0  0  0  0  0  0  0
   27.0297  -18.8576  -14.7614 C   0  0  0  0  0  0  0  0  0  0  0  0
   27.7265  -18.1249  -15.8422 C   0  0  0  0  0  0  0  0  0  0  0  0
   27.3046  -17.9617  -17.1634 C   0  0  0  0  0  0  0  0  0  0  0  0
   28.2001  -17.2395  -17.8402 N   0  0  0  0  0  0  0  0  0  0  0  0
   29.1877  -16.9335  -16.9890 C   0  0  0  0  0  0  0  0  0  0  0  0
   28.9068  -17.4642  -15.7858 N   0  0  0  0  0  0  0  0  0  0  0  0
   27.1142  -20.6880  -13.1121 C   0  0  0  0  0  0  0  0  0  0  0  0
   26.2356  -21.5545  -13.3452 O   0  0  0  0  0  0  0  0  0  0  0  0
   26.3656  -20.7482   -5.1558 C   0  0  0  0  0  0  0  0  0  0  0  0
   27.3496  -20.2191   -6.5821 S   0  0  0  0  0  0  0  0  0  0  0  0
   26.4145  -20.5559   -8.1452 C   0  0  0  0  0  0  0  0  0  0  0  0
   27.3331  -20.2596   -9.2852 C   0  0  0  0  0  0  0  0  0  0  0  0
   26.6659  -20.6108  -10.6047 C   0  0  2  0  0  0  0  0  0  0  0  0
   27.4216  -20.3558  -11.7717 N   0  0  0  0  0  0  0  0  0  0  0  0
   25.2470  -20.2712  -10.6381 C   0  0  0  0  0  0  0  0  0  0  0  0
   24.9444  -19.0310  -10.5430 O   0  0  0  0  0  0  0  0  0  0  0  0
   18.7577  -24.2680  -15.1700 N   0  0  0  0  0  0  0  0  0  0  0  0
   18.6970  -24.3252  -13.7418 C   0  0  0  0  0  0  0  0  0  0  0  0
   17.9886  -25.2185  -13.1545 N   0  0  0  0  0  0  0  0  0  0  0  0
   19.4249  -23.3904  -12.9656 N   0  0  0  0  0  0  0  0  0  0  0  0
   20.2146  -22.3291  -13.5590 C   0  0  0  0  0  0  0  0  0  0  0  0
   20.7984  -21.4349  -12.5171 C   0  0  0  0  0  0  0  0  0  0  0  0
   22.1837  -21.6639  -12.0980 C   0  0  0  0  0  0  0  0  0  0  0  0
   22.8151  -20.7489  -11.1174 C   0  0  2  0  0  0  0  0  0  0  0  0
   24.1752  -21.1830  -10.7664 N   0  0  0  0  0  0  0  0  0  0  0  0
   22.0396  -20.4793   -9.8894 C   0  0  0  0  0  0  0  0  0  0  0  0
   20.9347  -19.6546   -9.9390 O   0  0  0  0  0  0  0  0  0  0  0  0
   22.3353  -20.9684   -8.7676 O   0  0  0  0  0  0  0  0  0  0  0  0
  2  1  1  6
  2  9  1  0
  2  3  1  0
  3  4  1  0
  4  8  1  0
  5  6  1  0
  5  4  2  0
  6  7  1  0
  7  8  2  0
  9 16  1  0
 10  9  2  0
 11 12  1  0
 12 13  1  0
 13 14  1  0
 15 14  1  1
 16 15  1  0
 17 15  1  0
 18 17  2  0
 19 20  1  0
 20 22  1  0
 21 20  2  0
 22 23  1  0
 23 24  1  0
 24 25  1  0
 26 25  1  1
 26 28  1  0
 26 27  1  0
 27 17  1  0
 28 29  1  0
 30 28  2  0
M  END
$$$$
