HMR.pdb
     RDKit          3D

 30 30  0  0  1  0  0  0  0  0999 V2000
   26.8913  -29.6549    7.7806 N   0  0  0  0  0  0  0  0  0  0  0  0
   26.1123  -28.5553    7.2483 C   0  0  1  0  0  0  0  0  0  0  0  0
   24.9572  -29.0340    6.4338 C   0  0  0  0  0  0  0  0  0  0  0  0
   25.3750  -29.8736    5.2888 C   0  0  0  0  0  0  0  0  0  0  0  0
   25.6802  -31.2362    5.3045 C   0  0  0  0  0  0  0  0  0  0  0  0
   26.0163  -31.6405    4.0777 N   0  0  0  0  0  0  0  0  0  0  0  0
   25.9354  -30.5735    3.2724 C   0  0  0  0  0  0  0  0  0  0  0  0
   25.5499  -29.5082    3.9970 N   0  0  0  0  0  0  0  0  0  0  0  0
   25.6422  -27.7309    8.4113 C   0  0  0  0  0  0  0  0  0  0  0  0
   25.8085  -28.1988    9.5648 O   0  0  0  0  0  0  0  0  0  0  0  0
   29.6989  -24.1163   11.2779 C   0  0  0  0  0  0  0  0  0  0  0  0
   28.0875  -23.5479   10.6756 S   0  0  0  0  0  0  0  0  0  0  0  0
   27.2503  -24.9150    9.7475 C   0  0  0  0  0  0  0  0  0  0  0  0
   25.9743  -24.3641    9.2002 C   0  0  0  0  0  0  0  0  0  0  0  0
   24.8919  -25.4307    9.2115 C   0  0  2  0  0  0  0  0  0  0  0  0
   25.0278  -26.4657    8.2585 N   0  0  0  0  0  0  0  0  0  0  0  0
   23.5541  -24.8880    9.4248 C   0  0  0  0  0  0  0  0  0  0  0  0
   23.1088  -24.0768    8.5403 O   0  0  0  0  0  0  0  0  0  0  0  0
   16.2445  -26.9988   14.4030 N   0  0  0  0  0  0  0  0  0  0  0  0
   15.9034  -25.9317   13.5133 C   0  0  0  0  0  0  0  0  0  0  0  0
   14.6850  -25.5512   13.3884 N   0  0  0  0  0  0  0  0  0  0  0  0
   16.9165  -25.2859   12.7631 N   0  0  0  0  0  0  0  0  0  0  0  0
   18.2921  -25.7438   12.7521 C   0  0  0  0  0  0  0  0  0  0  0  0
   19.1314  -24.9291   11.8259 C   0  0  0  0  0  0  0  0  0  0  0  0
   20.5219  -25.3354   11.6050 C   0  0  0  0  0  0  0  0  0  0  0  0
   21.3603  -24.5887   10.6371 C   0  0  2  0  0  0  0  0  0  0  0  0
   22.7033  -25.1745   10.5160 N   0  0  0  0  0  0  0  0  0  0  0  0
   21.4640  -23.1318   10.8578 C   0  0  0  0  0  0  0  0  0  0  0  0
   20.5879  -22.2745   10.2248 O   0  0  0  0  0  0  0  0  0  0  0  0
   22.3295  -22.6096   11.6083 O   0  0  0  0  0  0  0  0  0  0  0  0
  2  1  1  1
  2  9  1  0
  2  3  1  0
  3  4  1  0
  4  8  1  0
  5  6  1  0
  5  4  2  0
  6  7  1  0
  7  8  2  0
  9 16  1  0
 10  9  2  0
 11 12  1  0
 12 13  1  0
 13 14  1  0
 15 14  1  6
 16 15  1  0
 17 15  1  0
 18 17  2  0
 19 20  1  0
 20 22  1  0
 21 20  2  0
 22 23  1  0
 23 24  1  0
 24 25  1  0
 26 25  1  1
 26 28  1  0
 26 27  1  0
 27 17  1  0
 28 29  1  0
 30 28  2  0
M  END
$$$$
