HMR.pdb
     RDKit          3D

 30 30  0  0  1  0  0  0  0  0999 V2000
   27.4681  -21.1977  -14.7266 N   0  0  0  0  0  0  0  0  0  0  0  0
   26.9301  -20.1028  -13.9447 C   0  0  1  0  0  0  0  0  0  0  0  0
   25.9162  -19.3184  -14.7085 C   0  0  0  0  0  0  0  0  0  0  0  0
   26.4989  -18.6100  -15.8700 C   0  0  0  0  0  0  0  0  0  0  0  0
   26.2667  -18.8674  -17.2228 C   0  0  0  0  0  0  0  0  0  0  0  0
   26.9724  -18.0194  -17.9740 N   0  0  0  0  0  0  0  0  0  0  0  0
   27.6531  -17.2227  -17.1400 C   0  0  0  0  0  0  0  0  0  0  0  0
   27.3712  -17.5746  -15.8732 N   0  0  0  0  0  0  0  0  0  0  0  0
   26.3275  -20.6898  -12.7015 C   0  0  0  0  0  0  0  0  0  0  0  0
   25.8365  -21.8431  -12.7781 O   0  0  0  0  0  0  0  0  0  0  0  0
   26.0240  -20.5240   -4.7948 C   0  0  0  0  0  0  0  0  0  0  0  0
   26.5172  -19.6375   -6.2959 S   0  0  0  0  0  0  0  0  0  0  0  0
   25.6821  -20.3899   -7.7682 C   0  0  0  0  0  0  0  0  0  0  0  0
   26.2884  -19.7733   -8.9862 C   0  0  0  0  0  0  0  0  0  0  0  0
   25.7237  -20.4193  -10.2405 C   0  0  2  0  0  0  0  0  0  0  0  0
   26.2924  -20.0022  -11.4656 N   0  0  0  0  0  0  0  0  0  0  0  0
   24.2746  -20.5859  -10.1972 C   0  0  0  0  0  0  0  0  0  0  0  0
   23.5812  -19.8447  -10.9773 O   0  0  0  0  0  0  0  0  0  0  0  0
   18.5582  -26.0369   -7.7372 N   0  0  0  0  0  0  0  0  0  0  0  0
   17.6616  -24.9567   -7.4618 C   0  0  0  0  0  0  0  0  0  0  0  0
   16.3930  -25.1446   -7.4677 N   0  0  0  0  0  0  0  0  0  0  0  0
   18.1747  -23.6672   -7.1783 N   0  0  0  0  0  0  0  0  0  0  0  0
   19.5945  -23.4015   -7.0545 C   0  0  0  0  0  0  0  0  0  0  0  0
   20.1376  -22.7516   -8.2829 C   0  0  0  0  0  0  0  0  0  0  0  0
   21.5598  -22.3999   -8.3152 C   0  0  0  0  0  0  0  0  0  0  0  0
   22.1086  -21.6662   -9.4805 C   0  0  2  0  0  0  0  0  0  0  0  0
   23.5643  -21.4895   -9.3751 N   0  0  0  0  0  0  0  0  0  0  0  0
   21.4655  -20.3740   -9.7947 C   0  0  0  0  0  0  0  0  0  0  0  0
   20.4249  -20.3237  -10.6990 O   0  0  0  0  0  0  0  0  0  0  0  0
   21.8209  -19.2841   -9.2742 O   0  0  0  0  0  0  0  0  0  0  0  0
  2  1  1  6
  2  9  1  0
  2  3  1  0
  3  4  1  0
  4  8  1  0
  5  6  1  0
  5  4  2  0
  6  7  1  0
  7  8  2  0
  9 16  1  0
 10  9  2  0
 11 12  1  0
 12 13  1  0
 13 14  1  0
 15 14  1  1
 16 15  1  0
 17 15  1  0
 18 17  2  0
 19 20  1  0
 20 22  1  0
 21 20  2  0
 22 23  1  0
 23 24  1  0
 24 25  1  0
 26 25  1  1
 26 28  1  0
 26 27  1  0
 27 17  1  0
 28 29  1  0
 30 28  2  0
M  END
$$$$
