HMR.pdb
     RDKit          3D

 30 30  0  0  1  0  0  0  0  0999 V2000
   28.8892  -21.3981  -17.1211 N   0  0  0  0  0  0  0  0  0  0  0  0
   28.9007  -20.3248  -16.1478 C   0  0  1  0  0  0  0  0  0  0  0  0
   28.0841  -19.1587  -16.5950 C   0  0  0  0  0  0  0  0  0  0  0  0
   28.6713  -18.4647  -17.7630 C   0  0  0  0  0  0  0  0  0  0  0  0
   28.2277  -18.5100  -19.0863 C   0  0  0  0  0  0  0  0  0  0  0  0
   29.0143  -17.7540  -19.8552 N   0  0  0  0  0  0  0  0  0  0  0  0
   29.9529  -17.2230  -19.0611 C   0  0  0  0  0  0  0  0  0  0  0  0
   29.7504  -17.6480  -17.8015 N   0  0  0  0  0  0  0  0  0  0  0  0
   28.3765  -20.8816  -14.8561 C   0  0  0  0  0  0  0  0  0  0  0  0
   27.2909  -21.5120  -14.8889 O   0  0  0  0  0  0  0  0  0  0  0  0
   31.2501  -21.5286   -8.7597 C   0  0  0  0  0  0  0  0  0  0  0  0
   32.0546  -22.0404  -10.3002 S   0  0  0  0  0  0  0  0  0  0  0  0
   30.8273  -22.0047  -11.6872 C   0  0  0  0  0  0  0  0  0  0  0  0
   29.6897  -21.1402  -11.2517 C   0  0  0  0  0  0  0  0  0  0  0  0
   28.6182  -21.0972  -12.3285 C   0  0  2  0  0  0  0  0  0  0  0  0
   29.0498  -20.7246  -13.6218 N   0  0  0  0  0  0  0  0  0  0  0  0
   27.3542  -20.5399  -11.8578 C   0  0  0  0  0  0  0  0  0  0  0  0
   27.1316  -19.3060  -12.1162 O   0  0  0  0  0  0  0  0  0  0  0  0
   18.9901  -22.5054  -11.5981 N   0  0  0  0  0  0  0  0  0  0  0  0
   19.1582  -21.3682  -12.4498 C   0  0  0  0  0  0  0  0  0  0  0  0
   18.2902  -21.0969  -13.3541 N   0  0  0  0  0  0  0  0  0  0  0  0
   20.2904  -20.5312  -12.2958 N   0  0  0  0  0  0  0  0  0  0  0  0
   21.6257  -20.9452  -12.6798 C   0  0  0  0  0  0  0  0  0  0  0  0
   22.6295  -20.5891  -11.6349 C   0  0  0  0  0  0  0  0  0  0  0  0
   24.0253  -20.9822  -11.8459 C   0  0  0  0  0  0  0  0  0  0  0  0
   25.0488  -20.6291  -10.8335 C   0  0  2  0  0  0  0  0  0  0  0  0
   26.3520  -21.2347  -11.1439 N   0  0  0  0  0  0  0  0  0  0  0  0
   24.6896  -20.9001   -9.4265 C   0  0  0  0  0  0  0  0  0  0  0  0
   23.7336  -20.1289   -8.7983 O   0  0  0  0  0  0  0  0  0  0  0  0
   25.2196  -21.8167   -8.7454 O   0  0  0  0  0  0  0  0  0  0  0  0
  2  1  1  6
  2  9  1  0
  2  3  1  0
  3  4  1  0
  4  8  1  0
  5  6  1  0
  5  4  2  0
  6  7  1  0
  7  8  2  0
  9 16  1  0
 10  9  2  0
 11 12  1  0
 12 13  1  0
 13 14  1  0
 15 14  1  1
 16 15  1  0
 17 15  1  0
 18 17  2  0
 19 20  1  0
 20 22  1  0
 21 20  2  0
 22 23  1  0
 23 24  1  0
 24 25  1  0
 26 25  1  6
 26 28  1  0
 26 27  1  0
 27 17  1  0
 28 29  1  0
 30 28  2  0
M  END
$$$$
