HMR.pdb
     RDKit          3D

 30 30  0  0  1  0  0  0  0  0999 V2000
   28.2259  -21.4068  -15.3481 N   0  0  0  0  0  0  0  0  0  0  0  0
   28.0466  -20.3611  -14.3613 C   0  0  1  0  0  0  0  0  0  0  0  0
   27.2688  -19.2095  -14.9050 C   0  0  0  0  0  0  0  0  0  0  0  0
   28.0510  -18.3917  -15.8589 C   0  0  0  0  0  0  0  0  0  0  0  0
   29.3678  -18.6018  -16.2734 C   0  0  0  0  0  0  0  0  0  0  0  0
   29.7276  -17.6535  -17.1410 N   0  0  0  0  0  0  0  0  0  0  0  0
   28.6766  -16.8381  -17.2958 C   0  0  0  0  0  0  0  0  0  0  0  0
   27.6656  -17.2786  -16.5262 N   0  0  0  0  0  0  0  0  0  0  0  0
   27.3471  -20.9700  -13.1809 C   0  0  0  0  0  0  0  0  0  0  0  0
   26.4702  -21.8402  -13.4059 O   0  0  0  0  0  0  0  0  0  0  0  0
   26.2101  -20.2204   -5.2897 C   0  0  0  0  0  0  0  0  0  0  0  0
   27.2975  -19.9246   -6.7083 S   0  0  0  0  0  0  0  0  0  0  0  0
   26.4842  -20.5356   -8.2563 C   0  0  0  0  0  0  0  0  0  0  0  0
   27.4202  -20.2618   -9.3878 C   0  0  0  0  0  0  0  0  0  0  0  0
   26.8276  -20.7619  -10.6948 C   0  0  2  0  0  0  0  0  0  0  0  0
   27.6346  -20.6050  -11.8446 N   0  0  0  0  0  0  0  0  0  0  0  0
   25.4049  -20.4664  -10.8296 C   0  0  0  0  0  0  0  0  0  0  0  0
   25.0796  -19.2390  -10.9920 O   0  0  0  0  0  0  0  0  0  0  0  0
   18.0563  -23.8324  -11.7291 N   0  0  0  0  0  0  0  0  0  0  0  0
   17.8498  -22.9772  -12.8573 C   0  0  0  0  0  0  0  0  0  0  0  0
   16.6711  -22.5754  -13.1638 N   0  0  0  0  0  0  0  0  0  0  0  0
   18.9536  -22.5670  -13.6444 N   0  0  0  0  0  0  0  0  0  0  0  0
   20.3224  -22.9045  -13.3063 C   0  0  0  0  0  0  0  0  0  0  0  0
   20.9247  -21.8914  -12.3915 C   0  0  0  0  0  0  0  0  0  0  0  0
   22.3464  -22.0112  -12.0574 C   0  0  0  0  0  0  0  0  0  0  0  0
   22.9646  -21.0434  -11.1201 C   0  0  2  0  0  0  0  0  0  0  0  0
   24.3520  -21.4084  -10.7986 N   0  0  0  0  0  0  0  0  0  0  0  0
   22.2134  -20.7743   -9.8770 C   0  0  0  0  0  0  0  0  0  0  0  0
   21.0381  -20.0534   -9.9241 O   0  0  0  0  0  0  0  0  0  0  0  0
   22.5924  -21.1721   -8.7442 O   0  0  0  0  0  0  0  0  0  0  0  0
  2  1  1  6
  2  9  1  0
  2  3  1  0
  3  4  1  0
  4  8  1  0
  5  6  1  0
  5  4  2  0
  6  7  1  0
  7  8  2  0
  9 16  1  0
 10  9  2  0
 11 12  1  0
 12 13  1  0
 13 14  1  0
 15 14  1  1
 16 15  1  0
 17 15  1  0
 18 17  2  0
 19 20  1  0
 20 22  1  0
 21 20  2  0
 22 23  1  0
 23 24  1  0
 24 25  1  0
 26 25  1  1
 26 28  1  0
 26 27  1  0
 27 17  1  0
 28 29  1  0
 30 28  2  0
M  END
$$$$
