GVN.pdb
     RDKit          3D

 20 19  0  0  1  0  0  0  0  0999 V2000
    5.3014  -18.8789   19.0803 N   0  0  0  0  0  0  0  0  0  0  0  0
    5.0999  -17.8732   20.1037 C   0  0  0  0  0  0  0  0  0  0  0  0
    6.3698  -17.1857   20.3436 C   0  0  0  0  0  0  0  0  0  0  0  0
    7.3846  -17.8115   20.7268 O   0  0  0  0  0  0  0  0  0  0  0  0
    6.3845  -12.9141   20.9364 C   0  0  0  0  0  0  0  0  0  0  0  0
    7.5557  -13.6293   20.3066 C   0  0  1  0  0  0  0  0  0  0  0  0
    8.8318  -12.8668   20.5548 C   0  0  0  0  0  0  0  0  0  0  0  0
    7.6438  -15.0733   20.7400 C   0  0  2  0  0  0  0  0  0  0  0  0
    6.5442  -15.7727   20.1616 N   0  0  0  0  0  0  0  0  0  0  0  0
    7.7890  -15.2442   22.1809 C   0  0  0  0  0  0  0  0  0  0  0  0
    6.7818  -15.2906   22.9290 O   0  0  0  0  0  0  0  0  0  0  0  0
    6.5993  -16.5647   24.8185 N   0  0  0  0  0  0  0  0  0  0  0  0
    7.5741  -17.5852   24.8265 C   0  0  0  0  0  0  0  0  0  0  0  0
    7.3606  -18.6200   25.4874 O   0  0  0  0  0  0  0  0  0  0  0  0
    8.8314  -17.4453   24.0701 C   0  0  0  0  0  0  0  0  0  0  0  0
    9.3567  -16.0538   23.9880 C   0  0  2  0  0  0  0  0  0  0  0  0
    9.0652  -15.3622   22.7758 N   0  0  0  0  0  0  0  0  0  0  0  0
   10.7986  -16.0191   24.3215 C   0  0  0  0  0  0  0  0  0  0  0  0
   11.2364  -15.8193   25.6225 O   0  0  0  0  0  0  0  0  0  0  0  0
   11.6395  -16.1711   23.4243 O   0  0  0  0  0  0  0  0  0  0  0  0
  2  1  1  0
  3  9  1  0
  3  2  1  0
  4  3  2  0
  6  5  1  1
  6  8  1  0
  7  6  1  0
  8 10  1  0
  8  9  1  1
 10 11  2  0
 13 12  1  0
 14 13  2  0
 15 13  1  0
 16 15  1  6
 17 16  1  0
 17 10  1  0
 18 19  1  0
 18 16  1  0
 20 18  2  0
M  END
$$$$
