GVN.pdb
     RDKit          3D

 20 19  0  0  1  0  0  0  0  0999 V2000
    4.3882  -18.8604   21.5064 N   0  0  0  0  0  0  0  0  0  0  0  0
    4.7234  -17.6325   22.1986 C   0  0  0  0  0  0  0  0  0  0  0  0
    6.0130  -17.1498   21.7019 C   0  0  0  0  0  0  0  0  0  0  0  0
    6.8902  -17.9449   21.2935 O   0  0  0  0  0  0  0  0  0  0  0  0
    7.2567  -12.9842   22.0751 C   0  0  0  0  0  0  0  0  0  0  0  0
    7.5996  -13.8731   20.9037 C   0  0  1  0  0  0  0  0  0  0  0  0
    8.8531  -13.3854   20.2237 C   0  0  0  0  0  0  0  0  0  0  0  0
    7.6757  -15.3299   21.2947 C   0  0  2  0  0  0  0  0  0  0  0  0
    6.3622  -15.7588   21.6465 N   0  0  0  0  0  0  0  0  0  0  0  0
    8.7010  -15.6156   22.2916 C   0  0  0  0  0  0  0  0  0  0  0  0
    8.4630  -15.4823   23.5171 O   0  0  0  0  0  0  0  0  0  0  0  0
    9.4420  -18.4255   24.9713 N   0  0  0  0  0  0  0  0  0  0  0  0
   10.7665  -18.1442   24.5732 C   0  0  0  0  0  0  0  0  0  0  0  0
   11.6683  -18.1409   25.4333 O   0  0  0  0  0  0  0  0  0  0  0  0
   11.0954  -17.8567   23.1655 C   0  0  0  0  0  0  0  0  0  0  0  0
   11.0432  -16.4144   22.7964 C   0  0  2  0  0  0  0  0  0  0  0  0
    9.9895  -16.0500   21.9077 N   0  0  0  0  0  0  0  0  0  0  0  0
   12.3654  -15.9486   22.3206 C   0  0  0  0  0  0  0  0  0  0  0  0
   13.4566  -15.8734   23.1738 O   0  0  0  0  0  0  0  0  0  0  0  0
   12.5088  -15.6167   21.1356 O   0  0  0  0  0  0  0  0  0  0  0  0
  2  1  1  0
  3  9  1  0
  3  2  1  0
  4  3  2  0
  6  5  1  1
  6  8  1  0
  7  6  1  0
  8 10  1  0
  8  9  1  1
 10 11  2  0
 13 12  1  0
 14 13  2  0
 15 13  1  0
 16 15  1  6
 17 16  1  0
 17 10  1  0
 18 19  1  0
 18 16  1  0
 20 18  2  0
M  END
$$$$
