GVN.pdb
     RDKit          3D

 20 19  0  0  1  0  0  0  0  0999 V2000
    8.9683  -19.0452   18.1687 N   0  0  0  0  0  0  0  0  0  0  0  0
    8.0250  -18.2281   18.9049 C   0  0  0  0  0  0  0  0  0  0  0  0
    8.6812  -16.9743   19.2792 C   0  0  0  0  0  0  0  0  0  0  0  0
    9.9289  -16.8671   19.2716 O   0  0  0  0  0  0  0  0  0  0  0  0
    6.5426  -13.7573   21.2537 C   0  0  0  0  0  0  0  0  0  0  0  0
    7.6280  -13.5141   20.2327 C   0  0  1  0  0  0  0  0  0  0  0  0
    8.2756  -12.1730   20.4639 C   0  0  0  0  0  0  0  0  0  0  0  0
    8.6278  -14.6448   20.1810 C   0  0  2  0  0  0  0  0  0  0  0  0
    7.9598  -15.7982   19.6747 N   0  0  0  0  0  0  0  0  0  0  0  0
    9.3426  -14.8520   21.4351 C   0  0  0  0  0  0  0  0  0  0  0  0
   10.1182  -13.9743   21.8872 O   0  0  0  0  0  0  0  0  0  0  0  0
    6.3848  -16.9220   23.9461 N   0  0  0  0  0  0  0  0  0  0  0  0
    7.5303  -16.4492   24.6214 C   0  0  0  0  0  0  0  0  0  0  0  0
    7.4123  -15.4996   25.4198 O   0  0  0  0  0  0  0  0  0  0  0  0
    8.8538  -17.0580   24.3973 C   0  0  0  0  0  0  0  0  0  0  0  0
    9.7363  -16.3027   23.4647 C   0  0  2  0  0  0  0  0  0  0  0  0
    9.1832  -16.0443   22.1762 N   0  0  0  0  0  0  0  0  0  0  0  0
   11.0738  -16.9324   23.3856 C   0  0  0  0  0  0  0  0  0  0  0  0
   11.8615  -17.1032   24.5145 O   0  0  0  0  0  0  0  0  0  0  0  0
   11.5063  -17.3181   22.2906 O   0  0  0  0  0  0  0  0  0  0  0  0
  2  1  1  0
  3  9  1  0
  3  2  1  0
  4  3  2  0
  6  5  1  1
  6  8  1  0
  7  6  1  0
  8 10  1  0
  8  9  1  1
 10 11  2  0
 13 12  1  0
 14 13  2  0
 15 13  1  0
 16 15  1  1
 17 16  1  0
 17 10  1  0
 18 19  1  0
 18 16  1  0
 20 18  2  0
M  END
$$$$
