GVN.pdb
     RDKit          3D

 20 19  0  0  1  0  0  0  0  0999 V2000
    7.1804  -13.9281   20.4632 N   0  0  0  0  0  0  0  0  0  0  0  0
    6.4410  -14.1373   21.6916 C   0  0  0  0  0  0  0  0  0  0  0  0
    7.3611  -14.0047   22.8224 C   0  0  0  0  0  0  0  0  0  0  0  0
    8.5995  -14.1081   22.6674 O   0  0  0  0  0  0  0  0  0  0  0  0
    7.0460  -11.4840   25.9644 C   0  0  0  0  0  0  0  0  0  0  0  0
    7.2310  -12.9264   26.3708 C   0  0  1  0  0  0  0  0  0  0  0  0
    5.9362  -13.4955   26.8916 C   0  0  0  0  0  0  0  0  0  0  0  0
    7.8323  -13.7594   25.2639 C   0  0  2  0  0  0  0  0  0  0  0  0
    6.9230  -13.7515   24.1655 N   0  0  0  0  0  0  0  0  0  0  0  0
    8.2603  -15.0850   25.6953 C   0  0  0  0  0  0  0  0  0  0  0  0
    7.4357  -16.0259   25.8002 O   0  0  0  0  0  0  0  0  0  0  0  0
   12.5338  -16.1683   23.6722 N   0  0  0  0  0  0  0  0  0  0  0  0
   11.5113  -16.8832   24.3318 C   0  0  0  0  0  0  0  0  0  0  0  0
   10.6377  -17.4549   23.6513 O   0  0  0  0  0  0  0  0  0  0  0  0
   11.4626  -16.9626   25.8028 C   0  0  0  0  0  0  0  0  0  0  0  0
   10.1447  -16.6110   26.4017 C   0  0  2  0  0  0  0  0  0  0  0  0
    9.6129  -15.3483   26.0072 N   0  0  0  0  0  0  0  0  0  0  0  0
   10.1802  -16.7704   27.8730 C   0  0  0  0  0  0  0  0  0  0  0  0
   10.3860  -18.0092   28.4624 O   0  0  0  0  0  0  0  0  0  0  0  0
   10.0233  -15.7804   28.6012 O   0  0  0  0  0  0  0  0  0  0  0  0
  2  1  1  0
  3  9  1  0
  3  2  1  0
  4  3  2  0
  6  5  1  6
  6  8  1  0
  7  6  1  0
  8 10  1  0
  8  9  1  6
 10 11  2  0
 13 12  1  0
 14 13  2  0
 15 13  1  0
 16 15  1  1
 17 16  1  0
 17 10  1  0
 18 19  1  0
 18 16  1  0
 20 18  2  0
M  END
$$$$
