GVN.pdb
     RDKit          3D

 20 19  0  0  1  0  0  0  0  0999 V2000
    3.8685  -18.2691   20.0965 N   0  0  0  0  0  0  0  0  0  0  0  0
    4.0505  -17.1671   21.0196 C   0  0  0  0  0  0  0  0  0  0  0  0
    5.4718  -16.8197   21.0624 C   0  0  0  0  0  0  0  0  0  0  0  0
    6.3426  -17.6795   21.3285 O   0  0  0  0  0  0  0  0  0  0  0  0
    6.8622  -12.6576   21.0427 C   0  0  0  0  0  0  0  0  0  0  0  0
    7.5983  -13.8177   20.4165 C   0  0  1  0  0  0  0  0  0  0  0  0
    9.0730  -13.5191   20.3304 C   0  0  0  0  0  0  0  0  0  0  0  0
    7.3063  -15.1242   21.1156 C   0  0  2  0  0  0  0  0  0  0  0  0
    5.9645  -15.4958   20.8082 N   0  0  0  0  0  0  0  0  0  0  0  0
    7.6281  -15.1118   22.5378 C   0  0  0  0  0  0  0  0  0  0  0  0
    6.7685  -14.7786   23.3900 O   0  0  0  0  0  0  0  0  0  0  0  0
    7.1636  -16.2568   26.1608 N   0  0  0  0  0  0  0  0  0  0  0  0
    7.3652  -17.4118   25.3752 C   0  0  0  0  0  0  0  0  0  0  0  0
    6.6225  -18.3975   25.5479 O   0  0  0  0  0  0  0  0  0  0  0  0
    8.4335  -17.4680   24.3613 C   0  0  0  0  0  0  0  0  0  0  0  0
    9.1970  -16.2002   24.1909 C   0  0  2  0  0  0  0  0  0  0  0  0
    8.9143  -15.4738   22.9970 N   0  0  0  0  0  0  0  0  0  0  0  0
   10.6470  -16.4346   24.3755 C   0  0  0  0  0  0  0  0  0  0  0  0
   11.3240  -17.3977   23.6419 O   0  0  0  0  0  0  0  0  0  0  0  0
   11.2771  -15.7597   25.2017 O   0  0  0  0  0  0  0  0  0  0  0  0
  2  1  1  0
  3  9  1  0
  3  2  1  0
  4  3  2  0
  6  5  1  1
  6  8  1  0
  7  6  1  0
  8 10  1  0
  8  9  1  1
 10 11  2  0
 13 12  1  0
 14 13  2  0
 15 13  1  0
 16 15  1  6
 17 16  1  0
 17 10  1  0
 18 19  1  0
 18 16  1  0
 20 18  2  0
M  END
$$$$
