GVN.pdb
     RDKit          3D

 20 19  0  0  1  0  0  0  0  0999 V2000
    7.3415  -14.4858   20.1237 N   0  0  0  0  0  0  0  0  0  0  0  0
    6.4997  -14.1453   21.2527 C   0  0  0  0  0  0  0  0  0  0  0  0
    7.3314  -14.0761   22.4553 C   0  0  0  0  0  0  0  0  0  0  0  0
    8.4930  -14.5439   22.4690 O   0  0  0  0  0  0  0  0  0  0  0  0
    5.7748  -12.7916   26.3483 C   0  0  0  0  0  0  0  0  0  0  0  0
    7.1674  -12.5146   25.8348 C   0  0  1  0  0  0  0  0  0  0  0  0
    8.1150  -12.2853   26.9841 C   0  0  0  0  0  0  0  0  0  0  0  0
    7.6496  -13.5845   24.8843 C   0  0  2  0  0  0  0  0  0  0  0  0
    6.8882  -13.4798   23.6833 N   0  0  0  0  0  0  0  0  0  0  0  0
    7.6845  -14.9181   25.4731 C   0  0  0  0  0  0  0  0  0  0  0  0
    6.7096  -15.7004   25.3550 O   0  0  0  0  0  0  0  0  0  0  0  0
   12.0680  -18.0876   23.9645 N   0  0  0  0  0  0  0  0  0  0  0  0
   10.6955  -18.0344   24.2888 C   0  0  0  0  0  0  0  0  0  0  0  0
   10.0483  -19.0974   24.3547 O   0  0  0  0  0  0  0  0  0  0  0  0
   10.0221  -16.7493   24.5486 C   0  0  0  0  0  0  0  0  0  0  0  0
    9.5318  -16.5747   25.9444 C   0  0  2  0  0  0  0  0  0  0  0  0
    8.8144  -15.3677   26.1924 N   0  0  0  0  0  0  0  0  0  0  0  0
   10.6305  -16.7843   26.9142 C   0  0  0  0  0  0  0  0  0  0  0  0
   11.5042  -15.7608   27.2509 O   0  0  0  0  0  0  0  0  0  0  0  0
   10.7797  -17.8956   27.4413 O   0  0  0  0  0  0  0  0  0  0  0  0
  2  1  1  0
  3  9  1  0
  3  2  1  0
  4  3  2  0
  6  5  1  1
  6  8  1  0
  7  6  1  0
  8 10  1  0
  8  9  1  6
 10 11  2  0
 13 12  1  0
 14 13  2  0
 15 13  1  0
 16 15  1  6
 17 16  1  0
 17 10  1  0
 18 19  1  0
 18 16  1  0
 20 18  2  0
M  END
$$$$
