GVN.pdb
     RDKit          3D

 20 19  0  0  1  0  0  0  0  0999 V2000
    6.9620  -16.3859   19.5704 N   0  0  0  0  0  0  0  0  0  0  0  0
    6.1986  -15.8390   20.6738 C   0  0  0  0  0  0  0  0  0  0  0  0
    7.1153  -15.5299   21.7723 C   0  0  0  0  0  0  0  0  0  0  0  0
    8.2695  -16.0146   21.8105 O   0  0  0  0  0  0  0  0  0  0  0  0
    7.5220  -12.0472   23.2507 C   0  0  0  0  0  0  0  0  0  0  0  0
    7.4975  -13.0159   24.4086 C   0  0  1  0  0  0  0  0  0  0  0  0
    6.2632  -12.8018   25.2465 C   0  0  0  0  0  0  0  0  0  0  0  0
    7.6572  -14.4487   23.9586 C   0  0  2  0  0  0  0  0  0  0  0  0
    6.7684  -14.6666   22.8652 N   0  0  0  0  0  0  0  0  0  0  0  0
    7.5451  -15.4184   25.0419 C   0  0  0  0  0  0  0  0  0  0  0  0
    6.4214  -15.7744   25.4743 O   0  0  0  0  0  0  0  0  0  0  0  0
    7.1419  -20.1521   27.0324 N   0  0  0  0  0  0  0  0  0  0  0  0
    8.3163  -19.6603   26.4237 C   0  0  0  0  0  0  0  0  0  0  0  0
    9.3801  -20.2948   26.5618 O   0  0  0  0  0  0  0  0  0  0  0  0
    8.3025  -18.4164   25.6330 C   0  0  0  0  0  0  0  0  0  0  0  0
    8.7355  -17.2010   26.3776 C   0  0  2  0  0  0  0  0  0  0  0  0
    8.6957  -15.9844   25.6352 N   0  0  0  0  0  0  0  0  0  0  0  0
   10.0499  -17.4232   27.0214 C   0  0  0  0  0  0  0  0  0  0  0  0
   10.1543  -18.0345   28.2622 O   0  0  0  0  0  0  0  0  0  0  0  0
   11.0844  -17.0580   26.4457 O   0  0  0  0  0  0  0  0  0  0  0  0
  2  1  1  0
  3  9  1  0
  3  2  1  0
  4  3  2  0
  6  5  1  6
  6  8  1  0
  7  6  1  0
  8 10  1  0
  8  9  1  6
 10 11  2  0
 13 12  1  0
 14 13  2  0
 15 13  1  0
 16 15  1  6
 17 16  1  0
 17 10  1  0
 18 19  1  0
 18 16  1  0
 20 18  2  0
M  END
$$$$
