GVN.pdb
     RDKit          3D

 20 19  0  0  1  0  0  0  0  0999 V2000
    5.8988  -18.6315   23.0709 N   0  0  0  0  0  0  0  0  0  0  0  0
    5.4709  -17.6618   24.0588 C   0  0  0  0  0  0  0  0  0  0  0  0
    6.4845  -16.6101   24.1549 C   0  0  0  0  0  0  0  0  0  0  0  0
    7.5369  -16.6590   23.4779 O   0  0  0  0  0  0  0  0  0  0  0  0
    6.1941  -13.5063   27.1255 C   0  0  0  0  0  0  0  0  0  0  0  0
    6.8413  -13.2747   25.7812 C   0  0  1  0  0  0  0  0  0  0  0  0
    7.8509  -12.1591   25.8696 C   0  0  0  0  0  0  0  0  0  0  0  0
    7.4205  -14.5424   25.1996 C   0  0  2  0  0  0  0  0  0  0  0  0
    6.3519  -15.4680   25.0139 N   0  0  0  0  0  0  0  0  0  0  0  0
    8.5588  -15.0630   25.9478 C   0  0  0  0  0  0  0  0  0  0  0  0
    9.6200  -14.4001   26.0504 O   0  0  0  0  0  0  0  0  0  0  0  0
    8.0025  -20.1366   26.2102 N   0  0  0  0  0  0  0  0  0  0  0  0
    8.5092  -19.2372   27.1725 C   0  0  0  0  0  0  0  0  0  0  0  0
    7.9160  -19.1203   28.2622 O   0  0  0  0  0  0  0  0  0  0  0  0
    9.7209  -18.4405   26.9087 C   0  0  0  0  0  0  0  0  0  0  0  0
    9.5900  -16.9886   27.2156 C   0  0  2  0  0  0  0  0  0  0  0  0
    8.5003  -16.3263   26.5780 N   0  0  0  0  0  0  0  0  0  0  0  0
   10.8769  -16.2903   26.9974 C   0  0  0  0  0  0  0  0  0  0  0  0
   11.6723  -15.8887   28.0606 O   0  0  0  0  0  0  0  0  0  0  0  0
   11.2592  -16.0555   25.8425 O   0  0  0  0  0  0  0  0  0  0  0  0
  2  1  1  0
  3  9  1  0
  3  2  1  0
  4  3  2  0
  6  5  1  1
  6  8  1  0
  7  6  1  0
  8 10  1  0
  8  9  1  1
 10 11  2  0
 13 12  1  0
 14 13  2  0
 15 13  1  0
 16 15  1  6
 17 16  1  0
 17 10  1  0
 18 19  1  0
 18 16  1  0
 20 18  2  0
M  END
$$$$
