GVN.pdb
     RDKit          3D

 20 19  0  0  1  0  0  0  0  0999 V2000
    9.1262  -17.0475   15.7680 N   0  0  0  0  0  0  0  0  0  0  0  0
    8.1074  -16.8264   16.7742 C   0  0  0  0  0  0  0  0  0  0  0  0
    8.7103  -16.1212   17.9065 C   0  0  0  0  0  0  0  0  0  0  0  0
    9.9388  -16.1954   18.1379 O   0  0  0  0  0  0  0  0  0  0  0  0
    8.1102  -13.1582   21.8654 C   0  0  0  0  0  0  0  0  0  0  0  0
    7.5996  -13.7508   20.5739 C   0  0  1  0  0  0  0  0  0  0  0  0
    7.3046  -12.6603   19.5762 C   0  0  0  0  0  0  0  0  0  0  0  0
    8.5259  -14.8099   20.0253 C   0  0  2  0  0  0  0  0  0  0  0  0
    7.9553  -15.3088   18.8176 N   0  0  0  0  0  0  0  0  0  0  0  0
    8.8882  -15.8324   20.9998 C   0  0  0  0  0  0  0  0  0  0  0  0
    8.0906  -16.7577   21.2897 O   0  0  0  0  0  0  0  0  0  0  0  0
   12.2630  -19.8967   23.0357 N   0  0  0  0  0  0  0  0  0  0  0  0
   11.5102  -19.0878   22.1578 C   0  0  0  0  0  0  0  0  0  0  0  0
   10.6320  -19.6182   21.4503 O   0  0  0  0  0  0  0  0  0  0  0  0
   11.7463  -17.6357   22.0667 C   0  0  0  0  0  0  0  0  0  0  0  0
   10.6246  -16.7906   22.5636 C   0  0  2  0  0  0  0  0  0  0  0  0
   10.1452  -15.8115   21.6447 N   0  0  0  0  0  0  0  0  0  0  0  0
   10.9547  -16.2077   23.8838 C   0  0  0  0  0  0  0  0  0  0  0  0
   10.6836  -16.8860   25.0630 O   0  0  0  0  0  0  0  0  0  0  0  0
   11.4850  -15.0897   23.9453 O   0  0  0  0  0  0  0  0  0  0  0  0
  2  1  1  0
  3  9  1  0
  3  2  1  0
  4  3  2  0
  6  5  1  1
  6  8  1  0
  7  6  1  0
  8 10  1  0
  8  9  1  6
 10 11  2  0
 13 12  1  0
 14 13  2  0
 15 13  1  0
 16 15  1  6
 17 16  1  0
 17 10  1  0
 18 19  1  0
 18 16  1  0
 20 18  2  0
M  END
$$$$
