GVN.pdb
     RDKit          3D

 20 19  0  0  1  0  0  0  0  0999 V2000
    9.4575  -15.3736   14.8593 N   0  0  0  0  0  0  0  0  0  0  0  0
    8.6292  -15.5719   16.0314 C   0  0  0  0  0  0  0  0  0  0  0  0
    9.3028  -14.9805   17.1886 C   0  0  0  0  0  0  0  0  0  0  0  0
   10.5377  -14.7728   17.1848 O   0  0  0  0  0  0  0  0  0  0  0  0
    7.6476  -12.1979   19.5553 C   0  0  0  0  0  0  0  0  0  0  0  0
    8.3203  -13.2925   20.3484 C   0  0  1  0  0  0  0  0  0  0  0  0
    7.2897  -14.1708   21.0102 C   0  0  0  0  0  0  0  0  0  0  0  0
    9.3089  -14.0755   19.5175 C   0  0  2  0  0  0  0  0  0  0  0  0
    8.6137  -14.6019   18.3894 N   0  0  0  0  0  0  0  0  0  0  0  0
   10.0680  -15.0579   20.2824 C   0  0  0  0  0  0  0  0  0  0  0  0
    9.7105  -16.2608   20.3208 O   0  0  0  0  0  0  0  0  0  0  0  0
   13.7310  -15.8254   19.4651 N   0  0  0  0  0  0  0  0  0  0  0  0
   14.1929  -15.1119   20.5917 C   0  0  0  0  0  0  0  0  0  0  0  0
   15.2258  -14.4223   20.4887 O   0  0  0  0  0  0  0  0  0  0  0  0
   13.4762  -15.1705   21.8784 C   0  0  0  0  0  0  0  0  0  0  0  0
   12.0424  -15.5611   21.7748 C   0  0  2  0  0  0  0  0  0  0  0  0
   11.2258  -14.6850   21.0012 N   0  0  0  0  0  0  0  0  0  0  0  0
   11.4733  -15.8207   23.1166 C   0  0  0  0  0  0  0  0  0  0  0  0
   11.9267  -16.8680   23.9051 O   0  0  0  0  0  0  0  0  0  0  0  0
   10.5719  -15.0908   23.5521 O   0  0  0  0  0  0  0  0  0  0  0  0
  2  1  1  0
  3  9  1  0
  3  2  1  0
  4  3  2  0
  6  5  1  6
  6  8  1  0
  7  6  1  0
  8 10  1  0
  8  9  1  6
 10 11  2  0
 13 12  1  0
 14 13  2  0
 15 13  1  0
 16 15  1  1
 17 16  1  0
 17 10  1  0
 18 19  1  0
 18 16  1  0
 20 18  2  0
M  END
$$$$
