GVN.pdb
     RDKit          3D

 20 19  0  0  1  0  0  0  0  0999 V2000
    7.9792  -17.9559   17.1006 N   0  0  0  0  0  0  0  0  0  0  0  0
    7.5391  -17.4761   18.3949 C   0  0  0  0  0  0  0  0  0  0  0  0
    8.3410  -16.3074   18.7607 C   0  0  0  0  0  0  0  0  0  0  0  0
    9.4907  -16.1372   18.2941 O   0  0  0  0  0  0  0  0  0  0  0  0
    6.9493  -12.6204   19.7606 C   0  0  0  0  0  0  0  0  0  0  0  0
    7.9192  -13.1892   20.7683 C   0  0  1  0  0  0  0  0  0  0  0  0
    7.1917  -13.6037   22.0214 C   0  0  0  0  0  0  0  0  0  0  0  0
    8.7617  -14.2996   20.1871 C   0  0  2  0  0  0  0  0  0  0  0  0
    7.8804  -15.2900   19.6622 N   0  0  0  0  0  0  0  0  0  0  0  0
    9.7759  -14.8063   21.1042 C   0  0  0  0  0  0  0  0  0  0  0  0
   10.5607  -14.0232   21.6935 O   0  0  0  0  0  0  0  0  0  0  0  0
   11.3636  -17.5097   25.8301 N   0  0  0  0  0  0  0  0  0  0  0  0
   11.6163  -16.7614   24.6606 C   0  0  0  0  0  0  0  0  0  0  0  0
   12.7821  -16.3931   24.4187 O   0  0  0  0  0  0  0  0  0  0  0  0
   10.5293  -16.4119   23.7285 C   0  0  0  0  0  0  0  0  0  0  0  0
   10.7833  -16.7845   22.3087 C   0  0  2  0  0  0  0  0  0  0  0  0
    9.9046  -16.1907   21.3557 N   0  0  0  0  0  0  0  0  0  0  0  0
   10.8612  -18.2554   22.1604 C   0  0  0  0  0  0  0  0  0  0  0  0
   12.0660  -18.8948   21.9079 O   0  0  0  0  0  0  0  0  0  0  0  0
    9.8320  -18.9375   22.2626 O   0  0  0  0  0  0  0  0  0  0  0  0
  2  1  1  0
  3  9  1  0
  3  2  1  0
  4  3  2  0
  6  5  1  6
  6  8  1  0
  7  6  1  0
  8 10  1  0
  8  9  1  1
 10 11  2  0
 13 12  1  0
 14 13  2  0
 15 13  1  0
 16 15  1  1
 17 16  1  0
 17 10  1  0
 18 19  1  0
 18 16  1  0
 20 18  2  0
M  END
$$$$
