GVN.pdb
     RDKit          3D

 20 19  0  0  1  0  0  0  0  0999 V2000
    5.4033  -13.0154   26.8172 N   0  0  0  0  0  0  0  0  0  0  0  0
    6.4690  -12.6580   25.9028 C   0  0  0  0  0  0  0  0  0  0  0  0
    6.8647  -13.8512   25.1528 C   0  0  0  0  0  0  0  0  0  0  0  0
    6.4071  -14.9807   25.4411 O   0  0  0  0  0  0  0  0  0  0  0  0
    7.1109  -13.6370   21.4607 C   0  0  0  0  0  0  0  0  0  0  0  0
    8.1897  -14.6173   21.8545 C   0  0  1  0  0  0  0  0  0  0  0  0
    9.5456  -14.0948   21.4544 C   0  0  0  0  0  0  0  0  0  0  0  0
    8.1156  -14.9924   23.3155 C   0  0  2  0  0  0  0  0  0  0  0  0
    7.7873  -13.8176   24.0538 N   0  0  0  0  0  0  0  0  0  0  0  0
    9.2908  -15.7096   23.7960 C   0  0  0  0  0  0  0  0  0  0  0  0
   10.3471  -15.0954   24.0847 O   0  0  0  0  0  0  0  0  0  0  0  0
    7.7686  -19.2664   26.4062 N   0  0  0  0  0  0  0  0  0  0  0  0
    9.1198  -18.8605   26.3722 C   0  0  0  0  0  0  0  0  0  0  0  0
    9.5983  -18.2689   27.3592 O   0  0  0  0  0  0  0  0  0  0  0  0
    9.9664  -19.1245   25.1949 C   0  0  0  0  0  0  0  0  0  0  0  0
   10.3578  -17.9107   24.4251 C   0  0  2  0  0  0  0  0  0  0  0  0
    9.2748  -17.1140   23.9505 N   0  0  0  0  0  0  0  0  0  0  0  0
   11.3120  -18.2598   23.3485 C   0  0  0  0  0  0  0  0  0  0  0  0
   12.5640  -18.7852   23.6330 O   0  0  0  0  0  0  0  0  0  0  0  0
   10.9930  -18.0819   22.1646 O   0  0  0  0  0  0  0  0  0  0  0  0
  2  1  1  0
  3  9  1  0
  3  2  1  0
  4  3  2  0
  6  5  1  1
  6  8  1  0
  7  6  1  0
  8 10  1  0
  8  9  1  1
 10 11  2  0
 13 12  1  0
 14 13  2  0
 15 13  1  0
 16 15  1  6
 17 16  1  0
 17 10  1  0
 18 19  1  0
 18 16  1  0
 20 18  2  0
M  END
$$$$
