CFY.pdb
     RDKit          3D

 30 31  0  0  1  0  0  0  0  0999 V2000
    3.2138  -18.7393   21.9462 N   0  0  0  0  0  0  0  0  0  0  0  0
    4.5267  -18.9427   22.4774 C   0  0  1  0  0  0  0  0  0  0  0  0
    5.4527  -19.6330   21.4902 C   0  0  0  0  0  0  0  0  0  0  0  0
    7.0310  -20.0656   22.2274 S   0  0  0  0  0  0  0  0  0  0  0  0
    5.1885  -17.6466   22.8456 C   0  0  0  0  0  0  0  0  0  0  0  0
    5.1649  -16.7152   21.9996 O   0  0  0  0  0  0  0  0  0  0  0  0
    5.8109  -17.4932   24.0992 N   0  0  0  0  0  0  0  0  0  0  0  0
    6.4584  -16.1869   24.3953 C   0  0  1  0  0  0  0  0  0  0  0  0
    6.2932  -15.8970   25.8464 C   0  0  0  0  0  0  0  0  0  0  0  0
    6.7142  -14.5755   26.3177 C   0  0  0  0  0  0  0  0  0  0  0  0
    7.9818  -14.4098   26.9009 C   0  0  0  0  0  0  0  0  0  0  0  0
    8.4410  -13.1942   27.3165 C   0  0  0  0  0  0  0  0  0  0  0  0
    7.6680  -12.0593   27.1795 C   0  0  0  0  0  0  0  0  0  0  0  0
    6.4361  -12.1821   26.6197 C   0  0  0  0  0  0  0  0  0  0  0  0
    5.9817  -13.4175   26.2028 C   0  0  0  0  0  0  0  0  0  0  0  0
    7.8580  -16.3630   24.0090 C   0  0  0  0  0  0  0  0  0  0  0  0
    8.3725  -17.5301   24.1080 O   0  0  0  0  0  0  0  0  0  0  0  0
    6.8540  -13.8189   17.9070 O   0  0  0  0  0  0  0  0  0  0  0  0
    7.7223  -13.9579   18.9871 C   0  0  0  0  0  0  0  0  0  0  0  0
    8.7045  -14.9397   18.8927 C   0  0  0  0  0  0  0  0  0  0  0  0
    9.5873  -15.1160   19.9349 C   0  0  0  0  0  0  0  0  0  0  0  0
    9.4928  -14.3261   21.0544 C   0  0  0  0  0  0  0  0  0  0  0  0
   10.4256  -14.5114   22.1662 C   0  0  0  0  0  0  0  0  0  0  0  0
   10.0020  -15.7211   23.0135 C   0  0  2  0  0  0  0  0  0  0  0  0
    8.6776  -15.3329   23.5254 N   0  0  0  0  0  0  0  0  0  0  0  0
   10.9086  -15.9727   24.1077 C   0  0  0  0  0  0  0  0  0  0  0  0
   12.1251  -16.2563   23.8942 O   0  0  0  0  0  0  0  0  0  0  0  0
    8.5171  -13.3370   21.1701 C   0  0  0  0  0  0  0  0  0  0  0  0
    7.6430  -13.1752   20.1175 C   0  0  0  0  0  0  0  0  0  0  0  0
   10.5188  -15.9204   25.4220 O   0  0  0  0  0  0  0  0  0  0  0  0
  2  1  1  6
  3  2  1  0
  4  3  1  0
  5  6  2  0
  5  2  1  0
  7  5  1  0
  8  7  1  0
  8  9  1  1
 10  9  1  0
 10 11  2  0
 12 11  1  0
 13 12  2  0
 14 15  2  0
 14 13  1  0
 15 10  1  0
 16  8  1  0
 17 16  2  0
 19 29  2  0
 19 18  1  0
 20 19  1  0
 21 22  1  0
 21 20  2  0
 22 28  2  0
 23 22  1  0
 24 23  1  6
 24 25  1  0
 25 16  1  0
 26 24  1  0
 26 30  1  0
 27 26  2  0
 28 29  1  0
M  END
$$$$
