CFY.pdb
     RDKit          3D

 30 31  0  0  1  0  0  0  0  0999 V2000
    9.9363  -16.7399   18.7634 N   0  0  0  0  0  0  0  0  0  0  0  0
    9.0526  -17.0656   19.8405 C   0  0  1  0  0  0  0  0  0  0  0  0
    9.3476  -18.4290   20.4427 C   0  0  0  0  0  0  0  0  0  0  0  0
    9.3378  -19.7331   19.2094 S   0  0  0  0  0  0  0  0  0  0  0  0
    9.1506  -16.0748   20.9640 C   0  0  0  0  0  0  0  0  0  0  0  0
   10.2632  -15.5211   21.1619 O   0  0  0  0  0  0  0  0  0  0  0  0
    8.0266  -15.7851   21.7610 N   0  0  0  0  0  0  0  0  0  0  0  0
    8.1912  -14.7893   22.8540 C   0  0  1  0  0  0  0  0  0  0  0  0
    6.8583  -14.2006   23.1602 C   0  0  0  0  0  0  0  0  0  0  0  0
    6.7959  -13.2056   24.2335 C   0  0  0  0  0  0  0  0  0  0  0  0
    6.1435  -13.5142   25.4391 C   0  0  0  0  0  0  0  0  0  0  0  0
    6.0938  -12.6416   26.4865 C   0  0  0  0  0  0  0  0  0  0  0  0
    6.6913  -11.4003   26.4045 C   0  0  0  0  0  0  0  0  0  0  0  0
    7.3313  -11.0677   25.2531 C   0  0  0  0  0  0  0  0  0  0  0  0
    7.3751  -11.9590   24.1994 C   0  0  0  0  0  0  0  0  0  0  0  0
    8.7463  -15.5473   23.9750 C   0  0  0  0  0  0  0  0  0  0  0  0
    7.9669  -15.8627   24.9392 O   0  0  0  0  0  0  0  0  0  0  0  0
   11.7696  -16.0688   31.5702 O   0  0  0  0  0  0  0  0  0  0  0  0
   11.2655  -16.1777   30.2764 C   0  0  0  0  0  0  0  0  0  0  0  0
   10.8815  -15.0002   29.6410 C   0  0  0  0  0  0  0  0  0  0  0  0
   10.3769  -15.0556   28.3608 C   0  0  0  0  0  0  0  0  0  0  0  0
   10.2566  -16.2661   27.7233 C   0  0  0  0  0  0  0  0  0  0  0  0
    9.7178  -16.3314   26.3645 C   0  0  0  0  0  0  0  0  0  0  0  0
   10.7502  -15.7934   25.3619 C   0  0  2  0  0  0  0  0  0  0  0  0
   10.0831  -15.9623   24.0606 N   0  0  0  0  0  0  0  0  0  0  0  0
   11.9870  -16.5364   25.3915 C   0  0  0  0  0  0  0  0  0  0  0  0
   12.1424  -17.5720   24.6778 O   0  0  0  0  0  0  0  0  0  0  0  0
   10.6350  -17.4574   28.3406 C   0  0  0  0  0  0  0  0  0  0  0  0
   11.1376  -17.3822   29.6212 C   0  0  0  0  0  0  0  0  0  0  0  0
   13.0517  -16.1750   26.1774 O   0  0  0  0  0  0  0  0  0  0  0  0
  2  1  1  6
  3  2  1  0
  4  3  1  0
  5  6  2  0
  5  2  1  0
  7  5  1  0
  8  7  1  0
  8  9  1  1
 10  9  1  0
 10 11  2  0
 12 11  1  0
 13 12  2  0
 14 15  2  0
 14 13  1  0
 15 10  1  0
 16  8  1  0
 17 16  2  0
 19 29  2  0
 19 18  1  0
 20 19  1  0
 21 22  1  0
 21 20  2  0
 22 28  2  0
 23 22  1  0
 24 23  1  1
 24 25  1  0
 25 16  1  0
 26 24  1  0
 26 30  1  0
 27 26  2  0
 28 29  1  0
M  END
$$$$
