CFY.pdb
     RDKit          3D

 30 31  0  0  1  0  0  0  0  0999 V2000
   10.0732  -20.8390   20.4112 N   0  0  0  0  0  0  0  0  0  0  0  0
    9.1597  -20.1983   21.3068 C   0  0  1  0  0  0  0  0  0  0  0  0
    9.2770  -20.7205   22.7288 C   0  0  0  0  0  0  0  0  0  0  0  0
    9.4446  -22.5067   22.7851 S   0  0  0  0  0  0  0  0  0  0  0  0
    9.3918  -18.7169   21.3779 C   0  0  0  0  0  0  0  0  0  0  0  0
   10.5478  -18.2916   21.1201 O   0  0  0  0  0  0  0  0  0  0  0  0
    8.3414  -17.8450   21.7228 N   0  0  0  0  0  0  0  0  0  0  0  0
    8.6373  -16.3877   21.7654 C   0  0  1  0  0  0  0  0  0  0  0  0
    7.3522  -15.6425   21.6625 C   0  0  0  0  0  0  0  0  0  0  0  0
    7.4322  -14.1928   21.4685 C   0  0  0  0  0  0  0  0  0  0  0  0
    7.9413  -13.6729   20.2665 C   0  0  0  0  0  0  0  0  0  0  0  0
    7.9975  -12.3330   20.0163 C   0  0  0  0  0  0  0  0  0  0  0  0
    7.5498  -11.4182   20.9475 C   0  0  0  0  0  0  0  0  0  0  0  0
    7.0511  -11.8852   22.1218 C   0  0  0  0  0  0  0  0  0  0  0  0
    6.9993  -13.2435   22.3642 C   0  0  0  0  0  0  0  0  0  0  0  0
    9.3130  -16.1767   23.0453 C   0  0  0  0  0  0  0  0  0  0  0  0
   10.2947  -15.3574   23.0852 O   0  0  0  0  0  0  0  0  0  0  0  0
    6.5957  -11.2196   26.6001 O   0  0  0  0  0  0  0  0  0  0  0  0
    7.1718  -12.4876   26.5953 C   0  0  0  0  0  0  0  0  0  0  0  0
    6.3212  -13.5732   26.4066 C   0  0  0  0  0  0  0  0  0  0  0  0
    6.8430  -14.8475   26.3939 C   0  0  0  0  0  0  0  0  0  0  0  0
    8.1922  -15.0375   26.5668 C   0  0  0  0  0  0  0  0  0  0  0  0
    8.7517  -16.3894   26.5579 C   0  0  0  0  0  0  0  0  0  0  0  0
    9.7795  -16.5268   25.4242 C   0  0  2  0  0  0  0  0  0  0  0  0
    8.9490  -16.8100   24.2423 N   0  0  0  0  0  0  0  0  0  0  0  0
   10.7114  -17.6049   25.6522 C   0  0  0  0  0  0  0  0  0  0  0  0
   10.6682  -18.6622   24.9548 O   0  0  0  0  0  0  0  0  0  0  0  0
    9.0623  -13.9649   26.7573 C   0  0  0  0  0  0  0  0  0  0  0  0
    8.5220  -12.6976   26.7669 C   0  0  0  0  0  0  0  0  0  0  0  0
   11.6842  -17.5538   26.6181 O   0  0  0  0  0  0  0  0  0  0  0  0
  2  1  1  6
  3  2  1  0
  4  3  1  0
  5  6  2  0
  5  2  1  0
  7  5  1  0
  8  7  1  0
  8  9  1  1
 10  9  1  0
 10 11  2  0
 12 11  1  0
 13 12  2  0
 14 15  2  0
 14 13  1  0
 15 10  1  0
 16  8  1  0
 17 16  2  0
 19 29  2  0
 19 18  1  0
 20 19  1  0
 21 22  1  0
 21 20  2  0
 22 28  2  0
 23 22  1  0
 24 23  1  1
 24 25  1  0
 25 16  1  0
 26 24  1  0
 26 30  1  0
 27 26  2  0
 28 29  1  0
M  END
$$$$
