CFY.pdb
     RDKit          3D

 30 31  0  0  1  0  0  0  0  0999 V2000
   10.7988  -16.4082   19.4090 N   0  0  0  0  0  0  0  0  0  0  0  0
    9.5826  -16.6157   20.1334 C   0  0  1  0  0  0  0  0  0  0  0  0
    9.3458  -18.0795   20.4648 C   0  0  0  0  0  0  0  0  0  0  0  0
    9.2574  -19.1037   18.9935 S   0  0  0  0  0  0  0  0  0  0  0  0
    9.5769  -15.8779   21.4407 C   0  0  0  0  0  0  0  0  0  0  0  0
   10.6503  -15.8388   22.0965 O   0  0  0  0  0  0  0  0  0  0  0  0
    8.4022  -15.2555   21.9047 N   0  0  0  0  0  0  0  0  0  0  0  0
    8.3750  -14.7955   23.3192 C   0  0  1  0  0  0  0  0  0  0  0  0
    7.2369  -13.8499   23.4856 C   0  0  0  0  0  0  0  0  0  0  0  0
    7.1024  -13.1854   24.7842 C   0  0  0  0  0  0  0  0  0  0  0  0
    6.1875  -13.6754   25.7314 C   0  0  0  0  0  0  0  0  0  0  0  0
    6.0534  -13.1220   26.9711 C   0  0  0  0  0  0  0  0  0  0  0  0
    6.8223  -12.0413   27.3524 C   0  0  0  0  0  0  0  0  0  0  0  0
    7.7177  -11.5409   26.4615 C   0  0  0  0  0  0  0  0  0  0  0  0
    7.8447  -12.1090   25.2095 C   0  0  0  0  0  0  0  0  0  0  0  0
    8.2176  -16.0156   24.1102 C   0  0  0  0  0  0  0  0  0  0  0  0
    7.8999  -17.0957   23.5027 O   0  0  0  0  0  0  0  0  0  0  0  0
   15.8456  -17.4697   26.8666 O   0  0  0  0  0  0  0  0  0  0  0  0
   14.5796  -17.0669   26.4482 C   0  0  0  0  0  0  0  0  0  0  0  0
   13.8615  -16.2341   27.3016 C   0  0  0  0  0  0  0  0  0  0  0  0
   12.6048  -15.8086   26.9326 C   0  0  0  0  0  0  0  0  0  0  0  0
   12.0715  -16.2071   25.7313 C   0  0  0  0  0  0  0  0  0  0  0  0
   10.7353  -15.7611   25.3357 C   0  0  0  0  0  0  0  0  0  0  0  0
    9.6681  -16.6630   25.9747 C   0  0  2  0  0  0  0  0  0  0  0  0
    8.4014  -16.0837   25.4988 N   0  0  0  0  0  0  0  0  0  0  0  0
    9.7190  -16.6411   27.4168 C   0  0  0  0  0  0  0  0  0  0  0  0
    9.8438  -17.7132   28.0809 O   0  0  0  0  0  0  0  0  0  0  0  0
   12.7730  -17.0406   24.8614 C   0  0  0  0  0  0  0  0  0  0  0  0
   14.0285  -17.4560   25.2476 C   0  0  0  0  0  0  0  0  0  0  0  0
    9.6387  -15.4813   28.1451 O   0  0  0  0  0  0  0  0  0  0  0  0
  2  1  1  1
  3  2  1  0
  4  3  1  0
  5  6  2  0
  5  2  1  0
  7  5  1  0
  8  7  1  0
  8  9  1  6
 10  9  1  0
 10 11  2  0
 12 11  1  0
 13 12  2  0
 14 15  2  0
 14 13  1  0
 15 10  1  0
 16  8  1  0
 17 16  2  0
 19 29  2  0
 19 18  1  0
 20 19  1  0
 21 22  1  0
 21 20  2  0
 22 28  2  0
 23 22  1  0
 24 23  1  6
 24 25  1  0
 25 16  1  0
 26 24  1  0
 26 30  1  0
 27 26  2  0
 28 29  1  0
M  END
$$$$
