CFY.pdb
     RDKit          3D

 30 31  0  0  1  0  0  0  0  0999 V2000
    9.6423  -16.8941   18.1227 N   0  0  0  0  0  0  0  0  0  0  0  0
    9.0227  -17.3729   19.3202 C   0  0  1  0  0  0  0  0  0  0  0  0
    9.6105  -18.6922   19.7915 C   0  0  0  0  0  0  0  0  0  0  0  0
    9.5733  -19.9491   18.5106 S   0  0  0  0  0  0  0  0  0  0  0  0
    9.1818  -16.4064   20.4577 C   0  0  0  0  0  0  0  0  0  0  0  0
   10.2581  -15.7584   20.5302 O   0  0  0  0  0  0  0  0  0  0  0  0
    8.1525  -16.2414   21.4042 N   0  0  0  0  0  0  0  0  0  0  0  0
    8.3474  -15.2196   22.4678 C   0  0  1  0  0  0  0  0  0  0  0  0
    7.0214  -14.9040   23.0672 C   0  0  0  0  0  0  0  0  0  0  0  0
    7.0056  -14.0027   24.2218 C   0  0  0  0  0  0  0  0  0  0  0  0
    6.4952  -14.4486   25.4527 C   0  0  0  0  0  0  0  0  0  0  0  0
    6.4967  -13.6661   26.5702 C   0  0  0  0  0  0  0  0  0  0  0  0
    7.0074  -12.3845   26.5380 C   0  0  0  0  0  0  0  0  0  0  0  0
    7.5094  -11.9199   25.3641 C   0  0  0  0  0  0  0  0  0  0  0  0
    7.5025  -12.7207   24.2394 C   0  0  0  0  0  0  0  0  0  0  0  0
    9.2671  -15.8384   23.4220 C   0  0  0  0  0  0  0  0  0  0  0  0
    8.9098  -16.9277   23.9898 O   0  0  0  0  0  0  0  0  0  0  0  0
   10.8803  -15.9173   31.4154 O   0  0  0  0  0  0  0  0  0  0  0  0
   10.6103  -15.6913   30.0678 C   0  0  0  0  0  0  0  0  0  0  0  0
   10.1580  -16.7737   29.3185 C   0  0  0  0  0  0  0  0  0  0  0  0
    9.8771  -16.6009   27.9814 C   0  0  0  0  0  0  0  0  0  0  0  0
   10.0446  -15.3681   27.3996 C   0  0  0  0  0  0  0  0  0  0  0  0
    9.7513  -15.1795   25.9786 C   0  0  0  0  0  0  0  0  0  0  0  0
   10.9889  -15.5222   25.1351 C   0  0  2  0  0  0  0  0  0  0  0  0
   10.5271  -15.3190   23.7523 N   0  0  0  0  0  0  0  0  0  0  0  0
   11.4243  -16.8852   25.3232 C   0  0  0  0  0  0  0  0  0  0  0  0
   12.4046  -17.1579   26.0786 O   0  0  0  0  0  0  0  0  0  0  0  0
   10.4963  -14.2706   28.1311 C   0  0  0  0  0  0  0  0  0  0  0  0
   10.7720  -14.4627   29.4672 C   0  0  0  0  0  0  0  0  0  0  0  0
   10.8157  -17.9505   24.7095 O   0  0  0  0  0  0  0  0  0  0  0  0
  2  1  1  6
  3  2  1  0
  4  3  1  0
  5  6  2  0
  5  2  1  0
  7  5  1  0
  8  7  1  0
  8  9  1  1
 10  9  1  0
 10 11  2  0
 12 11  1  0
 13 12  2  0
 14 15  2  0
 14 13  1  0
 15 10  1  0
 16  8  1  0
 17 16  2  0
 19 29  2  0
 19 18  1  0
 20 19  1  0
 21 22  1  0
 21 20  2  0
 22 28  2  0
 23 22  1  0
 24 23  1  1
 24 25  1  0
 25 16  1  0
 26 24  1  0
 26 30  1  0
 27 26  2  0
 28 29  1  0
M  END
$$$$
