CFY.pdb
     RDKit          3D

 30 31  0  0  1  0  0  0  0  0999 V2000
    6.1683  -18.2269   22.8629 N   0  0  0  0  0  0  0  0  0  0  0  0
    6.6229  -17.4160   21.7753 C   0  0  1  0  0  0  0  0  0  0  0  0
    5.4835  -16.7070   21.0628 C   0  0  0  0  0  0  0  0  0  0  0  0
    4.1266  -17.8175   20.6786 S   0  0  0  0  0  0  0  0  0  0  0  0
    7.5693  -16.3446   22.2335 C   0  0  0  0  0  0  0  0  0  0  0  0
    8.1208  -15.6341   21.3534 O   0  0  0  0  0  0  0  0  0  0  0  0
    7.8215  -16.1531   23.6054 N   0  0  0  0  0  0  0  0  0  0  0  0
    8.7867  -15.0883   23.9898 C   0  0  1  0  0  0  0  0  0  0  0  0
    8.3985  -14.5602   25.3268 C   0  0  0  0  0  0  0  0  0  0  0  0
    7.4422  -13.4510   25.3571 C   0  0  0  0  0  0  0  0  0  0  0  0
    6.3166  -13.5181   26.1954 C   0  0  0  0  0  0  0  0  0  0  0  0
    5.4185  -12.4960   26.2951 C   0  0  0  0  0  0  0  0  0  0  0  0
    5.5805  -11.3358   25.5656 C   0  0  0  0  0  0  0  0  0  0  0  0
    6.6580  -11.2361   24.7441 C   0  0  0  0  0  0  0  0  0  0  0  0
    7.5603  -12.2770   24.6511 C   0  0  0  0  0  0  0  0  0  0  0  0
   10.0924  -15.7474   23.9988 C   0  0  0  0  0  0  0  0  0  0  0  0
   11.1172  -15.0683   23.6451 O   0  0  0  0  0  0  0  0  0  0  0  0
   10.4486  -14.7168   30.4240 O   0  0  0  0  0  0  0  0  0  0  0  0
   10.6721  -15.6237   29.3908 C   0  0  0  0  0  0  0  0  0  0  0  0
   10.8471  -15.1021   28.1121 C   0  0  0  0  0  0  0  0  0  0  0  0
   11.0711  -15.9583   27.0570 C   0  0  0  0  0  0  0  0  0  0  0  0
   11.1198  -17.3139   27.2726 C   0  0  0  0  0  0  0  0  0  0  0  0
   11.3538  -18.2285   26.1548 C   0  0  0  0  0  0  0  0  0  0  0  0
   11.6413  -17.4314   24.8731 C   0  0  2  0  0  0  0  0  0  0  0  0
   10.2992  -17.0809   24.3802 N   0  0  0  0  0  0  0  0  0  0  0  0
   12.3501  -18.2104   23.8865 C   0  0  0  0  0  0  0  0  0  0  0  0
   13.5435  -18.5866   24.0876 O   0  0  0  0  0  0  0  0  0  0  0  0
   10.9473  -17.8577   28.5446 C   0  0  0  0  0  0  0  0  0  0  0  0
   10.7244  -16.9856   29.5877 C   0  0  0  0  0  0  0  0  0  0  0  0
   11.7876  -18.5867   22.6932 O   0  0  0  0  0  0  0  0  0  0  0  0
  2  1  1  1
  3  2  1  0
  4  3  1  0
  5  6  2  0
  5  2  1  0
  7  5  1  0
  8  7  1  0
  8  9  1  1
 10  9  1  0
 10 11  2  0
 12 11  1  0
 13 12  2  0
 14 15  2  0
 14 13  1  0
 15 10  1  0
 16  8  1  0
 17 16  2  0
 19 29  2  0
 19 18  1  0
 20 19  1  0
 21 22  1  0
 21 20  2  0
 22 28  2  0
 23 22  1  0
 24 23  1  1
 24 25  1  0
 25 16  1  0
 26 24  1  0
 26 30  1  0
 27 26  2  0
 28 29  1  0
M  END
$$$$
