CFY.pdb
     RDKit          3D

 30 31  0  0  1  0  0  0  0  0999 V2000
    9.7282  -17.0265   18.5901 N   0  0  0  0  0  0  0  0  0  0  0  0
    9.1505  -17.3966   19.8456 C   0  0  1  0  0  0  0  0  0  0  0  0
    9.8153  -18.6202   20.4534 C   0  0  0  0  0  0  0  0  0  0  0  0
    9.8549  -20.0077   19.3155 S   0  0  0  0  0  0  0  0  0  0  0  0
    9.2708  -16.2988   20.8624 C   0  0  0  0  0  0  0  0  0  0  0  0
   10.2121  -15.4747   20.7268 O   0  0  0  0  0  0  0  0  0  0  0  0
    8.3535  -16.2072   21.9267 N   0  0  0  0  0  0  0  0  0  0  0  0
    8.4975  -15.0643   22.8682 C   0  0  1  0  0  0  0  0  0  0  0  0
    7.1775  -14.8124   23.5093 C   0  0  0  0  0  0  0  0  0  0  0  0
    7.1304  -13.8061   24.5728 C   0  0  0  0  0  0  0  0  0  0  0  0
    7.6424  -12.5180   24.3427 C   0  0  0  0  0  0  0  0  0  0  0  0
    7.5844  -11.5307   25.2824 C   0  0  0  0  0  0  0  0  0  0  0  0
    7.0118  -11.7593   26.5171 C   0  0  0  0  0  0  0  0  0  0  0  0
    6.5063  -12.9939   26.7745 C   0  0  0  0  0  0  0  0  0  0  0  0
    6.5707  -13.9855   25.8159 C   0  0  0  0  0  0  0  0  0  0  0  0
    9.5194  -15.4891   23.8245 C   0  0  0  0  0  0  0  0  0  0  0  0
    9.6947  -14.7848   24.8779 O   0  0  0  0  0  0  0  0  0  0  0  0
   10.4123  -14.1153   30.3473 O   0  0  0  0  0  0  0  0  0  0  0  0
   10.3013  -14.9361   29.2276 C   0  0  0  0  0  0  0  0  0  0  0  0
   11.4145  -15.6973   28.8827 C   0  0  0  0  0  0  0  0  0  0  0  0
   11.3543  -16.5247   27.7835 C   0  0  0  0  0  0  0  0  0  0  0  0
   10.2022  -16.5926   27.0390 C   0  0  0  0  0  0  0  0  0  0  0  0
   10.1337  -17.4672   25.8680 C   0  0  0  0  0  0  0  0  0  0  0  0
   11.1575  -17.0178   24.8141 C   0  0  2  0  0  0  0  0  0  0  0  0
   10.3199  -16.6298   23.6675 N   0  0  0  0  0  0  0  0  0  0  0  0
   12.0629  -18.0768   24.4381 C   0  0  0  0  0  0  0  0  0  0  0  0
   13.2109  -18.1711   24.9666 O   0  0  0  0  0  0  0  0  0  0  0  0
    9.0757  -15.8393   27.3662 C   0  0  0  0  0  0  0  0  0  0  0  0
    9.1547  -15.0175   28.4692 C   0  0  0  0  0  0  0  0  0  0  0  0
   11.7439  -19.0301   23.5046 O   0  0  0  0  0  0  0  0  0  0  0  0
  2  1  1  6
  3  2  1  0
  4  3  1  0
  5  6  2  0
  5  2  1  0
  7  5  1  0
  8  7  1  0
  8  9  1  1
 10  9  1  0
 10 11  2  0
 12 11  1  0
 13 12  2  0
 14 15  2  0
 14 13  1  0
 15 10  1  0
 16  8  1  0
 17 16  2  0
 19 29  2  0
 19 18  1  0
 20 19  1  0
 21 22  1  0
 21 20  2  0
 22 28  2  0
 23 22  1  0
 24 23  1  1
 24 25  1  0
 25 16  1  0
 26 24  1  0
 26 30  1  0
 27 26  2  0
 28 29  1  0
M  END
$$$$
