CFY.pdb
     RDKit          3D

 30 31  0  0  1  0  0  0  0  0999 V2000
    6.4721  -14.9631   19.6538 N   0  0  0  0  0  0  0  0  0  0  0  0
    6.8176  -15.8781   20.6981 C   0  0  1  0  0  0  0  0  0  0  0  0
    7.4690  -17.1448   20.1692 C   0  0  0  0  0  0  0  0  0  0  0  0
    7.8774  -18.2982   21.4825 S   0  0  0  0  0  0  0  0  0  0  0  0
    7.7887  -15.2757   21.6715 C   0  0  0  0  0  0  0  0  0  0  0  0
    8.7284  -14.5793   21.2071 O   0  0  0  0  0  0  0  0  0  0  0  0
    7.6401  -15.4915   23.0549 N   0  0  0  0  0  0  0  0  0  0  0  0
    8.5987  -14.8129   23.9682 C   0  0  1  0  0  0  0  0  0  0  0  0
    7.9553  -14.6671   25.3031 C   0  0  0  0  0  0  0  0  0  0  0  0
    7.3791  -13.3605   25.6298 C   0  0  0  0  0  0  0  0  0  0  0  0
    6.0860  -13.2804   26.1735 C   0  0  0  0  0  0  0  0  0  0  0  0
    5.5187  -12.0939   26.5364 C   0  0  0  0  0  0  0  0  0  0  0  0
    6.2017  -10.9047   26.3822 C   0  0  0  0  0  0  0  0  0  0  0  0
    7.4550  -10.9442   25.8592 C   0  0  0  0  0  0  0  0  0  0  0  0
    8.0190  -12.1509   25.4953 C   0  0  0  0  0  0  0  0  0  0  0  0
    9.7731  -15.6841   23.9980 C   0  0  0  0  0  0  0  0  0  0  0  0
    9.5948  -16.9466   23.8935 O   0  0  0  0  0  0  0  0  0  0  0  0
   10.7166  -15.3042   30.7929 O   0  0  0  0  0  0  0  0  0  0  0  0
   10.8389  -15.7991   29.4968 C   0  0  0  0  0  0  0  0  0  0  0  0
   10.8435  -14.8719   28.4586 C   0  0  0  0  0  0  0  0  0  0  0  0
   10.9622  -15.3118   27.1590 C   0  0  0  0  0  0  0  0  0  0  0  0
   11.0746  -16.6555   26.8978 C   0  0  0  0  0  0  0  0  0  0  0  0
   11.1973  -17.1289   25.5188 C   0  0  0  0  0  0  0  0  0  0  0  0
   12.0694  -16.1606   24.7049 C   0  0  2  0  0  0  0  0  0  0  0  0
   11.0919  -15.2247   24.1257 N   0  0  0  0  0  0  0  0  0  0  0  0
   12.8055  -16.8281   23.6584 C   0  0  0  0  0  0  0  0  0  0  0  0
   13.8142  -17.5466   23.9275 O   0  0  0  0  0  0  0  0  0  0  0  0
   11.0724  -17.6013   27.9220 C   0  0  0  0  0  0  0  0  0  0  0  0
   10.9528  -17.1424   29.2155 C   0  0  0  0  0  0  0  0  0  0  0  0
   12.4658  -16.7302   22.3329 O   0  0  0  0  0  0  0  0  0  0  0  0
  2  1  1  6
  3  2  1  0
  4  3  1  0
  5  6  2  0
  5  2  1  0
  7  5  1  0
  8  7  1  0
  8  9  1  1
 10  9  1  0
 10 11  2  0
 12 11  1  0
 13 12  2  0
 14 15  2  0
 14 13  1  0
 15 10  1  0
 16  8  1  0
 17 16  2  0
 19 29  2  0
 19 18  1  0
 20 19  1  0
 21 22  1  0
 21 20  2  0
 22 28  2  0
 23 22  1  0
 24 23  1  6
 24 25  1  0
 25 16  1  0
 26 24  1  0
 26 30  1  0
 27 26  2  0
 28 29  1  0
M  END
$$$$
