CFY.pdb
     RDKit          3D

 30 31  0  0  1  0  0  0  0  0999 V2000
   10.5550  -16.3018   18.1548 N   0  0  0  0  0  0  0  0  0  0  0  0
    9.4833  -16.7218   19.0046 C   0  0  1  0  0  0  0  0  0  0  0  0
    9.4939  -18.2201   19.2565 C   0  0  0  0  0  0  0  0  0  0  0  0
   11.0046  -18.7636   20.0591 S   0  0  0  0  0  0  0  0  0  0  0  0
    9.5472  -16.0641   20.3525 C   0  0  0  0  0  0  0  0  0  0  0  0
   10.6528  -15.5900   20.7217 O   0  0  0  0  0  0  0  0  0  0  0  0
    8.3999  -15.9879   21.1653 N   0  0  0  0  0  0  0  0  0  0  0  0
    8.5120  -15.2528   22.4538 C   0  0  1  0  0  0  0  0  0  0  0  0
    7.1518  -14.8039   22.8605 C   0  0  0  0  0  0  0  0  0  0  0  0
    7.0400  -14.0588   24.1167 C   0  0  0  0  0  0  0  0  0  0  0  0
    6.5110  -14.6841   25.2584 C   0  0  0  0  0  0  0  0  0  0  0  0
    6.4248  -14.0510   26.4638 C   0  0  0  0  0  0  0  0  0  0  0  0
    6.8602  -12.7501   26.6144 C   0  0  0  0  0  0  0  0  0  0  0  0
    7.3775  -12.1140   25.5311 C   0  0  0  0  0  0  0  0  0  0  0  0
    7.4597  -12.7646   24.3160 C   0  0  0  0  0  0  0  0  0  0  0  0
    9.0934  -16.2158   23.3886 C   0  0  0  0  0  0  0  0  0  0  0  0
    8.8653  -17.4601   23.1978 O   0  0  0  0  0  0  0  0  0  0  0  0
    9.8996  -14.4756   30.7582 O   0  0  0  0  0  0  0  0  0  0  0  0
   10.3952  -14.9230   29.5359 C   0  0  0  0  0  0  0  0  0  0  0  0
   10.4170  -14.0107   28.4848 C   0  0  0  0  0  0  0  0  0  0  0  0
   10.8981  -14.4053   27.2562 C   0  0  0  0  0  0  0  0  0  0  0  0
   11.3505  -15.6897   27.0775 C   0  0  0  0  0  0  0  0  0  0  0  0
   11.8592  -16.1156   25.7735 C   0  0  0  0  0  0  0  0  0  0  0  0
   10.7813  -16.9115   25.0216 C   0  0  2  0  0  0  0  0  0  0  0  0
    9.8971  -15.8651   24.4830 N   0  0  0  0  0  0  0  0  0  0  0  0
   10.0414  -17.7948   25.8905 C   0  0  0  0  0  0  0  0  0  0  0  0
   10.6001  -18.7953   26.4316 O   0  0  0  0  0  0  0  0  0  0  0  0
   11.3378  -16.6196   28.1162 C   0  0  0  0  0  0  0  0  0  0  0  0
   10.8531  -16.2066   29.3379 C   0  0  0  0  0  0  0  0  0  0  0  0
    8.7134  -17.6101   26.1808 O   0  0  0  0  0  0  0  0  0  0  0  0
  2  1  1  6
  3  2  1  0
  4  3  1  0
  5  6  2  0
  5  2  1  0
  7  5  1  0
  8  7  1  0
  8  9  1  1
 10  9  1  0
 10 11  2  0
 12 11  1  0
 13 12  2  0
 14 15  2  0
 14 13  1  0
 15 10  1  0
 16  8  1  0
 17 16  2  0
 19 29  2  0
 19 18  1  0
 20 19  1  0
 21 22  1  0
 21 20  2  0
 22 28  2  0
 23 22  1  0
 24 23  1  1
 24 25  1  0
 25 16  1  0
 26 24  1  0
 26 30  1  0
 27 26  2  0
 28 29  1  0
M  END
$$$$
