CFY.pdb
     RDKit          3D

 30 31  0  0  1  0  0  0  0  0999 V2000
    9.3386  -17.5701   18.7667 N   0  0  0  0  0  0  0  0  0  0  0  0
    8.6460  -17.7766   20.0014 C   0  0  1  0  0  0  0  0  0  0  0  0
    9.0803  -19.0510   20.7056 C   0  0  0  0  0  0  0  0  0  0  0  0
   10.8441  -19.0764   21.0378 S   0  0  0  0  0  0  0  0  0  0  0  0
    8.8821  -16.6545   20.9702 C   0  0  0  0  0  0  0  0  0  0  0  0
    9.9269  -15.9675   20.8282 O   0  0  0  0  0  0  0  0  0  0  0  0
    7.9565  -16.3915   21.9982 N   0  0  0  0  0  0  0  0  0  0  0  0
    8.1877  -15.1922   22.8476 C   0  0  1  0  0  0  0  0  0  0  0  0
    6.8763  -14.7343   23.3838 C   0  0  0  0  0  0  0  0  0  0  0  0
    6.9010  -13.7023   24.4231 C   0  0  0  0  0  0  0  0  0  0  0  0
    6.2637  -13.9313   25.6543 C   0  0  0  0  0  0  0  0  0  0  0  0
    6.2931  -13.0230   26.6717 C   0  0  0  0  0  0  0  0  0  0  0  0
    6.9601  -11.8229   26.5321 C   0  0  0  0  0  0  0  0  0  0  0  0
    7.5878  -11.5674   25.3545 C   0  0  0  0  0  0  0  0  0  0  0  0
    7.5512  -12.4942   24.3316 C   0  0  0  0  0  0  0  0  0  0  0  0
    9.1019  -15.6429   23.8965 C   0  0  0  0  0  0  0  0  0  0  0  0
    8.7263  -16.5989   24.6590 O   0  0  0  0  0  0  0  0  0  0  0  0
   11.4834  -16.3782   31.6235 O   0  0  0  0  0  0  0  0  0  0  0  0
   11.0572  -16.2588   30.3029 C   0  0  0  0  0  0  0  0  0  0  0  0
   11.0767  -14.9860   29.7397 C   0  0  0  0  0  0  0  0  0  0  0  0
   10.6647  -14.8163   28.4366 C   0  0  0  0  0  0  0  0  0  0  0  0
   10.2395  -15.8986   27.7057 C   0  0  0  0  0  0  0  0  0  0  0  0
    9.7972  -15.7237   26.3220 C   0  0  0  0  0  0  0  0  0  0  0  0
   10.9945  -15.3682   25.4271 C   0  0  2  0  0  0  0  0  0  0  0  0
   10.3755  -15.0994   24.1188 N   0  0  0  0  0  0  0  0  0  0  0  0
   11.9435  -16.4501   25.3200 C   0  0  0  0  0  0  0  0  0  0  0  0
   13.0594  -16.3998   25.9186 O   0  0  0  0  0  0  0  0  0  0  0  0
   10.2118  -17.1819   28.2496 C   0  0  0  0  0  0  0  0  0  0  0  0
   10.6277  -17.3321   29.5545 C   0  0  0  0  0  0  0  0  0  0  0  0
   11.7017  -17.5793   24.5795 O   0  0  0  0  0  0  0  0  0  0  0  0
  2  1  1  6
  3  2  1  0
  4  3  1  0
  5  6  2  0
  5  2  1  0
  7  5  1  0
  8  7  1  0
  8  9  1  1
 10  9  1  0
 10 11  2  0
 12 11  1  0
 13 12  2  0
 14 15  2  0
 14 13  1  0
 15 10  1  0
 16  8  1  0
 17 16  2  0
 19 29  2  0
 19 18  1  0
 20 19  1  0
 21 22  1  0
 21 20  2  0
 22 28  2  0
 23 22  1  0
 24 23  1  1
 24 25  1  0
 25 16  1  0
 26 24  1  0
 26 30  1  0
 27 26  2  0
 28 29  1  0
M  END
$$$$
