CFY.pdb
     RDKit          3D

 30 31  0  0  1  0  0  0  0  0999 V2000
   11.5536  -16.2746   20.3044 N   0  0  0  0  0  0  0  0  0  0  0  0
   10.3323  -16.6039   20.9731 C   0  0  1  0  0  0  0  0  0  0  0  0
   10.2746  -18.0630   21.3931 C   0  0  0  0  0  0  0  0  0  0  0  0
   11.3139  -19.1070   20.3675 S   0  0  0  0  0  0  0  0  0  0  0  0
   10.1426  -15.7944   22.2230 C   0  0  0  0  0  0  0  0  0  0  0  0
   11.1644  -15.2853   22.7524 O   0  0  0  0  0  0  0  0  0  0  0  0
    8.8582  -15.6194   22.7726 N   0  0  0  0  0  0  0  0  0  0  0  0
    8.7398  -14.7984   24.0077 C   0  0  1  0  0  0  0  0  0  0  0  0
    7.3538  -14.2597   24.0846 C   0  0  0  0  0  0  0  0  0  0  0  0
    7.0067  -13.4704   25.2688 C   0  0  0  0  0  0  0  0  0  0  0  0
    7.5533  -12.1876   25.4416 C   0  0  0  0  0  0  0  0  0  0  0  0
    7.2302  -11.3931   26.5025 C   0  0  0  0  0  0  0  0  0  0  0  0
    6.3393  -11.8227   27.4650 C   0  0  0  0  0  0  0  0  0  0  0  0
    5.7911  -13.0585   27.3302 C   0  0  0  0  0  0  0  0  0  0  0  0
    6.1256  -13.8539   26.2524 C   0  0  0  0  0  0  0  0  0  0  0  0
    9.0519  -15.7164   25.1027 C   0  0  0  0  0  0  0  0  0  0  0  0
    9.0102  -16.9738   24.8708 O   0  0  0  0  0  0  0  0  0  0  0  0
   13.2307  -20.7531   23.8985 O   0  0  0  0  0  0  0  0  0  0  0  0
   12.8782  -19.5197   24.4412 C   0  0  0  0  0  0  0  0  0  0  0  0
   11.8487  -19.5066   25.3779 C   0  0  0  0  0  0  0  0  0  0  0  0
   11.4636  -18.3114   25.9434 C   0  0  0  0  0  0  0  0  0  0  0  0
   12.0947  -17.1467   25.5809 C   0  0  0  0  0  0  0  0  0  0  0  0
   11.6873  -15.8735   26.1756 C   0  0  0  0  0  0  0  0  0  0  0  0
   10.4586  -16.0810   27.0745 C   0  0  2  0  0  0  0  0  0  0  0  0
    9.4050  -15.3079   26.3970 N   0  0  0  0  0  0  0  0  0  0  0  0
   10.6641  -15.5826   28.4131 C   0  0  0  0  0  0  0  0  0  0  0  0
   11.4280  -16.1873   29.2236 O   0  0  0  0  0  0  0  0  0  0  0  0
   13.1280  -17.1367   24.6450 C   0  0  0  0  0  0  0  0  0  0  0  0
   13.4995  -18.3419   24.0902 C   0  0  0  0  0  0  0  0  0  0  0  0
   10.0587  -14.4448   28.8829 O   0  0  0  0  0  0  0  0  0  0  0  0
  2  1  1  1
  3  2  1  0
  4  3  1  0
  5  6  2  0
  5  2  1  0
  7  5  1  0
  8  7  1  0
  8  9  1  1
 10  9  1  0
 10 11  2  0
 12 11  1  0
 13 12  2  0
 14 15  2  0
 14 13  1  0
 15 10  1  0
 16  8  1  0
 17 16  2  0
 19 29  2  0
 19 18  1  0
 20 19  1  0
 21 22  1  0
 21 20  2  0
 22 28  2  0
 23 22  1  0
 24 23  1  6
 24 25  1  0
 25 16  1  0
 26 24  1  0
 26 30  1  0
 27 26  2  0
 28 29  1  0
M  END
$$$$
