CFY.pdb
     RDKit          3D

 30 31  0  0  1  0  0  0  0  0999 V2000
    7.9365  -19.3522   28.0154 N   0  0  0  0  0  0  0  0  0  0  0  0
    8.3825  -18.0397   27.6613 C   0  0  1  0  0  0  0  0  0  0  0  0
    9.8856  -17.9738   27.4493 C   0  0  0  0  0  0  0  0  0  0  0  0
   10.7999  -18.5520   28.8817 S   0  0  0  0  0  0  0  0  0  0  0  0
    7.7524  -17.5593   26.3863 C   0  0  0  0  0  0  0  0  0  0  0  0
    6.9981  -18.3554   25.7690 O   0  0  0  0  0  0  0  0  0  0  0  0
    8.0063  -16.2590   25.9096 N   0  0  0  0  0  0  0  0  0  0  0  0
    7.2718  -15.8110   24.6959 C   0  0  1  0  0  0  0  0  0  0  0  0
    7.4725  -14.3441   24.5379 C   0  0  0  0  0  0  0  0  0  0  0  0
    7.0959  -13.4910   25.6677 C   0  0  0  0  0  0  0  0  0  0  0  0
    7.8224  -12.3181   25.9336 C   0  0  0  0  0  0  0  0  0  0  0  0
    7.4882  -11.4657   26.9449 C   0  0  0  0  0  0  0  0  0  0  0  0
    6.4061  -11.7238   27.7616 C   0  0  0  0  0  0  0  0  0  0  0  0
    5.6805  -12.8496   27.5336 C   0  0  0  0  0  0  0  0  0  0  0  0
    6.0282  -13.7051   26.5072 C   0  0  0  0  0  0  0  0  0  0  0  0
    7.8515  -16.5831   23.5972 C   0  0  0  0  0  0  0  0  0  0  0  0
    7.2320  -17.6286   23.1974 O   0  0  0  0  0  0  0  0  0  0  0  0
    8.9246  -11.5154   18.7637 O   0  0  0  0  0  0  0  0  0  0  0  0
    8.8051  -12.8131   19.2554 C   0  0  0  0  0  0  0  0  0  0  0  0
    7.5272  -13.2530   19.5886 C   0  0  0  0  0  0  0  0  0  0  0  0
    7.3571  -14.5286   20.0790 C   0  0  0  0  0  0  0  0  0  0  0  0
    8.4441  -15.3535   20.2351 C   0  0  0  0  0  0  0  0  0  0  0  0
    8.2698  -16.7084   20.7591 C   0  0  0  0  0  0  0  0  0  0  0  0
    9.3956  -17.0386   21.7512 C   0  0  2  0  0  0  0  0  0  0  0  0
    9.0449  -16.2473   22.9418 N   0  0  0  0  0  0  0  0  0  0  0  0
   10.6959  -16.6531   21.2580 C   0  0  0  0  0  0  0  0  0  0  0  0
   11.2118  -17.2340   20.2568 O   0  0  0  0  0  0  0  0  0  0  0  0
    9.7326  -14.9337   19.9078 C   0  0  0  0  0  0  0  0  0  0  0  0
    9.8830  -13.6545   19.4187 C   0  0  0  0  0  0  0  0  0  0  0  0
   11.4402  -15.6524   21.8297 O   0  0  0  0  0  0  0  0  0  0  0  0
  2  1  1  6
  3  2  1  0
  4  3  1  0
  5  6  2  0
  5  2  1  0
  7  5  1  0
  8  7  1  0
  8  9  1  6
 10  9  1  0
 10 11  2  0
 12 11  1  0
 13 12  2  0
 14 15  2  0
 14 13  1  0
 15 10  1  0
 16  8  1  0
 17 16  2  0
 19 29  2  0
 19 18  1  0
 20 19  1  0
 21 22  1  0
 21 20  2  0
 22 28  2  0
 23 22  1  0
 24 23  1  6
 24 25  1  0
 25 16  1  0
 26 24  1  0
 26 30  1  0
 27 26  2  0
 28 29  1  0
M  END
$$$$
