VYL.pdb
     RDKit          3D

 28 28  0  0  1  0  0  0  0  0999 V2000
   35.1238  -37.8171   -9.6242 C   0  0  0  0  0  0  0  0  0  0  0  0
   34.0147  -36.8479   -9.2971 C   0  0  2  0  0  0  0  0  0  0  0  0
   34.6505  -35.6014   -8.7159 C   0  0  0  0  0  0  0  0  0  0  0  0
   33.0819  -37.3996   -8.2393 C   0  0  2  0  0  0  0  0  0  0  0  0
   32.4250  -38.5850   -8.7566 N   0  0  0  0  0  0  0  0  0  0  0  0
   32.0705  -36.3819   -7.8241 C   0  0  0  0  0  0  0  0  0  0  0  0
   32.4274  -35.3109   -7.2533 O   0  0  0  0  0  0  0  0  0  0  0  0
   24.5429  -31.7568   -7.6357 O   0  0  0  0  0  0  0  0  0  0  0  0
   25.5393  -32.6924   -7.9075 C   0  0  0  0  0  0  0  0  0  0  0  0
   26.6277  -32.4104   -8.7046 C   0  0  0  0  0  0  0  0  0  0  0  0
   27.5900  -33.3773   -8.9429 C   0  0  0  0  0  0  0  0  0  0  0  0
   27.5004  -34.6479   -8.3987 C   0  0  0  0  0  0  0  0  0  0  0  0
   28.5542  -35.6304   -8.6889 C   0  0  0  0  0  0  0  0  0  0  0  0
   29.6903  -35.5773   -7.6756 C   0  0  2  0  0  0  0  0  0  0  0  0
   30.6831  -36.5536   -8.0408 N   0  0  0  0  0  0  0  0  0  0  0  0
   29.0664  -35.8778   -6.3599 C   0  0  0  0  0  0  0  0  0  0  0  0
   28.6141  -37.0361   -6.1842 O   0  0  0  0  0  0  0  0  0  0  0  0
   26.4149  -34.9241   -7.6057 C   0  0  0  0  0  0  0  0  0  0  0  0
   25.4462  -33.9642   -7.3607 C   0  0  0  0  0  0  0  0  0  0  0  0
   30.1539  -37.7025   -2.8868 C   0  0  0  0  0  0  0  0  0  0  0  0
   30.5829  -36.2970   -3.0563 C   0  0  2  0  0  0  0  0  0  0  0  0
   31.7409  -35.9980   -2.0676 C   0  0  0  0  0  0  0  0  0  0  0  0
   29.5799  -35.2139   -3.0133 C   0  0  0  0  0  0  0  0  0  0  0  0
   28.4641  -35.2679   -3.9604 C   0  0  2  0  0  0  0  0  0  0  0  0
   28.9623  -34.9369   -5.3201 N   0  0  0  0  0  0  0  0  0  0  0  0
   27.3644  -34.3565   -3.7140 C   0  0  0  0  0  0  0  0  0  0  0  0
   26.9098  -33.3381   -4.5510 O   0  0  0  0  0  0  0  0  0  0  0  0
   26.7159  -34.4656   -2.5984 O   0  0  0  0  0  0  0  0  0  0  0  0
  2  1  1  1
  3  2  1  0
  4  2  1  0
  4  5  1  6
  6  4  1  0
  6  7  2  0
  8  9  1  0
  9 10  2  0
 10 11  1  0
 12 13  1  0
 12 11  2  0
 14 13  1  6
 14 15  1  0
 15  6  1  0
 16 14  1  0
 17 16  2  0
 18 12  1  0
 19 18  2  0
 19  9  1  0
 21 20  1  1
 21 23  1  0
 22 21  1  0
 24 23  1  1
 24 26  1  0
 24 25  1  0
 25 16  1  0
 26 27  1  0
 28 26  2  0
M  END
$$$$
