VYL.pdb
     RDKit          3D

 28 28  0  0  1  0  0  0  0  0999 V2000
   28.1840  -19.3760  -17.6627 C   0  0  0  0  0  0  0  0  0  0  0  0
   27.4230  -19.0594  -16.3990 C   0  0  2  0  0  0  0  0  0  0  0  0
   27.7483  -17.6308  -16.0126 C   0  0  0  0  0  0  0  0  0  0  0  0
   27.8614  -19.9374  -15.2456 C   0  0  2  0  0  0  0  0  0  0  0  0
   27.7399  -21.3294  -15.6354 N   0  0  0  0  0  0  0  0  0  0  0  0
   27.0523  -19.6663  -14.0198 C   0  0  0  0  0  0  0  0  0  0  0  0
   26.9867  -18.5007  -13.5328 O   0  0  0  0  0  0  0  0  0  0  0  0
   20.6456  -19.0917  -16.1882 O   0  0  0  0  0  0  0  0  0  0  0  0
   21.5134  -19.6097  -15.2287 C   0  0  0  0  0  0  0  0  0  0  0  0
   21.5446  -19.1523  -13.9290 C   0  0  0  0  0  0  0  0  0  0  0  0
   22.4272  -19.7023  -13.0145 C   0  0  0  0  0  0  0  0  0  0  0  0
   23.3016  -20.7187  -13.3623 C   0  0  0  0  0  0  0  0  0  0  0  0
   24.2144  -21.2610  -12.3461 C   0  0  0  0  0  0  0  0  0  0  0  0
   25.4838  -20.4309  -12.2058 C   0  0  2  0  0  0  0  0  0  0  0  0
   26.3272  -20.6772  -13.3461 N   0  0  0  0  0  0  0  0  0  0  0  0
   26.1147  -20.8774  -10.9356 C   0  0  0  0  0  0  0  0  0  0  0  0
   26.6084  -22.0318  -10.9084 O   0  0  0  0  0  0  0  0  0  0  0  0
   23.2669  -21.1708  -14.6576 C   0  0  0  0  0  0  0  0  0  0  0  0
   22.3878  -20.6277  -15.5807 C   0  0  0  0  0  0  0  0  0  0  0  0
   28.1103  -18.6543   -5.5019 C   0  0  0  0  0  0  0  0  0  0  0  0
   28.0325  -19.7473   -6.4957 C   0  0  2  0  0  0  0  0  0  0  0  0
   29.4310  -20.4051   -6.6357 C   0  0  0  0  0  0  0  0  0  0  0  0
   27.4532  -19.4864   -7.8288 C   0  0  0  0  0  0  0  0  0  0  0  0
   26.6964  -20.5608   -8.4752 C   0  0  2  0  0  0  0  0  0  0  0  0
   26.1816  -20.0765   -9.7818 N   0  0  0  0  0  0  0  0  0  0  0  0
   25.5386  -21.0560   -7.7577 C   0  0  0  0  0  0  0  0  0  0  0  0
   25.5113  -22.0638   -6.7943 O   0  0  0  0  0  0  0  0  0  0  0  0
   24.3837  -20.5334   -8.0223 O   0  0  0  0  0  0  0  0  0  0  0  0
  2  1  1  6
  3  2  1  0
  4  2  1  0
  4  5  1  6
  6  4  1  0
  6  7  2  0
  8  9  1  0
  9 10  2  0
 10 11  1  0
 12 13  1  0
 12 11  2  0
 14 13  1  6
 14 15  1  0
 15  6  1  0
 16 14  1  0
 17 16  2  0
 18 12  1  0
 19 18  2  0
 19  9  1  0
 21 20  1  6
 21 23  1  0
 22 21  1  0
 24 23  1  1
 24 26  1  0
 24 25  1  0
 25 16  1  0
 26 27  1  0
 28 26  2  0
M  END
$$$$
