VYL.pdb
     RDKit          3D

 28 28  0  0  1  0  0  0  0  0999 V2000
   23.9337  -22.1890  -18.9673 C   0  0  0  0  0  0  0  0  0  0  0  0
   24.8683  -21.5869  -19.9873 C   0  0  2  0  0  0  0  0  0  0  0  0
   26.2786  -22.0002  -19.6184 C   0  0  0  0  0  0  0  0  0  0  0  0
   24.8316  -20.0733  -19.9567 C   0  0  2  0  0  0  0  0  0  0  0  0
   25.7470  -19.5556  -20.9560 N   0  0  0  0  0  0  0  0  0  0  0  0
   25.1859  -19.5495  -18.6036 C   0  0  0  0  0  0  0  0  0  0  0  0
   26.3800  -19.2420  -18.3214 O   0  0  0  0  0  0  0  0  0  0  0  0
   18.1447  -19.0915  -16.6169 O   0  0  0  0  0  0  0  0  0  0  0  0
   19.4875  -18.7425  -16.4853 C   0  0  0  0  0  0  0  0  0  0  0  0
   20.3055  -18.5093  -17.5697 C   0  0  0  0  0  0  0  0  0  0  0  0
   21.6339  -18.1650  -17.3830 C   0  0  0  0  0  0  0  0  0  0  0  0
   22.1869  -18.0426  -16.1190 C   0  0  0  0  0  0  0  0  0  0  0  0
   23.6034  -17.6742  -15.9865 C   0  0  0  0  0  0  0  0  0  0  0  0
   24.5355  -18.8434  -16.2769 C   0  0  2  0  0  0  0  0  0  0  0  0
   24.2258  -19.3706  -17.5801 N   0  0  0  0  0  0  0  0  0  0  0  0
   24.2822  -19.8338  -15.1972 C   0  0  0  0  0  0  0  0  0  0  0  0
   23.4520  -20.7465  -15.4313 O   0  0  0  0  0  0  0  0  0  0  0  0
   21.3684  -18.2757  -15.0424 C   0  0  0  0  0  0  0  0  0  0  0  0
   20.0379  -18.6208  -15.2176 C   0  0  0  0  0  0  0  0  0  0  0  0
   24.1574  -21.4731   -9.8229 C   0  0  0  0  0  0  0  0  0  0  0  0
   25.4461  -21.3642  -10.5410 C   0  0  2  0  0  0  0  0  0  0  0  0
   26.5643  -21.0120   -9.5244 C   0  0  0  0  0  0  0  0  0  0  0  0
   25.5495  -20.5019  -11.7354 C   0  0  0  0  0  0  0  0  0  0  0  0
   24.6041  -20.7245  -12.8317 C   0  0  2  0  0  0  0  0  0  0  0  0
   24.9214  -19.7939  -13.9454 N   0  0  0  0  0  0  0  0  0  0  0  0
   23.2032  -20.5092  -12.5289 C   0  0  0  0  0  0  0  0  0  0  0  0
   22.5747  -19.2923  -12.2671 O   0  0  0  0  0  0  0  0  0  0  0  0
   22.4214  -21.5402  -12.4785 O   0  0  0  0  0  0  0  0  0  0  0  0
  2  1  1  1
  3  2  1  0
  4  2  1  0
  4  5  1  6
  6  4  1  0
  6  7  2  0
  8  9  1  0
  9 10  2  0
 10 11  1  0
 12 13  1  0
 12 11  2  0
 14 13  1  1
 14 15  1  0
 15  6  1  0
 16 14  1  0
 17 16  2  0
 18 12  1  0
 19 18  2  0
 19  9  1  0
 21 20  1  1
 21 23  1  0
 22 21  1  0
 24 23  1  1
 24 26  1  0
 24 25  1  0
 25 16  1  0
 26 27  1  0
 28 26  2  0
M  END
$$$$
