VYL.pdb
     RDKit          3D

 28 28  0  0  1  0  0  0  0  0999 V2000
   26.2110  -19.2991  -15.9284 C   0  0  0  0  0  0  0  0  0  0  0  0
   27.5543  -18.8409  -15.4164 C   0  0  2  0  0  0  0  0  0  0  0  0
   28.5582  -19.0195  -16.5372 C   0  0  0  0  0  0  0  0  0  0  0  0
   28.0326  -19.6911  -14.2582 C   0  0  2  0  0  0  0  0  0  0  0  0
   28.0972  -21.0773  -14.6812 N   0  0  0  0  0  0  0  0  0  0  0  0
   27.1342  -19.5485  -13.0735 C   0  0  0  0  0  0  0  0  0  0  0  0
   26.6989  -18.4131  -12.7249 O   0  0  0  0  0  0  0  0  0  0  0  0
   20.8013  -19.6679  -15.0535 O   0  0  0  0  0  0  0  0  0  0  0  0
   21.7633  -20.1406  -14.1629 C   0  0  0  0  0  0  0  0  0  0  0  0
   22.6813  -21.1102  -14.5046 C   0  0  0  0  0  0  0  0  0  0  0  0
   23.6169  -21.5447  -13.5807 C   0  0  0  0  0  0  0  0  0  0  0  0
   23.6684  -21.0313  -12.2952 C   0  0  0  0  0  0  0  0  0  0  0  0
   24.6852  -21.5336  -11.3605 C   0  0  0  0  0  0  0  0  0  0  0  0
   25.8308  -20.5485  -11.1667 C   0  0  2  0  0  0  0  0  0  0  0  0
   26.7265  -20.6527  -12.2887 N   0  0  0  0  0  0  0  0  0  0  0  0
   26.4838  -20.9416   -9.8901 C   0  0  0  0  0  0  0  0  0  0  0  0
   27.0618  -22.0558   -9.8540 O   0  0  0  0  0  0  0  0  0  0  0  0
   22.7523  -20.0661  -11.9597 C   0  0  0  0  0  0  0  0  0  0  0  0
   21.8119  -19.6240  -12.8762 C   0  0  0  0  0  0  0  0  0  0  0  0
   28.0355  -18.5869   -4.3166 C   0  0  0  0  0  0  0  0  0  0  0  0
   27.8771  -19.7285   -5.2439 C   0  0  2  0  0  0  0  0  0  0  0  0
   29.1670  -20.5904   -5.2111 C   0  0  0  0  0  0  0  0  0  0  0  0
   27.4573  -19.4872   -6.6390 C   0  0  0  0  0  0  0  0  0  0  0  0
   26.9080  -20.6120   -7.3993 C   0  0  2  0  0  0  0  0  0  0  0  0
   26.4827  -20.1330   -8.7396 N   0  0  0  0  0  0  0  0  0  0  0  0
   25.7471  -21.2683   -6.8317 C   0  0  0  0  0  0  0  0  0  0  0  0
   25.7368  -22.3212   -5.9175 O   0  0  0  0  0  0  0  0  0  0  0  0
   24.5732  -20.8637   -7.1994 O   0  0  0  0  0  0  0  0  0  0  0  0
  2  1  1  6
  3  2  1  0
  4  2  1  0
  4  5  1  6
  6  4  1  0
  6  7  2  0
  8  9  1  0
  9 10  2  0
 10 11  1  0
 12 13  1  0
 12 11  2  0
 14 13  1  6
 14 15  1  0
 15  6  1  0
 16 14  1  0
 17 16  2  0
 18 12  1  0
 19 18  2  0
 19  9  1  0
 21 20  1  6
 21 23  1  0
 22 21  1  0
 24 23  1  1
 24 26  1  0
 24 25  1  0
 25 16  1  0
 26 27  1  0
 28 26  2  0
M  END
$$$$
