VYL.pdb
     RDKit          3D

 28 28  0  0  1  0  0  0  0  0999 V2000
   14.7986  -13.2553  -19.3889 C   0  0  0  0  0  0  0  0  0  0  0  0
   16.0257  -14.1223  -19.5252 C   0  0  2  0  0  0  0  0  0  0  0  0
   15.5829  -15.5667  -19.4085 C   0  0  0  0  0  0  0  0  0  0  0  0
   17.0150  -13.8740  -18.4058 C   0  0  2  0  0  0  0  0  0  0  0  0
   16.4471  -14.3451  -17.1568 N   0  0  0  0  0  0  0  0  0  0  0  0
   17.3678  -12.4261  -18.3052 C   0  0  0  0  0  0  0  0  0  0  0  0
   18.0148  -11.8524  -19.2285 O   0  0  0  0  0  0  0  0  0  0  0  0
   16.9621   -3.8552  -16.5580 O   0  0  0  0  0  0  0  0  0  0  0  0
   16.7367   -5.2277  -16.6459 C   0  0  0  0  0  0  0  0  0  0  0  0
   16.5725   -5.8794  -17.8491 C   0  0  0  0  0  0  0  0  0  0  0  0
   16.3509   -7.2460  -17.8802 C   0  0  0  0  0  0  0  0  0  0  0  0
   16.2860   -8.0029  -16.7220 C   0  0  0  0  0  0  0  0  0  0  0  0
   16.0482   -9.4498  -16.8209 C   0  0  0  0  0  0  0  0  0  0  0  0
   17.3309  -10.2317  -17.0731 C   0  0  2  0  0  0  0  0  0  0  0  0
   17.0060  -11.6288  -17.1940 N   0  0  0  0  0  0  0  0  0  0  0  0
   18.2023   -9.9586  -15.8997 C   0  0  0  0  0  0  0  0  0  0  0  0
   17.9320  -10.5523  -14.8267 O   0  0  0  0  0  0  0  0  0  0  0  0
   16.4501   -7.3496  -15.5263 C   0  0  0  0  0  0  0  0  0  0  0  0
   16.6724   -5.9826  -15.4836 C   0  0  0  0  0  0  0  0  0  0  0  0
   22.5176   -9.6623  -12.7837 C   0  0  0  0  0  0  0  0  0  0  0  0
   22.6576   -9.3647  -14.2259 C   0  0  2  0  0  0  0  0  0  0  0  0
   23.2272   -7.9311  -14.3944 C   0  0  0  0  0  0  0  0  0  0  0  0
   21.5095   -9.5695  -15.1318 C   0  0  0  0  0  0  0  0  0  0  0  0
   20.2475   -8.8998  -14.8096 C   0  0  2  0  0  0  0  0  0  0  0  0
   19.2985   -9.0788  -15.9384 N   0  0  0  0  0  0  0  0  0  0  0  0
   20.3165   -7.4705  -14.5793 C   0  0  0  0  0  0  0  0  0  0  0  0
   20.3484   -6.4621  -15.5420 O   0  0  0  0  0  0  0  0  0  0  0  0
   20.3646   -7.0481  -13.3561 O   0  0  0  0  0  0  0  0  0  0  0  0
  2  1  1  1
  3  2  1  0
  4  2  1  0
  4  5  1  1
  6  4  1  0
  6  7  2  0
  8  9  1  0
  9 10  2  0
 10 11  1  0
 12 13  1  0
 12 11  2  0
 14 13  1  1
 14 15  1  0
 15  6  1  0
 16 14  1  0
 17 16  2  0
 18 12  1  0
 19 18  2  0
 19  9  1  0
 21 20  1  1
 21 23  1  0
 22 21  1  0
 24 23  1  6
 24 26  1  0
 24 25  1  0
 25 16  1  0
 26 27  1  0
 28 26  2  0
M  END
$$$$
