VYL.pdb
     RDKit          3D

 28 28  0  0  1  0  0  0  0  0999 V2000
   25.6252  -18.3460  -18.6267 C   0  0  0  0  0  0  0  0  0  0  0  0
   26.9371  -17.8510  -18.0698 C   0  0  2  0  0  0  0  0  0  0  0  0
   27.6630  -17.1228  -19.1827 C   0  0  0  0  0  0  0  0  0  0  0  0
   27.8300  -18.9951  -17.6375 C   0  0  2  0  0  0  0  0  0  0  0  0
   28.0626  -19.8706  -18.7707 N   0  0  0  0  0  0  0  0  0  0  0  0
   27.2245  -19.7575  -16.5048 C   0  0  0  0  0  0  0  0  0  0  0  0
   26.4621  -20.7431  -16.7230 O   0  0  0  0  0  0  0  0  0  0  0  0
   24.5371  -21.3482   -8.1936 O   0  0  0  0  0  0  0  0  0  0  0  0
   25.2532  -20.9399   -9.3173 C   0  0  0  0  0  0  0  0  0  0  0  0
   25.8451  -21.8305  -10.1867 C   0  0  0  0  0  0  0  0  0  0  0  0
   26.5459  -21.3714  -11.2893 C   0  0  0  0  0  0  0  0  0  0  0  0
   26.6791  -20.0195  -11.5602 C   0  0  0  0  0  0  0  0  0  0  0  0
   27.4353  -19.5949  -12.7467 C   0  0  0  0  0  0  0  0  0  0  0  0
   26.7744  -20.0406  -14.0447 C   0  0  2  0  0  0  0  0  0  0  0  0
   27.4638  -19.4281  -15.1500 N   0  0  0  0  0  0  0  0  0  0  0  0
   25.3604  -19.5910  -13.9479 C   0  0  0  0  0  0  0  0  0  0  0  0
   25.1470  -18.3540  -13.9112 O   0  0  0  0  0  0  0  0  0  0  0  0
   26.0879  -19.1365  -10.6917 C   0  0  0  0  0  0  0  0  0  0  0  0
   25.3844  -19.5850   -9.5854 C   0  0  0  0  0  0  0  0  0  0  0  0
   20.6692  -19.0969  -16.7916 C   0  0  0  0  0  0  0  0  0  0  0  0
   21.4567  -18.9824  -15.5446 C   0  0  2  0  0  0  0  0  0  0  0  0
   22.4345  -17.7841  -15.6713 C   0  0  0  0  0  0  0  0  0  0  0  0
   22.1622  -20.1652  -15.0117 C   0  0  0  0  0  0  0  0  0  0  0  0
   22.8606  -20.0339  -13.7310 C   0  0  2  0  0  0  0  0  0  0  0  0
   24.2691  -20.4762  -13.8964 N   0  0  0  0  0  0  0  0  0  0  0  0
   22.3336  -20.8104  -12.6266 C   0  0  0  0  0  0  0  0  0  0  0  0
   21.3632  -20.4162  -11.7061 O   0  0  0  0  0  0  0  0  0  0  0  0
   22.8000  -22.0038  -12.4386 O   0  0  0  0  0  0  0  0  0  0  0  0
  2  1  1  6
  3  2  1  0
  4  2  1  0
  4  5  1  6
  6  4  1  0
  6  7  2  0
  8  9  1  0
  9 10  2  0
 10 11  1  0
 12 13  1  0
 12 11  2  0
 14 13  1  1
 14 15  1  0
 15  6  1  0
 16 14  1  0
 17 16  2  0
 18 12  1  0
 19 18  2  0
 19  9  1  0
 21 20  1  6
 21 23  1  0
 22 21  1  0
 24 23  1  6
 24 26  1  0
 24 25  1  0
 25 16  1  0
 26 27  1  0
 28 26  2  0
M  END
$$$$
