VYL.pdb
     RDKit          3D

 28 28  0  0  1  0  0  0  0  0999 V2000
   26.2419  -18.6644  -17.5501 C   0  0  0  0  0  0  0  0  0  0  0  0
   27.5935  -18.4152  -16.9277 C   0  0  2  0  0  0  0  0  0  0  0  0
   28.6436  -18.6884  -17.9853 C   0  0  0  0  0  0  0  0  0  0  0  0
   27.8666  -19.3660  -15.7811 C   0  0  2  0  0  0  0  0  0  0  0  0
   27.8124  -20.7301  -16.2719 N   0  0  0  0  0  0  0  0  0  0  0  0
   26.8869  -19.1718  -14.6705 C   0  0  0  0  0  0  0  0  0  0  0  0
   26.7494  -18.0414  -14.1197 O   0  0  0  0  0  0  0  0  0  0  0  0
   20.8971  -17.7661  -17.3984 O   0  0  0  0  0  0  0  0  0  0  0  0
   21.6033  -18.4856  -16.4362 C   0  0  0  0  0  0  0  0  0  0  0  0
   21.5327  -18.1968  -15.0905 C   0  0  0  0  0  0  0  0  0  0  0  0
   22.2556  -18.9439  -14.1755 C   0  0  0  0  0  0  0  0  0  0  0  0
   23.0668  -19.9957  -14.5684 C   0  0  0  0  0  0  0  0  0  0  0  0
   23.8090  -20.7508  -13.5492 C   0  0  0  0  0  0  0  0  0  0  0  0
   25.0976  -20.0521  -13.1348 C   0  0  2  0  0  0  0  0  0  0  0  0
   26.0727  -20.2197  -14.1804 N   0  0  0  0  0  0  0  0  0  0  0  0
   25.5170  -20.7066  -11.8674 C   0  0  0  0  0  0  0  0  0  0  0  0
   26.0102  -21.8588  -11.9459 O   0  0  0  0  0  0  0  0  0  0  0  0
   23.1338  -20.2794  -15.9094 C   0  0  0  0  0  0  0  0  0  0  0  0
   22.4148  -19.5385  -16.8335 C   0  0  0  0  0  0  0  0  0  0  0  0
   28.7922  -20.8584   -8.8784 C   0  0  0  0  0  0  0  0  0  0  0  0
   27.8627  -19.7106   -8.7959 C   0  0  2  0  0  0  0  0  0  0  0  0
   28.4750  -18.6287   -7.8673 C   0  0  0  0  0  0  0  0  0  0  0  0
   26.4448  -19.9386   -8.4516 C   0  0  0  0  0  0  0  0  0  0  0  0
   25.6532  -20.8078   -9.3250 C   0  0  2  0  0  0  0  0  0  0  0  0
   25.3878  -20.1015  -10.6047 N   0  0  0  0  0  0  0  0  0  0  0  0
   24.3546  -21.2136   -8.8254 C   0  0  0  0  0  0  0  0  0  0  0  0
   24.0925  -22.0927   -7.7752 O   0  0  0  0  0  0  0  0  0  0  0  0
   23.2987  -20.7330   -9.4008 O   0  0  0  0  0  0  0  0  0  0  0  0
  2  1  1  6
  3  2  1  0
  4  2  1  0
  4  5  1  6
  6  4  1  0
  6  7  2  0
  8  9  1  0
  9 10  2  0
 10 11  1  0
 12 13  1  0
 12 11  2  0
 14 13  1  6
 14 15  1  0
 15  6  1  0
 16 14  1  0
 17 16  2  0
 18 12  1  0
 19 18  2  0
 19  9  1  0
 21 20  1  1
 21 23  1  0
 22 21  1  0
 24 23  1  1
 24 26  1  0
 24 25  1  0
 25 16  1  0
 26 27  1  0
 28 26  2  0
M  END
$$$$
