VYL.pdb
     RDKit          3D

 28 28  0  0  1  0  0  0  0  0999 V2000
   20.6087  -36.6092   -7.5319 C   0  0  0  0  0  0  0  0  0  0  0  0
   20.1776  -35.1654   -7.6063 C   0  0  2  0  0  0  0  0  0  0  0  0
   18.7298  -35.1407   -8.0524 C   0  0  0  0  0  0  0  0  0  0  0  0
   20.9700  -34.3962   -8.6424 C   0  0  2  0  0  0  0  0  0  0  0  0
   20.6981  -34.9496   -9.9556 N   0  0  0  0  0  0  0  0  0  0  0  0
   22.4340  -34.4426   -8.3497 C   0  0  0  0  0  0  0  0  0  0  0  0
   23.1889  -35.2577   -8.9546 O   0  0  0  0  0  0  0  0  0  0  0  0
   25.8235  -31.8314  -13.0186 O   0  0  0  0  0  0  0  0  0  0  0  0
   25.6719  -31.9729  -11.6405 C   0  0  0  0  0  0  0  0  0  0  0  0
   26.6325  -32.5551  -10.8419 C   0  0  0  0  0  0  0  0  0  0  0  0
   26.4314  -32.6710   -9.4767 C   0  0  0  0  0  0  0  0  0  0  0  0
   25.2749  -32.2140   -8.8665 C   0  0  0  0  0  0  0  0  0  0  0  0
   25.1207  -32.3658   -7.4129 C   0  0  0  0  0  0  0  0  0  0  0  0
   24.4393  -33.6752   -7.0364 C   0  0  2  0  0  0  0  0  0  0  0  0
   23.0484  -33.5947   -7.3985 N   0  0  0  0  0  0  0  0  0  0  0  0
   24.6289  -33.8165   -5.5685 C   0  0  0  0  0  0  0  0  0  0  0  0
   23.9061  -33.1128   -4.8206 O   0  0  0  0  0  0  0  0  0  0  0  0
   24.3213  -31.6350   -9.6658 C   0  0  0  0  0  0  0  0  0  0  0  0
   24.5121  -31.5140  -11.0328 C   0  0  0  0  0  0  0  0  0  0  0  0
   23.8975  -35.7951   -1.0834 C   0  0  0  0  0  0  0  0  0  0  0  0
   23.9250  -36.4349   -2.4169 C   0  0  2  0  0  0  0  0  0  0  0  0
   23.5253  -37.9272   -2.2710 C   0  0  0  0  0  0  0  0  0  0  0  0
   25.1258  -36.3069   -3.2670 C   0  0  0  0  0  0  0  0  0  0  0  0
   25.6441  -34.9630   -3.5321 C   0  0  2  0  0  0  0  0  0  0  0  0
   25.5671  -34.6897   -4.9902 N   0  0  0  0  0  0  0  0  0  0  0  0
   27.0237  -34.7191   -3.1606 C   0  0  0  0  0  0  0  0  0  0  0  0
   27.4913  -34.1775   -1.9637 O   0  0  0  0  0  0  0  0  0  0  0  0
   27.9504  -35.0167   -4.0147 O   0  0  0  0  0  0  0  0  0  0  0  0
  2  1  1  6
  3  2  1  0
  4  2  1  0
  4  5  1  6
  6  4  1  0
  6  7  2  0
  8  9  1  0
  9 10  2  0
 10 11  1  0
 12 13  1  0
 12 11  2  0
 14 13  1  1
 14 15  1  0
 15  6  1  0
 16 14  1  0
 17 16  2  0
 18 12  1  0
 19 18  2  0
 19  9  1  0
 21 20  1  1
 21 23  1  0
 22 21  1  0
 24 23  1  6
 24 26  1  0
 24 25  1  0
 25 16  1  0
 26 27  1  0
 28 26  2  0
M  END
$$$$
