VYL.pdb
     RDKit          3D

 28 28  0  0  1  0  0  0  0  0999 V2000
   27.7329  -21.8485  -21.1223 C   0  0  0  0  0  0  0  0  0  0  0  0
   28.7797  -22.7449  -20.5085 C   0  0  2  0  0  0  0  0  0  0  0  0
   30.0721  -22.5297  -21.2695 C   0  0  0  0  0  0  0  0  0  0  0  0
   28.4211  -24.2087  -20.6563 C   0  0  2  0  0  0  0  0  0  0  0  0
   28.3685  -24.5450  -22.0665 N   0  0  0  0  0  0  0  0  0  0  0  0
   27.1163  -24.5165  -19.9976 C   0  0  0  0  0  0  0  0  0  0  0  0
   26.0319  -24.4433  -20.6448 O   0  0  0  0  0  0  0  0  0  0  0  0
   21.3123  -26.8729  -13.6901 O   0  0  0  0  0  0  0  0  0  0  0  0
   22.4806  -26.5702  -14.3870 C   0  0  0  0  0  0  0  0  0  0  0  0
   23.3225  -25.5434  -14.0178 C   0  0  0  0  0  0  0  0  0  0  0  0
   24.4720  -25.2848  -14.7456 C   0  0  0  0  0  0  0  0  0  0  0  0
   24.8180  -26.0354  -15.8572 C   0  0  0  0  0  0  0  0  0  0  0  0
   26.0512  -25.7116  -16.5880 C   0  0  0  0  0  0  0  0  0  0  0  0
   25.7711  -25.0841  -17.9474 C   0  0  2  0  0  0  0  0  0  0  0  0
   27.0199  -24.9000  -18.6393 N   0  0  0  0  0  0  0  0  0  0  0  0
   25.0946  -23.7918  -17.6590 C   0  0  0  0  0  0  0  0  0  0  0  0
   25.7830  -22.8819  -17.1345 O   0  0  0  0  0  0  0  0  0  0  0  0
   23.9766  -27.0567  -16.2209 C   0  0  0  0  0  0  0  0  0  0  0  0
   22.8239  -27.3242  -15.4999 C   0  0  0  0  0  0  0  0  0  0  0  0
   22.3561  -19.4310  -17.6059 C   0  0  0  0  0  0  0  0  0  0  0  0
   22.4472  -20.1299  -18.9065 C   0  0  2  0  0  0  0  0  0  0  0  0
   21.1044  -19.9635  -19.6661 C   0  0  0  0  0  0  0  0  0  0  0  0
   22.8912  -21.5376  -18.9530 C   0  0  0  0  0  0  0  0  0  0  0  0
   23.0673  -22.2484  -17.6847 C   0  0  2  0  0  0  0  0  0  0  0  0
   23.7393  -23.5478  -17.9434 N   0  0  0  0  0  0  0  0  0  0  0  0
   21.8585  -22.5717  -16.9534 C   0  0  0  0  0  0  0  0  0  0  0  0
   21.1573  -23.7769  -16.9747 O   0  0  0  0  0  0  0  0  0  0  0  0
   21.3394  -21.6607  -16.1935 O   0  0  0  0  0  0  0  0  0  0  0  0
  2  1  1  6
  3  2  1  0
  4  2  1  0
  4  5  1  6
  6  4  1  0
  6  7  2  0
  8  9  1  0
  9 10  2  0
 10 11  1  0
 12 13  1  0
 12 11  2  0
 14 13  1  1
 14 15  1  0
 15  6  1  0
 16 14  1  0
 17 16  2  0
 18 12  1  0
 19 18  2  0
 19  9  1  0
 21 20  1  1
 21 23  1  0
 22 21  1  0
 24 23  1  6
 24 26  1  0
 24 25  1  0
 25 16  1  0
 26 27  1  0
 28 26  2  0
M  END
$$$$
