VYL.pdb
     RDKit          3D

 28 28  0  0  1  0  0  0  0  0999 V2000
   28.8150  -19.8848  -15.7655 C   0  0  0  0  0  0  0  0  0  0  0  0
   28.1913  -19.4826  -14.4519 C   0  0  2  0  0  0  0  0  0  0  0  0
   29.0602  -20.0378  -13.3417 C   0  0  0  0  0  0  0  0  0  0  0  0
   26.8141  -20.0875  -14.2766 C   0  0  2  0  0  0  0  0  0  0  0  0
   25.9451  -19.6049  -15.3332 N   0  0  0  0  0  0  0  0  0  0  0  0
   26.2420  -19.7545  -12.9377 C   0  0  0  0  0  0  0  0  0  0  0  0
   25.9499  -18.5607  -12.6380 O   0  0  0  0  0  0  0  0  0  0  0  0
   19.8356  -19.3624  -13.6092 O   0  0  0  0  0  0  0  0  0  0  0  0
   20.9043  -19.8488  -12.8586 C   0  0  0  0  0  0  0  0  0  0  0  0
   21.7378  -20.8487  -13.3113 C   0  0  0  0  0  0  0  0  0  0  0  0
   22.7862  -21.2958  -12.5246 C   0  0  0  0  0  0  0  0  0  0  0  0
   23.0368  -20.7651  -11.2699 C   0  0  0  0  0  0  0  0  0  0  0  0
   24.1653  -21.2819  -10.4830 C   0  0  0  0  0  0  0  0  0  0  0  0
   25.4257  -20.4449  -10.6591 C   0  0  2  0  0  0  0  0  0  0  0  0
   25.9986  -20.7350  -11.9474 N   0  0  0  0  0  0  0  0  0  0  0  0
   26.3263  -20.8396   -9.5438 C   0  0  0  0  0  0  0  0  0  0  0  0
   26.7207  -22.0314   -9.5116 O   0  0  0  0  0  0  0  0  0  0  0  0
   22.2043  -19.7697  -10.8234 C   0  0  0  0  0  0  0  0  0  0  0  0
   21.1524  -19.3149  -11.6023 C   0  0  0  0  0  0  0  0  0  0  0  0
   28.8707  -18.2609   -4.4277 C   0  0  0  0  0  0  0  0  0  0  0  0
   28.6269  -19.4343   -5.2949 C   0  0  2  0  0  0  0  0  0  0  0  0
   29.9306  -20.2700   -5.3947 C   0  0  0  0  0  0  0  0  0  0  0  0
   28.0354  -19.2456   -6.6348 C   0  0  0  0  0  0  0  0  0  0  0  0
   27.3721  -20.3897   -7.2642 C   0  0  2  0  0  0  0  0  0  0  0  0
   26.7492  -19.9509   -8.5394 N   0  0  0  0  0  0  0  0  0  0  0  0
   26.3087  -21.0165   -6.5046 C   0  0  0  0  0  0  0  0  0  0  0  0
   26.3933  -22.1760   -5.7346 O   0  0  0  0  0  0  0  0  0  0  0  0
   25.1344  -20.4713   -6.5288 O   0  0  0  0  0  0  0  0  0  0  0  0
  2  1  1  6
  3  2  1  0
  4  2  1  0
  4  5  1  6
  6  4  1  0
  6  7  2  0
  8  9  1  0
  9 10  2  0
 10 11  1  0
 12 13  1  0
 12 11  2  0
 14 13  1  1
 14 15  1  0
 15  6  1  0
 16 14  1  0
 17 16  2  0
 18 12  1  0
 19 18  2  0
 19  9  1  0
 21 20  1  6
 21 23  1  0
 22 21  1  0
 24 23  1  1
 24 26  1  0
 24 25  1  0
 25 16  1  0
 26 27  1  0
 28 26  2  0
M  END
$$$$
