VYL.pdb
     RDKit          3D

 28 28  0  0  1  0  0  0  0  0999 V2000
   29.5599  -19.2874  -15.9676 C   0  0  0  0  0  0  0  0  0  0  0  0
   28.5423  -19.0527  -14.8787 C   0  0  2  0  0  0  0  0  0  0  0  0
   28.8672  -19.9933  -13.7360 C   0  0  0  0  0  0  0  0  0  0  0  0
   27.1398  -19.3894  -15.3400 C   0  0  2  0  0  0  0  0  0  0  0  0
   26.7984  -18.5510  -16.4735 N   0  0  0  0  0  0  0  0  0  0  0  0
   26.1480  -19.2063  -14.2382 C   0  0  0  0  0  0  0  0  0  0  0  0
   25.8099  -18.0480  -13.8583 O   0  0  0  0  0  0  0  0  0  0  0  0
   18.9794  -19.5466   -9.4491 O   0  0  0  0  0  0  0  0  0  0  0  0
   20.0286  -19.8320  -10.3207 C   0  0  0  0  0  0  0  0  0  0  0  0
   20.4129  -18.9745  -11.3289 C   0  0  0  0  0  0  0  0  0  0  0  0
   21.4632  -19.3068  -12.1680 C   0  0  0  0  0  0  0  0  0  0  0  0
   22.1604  -20.4959  -12.0313 C   0  0  0  0  0  0  0  0  0  0  0  0
   23.2660  -20.7914  -12.9533 C   0  0  0  0  0  0  0  0  0  0  0  0
   24.5745  -20.1472  -12.5138 C   0  0  2  0  0  0  0  0  0  0  0  0
   25.5418  -20.2956  -13.5695 N   0  0  0  0  0  0  0  0  0  0  0  0
   24.9791  -20.8680  -11.2779 C   0  0  0  0  0  0  0  0  0  0  0  0
   25.1995  -22.1007  -11.3719 O   0  0  0  0  0  0  0  0  0  0  0  0
   21.7741  -21.3466  -11.0260 C   0  0  0  0  0  0  0  0  0  0  0  0
   20.7246  -21.0241  -10.1807 C   0  0  0  0  0  0  0  0  0  0  0  0
   28.5200  -20.6029   -8.3747 C   0  0  0  0  0  0  0  0  0  0  0  0
   27.4483  -19.6091   -8.1471 C   0  0  2  0  0  0  0  0  0  0  0  0
   27.9298  -18.5773   -7.0929 C   0  0  0  0  0  0  0  0  0  0  0  0
   26.0802  -20.0656   -7.8295 C   0  0  0  0  0  0  0  0  0  0  0  0
   25.4191  -20.9727   -8.7703 C   0  0  2  0  0  0  0  0  0  0  0  0
   25.1236  -20.2398  -10.0282 N   0  0  0  0  0  0  0  0  0  0  0  0
   24.1556  -21.5383   -8.3409 C   0  0  0  0  0  0  0  0  0  0  0  0
   22.8780  -21.1474   -8.7399 O   0  0  0  0  0  0  0  0  0  0  0  0
   24.1782  -22.5100   -7.4851 O   0  0  0  0  0  0  0  0  0  0  0  0
  2  1  1  6
  3  2  1  0
  4  2  1  0
  4  5  1  6
  6  4  1  0
  6  7  2  0
  8  9  1  0
  9 10  2  0
 10 11  1  0
 12 13  1  0
 12 11  2  0
 14 13  1  6
 14 15  1  0
 15  6  1  0
 16 14  1  0
 17 16  2  0
 18 12  1  0
 19 18  2  0
 19  9  1  0
 21 20  1  1
 21 23  1  0
 22 21  1  0
 24 23  1  1
 24 26  1  0
 24 25  1  0
 25 16  1  0
 26 27  1  0
 28 26  2  0
M  END
$$$$
