VYL.pdb
     RDKit          3D

 28 28  0  0  1  0  0  0  0  0999 V2000
   28.7181  -17.0862  -16.2042 C   0  0  0  0  0  0  0  0  0  0  0  0
   28.3434  -18.0989  -17.2579 C   0  0  2  0  0  0  0  0  0  0  0  0
   29.2252  -17.8530  -18.4654 C   0  0  0  0  0  0  0  0  0  0  0  0
   26.9108  -17.9262  -17.7173 C   0  0  2  0  0  0  0  0  0  0  0  0
   26.7772  -16.6455  -18.3854 N   0  0  0  0  0  0  0  0  0  0  0  0
   25.9587  -18.0181  -16.5701 C   0  0  0  0  0  0  0  0  0  0  0  0
   25.6479  -16.9888  -15.9036 O   0  0  0  0  0  0  0  0  0  0  0  0
   19.6428  -20.7601  -11.0848 O   0  0  0  0  0  0  0  0  0  0  0  0
   20.5374  -20.6210  -12.1444 C   0  0  0  0  0  0  0  0  0  0  0  0
   21.5013  -21.5628  -12.4332 C   0  0  0  0  0  0  0  0  0  0  0  0
   22.3659  -21.3754  -13.4986 C   0  0  0  0  0  0  0  0  0  0  0  0
   22.2990  -20.2516  -14.3056 C   0  0  0  0  0  0  0  0  0  0  0  0
   23.2450  -20.1105  -15.4215 C   0  0  0  0  0  0  0  0  0  0  0  0
   24.5130  -19.3704  -15.0157 C   0  0  2  0  0  0  0  0  0  0  0  0
   25.3616  -19.2368  -16.1708 N   0  0  0  0  0  0  0  0  0  0  0  0
   25.1387  -20.2025  -13.9542 C   0  0  0  0  0  0  0  0  0  0  0  0
   25.6548  -21.2932  -14.3018 O   0  0  0  0  0  0  0  0  0  0  0  0
   21.3376  -19.3167  -14.0142 C   0  0  0  0  0  0  0  0  0  0  0  0
   20.4675  -19.4941  -12.9506 C   0  0  0  0  0  0  0  0  0  0  0  0
   26.8739  -19.6216   -7.9726 C   0  0  0  0  0  0  0  0  0  0  0  0
   26.6511  -20.4512   -9.1769 C   0  0  2  0  0  0  0  0  0  0  0  0
   27.8942  -21.3504   -9.4096 C   0  0  0  0  0  0  0  0  0  0  0  0
   26.2376  -19.8113  -10.4419 C   0  0  0  0  0  0  0  0  0  0  0  0
   25.7695  -20.6721  -11.5305 C   0  0  2  0  0  0  0  0  0  0  0  0
   25.1773  -19.8275  -12.5995 N   0  0  0  0  0  0  0  0  0  0  0  0
   24.7504  -21.6449  -11.1907 C   0  0  0  0  0  0  0  0  0  0  0  0
   24.8893  -23.0318  -11.1489 O   0  0  0  0  0  0  0  0  0  0  0  0
   23.5651  -21.2139  -10.8970 O   0  0  0  0  0  0  0  0  0  0  0  0
  2  1  1  1
  3  2  1  0
  4  2  1  0
  4  5  1  1
  6  4  1  0
  6  7  2  0
  8  9  1  0
  9 10  2  0
 10 11  1  0
 12 13  1  0
 12 11  2  0
 14 13  1  6
 14 15  1  0
 15  6  1  0
 16 14  1  0
 17 16  2  0
 18 12  1  0
 19 18  2  0
 19  9  1  0
 21 20  1  1
 21 23  1  0
 22 21  1  0
 24 23  1  1
 24 26  1  0
 24 25  1  0
 25 16  1  0
 26 27  1  0
 28 26  2  0
M  END
$$$$
