QNH.pdb
     RDKit          3D

 28 28  0  0  1  0  0  0  0  0999 V2000
   13.2807  -10.4894  -13.9679 N   0  0  0  0  0  0  0  0  0  0  0  0
   13.3216  -10.8174  -15.3790 C   0  0  0  0  0  0  0  0  0  0  0  0
   12.3550  -11.4889  -15.8200 O   0  0  0  0  0  0  0  0  0  0  0  0
   14.4777  -10.3373  -16.1252 C   0  0  0  0  0  0  0  0  0  0  0  0
   15.5221   -9.6133  -15.3335 C   0  0  0  0  0  0  0  0  0  0  0  0
   16.9254   -9.9914  -15.6743 C   0  0  2  0  0  0  0  0  0  0  0  0
   17.1657  -11.3620  -15.3558 N   0  0  0  0  0  0  0  0  0  0  0  0
   17.8975   -9.0612  -14.9833 C   0  0  0  0  0  0  0  0  0  0  0  0
   17.8436   -9.0784  -13.7496 O   0  0  0  0  0  0  0  0  0  0  0  0
   21.8974   -5.6187  -14.6276 N   0  0  0  0  0  0  0  0  0  0  0  0
   22.2417   -6.7662  -15.3727 C   0  0  0  0  0  0  0  0  0  0  0  0
   23.4419   -6.9524  -15.6756 O   0  0  0  0  0  0  0  0  0  0  0  0
   21.2137   -7.7240  -15.7858 C   0  0  0  0  0  0  0  0  0  0  0  0
   19.8282   -7.3624  -15.2692 C   0  0  2  0  0  0  0  0  0  0  0  0
   18.7803   -8.2534  -15.6551 N   0  0  0  0  0  0  0  0  0  0  0  0
   19.5084   -6.0587  -15.9015 C   0  0  0  0  0  0  0  0  0  0  0  0
   19.4594   -6.0279  -17.1826 O   0  0  0  0  0  0  0  0  0  0  0  0
   19.2560   -4.8580  -15.1727 N   0  0  0  0  0  0  0  0  0  0  0  0
   18.9342   -3.6617  -15.9770 C   0  0  1  0  0  0  0  0  0  0  0  0
   17.6951   -3.0725  -15.3485 C   0  0  0  0  0  0  0  0  0  0  0  0
   16.4940   -3.7917  -15.7695 C   0  0  0  0  0  0  0  0  0  0  0  0
   16.2656   -4.2381  -17.0807 C   0  0  0  0  0  0  0  0  0  0  0  0
   15.0810   -4.8513  -17.1155 N   0  0  0  0  0  0  0  0  0  0  0  0
   14.5268   -4.8254  -15.8916 C   0  0  0  0  0  0  0  0  0  0  0  0
   15.3999   -4.1822  -15.1059 N   0  0  0  0  0  0  0  0  0  0  0  0
   20.0648   -2.6968  -15.8216 C   0  0  0  0  0  0  0  0  0  0  0  0
   21.1199   -2.9150  -15.1928 O   0  0  0  0  0  0  0  0  0  0  0  0
   19.9615   -1.4282  -16.4224 O   0  0  0  0  0  0  0  0  0  0  0  0
  2  1  1  0
  3  2  2  0
  4  2  1  0
  5  6  1  0
  5  4  1  0
  6  7  1  1
  6  8  1  0
  8  9  2  0
 10 11  1  0
 11 12  2  0
 14 13  1  6
 13 11  1  0
 14 16  1  0
 15  8  1  0
 15 14  1  0
 16 17  2  0
 18 19  1  0
 18 16  1  0
 19 26  1  0
 19 20  1  1
 21 20  1  0
 22 21  2  0
 23 22  1  0
 24 23  1  0
 24 25  2  0
 25 21  1  0
 26 27  2  0
 26 28  1  0
M  END
$$$$
