QNH.pdb
     RDKit          3D

 28 28  0  0  1  0  0  0  0  0999 V2000
   42.8358   -9.6820   -2.7744 N   0  0  0  0  0  0  0  0  0  0  0  0
   44.2748   -9.5738   -2.6400 C   0  0  0  0  0  0  0  0  0  0  0  0
   44.6928   -8.9936   -1.6064 O   0  0  0  0  0  0  0  0  0  0  0  0
   45.0734  -10.1439   -3.7175 C   0  0  0  0  0  0  0  0  0  0  0  0
   44.3130  -10.7098   -4.8765 C   0  0  0  0  0  0  0  0  0  0  0  0
   45.1530  -11.4583   -5.8577 C   0  0  2  0  0  0  0  0  0  0  0  0
   46.4222  -10.8244   -6.0159 N   0  0  0  0  0  0  0  0  0  0  0  0
   44.4151  -11.6042   -7.1699 C   0  0  0  0  0  0  0  0  0  0  0  0
   44.8121  -10.8615   -8.0732 O   0  0  0  0  0  0  0  0  0  0  0  0
   43.2011  -16.3203   -8.3561 N   0  0  0  0  0  0  0  0  0  0  0  0
   42.7529  -15.1892   -9.0705 C   0  0  0  0  0  0  0  0  0  0  0  0
   43.0967  -15.0545  -10.2665 O   0  0  0  0  0  0  0  0  0  0  0  0
   41.9000  -14.1888   -8.4251 C   0  0  0  0  0  0  0  0  0  0  0  0
   42.5057  -12.7924   -8.4496 C   0  0  2  0  0  0  0  0  0  0  0  0
   43.3830  -12.4876   -7.3642 N   0  0  0  0  0  0  0  0  0  0  0  0
   41.3524  -11.8687   -8.3134 C   0  0  0  0  0  0  0  0  0  0  0  0
   40.4421  -12.1922   -7.4701 O   0  0  0  0  0  0  0  0  0  0  0  0
   41.2050  -10.6599   -9.0574 N   0  0  0  0  0  0  0  0  0  0  0  0
   39.9202   -9.9486   -8.8990 C   0  0  1  0  0  0  0  0  0  0  0  0
   40.2280   -8.7416   -8.0469 C   0  0  0  0  0  0  0  0  0  0  0  0
   39.0513   -7.8881   -7.8922 C   0  0  0  0  0  0  0  0  0  0  0  0
   37.7302   -8.3370   -8.0467 C   0  0  0  0  0  0  0  0  0  0  0  0
   36.9089   -7.3064   -7.8377 N   0  0  0  0  0  0  0  0  0  0  0  0
   37.6305   -6.2084   -7.5553 C   0  0  0  0  0  0  0  0  0  0  0  0
   38.9133   -6.5907   -7.5959 N   0  0  0  0  0  0  0  0  0  0  0  0
   39.4888   -9.4904  -10.2545 C   0  0  0  0  0  0  0  0  0  0  0  0
   40.1325   -9.6522  -11.3109 O   0  0  0  0  0  0  0  0  0  0  0  0
   38.2594   -8.8176  -10.3838 O   0  0  0  0  0  0  0  0  0  0  0  0
  2  1  1  0
  3  2  2  0
  4  2  1  0
  5  6  1  0
  5  4  1  0
  6  7  1  6
  6  8  1  0
  8  9  2  0
 10 11  1  0
 11 12  2  0
 14 13  1  1
 13 11  1  0
 14 16  1  0
 15  8  1  0
 15 14  1  0
 16 17  2  0
 18 19  1  0
 18 16  1  0
 19 26  1  0
 19 20  1  1
 21 20  1  0
 22 21  2  0
 23 22  1  0
 24 23  1  0
 24 25  2  0
 25 21  1  0
 26 27  2  0
 26 28  1  0
M  END
$$$$
