QNH.pdb
     RDKit          3D

 28 28  0  0  1  0  0  0  0  0999 V2000
   27.4176  -19.8536  -15.8741 N   0  0  0  0  0  0  0  0  0  0  0  0
   27.9586  -19.2426  -17.0718 C   0  0  0  0  0  0  0  0  0  0  0  0
   28.3826  -20.0317  -17.9533 O   0  0  0  0  0  0  0  0  0  0  0  0
   27.9546  -17.7860  -17.1178 C   0  0  0  0  0  0  0  0  0  0  0  0
   27.4899  -17.0862  -15.8784 C   0  0  0  0  0  0  0  0  0  0  0  0
   26.3990  -16.0926  -16.1044 C   0  0  2  0  0  0  0  0  0  0  0  0
   25.9104  -16.1818  -17.4427 N   0  0  0  0  0  0  0  0  0  0  0  0
   26.8825  -14.7014  -15.7599 C   0  0  0  0  0  0  0  0  0  0  0  0
   27.2682  -14.5603  -14.5952 O   0  0  0  0  0  0  0  0  0  0  0  0
   28.1507   -9.6685  -16.3138 N   0  0  0  0  0  0  0  0  0  0  0  0
   28.4414  -10.3299  -17.5257 C   0  0  0  0  0  0  0  0  0  0  0  0
   29.0881   -9.7200  -18.4070 O   0  0  0  0  0  0  0  0  0  0  0  0
   27.9947  -11.7064  -17.7504 C   0  0  0  0  0  0  0  0  0  0  0  0
   27.2003  -12.2678  -16.5794 C   0  0  2  0  0  0  0  0  0  0  0  0
   26.9014  -13.6626  -16.6564 N   0  0  0  0  0  0  0  0  0  0  0  0
   25.8930  -11.5674  -16.6285 C   0  0  0  0  0  0  0  0  0  0  0  0
   25.0844  -11.9059  -17.5644 O   0  0  0  0  0  0  0  0  0  0  0  0
   25.4941  -10.5552  -15.7050 N   0  0  0  0  0  0  0  0  0  0  0  0
   24.1273  -10.0209  -15.8725 C   0  0  1  0  0  0  0  0  0  0  0  0
   23.8933   -9.1259  -14.6801 C   0  0  0  0  0  0  0  0  0  0  0  0
   22.5572   -8.5341  -14.7156 C   0  0  0  0  0  0  0  0  0  0  0  0
   21.5649   -8.8912  -15.6423 C   0  0  0  0  0  0  0  0  0  0  0  0
   20.4755   -8.1621  -15.3933 N   0  0  0  0  0  0  0  0  0  0  0  0
   20.7100   -7.3475  -14.3505 C   0  0  0  0  0  0  0  0  0  0  0  0
   21.9686   -7.5949  -13.9662 N   0  0  0  0  0  0  0  0  0  0  0  0
   24.1174   -9.1898  -17.1144 C   0  0  0  0  0  0  0  0  0  0  0  0
   25.0573   -8.4718  -17.5111 O   0  0  0  0  0  0  0  0  0  0  0  0
   22.9672   -9.1957  -17.9257 O   0  0  0  0  0  0  0  0  0  0  0  0
  2  1  1  0
  3  2  2  0
  4  2  1  0
  5  6  1  0
  5  4  1  0
  6  7  1  6
  6  8  1  0
  8  9  2  0
 10 11  1  0
 11 12  2  0
 14 13  1  6
 13 11  1  0
 14 16  1  0
 15  8  1  0
 15 14  1  0
 16 17  2  0
 18 19  1  0
 18 16  1  0
 19 26  1  0
 19 20  1  1
 21 20  1  0
 22 21  2  0
 23 22  1  0
 24 23  1  0
 24 25  2  0
 25 21  1  0
 26 27  2  0
 26 28  1  0
M  END
$$$$
