QNH.pdb
     RDKit          3D

 28 28  0  0  1  0  0  0  0  0999 V2000
   25.3814  -32.2865  -19.5916 N   0  0  0  0  0  0  0  0  0  0  0  0
   26.5380  -33.1583  -19.6439 C   0  0  0  0  0  0  0  0  0  0  0  0
   26.5244  -34.0441  -20.5353 O   0  0  0  0  0  0  0  0  0  0  0  0
   27.5821  -32.9137  -18.6570 C   0  0  0  0  0  0  0  0  0  0  0  0
   27.3686  -31.7470  -17.7433 C   0  0  0  0  0  0  0  0  0  0  0  0
   28.3775  -30.6566  -17.8909 C   0  0  2  0  0  0  0  0  0  0  0  0
   29.6823  -31.1347  -17.5643 N   0  0  0  0  0  0  0  0  0  0  0  0
   27.9772  -29.4607  -17.0559 C   0  0  0  0  0  0  0  0  0  0  0  0
   27.8750  -29.6843  -15.8457 O   0  0  0  0  0  0  0  0  0  0  0  0
   29.8216  -26.0374  -15.9340 N   0  0  0  0  0  0  0  0  0  0  0  0
   29.3694  -25.3740  -17.0942 C   0  0  0  0  0  0  0  0  0  0  0  0
   30.0704  -24.4566  -17.5777 O   0  0  0  0  0  0  0  0  0  0  0  0
   28.1017  -25.7511  -17.7232 C   0  0  0  0  0  0  0  0  0  0  0  0
   27.4300  -26.9317  -17.0361 C   0  0  2  0  0  0  0  0  0  0  0  0
   27.7426  -28.2147  -17.5811 N   0  0  0  0  0  0  0  0  0  0  0  0
   25.9769  -26.7352  -17.2636 C   0  0  0  0  0  0  0  0  0  0  0  0
   25.5201  -27.0460  -18.4208 O   0  0  0  0  0  0  0  0  0  0  0  0
   25.0759  -26.2283  -16.2799 N   0  0  0  0  0  0  0  0  0  0  0  0
   23.6595  -26.1217  -16.6853 C   0  0  1  0  0  0  0  0  0  0  0  0
   22.8756  -26.8314  -15.6086 C   0  0  0  0  0  0  0  0  0  0  0  0
   21.4362  -26.7062  -15.8312 C   0  0  0  0  0  0  0  0  0  0  0  0
   20.7243  -27.4382  -16.7946 C   0  0  0  0  0  0  0  0  0  0  0  0
   19.4404  -27.0809  -16.7298 N   0  0  0  0  0  0  0  0  0  0  0  0
   19.2815  -26.1518  -15.7719 C   0  0  0  0  0  0  0  0  0  0  0  0
   20.4984  -25.9486  -15.2511 N   0  0  0  0  0  0  0  0  0  0  0  0
   23.2963  -24.6721  -16.6766 C   0  0  0  0  0  0  0  0  0  0  0  0
   24.0277  -23.7461  -16.2717 O   0  0  0  0  0  0  0  0  0  0  0  0
   22.0314  -24.2867  -17.1587 O   0  0  0  0  0  0  0  0  0  0  0  0
  2  1  1  0
  3  2  2  0
  4  2  1  0
  5  6  1  0
  5  4  1  0
  6  7  1  1
  6  8  1  0
  8  9  2  0
 10 11  1  0
 11 12  2  0
 14 13  1  6
 13 11  1  0
 14 16  1  0
 15  8  1  0
 15 14  1  0
 16 17  2  0
 18 19  1  0
 18 16  1  0
 19 26  1  0
 19 20  1  1
 21 20  1  0
 22 21  2  0
 23 22  1  0
 24 23  1  0
 24 25  2  0
 25 21  1  0
 26 27  2  0
 26 28  1  0
M  END
$$$$
