QNH.pdb
     RDKit          3D

 28 28  0  0  1  0  0  0  0  0999 V2000
   21.7740  -16.1283  -18.4065 N   0  0  0  0  0  0  0  0  0  0  0  0
   21.6936  -15.5631  -19.7386 C   0  0  0  0  0  0  0  0  0  0  0  0
   21.3743  -16.3571  -20.6591 O   0  0  0  0  0  0  0  0  0  0  0  0
   21.9958  -14.1428  -19.8620 C   0  0  0  0  0  0  0  0  0  0  0  0
   22.4008  -13.4408  -18.6031 C   0  0  0  0  0  0  0  0  0  0  0  0
   22.7968  -12.0141  -18.7936 C   0  0  2  0  0  0  0  0  0  0  0  0
   23.9263  -11.9200  -19.6614 N   0  0  0  0  0  0  0  0  0  0  0  0
   23.0452  -11.3594  -17.4529 C   0  0  0  0  0  0  0  0  0  0  0  0
   22.4898  -11.9093  -16.4967 O   0  0  0  0  0  0  0  0  0  0  0  0
   26.1879  -11.4382  -15.8213 N   0  0  0  0  0  0  0  0  0  0  0  0
   26.6535  -10.1216  -16.0229 C   0  0  0  0  0  0  0  0  0  0  0  0
   27.8876   -9.9128  -16.0390 O   0  0  0  0  0  0  0  0  0  0  0  0
   25.7102   -9.0171  -16.2102 C   0  0  0  0  0  0  0  0  0  0  0  0
   24.2570   -9.4683  -16.1682 C   0  0  2  0  0  0  0  0  0  0  0  0
   23.8246  -10.2420  -17.2886 N   0  0  0  0  0  0  0  0  0  0  0  0
   23.4624   -8.2157  -16.2068 C   0  0  0  0  0  0  0  0  0  0  0  0
   23.4376   -7.5743  -17.3169 O   0  0  0  0  0  0  0  0  0  0  0  0
   22.7362   -7.6959  -15.0937 N   0  0  0  0  0  0  0  0  0  0  0  0
   21.9941   -6.4403  -15.3274 C   0  0  1  0  0  0  0  0  0  0  0  0
   20.5533   -6.7559  -15.0078 C   0  0  0  0  0  0  0  0  0  0  0  0
   19.9036   -7.4493  -16.1185 C   0  0  0  0  0  0  0  0  0  0  0  0
   20.5420   -7.7636  -17.3288 C   0  0  0  0  0  0  0  0  0  0  0  0
   19.6656   -8.3907  -18.1157 N   0  0  0  0  0  0  0  0  0  0  0  0
   18.4880   -8.4995  -17.4775 C   0  0  0  0  0  0  0  0  0  0  0  0
   18.6635   -7.9247  -16.2808 N   0  0  0  0  0  0  0  0  0  0  0  0
   22.4996   -5.4296  -14.3496 C   0  0  0  0  0  0  0  0  0  0  0  0
   23.3551   -5.6427  -13.4669 O   0  0  0  0  0  0  0  0  0  0  0  0
   21.9882   -4.1194  -14.4026 O   0  0  0  0  0  0  0  0  0  0  0  0
  2  1  1  0
  3  2  2  0
  4  2  1  0
  5  6  1  0
  5  4  1  0
  6  7  1  6
  6  8  1  0
  8  9  2  0
 10 11  1  0
 11 12  2  0
 14 13  1  6
 13 11  1  0
 14 16  1  0
 15  8  1  0
 15 14  1  0
 16 17  2  0
 18 19  1  0
 18 16  1  0
 19 26  1  0
 19 20  1  1
 21 20  1  0
 22 21  2  0
 23 22  1  0
 24 23  1  0
 24 25  2  0
 25 21  1  0
 26 27  2  0
 26 28  1  0
M  END
$$$$
