QNH.pdb
     RDKit          3D

 28 28  0  0  1  0  0  0  0  0999 V2000
   20.9325  -12.1468    6.8831 N   0  0  0  0  0  0  0  0  0  0  0  0
   20.5213  -11.4420    5.6853 C   0  0  0  0  0  0  0  0  0  0  0  0
   21.2089  -10.4385    5.3692 O   0  0  0  0  0  0  0  0  0  0  0  0
   19.3573  -11.9714    4.9862 C   0  0  0  0  0  0  0  0  0  0  0  0
   18.7838  -13.2447    5.5262 C   0  0  0  0  0  0  0  0  0  0  0  0
   17.5707  -13.7290    4.8035 C   0  0  2  0  0  0  0  0  0  0  0  0
   16.4864  -12.8173    4.9793 N   0  0  0  0  0  0  0  0  0  0  0  0
   17.2224  -15.1307    5.2524 C   0  0  0  0  0  0  0  0  0  0  0  0
   16.3762  -15.1925    6.1497 O   0  0  0  0  0  0  0  0  0  0  0  0
   17.1039  -18.5803    1.5752 N   0  0  0  0  0  0  0  0  0  0  0  0
   16.8809  -18.6132    2.9679 C   0  0  0  0  0  0  0  0  0  0  0  0
   15.7032  -18.6472    3.3907 O   0  0  0  0  0  0  0  0  0  0  0  0
   18.0069  -18.6077    3.9044 C   0  0  0  0  0  0  0  0  0  0  0  0
   17.8037  -17.6453    5.0662 C   0  0  2  0  0  0  0  0  0  0  0  0
   17.7891  -16.2601    4.7169 N   0  0  0  0  0  0  0  0  0  0  0  0
   18.9909  -17.8339    5.9360 C   0  0  0  0  0  0  0  0  0  0  0  0
   20.1391  -17.6000    5.4151 O   0  0  0  0  0  0  0  0  0  0  0  0
   18.9243  -18.2537    7.2983 N   0  0  0  0  0  0  0  0  0  0  0  0
   20.2149  -18.3864    8.0043 C   0  0  1  0  0  0  0  0  0  0  0  0
   20.2511  -17.2519    8.9988 C   0  0  0  0  0  0  0  0  0  0  0  0
   21.4681  -17.2945    9.8074 C   0  0  0  0  0  0  0  0  0  0  0  0
   22.7331  -17.6376    9.3045 C   0  0  0  0  0  0  0  0  0  0  0  0
   23.6139  -17.5765   10.3049 N   0  0  0  0  0  0  0  0  0  0  0  0
   22.9844  -17.2110   11.4346 C   0  0  0  0  0  0  0  0  0  0  0  0
   21.6972  -17.0493   11.1026 N   0  0  0  0  0  0  0  0  0  0  0  0
   20.1915  -19.6835    8.7460 C   0  0  0  0  0  0  0  0  0  0  0  0
   21.1635  -20.1961    9.3366 O   0  0  0  0  0  0  0  0  0  0  0  0
   18.9882  -20.4117    8.8015 O   0  0  0  0  0  0  0  0  0  0  0  0
  2  1  1  0
  3  2  2  0
  4  2  1  0
  5  6  1  0
  5  4  1  0
  6  7  1  1
  6  8  1  0
  8  9  2  0
 10 11  1  0
 11 12  2  0
 14 13  1  6
 13 11  1  0
 14 16  1  0
 15  8  1  0
 15 14  1  0
 16 17  2  0
 18 19  1  0
 18 16  1  0
 19 26  1  0
 19 20  1  1
 21 20  1  0
 22 21  2  0
 23 22  1  0
 24 23  1  0
 24 25  2  0
 25 21  1  0
 26 27  2  0
 26 28  1  0
M  END
$$$$
