QNH.pdb
     RDKit          3D

 28 28  0  0  1  0  0  0  0  0999 V2000
   28.6320  -18.5612  -19.6549 N   0  0  0  0  0  0  0  0  0  0  0  0
   27.3546  -17.8965  -19.4908 C   0  0  0  0  0  0  0  0  0  0  0  0
   27.3435  -16.6575  -19.7009 O   0  0  0  0  0  0  0  0  0  0  0  0
   26.2304  -18.7361  -19.0970 C   0  0  0  0  0  0  0  0  0  0  0  0
   25.6089  -18.4299  -17.7697 C   0  0  0  0  0  0  0  0  0  0  0  0
   25.9980  -19.3686  -16.6762 C   0  0  2  0  0  0  0  0  0  0  0  0
   26.9401  -20.3292  -17.1531 N   0  0  0  0  0  0  0  0  0  0  0  0
   24.7663  -20.0160  -16.0831 C   0  0  0  0  0  0  0  0  0  0  0  0
   24.1071  -20.6975  -16.8742 O   0  0  0  0  0  0  0  0  0  0  0  0
   25.1742  -22.3609  -13.3893 N   0  0  0  0  0  0  0  0  0  0  0  0
   24.6334  -21.6602  -12.2905 C   0  0  0  0  0  0  0  0  0  0  0  0
   25.0002  -21.9722  -11.1351 O   0  0  0  0  0  0  0  0  0  0  0  0
   23.6595  -20.5861  -12.4965 C   0  0  0  0  0  0  0  0  0  0  0  0
   23.3225  -20.3685  -13.9650 C   0  0  2  0  0  0  0  0  0  0  0  0
   24.3926  -19.8718  -14.7706 N   0  0  0  0  0  0  0  0  0  0  0  0
   22.2831  -19.3096  -13.9699 C   0  0  0  0  0  0  0  0  0  0  0  0
   22.6822  -18.1007  -14.1239 O   0  0  0  0  0  0  0  0  0  0  0  0
   20.8867  -19.5604  -13.8158 N   0  0  0  0  0  0  0  0  0  0  0  0
   19.9753  -18.5271  -14.3482 C   0  0  1  0  0  0  0  0  0  0  0  0
   20.2378  -18.4820  -15.8337 C   0  0  0  0  0  0  0  0  0  0  0  0
   19.3538  -17.5269  -16.4994 C   0  0  0  0  0  0  0  0  0  0  0  0
   18.4189  -16.7230  -15.8282 C   0  0  0  0  0  0  0  0  0  0  0  0
   17.7837  -15.9737  -16.7312 N   0  0  0  0  0  0  0  0  0  0  0  0
   18.2587  -16.2508  -17.9575 C   0  0  0  0  0  0  0  0  0  0  0  0
   19.2002  -17.1872  -17.7843 N   0  0  0  0  0  0  0  0  0  0  0  0
   18.5760  -18.9971  -14.1150 C   0  0  0  0  0  0  0  0  0  0  0  0
   17.6230  -18.2781  -13.7530 O   0  0  0  0  0  0  0  0  0  0  0  0
   18.2758  -20.3581  -14.3114 O   0  0  0  0  0  0  0  0  0  0  0  0
  2  1  1  0
  3  2  2  0
  4  2  1  0
  5  6  1  0
  5  4  1  0
  6  7  1  6
  6  8  1  0
  8  9  2  0
 10 11  1  0
 11 12  2  0
 14 13  1  1
 13 11  1  0
 14 16  1  0
 15  8  1  0
 15 14  1  0
 16 17  2  0
 18 19  1  0
 18 16  1  0
 19 26  1  0
 19 20  1  6
 21 20  1  0
 22 21  2  0
 23 22  1  0
 24 23  1  0
 24 25  2  0
 25 21  1  0
 26 27  2  0
 26 28  1  0
M  END
$$$$
