QNH.pdb
     RDKit          3D

 28 28  0  0  1  0  0  0  0  0999 V2000
   30.0669  -22.1664  -10.7802 N   0  0  0  0  0  0  0  0  0  0  0  0
   29.7742  -21.3404   -9.6258 C   0  0  0  0  0  0  0  0  0  0  0  0
   30.7321  -21.1255   -8.8410 O   0  0  0  0  0  0  0  0  0  0  0  0
   28.4050  -20.8569   -9.5022 C   0  0  0  0  0  0  0  0  0  0  0  0
   27.4893  -21.1632  -10.6465 C   0  0  0  0  0  0  0  0  0  0  0  0
   26.4330  -20.1351  -10.8824 C   0  0  2  0  0  0  0  0  0  0  0  0
   26.1688  -19.4053   -9.6843 N   0  0  0  0  0  0  0  0  0  0  0  0
   25.1894  -20.7862  -11.4456 C   0  0  0  0  0  0  0  0  0  0  0  0
   25.3887  -21.8372  -12.0627 O   0  0  0  0  0  0  0  0  0  0  0  0
   21.5832  -20.9034   -8.1955 N   0  0  0  0  0  0  0  0  0  0  0  0
   21.5616  -21.3651   -9.5286 C   0  0  0  0  0  0  0  0  0  0  0  0
   21.5747  -22.5986   -9.7412 O   0  0  0  0  0  0  0  0  0  0  0  0
   21.5245  -20.4187  -10.6456 C   0  0  0  0  0  0  0  0  0  0  0  0
   22.6144  -20.6787  -11.6761 C   0  0  2  0  0  0  0  0  0  0  0  0
   23.9279  -20.2678  -11.2932 N   0  0  0  0  0  0  0  0  0  0  0  0
   22.2492  -19.8401  -12.8444 C   0  0  0  0  0  0  0  0  0  0  0  0
   22.0169  -18.5988  -12.6220 O   0  0  0  0  0  0  0  0  0  0  0  0
   22.1451  -20.3327  -14.1798 N   0  0  0  0  0  0  0  0  0  0  0  0
   21.7827  -19.3427  -15.2143 C   0  0  1  0  0  0  0  0  0  0  0  0
   22.2764  -19.9202  -16.5182 C   0  0  0  0  0  0  0  0  0  0  0  0
   21.9511  -19.0446  -17.6426 C   0  0  0  0  0  0  0  0  0  0  0  0
   22.2001  -17.6631  -17.6593 C   0  0  0  0  0  0  0  0  0  0  0  0
   21.7829  -17.1749  -18.8289 N   0  0  0  0  0  0  0  0  0  0  0  0
   21.2740  -18.1707  -19.5743 C   0  0  0  0  0  0  0  0  0  0  0  0
   21.3895  -19.2805  -18.8339 N   0  0  0  0  0  0  0  0  0  0  0  0
   20.2912  -19.2573  -15.2533 C   0  0  0  0  0  0  0  0  0  0  0  0
   19.5069  -20.1964  -15.0100 O   0  0  0  0  0  0  0  0  0  0  0  0
   19.6905  -18.0295  -15.5890 O   0  0  0  0  0  0  0  0  0  0  0  0
  2  1  1  0
  3  2  2  0
  4  2  1  0
  5  6  1  0
  5  4  1  0
  6  7  1  1
  6  8  1  0
  8  9  2  0
 10 11  1  0
 11 12  2  0
 14 13  1  1
 13 11  1  0
 14 16  1  0
 15  8  1  0
 15 14  1  0
 16 17  2  0
 18 19  1  0
 18 16  1  0
 19 26  1  0
 19 20  1  6
 21 20  1  0
 22 21  2  0
 23 22  1  0
 24 23  1  0
 24 25  2  0
 25 21  1  0
 26 27  2  0
 26 28  1  0
M  END
$$$$
