VWE.pdb
     RDKit          3D

 31 32  0  0  1  0  0  0  0  0999 V2000
    9.2631  -16.1782   19.8330 C   0  0  0  0  0  0  0  0  0  0  0  0
    8.0993  -15.2128   19.9623 C   0  0  1  0  0  0  0  0  0  0  0  0
    7.3050  -15.0804   18.6936 C   0  0  0  0  0  0  0  0  0  0  0  0
    7.2427  -15.5102   21.1832 C   0  0  2  0  0  0  0  0  0  0  0  0
    6.0994  -14.5872   21.1957 N   0  0  0  0  0  0  0  0  0  0  0  0
    7.9988  -15.4027   22.4530 C   0  0  0  0  0  0  0  0  0  0  0  0
    8.5985  -14.2987   22.6483 O   0  0  0  0  0  0  0  0  0  0  0  0
    8.0647  -16.4397   23.4044 N   0  0  0  0  0  0  0  0  0  0  0  0
    8.9008  -16.5064   24.5596 C   0  0  1  0  0  0  0  0  0  0  0  0
    8.1412  -16.4341   25.8832 C   0  0  0  0  0  0  0  0  0  0  0  0
    7.2893  -15.2014   25.9255 C   0  0  0  0  0  0  0  0  0  0  0  0
    5.9410  -15.1501   25.7041 C   0  0  0  0  0  0  0  0  0  0  0  0
    5.4814  -13.8612   25.8113 N   0  0  0  0  0  0  0  0  0  0  0  0
    6.5465  -13.1053   26.1000 C   0  0  0  0  0  0  0  0  0  0  0  0
    6.6044  -11.7410   26.3159 C   0  0  0  0  0  0  0  0  0  0  0  0
    7.8283  -11.1937   26.6140 C   0  0  0  0  0  0  0  0  0  0  0  0
    8.9720  -11.9750   26.6973 C   0  0  0  0  0  0  0  0  0  0  0  0
    8.8822  -13.3459   26.4742 C   0  0  0  0  0  0  0  0  0  0  0  0
    7.6778  -13.9098   26.1770 C   0  0  0  0  0  0  0  0  0  0  0  0
    9.8796  -17.5974   24.5092 C   0  0  0  0  0  0  0  0  0  0  0  0
    9.4809  -18.7710   24.2601 O   0  0  0  0  0  0  0  0  0  0  0  0
   11.2621  -17.4038   24.7289 N   0  0  0  0  0  0  0  0  0  0  0  0
   12.2726  -18.4354   24.7096 C   0  0  1  0  0  0  0  0  0  0  0  0
   13.4719  -17.9842   23.9115 C   0  0  0  0  0  0  0  0  0  0  0  0
   14.0351  -16.6707   24.3512 C   0  0  0  0  0  0  0  0  0  0  0  0
   14.9362  -16.0612   23.3481 C   0  0  0  0  0  0  0  0  0  0  0  0
   15.2360  -16.7307   22.3051 O   0  0  0  0  0  0  0  0  0  0  0  0
   12.7728  -18.6642   26.1031 C   0  0  0  0  0  0  0  0  0  0  0  0
   12.3348  -17.9537   27.0336 O   0  0  0  0  0  0  0  0  0  0  0  0
   15.4755  -14.7938   23.4813 O   0  0  0  0  0  0  0  0  0  0  0  0
   13.7073  -19.6396   26.3898 O   0  0  0  0  0  0  0  0  0  0  0  0
  2  1  1  6
  3  2  1  0
  4  5  1  1
  4  2  1  0
  6  8  1  0
  6  4  1  0
  7  6  2  0
  9 20  1  0
  9  8  1  0
  9 10  1  1
 11 10  1  0
 12 11  2  0
 13 14  1  0
 13 12  1  0
 14 19  2  0
 15 16  2  0
 15 14  1  0
 16 17  1  0
 17 18  2  0
 19 18  1  0
 19 11  1  0
 20 22  1  0
 21 20  2  0
 22 23  1  0
 23 28  1  0
 23 24  1  6
 25 24  1  0
 26 25  1  0
 27 26  2  0
 28 29  2  0
 28 31  1  0
 30 26  1  0
M  END
$$$$
