VWE.pdb
     RDKit          3D

 31 32  0  0  1  0  0  0  0  0999 V2000
    8.1696  -13.9048   17.4239 C   0  0  0  0  0  0  0  0  0  0  0  0
    8.7163  -13.7971   18.8355 C   0  0  1  0  0  0  0  0  0  0  0  0
    7.8516  -12.9604   19.7356 C   0  0  0  0  0  0  0  0  0  0  0  0
    9.0592  -15.1580   19.4211 C   0  0  2  0  0  0  0  0  0  0  0  0
    7.9847  -16.1024   19.0853 N   0  0  0  0  0  0  0  0  0  0  0  0
    9.2605  -15.1155   20.8885 C   0  0  0  0  0  0  0  0  0  0  0  0
   10.4390  -14.8392   21.2778 O   0  0  0  0  0  0  0  0  0  0  0  0
    8.2301  -15.3583   21.8182 N   0  0  0  0  0  0  0  0  0  0  0  0
    8.3196  -15.3234   23.2426 C   0  0  1  0  0  0  0  0  0  0  0  0
    7.0453  -14.8432   23.9350 C   0  0  0  0  0  0  0  0  0  0  0  0
    7.3534  -14.3855   25.3288 C   0  0  0  0  0  0  0  0  0  0  0  0
    8.1115  -15.0598   26.2455 C   0  0  0  0  0  0  0  0  0  0  0  0
    8.1817  -14.3601   27.4242 N   0  0  0  0  0  0  0  0  0  0  0  0
    7.4646  -13.2457   27.2431 C   0  0  0  0  0  0  0  0  0  0  0  0
    7.2367  -12.2112   28.1315 C   0  0  0  0  0  0  0  0  0  0  0  0
    6.4688  -11.1575   27.7002 C   0  0  0  0  0  0  0  0  0  0  0  0
    5.9360  -11.1238   26.4195 C   0  0  0  0  0  0  0  0  0  0  0  0
    6.1823  -12.1805   25.5476 C   0  0  0  0  0  0  0  0  0  0  0  0
    6.9416  -13.2362   25.9549 C   0  0  0  0  0  0  0  0  0  0  0  0
    8.8695  -16.5528   23.8229 C   0  0  0  0  0  0  0  0  0  0  0  0
    8.2000  -17.6226   23.7464 O   0  0  0  0  0  0  0  0  0  0  0  0
   10.1233  -16.6051   24.4729 N   0  0  0  0  0  0  0  0  0  0  0  0
   10.7830  -17.8019   24.9398 C   0  0  1  0  0  0  0  0  0  0  0  0
   12.1985  -17.8615   24.4188 C   0  0  0  0  0  0  0  0  0  0  0  0
   12.3080  -17.6946   22.9369 C   0  0  0  0  0  0  0  0  0  0  0  0
   13.6954  -17.8255   22.4396 C   0  0  0  0  0  0  0  0  0  0  0  0
   14.3469  -16.7676   22.1522 O   0  0  0  0  0  0  0  0  0  0  0  0
   10.8997  -17.7523   26.4326 C   0  0  0  0  0  0  0  0  0  0  0  0
   11.4277  -18.7112   27.0362 O   0  0  0  0  0  0  0  0  0  0  0  0
   14.3299  -19.0432   22.2680 O   0  0  0  0  0  0  0  0  0  0  0  0
   10.4385  -16.6750   27.1632 O   0  0  0  0  0  0  0  0  0  0  0  0
  2  1  1  6
  3  2  1  0
  4  5  1  1
  4  2  1  0
  6  8  1  0
  6  4  1  0
  7  6  2  0
  9 20  1  0
  9  8  1  0
  9 10  1  1
 11 10  1  0
 12 11  2  0
 13 14  1  0
 13 12  1  0
 14 19  2  0
 15 16  2  0
 15 14  1  0
 16 17  1  0
 17 18  2  0
 19 18  1  0
 19 11  1  0
 20 22  1  0
 21 20  2  0
 22 23  1  0
 23 28  1  0
 23 24  1  6
 25 24  1  0
 26 25  1  0
 27 26  2  0
 28 29  2  0
 28 31  1  0
 30 26  1  0
M  END
$$$$
