VWE.pdb
     RDKit          3D

 31 32  0  0  1  0  0  0  0  0999 V2000
    8.0261  -12.4639   20.3865 C   0  0  0  0  0  0  0  0  0  0  0  0
    7.4767  -13.8493   20.1002 C   0  0  1  0  0  0  0  0  0  0  0  0
    7.1923  -14.0763   18.6423 C   0  0  0  0  0  0  0  0  0  0  0  0
    8.3278  -14.9426   20.7272 C   0  0  2  0  0  0  0  0  0  0  0  0
    7.7220  -16.2466   20.4241 N   0  0  0  0  0  0  0  0  0  0  0  0
    8.4810  -14.7796   22.1919 C   0  0  0  0  0  0  0  0  0  0  0  0
    7.7601  -13.8793   22.7271 O   0  0  0  0  0  0  0  0  0  0  0  0
    9.3592  -15.5600   22.9695 N   0  0  0  0  0  0  0  0  0  0  0  0
    9.1483  -16.0432   24.2962 C   0  0  1  0  0  0  0  0  0  0  0  0
    7.6772  -16.2258   24.6659 C   0  0  0  0  0  0  0  0  0  0  0  0
    7.1127  -14.9425   25.1966 C   0  0  0  0  0  0  0  0  0  0  0  0
    5.8398  -14.4837   24.9991 C   0  0  0  0  0  0  0  0  0  0  0  0
    5.6610  -13.2710   25.6166 N   0  0  0  0  0  0  0  0  0  0  0  0
    6.8263  -12.9715   26.2010 C   0  0  0  0  0  0  0  0  0  0  0  0
    7.1540  -11.8598   26.9547 C   0  0  0  0  0  0  0  0  0  0  0  0
    8.4271  -11.7874   27.4645 C   0  0  0  0  0  0  0  0  0  0  0  0
    9.3587  -12.7901   27.2361 C   0  0  0  0  0  0  0  0  0  0  0  0
    8.9994  -13.8972   26.4727 C   0  0  0  0  0  0  0  0  0  0  0  0
    7.7414  -13.9893   25.9571 C   0  0  0  0  0  0  0  0  0  0  0  0
    9.9815  -17.2016   24.6347 C   0  0  0  0  0  0  0  0  0  0  0  0
    9.4398  -18.3389   24.7430 O   0  0  0  0  0  0  0  0  0  0  0  0
   11.3753  -17.1123   24.8505 N   0  0  0  0  0  0  0  0  0  0  0  0
   12.2447  -18.2057   25.2169 C   0  0  1  0  0  0  0  0  0  0  0  0
   13.6897  -17.8256   25.0017 C   0  0  0  0  0  0  0  0  0  0  0  0
   13.9635  -17.2094   23.6671 C   0  0  0  0  0  0  0  0  0  0  0  0
   15.2548  -16.4887   23.6152 C   0  0  0  0  0  0  0  0  0  0  0  0
   16.2982  -17.1242   23.2498 O   0  0  0  0  0  0  0  0  0  0  0  0
   12.1083  -18.4760   26.6842 C   0  0  0  0  0  0  0  0  0  0  0  0
   12.7208  -19.4429   27.1866 O   0  0  0  0  0  0  0  0  0  0  0  0
   15.3930  -15.1517   23.9439 O   0  0  0  0  0  0  0  0  0  0  0  0
   11.3223  -17.6860   27.4997 O   0  0  0  0  0  0  0  0  0  0  0  0
  2  1  1  6
  3  2  1  0
  4  5  1  1
  4  2  1  0
  6  8  1  0
  6  4  1  0
  7  6  2  0
  9 20  1  0
  9  8  1  0
  9 10  1  6
 11 10  1  0
 12 11  2  0
 13 14  1  0
 13 12  1  0
 14 19  2  0
 15 16  2  0
 15 14  1  0
 16 17  1  0
 17 18  2  0
 19 18  1  0
 19 11  1  0
 20 22  1  0
 21 20  2  0
 22 23  1  0
 23 28  1  0
 23 24  1  1
 25 24  1  0
 26 25  1  0
 27 26  2  0
 28 29  2  0
 28 31  1  0
 30 26  1  0
M  END
$$$$
