VWE.pdb
     RDKit          3D

 31 32  0  0  1  0  0  0  0  0999 V2000
    8.9811  -12.3850   20.5290 C   0  0  0  0  0  0  0  0  0  0  0  0
    7.8250  -13.3564   20.6805 C   0  0  1  0  0  0  0  0  0  0  0  0
    6.7862  -13.2019   19.6059 C   0  0  0  0  0  0  0  0  0  0  0  0
    8.3020  -14.7895   20.8582 C   0  0  2  0  0  0  0  0  0  0  0  0
    7.1567  -15.6942   20.6882 N   0  0  0  0  0  0  0  0  0  0  0  0
    8.9434  -15.0204   22.1738 C   0  0  0  0  0  0  0  0  0  0  0  0
    9.9970  -14.3461   22.4019 O   0  0  0  0  0  0  0  0  0  0  0  0
    8.4394  -15.9211   23.1328 N   0  0  0  0  0  0  0  0  0  0  0  0
    9.0175  -16.2609   24.3932 C   0  0  1  0  0  0  0  0  0  0  0  0
    7.9957  -16.4856   25.5065 C   0  0  0  0  0  0  0  0  0  0  0  0
    7.1389  -15.2676   25.6777 C   0  0  0  0  0  0  0  0  0  0  0  0
    5.8190  -15.1610   25.3369 C   0  0  0  0  0  0  0  0  0  0  0  0
    5.3459  -13.9040   25.6201 N   0  0  0  0  0  0  0  0  0  0  0  0
    6.3740  -13.2235   26.1388 C   0  0  0  0  0  0  0  0  0  0  0  0
    6.4047  -11.9180   26.5925 C   0  0  0  0  0  0  0  0  0  0  0  0
    7.5907  -11.4467   27.0999 C   0  0  0  0  0  0  0  0  0  0  0  0
    8.7236  -12.2457   27.1588 C   0  0  0  0  0  0  0  0  0  0  0  0
    8.6619  -13.5562   26.6938 C   0  0  0  0  0  0  0  0  0  0  0  0
    7.4953  -14.0442   26.1862 C   0  0  0  0  0  0  0  0  0  0  0  0
   10.0257  -17.3222   24.3055 C   0  0  0  0  0  0  0  0  0  0  0  0
    9.8819  -18.2383   23.4460 O   0  0  0  0  0  0  0  0  0  0  0  0
   11.1629  -17.3767   25.1428 N   0  0  0  0  0  0  0  0  0  0  0  0
   12.1594  -18.4219   25.1463 C   0  0  1  0  0  0  0  0  0  0  0  0
   13.2741  -18.0913   24.1835 C   0  0  0  0  0  0  0  0  0  0  0  0
   13.6316  -16.6400   24.1432 C   0  0  0  0  0  0  0  0  0  0  0  0
   14.7109  -16.3353   23.1780 C   0  0  0  0  0  0  0  0  0  0  0  0
   14.4004  -16.1020   21.9634 O   0  0  0  0  0  0  0  0  0  0  0  0
   12.7974  -18.4928   26.5000 C   0  0  0  0  0  0  0  0  0  0  0  0
   13.6390  -19.3873   26.7325 O   0  0  0  0  0  0  0  0  0  0  0  0
   16.0499  -16.2890   23.5243 O   0  0  0  0  0  0  0  0  0  0  0  0
   12.4807  -17.5964   27.5015 O   0  0  0  0  0  0  0  0  0  0  0  0
  2  1  1  6
  3  2  1  0
  4  5  1  1
  4  2  1  0
  6  8  1  0
  6  4  1  0
  7  6  2  0
  9 20  1  0
  9  8  1  0
  9 10  1  1
 11 10  1  0
 12 11  2  0
 13 14  1  0
 13 12  1  0
 14 19  2  0
 15 16  2  0
 15 14  1  0
 16 17  1  0
 17 18  2  0
 19 18  1  0
 19 11  1  0
 20 22  1  0
 21 20  2  0
 22 23  1  0
 23 28  1  0
 23 24  1  6
 25 24  1  0
 26 25  1  0
 27 26  2  0
 28 29  2  0
 28 31  1  0
 30 26  1  0
M  END
$$$$
