VWE.pdb
     RDKit          3D

 31 32  0  0  1  0  0  0  0  0999 V2000
    7.1223  -17.9923   18.4875 C   0  0  0  0  0  0  0  0  0  0  0  0
    8.0023  -17.7297   19.6957 C   0  0  1  0  0  0  0  0  0  0  0  0
    9.4416  -18.0923   19.4612 C   0  0  0  0  0  0  0  0  0  0  0  0
    7.8151  -16.3239   20.2446 C   0  0  2  0  0  0  0  0  0  0  0  0
    8.2027  -15.3558   19.2093 N   0  0  0  0  0  0  0  0  0  0  0  0
    8.5925  -16.0846   21.4831 C   0  0  0  0  0  0  0  0  0  0  0  0
    9.7341  -15.5474   21.3249 O   0  0  0  0  0  0  0  0  0  0  0  0
    8.1218  -16.4175   22.7686 N   0  0  0  0  0  0  0  0  0  0  0  0
    8.8242  -16.3057   24.0065 C   0  0  1  0  0  0  0  0  0  0  0  0
    7.9182  -16.2801   25.2364 C   0  0  0  0  0  0  0  0  0  0  0  0
    7.1254  -15.0083   25.2701 C   0  0  0  0  0  0  0  0  0  0  0  0
    5.9328  -14.7894   24.6381 C   0  0  0  0  0  0  0  0  0  0  0  0
    5.4882  -13.5121   24.8720 N   0  0  0  0  0  0  0  0  0  0  0  0
    6.4066  -12.9314   25.6520 C   0  0  0  0  0  0  0  0  0  0  0  0
    6.4134  -11.6502   26.1714 C   0  0  0  0  0  0  0  0  0  0  0  0
    7.4741  -11.2895   26.9657 C   0  0  0  0  0  0  0  0  0  0  0  0
    8.5073  -12.1734   27.2425 C   0  0  0  0  0  0  0  0  0  0  0  0
    8.4728  -13.4567   26.7048 C   0  0  0  0  0  0  0  0  0  0  0  0
    7.4298  -13.8356   25.9138 C   0  0  0  0  0  0  0  0  0  0  0  0
    9.9447  -17.2439   24.1284 C   0  0  0  0  0  0  0  0  0  0  0  0
    9.7329  -18.4799   23.9671 O   0  0  0  0  0  0  0  0  0  0  0  0
   11.2650  -16.8344   24.4220 N   0  0  0  0  0  0  0  0  0  0  0  0
   12.3833  -17.7111   24.6798 C   0  0  1  0  0  0  0  0  0  0  0  0
   13.6858  -16.9634   24.5275 C   0  0  0  0  0  0  0  0  0  0  0  0
   14.1323  -16.8034   23.1095 C   0  0  0  0  0  0  0  0  0  0  0  0
   15.2758  -15.8759   22.9628 C   0  0  0  0  0  0  0  0  0  0  0  0
   15.0944  -14.7688   22.3566 O   0  0  0  0  0  0  0  0  0  0  0  0
   12.3378  -18.1644   26.1070 C   0  0  0  0  0  0  0  0  0  0  0  0
   13.1832  -18.9911   26.5125 O   0  0  0  0  0  0  0  0  0  0  0  0
   16.5417  -16.1465   23.4517 O   0  0  0  0  0  0  0  0  0  0  0  0
   11.3853  -17.6948   26.9897 O   0  0  0  0  0  0  0  0  0  0  0  0
  2  1  1  6
  3  2  1  0
  4  5  1  6
  4  2  1  0
  6  8  1  0
  6  4  1  0
  7  6  2  0
  9 20  1  0
  9  8  1  0
  9 10  1  1
 11 10  1  0
 12 11  2  0
 13 14  1  0
 13 12  1  0
 14 19  2  0
 15 16  2  0
 15 14  1  0
 16 17  1  0
 17 18  2  0
 19 18  1  0
 19 11  1  0
 20 22  1  0
 21 20  2  0
 22 23  1  0
 23 28  1  0
 23 24  1  1
 25 24  1  0
 26 25  1  0
 27 26  2  0
 28 29  2  0
 28 31  1  0
 30 26  1  0
M  END
$$$$
