VWE.pdb
     RDKit          3D

 31 32  0  0  1  0  0  0  0  0999 V2000
    6.8022  -15.5873   18.3757 C   0  0  0  0  0  0  0  0  0  0  0  0
    7.6582  -15.8186   19.6074 C   0  0  1  0  0  0  0  0  0  0  0  0
    9.0895  -16.1329   19.2748 C   0  0  0  0  0  0  0  0  0  0  0  0
    7.5064  -14.7007   20.6272 C   0  0  2  0  0  0  0  0  0  0  0  0
    7.8817  -13.4286   19.9947 N   0  0  0  0  0  0  0  0  0  0  0  0
    8.3190  -14.9234   21.8460 C   0  0  0  0  0  0  0  0  0  0  0  0
    9.5001  -14.4534   21.8173 O   0  0  0  0  0  0  0  0  0  0  0  0
    7.8398  -15.6061   22.9814 N   0  0  0  0  0  0  0  0  0  0  0  0
    8.5595  -15.9208   24.1735 C   0  0  1  0  0  0  0  0  0  0  0  0
    7.6727  -16.1267   25.4004 C   0  0  0  0  0  0  0  0  0  0  0  0
    6.8511  -14.8997   25.6582 C   0  0  0  0  0  0  0  0  0  0  0  0
    5.4874  -14.8200   25.5974 C   0  0  0  0  0  0  0  0  0  0  0  0
    5.0639  -13.5455   25.8803 N   0  0  0  0  0  0  0  0  0  0  0  0
    6.1668  -12.8270   26.1179 C   0  0  0  0  0  0  0  0  0  0  0  0
    6.2708  -11.4907   26.4568 C   0  0  0  0  0  0  0  0  0  0  0  0
    7.5291  -10.9816   26.6655 C   0  0  0  0  0  0  0  0  0  0  0  0
    8.6621  -11.7732   26.5424 C   0  0  0  0  0  0  0  0  0  0  0  0
    8.5255  -13.1152   26.1994 C   0  0  0  0  0  0  0  0  0  0  0  0
    7.2863  -13.6410   25.9877 C   0  0  0  0  0  0  0  0  0  0  0  0
    9.5557  -16.9815   23.9909 C   0  0  0  0  0  0  0  0  0  0  0  0
    9.5377  -17.6664   22.9283 O   0  0  0  0  0  0  0  0  0  0  0  0
   10.5460  -17.2834   24.9528 N   0  0  0  0  0  0  0  0  0  0  0  0
   11.8076  -17.9352   24.6898 C   0  0  1  0  0  0  0  0  0  0  0  0
   12.6738  -17.0709   23.8059 C   0  0  0  0  0  0  0  0  0  0  0  0
   13.9918  -17.6858   23.4587 C   0  0  0  0  0  0  0  0  0  0  0  0
   14.7706  -16.8806   22.4919 C   0  0  0  0  0  0  0  0  0  0  0  0
   16.0258  -16.7485   22.6737 O   0  0  0  0  0  0  0  0  0  0  0  0
   12.5621  -18.0896   25.9749 C   0  0  0  0  0  0  0  0  0  0  0  0
   13.6378  -18.7262   25.9788 O   0  0  0  0  0  0  0  0  0  0  0  0
   14.2065  -16.2583   21.3922 O   0  0  0  0  0  0  0  0  0  0  0  0
   12.1016  -17.5480   27.1587 O   0  0  0  0  0  0  0  0  0  0  0  0
  2  1  1  6
  3  2  1  0
  4  5  1  6
  4  2  1  0
  6  8  1  0
  6  4  1  0
  7  6  2  0
  9 20  1  0
  9  8  1  0
  9 10  1  1
 11 10  1  0
 12 11  2  0
 13 14  1  0
 13 12  1  0
 14 19  2  0
 15 16  2  0
 15 14  1  0
 16 17  1  0
 17 18  2  0
 19 18  1  0
 19 11  1  0
 20 22  1  0
 21 20  2  0
 22 23  1  0
 23 28  1  0
 23 24  1  6
 25 24  1  0
 26 25  1  0
 27 26  2  0
 28 29  2  0
 28 31  1  0
 30 26  1  0
M  END
$$$$
