VWE.pdb
     RDKit          3D

 31 32  0  0  1  0  0  0  0  0999 V2000
    9.2959  -19.3321   18.8655 C   0  0  0  0  0  0  0  0  0  0  0  0
    9.7384  -18.7779   20.2072 C   0  0  1  0  0  0  0  0  0  0  0  0
   11.2324  -18.6821   20.3368 C   0  0  0  0  0  0  0  0  0  0  0  0
    9.0174  -17.4858   20.5580 C   0  0  2  0  0  0  0  0  0  0  0  0
    9.3505  -16.4692   19.5506 N   0  0  0  0  0  0  0  0  0  0  0  0
    9.3559  -16.9909   21.9130 C   0  0  0  0  0  0  0  0  0  0  0  0
   10.3731  -16.2315   21.9868 O   0  0  0  0  0  0  0  0  0  0  0  0
    8.6148  -17.3210   23.0648 N   0  0  0  0  0  0  0  0  0  0  0  0
    8.8884  -16.9384   24.4128 C   0  0  1  0  0  0  0  0  0  0  0  0
    7.6407  -16.7726   25.2785 C   0  0  0  0  0  0  0  0  0  0  0  0
    7.0380  -15.4167   25.0653 C   0  0  0  0  0  0  0  0  0  0  0  0
    6.0830  -15.0999   24.1394 C   0  0  0  0  0  0  0  0  0  0  0  0
    5.7643  -13.7667   24.2094 N   0  0  0  0  0  0  0  0  0  0  0  0
    6.5232  -13.2494   25.1817 C   0  0  0  0  0  0  0  0  0  0  0  0
    6.5656  -11.9471   25.6440 C   0  0  0  0  0  0  0  0  0  0  0  0
    7.4286  -11.6636   26.6740 C   0  0  0  0  0  0  0  0  0  0  0  0
    8.2338  -12.6435   27.2369 C   0  0  0  0  0  0  0  0  0  0  0  0
    8.1693  -13.9457   26.7498 C   0  0  0  0  0  0  0  0  0  0  0  0
    7.3200  -14.2491   25.7282 C   0  0  0  0  0  0  0  0  0  0  0  0
    9.9343  -17.7468   25.0479 C   0  0  0  0  0  0  0  0  0  0  0  0
    9.7202  -18.9750   25.2584 O   0  0  0  0  0  0  0  0  0  0  0  0
   11.1839  -17.2184   25.4435 N   0  0  0  0  0  0  0  0  0  0  0  0
   12.2286  -17.9434   26.1279 C   0  0  1  0  0  0  0  0  0  0  0  0
   13.5715  -17.3049   25.8675 C   0  0  0  0  0  0  0  0  0  0  0  0
   14.0466  -17.4431   24.4566 C   0  0  0  0  0  0  0  0  0  0  0  0
   14.9937  -16.3788   24.0568 C   0  0  0  0  0  0  0  0  0  0  0  0
   14.8661  -15.8440   22.9062 O   0  0  0  0  0  0  0  0  0  0  0  0
   12.0109  -17.8466   27.6070 C   0  0  0  0  0  0  0  0  0  0  0  0
   12.7764  -18.4639   28.3787 O   0  0  0  0  0  0  0  0  0  0  0  0
   16.0187  -15.9284   24.8700 O   0  0  0  0  0  0  0  0  0  0  0  0
   10.9853  -17.0938   28.1438 O   0  0  0  0  0  0  0  0  0  0  0  0
  2  1  1  6
  3  2  1  0
  4  5  1  6
  4  2  1  0
  6  8  1  0
  6  4  1  0
  7  6  2  0
  9 20  1  0
  9  8  1  0
  9 10  1  1
 11 10  1  0
 12 11  2  0
 13 14  1  0
 13 12  1  0
 14 19  2  0
 15 16  2  0
 15 14  1  0
 16 17  1  0
 17 18  2  0
 19 18  1  0
 19 11  1  0
 20 22  1  0
 21 20  2  0
 22 23  1  0
 23 28  1  0
 23 24  1  1
 25 24  1  0
 26 25  1  0
 27 26  2  0
 28 29  2  0
 28 31  1  0
 30 26  1  0
M  END
$$$$
