VWE.pdb
     RDKit          3D

 31 32  0  0  1  0  0  0  0  0999 V2000
    8.3152  -12.8231   20.6050 C   0  0  0  0  0  0  0  0  0  0  0  0
    7.3793  -13.9815   20.8966 C   0  0  1  0  0  0  0  0  0  0  0  0
    6.2777  -14.1133   19.8832 C   0  0  0  0  0  0  0  0  0  0  0  0
    8.1342  -15.2789   21.1406 C   0  0  2  0  0  0  0  0  0  0  0  0
    7.1995  -16.4041   21.0008 N   0  0  0  0  0  0  0  0  0  0  0  0
    8.7867  -15.3203   22.4703 C   0  0  0  0  0  0  0  0  0  0  0  0
    9.6697  -14.4300   22.6815 O   0  0  0  0  0  0  0  0  0  0  0  0
    8.4678  -16.2715   23.4594 N   0  0  0  0  0  0  0  0  0  0  0  0
    9.0220  -16.3801   24.7706 C   0  0  1  0  0  0  0  0  0  0  0  0
    7.9781  -16.4734   25.8821 C   0  0  0  0  0  0  0  0  0  0  0  0
    7.1122  -15.2497   25.8845 C   0  0  0  0  0  0  0  0  0  0  0  0
    5.7882  -15.2032   25.5460 C   0  0  0  0  0  0  0  0  0  0  0  0
    5.3069  -13.9220   25.6493 N   0  0  0  0  0  0  0  0  0  0  0  0
    6.3339  -13.1661   26.0530 C   0  0  0  0  0  0  0  0  0  0  0  0
    6.3574  -11.8083   26.3126 C   0  0  0  0  0  0  0  0  0  0  0  0
    7.5441  -11.2599   26.7337 C   0  0  0  0  0  0  0  0  0  0  0  0
    8.6845  -12.0337   26.8954 C   0  0  0  0  0  0  0  0  0  0  0  0
    8.6299  -13.3980   26.6257 C   0  0  0  0  0  0  0  0  0  0  0  0
    7.4627  -13.9630   26.2066 C   0  0  0  0  0  0  0  0  0  0  0  0
   10.0767  -17.3936   24.8761 C   0  0  0  0  0  0  0  0  0  0  0  0
    9.7532  -18.6140   24.9428 O   0  0  0  0  0  0  0  0  0  0  0  0
   11.4529  -17.0739   24.9095 N   0  0  0  0  0  0  0  0  0  0  0  0
   12.5371  -18.0209   25.0242 C   0  0  1  0  0  0  0  0  0  0  0  0
   13.8367  -17.3906   24.5852 C   0  0  0  0  0  0  0  0  0  0  0  0
   13.7904  -16.7946   23.2147 C   0  0  0  0  0  0  0  0  0  0  0  0
   14.8850  -15.8308   22.9643 C   0  0  0  0  0  0  0  0  0  0  0  0
   15.7250  -15.6004   23.8956 O   0  0  0  0  0  0  0  0  0  0  0  0
   12.7264  -18.3843   26.4652 C   0  0  0  0  0  0  0  0  0  0  0  0
   13.5782  -19.2466   26.7709 O   0  0  0  0  0  0  0  0  0  0  0  0
   15.0481  -15.1605   21.7648 O   0  0  0  0  0  0  0  0  0  0  0  0
   11.9840  -17.7931   27.4683 O   0  0  0  0  0  0  0  0  0  0  0  0
  2  1  1  6
  3  2  1  0
  4  5  1  1
  4  2  1  0
  6  8  1  0
  6  4  1  0
  7  6  2  0
  9 20  1  0
  9  8  1  0
  9 10  1  1
 11 10  1  0
 12 11  2  0
 13 14  1  0
 13 12  1  0
 14 19  2  0
 15 16  2  0
 15 14  1  0
 16 17  1  0
 17 18  2  0
 19 18  1  0
 19 11  1  0
 20 22  1  0
 21 20  2  0
 22 23  1  0
 23 28  1  0
 23 24  1  1
 25 24  1  0
 26 25  1  0
 27 26  2  0
 28 29  2  0
 28 31  1  0
 30 26  1  0
M  END
$$$$
