VWE.pdb
     RDKit          3D

 31 32  0  0  1  0  0  0  0  0999 V2000
    7.6662  -14.3511   18.7649 C   0  0  0  0  0  0  0  0  0  0  0  0
    8.1152  -14.1189   20.1958 C   0  0  1  0  0  0  0  0  0  0  0  0
    7.7188  -12.7683   20.7217 C   0  0  0  0  0  0  0  0  0  0  0  0
    7.7175  -15.2649   21.1129 C   0  0  2  0  0  0  0  0  0  0  0  0
    6.2520  -15.3045   21.2130 N   0  0  0  0  0  0  0  0  0  0  0  0
    8.3178  -15.1527   22.4629 C   0  0  0  0  0  0  0  0  0  0  0  0
    8.5919  -13.9731   22.8505 O   0  0  0  0  0  0  0  0  0  0  0  0
    8.5773  -16.2639   23.2892 N   0  0  0  0  0  0  0  0  0  0  0  0
    9.3072  -16.2823   24.5160 C   0  0  1  0  0  0  0  0  0  0  0  0
    8.4281  -16.3701   25.7624 C   0  0  0  0  0  0  0  0  0  0  0  0
    7.3912  -15.2878   25.7430 C   0  0  0  0  0  0  0  0  0  0  0  0
    6.1186  -15.4046   25.2568 C   0  0  0  0  0  0  0  0  0  0  0  0
    5.4401  -14.2185   25.3860 N   0  0  0  0  0  0  0  0  0  0  0  0
    6.2923  -13.3581   25.9541 C   0  0  0  0  0  0  0  0  0  0  0  0
    6.0820  -12.0366   26.3017 C   0  0  0  0  0  0  0  0  0  0  0  0
    7.1207  -11.3593   26.8922 C   0  0  0  0  0  0  0  0  0  0  0  0
    8.3419  -11.9718   27.1350 C   0  0  0  0  0  0  0  0  0  0  0  0
    8.5237  -13.3035   26.7733 C   0  0  0  0  0  0  0  0  0  0  0  0
    7.5064  -13.9944   26.1861 C   0  0  0  0  0  0  0  0  0  0  0  0
   10.4188  -17.2388   24.5192 C   0  0  0  0  0  0  0  0  0  0  0  0
   10.1652  -18.4774   24.5171 O   0  0  0  0  0  0  0  0  0  0  0  0
   11.7758  -16.8441   24.5265 N   0  0  0  0  0  0  0  0  0  0  0  0
   12.9094  -17.7215   24.7012 C   0  0  1  0  0  0  0  0  0  0  0  0
   14.1998  -16.9552   24.5381 C   0  0  0  0  0  0  0  0  0  0  0  0
   14.2823  -16.1674   23.2700 C   0  0  0  0  0  0  0  0  0  0  0  0
   15.6713  -15.8337   22.8840 C   0  0  0  0  0  0  0  0  0  0  0  0
   16.0948  -14.6471   23.0808 O   0  0  0  0  0  0  0  0  0  0  0  0
   12.9196  -18.2430   26.1057 C   0  0  0  0  0  0  0  0  0  0  0  0
   13.5604  -19.2842   26.3660 O   0  0  0  0  0  0  0  0  0  0  0  0
   16.5429  -16.7465   22.3166 O   0  0  0  0  0  0  0  0  0  0  0  0
   12.2385  -17.6052   27.1237 O   0  0  0  0  0  0  0  0  0  0  0  0
  2  1  1  6
  3  2  1  0
  4  5  1  1
  4  2  1  0
  6  8  1  0
  6  4  1  0
  7  6  2  0
  9 20  1  0
  9  8  1  0
  9 10  1  1
 11 10  1  0
 12 11  2  0
 13 14  1  0
 13 12  1  0
 14 19  2  0
 15 16  2  0
 15 14  1  0
 16 17  1  0
 17 18  2  0
 19 18  1  0
 19 11  1  0
 20 22  1  0
 21 20  2  0
 22 23  1  0
 23 28  1  0
 23 24  1  1
 25 24  1  0
 26 25  1  0
 27 26  2  0
 28 29  2  0
 28 31  1  0
 30 26  1  0
M  END
$$$$
