VWE.pdb
     RDKit          3D

 31 32  0  0  1  0  0  0  0  0999 V2000
    8.2898  -16.4748   19.4612 C   0  0  0  0  0  0  0  0  0  0  0  0
    8.4049  -14.9837   19.2032 C   0  0  1  0  0  0  0  0  0  0  0  0
    7.8838  -14.5815   17.8524 C   0  0  0  0  0  0  0  0  0  0  0  0
    7.8270  -14.1600   20.3435 C   0  0  2  0  0  0  0  0  0  0  0  0
    7.9720  -12.7343   20.0186 N   0  0  0  0  0  0  0  0  0  0  0  0
    8.4703  -14.4541   21.6455 C   0  0  0  0  0  0  0  0  0  0  0  0
    9.5190  -13.7849   21.9085 O   0  0  0  0  0  0  0  0  0  0  0  0
    7.9731  -15.4070   22.5564 N   0  0  0  0  0  0  0  0  0  0  0  0
    8.4448  -15.6745   23.8771 C   0  0  1  0  0  0  0  0  0  0  0  0
    7.3477  -16.0801   24.8599 C   0  0  0  0  0  0  0  0  0  0  0  0
    6.6855  -14.8619   25.4297 C   0  0  0  0  0  0  0  0  0  0  0  0
    5.3388  -14.6754   25.5763 C   0  0  0  0  0  0  0  0  0  0  0  0
    5.0774  -13.4434   26.1220 N   0  0  0  0  0  0  0  0  0  0  0  0
    6.2646  -12.8587   26.3160 C   0  0  0  0  0  0  0  0  0  0  0  0
    6.5369  -11.6137   26.8519 C   0  0  0  0  0  0  0  0  0  0  0  0
    7.8541  -11.2405   26.9613 C   0  0  0  0  0  0  0  0  0  0  0  0
    8.8821  -12.0771   26.5506 C   0  0  0  0  0  0  0  0  0  0  0  0
    8.5766  -13.3247   26.0144 C   0  0  0  0  0  0  0  0  0  0  0  0
    7.2763  -13.7151   25.8967 C   0  0  0  0  0  0  0  0  0  0  0  0
    9.6132  -16.5601   23.9112 C   0  0  0  0  0  0  0  0  0  0  0  0
    9.8390  -17.2415   24.9520 O   0  0  0  0  0  0  0  0  0  0  0  0
   10.5123  -16.6925   22.8289 N   0  0  0  0  0  0  0  0  0  0  0  0
   11.6473  -17.5840   22.7785 C   0  0  1  0  0  0  0  0  0  0  0  0
   12.3861  -17.4240   21.4718 C   0  0  0  0  0  0  0  0  0  0  0  0
   11.5525  -17.7088   20.2637 C   0  0  0  0  0  0  0  0  0  0  0  0
   12.2812  -17.4975   18.9933 C   0  0  0  0  0  0  0  0  0  0  0  0
   13.4836  -17.0753   19.0383 O   0  0  0  0  0  0  0  0  0  0  0  0
   12.6240  -17.2027   23.8486 C   0  0  0  0  0  0  0  0  0  0  0  0
   12.3967  -16.1946   24.5519 O   0  0  0  0  0  0  0  0  0  0  0  0
   11.7247  -17.7354   17.7489 O   0  0  0  0  0  0  0  0  0  0  0  0
   13.7721  -17.9342   24.0802 O   0  0  0  0  0  0  0  0  0  0  0  0
  2  1  1  1
  3  2  1  0
  4  5  1  6
  4  2  1  0
  6  8  1  0
  6  4  1  0
  7  6  2  0
  9 20  1  0
  9  8  1  0
  9 10  1  1
 11 10  1  0
 12 11  2  0
 13 14  1  0
 13 12  1  0
 14 19  2  0
 15 16  2  0
 15 14  1  0
 16 17  1  0
 17 18  2  0
 19 18  1  0
 19 11  1  0
 20 22  1  0
 21 20  2  0
 22 23  1  0
 23 28  1  0
 23 24  1  6
 25 24  1  0
 26 25  1  0
 27 26  2  0
 28 29  2  0
 28 31  1  0
 30 26  1  0
M  END
$$$$
