VWE.pdb
     RDKit          3D

 31 32  0  0  1  0  0  0  0  0999 V2000
    7.8171  -13.5539   17.0780 C   0  0  0  0  0  0  0  0  0  0  0  0
    8.2848  -13.5040   18.5209 C   0  0  1  0  0  0  0  0  0  0  0  0
    7.3495  -12.7376   19.4130 C   0  0  0  0  0  0  0  0  0  0  0  0
    8.6356  -14.8836   19.0562 C   0  0  2  0  0  0  0  0  0  0  0  0
    7.5386  -15.8080   18.7380 N   0  0  0  0  0  0  0  0  0  0  0  0
    8.8947  -14.8827   20.5151 C   0  0  0  0  0  0  0  0  0  0  0  0
   10.0605  -14.5199   20.8700 O   0  0  0  0  0  0  0  0  0  0  0  0
    7.9295  -15.2523   21.4725 N   0  0  0  0  0  0  0  0  0  0  0  0
    8.1012  -15.3479   22.8866 C   0  0  1  0  0  0  0  0  0  0  0  0
    6.7917  -15.4395   23.6681 C   0  0  0  0  0  0  0  0  0  0  0  0
    7.0386  -15.1879   25.1251 C   0  0  0  0  0  0  0  0  0  0  0  0
    7.3492  -16.1348   26.0614 C   0  0  0  0  0  0  0  0  0  0  0  0
    7.4992  -15.5608   27.2991 N   0  0  0  0  0  0  0  0  0  0  0  0
    7.2810  -14.2514   27.1351 C   0  0  0  0  0  0  0  0  0  0  0  0
    7.3244  -13.2435   28.0804 C   0  0  0  0  0  0  0  0  0  0  0  0
    7.0740  -11.9611   27.6574 C   0  0  0  0  0  0  0  0  0  0  0  0
    6.7863  -11.6777   26.3299 C   0  0  0  0  0  0  0  0  0  0  0  0
    6.7492  -12.7138   25.4013 C   0  0  0  0  0  0  0  0  0  0  0  0
    6.9946  -13.9938   25.7992 C   0  0  0  0  0  0  0  0  0  0  0  0
    9.0900  -16.3540   23.2875 C   0  0  0  0  0  0  0  0  0  0  0  0
    8.8848  -17.5678   22.9990 O   0  0  0  0  0  0  0  0  0  0  0  0
   10.2741  -16.0346   23.9897 N   0  0  0  0  0  0  0  0  0  0  0  0
   11.3687  -16.9387   24.2542 C   0  0  1  0  0  0  0  0  0  0  0  0
   12.6782  -16.3209   23.8271 C   0  0  0  0  0  0  0  0  0  0  0  0
   13.8662  -17.2013   24.0484 C   0  0  0  0  0  0  0  0  0  0  0  0
   15.1285  -16.6065   23.5561 C   0  0  0  0  0  0  0  0  0  0  0  0
   15.3790  -15.3861   23.8280 O   0  0  0  0  0  0  0  0  0  0  0  0
   11.4838  -17.1575   25.7319 C   0  0  0  0  0  0  0  0  0  0  0  0
   10.8367  -16.4239   26.5101 O   0  0  0  0  0  0  0  0  0  0  0  0
   16.0597  -17.3082   22.8110 O   0  0  0  0  0  0  0  0  0  0  0  0
   12.2873  -18.1483   26.2604 O   0  0  0  0  0  0  0  0  0  0  0  0
  2  1  1  6
  3  2  1  0
  4  5  1  1
  4  2  1  0
  6  8  1  0
  6  4  1  0
  7  6  2  0
  9 20  1  0
  9  8  1  0
  9 10  1  1
 11 10  1  0
 12 11  2  0
 13 14  1  0
 13 12  1  0
 14 19  2  0
 15 16  2  0
 15 14  1  0
 16 17  1  0
 17 18  2  0
 19 18  1  0
 19 11  1  0
 20 22  1  0
 21 20  2  0
 22 23  1  0
 23 28  1  0
 23 24  1  1
 25 24  1  0
 26 25  1  0
 27 26  2  0
 28 29  2  0
 28 31  1  0
 30 26  1  0
M  END
$$$$
