AFK.pdb
     RDKit          3D

 26 26  0  0  1  0  0  0  0  0999 V2000
   10.2466  -16.4759   19.1668 C   0  0  0  0  0  0  0  0  0  0  0  0
    9.7320  -17.1469   20.3967 C   0  0  2  0  0  0  0  0  0  0  0  0
    8.4755  -17.8059   20.1553 N   0  0  0  0  0  0  0  0  0  0  0  0
    9.6804  -16.2514   21.5803 C   0  0  0  0  0  0  0  0  0  0  0  0
   10.7394  -15.7820   22.0692 O   0  0  0  0  0  0  0  0  0  0  0  0
    8.4613  -15.8812   22.2147 N   0  0  0  0  0  0  0  0  0  0  0  0
    8.4772  -15.0347   23.3918 C   0  0  1  0  0  0  0  0  0  0  0  0
    7.1700  -14.3135   23.5906 C   0  0  0  0  0  0  0  0  0  0  0  0
    7.1141  -13.5143   24.8132 C   0  0  0  0  0  0  0  0  0  0  0  0
    6.3320  -13.8880   25.8847 C   0  0  0  0  0  0  0  0  0  0  0  0
    6.3032  -13.1098   27.0228 C   0  0  0  0  0  0  0  0  0  0  0  0
    7.0589  -11.9643   27.0756 C   0  0  0  0  0  0  0  0  0  0  0  0
    7.8507  -11.5648   26.0200 C   0  0  0  0  0  0  0  0  0  0  0  0
    7.8612  -12.3593   24.8966 C   0  0  0  0  0  0  0  0  0  0  0  0
    8.6795  -15.9207   24.5672 C   0  0  0  0  0  0  0  0  0  0  0  0
    7.8531  -16.8647   24.7691 O   0  0  0  0  0  0  0  0  0  0  0  0
    9.7353  -15.7893   25.4874 N   0  0  0  0  0  0  0  0  0  0  0  0
   10.0456  -16.8330   26.4456 C   0  0  1  0  0  0  0  0  0  0  0  0
   11.3496  -17.5031   26.0819 C   0  0  0  0  0  0  0  0  0  0  0  0
   11.1968  -18.9696   25.9126 C   0  0  0  0  0  0  0  0  0  0  0  0
   11.3314  -19.4424   24.4910 C   0  0  0  0  0  0  0  0  0  0  0  0
   11.1235  -20.9430   24.4695 C   0  0  0  0  0  0  0  0  0  0  0  0
   11.2374  -21.5102   23.1612 N   0  0  0  0  0  0  0  0  0  0  0  0
   10.0548  -16.2120   27.7845 C   0  0  0  0  0  0  0  0  0  0  0  0
   10.1880  -14.9507   27.9464 O   0  0  0  0  0  0  0  0  0  0  0  0
    9.9214  -16.9285   28.9761 O   0  0  0  0  0  0  0  0  0  0  0  0
  2  1  1  6
  3  2  1  0
  4  2  1  0
  4  5  2  0
  6  4  1  0
  7  6  1  0
  7  8  1  1
  9  8  1  0
  9 10  2  0
 11 10  1  0
 12 11  2  0
 13 14  2  0
 13 12  1  0
 14  9  1  0
 15  7  1  0
 16 15  2  0
 17 15  1  0
 18 19  1  6
 18 17  1  0
 20 19  1  0
 21 22  1  0
 21 20  1  0
 23 22  1  0
 24 26  1  0
 24 18  1  0
 25 24  2  0
M  END
$$$$
