AFK.pdb
     RDKit          3D

 26 26  0  0  1  0  0  0  0  0999 V2000
    9.3170  -16.6367   19.1916 C   0  0  0  0  0  0  0  0  0  0  0  0
    9.2290  -17.3592   20.4946 C   0  0  2  0  0  0  0  0  0  0  0  0
    8.0910  -18.2393   20.5374 N   0  0  0  0  0  0  0  0  0  0  0  0
    9.2900  -16.4591   21.6743 C   0  0  0  0  0  0  0  0  0  0  0  0
   10.3218  -15.7774   21.9015 O   0  0  0  0  0  0  0  0  0  0  0  0
    8.2125  -16.3184   22.5936 N   0  0  0  0  0  0  0  0  0  0  0  0
    8.3048  -15.3735   23.6895 C   0  0  1  0  0  0  0  0  0  0  0  0
    6.9504  -14.8997   24.1468 C   0  0  0  0  0  0  0  0  0  0  0  0
    7.0003  -13.9121   25.2232 C   0  0  0  0  0  0  0  0  0  0  0  0
    7.2278  -12.5770   24.9678 C   0  0  0  0  0  0  0  0  0  0  0  0
    7.2685  -11.6725   26.0080 C   0  0  0  0  0  0  0  0  0  0  0  0
    7.0807  -12.1155   27.2943 C   0  0  0  0  0  0  0  0  0  0  0  0
    6.8512  -13.4445   27.5808 C   0  0  0  0  0  0  0  0  0  0  0  0
    6.8156  -14.3257   26.5246 C   0  0  0  0  0  0  0  0  0  0  0  0
    8.9357  -16.0853   24.8310 C   0  0  0  0  0  0  0  0  0  0  0  0
    8.4667  -17.2133   25.1810 O   0  0  0  0  0  0  0  0  0  0  0  0
   10.0312  -15.5945   25.5641 N   0  0  0  0  0  0  0  0  0  0  0  0
   10.7577  -16.4305   26.5007 C   0  0  1  0  0  0  0  0  0  0  0  0
   12.2353  -16.4003   26.1883 C   0  0  0  0  0  0  0  0  0  0  0  0
   12.5289  -16.9031   24.8231 C   0  0  0  0  0  0  0  0  0  0  0  0
   13.9940  -16.9461   24.4850 C   0  0  0  0  0  0  0  0  0  0  0  0
   14.1426  -17.5385   23.0985 C   0  0  0  0  0  0  0  0  0  0  0  0
   15.4978  -17.5748   22.6421 N   0  0  0  0  0  0  0  0  0  0  0  0
   10.4321  -15.9544   27.8592 C   0  0  0  0  0  0  0  0  0  0  0  0
   10.5533  -16.7040   28.8879 O   0  0  0  0  0  0  0  0  0  0  0  0
    9.9707  -14.6670   28.1434 O   0  0  0  0  0  0  0  0  0  0  0  0
  2  1  1  6
  3  2  1  0
  4  2  1  0
  4  5  2  0
  6  4  1  0
  7  6  1  0
  7  8  1  1
  9  8  1  0
  9 10  2  0
 11 10  1  0
 12 11  2  0
 13 14  2  0
 13 12  1  0
 14  9  1  0
 15  7  1  0
 16 15  2  0
 17 15  1  0
 18 19  1  6
 18 17  1  0
 20 19  1  0
 21 22  1  0
 21 20  1  0
 23 22  1  0
 24 26  1  0
 24 18  1  0
 25 24  2  0
M  END
$$$$
