AFK.pdb
     RDKit          3D

 26 26  0  0  1  0  0  0  0  0999 V2000
    9.3016  -15.9593   18.7703 C   0  0  0  0  0  0  0  0  0  0  0  0
    9.2763  -16.7362   20.0444 C   0  0  2  0  0  0  0  0  0  0  0  0
    8.2160  -17.7095   20.0513 N   0  0  0  0  0  0  0  0  0  0  0  0
    9.2637  -15.8803   21.2580 C   0  0  0  0  0  0  0  0  0  0  0  0
   10.2665  -15.1823   21.5543 O   0  0  0  0  0  0  0  0  0  0  0  0
    8.1450  -15.8016   22.1345 N   0  0  0  0  0  0  0  0  0  0  0  0
    8.2065  -14.9782   23.3264 C   0  0  1  0  0  0  0  0  0  0  0  0
    6.8508  -14.4611   23.7302 C   0  0  0  0  0  0  0  0  0  0  0  0
    6.8670  -13.6331   24.9347 C   0  0  0  0  0  0  0  0  0  0  0  0
    7.4848  -12.4013   24.9554 C   0  0  0  0  0  0  0  0  0  0  0  0
    7.4807  -11.6466   26.1097 C   0  0  0  0  0  0  0  0  0  0  0  0
    6.8572  -12.1343   27.2319 C   0  0  0  0  0  0  0  0  0  0  0  0
    6.2311  -13.3627   27.2415 C   0  0  0  0  0  0  0  0  0  0  0  0
    6.2499  -14.0952   26.0768 C   0  0  0  0  0  0  0  0  0  0  0  0
    8.7006  -15.8406   24.4308 C   0  0  0  0  0  0  0  0  0  0  0  0
    8.0882  -16.9263   24.6777 O   0  0  0  0  0  0  0  0  0  0  0  0
    9.8138  -15.5386   25.2358 N   0  0  0  0  0  0  0  0  0  0  0  0
   10.4389  -16.5399   26.0788 C   0  0  1  0  0  0  0  0  0  0  0  0
   11.9027  -16.6736   25.7307 C   0  0  0  0  0  0  0  0  0  0  0  0
   12.1058  -17.2472   24.3770 C   0  0  0  0  0  0  0  0  0  0  0  0
   13.5494  -17.4314   23.9969 C   0  0  0  0  0  0  0  0  0  0  0  0
   13.6056  -17.8599   22.5448 C   0  0  0  0  0  0  0  0  0  0  0  0
   14.9390  -18.0529   22.0640 N   0  0  0  0  0  0  0  0  0  0  0  0
   10.1995  -16.1458   27.4808 C   0  0  0  0  0  0  0  0  0  0  0  0
   10.4718  -16.9221   28.4596 O   0  0  0  0  0  0  0  0  0  0  0  0
    9.6644  -14.9134   27.8628 O   0  0  0  0  0  0  0  0  0  0  0  0
  2  1  1  6
  3  2  1  0
  4  2  1  0
  4  5  2  0
  6  4  1  0
  7  6  1  0
  7  8  1  1
  9  8  1  0
  9 10  2  0
 11 10  1  0
 12 11  2  0
 13 14  2  0
 13 12  1  0
 14  9  1  0
 15  7  1  0
 16 15  2  0
 17 15  1  0
 18 19  1  6
 18 17  1  0
 20 19  1  0
 21 22  1  0
 21 20  1  0
 23 22  1  0
 24 26  1  0
 24 18  1  0
 25 24  2  0
M  END
$$$$
