AFK.pdb
     RDKit          3D

 26 26  0  0  1  0  0  0  0  0999 V2000
    8.7996  -18.3208   20.1070 C   0  0  0  0  0  0  0  0  0  0  0  0
    9.2354  -16.8985   19.9865 C   0  0  2  0  0  0  0  0  0  0  0  0
   10.4642  -16.7810   19.2464 N   0  0  0  0  0  0  0  0  0  0  0  0
    9.2911  -16.1855   21.2881 C   0  0  0  0  0  0  0  0  0  0  0  0
   10.3839  -16.0560   21.8960 O   0  0  0  0  0  0  0  0  0  0  0  0
    8.1407  -15.6215   21.9083 N   0  0  0  0  0  0  0  0  0  0  0  0
    8.2683  -14.8767   23.1457 C   0  0  1  0  0  0  0  0  0  0  0  0
    7.0218  -14.0962   23.4702 C   0  0  0  0  0  0  0  0  0  0  0  0
    7.0732  -13.4054   24.7573 C   0  0  0  0  0  0  0  0  0  0  0  0
    6.2561  -13.7703   25.8055 C   0  0  0  0  0  0  0  0  0  0  0  0
    6.3314  -13.0962   27.0062 C   0  0  0  0  0  0  0  0  0  0  0  0
    7.2254  -12.0628   27.1444 C   0  0  0  0  0  0  0  0  0  0  0  0
    8.0555  -11.6752   26.1140 C   0  0  0  0  0  0  0  0  0  0  0  0
    7.9599  -12.3643   24.9268 C   0  0  0  0  0  0  0  0  0  0  0  0
    8.4695  -15.8666   24.2354 C   0  0  0  0  0  0  0  0  0  0  0  0
    7.7719  -16.9287   24.2311 O   0  0  0  0  0  0  0  0  0  0  0  0
    9.3899  -15.7118   25.2877 N   0  0  0  0  0  0  0  0  0  0  0  0
    9.7934  -16.8306   26.1181 C   0  0  1  0  0  0  0  0  0  0  0  0
   11.1348  -17.3578   25.6659 C   0  0  0  0  0  0  0  0  0  0  0  0
   11.0083  -18.3187   24.5419 C   0  0  0  0  0  0  0  0  0  0  0  0
   12.2623  -19.0982   24.2547 C   0  0  0  0  0  0  0  0  0  0  0  0
   12.0100  -19.9704   23.0418 C   0  0  0  0  0  0  0  0  0  0  0  0
   13.1333  -20.7813   22.6858 N   0  0  0  0  0  0  0  0  0  0  0  0
    9.7842  -16.3645   27.5184 C   0  0  0  0  0  0  0  0  0  0  0  0
    9.5101  -17.1468   28.4919 O   0  0  0  0  0  0  0  0  0  0  0  0
   10.0684  -15.0524   27.9043 O   0  0  0  0  0  0  0  0  0  0  0  0
  2  1  1  1
  3  2  1  0
  4  2  1  0
  4  5  2  0
  6  4  1  0
  7  6  1  0
  7  8  1  1
  9  8  1  0
  9 10  2  0
 11 10  1  0
 12 11  2  0
 13 14  2  0
 13 12  1  0
 14  9  1  0
 15  7  1  0
 16 15  2  0
 17 15  1  0
 18 19  1  6
 18 17  1  0
 20 19  1  0
 21 22  1  0
 21 20  1  0
 23 22  1  0
 24 26  1  0
 24 18  1  0
 25 24  2  0
M  END
$$$$
