AFK.pdb
     RDKit          3D

 26 26  0  0  1  0  0  0  0  0999 V2000
    8.3255  -18.1564   19.9901 C   0  0  0  0  0  0  0  0  0  0  0  0
    8.6405  -16.7112   19.7907 C   0  0  2  0  0  0  0  0  0  0  0  0
    9.7462  -16.5289   18.8876 N   0  0  0  0  0  0  0  0  0  0  0  0
    8.8223  -15.9655   21.0621 C   0  0  0  0  0  0  0  0  0  0  0  0
    9.9602  -15.8749   21.5890 O   0  0  0  0  0  0  0  0  0  0  0  0
    7.7475  -15.3261   21.7416 N   0  0  0  0  0  0  0  0  0  0  0  0
    7.9705  -14.6851   23.0229 C   0  0  1  0  0  0  0  0  0  0  0  0
    6.7835  -13.8703   23.4648 C   0  0  0  0  0  0  0  0  0  0  0  0
    6.9556  -13.2309   24.7680 C   0  0  0  0  0  0  0  0  0  0  0  0
    7.7846  -12.1425   24.9341 C   0  0  0  0  0  0  0  0  0  0  0  0
    7.9232  -11.5642   26.1784 C   0  0  0  0  0  0  0  0  0  0  0  0
    7.2293  -12.0828   27.2440 C   0  0  0  0  0  0  0  0  0  0  0  0
    6.3929  -13.1705   27.1087 C   0  0  0  0  0  0  0  0  0  0  0  0
    6.2727  -13.7284   25.8566 C   0  0  0  0  0  0  0  0  0  0  0  0
    8.1673  -15.7640   24.0253 C   0  0  0  0  0  0  0  0  0  0  0  0
    7.4114  -16.7845   23.9796 O   0  0  0  0  0  0  0  0  0  0  0  0
    9.1443  -15.7384   25.0370 N   0  0  0  0  0  0  0  0  0  0  0  0
    9.5023  -16.9308   25.7812 C   0  0  1  0  0  0  0  0  0  0  0  0
   10.5858  -17.6925   25.0548 C   0  0  0  0  0  0  0  0  0  0  0  0
   11.0644  -18.8626   25.8322 C   0  0  0  0  0  0  0  0  0  0  0  0
   12.1161  -19.6785   25.1315 C   0  0  0  0  0  0  0  0  0  0  0  0
   12.5323  -20.8064   26.0534 C   0  0  0  0  0  0  0  0  0  0  0  0
   13.5259  -21.6637   25.4842 N   0  0  0  0  0  0  0  0  0  0  0  0
    9.8917  -16.5015   27.1385 C   0  0  0  0  0  0  0  0  0  0  0  0
   10.0986  -17.3395   28.0818 O   0  0  0  0  0  0  0  0  0  0  0  0
   10.0673  -15.1673   27.5129 O   0  0  0  0  0  0  0  0  0  0  0  0
  2  1  1  1
  3  2  1  0
  4  2  1  0
  4  5  2  0
  6  4  1  0
  7  6  1  0
  7  8  1  1
  9  8  1  0
  9 10  2  0
 11 10  1  0
 12 11  2  0
 13 14  2  0
 13 12  1  0
 14  9  1  0
 15  7  1  0
 16 15  2  0
 17 15  1  0
 18 19  1  6
 18 17  1  0
 20 19  1  0
 21 22  1  0
 21 20  1  0
 23 22  1  0
 24 26  1  0
 24 18  1  0
 25 24  2  0
M  END
$$$$
