AFK.pdb
     RDKit          3D

 26 26  0  0  1  0  0  0  0  0999 V2000
    9.5049  -18.5748   20.2448 C   0  0  0  0  0  0  0  0  0  0  0  0
    9.2206  -17.1229   20.0477 C   0  0  2  0  0  0  0  0  0  0  0  0
   10.0134  -16.5669   18.9829 N   0  0  0  0  0  0  0  0  0  0  0  0
    9.3180  -16.3269   21.2977 C   0  0  0  0  0  0  0  0  0  0  0  0
   10.4391  -16.0914   21.8158 O   0  0  0  0  0  0  0  0  0  0  0  0
    8.1781  -15.7975   21.9656 N   0  0  0  0  0  0  0  0  0  0  0  0
    8.3357  -15.0376   23.1904 C   0  0  1  0  0  0  0  0  0  0  0  0
    7.0905  -14.2687   23.5461 C   0  0  0  0  0  0  0  0  0  0  0  0
    7.1837  -13.5421   24.8111 C   0  0  0  0  0  0  0  0  0  0  0  0
    6.4761  -13.9391   25.9252 C   0  0  0  0  0  0  0  0  0  0  0  0
    6.5880  -13.2298   27.1026 C   0  0  0  0  0  0  0  0  0  0  0  0
    7.4082  -12.1294   27.1515 C   0  0  0  0  0  0  0  0  0  0  0  0
    8.1282  -11.7083   26.0536 C   0  0  0  0  0  0  0  0  0  0  0  0
    7.9985  -12.4337   24.8916 C   0  0  0  0  0  0  0  0  0  0  0  0
    8.5835  -16.0130   24.2836 C   0  0  0  0  0  0  0  0  0  0  0  0
    7.7876  -16.9946   24.4174 O   0  0  0  0  0  0  0  0  0  0  0  0
    9.6512  -15.9282   25.1954 N   0  0  0  0  0  0  0  0  0  0  0  0
    9.9331  -16.9923   26.1400 C   0  0  1  0  0  0  0  0  0  0  0  0
   11.2990  -17.5786   25.8717 C   0  0  0  0  0  0  0  0  0  0  0  0
   11.2877  -18.5222   24.7261 C   0  0  0  0  0  0  0  0  0  0  0  0
   12.6178  -19.1665   24.4463 C   0  0  0  0  0  0  0  0  0  0  0  0
   12.4383  -20.1465   23.3049 C   0  0  0  0  0  0  0  0  0  0  0  0
   13.6650  -20.7436   22.8750 N   0  0  0  0  0  0  0  0  0  0  0  0
    9.7899  -16.4262   27.4955 C   0  0  0  0  0  0  0  0  0  0  0  0
   10.0554  -15.2018   27.7508 O   0  0  0  0  0  0  0  0  0  0  0  0
    9.3598  -17.1591   28.6040 O   0  0  0  0  0  0  0  0  0  0  0  0
  2  1  1  1
  3  2  1  0
  4  2  1  0
  4  5  2  0
  6  4  1  0
  7  6  1  0
  7  8  1  1
  9  8  1  0
  9 10  2  0
 11 10  1  0
 12 11  2  0
 13 14  2  0
 13 12  1  0
 14  9  1  0
 15  7  1  0
 16 15  2  0
 17 15  1  0
 18 19  1  6
 18 17  1  0
 20 19  1  0
 21 22  1  0
 21 20  1  0
 23 22  1  0
 24 26  1  0
 24 18  1  0
 25 24  2  0
M  END
$$$$
