AFK.pdb
     RDKit          3D

 26 26  0  0  1  0  0  0  0  0999 V2000
    6.8175  -21.0110   23.6640 C   0  0  0  0  0  0  0  0  0  0  0  0
    6.1696  -19.8187   23.0425 C   0  0  2  0  0  0  0  0  0  0  0  0
    6.0198  -19.9775   21.6199 N   0  0  0  0  0  0  0  0  0  0  0  0
    6.8268  -18.5358   23.4003 C   0  0  0  0  0  0  0  0  0  0  0  0
    7.7370  -18.0631   22.6731 O   0  0  0  0  0  0  0  0  0  0  0  0
    6.4745  -17.7853   24.5572 N   0  0  0  0  0  0  0  0  0  0  0  0
    7.1750  -16.5554   24.8722 C   0  0  1  0  0  0  0  0  0  0  0  0
    6.3915  -15.6811   25.8156 C   0  0  0  0  0  0  0  0  0  0  0  0
    7.0489  -14.4149   26.1341 C   0  0  0  0  0  0  0  0  0  0  0  0
    7.0670  -13.3662   25.2401 C   0  0  0  0  0  0  0  0  0  0  0  0
    7.6967  -12.1856   25.5739 C   0  0  0  0  0  0  0  0  0  0  0  0
    8.3022  -12.0679   26.8010 C   0  0  0  0  0  0  0  0  0  0  0  0
    8.3005  -13.0994   27.7159 C   0  0  0  0  0  0  0  0  0  0  0  0
    7.6652  -14.2663   27.3576 C   0  0  0  0  0  0  0  0  0  0  0  0
    8.4370  -16.9325   25.5597 C   0  0  0  0  0  0  0  0  0  0  0  0
    8.4398  -17.9577   26.3107 O   0  0  0  0  0  0  0  0  0  0  0  0
    9.6478  -16.2270   25.4385 N   0  0  0  0  0  0  0  0  0  0  0  0
   10.8951  -16.7596   25.9529 C   0  0  1  0  0  0  0  0  0  0  0  0
   11.8276  -17.0953   24.8130 C   0  0  0  0  0  0  0  0  0  0  0  0
   12.7422  -15.9722   24.4890 C   0  0  0  0  0  0  0  0  0  0  0  0
   13.5412  -16.1726   23.2304 C   0  0  0  0  0  0  0  0  0  0  0  0
   14.4050  -14.9462   23.0178 C   0  0  0  0  0  0  0  0  0  0  0  0
   15.1816  -15.0035   21.8178 N   0  0  0  0  0  0  0  0  0  0  0  0
   11.4454  -15.7621   26.8911 C   0  0  0  0  0  0  0  0  0  0  0  0
   11.0619  -14.5423   26.8863 O   0  0  0  0  0  0  0  0  0  0  0  0
   12.4166  -16.0503   27.8529 O   0  0  0  0  0  0  0  0  0  0  0  0
  2  1  1  6
  3  2  1  0
  4  2  1  0
  4  5  2  0
  6  4  1  0
  7  6  1  0
  7  8  1  1
  9  8  1  0
  9 10  2  0
 11 10  1  0
 12 11  2  0
 13 14  2  0
 13 12  1  0
 14  9  1  0
 15  7  1  0
 16 15  2  0
 17 15  1  0
 18 19  1  6
 18 17  1  0
 20 19  1  0
 21 22  1  0
 21 20  1  0
 23 22  1  0
 24 26  1  0
 24 18  1  0
 25 24  2  0
M  END
$$$$
