AFK.pdb
     RDKit          3D

 26 26  0  0  1  0  0  0  0  0999 V2000
    8.4314  -19.0403   21.0675 C   0  0  0  0  0  0  0  0  0  0  0  0
    8.3764  -17.6084   20.6499 C   0  0  2  0  0  0  0  0  0  0  0  0
    9.2328  -17.3515   19.5219 N   0  0  0  0  0  0  0  0  0  0  0  0
    8.6144  -16.6581   21.7661 C   0  0  0  0  0  0  0  0  0  0  0  0
    9.7853  -16.3196   22.0744 O   0  0  0  0  0  0  0  0  0  0  0  0
    7.5587  -16.0893   22.5329 N   0  0  0  0  0  0  0  0  0  0  0  0
    7.8544  -15.1770   23.6204 C   0  0  1  0  0  0  0  0  0  0  0  0
    6.6620  -14.3380   23.9982 C   0  0  0  0  0  0  0  0  0  0  0  0
    6.8822  -13.4870   25.1660 C   0  0  0  0  0  0  0  0  0  0  0  0
    6.3564  -13.8044   26.3998 C   0  0  0  0  0  0  0  0  0  0  0  0
    6.5843  -12.9783   27.4803 C   0  0  0  0  0  0  0  0  0  0  0  0
    7.3372  -11.8420   27.3133 C   0  0  0  0  0  0  0  0  0  0  0  0
    7.8762  -11.4984   26.0916 C   0  0  0  0  0  0  0  0  0  0  0  0
    7.6336  -12.3399   25.0303 C   0  0  0  0  0  0  0  0  0  0  0  0
    8.2092  -16.0036   24.8029 C   0  0  0  0  0  0  0  0  0  0  0  0
    7.5912  -17.0981   24.9897 O   0  0  0  0  0  0  0  0  0  0  0  0
    9.1945  -15.6582   25.7455 N   0  0  0  0  0  0  0  0  0  0  0  0
    9.9330  -16.6671   26.4806 C   0  0  1  0  0  0  0  0  0  0  0  0
   11.0052  -17.2700   25.6038 C   0  0  0  0  0  0  0  0  0  0  0  0
   11.7189  -18.3830   26.2780 C   0  0  0  0  0  0  0  0  0  0  0  0
   12.8130  -19.0023   25.4521 C   0  0  0  0  0  0  0  0  0  0  0  0
   13.4229  -20.1373   26.2491 C   0  0  0  0  0  0  0  0  0  0  0  0
   14.4686  -20.8195   25.5509 N   0  0  0  0  0  0  0  0  0  0  0  0
   10.4605  -16.0245   27.7001 C   0  0  0  0  0  0  0  0  0  0  0  0
   10.9898  -16.6998   28.6480 O   0  0  0  0  0  0  0  0  0  0  0  0
   10.4321  -14.6468   27.9288 O   0  0  0  0  0  0  0  0  0  0  0  0
  2  1  1  1
  3  2  1  0
  4  2  1  0
  4  5  2  0
  6  4  1  0
  7  6  1  0
  7  8  1  1
  9  8  1  0
  9 10  2  0
 11 10  1  0
 12 11  2  0
 13 14  2  0
 13 12  1  0
 14  9  1  0
 15  7  1  0
 16 15  2  0
 17 15  1  0
 18 19  1  6
 18 17  1  0
 20 19  1  0
 21 22  1  0
 21 20  1  0
 23 22  1  0
 24 26  1  0
 24 18  1  0
 25 24  2  0
M  END
$$$$
