AFK.pdb
     RDKit          3D

 26 26  0  0  1  0  0  0  0  0999 V2000
    8.7860  -18.2947   20.0509 C   0  0  0  0  0  0  0  0  0  0  0  0
    9.1254  -16.8426   19.9890 C   0  0  2  0  0  0  0  0  0  0  0  0
   10.3143  -16.6083   19.2124 N   0  0  0  0  0  0  0  0  0  0  0  0
    9.1866  -16.1931   21.3232 C   0  0  0  0  0  0  0  0  0  0  0  0
   10.2449  -16.2309   22.0009 O   0  0  0  0  0  0  0  0  0  0  0  0
    8.0800  -15.5072   21.8985 N   0  0  0  0  0  0  0  0  0  0  0  0
    8.2241  -14.8226   23.1685 C   0  0  1  0  0  0  0  0  0  0  0  0
    7.0520  -13.9249   23.4661 C   0  0  0  0  0  0  0  0  0  0  0  0
    7.1309  -13.2580   24.7645 C   0  0  0  0  0  0  0  0  0  0  0  0
    6.3707  -13.6732   25.8364 C   0  0  0  0  0  0  0  0  0  0  0  0
    6.4705  -13.0206   27.0472 C   0  0  0  0  0  0  0  0  0  0  0  0
    7.3316  -11.9580   27.1714 C   0  0  0  0  0  0  0  0  0  0  0  0
    8.1047  -11.5199   26.1171 C   0  0  0  0  0  0  0  0  0  0  0  0
    7.9858  -12.1886   24.9204 C   0  0  0  0  0  0  0  0  0  0  0  0
    8.2663  -15.8646   24.2268 C   0  0  0  0  0  0  0  0  0  0  0  0
    7.5089  -16.8788   24.1148 O   0  0  0  0  0  0  0  0  0  0  0  0
    9.0960  -15.8099   25.3613 N   0  0  0  0  0  0  0  0  0  0  0  0
    9.2956  -16.9647   26.2160 C   0  0  1  0  0  0  0  0  0  0  0  0
    9.9052  -18.0985   25.4257 C   0  0  0  0  0  0  0  0  0  0  0  0
   11.3373  -17.8595   25.1180 C   0  0  0  0  0  0  0  0  0  0  0  0
   11.9451  -18.8752   24.1898 C   0  0  0  0  0  0  0  0  0  0  0  0
   13.3979  -18.5057   23.9699 C   0  0  0  0  0  0  0  0  0  0  0  0
   14.1011  -19.4432   23.1497 N   0  0  0  0  0  0  0  0  0  0  0  0
   10.1238  -16.5290   27.3573 C   0  0  0  0  0  0  0  0  0  0  0  0
   10.5777  -15.3373   27.4502 O   0  0  0  0  0  0  0  0  0  0  0  0
   10.4821  -17.3599   28.4215 O   0  0  0  0  0  0  0  0  0  0  0  0
  2  1  1  1
  3  2  1  0
  4  2  1  0
  4  5  2  0
  6  4  1  0
  7  6  1  0
  7  8  1  1
  9  8  1  0
  9 10  2  0
 11 10  1  0
 12 11  2  0
 13 14  2  0
 13 12  1  0
 14  9  1  0
 15  7  1  0
 16 15  2  0
 17 15  1  0
 18 19  1  6
 18 17  1  0
 20 19  1  0
 21 22  1  0
 21 20  1  0
 23 22  1  0
 24 26  1  0
 24 18  1  0
 25 24  2  0
M  END
$$$$
