AFK.pdb
     RDKit          3D

 26 26  0  0  1  0  0  0  0  0999 V2000
    7.4683  -20.3274   22.3512 C   0  0  0  0  0  0  0  0  0  0  0  0
    6.9278  -19.0581   21.7818 C   0  0  2  0  0  0  0  0  0  0  0  0
    7.1600  -18.9713   20.3641 N   0  0  0  0  0  0  0  0  0  0  0  0
    7.3875  -17.8442   22.5035 C   0  0  0  0  0  0  0  0  0  0  0  0
    8.4699  -17.2882   22.1875 O   0  0  0  0  0  0  0  0  0  0  0  0
    6.6494  -17.2539   23.5678 N   0  0  0  0  0  0  0  0  0  0  0  0
    7.1709  -16.0938   24.2640 C   0  0  1  0  0  0  0  0  0  0  0  0
    6.0865  -15.3138   24.9596 C   0  0  0  0  0  0  0  0  0  0  0  0
    6.5550  -14.0816   25.5912 C   0  0  0  0  0  0  0  0  0  0  0  0
    6.5677  -13.9326   26.9613 C   0  0  0  0  0  0  0  0  0  0  0  0
    7.0164  -12.7559   27.5234 C   0  0  0  0  0  0  0  0  0  0  0  0
    7.4481  -11.7401   26.7062 C   0  0  0  0  0  0  0  0  0  0  0  0
    7.4471  -11.8599   25.3327 C   0  0  0  0  0  0  0  0  0  0  0  0
    6.9944  -13.0441   24.7979 C   0  0  0  0  0  0  0  0  0  0  0  0
    8.1018  -16.5911   25.3098 C   0  0  0  0  0  0  0  0  0  0  0  0
    7.7299  -17.5552   26.0492 O   0  0  0  0  0  0  0  0  0  0  0  0
    9.3848  -16.0646   25.5451 N   0  0  0  0  0  0  0  0  0  0  0  0
   10.4037  -16.8238   26.2445 C   0  0  1  0  0  0  0  0  0  0  0  0
   11.7419  -16.6480   25.5661 C   0  0  0  0  0  0  0  0  0  0  0  0
   12.3239  -17.9427   25.1328 C   0  0  0  0  0  0  0  0  0  0  0  0
   12.6309  -18.0180   23.6622 C   0  0  0  0  0  0  0  0  0  0  0  0
   13.3166  -19.3411   23.3889 C   0  0  0  0  0  0  0  0  0  0  0  0
   13.5670  -19.5710   21.9995 N   0  0  0  0  0  0  0  0  0  0  0  0
   10.3933  -16.3809   27.6523 C   0  0  0  0  0  0  0  0  0  0  0  0
   11.0146  -17.0199   28.5691 O   0  0  0  0  0  0  0  0  0  0  0  0
    9.7180  -15.2456   28.1065 O   0  0  0  0  0  0  0  0  0  0  0  0
  2  1  1  1
  3  2  1  0
  4  2  1  0
  4  5  2  0
  6  4  1  0
  7  6  1  0
  7  8  1  1
  9  8  1  0
  9 10  2  0
 11 10  1  0
 12 11  2  0
 13 14  2  0
 13 12  1  0
 14  9  1  0
 15  7  1  0
 16 15  2  0
 17 15  1  0
 18 19  1  6
 18 17  1  0
 20 19  1  0
 21 22  1  0
 21 20  1  0
 23 22  1  0
 24 26  1  0
 24 18  1  0
 25 24  2  0
M  END
$$$$
