AFK.pdb
     RDKit          3D

 26 26  0  0  1  0  0  0  0  0999 V2000
    9.7826  -16.2385   18.8956 C   0  0  0  0  0  0  0  0  0  0  0  0
    9.3419  -16.9093   20.1540 C   0  0  2  0  0  0  0  0  0  0  0  0
    8.0731  -17.5681   19.9878 N   0  0  0  0  0  0  0  0  0  0  0  0
    9.3611  -16.0138   21.3386 C   0  0  0  0  0  0  0  0  0  0  0  0
   10.4264  -15.4453   21.6888 O   0  0  0  0  0  0  0  0  0  0  0  0
    8.2051  -15.7529   22.1269 N   0  0  0  0  0  0  0  0  0  0  0  0
    8.3010  -14.9261   23.3141 C   0  0  1  0  0  0  0  0  0  0  0  0
    6.9831  -14.2911   23.6722 C   0  0  0  0  0  0  0  0  0  0  0  0
    7.0217  -13.4971   24.8988 C   0  0  0  0  0  0  0  0  0  0  0  0
    7.7864  -12.3545   24.9953 C   0  0  0  0  0  0  0  0  0  0  0  0
    7.7991  -11.6296   26.1683 C   0  0  0  0  0  0  0  0  0  0  0  0
    7.0449  -12.0572   27.2334 C   0  0  0  0  0  0  0  0  0  0  0  0
    6.2703  -13.1959   27.1668 C   0  0  0  0  0  0  0  0  0  0  0  0
    6.2757  -13.9005   25.9849 C   0  0  0  0  0  0  0  0  0  0  0  0
    8.6859  -15.8166   24.4395 C   0  0  0  0  0  0  0  0  0  0  0  0
    7.9200  -16.7847   24.7409 O   0  0  0  0  0  0  0  0  0  0  0  0
    9.8543  -15.6643   25.2078 N   0  0  0  0  0  0  0  0  0  0  0  0
   10.3195  -16.7069   26.1024 C   0  0  1  0  0  0  0  0  0  0  0  0
   11.7784  -17.0018   25.8446 C   0  0  0  0  0  0  0  0  0  0  0  0
   11.9757  -17.8268   24.6268 C   0  0  0  0  0  0  0  0  0  0  0  0
   13.4133  -18.1600   24.3355 C   0  0  0  0  0  0  0  0  0  0  0  0
   13.4540  -19.0496   23.1097 C   0  0  0  0  0  0  0  0  0  0  0  0
   14.7793  -19.4390   22.7382 N   0  0  0  0  0  0  0  0  0  0  0  0
   10.0429  -16.2588   27.4812 C   0  0  0  0  0  0  0  0  0  0  0  0
   10.0827  -17.0611   28.4760 O   0  0  0  0  0  0  0  0  0  0  0  0
    9.7185  -14.9437   27.8223 O   0  0  0  0  0  0  0  0  0  0  0  0
  2  1  1  6
  3  2  1  0
  4  2  1  0
  4  5  2  0
  6  4  1  0
  7  6  1  0
  7  8  1  1
  9  8  1  0
  9 10  2  0
 11 10  1  0
 12 11  2  0
 13 14  2  0
 13 12  1  0
 14  9  1  0
 15  7  1  0
 16 15  2  0
 17 15  1  0
 18 19  1  1
 18 17  1  0
 20 19  1  0
 21 22  1  0
 21 20  1  0
 23 22  1  0
 24 26  1  0
 24 18  1  0
 25 24  2  0
M  END
$$$$
