NHA.pdb
     RDKit          3D

 24 24  0  0  1  0  0  0  0  0999 V2000
   13.5371  -17.6515   15.3628 N   0  0  0  0  0  0  0  0  0  0  0  0
   12.1555  -17.2949   15.2803 C   0  0  0  0  0  0  0  0  0  0  0  0
   11.4708  -17.6128   14.2886 O   0  0  0  0  0  0  0  0  0  0  0  0
   11.5623  -16.5452   16.3920 C   0  0  0  0  0  0  0  0  0  0  0  0
   11.7400  -17.2641   17.6847 C   0  0  2  0  0  0  0  0  0  0  0  0
   10.8049  -18.4248   17.6464 N   0  0  0  0  0  0  0  0  0  0  0  0
   11.3527  -16.4369   18.8814 C   0  0  0  0  0  0  0  0  0  0  0  0
   12.0100  -15.4853   19.3389 O   0  0  0  0  0  0  0  0  0  0  0  0
   10.1330  -16.7300   19.5883 N   0  0  0  0  0  0  0  0  0  0  0  0
    9.7316  -15.8978   20.7442 C   0  0  1  0  0  0  0  0  0  0  0  0
    8.3288  -15.4484   20.5814 C   0  0  0  0  0  0  0  0  0  0  0  0
    8.0096  -14.6633   19.3847 C   0  0  0  0  0  0  0  0  0  0  0  0
    8.0969  -13.2893   19.2259 C   0  0  0  0  0  0  0  0  0  0  0  0
    7.6696  -12.9803   17.9834 N   0  0  0  0  0  0  0  0  0  0  0  0
    7.3196  -14.1109   17.3625 C   0  0  0  0  0  0  0  0  0  0  0  0
    7.5246  -15.1235   18.2070 N   0  0  0  0  0  0  0  0  0  0  0  0
   10.1302  -16.5170   21.9981 C   0  0  0  0  0  0  0  0  0  0  0  0
   10.2236  -17.8057   22.0055 O   0  0  0  0  0  0  0  0  0  0  0  0
   11.2329  -15.7759   25.5351 C   0  0  0  0  0  0  0  0  0  0  0  0
   10.7778  -16.6933   24.4046 C   0  0  2  0  0  0  0  0  0  0  0  0
   10.4397  -15.9147   23.2242 N   0  0  0  0  0  0  0  0  0  0  0  0
    9.6939  -17.5801   24.8568 C   0  0  0  0  0  0  0  0  0  0  0  0
    9.8680  -18.6436   25.7234 O   0  0  0  0  0  0  0  0  0  0  0  0
    8.4986  -17.3878   24.4433 O   0  0  0  0  0  0  0  0  0  0  0  0
  1  2  1  0
  2  3  2  0
  4  5  1  0
  4  2  1  0
  5  6  1  6
  7  8  2  0
  7  5  1  0
  9  7  1  0
 10 11  1  1
 10  9  1  0
 11 12  1  0
 12 13  2  0
 12 16  1  0
 13 14  1  0
 14 15  1  0
 16 15  2  0
 17 21  1  0
 17 10  1  0
 18 17  2  0
 20 21  1  0
 20 19  1  1
 22 20  1  0
 23 22  1  0
 24 22  2  0
M  END
$$$$
