NHA.pdb
     RDKit          3D

 24 24  0  0  1  0  0  0  0  0999 V2000
   14.6601  -15.4701   14.8987 N   0  0  0  0  0  0  0  0  0  0  0  0
   15.0220  -14.7374   16.0712 C   0  0  0  0  0  0  0  0  0  0  0  0
   16.2074  -14.4171   16.2852 O   0  0  0  0  0  0  0  0  0  0  0  0
   13.9637  -14.3711   17.0176 C   0  0  0  0  0  0  0  0  0  0  0  0
   14.0770  -15.1491   18.2830 C   0  0  2  0  0  0  0  0  0  0  0  0
   13.9034  -16.5814   17.9070 N   0  0  0  0  0  0  0  0  0  0  0  0
   12.9913  -14.8287   19.2755 C   0  0  0  0  0  0  0  0  0  0  0  0
   13.0039  -13.8702   20.0680 O   0  0  0  0  0  0  0  0  0  0  0  0
   11.8238  -15.6678   19.3533 N   0  0  0  0  0  0  0  0  0  0  0  0
   10.7536  -15.3549   20.3262 C   0  0  1  0  0  0  0  0  0  0  0  0
    9.4273  -15.6345   19.7269 C   0  0  0  0  0  0  0  0  0  0  0  0
    9.0133  -14.8014   18.5934 C   0  0  0  0  0  0  0  0  0  0  0  0
    9.2355  -13.4452   18.4144 C   0  0  0  0  0  0  0  0  0  0  0  0
    8.6520  -13.0715   17.2561 N   0  0  0  0  0  0  0  0  0  0  0  0
    8.0749  -14.1447   16.7069 C   0  0  0  0  0  0  0  0  0  0  0  0
    8.2929  -15.1855   17.5129 N   0  0  0  0  0  0  0  0  0  0  0  0
   11.0619  -15.9030   21.6374 C   0  0  0  0  0  0  0  0  0  0  0  0
   11.8776  -16.9045   21.6709 O   0  0  0  0  0  0  0  0  0  0  0  0
   10.1726  -15.6315   25.3024 C   0  0  0  0  0  0  0  0  0  0  0  0
   10.8435  -16.2825   24.0969 C   0  0  2  0  0  0  0  0  0  0  0  0
   10.6028  -15.4977   22.8970 N   0  0  0  0  0  0  0  0  0  0  0  0
   10.4375  -17.6914   23.9719 C   0  0  0  0  0  0  0  0  0  0  0  0
   11.0755  -18.7447   24.6010 O   0  0  0  0  0  0  0  0  0  0  0  0
    9.4340  -18.0032   23.2422 O   0  0  0  0  0  0  0  0  0  0  0  0
  1  2  1  0
  2  3  2  0
  4  5  1  0
  4  2  1  0
  5  6  1  6
  7  8  2  0
  7  5  1  0
  9  7  1  0
 10 11  1  6
 10  9  1  0
 11 12  1  0
 12 13  2  0
 12 16  1  0
 13 14  1  0
 14 15  1  0
 16 15  2  0
 17 21  1  0
 17 10  1  0
 18 17  2  0
 20 21  1  0
 20 19  1  1
 22 20  1  0
 23 22  1  0
 24 22  2  0
M  END
$$$$
