NHA.pdb
     RDKit          3D

 24 24  0  0  1  0  0  0  0  0999 V2000
   15.9775  -14.2111   18.0219 N   0  0  0  0  0  0  0  0  0  0  0  0
   14.7075  -14.6199   17.5096 C   0  0  0  0  0  0  0  0  0  0  0  0
   14.6292  -15.3762   16.5221 O   0  0  0  0  0  0  0  0  0  0  0  0
   13.4971  -14.1274   18.1748 C   0  0  0  0  0  0  0  0  0  0  0  0
   13.0930  -15.0234   19.2943 C   0  0  2  0  0  0  0  0  0  0  0  0
   12.6336  -16.2942   18.6643 N   0  0  0  0  0  0  0  0  0  0  0  0
   11.9310  -14.4912   20.0899 C   0  0  0  0  0  0  0  0  0  0  0  0
   11.9021  -13.3910   20.6693 O   0  0  0  0  0  0  0  0  0  0  0  0
   10.7337  -15.2801   20.2211 N   0  0  0  0  0  0  0  0  0  0  0  0
    9.6204  -14.7966   21.0676 C   0  0  1  0  0  0  0  0  0  0  0  0
    8.3336  -14.9524   20.3491 C   0  0  0  0  0  0  0  0  0  0  0  0
    8.2063  -14.2884   19.0479 C   0  0  0  0  0  0  0  0  0  0  0  0
    8.1780  -12.9266   18.7920 C   0  0  0  0  0  0  0  0  0  0  0  0
    8.0076  -12.7503   17.4647 N   0  0  0  0  0  0  0  0  0  0  0  0
    7.9290  -13.9517   16.8844 C   0  0  0  0  0  0  0  0  0  0  0  0
    8.0486  -14.8770   17.8384 N   0  0  0  0  0  0  0  0  0  0  0  0
    9.7342  -15.3083   22.4241 C   0  0  0  0  0  0  0  0  0  0  0  0
   10.3147  -16.4539   22.5658 O   0  0  0  0  0  0  0  0  0  0  0  0
    8.7789  -14.5967   26.0128 C   0  0  0  0  0  0  0  0  0  0  0  0
    9.3671  -15.4472   24.8913 C   0  0  2  0  0  0  0  0  0  0  0  0
    9.3053  -14.7325   23.6267 N   0  0  0  0  0  0  0  0  0  0  0  0
    8.7283  -16.7724   24.8520 C   0  0  0  0  0  0  0  0  0  0  0  0
    9.1158  -17.8473   25.6309 O   0  0  0  0  0  0  0  0  0  0  0  0
    7.7476  -16.9839   24.0582 O   0  0  0  0  0  0  0  0  0  0  0  0
  1  2  1  0
  2  3  2  0
  4  5  1  0
  4  2  1  0
  5  6  1  6
  7  8  2  0
  7  5  1  0
  9  7  1  0
 10 11  1  6
 10  9  1  0
 11 12  1  0
 12 13  2  0
 12 16  1  0
 13 14  1  0
 14 15  1  0
 16 15  2  0
 17 21  1  0
 17 10  1  0
 18 17  2  0
 20 21  1  0
 20 19  1  1
 22 20  1  0
 23 22  1  0
 24 22  2  0
M  END
$$$$
