NHA.pdb
     RDKit          3D

 24 24  0  0  1  0  0  0  0  0999 V2000
   15.2701  -15.7963   17.0350 N   0  0  0  0  0  0  0  0  0  0  0  0
   14.1569  -14.9976   16.6280 C   0  0  0  0  0  0  0  0  0  0  0  0
   13.9378  -14.7726   15.4218 O   0  0  0  0  0  0  0  0  0  0  0  0
   13.2778  -14.4485   17.6650 C   0  0  0  0  0  0  0  0  0  0  0  0
   13.0278  -15.4442   18.7446 C   0  0  2  0  0  0  0  0  0  0  0  0
   12.1928  -16.5181   18.1341 N   0  0  0  0  0  0  0  0  0  0  0  0
   12.2364  -14.8841   19.8963 C   0  0  0  0  0  0  0  0  0  0  0  0
   12.6285  -13.9928   20.6701 O   0  0  0  0  0  0  0  0  0  0  0  0
   10.9142  -15.3864   20.1661 N   0  0  0  0  0  0  0  0  0  0  0  0
   10.1094  -14.7965   21.2589 C   0  0  1  0  0  0  0  0  0  0  0  0
    8.7694  -14.4171   20.7525 C   0  0  0  0  0  0  0  0  0  0  0  0
    8.6588  -14.0843   19.3286 C   0  0  0  0  0  0  0  0  0  0  0  0
    8.6557  -12.8241   18.7519 C   0  0  0  0  0  0  0  0  0  0  0  0
    8.4935  -12.9702   17.4199 N   0  0  0  0  0  0  0  0  0  0  0  0
    8.3957  -14.2746   17.1457 C   0  0  0  0  0  0  0  0  0  0  0  0
    8.4953  -14.9444   18.2954 N   0  0  0  0  0  0  0  0  0  0  0  0
   10.2025  -15.5981   22.4686 C   0  0  0  0  0  0  0  0  0  0  0  0
    9.4756  -15.2253   23.4697 O   0  0  0  0  0  0  0  0  0  0  0  0
   10.7433  -18.9223   23.8012 C   0  0  0  0  0  0  0  0  0  0  0  0
   10.9521  -17.4243   23.9997 C   0  0  2  0  0  0  0  0  0  0  0  0
   10.9737  -16.7406   22.7168 N   0  0  0  0  0  0  0  0  0  0  0  0
   12.1435  -17.1686   24.8248 C   0  0  0  0  0  0  0  0  0  0  0  0
   13.2268  -16.4128   24.4154 O   0  0  0  0  0  0  0  0  0  0  0  0
   12.2204  -17.6607   26.0031 O   0  0  0  0  0  0  0  0  0  0  0  0
  1  2  1  0
  2  3  2  0
  4  5  1  0
  4  2  1  0
  5  6  1  6
  7  8  2  0
  7  5  1  0
  9  7  1  0
 10 11  1  6
 10  9  1  0
 11 12  1  0
 12 13  2  0
 12 16  1  0
 13 14  1  0
 14 15  1  0
 16 15  2  0
 17 21  1  0
 17 10  1  0
 18 17  2  0
 20 21  1  0
 20 19  1  6
 22 20  1  0
 23 22  1  0
 24 22  2  0
M  END
$$$$
