NHA.pdb
     RDKit          3D

 24 24  0  0  1  0  0  0  0  0999 V2000
   14.6375  -15.1240   16.1382 N   0  0  0  0  0  0  0  0  0  0  0  0
   14.3712  -14.8643   17.5182 C   0  0  0  0  0  0  0  0  0  0  0  0
   15.3025  -14.6875   18.3274 O   0  0  0  0  0  0  0  0  0  0  0  0
   12.9740  -14.8106   17.9596 C   0  0  0  0  0  0  0  0  0  0  0  0
   12.8263  -15.3243   19.3502 C   0  0  2  0  0  0  0  0  0  0  0  0
   12.5036  -16.7745   19.2253 N   0  0  0  0  0  0  0  0  0  0  0  0
   11.6837  -14.6906   20.0982 C   0  0  0  0  0  0  0  0  0  0  0  0
   11.6378  -13.5035   20.4665 O   0  0  0  0  0  0  0  0  0  0  0  0
   10.5278  -15.4788   20.4386 N   0  0  0  0  0  0  0  0  0  0  0  0
    9.3804  -14.8470   21.1271 C   0  0  1  0  0  0  0  0  0  0  0  0
    8.1503  -15.0136   20.3175 C   0  0  0  0  0  0  0  0  0  0  0  0
    8.1625  -14.4670   18.9569 C   0  0  0  0  0  0  0  0  0  0  0  0
    8.1922  -13.1334   18.5809 C   0  0  0  0  0  0  0  0  0  0  0  0
    8.1518  -13.0741   17.2331 N   0  0  0  0  0  0  0  0  0  0  0  0
    8.0984  -14.3213   16.7556 C   0  0  0  0  0  0  0  0  0  0  0  0
    8.1047  -15.1591   17.7942 N   0  0  0  0  0  0  0  0  0  0  0  0
    9.3500  -15.2108   22.5347 C   0  0  0  0  0  0  0  0  0  0  0  0
    9.9804  -16.2876   22.8700 O   0  0  0  0  0  0  0  0  0  0  0  0
    7.9083  -14.2129   25.8853 C   0  0  0  0  0  0  0  0  0  0  0  0
    8.6550  -15.1421   24.9334 C   0  0  2  0  0  0  0  0  0  0  0  0
    8.7316  -14.5538   23.6060 N   0  0  0  0  0  0  0  0  0  0  0  0
    8.0631  -16.4893   24.9484 C   0  0  0  0  0  0  0  0  0  0  0  0
    8.3157  -17.4403   25.9201 O   0  0  0  0  0  0  0  0  0  0  0  0
    7.2579  -16.8421   24.0190 O   0  0  0  0  0  0  0  0  0  0  0  0
  1  2  1  0
  2  3  2  0
  4  5  1  0
  4  2  1  0
  5  6  1  6
  7  8  2  0
  7  5  1  0
  9  7  1  0
 10 11  1  6
 10  9  1  0
 11 12  1  0
 12 13  2  0
 12 16  1  0
 13 14  1  0
 14 15  1  0
 16 15  2  0
 17 21  1  0
 17 10  1  0
 18 17  2  0
 20 21  1  0
 20 19  1  1
 22 20  1  0
 23 22  1  0
 24 22  2  0
M  END
$$$$
