NHA.pdb
     RDKit          3D

 24 24  0  0  1  0  0  0  0  0999 V2000
    8.3402  -12.1373   18.4645 N   0  0  0  0  0  0  0  0  0  0  0  0
    8.0634  -13.5218   18.6861 C   0  0  0  0  0  0  0  0  0  0  0  0
    8.2563  -14.3645   17.7883 O   0  0  0  0  0  0  0  0  0  0  0  0
    7.5464  -13.9274   19.9968 C   0  0  0  0  0  0  0  0  0  0  0  0
    8.6435  -14.0448   20.9978 C   0  0  2  0  0  0  0  0  0  0  0  0
    9.5951  -15.0561   20.4548 N   0  0  0  0  0  0  0  0  0  0  0  0
    8.1763  -14.5641   22.3315 C   0  0  0  0  0  0  0  0  0  0  0  0
    7.2452  -14.0842   23.0020 O   0  0  0  0  0  0  0  0  0  0  0  0
    8.8262  -15.7056   22.9214 N   0  0  0  0  0  0  0  0  0  0  0  0
    8.4030  -16.1884   24.2547 C   0  0  1  0  0  0  0  0  0  0  0  0
    8.2451  -17.6618   24.2327 C   0  0  0  0  0  0  0  0  0  0  0  0
    7.1699  -18.2097   23.3996 C   0  0  0  0  0  0  0  0  0  0  0  0
    5.8360  -17.8341   23.3847 C   0  0  0  0  0  0  0  0  0  0  0  0
    5.1861  -18.6205   22.5010 N   0  0  0  0  0  0  0  0  0  0  0  0
    6.0659  -19.4719   21.9648 C   0  0  0  0  0  0  0  0  0  0  0  0
    7.2598  -19.2238   22.5066 N   0  0  0  0  0  0  0  0  0  0  0  0
    9.2018  -15.5828   25.3082 C   0  0  0  0  0  0  0  0  0  0  0  0
   10.4850  -15.6331   25.1656 O   0  0  0  0  0  0  0  0  0  0  0  0
    9.1643  -13.2525   28.2122 C   0  0  0  0  0  0  0  0  0  0  0  0
    9.7218  -14.4718   27.4845 C   0  0  2  0  0  0  0  0  0  0  0  0
    8.7817  -14.9349   26.4767 N   0  0  0  0  0  0  0  0  0  0  0  0
   10.1200  -15.5145   28.4435 C   0  0  0  0  0  0  0  0  0  0  0  0
   11.1561  -15.3843   29.3502 O   0  0  0  0  0  0  0  0  0  0  0  0
    9.4918  -16.6286   28.4710 O   0  0  0  0  0  0  0  0  0  0  0  0
  1  2  1  0
  2  3  2  0
  4  5  1  0
  4  2  1  0
  5  6  1  6
  7  8  2  0
  7  5  1  0
  9  7  1  0
 10 11  1  6
 10  9  1  0
 11 12  1  0
 12 13  2  0
 12 16  1  0
 13 14  1  0
 14 15  1  0
 16 15  2  0
 17 21  1  0
 17 10  1  0
 18 17  2  0
 20 21  1  0
 20 19  1  1
 22 20  1  0
 23 22  1  0
 24 22  2  0
M  END
$$$$
