NHA.pdb
     RDKit          3D

 24 24  0  0  1  0  0  0  0  0999 V2000
   13.8200  -17.5987   18.4795 N   0  0  0  0  0  0  0  0  0  0  0  0
   12.4116  -17.7851   18.6352 C   0  0  0  0  0  0  0  0  0  0  0  0
   11.8492  -18.8076   18.1974 O   0  0  0  0  0  0  0  0  0  0  0  0
   11.6432  -16.7430   19.3233 C   0  0  0  0  0  0  0  0  0  0  0  0
   11.4525  -17.0740   20.7633 C   0  0  2  0  0  0  0  0  0  0  0  0
   10.4184  -18.1470   20.8096 N   0  0  0  0  0  0  0  0  0  0  0  0
   10.9158  -15.9220   21.5705 C   0  0  0  0  0  0  0  0  0  0  0  0
   11.5308  -14.8688   21.8144 O   0  0  0  0  0  0  0  0  0  0  0  0
    9.5898  -15.9956   22.1267 N   0  0  0  0  0  0  0  0  0  0  0  0
    9.0389  -14.8448   22.8763 C   0  0  1  0  0  0  0  0  0  0  0  0
    7.6476  -14.5769   22.4418 C   0  0  0  0  0  0  0  0  0  0  0  0
    7.4318  -14.2867   21.0207 C   0  0  0  0  0  0  0  0  0  0  0  0
    7.6987  -13.1046   20.3484 C   0  0  0  0  0  0  0  0  0  0  0  0
    7.3131  -13.2536   19.0636 N   0  0  0  0  0  0  0  0  0  0  0  0
    6.8162  -14.4849   18.9106 C   0  0  0  0  0  0  0  0  0  0  0  0
    6.8880  -15.1060   20.0894 N   0  0  0  0  0  0  0  0  0  0  0  0
    9.3208  -14.9632   24.2980 C   0  0  0  0  0  0  0  0  0  0  0  0
    9.7579  -16.1071   24.7100 O   0  0  0  0  0  0  0  0  0  0  0  0
    9.3261  -13.0498   27.5594 C   0  0  0  0  0  0  0  0  0  0  0  0
    9.5027  -14.2970   26.6989 C   0  0  2  0  0  0  0  0  0  0  0  0
    9.1922  -14.0028   25.3093 N   0  0  0  0  0  0  0  0  0  0  0  0
    8.7330  -15.4239   27.2497 C   0  0  0  0  0  0  0  0  0  0  0  0
    9.1598  -16.2211   28.2959 O   0  0  0  0  0  0  0  0  0  0  0  0
    7.5903  -15.7174   26.7551 O   0  0  0  0  0  0  0  0  0  0  0  0
  1  2  1  0
  2  3  2  0
  4  5  1  0
  4  2  1  0
  5  6  1  6
  7  8  2  0
  7  5  1  0
  9  7  1  0
 10 11  1  1
 10  9  1  0
 11 12  1  0
 12 13  2  0
 12 16  1  0
 13 14  1  0
 14 15  1  0
 16 15  2  0
 17 21  1  0
 17 10  1  0
 18 17  2  0
 20 21  1  0
 20 19  1  1
 22 20  1  0
 23 22  1  0
 24 22  2  0
M  END
$$$$
