NHA.pdb
     RDKit          3D

 24 24  0  0  1  0  0  0  0  0999 V2000
    6.4541  -13.0206   12.4046 N   0  0  0  0  0  0  0  0  0  0  0  0
    7.7750  -13.4793   12.7004 C   0  0  0  0  0  0  0  0  0  0  0  0
    8.7748  -12.8633   12.2826 O   0  0  0  0  0  0  0  0  0  0  0  0
    7.9259  -14.6936   13.5081 C   0  0  0  0  0  0  0  0  0  0  0  0
    9.3041  -14.8064   14.0624 C   0  0  2  0  0  0  0  0  0  0  0  0
   10.2185  -14.8926   12.8879 N   0  0  0  0  0  0  0  0  0  0  0  0
    9.5182  -16.0594   14.8691 C   0  0  0  0  0  0  0  0  0  0  0  0
    8.8327  -16.4096   15.8460 O   0  0  0  0  0  0  0  0  0  0  0  0
   10.5887  -16.9580   14.5229 N   0  0  0  0  0  0  0  0  0  0  0  0
   10.8423  -18.1575   15.3515 C   0  0  1  0  0  0  0  0  0  0  0  0
   11.3759  -19.2523   14.5071 C   0  0  0  0  0  0  0  0  0  0  0  0
   11.7404  -20.5030   15.1803 C   0  0  0  0  0  0  0  0  0  0  0  0
   12.1945  -20.6634   16.4798 C   0  0  0  0  0  0  0  0  0  0  0  0
   12.4506  -21.9736   16.6785 N   0  0  0  0  0  0  0  0  0  0  0  0
   12.1725  -22.6353   15.5511 C   0  0  0  0  0  0  0  0  0  0  0  0
   11.7452  -21.7490   14.6497 N   0  0  0  0  0  0  0  0  0  0  0  0
   11.5446  -17.8085   16.5762 C   0  0  0  0  0  0  0  0  0  0  0  0
   12.5401  -16.9927   16.4623 O   0  0  0  0  0  0  0  0  0  0  0  0
   11.4239  -18.1230   20.3311 C   0  0  0  0  0  0  0  0  0  0  0  0
   12.1043  -17.7755   19.0107 C   0  0  2  0  0  0  0  0  0  0  0  0
   11.2968  -18.2277   17.8894 N   0  0  0  0  0  0  0  0  0  0  0  0
   13.4852  -18.2834   18.9861 C   0  0  0  0  0  0  0  0  0  0  0  0
   14.5728  -17.6086   19.5097 O   0  0  0  0  0  0  0  0  0  0  0  0
   13.7373  -19.4192   18.4539 O   0  0  0  0  0  0  0  0  0  0  0  0
  1  2  1  0
  2  3  2  0
  4  5  1  0
  4  2  1  0
  5  6  1  6
  7  8  2  0
  7  5  1  0
  9  7  1  0
 10 11  1  6
 10  9  1  0
 11 12  1  0
 12 13  2  0
 12 16  1  0
 13 14  1  0
 14 15  1  0
 16 15  2  0
 17 21  1  0
 17 10  1  0
 18 17  2  0
 20 21  1  0
 20 19  1  1
 22 20  1  0
 23 22  1  0
 24 22  2  0
M  END
$$$$
