NHA.pdb
     RDKit          3D

 24 24  0  0  1  0  0  0  0  0999 V2000
   13.5772  -18.1438   12.6964 N   0  0  0  0  0  0  0  0  0  0  0  0
   12.4487  -17.8082   13.5067 C   0  0  0  0  0  0  0  0  0  0  0  0
   11.5656  -17.0360   13.0855 O   0  0  0  0  0  0  0  0  0  0  0  0
   12.3549  -18.3949   14.8471 C   0  0  0  0  0  0  0  0  0  0  0  0
   12.4606  -17.3496   15.9033 C   0  0  2  0  0  0  0  0  0  0  0  0
   13.8743  -16.8763   15.8795 N   0  0  0  0  0  0  0  0  0  0  0  0
   12.2060  -17.8792   17.2894 C   0  0  0  0  0  0  0  0  0  0  0  0
   11.1173  -18.3175   17.7011 O   0  0  0  0  0  0  0  0  0  0  0  0
   13.2753  -17.9020   18.2533 N   0  0  0  0  0  0  0  0  0  0  0  0
   13.0706  -18.5506   19.5676 C   0  0  1  0  0  0  0  0  0  0  0  0
   14.1203  -19.5711   19.7973 C   0  0  0  0  0  0  0  0  0  0  0  0
   13.9379  -20.8782   19.1581 C   0  0  0  0  0  0  0  0  0  0  0  0
   12.7493  -21.4605   18.7472 C   0  0  0  0  0  0  0  0  0  0  0  0
   13.0292  -22.6827   18.2472 N   0  0  0  0  0  0  0  0  0  0  0  0
   14.3480  -22.8829   18.3314 C   0  0  0  0  0  0  0  0  0  0  0  0
   14.8940  -21.7960   18.8800 N   0  0  0  0  0  0  0  0  0  0  0  0
   12.8113  -17.5634   20.6034 C   0  0  0  0  0  0  0  0  0  0  0  0
   13.6996  -16.6381   20.7591 O   0  0  0  0  0  0  0  0  0  0  0  0
   10.2699  -16.3310   23.0916 C   0  0  0  0  0  0  0  0  0  0  0  0
   11.6933  -16.5061   22.5715 C   0  0  2  0  0  0  0  0  0  0  0  0
   11.7186  -17.4586   21.4733 N   0  0  0  0  0  0  0  0  0  0  0  0
   12.6115  -16.8472   23.6697 C   0  0  0  0  0  0  0  0  0  0  0  0
   13.2976  -18.0438   23.7680 O   0  0  0  0  0  0  0  0  0  0  0  0
   12.8145  -16.0089   24.6144 O   0  0  0  0  0  0  0  0  0  0  0  0
  1  2  1  0
  2  3  2  0
  4  5  1  0
  4  2  1  0
  5  6  1  1
  7  8  2  0
  7  5  1  0
  9  7  1  0
 10 11  1  1
 10  9  1  0
 11 12  1  0
 12 13  2  0
 12 16  1  0
 13 14  1  0
 14 15  1  0
 16 15  2  0
 17 21  1  0
 17 10  1  0
 18 17  2  0
 20 21  1  0
 20 19  1  1
 22 20  1  0
 23 22  1  0
 24 22  2  0
M  END
$$$$
