NHA.pdb
     RDKit          3D

 24 24  0  0  1  0  0  0  0  0999 V2000
    9.4667  -13.3596   15.7615 N   0  0  0  0  0  0  0  0  0  0  0  0
    8.0746  -13.6829   15.7511 C   0  0  0  0  0  0  0  0  0  0  0  0
    7.4529  -13.8005   14.6773 O   0  0  0  0  0  0  0  0  0  0  0  0
    7.3944  -13.8730   17.0361 C   0  0  0  0  0  0  0  0  0  0  0  0
    8.3640  -13.8670   18.1671 C   0  0  2  0  0  0  0  0  0  0  0  0
    9.5559  -14.6294   17.6967 N   0  0  0  0  0  0  0  0  0  0  0  0
    7.8519  -14.5785   19.3911 C   0  0  0  0  0  0  0  0  0  0  0  0
    6.7878  -14.3177   19.9798 O   0  0  0  0  0  0  0  0  0  0  0  0
    8.6177  -15.6541   19.9652 N   0  0  0  0  0  0  0  0  0  0  0  0
    8.1514  -16.3116   21.2062 C   0  0  1  0  0  0  0  0  0  0  0  0
    8.3477  -17.7772   21.1070 C   0  0  0  0  0  0  0  0  0  0  0  0
    7.4415  -18.5181   20.2237 C   0  0  0  0  0  0  0  0  0  0  0  0
    6.1912  -18.1257   19.7727 C   0  0  0  0  0  0  0  0  0  0  0  0
    5.6843  -19.1215   19.0155 N   0  0  0  0  0  0  0  0  0  0  0  0
    6.5727  -20.1194   18.9780 C   0  0  0  0  0  0  0  0  0  0  0  0
    7.6301  -19.7551   19.7058 N   0  0  0  0  0  0  0  0  0  0  0  0
    8.6431  -15.6148   22.3840 C   0  0  0  0  0  0  0  0  0  0  0  0
    9.9206  -15.4378   22.4629 O   0  0  0  0  0  0  0  0  0  0  0  0
    7.6567  -13.5999   25.3889 C   0  0  0  0  0  0  0  0  0  0  0  0
    8.5871  -14.5524   24.6444 C   0  0  2  0  0  0  0  0  0  0  0  0
    7.9257  -15.0905   23.4667 N   0  0  0  0  0  0  0  0  0  0  0  0
    9.1097  -15.5863   25.5518 C   0  0  0  0  0  0  0  0  0  0  0  0
   10.0227  -15.3465   26.5624 O   0  0  0  0  0  0  0  0  0  0  0  0
    8.7187  -16.7983   25.4298 O   0  0  0  0  0  0  0  0  0  0  0  0
  1  2  1  0
  2  3  2  0
  4  5  1  0
  4  2  1  0
  5  6  1  6
  7  8  2  0
  7  5  1  0
  9  7  1  0
 10 11  1  1
 10  9  1  0
 11 12  1  0
 12 13  2  0
 12 16  1  0
 13 14  1  0
 14 15  1  0
 16 15  2  0
 17 21  1  0
 17 10  1  0
 18 17  2  0
 20 21  1  0
 20 19  1  1
 22 20  1  0
 23 22  1  0
 24 22  2  0
M  END
$$$$
