NHA.pdb
     RDKit          3D

 24 24  0  0  1  0  0  0  0  0999 V2000
   10.9079  -17.1515   17.5018 N   0  0  0  0  0  0  0  0  0  0  0  0
   10.0485  -17.6298   18.5387 C   0  0  0  0  0  0  0  0  0  0  0  0
    9.6961  -18.8247   18.5773 O   0  0  0  0  0  0  0  0  0  0  0  0
    9.5910  -16.6797   19.5575 C   0  0  0  0  0  0  0  0  0  0  0  0
   10.3835  -16.8093   20.8123 C   0  0  2  0  0  0  0  0  0  0  0  0
   10.0217  -18.1321   21.3974 N   0  0  0  0  0  0  0  0  0  0  0  0
   10.0339  -15.7706   21.8445 C   0  0  0  0  0  0  0  0  0  0  0  0
   10.2052  -14.5454   21.7159 O   0  0  0  0  0  0  0  0  0  0  0  0
    9.4521  -16.1759   23.0976 N   0  0  0  0  0  0  0  0  0  0  0  0
    9.0340  -15.1533   24.0822 C   0  0  1  0  0  0  0  0  0  0  0  0
    7.5629  -14.9795   24.0377 C   0  0  0  0  0  0  0  0  0  0  0  0
    6.9746  -13.9969   24.9535 C   0  0  0  0  0  0  0  0  0  0  0  0
    7.1588  -12.6233   24.9529 C   0  0  0  0  0  0  0  0  0  0  0  0
    6.4671  -12.1045   25.9893 N   0  0  0  0  0  0  0  0  0  0  0  0
    5.8587  -13.1040   26.6352 C   0  0  0  0  0  0  0  0  0  0  0  0
    6.1650  -14.2428   26.0109 N   0  0  0  0  0  0  0  0  0  0  0  0
    9.6773  -15.3713   25.3680 C   0  0  0  0  0  0  0  0  0  0  0  0
   10.2334  -16.5231   25.5513 O   0  0  0  0  0  0  0  0  0  0  0  0
   10.5354  -13.6959   28.6478 C   0  0  0  0  0  0  0  0  0  0  0  0
   10.5629  -14.8441   27.6438 C   0  0  2  0  0  0  0  0  0  0  0  0
    9.7924  -14.5011   26.4595 N   0  0  0  0  0  0  0  0  0  0  0  0
   10.1400  -16.1025   28.2788 C   0  0  0  0  0  0  0  0  0  0  0  0
   10.9570  -16.8881   29.0712 O   0  0  0  0  0  0  0  0  0  0  0  0
    8.9467  -16.5318   28.1106 O   0  0  0  0  0  0  0  0  0  0  0  0
  1  2  1  0
  2  3  2  0
  4  5  1  0
  4  2  1  0
  5  6  1  1
  7  8  2  0
  7  5  1  0
  9  7  1  0
 10 11  1  1
 10  9  1  0
 11 12  1  0
 12 13  2  0
 12 16  1  0
 13 14  1  0
 14 15  1  0
 16 15  2  0
 17 21  1  0
 17 10  1  0
 18 17  2  0
 20 21  1  0
 20 19  1  1
 22 20  1  0
 23 22  1  0
 24 22  2  0
M  END
$$$$
