NHA.pdb
     RDKit          3D

 24 24  0  0  1  0  0  0  0  0999 V2000
   18.7549  -11.5358   12.8274 N   0  0  0  0  0  0  0  0  0  0  0  0
   17.6876  -12.4810   12.9289 C   0  0  0  0  0  0  0  0  0  0  0  0
   17.5269  -13.3603   12.0604 O   0  0  0  0  0  0  0  0  0  0  0  0
   16.7852  -12.3911   14.0810 C   0  0  0  0  0  0  0  0  0  0  0  0
   16.6431  -13.7092   14.7605 C   0  0  2  0  0  0  0  0  0  0  0  0
   15.8630  -14.5744   13.8300 N   0  0  0  0  0  0  0  0  0  0  0  0
   15.8565  -13.6340   16.0420 C   0  0  0  0  0  0  0  0  0  0  0  0
   16.1351  -12.9090   17.0134 O   0  0  0  0  0  0  0  0  0  0  0  0
   14.6790  -14.4462   16.2063 N   0  0  0  0  0  0  0  0  0  0  0  0
   13.9368  -14.4196   17.4863 C   0  0  1  0  0  0  0  0  0  0  0  0
   12.5235  -14.8036   17.2599 C   0  0  0  0  0  0  0  0  0  0  0  0
   11.7061  -15.0856   18.4443 C   0  0  0  0  0  0  0  0  0  0  0  0
   11.4323  -14.2369   19.5051 C   0  0  0  0  0  0  0  0  0  0  0  0
   10.6761  -14.9088   20.3986 N   0  0  0  0  0  0  0  0  0  0  0  0
   10.4685  -16.1445   19.9335 C   0  0  0  0  0  0  0  0  0  0  0  0
   11.0891  -16.2499   18.7570 N   0  0  0  0  0  0  0  0  0  0  0  0
   14.6861  -15.0861   18.5394 C   0  0  0  0  0  0  0  0  0  0  0  0
   15.1679  -16.2521   18.2606 O   0  0  0  0  0  0  0  0  0  0  0  0
   16.8955  -14.6524   21.3535 C   0  0  0  0  0  0  0  0  0  0  0  0
   15.7310  -15.4529   20.7788 C   0  0  2  0  0  0  0  0  0  0  0  0
   14.9752  -14.6438   19.8366 N   0  0  0  0  0  0  0  0  0  0  0  0
   14.9092  -16.0253   21.8570 C   0  0  0  0  0  0  0  0  0  0  0  0
   15.2396  -17.1653   22.5667 O   0  0  0  0  0  0  0  0  0  0  0  0
   13.8100  -15.4611   22.1886 O   0  0  0  0  0  0  0  0  0  0  0  0
  1  2  1  0
  2  3  2  0
  4  5  1  0
  4  2  1  0
  5  6  1  6
  7  8  2  0
  7  5  1  0
  9  7  1  0
 10 11  1  6
 10  9  1  0
 11 12  1  0
 12 13  2  0
 12 16  1  0
 13 14  1  0
 14 15  1  0
 16 15  2  0
 17 21  1  0
 17 10  1  0
 18 17  2  0
 20 21  1  0
 20 19  1  1
 22 20  1  0
 23 22  1  0
 24 22  2  0
M  END
$$$$
