NHA.pdb
     RDKit          3D

 24 24  0  0  1  0  0  0  0  0999 V2000
   13.6223  -17.5911   15.5358 N   0  0  0  0  0  0  0  0  0  0  0  0
   12.3082  -17.9284   15.9852 C   0  0  0  0  0  0  0  0  0  0  0  0
   11.7817  -19.0124   15.6671 O   0  0  0  0  0  0  0  0  0  0  0  0
   11.5934  -16.9672   16.8308 C   0  0  0  0  0  0  0  0  0  0  0  0
   11.4988  -17.4500   18.2370 C   0  0  2  0  0  0  0  0  0  0  0  0
   10.4455  -18.5053   18.2440 N   0  0  0  0  0  0  0  0  0  0  0  0
   11.0488  -16.3846   19.2008 C   0  0  0  0  0  0  0  0  0  0  0  0
   11.6814  -15.3485   19.4715 O   0  0  0  0  0  0  0  0  0  0  0  0
    9.7930  -16.5289   19.8903 N   0  0  0  0  0  0  0  0  0  0  0  0
    9.3244  -15.4612   20.8015 C   0  0  1  0  0  0  0  0  0  0  0  0
    7.9986  -14.9661   20.3615 C   0  0  0  0  0  0  0  0  0  0  0  0
    7.9022  -14.4202   19.0039 C   0  0  0  0  0  0  0  0  0  0  0  0
    8.1834  -13.1280   18.5896 C   0  0  0  0  0  0  0  0  0  0  0  0
    7.9225  -13.0425   17.2680 N   0  0  0  0  0  0  0  0  0  0  0  0
    7.4894  -14.2337   16.8439 C   0  0  0  0  0  0  0  0  0  0  0  0
    7.4775  -15.0624   17.8898 N   0  0  0  0  0  0  0  0  0  0  0  0
    9.5054  -15.8439   22.1927 C   0  0  0  0  0  0  0  0  0  0  0  0
    9.0503  -17.0022   22.5402 O   0  0  0  0  0  0  0  0  0  0  0  0
    8.6546  -15.6816   25.1193 C   0  0  0  0  0  0  0  0  0  0  0  0
   10.0904  -15.6046   24.6096 C   0  0  2  0  0  0  0  0  0  0  0  0
   10.1160  -15.1340   23.2342 N   0  0  0  0  0  0  0  0  0  0  0  0
   10.7834  -16.8877   24.8072 C   0  0  0  0  0  0  0  0  0  0  0  0
   10.8100  -17.9100   23.8764 O   0  0  0  0  0  0  0  0  0  0  0  0
   11.4133  -17.1105   25.8982 O   0  0  0  0  0  0  0  0  0  0  0  0
  1  2  1  0
  2  3  2  0
  4  5  1  0
  4  2  1  0
  5  6  1  6
  7  8  2  0
  7  5  1  0
  9  7  1  0
 10 11  1  1
 10  9  1  0
 11 12  1  0
 12 13  2  0
 12 16  1  0
 13 14  1  0
 14 15  1  0
 16 15  2  0
 17 21  1  0
 17 10  1  0
 18 17  2  0
 20 21  1  0
 20 19  1  6
 22 20  1  0
 23 22  1  0
 24 22  2  0
M  END
$$$$
