NHA.pdb
     RDKit          3D

 24 24  0  0  1  0  0  0  0  0999 V2000
   13.8713  -19.3193   21.4553 N   0  0  0  0  0  0  0  0  0  0  0  0
   13.9693  -17.9250   21.1571 C   0  0  0  0  0  0  0  0  0  0  0  0
   14.6721  -17.5209   20.2104 O   0  0  0  0  0  0  0  0  0  0  0  0
   13.2219  -16.9801   21.9929 C   0  0  0  0  0  0  0  0  0  0  0  0
   11.7813  -16.9464   21.6149 C   0  0  2  0  0  0  0  0  0  0  0  0
   11.7215  -16.3247   20.2611 N   0  0  0  0  0  0  0  0  0  0  0  0
   10.9497  -16.0815   22.5243 C   0  0  0  0  0  0  0  0  0  0  0  0
   11.0121  -14.8410   22.5892 O   0  0  0  0  0  0  0  0  0  0  0  0
    9.9907  -16.6901   23.4092 N   0  0  0  0  0  0  0  0  0  0  0  0
    9.1522  -15.8416   24.2849 C   0  0  1  0  0  0  0  0  0  0  0  0
    7.7395  -16.2842   24.2164 C   0  0  0  0  0  0  0  0  0  0  0  0
    7.0009  -15.9852   22.9853 C   0  0  0  0  0  0  0  0  0  0  0  0
    7.4464  -15.2730   21.8831 C   0  0  0  0  0  0  0  0  0  0  0  0
    6.4353  -15.1987   20.9920 N   0  0  0  0  0  0  0  0  0  0  0  0
    5.3767  -15.8385   21.4984 C   0  0  0  0  0  0  0  0  0  0  0  0
    5.7183  -16.3115   22.6984 N   0  0  0  0  0  0  0  0  0  0  0  0
    9.7706  -15.6640   25.5890 C   0  0  0  0  0  0  0  0  0  0  0  0
   10.5256  -16.6246   26.0093 O   0  0  0  0  0  0  0  0  0  0  0  0
    9.9967  -13.3116   28.5408 C   0  0  0  0  0  0  0  0  0  0  0  0
   10.3240  -14.5902   27.7757 C   0  0  2  0  0  0  0  0  0  0  0  0
    9.6737  -14.5839   26.4754 N   0  0  0  0  0  0  0  0  0  0  0  0
   10.0108  -15.7777   28.5864 C   0  0  0  0  0  0  0  0  0  0  0  0
   10.8405  -16.2938   29.5649 O   0  0  0  0  0  0  0  0  0  0  0  0
    8.9089  -16.4016   28.4038 O   0  0  0  0  0  0  0  0  0  0  0  0
  1  2  1  0
  2  3  2  0
  4  5  1  0
  4  2  1  0
  5  6  1  6
  7  8  2  0
  7  5  1  0
  9  7  1  0
 10 11  1  1
 10  9  1  0
 11 12  1  0
 12 13  2  0
 12 16  1  0
 13 14  1  0
 14 15  1  0
 16 15  2  0
 17 21  1  0
 17 10  1  0
 18 17  2  0
 20 21  1  0
 20 19  1  1
 22 20  1  0
 23 22  1  0
 24 22  2  0
M  END
$$$$
