FPN.pdb
     RDKit          3D

 27 28  0  0  1  0  0  0  0  0999 V2000
   26.0469  -18.5770   -8.4368 N   0  0  0  0  0  0  0  0  0  0  0  0
   26.8159  -19.6275   -9.0334 C   0  0  1  0  0  0  0  0  0  0  0  0
   26.8733  -20.8621   -8.1416 C   0  0  0  0  0  0  0  0  0  0  0  0
   27.5548  -20.5652   -6.8776 C   0  0  0  0  0  0  0  0  0  0  0  0
   26.8898  -20.5685   -5.6500 C   0  0  0  0  0  0  0  0  0  0  0  0
   27.5225  -20.2886   -4.4752 C   0  0  0  0  0  0  0  0  0  0  0  0
   28.8615  -19.9860   -4.4410 C   0  0  0  0  0  0  0  0  0  0  0  0
   29.5543  -19.9717   -5.6289 C   0  0  0  0  0  0  0  0  0  0  0  0
   28.9071  -20.2556   -6.8110 C   0  0  0  0  0  0  0  0  0  0  0  0
   26.2902  -20.0166  -10.3525 C   0  0  0  0  0  0  0  0  0  0  0  0
   25.0148  -19.8919  -10.4607 O   0  0  0  0  0  0  0  0  0  0  0  0
   27.0603  -20.4901  -11.4370 N   0  0  0  0  0  0  0  0  0  0  0  0
   28.4129  -20.9666  -11.4197 C   0  0  0  0  0  0  0  0  0  0  0  0
   28.8390  -20.7681  -12.8854 C   0  0  0  0  0  0  0  0  0  0  0  0
   27.6037  -21.2474  -13.6094 C   0  0  0  0  0  0  0  0  0  0  0  0
   26.5199  -20.5691  -12.7992 C   0  0  1  0  0  0  0  0  0  0  0  0
   25.2638  -21.3743  -12.8120 C   0  0  0  0  0  0  0  0  0  0  0  0
   24.9318  -22.0410  -11.8211 O   0  0  0  0  0  0  0  0  0  0  0  0
   21.9737  -20.8042  -10.4977 N   0  0  0  0  0  0  0  0  0  0  0  0
   21.7289  -21.0959  -11.8618 C   0  0  0  0  0  0  0  0  0  0  0  0
   20.8966  -21.9764  -12.1764 O   0  0  0  0  0  0  0  0  0  0  0  0
   22.4489  -20.3681  -12.9085 C   0  0  0  0  0  0  0  0  0  0  0  0
   23.0087  -21.2412  -13.9770 C   0  0  2  0  0  0  0  0  0  0  0  0
   24.4390  -21.3789  -13.9689 N   0  0  0  0  0  0  0  0  0  0  0  0
   22.4244  -20.9234  -15.3118 C   0  0  0  0  0  0  0  0  0  0  0  0
   21.5696  -21.7492  -15.7397 O   0  0  0  0  0  0  0  0  0  0  0  0
   22.7688  -19.8280  -16.0482 O   0  0  0  0  0  0  0  0  0  0  0  0
  2  1  1  1
  3  2  1  0
  4  5  2  0
  4  3  1  0
  6  5  1  0
  7  6  2  0
  8  7  1  0
  8  9  2  0
  9  4  1  0
 10 11  2  0
 10  2  1  0
 12 10  1  0
 13 12  1  0
 14 13  1  0
 15 14  1  0
 15 16  1  0
 16 12  1  0
 16 17  1  1
 17 18  2  0
 20 21  2  0
 20 19  1  0
 22 20  1  0
 23 24  1  0
 23 22  1  1
 24 17  1  0
 25 23  1  0
 26 25  2  0
 27 25  1  0
M  END
$$$$
