FPN.pdb
     RDKit          3D

 27 28  0  0  1  0  0  0  0  0999 V2000
   22.7655  -19.4827  -17.5865 N   0  0  0  0  0  0  0  0  0  0  0  0
   23.4428  -18.5071  -16.7865 C   0  0  1  0  0  0  0  0  0  0  0  0
   22.5029  -17.8463  -15.7852 C   0  0  0  0  0  0  0  0  0  0  0  0
   21.4880  -17.0402  -16.4712 C   0  0  0  0  0  0  0  0  0  0  0  0
   21.7994  -15.8527  -17.1362 C   0  0  0  0  0  0  0  0  0  0  0  0
   20.8553  -15.1010  -17.7707 C   0  0  0  0  0  0  0  0  0  0  0  0
   19.5354  -15.4795  -17.7871 C   0  0  0  0  0  0  0  0  0  0  0  0
   19.1858  -16.6435  -17.1434 C   0  0  0  0  0  0  0  0  0  0  0  0
   20.1461  -17.3965  -16.5050 C   0  0  0  0  0  0  0  0  0  0  0  0
   24.5844  -19.0854  -16.0584 C   0  0  0  0  0  0  0  0  0  0  0  0
   24.3268  -20.2164  -15.5028 O   0  0  0  0  0  0  0  0  0  0  0  0
   25.8656  -18.5034  -15.9429 N   0  0  0  0  0  0  0  0  0  0  0  0
   26.3725  -17.3413  -16.6131 C   0  0  0  0  0  0  0  0  0  0  0  0
   27.8929  -17.5694  -16.5394 C   0  0  0  0  0  0  0  0  0  0  0  0
   28.0387  -18.0671  -15.1213 C   0  0  0  0  0  0  0  0  0  0  0  0
   26.8913  -19.0516  -15.0478 C   0  0  1  0  0  0  0  0  0  0  0  0
   26.3642  -19.1506  -13.6554 C   0  0  0  0  0  0  0  0  0  0  0  0
   25.4156  -18.4420  -13.2882 O   0  0  0  0  0  0  0  0  0  0  0  0
   25.6557  -20.5713   -8.7537 N   0  0  0  0  0  0  0  0  0  0  0  0
   24.7075  -20.7569   -9.7893 C   0  0  0  0  0  0  0  0  0  0  0  0
   23.5398  -21.1149   -9.5150 O   0  0  0  0  0  0  0  0  0  0  0  0
   25.0904  -20.5305  -11.1841 C   0  0  0  0  0  0  0  0  0  0  0  0
   26.5427  -20.2641  -11.3775 C   0  0  2  0  0  0  0  0  0  0  0  0
   26.9527  -20.0642  -12.7402 N   0  0  0  0  0  0  0  0  0  0  0  0
   27.3869  -21.2254  -10.6112 C   0  0  0  0  0  0  0  0  0  0  0  0
   27.7882  -22.2316  -11.2609 O   0  0  0  0  0  0  0  0  0  0  0  0
   27.7188  -21.0624   -9.2981 O   0  0  0  0  0  0  0  0  0  0  0  0
  2  1  1  1
  3  2  1  0
  4  5  2  0
  4  3  1  0
  6  5  1  0
  7  6  2  0
  8  7  1  0
  8  9  2  0
  9  4  1  0
 10 11  2  0
 10  2  1  0
 12 10  1  0
 13 12  1  0
 14 13  1  0
 15 14  1  0
 15 16  1  0
 16 12  1  0
 16 17  1  1
 17 18  2  0
 20 21  2  0
 20 19  1  0
 22 20  1  0
 23 24  1  0
 23 22  1  6
 24 17  1  0
 25 23  1  0
 26 25  2  0
 27 25  1  0
M  END
$$$$
