FPN.pdb
     RDKit          3D

 27 28  0  0  1  0  0  0  0  0999 V2000
   24.1769  -18.2433  -17.2772 N   0  0  0  0  0  0  0  0  0  0  0  0
   25.2014  -17.9600  -16.3177 C   0  0  1  0  0  0  0  0  0  0  0  0
   24.9106  -16.6810  -15.5417 C   0  0  0  0  0  0  0  0  0  0  0  0
   25.5376  -15.5224  -16.1858 C   0  0  0  0  0  0  0  0  0  0  0  0
   24.8892  -14.7694  -17.1665 C   0  0  0  0  0  0  0  0  0  0  0  0
   25.4737  -13.6945  -17.7683 C   0  0  0  0  0  0  0  0  0  0  0  0
   26.7444  -13.2947  -17.4353 C   0  0  0  0  0  0  0  0  0  0  0  0
   27.4187  -14.0096  -16.4732 C   0  0  0  0  0  0  0  0  0  0  0  0
   26.8207  -15.0940  -15.8707 C   0  0  0  0  0  0  0  0  0  0  0  0
   25.3851  -19.0654  -15.3626 C   0  0  0  0  0  0  0  0  0  0  0  0
   24.2826  -19.5519  -14.9132 O   0  0  0  0  0  0  0  0  0  0  0  0
   26.6265  -19.5876  -14.9387 N   0  0  0  0  0  0  0  0  0  0  0  0
   27.9317  -19.2959  -15.4565 C   0  0  0  0  0  0  0  0  0  0  0  0
   28.7305  -20.5386  -15.0246 C   0  0  0  0  0  0  0  0  0  0  0  0
   28.2173  -20.7334  -13.6180 C   0  0  0  0  0  0  0  0  0  0  0  0
   26.7307  -20.5441  -13.8305 C   0  0  1  0  0  0  0  0  0  0  0  0
   26.0849  -19.9892  -12.6053 C   0  0  0  0  0  0  0  0  0  0  0  0
   25.7174  -18.8059  -12.5666 O   0  0  0  0  0  0  0  0  0  0  0  0
   23.3568  -21.9219  -11.3731 N   0  0  0  0  0  0  0  0  0  0  0  0
   22.9929  -20.6554  -10.8541 C   0  0  0  0  0  0  0  0  0  0  0  0
   21.8039  -20.2688  -10.9172 O   0  0  0  0  0  0  0  0  0  0  0  0
   24.0065  -19.7943  -10.2422 C   0  0  0  0  0  0  0  0  0  0  0  0
   25.3676  -20.3967  -10.2010 C   0  0  2  0  0  0  0  0  0  0  0  0
   25.8880  -20.8222  -11.4711 N   0  0  0  0  0  0  0  0  0  0  0  0
   25.4913  -21.4069   -9.1110 C   0  0  0  0  0  0  0  0  0  0  0  0
   25.1624  -21.0048   -7.9596 O   0  0  0  0  0  0  0  0  0  0  0  0
   25.9289  -22.6839   -9.3076 O   0  0  0  0  0  0  0  0  0  0  0  0
  2  1  1  6
  3  2  1  0
  4  5  2  0
  4  3  1  0
  6  5  1  0
  7  6  2  0
  8  7  1  0
  8  9  2  0
  9  4  1  0
 10 11  2  0
 10  2  1  0
 12 10  1  0
 13 12  1  0
 14 13  1  0
 15 14  1  0
 15 16  1  0
 16 12  1  0
 16 17  1  1
 17 18  2  0
 20 21  2  0
 20 19  1  0
 22 20  1  0
 23 24  1  0
 23 22  1  6
 24 17  1  0
 25 23  1  0
 26 25  2  0
 27 25  1  0
M  END
$$$$
