FPN.pdb
     RDKit          3D

 27 28  0  0  1  0  0  0  0  0999 V2000
   22.2772  -13.4167  -17.5638 N   0  0  0  0  0  0  0  0  0  0  0  0
   21.1316  -12.5902  -17.7990 C   0  0  1  0  0  0  0  0  0  0  0  0
   20.0262  -12.8548  -16.7836 C   0  0  0  0  0  0  0  0  0  0  0  0
   19.4968  -14.2148  -16.9266 C   0  0  0  0  0  0  0  0  0  0  0  0
   18.6630  -14.5861  -17.9830 C   0  0  0  0  0  0  0  0  0  0  0  0
   18.1676  -15.8497  -18.1138 C   0  0  0  0  0  0  0  0  0  0  0  0
   18.4680  -16.8312  -17.2018 C   0  0  0  0  0  0  0  0  0  0  0  0
   19.2866  -16.5071  -16.1452 C   0  0  0  0  0  0  0  0  0  0  0  0
   19.7825  -15.2283  -16.0210 C   0  0  0  0  0  0  0  0  0  0  0  0
   21.4691  -11.1573  -17.7734 C   0  0  0  0  0  0  0  0  0  0  0  0
   22.3003  -10.8361  -16.8460 O   0  0  0  0  0  0  0  0  0  0  0  0
   20.9621  -10.1777  -18.6547 N   0  0  0  0  0  0  0  0  0  0  0  0
   20.0543  -10.3586  -19.7501 C   0  0  0  0  0  0  0  0  0  0  0  0
   20.3534   -9.1236  -20.6186 C   0  0  0  0  0  0  0  0  0  0  0  0
   20.4668   -8.0515  -19.5613 C   0  0  0  0  0  0  0  0  0  0  0  0
   21.3197   -8.7598  -18.5308 C   0  0  1  0  0  0  0  0  0  0  0  0
   21.0124   -8.2665  -17.1566 C   0  0  0  0  0  0  0  0  0  0  0  0
   20.0684   -8.7449  -16.5110 O   0  0  0  0  0  0  0  0  0  0  0  0
   22.3668   -6.3242  -12.0685 N   0  0  0  0  0  0  0  0  0  0  0  0
   22.5527   -5.5960  -13.2689 C   0  0  0  0  0  0  0  0  0  0  0  0
   22.4976   -4.3454  -13.2600 O   0  0  0  0  0  0  0  0  0  0  0  0
   22.8099   -6.3039  -14.5244 C   0  0  0  0  0  0  0  0  0  0  0  0
   21.5806   -6.6249  -15.3010 C   0  0  2  0  0  0  0  0  0  0  0  0
   21.8071   -7.2394  -16.5801 N   0  0  0  0  0  0  0  0  0  0  0  0
   20.6276   -5.4781  -15.3247 C   0  0  0  0  0  0  0  0  0  0  0  0
   19.8986   -5.3581  -14.3000 O   0  0  0  0  0  0  0  0  0  0  0  0
   20.5214   -4.6026  -16.3653 O   0  0  0  0  0  0  0  0  0  0  0  0
  2  1  1  1
  3  2  1  0
  4  5  2  0
  4  3  1  0
  6  5  1  0
  7  6  2  0
  8  7  1  0
  8  9  2  0
  9  4  1  0
 10 11  2  0
 10  2  1  0
 12 10  1  0
 13 12  1  0
 14 13  1  0
 15 14  1  0
 15 16  1  0
 16 12  1  0
 16 17  1  1
 17 18  2  0
 20 21  2  0
 20 19  1  0
 22 20  1  0
 23 24  1  0
 23 22  1  6
 24 17  1  0
 25 23  1  0
 26 25  2  0
 27 25  1  0
M  END
$$$$
