FPN.pdb
     RDKit          3D

 27 28  0  0  1  0  0  0  0  0999 V2000
   23.4995  -21.3608  -14.9017 N   0  0  0  0  0  0  0  0  0  0  0  0
   22.3314  -20.6548  -14.4685 C   0  0  1  0  0  0  0  0  0  0  0  0
   21.2655  -20.6048  -15.5567 C   0  0  0  0  0  0  0  0  0  0  0  0
   21.6621  -19.6974  -16.6383 C   0  0  0  0  0  0  0  0  0  0  0  0
   21.9854  -20.1539  -17.9175 C   0  0  0  0  0  0  0  0  0  0  0  0
   22.3579  -19.3107  -18.9221 C   0  0  0  0  0  0  0  0  0  0  0  0
   22.4345  -17.9542  -18.7228 C   0  0  0  0  0  0  0  0  0  0  0  0
   22.1242  -17.4627  -17.4764 C   0  0  0  0  0  0  0  0  0  0  0  0
   21.7489  -18.3218  -16.4675 C   0  0  0  0  0  0  0  0  0  0  0  0
   21.7455  -21.2477  -13.2548 C   0  0  0  0  0  0  0  0  0  0  0  0
   21.7415  -22.5338  -13.2551 O   0  0  0  0  0  0  0  0  0  0  0  0
   21.2202  -20.5278  -12.1597 N   0  0  0  0  0  0  0  0  0  0  0  0
   21.1359  -19.1056  -11.9951 C   0  0  0  0  0  0  0  0  0  0  0  0
   21.0437  -18.9674  -10.4649 C   0  0  0  0  0  0  0  0  0  0  0  0
   20.0844  -20.0856  -10.1343 C   0  0  0  0  0  0  0  0  0  0  0  0
   20.6453  -21.2015  -10.9895 C   0  0  1  0  0  0  0  0  0  0  0  0
   19.5663  -22.1416  -11.4115 C   0  0  0  0  0  0  0  0  0  0  0  0
   19.0680  -22.0626  -12.5439 O   0  0  0  0  0  0  0  0  0  0  0  0
   19.8116  -25.9407  -10.1503 N   0  0  0  0  0  0  0  0  0  0  0  0
   18.6806  -25.8632   -9.3014 C   0  0  0  0  0  0  0  0  0  0  0  0
   18.5781  -26.6331   -8.3197 O   0  0  0  0  0  0  0  0  0  0  0  0
   17.6275  -24.8821   -9.5696 C   0  0  0  0  0  0  0  0  0  0  0  0
   17.9362  -23.9547  -10.6931 C   0  0  2  0  0  0  0  0  0  0  0  0
   19.1037  -23.1373  -10.5097 N   0  0  0  0  0  0  0  0  0  0  0  0
   16.7244  -23.2118  -11.1442 C   0  0  0  0  0  0  0  0  0  0  0  0
   16.1625  -23.6688  -12.1791 O   0  0  0  0  0  0  0  0  0  0  0  0
   16.2315  -22.1095  -10.5094 O   0  0  0  0  0  0  0  0  0  0  0  0
  2  1  1  6
  3  2  1  0
  4  5  2  0
  4  3  1  0
  6  5  1  0
  7  6  2  0
  8  7  1  0
  8  9  2  0
  9  4  1  0
 10 11  2  0
 10  2  1  0
 12 10  1  0
 13 12  1  0
 14 13  1  0
 15 14  1  0
 15 16  1  0
 16 12  1  0
 16 17  1  6
 17 18  2  0
 20 21  2  0
 20 19  1  0
 22 20  1  0
 23 24  1  0
 23 22  1  1
 24 17  1  0
 25 23  1  0
 26 25  2  0
 27 25  1  0
M  END
$$$$
