FPN.pdb
     RDKit          3D

 27 28  0  0  1  0  0  0  0  0999 V2000
   16.9403  -10.9942  -15.3185 N   0  0  0  0  0  0  0  0  0  0  0  0
   18.1736  -10.6688  -15.9693 C   0  0  1  0  0  0  0  0  0  0  0  0
   17.9568  -10.2718  -17.4247 C   0  0  0  0  0  0  0  0  0  0  0  0
   17.4967  -11.4162  -18.2178 C   0  0  0  0  0  0  0  0  0  0  0  0
   18.3003  -12.5326  -18.4568 C   0  0  0  0  0  0  0  0  0  0  0  0
   17.8740  -13.5950  -19.1975 C   0  0  0  0  0  0  0  0  0  0  0  0
   16.6179  -13.6196  -19.7518 C   0  0  0  0  0  0  0  0  0  0  0  0
   15.7939  -12.5389  -19.5404 C   0  0  0  0  0  0  0  0  0  0  0  0
   16.2328  -11.4701  -18.7910 C   0  0  0  0  0  0  0  0  0  0  0  0
   18.8921   -9.5832  -15.2814 C   0  0  0  0  0  0  0  0  0  0  0  0
   18.1273   -8.6368  -14.8647 O   0  0  0  0  0  0  0  0  0  0  0  0
   20.2865   -9.5268  -15.0677 N   0  0  0  0  0  0  0  0  0  0  0  0
   21.2820  -10.4773  -15.4707 C   0  0  0  0  0  0  0  0  0  0  0  0
   22.4269  -10.1753  -14.4873 C   0  0  0  0  0  0  0  0  0  0  0  0
   22.4087   -8.6655  -14.4826 C   0  0  0  0  0  0  0  0  0  0  0  0
   20.9224   -8.4009  -14.3736 C   0  0  1  0  0  0  0  0  0  0  0  0
   20.5616   -7.1137  -15.0364 C   0  0  0  0  0  0  0  0  0  0  0  0
   20.1930   -7.0951  -16.2198 O   0  0  0  0  0  0  0  0  0  0  0  0
   17.9104   -2.1908  -15.3717 N   0  0  0  0  0  0  0  0  0  0  0  0
   19.0846   -2.4762  -14.6331 C   0  0  0  0  0  0  0  0  0  0  0  0
   19.9320   -1.5778  -14.4288 O   0  0  0  0  0  0  0  0  0  0  0  0
   19.3109   -3.8232  -14.1062 C   0  0  0  0  0  0  0  0  0  0  0  0
   20.3629   -4.5880  -14.8314 C   0  0  2  0  0  0  0  0  0  0  0  0
   20.6400   -5.8969  -14.3070 N   0  0  0  0  0  0  0  0  0  0  0  0
   21.5726   -3.7546  -15.0884 C   0  0  0  0  0  0  0  0  0  0  0  0
   22.4941   -3.8578  -14.2305 O   0  0  0  0  0  0  0  0  0  0  0  0
   21.7067   -2.9250  -16.1629 O   0  0  0  0  0  0  0  0  0  0  0  0
  2  1  1  1
  3  2  1  0
  4  5  2  0
  4  3  1  0
  6  5  1  0
  7  6  2  0
  8  7  1  0
  8  9  2  0
  9  4  1  0
 10 11  2  0
 10  2  1  0
 12 10  1  0
 13 12  1  0
 14 13  1  0
 15 14  1  0
 15 16  1  0
 16 12  1  0
 16 17  1  6
 17 18  2  0
 20 21  2  0
 20 19  1  0
 22 20  1  0
 23 24  1  0
 23 22  1  1
 24 17  1  0
 25 23  1  0
 26 25  2  0
 27 25  1  0
M  END
$$$$
