FPN.pdb
     RDKit          3D

 27 28  0  0  1  0  0  0  0  0999 V2000
   15.0500  -14.8448    4.3448 N   0  0  0  0  0  0  0  0  0  0  0  0
   16.2577  -15.5188    3.9734 C   0  0  1  0  0  0  0  0  0  0  0  0
   17.3667  -15.2946    4.9944 C   0  0  0  0  0  0  0  0  0  0  0  0
   18.0385  -14.0113    4.7662 C   0  0  0  0  0  0  0  0  0  0  0  0
   18.8764  -13.7894    3.6717 C   0  0  0  0  0  0  0  0  0  0  0  0
   19.5043  -12.5974    3.4616 C   0  0  0  0  0  0  0  0  0  0  0  0
   19.3413  -11.5435    4.3267 C   0  0  0  0  0  0  0  0  0  0  0  0
   18.5238  -11.7202    5.4184 C   0  0  0  0  0  0  0  0  0  0  0  0
   17.8937  -12.9277    5.6228 C   0  0  0  0  0  0  0  0  0  0  0  0
   16.0526  -16.9668    3.8029 C   0  0  0  0  0  0  0  0  0  0  0  0
   15.1991  -17.4703    4.6227 O   0  0  0  0  0  0  0  0  0  0  0  0
   16.7008  -17.7821    2.8498 N   0  0  0  0  0  0  0  0  0  0  0  0
   17.6648  -17.3922    1.8621 C   0  0  0  0  0  0  0  0  0  0  0  0
   17.5323  -18.5217    0.8249 C   0  0  0  0  0  0  0  0  0  0  0  0
   17.4356  -19.7284    1.7274 C   0  0  0  0  0  0  0  0  0  0  0  0
   16.4559  -19.2267    2.7664 C   0  0  1  0  0  0  0  0  0  0  0  0
   16.7065  -19.8714    4.0885 C   0  0  0  0  0  0  0  0  0  0  0  0
   17.3757  -19.2918    4.9562 O   0  0  0  0  0  0  0  0  0  0  0  0
   16.6944  -23.3124    7.9474 N   0  0  0  0  0  0  0  0  0  0  0  0
   15.6324  -23.6993    7.0940 C   0  0  0  0  0  0  0  0  0  0  0  0
   14.8866  -24.6530    7.4120 O   0  0  0  0  0  0  0  0  0  0  0  0
   15.4035  -22.9846    5.8369 C   0  0  0  0  0  0  0  0  0  0  0  0
   16.4188  -21.9354    5.5437 C   0  0  2  0  0  0  0  0  0  0  0  0
   16.1746  -21.1610    4.3581 N   0  0  0  0  0  0  0  0  0  0  0  0
   17.8083  -22.4633    5.6636 C   0  0  0  0  0  0  0  0  0  0  0  0
   18.2521  -23.0583    4.6415 O   0  0  0  0  0  0  0  0  0  0  0  0
   18.5738  -22.3338    6.7853 O   0  0  0  0  0  0  0  0  0  0  0  0
  2  1  1  1
  3  2  1  0
  4  5  2  0
  4  3  1  0
  6  5  1  0
  7  6  2  0
  8  7  1  0
  8  9  2  0
  9  4  1  0
 10 11  2  0
 10  2  1  0
 12 10  1  0
 13 12  1  0
 14 13  1  0
 15 14  1  0
 15 16  1  0
 16 12  1  0
 16 17  1  1
 17 18  2  0
 20 21  2  0
 20 19  1  0
 22 20  1  0
 23 24  1  0
 23 22  1  6
 24 17  1  0
 25 23  1  0
 26 25  2  0
 27 25  1  0
M  END
$$$$
