FPN.pdb
     RDKit          3D

 27 28  0  0  1  0  0  0  0  0999 V2000
   14.2671  -14.0024    4.7459 N   0  0  0  0  0  0  0  0  0  0  0  0
   15.6952  -13.9174    4.8099 C   0  0  1  0  0  0  0  0  0  0  0  0
   16.1551  -12.9266    5.8726 C   0  0  0  0  0  0  0  0  0  0  0  0
   17.5969  -12.6794    5.7708 C   0  0  0  0  0  0  0  0  0  0  0  0
   18.5059  -13.1505    6.7201 C   0  0  0  0  0  0  0  0  0  0  0  0
   19.8461  -12.9174    6.6276 C   0  0  0  0  0  0  0  0  0  0  0  0
   20.3744  -12.1991    5.5834 C   0  0  0  0  0  0  0  0  0  0  0  0
   19.5131  -11.7166    4.6259 C   0  0  0  0  0  0  0  0  0  0  0  0
   18.1608  -11.9568    4.7274 C   0  0  0  0  0  0  0  0  0  0  0  0
   16.3154  -15.2256    5.0779 C   0  0  0  0  0  0  0  0  0  0  0  0
   16.0288  -15.7088    6.2348 O   0  0  0  0  0  0  0  0  0  0  0  0
   17.1551  -15.9341    4.1912 N   0  0  0  0  0  0  0  0  0  0  0  0
   17.6271  -15.5223    2.9011 C   0  0  0  0  0  0  0  0  0  0  0  0
   17.9620  -16.8709    2.2393 C   0  0  0  0  0  0  0  0  0  0  0  0
   18.6347  -17.5913    3.3833 C   0  0  0  0  0  0  0  0  0  0  0  0
   17.6913  -17.2601    4.5198 C   0  0  1  0  0  0  0  0  0  0  0  0
   18.4208  -17.2159    5.8205 C   0  0  0  0  0  0  0  0  0  0  0  0
   18.8788  -16.1473    6.2509 O   0  0  0  0  0  0  0  0  0  0  0  0
   16.6015  -20.4896    9.0034 N   0  0  0  0  0  0  0  0  0  0  0  0
   17.4674  -19.3714    9.0798 C   0  0  0  0  0  0  0  0  0  0  0  0
   17.0201  -18.2527    9.4197 O   0  0  0  0  0  0  0  0  0  0  0  0
   18.8885  -19.5206    8.7614 C   0  0  0  0  0  0  0  0  0  0  0  0
   19.3916  -18.5370    7.7629 C   0  0  2  0  0  0  0  0  0  0  0  0
   18.5936  -18.4075    6.5749 N   0  0  0  0  0  0  0  0  0  0  0  0
   20.8525  -18.7025    7.5130 C   0  0  0  0  0  0  0  0  0  0  0  0
   21.1571  -19.2165    6.4000 O   0  0  0  0  0  0  0  0  0  0  0  0
   21.8194  -18.3385    8.4037 O   0  0  0  0  0  0  0  0  0  0  0  0
  2  1  1  1
  3  2  1  0
  4  5  2  0
  4  3  1  0
  6  5  1  0
  7  6  2  0
  8  7  1  0
  8  9  2  0
  9  4  1  0
 10 11  2  0
 10  2  1  0
 12 10  1  0
 13 12  1  0
 14 13  1  0
 15 14  1  0
 15 16  1  0
 16 12  1  0
 16 17  1  1
 17 18  2  0
 20 21  2  0
 20 19  1  0
 22 20  1  0
 23 24  1  0
 23 22  1  6
 24 17  1  0
 25 23  1  0
 26 25  2  0
 27 25  1  0
M  END
$$$$
