FPN.pdb
     RDKit          3D

 27 28  0  0  1  0  0  0  0  0999 V2000
   28.1043  -20.3888   -9.4572 N   0  0  0  0  0  0  0  0  0  0  0  0
   26.7392  -20.7683   -9.2492 C   0  0  1  0  0  0  0  0  0  0  0  0
   26.1102  -20.0028   -8.0911 C   0  0  0  0  0  0  0  0  0  0  0  0
   26.9742  -20.0398   -6.9068 C   0  0  0  0  0  0  0  0  0  0  0  0
   27.8782  -19.0187   -6.6078 C   0  0  0  0  0  0  0  0  0  0  0  0
   28.6844  -19.0548   -5.5088 C   0  0  0  0  0  0  0  0  0  0  0  0
   28.6465  -20.1102   -4.6311 C   0  0  0  0  0  0  0  0  0  0  0  0
   27.7695  -21.1377   -4.8890 C   0  0  0  0  0  0  0  0  0  0  0  0
   26.9589  -21.0929   -6.0015 C   0  0  0  0  0  0  0  0  0  0  0  0
   25.9193  -20.5660  -10.4553 C   0  0  0  0  0  0  0  0  0  0  0  0
   25.4403  -19.3773  -10.5641 O   0  0  0  0  0  0  0  0  0  0  0  0
   25.6462  -21.5433  -11.4369 N   0  0  0  0  0  0  0  0  0  0  0  0
   26.1240  -22.8942  -11.4966 C   0  0  0  0  0  0  0  0  0  0  0  0
   25.9834  -23.2155  -12.9953 C   0  0  0  0  0  0  0  0  0  0  0  0
   24.6366  -22.6016  -13.2940 C   0  0  0  0  0  0  0  0  0  0  0  0
   24.7670  -21.2730  -12.5804 C   0  0  1  0  0  0  0  0  0  0  0  0
   23.4365  -20.7906  -12.1079 C   0  0  0  0  0  0  0  0  0  0  0  0
   23.0390  -21.0563  -10.9641 O   0  0  0  0  0  0  0  0  0  0  0  0
   19.2597  -16.9601  -11.8922 N   0  0  0  0  0  0  0  0  0  0  0  0
   19.5948  -17.7652  -13.0081 C   0  0  0  0  0  0  0  0  0  0  0  0
   18.7064  -18.1223  -13.8145 O   0  0  0  0  0  0  0  0  0  0  0  0
   20.9817  -18.1823  -13.2221 C   0  0  0  0  0  0  0  0  0  0  0  0
   21.3036  -19.5239  -12.6618 C   0  0  2  0  0  0  0  0  0  0  0  0
   22.6156  -20.0196  -12.9742 N   0  0  0  0  0  0  0  0  0  0  0  0
   20.2004  -20.4994  -12.8974 C   0  0  0  0  0  0  0  0  0  0  0  0
   20.3064  -21.1944  -13.9469 O   0  0  0  0  0  0  0  0  0  0  0  0
   19.1343  -20.6540  -12.0605 O   0  0  0  0  0  0  0  0  0  0  0  0
  2  1  1  6
  3  2  1  0
  4  5  2  0
  4  3  1  0
  6  5  1  0
  7  6  2  0
  8  7  1  0
  8  9  2  0
  9  4  1  0
 10 11  2  0
 10  2  1  0
 12 10  1  0
 13 12  1  0
 14 13  1  0
 15 14  1  0
 15 16  1  0
 16 12  1  0
 16 17  1  1
 17 18  2  0
 20 21  2  0
 20 19  1  0
 22 20  1  0
 23 24  1  0
 23 22  1  6
 24 17  1  0
 25 23  1  0
 26 25  2  0
 27 25  1  0
M  END
$$$$
