FPN.pdb
     RDKit          3D

 27 28  0  0  1  0  0  0  0  0999 V2000
   23.6317  -15.3175  -16.5627 N   0  0  0  0  0  0  0  0  0  0  0  0
   24.1574  -14.1842  -17.2627 C   0  0  1  0  0  0  0  0  0  0  0  0
   23.4962  -14.0046  -18.6241 C   0  0  0  0  0  0  0  0  0  0  0  0
   23.8225  -15.1208  -19.5173 C   0  0  0  0  0  0  0  0  0  0  0  0
   23.0648  -16.2927  -19.5582 C   0  0  0  0  0  0  0  0  0  0  0  0
   23.3704  -17.3322  -20.3859 C   0  0  0  0  0  0  0  0  0  0  0  0
   24.4517  -17.2770  -21.2305 C   0  0  0  0  0  0  0  0  0  0  0  0
   25.2250  -16.1397  -21.2216 C   0  0  0  0  0  0  0  0  0  0  0  0
   24.9089  -15.0946  -20.3822 C   0  0  0  0  0  0  0  0  0  0  0  0
   24.0061  -12.9391  -16.4916 C   0  0  0  0  0  0  0  0  0  0  0  0
   22.8217  -12.7586  -16.0240 O   0  0  0  0  0  0  0  0  0  0  0  0
   25.0250  -11.9915  -16.2525 N   0  0  0  0  0  0  0  0  0  0  0  0
   26.3889  -12.0292  -16.6942 C   0  0  0  0  0  0  0  0  0  0  0  0
   27.0788  -11.1033  -15.6765 C   0  0  0  0  0  0  0  0  0  0  0  0
   26.0730   -9.9809  -15.5838 C   0  0  0  0  0  0  0  0  0  0  0  0
   24.7823  -10.7653  -15.4836 C   0  0  1  0  0  0  0  0  0  0  0  0
   23.6472   -9.9991  -16.0757 C   0  0  0  0  0  0  0  0  0  0  0  0
   23.3254  -10.1637  -17.2615 O   0  0  0  0  0  0  0  0  0  0  0  0
   19.5803   -6.8352  -16.5409 N   0  0  0  0  0  0  0  0  0  0  0  0
   19.4329   -7.6560  -15.3962 C   0  0  0  0  0  0  0  0  0  0  0  0
   18.3284   -7.7258  -14.8113 O   0  0  0  0  0  0  0  0  0  0  0  0
   20.5724   -8.4255  -14.8932 C   0  0  0  0  0  0  0  0  0  0  0  0
   21.8079   -8.2828  -15.7121 C   0  0  2  0  0  0  0  0  0  0  0  0
   22.9267   -9.0718  -15.2757 N   0  0  0  0  0  0  0  0  0  0  0  0
   22.1275   -6.8517  -15.9839 C   0  0  0  0  0  0  0  0  0  0  0  0
   22.8578   -6.2864  -15.1221 O   0  0  0  0  0  0  0  0  0  0  0  0
   21.6764   -6.1688  -17.0752 O   0  0  0  0  0  0  0  0  0  0  0  0
  2  1  1  1
  3  2  1  0
  4  5  2  0
  4  3  1  0
  6  5  1  0
  7  6  2  0
  8  7  1  0
  8  9  2  0
  9  4  1  0
 10 11  2  0
 10  2  1  0
 12 10  1  0
 13 12  1  0
 14 13  1  0
 15 14  1  0
 15 16  1  0
 16 12  1  0
 16 17  1  6
 17 18  2  0
 20 21  2  0
 20 19  1  0
 22 20  1  0
 23 24  1  0
 23 22  1  1
 24 17  1  0
 25 23  1  0
 26 25  2  0
 27 25  1  0
M  END
$$$$
