FPN.pdb
     RDKit          3D

 27 28  0  0  1  0  0  0  0  0999 V2000
   27.0833  -19.1946  -15.9354 N   0  0  0  0  0  0  0  0  0  0  0  0
   26.6406  -19.8647  -14.7499 C   0  0  1  0  0  0  0  0  0  0  0  0
   26.5345  -18.9094  -13.5671 C   0  0  0  0  0  0  0  0  0  0  0  0
   26.1515  -19.6261  -12.3465 C   0  0  0  0  0  0  0  0  0  0  0  0
   27.0743  -20.3318  -11.5722 C   0  0  0  0  0  0  0  0  0  0  0  0
   26.7175  -21.0014  -10.4393 C   0  0  0  0  0  0  0  0  0  0  0  0
   25.4170  -21.0149   -9.9987 C   0  0  0  0  0  0  0  0  0  0  0  0
   24.4758  -20.3318  -10.7329 C   0  0  0  0  0  0  0  0  0  0  0  0
   24.8452  -19.6582  -11.8759 C   0  0  0  0  0  0  0  0  0  0  0  0
   25.3412  -20.5296  -14.9433 C   0  0  0  0  0  0  0  0  0  0  0  0
   24.4704  -19.8016  -15.5481 O   0  0  0  0  0  0  0  0  0  0  0  0
   25.0183  -21.8395  -14.5271 N   0  0  0  0  0  0  0  0  0  0  0  0
   25.8349  -22.7598  -13.7901 C   0  0  0  0  0  0  0  0  0  0  0  0
   25.2019  -24.1132  -14.1595 C   0  0  0  0  0  0  0  0  0  0  0  0
   23.7329  -23.7726  -14.0809 C   0  0  0  0  0  0  0  0  0  0  0  0
   23.7112  -22.4450  -14.8076 C   0  0  1  0  0  0  0  0  0  0  0  0
   22.6155  -21.5740  -14.2910 C   0  0  0  0  0  0  0  0  0  0  0  0
   22.8707  -20.6064  -13.5591 O   0  0  0  0  0  0  0  0  0  0  0  0
   18.2362  -18.3681  -15.1961 N   0  0  0  0  0  0  0  0  0  0  0  0
   19.0585  -18.8375  -14.1428 C   0  0  0  0  0  0  0  0  0  0  0  0
   18.7503  -18.6019  -12.9526 O   0  0  0  0  0  0  0  0  0  0  0  0
   20.2717  -19.5999  -14.4429 C   0  0  0  0  0  0  0  0  0  0  0  0
   20.1244  -21.0699  -14.2566 C   0  0  2  0  0  0  0  0  0  0  0  0
   21.2666  -21.8535  -14.6391 N   0  0  0  0  0  0  0  0  0  0  0  0
   18.8246  -21.5666  -14.7930 C   0  0  0  0  0  0  0  0  0  0  0  0
   17.9337  -21.7970  -13.9276 O   0  0  0  0  0  0  0  0  0  0  0  0
   18.5815  -21.7727  -16.1193 O   0  0  0  0  0  0  0  0  0  0  0  0
  2  1  1  6
  3  2  1  0
  4  5  2  0
  4  3  1  0
  6  5  1  0
  7  6  2  0
  8  7  1  0
  8  9  2  0
  9  4  1  0
 10 11  2  0
 10  2  1  0
 12 10  1  0
 13 12  1  0
 14 13  1  0
 15 14  1  0
 15 16  1  0
 16 12  1  0
 16 17  1  1
 17 18  2  0
 20 21  2  0
 20 19  1  0
 22 20  1  0
 23 24  1  0
 23 22  1  6
 24 17  1  0
 25 23  1  0
 26 25  2  0
 27 25  1  0
M  END
$$$$
