AWF.pdb
     RDKit          3D

 31 33  0  0  1  0  0  0  0  0999 V2000
   13.0059  -18.2620   21.6890 C   0  0  0  0  0  0  0  0  0  0  0  0
   11.7883  -17.6392   21.0045 C   0  0  2  0  0  0  0  0  0  0  0  0
   12.2376  -16.7644   19.9396 N   0  0  0  0  0  0  0  0  0  0  0  0
   11.1006  -16.8286   22.0177 C   0  0  0  0  0  0  0  0  0  0  0  0
   11.3433  -15.5962   22.1318 O   0  0  0  0  0  0  0  0  0  0  0  0
   10.1332  -17.3542   22.9257 N   0  0  0  0  0  0  0  0  0  0  0  0
    9.4932  -16.4937   23.9010 C   0  0  1  0  0  0  0  0  0  0  0  0
    7.9707  -16.7152   23.8706 C   0  0  0  0  0  0  0  0  0  0  0  0
    7.3719  -16.0862   22.6852 C   0  0  0  0  0  0  0  0  0  0  0  0
    6.5951  -16.7778   21.7730 C   0  0  0  0  0  0  0  0  0  0  0  0
    6.2324  -15.8906   20.8418 N   0  0  0  0  0  0  0  0  0  0  0  0
    6.7426  -14.6793   21.1250 C   0  0  0  0  0  0  0  0  0  0  0  0
    6.6583  -13.4678   20.4897 C   0  0  0  0  0  0  0  0  0  0  0  0
    7.2738  -12.3457   20.9739 C   0  0  0  0  0  0  0  0  0  0  0  0
    8.0119  -12.4432   22.1558 C   0  0  0  0  0  0  0  0  0  0  0  0
    8.1090  -13.6596   22.8129 C   0  0  0  0  0  0  0  0  0  0  0  0
    7.4699  -14.7705   22.2876 C   0  0  0  0  0  0  0  0  0  0  0  0
   10.0229  -16.7035   25.2635 C   0  0  0  0  0  0  0  0  0  0  0  0
   10.8582  -17.6153   25.4922 O   0  0  0  0  0  0  0  0  0  0  0  0
    9.6375  -15.9104   26.3869 N   0  0  0  0  0  0  0  0  0  0  0  0
   10.1661  -16.1092   27.7111 C   0  0  1  0  0  0  0  0  0  0  0  0
    9.6676  -15.0047   28.6029 C   0  0  0  0  0  0  0  0  0  0  0  0
    8.9889  -13.9230   27.8298 C   0  0  0  0  0  0  0  0  0  0  0  0
    9.7094  -12.8170   27.3808 C   0  0  0  0  0  0  0  0  0  0  0  0
    9.0620  -11.8358   26.6739 C   0  0  0  0  0  0  0  0  0  0  0  0
    7.7092  -11.9364   26.4060 C   0  0  0  0  0  0  0  0  0  0  0  0
    6.9838  -13.0113   26.8363 C   0  0  0  0  0  0  0  0  0  0  0  0
    7.6503  -13.9942   27.5488 C   0  0  0  0  0  0  0  0  0  0  0  0
    9.8300  -17.4010   28.3066 C   0  0  0  0  0  0  0  0  0  0  0  0
    8.8949  -18.1880   27.6143 O   0  0  0  0  0  0  0  0  0  0  0  0
   10.2891  -17.8685   29.3609 O   0  0  0  0  0  0  0  0  0  0  0  0
  2  1  1  1
  2  3  1  0
  4  2  1  0
  4  5  2  0
  6  4  1  0
  7  6  1  0
  7  8  1  1
  9  8  1  0
  9 17  1  0
 10 11  1  0
 10  9  2  0
 11 12  1  0
 12 13  2  0
 12 17  1  0
 13 14  1  0
 14 15  2  0
 16 15  1  0
 17 16  2  0
 18  7  1  0
 19 18  2  0
 20 18  1  0
 21 20  1  0
 21 29  1  0
 22 23  1  0
 21 22  1  1
 23 24  2  0
 24 25  1  0
 26 25  2  0
 27 26  1  0
 28 23  1  0
 28 27  2  0
 29 30  1  0
 31 29  2  0
M  END
$$$$
