AWF.pdb
     RDKit          3D

 31 33  0  0  1  0  0  0  0  0999 V2000
   11.1366  -19.9570   23.5347 C   0  0  0  0  0  0  0  0  0  0  0  0
   10.4613  -19.3512   22.3035 C   0  0  2  0  0  0  0  0  0  0  0  0
   11.3670  -19.4360   21.1749 N   0  0  0  0  0  0  0  0  0  0  0  0
   10.2208  -17.9344   22.6056 C   0  0  0  0  0  0  0  0  0  0  0  0
   11.0587  -17.0524   22.2727 O   0  0  0  0  0  0  0  0  0  0  0  0
    9.0565  -17.4575   23.2789 N   0  0  0  0  0  0  0  0  0  0  0  0
    8.8648  -16.0385   23.5053 C   0  0  1  0  0  0  0  0  0  0  0  0
    7.3886  -15.6697   23.2748 C   0  0  0  0  0  0  0  0  0  0  0  0
    7.1368  -15.3711   21.8581 C   0  0  0  0  0  0  0  0  0  0  0  0
    6.4615  -16.2323   21.0119 C   0  0  0  0  0  0  0  0  0  0  0  0
    6.4267  -15.6330   19.8181 N   0  0  0  0  0  0  0  0  0  0  0  0
    7.0457  -14.4408   19.8743 C   0  0  0  0  0  0  0  0  0  0  0  0
    7.2704  -13.4693   18.9339 C   0  0  0  0  0  0  0  0  0  0  0  0
    7.9384  -12.3114   19.2265 C   0  0  0  0  0  0  0  0  0  0  0  0
    8.4051  -12.1175   20.5287 C   0  0  0  0  0  0  0  0  0  0  0  0
    8.1877  -13.0883   21.4936 C   0  0  0  0  0  0  0  0  0  0  0  0
    7.5067  -14.2457   21.1542 C   0  0  0  0  0  0  0  0  0  0  0  0
    9.3004  -15.6244   24.8543 C   0  0  0  0  0  0  0  0  0  0  0  0
    9.1982  -14.4257   25.2200 O   0  0  0  0  0  0  0  0  0  0  0  0
    9.8523  -16.5275   25.8132 N   0  0  0  0  0  0  0  0  0  0  0  0
   10.1434  -16.1532   27.1724 C   0  0  1  0  0  0  0  0  0  0  0  0
    8.8604  -15.7580   27.8517 C   0  0  0  0  0  0  0  0  0  0  0  0
    8.3630  -14.4312   27.3823 C   0  0  0  0  0  0  0  0  0  0  0  0
    7.1250  -14.3241   26.7502 C   0  0  0  0  0  0  0  0  0  0  0  0
    6.6914  -13.0935   26.3267 C   0  0  0  0  0  0  0  0  0  0  0  0
    7.4693  -11.9671   26.5215 C   0  0  0  0  0  0  0  0  0  0  0  0
    8.6856  -12.0488   27.1385 C   0  0  0  0  0  0  0  0  0  0  0  0
    9.1106  -13.2974   27.5608 C   0  0  0  0  0  0  0  0  0  0  0  0
   10.8049  -17.1948   27.9559 C   0  0  0  0  0  0  0  0  0  0  0  0
   11.0975  -18.3945   27.2865 O   0  0  0  0  0  0  0  0  0  0  0  0
   11.1321  -17.1224   29.1512 O   0  0  0  0  0  0  0  0  0  0  0  0
  2  1  1  1
  2  3  1  0
  4  2  1  0
  4  5  2  0
  6  4  1  0
  7  6  1  0
  7  8  1  1
  9  8  1  0
  9 17  1  0
 10 11  1  0
 10  9  2  0
 11 12  1  0
 12 13  2  0
 12 17  1  0
 13 14  1  0
 14 15  2  0
 16 15  1  0
 17 16  2  0
 18  7  1  0
 19 18  2  0
 20 18  1  0
 21 20  1  0
 21 29  1  0
 22 23  1  0
 21 22  1  1
 23 24  2  0
 24 25  1  0
 26 25  2  0
 27 26  1  0
 28 23  1  0
 28 27  2  0
 29 30  1  0
 31 29  2  0
M  END
$$$$
