AWF.pdb
     RDKit          3D

 31 33  0  0  1  0  0  0  0  0999 V2000
   11.2531  -17.5930   18.0040 C   0  0  0  0  0  0  0  0  0  0  0  0
   11.2208  -18.4543   19.2673 C   0  0  2  0  0  0  0  0  0  0  0  0
    9.9983  -19.2332   19.2801 N   0  0  0  0  0  0  0  0  0  0  0  0
   11.2001  -17.5315   20.4095 C   0  0  0  0  0  0  0  0  0  0  0  0
   12.1748  -16.7639   20.6366 O   0  0  0  0  0  0  0  0  0  0  0  0
   10.1097  -17.4326   21.3248 N   0  0  0  0  0  0  0  0  0  0  0  0
   10.2212  -16.6190   22.5194 C   0  0  1  0  0  0  0  0  0  0  0  0
    8.8259  -16.3962   23.1290 C   0  0  0  0  0  0  0  0  0  0  0  0
    7.8977  -15.8481   22.1303 C   0  0  0  0  0  0  0  0  0  0  0  0
    6.8218  -16.5579   21.6277 C   0  0  0  0  0  0  0  0  0  0  0  0
    6.2156  -15.7493   20.7536 N   0  0  0  0  0  0  0  0  0  0  0  0
    6.8572  -14.5698   20.6837 C   0  0  0  0  0  0  0  0  0  0  0  0
    6.6301  -13.4346   19.9501 C   0  0  0  0  0  0  0  0  0  0  0  0
    7.4336  -12.3311   20.0459 C   0  0  0  0  0  0  0  0  0  0  0  0
    8.5207  -12.3676   20.9223 C   0  0  0  0  0  0  0  0  0  0  0  0
    8.7669  -13.5064   21.6727 C   0  0  0  0  0  0  0  0  0  0  0  0
    7.9279  -14.6012   21.5447 C   0  0  0  0  0  0  0  0  0  0  0  0
   11.1360  -17.2122   23.5155 C   0  0  0  0  0  0  0  0  0  0  0  0
   12.3742  -17.2565   23.3009 O   0  0  0  0  0  0  0  0  0  0  0  0
   10.6951  -17.7619   24.7578 N   0  0  0  0  0  0  0  0  0  0  0  0
   10.6734  -17.0139   25.9875 C   0  0  1  0  0  0  0  0  0  0  0  0
    9.9308  -15.7256   25.7583 C   0  0  0  0  0  0  0  0  0  0  0  0
    9.8889  -14.8766   26.9854 C   0  0  0  0  0  0  0  0  0  0  0  0
   10.9691  -14.8549   27.8666 C   0  0  0  0  0  0  0  0  0  0  0  0
   10.9051  -14.0676   28.9881 C   0  0  0  0  0  0  0  0  0  0  0  0
    9.7839  -13.3011   29.2477 C   0  0  0  0  0  0  0  0  0  0  0  0
    8.7140  -13.3071   28.3979 C   0  0  0  0  0  0  0  0  0  0  0  0
    8.7925  -14.1065   27.2698 C   0  0  0  0  0  0  0  0  0  0  0  0
   10.0730  -17.7246   27.1148 C   0  0  0  0  0  0  0  0  0  0  0  0
    8.8105  -18.2998   26.8947 O   0  0  0  0  0  0  0  0  0  0  0  0
   10.5686  -17.8688   28.2438 O   0  0  0  0  0  0  0  0  0  0  0  0
  2  1  1  6
  2  3  1  0
  4  2  1  0
  4  5  2  0
  6  4  1  0
  7  6  1  0
  7  8  1  1
  9  8  1  0
  9 17  1  0
 10 11  1  0
 10  9  2  0
 11 12  1  0
 12 13  2  0
 12 17  1  0
 13 14  1  0
 14 15  2  0
 16 15  1  0
 17 16  2  0
 18  7  1  0
 19 18  2  0
 20 18  1  0
 21 20  1  0
 21 29  1  0
 22 23  1  0
 21 22  1  6
 23 24  2  0
 24 25  1  0
 26 25  2  0
 27 26  1  0
 28 23  1  0
 28 27  2  0
 29 30  1  0
 31 29  2  0
M  END
$$$$
