AWF.pdb
     RDKit          3D

 31 33  0  0  1  0  0  0  0  0999 V2000
   11.7658  -18.3434   19.5909 C   0  0  0  0  0  0  0  0  0  0  0  0
   10.7321  -17.2517   19.3104 C   0  0  2  0  0  0  0  0  0  0  0  0
   11.3536  -16.1973   18.5337 N   0  0  0  0  0  0  0  0  0  0  0  0
   10.3325  -16.7014   20.6119 C   0  0  0  0  0  0  0  0  0  0  0  0
   11.0882  -15.9078   21.2365 O   0  0  0  0  0  0  0  0  0  0  0  0
    9.0961  -17.0109   21.2538 N   0  0  0  0  0  0  0  0  0  0  0  0
    8.7798  -16.4520   22.5535 C   0  0  1  0  0  0  0  0  0  0  0  0
    7.2568  -16.4738   22.7724 C   0  0  0  0  0  0  0  0  0  0  0  0
    6.9001  -15.8354   24.0470 C   0  0  0  0  0  0  0  0  0  0  0  0
    6.4905  -16.5466   25.1607 C   0  0  0  0  0  0  0  0  0  0  0  0
    6.2542  -15.6425   26.1158 N   0  0  0  0  0  0  0  0  0  0  0  0
    6.4951  -14.4020   25.6566 C   0  0  0  0  0  0  0  0  0  0  0  0
    6.4034  -13.1651   26.2398 C   0  0  0  0  0  0  0  0  0  0  0  0
    6.7074  -12.0152   25.5631 C   0  0  0  0  0  0  0  0  0  0  0  0
    7.1248  -12.1103   24.2334 C   0  0  0  0  0  0  0  0  0  0  0  0
    7.2238  -13.3521   23.6262 C   0  0  0  0  0  0  0  0  0  0  0  0
    6.9062  -14.4908   24.3482 C   0  0  0  0  0  0  0  0  0  0  0  0
    9.4735  -17.1588   23.6490 C   0  0  0  0  0  0  0  0  0  0  0  0
    9.4520  -18.4144   23.7153 O   0  0  0  0  0  0  0  0  0  0  0  0
   10.1979  -16.4889   24.6814 N   0  0  0  0  0  0  0  0  0  0  0  0
   10.9950  -17.1797   25.6611 C   0  0  1  0  0  0  0  0  0  0  0  0
   11.8723  -16.1800   26.3645 C   0  0  0  0  0  0  0  0  0  0  0  0
   11.0962  -15.3126   27.2991 C   0  0  0  0  0  0  0  0  0  0  0  0
   10.5761  -14.0941   26.8647 C   0  0  0  0  0  0  0  0  0  0  0  0
    9.8679  -13.3147   27.7437 C   0  0  0  0  0  0  0  0  0  0  0  0
    9.6684  -13.7273   29.0483 C   0  0  0  0  0  0  0  0  0  0  0  0
   10.1689  -14.9174   29.4953 C   0  0  0  0  0  0  0  0  0  0  0  0
   10.8817  -15.6939   28.5971 C   0  0  0  0  0  0  0  0  0  0  0  0
   10.2204  -17.9251   26.6515 C   0  0  0  0  0  0  0  0  0  0  0  0
   10.9426  -18.7796   27.5007 O   0  0  0  0  0  0  0  0  0  0  0  0
    8.9908  -17.8764   26.8143 O   0  0  0  0  0  0  0  0  0  0  0  0
  2  1  1  1
  2  3  1  0
  4  2  1  0
  4  5  2  0
  6  4  1  0
  7  6  1  0
  7  8  1  1
  9  8  1  0
  9 17  1  0
 10 11  1  0
 10  9  2  0
 11 12  1  0
 12 13  2  0
 12 17  1  0
 13 14  1  0
 14 15  2  0
 16 15  1  0
 17 16  2  0
 18  7  1  0
 19 18  2  0
 20 18  1  0
 21 20  1  0
 21 29  1  0
 22 23  1  0
 21 22  1  1
 23 24  2  0
 24 25  1  0
 26 25  2  0
 27 26  1  0
 28 23  1  0
 28 27  2  0
 29 30  1  0
 31 29  2  0
M  END
$$$$
