AWF.pdb
     RDKit          3D

 31 33  0  0  1  0  0  0  0  0999 V2000
   11.2009  -19.1143   19.3940 C   0  0  0  0  0  0  0  0  0  0  0  0
   10.2357  -17.9600   19.1201 C   0  0  2  0  0  0  0  0  0  0  0  0
   10.8632  -17.0216   18.2108 N   0  0  0  0  0  0  0  0  0  0  0  0
   10.0058  -17.2856   20.4042 C   0  0  0  0  0  0  0  0  0  0  0  0
   10.7944  -16.3902   20.8130 O   0  0  0  0  0  0  0  0  0  0  0  0
    8.9063  -17.5803   21.2649 N   0  0  0  0  0  0  0  0  0  0  0  0
    8.7120  -16.8366   22.4940 C   0  0  1  0  0  0  0  0  0  0  0  0
    7.2336  -16.9059   22.9156 C   0  0  0  0  0  0  0  0  0  0  0  0
    6.9984  -16.1230   24.1368 C   0  0  0  0  0  0  0  0  0  0  0  0
    6.6212  -16.6929   25.3396 C   0  0  0  0  0  0  0  0  0  0  0  0
    6.5008  -15.6855   26.2093 N   0  0  0  0  0  0  0  0  0  0  0  0
    6.7835  -14.5147   25.6120 C   0  0  0  0  0  0  0  0  0  0  0  0
    6.8023  -13.2229   26.0697 C   0  0  0  0  0  0  0  0  0  0  0  0
    7.1284  -12.1674   25.2620 C   0  0  0  0  0  0  0  0  0  0  0  0
    7.4522  -12.4201   23.9269 C   0  0  0  0  0  0  0  0  0  0  0  0
    7.4387  -13.7196   23.4454 C   0  0  0  0  0  0  0  0  0  0  0  0
    7.1027  -14.7585   24.2977 C   0  0  0  0  0  0  0  0  0  0  0  0
    9.5869  -17.3179   23.5820 C   0  0  0  0  0  0  0  0  0  0  0  0
    9.8683  -18.5392   23.6842 O   0  0  0  0  0  0  0  0  0  0  0  0
   10.1604  -16.4579   24.5675 N   0  0  0  0  0  0  0  0  0  0  0  0
   11.1591  -16.8928   25.5086 C   0  0  1  0  0  0  0  0  0  0  0  0
   11.8132  -15.6815   26.1157 C   0  0  0  0  0  0  0  0  0  0  0  0
   10.9086  -14.9749   27.0700 C   0  0  0  0  0  0  0  0  0  0  0  0
   10.7655  -15.4334   28.3788 C   0  0  0  0  0  0  0  0  0  0  0  0
    9.9267  -14.7674   29.2358 C   0  0  0  0  0  0  0  0  0  0  0  0
    9.2275  -13.6521   28.8122 C   0  0  0  0  0  0  0  0  0  0  0  0
    9.3527  -13.1854   27.5343 C   0  0  0  0  0  0  0  0  0  0  0  0
   10.2029  -13.8677   26.6801 C   0  0  0  0  0  0  0  0  0  0  0  0
   10.6489  -17.7527   26.5747 C   0  0  0  0  0  0  0  0  0  0  0  0
    9.2583  -17.9465   26.6146 O   0  0  0  0  0  0  0  0  0  0  0  0
   11.3228  -18.3264   27.4451 O   0  0  0  0  0  0  0  0  0  0  0  0
  2  1  1  1
  2  3  1  0
  4  2  1  0
  4  5  2  0
  6  4  1  0
  7  6  1  0
  7  8  1  1
  9  8  1  0
  9 17  1  0
 10 11  1  0
 10  9  2  0
 11 12  1  0
 12 13  2  0
 12 17  1  0
 13 14  1  0
 14 15  2  0
 16 15  1  0
 17 16  2  0
 18  7  1  0
 19 18  2  0
 20 18  1  0
 21 20  1  0
 21 29  1  0
 22 23  1  0
 21 22  1  1
 23 24  2  0
 24 25  1  0
 26 25  2  0
 27 26  1  0
 28 23  1  0
 28 27  2  0
 29 30  1  0
 31 29  2  0
M  END
$$$$
