AWF.pdb
     RDKit          3D

 31 33  0  0  1  0  0  0  0  0999 V2000
   80.3885    5.7851   72.4068 C   0  0  0  0  0  0  0  0  0  0  0  0
   80.1366    6.9309   73.3880 C   0  0  2  0  0  0  0  0  0  0  0  0
   80.3593    8.1933   72.7114 N   0  0  0  0  0  0  0  0  0  0  0  0
   81.1276    6.7943   74.4631 C   0  0  0  0  0  0  0  0  0  0  0  0
   81.5666    7.8097   75.0688 O   0  0  0  0  0  0  0  0  0  0  0  0
   81.6562    5.5410   74.8948 N   0  0  0  0  0  0  0  0  0  0  0  0
   83.0113    5.4474   75.4012 C   0  0  1  0  0  0  0  0  0  0  0  0
   83.8611    4.5800   74.4559 C   0  0  0  0  0  0  0  0  0  0  0  0
   84.7587    3.6991   75.2159 C   0  0  0  0  0  0  0  0  0  0  0  0
   85.3087    4.0501   76.4359 C   0  0  0  0  0  0  0  0  0  0  0  0
   86.0615    3.0146   76.8187 N   0  0  0  0  0  0  0  0  0  0  0  0
   86.0106    2.0337   75.9006 C   0  0  0  0  0  0  0  0  0  0  0  0
   86.5969    0.7967   75.8342 C   0  0  0  0  0  0  0  0  0  0  0  0
   86.3956   -0.0505   74.7786 C   0  0  0  0  0  0  0  0  0  0  0  0
   85.5635    0.3639   73.7359 C   0  0  0  0  0  0  0  0  0  0  0  0
   84.9615    1.6113   73.7847 C   0  0  0  0  0  0  0  0  0  0  0  0
   85.1927    2.4372   74.8724 C   0  0  0  0  0  0  0  0  0  0  0  0
   83.6306    6.7750   75.5875 C   0  0  0  0  0  0  0  0  0  0  0  0
   83.8440    7.2254   76.7421 O   0  0  0  0  0  0  0  0  0  0  0  0
   84.0212    7.6188   74.5035 N   0  0  0  0  0  0  0  0  0  0  0  0
   85.3424    7.6075   73.9319 C   0  0  1  0  0  0  0  0  0  0  0  0
   86.1421    6.5110   74.5813 C   0  0  0  0  0  0  0  0  0  0  0  0
   86.4186    6.7956   76.0204 C   0  0  0  0  0  0  0  0  0  0  0  0
   85.6346    7.7095   76.7230 C   0  0  0  0  0  0  0  0  0  0  0  0
   85.9103    7.9546   78.0442 C   0  0  0  0  0  0  0  0  0  0  0  0
   86.9536    7.3054   78.6784 C   0  0  0  0  0  0  0  0  0  0  0  0
   87.7346    6.4060   78.0092 C   0  0  0  0  0  0  0  0  0  0  0  0
   87.4447    6.1684   76.6760 C   0  0  0  0  0  0  0  0  0  0  0  0
   85.3699    7.4324   72.4811 C   0  0  0  0  0  0  0  0  0  0  0  0
   85.8671    8.5084   71.7274 O   0  0  0  0  0  0  0  0  0  0  0  0
   84.9979    6.4286   71.8525 O   0  0  0  0  0  0  0  0  0  0  0  0
  2  1  1  6
  2  3  1  0
  4  2  1  0
  4  5  2  0
  6  4  1  0
  7  6  1  0
  7  8  1  6
  9  8  1  0
  9 17  1  0
 10 11  1  0
 10  9  2  0
 11 12  1  0
 12 13  2  0
 12 17  1  0
 13 14  1  0
 14 15  2  0
 16 15  1  0
 17 16  2  0
 18  7  1  0
 19 18  2  0
 20 18  1  0
 21 20  1  0
 21 29  1  0
 22 23  1  0
 21 22  1  1
 23 24  2  0
 24 25  1  0
 26 25  2  0
 27 26  1  0
 28 23  1  0
 28 27  2  0
 29 30  1  0
 31 29  2  0
M  END
$$$$
