AWF.pdb
     RDKit          3D

 31 33  0  0  1  0  0  0  0  0999 V2000
    5.2059  -20.0094   21.3820 C   0  0  0  0  0  0  0  0  0  0  0  0
    4.4908  -19.2563   22.5047 C   0  0  2  0  0  0  0  0  0  0  0  0
    3.2091  -18.7846   22.0190 N   0  0  0  0  0  0  0  0  0  0  0  0
    5.3244  -18.0927   22.8328 C   0  0  0  0  0  0  0  0  0  0  0  0
    5.3031  -17.0593   22.1100 O   0  0  0  0  0  0  0  0  0  0  0  0
    6.1976  -18.0400   23.9603 N   0  0  0  0  0  0  0  0  0  0  0  0
    7.0201  -16.8710   24.2020 C   0  0  1  0  0  0  0  0  0  0  0  0
    7.2348  -16.6899   25.7150 C   0  0  0  0  0  0  0  0  0  0  0  0
    6.8035  -15.3544   26.1508 C   0  0  0  0  0  0  0  0  0  0  0  0
    5.4755  -15.0073   26.3231 C   0  0  0  0  0  0  0  0  0  0  0  0
    5.4707  -13.7307   26.7180 N   0  0  0  0  0  0  0  0  0  0  0  0
    6.7279  -13.2616   26.8016 C   0  0  0  0  0  0  0  0  0  0  0  0
    7.2383  -12.0397   27.1550 C   0  0  0  0  0  0  0  0  0  0  0  0
    8.5831  -11.7868   27.1681 C   0  0  0  0  0  0  0  0  0  0  0  0
    9.4613  -12.8118   26.8082 C   0  0  0  0  0  0  0  0  0  0  0  0
    8.9645  -14.0543   26.4478 C   0  0  0  0  0  0  0  0  0  0  0  0
    7.5957  -14.2670   26.4484 C   0  0  0  0  0  0  0  0  0  0  0  0
    8.3158  -16.9446   23.4973 C   0  0  0  0  0  0  0  0  0  0  0  0
    8.8864  -18.0511   23.3208 O   0  0  0  0  0  0  0  0  0  0  0  0
    8.9947  -15.7996   22.9799 N   0  0  0  0  0  0  0  0  0  0  0  0
   10.2559  -15.8757   22.2901 C   0  0  1  0  0  0  0  0  0  0  0  0
   10.5096  -14.5642   21.5977 C   0  0  0  0  0  0  0  0  0  0  0  0
    9.3064  -14.0776   20.8602 C   0  0  0  0  0  0  0  0  0  0  0  0
    8.9930  -12.7192   20.8379 C   0  0  0  0  0  0  0  0  0  0  0  0
    7.8809  -12.2978   20.1543 C   0  0  0  0  0  0  0  0  0  0  0  0
    7.0750  -13.2056   19.4922 C   0  0  0  0  0  0  0  0  0  0  0  0
    7.3632  -14.5411   19.5007 C   0  0  0  0  0  0  0  0  0  0  0  0
    8.4889  -14.9522   20.1948 C   0  0  0  0  0  0  0  0  0  0  0  0
   11.3941  -16.1977   23.1486 C   0  0  0  0  0  0  0  0  0  0  0  0
   12.6358  -16.3587   22.5121 O   0  0  0  0  0  0  0  0  0  0  0  0
   11.3700  -16.3423   24.3813 O   0  0  0  0  0  0  0  0  0  0  0  0
  2  1  1  6
  2  3  1  0
  4  2  1  0
  4  5  2  0
  6  4  1  0
  7  6  1  0
  7  8  1  1
  9  8  1  0
  9 17  1  0
 10 11  1  0
 10  9  2  0
 11 12  1  0
 12 13  2  0
 12 17  1  0
 13 14  1  0
 14 15  2  0
 16 15  1  0
 17 16  2  0
 18  7  1  0
 19 18  2  0
 20 18  1  0
 21 20  1  0
 21 29  1  0
 22 23  1  0
 21 22  1  1
 23 24  2  0
 24 25  1  0
 26 25  2  0
 27 26  1  0
 28 23  1  0
 28 27  2  0
 29 30  1  0
 31 29  2  0
M  END
$$$$
