AWF.pdb
     RDKit          3D

 31 33  0  0  1  0  0  0  0  0999 V2000
   11.7101  -18.2159   19.2881 C   0  0  0  0  0  0  0  0  0  0  0  0
   10.5986  -17.1793   19.1177 C   0  0  2  0  0  0  0  0  0  0  0  0
   11.0945  -16.0786   18.3152 N   0  0  0  0  0  0  0  0  0  0  0  0
   10.2801  -16.6744   20.4594 C   0  0  0  0  0  0  0  0  0  0  0  0
   10.9839  -15.7747   20.9942 O   0  0  0  0  0  0  0  0  0  0  0  0
    9.1833  -17.1467   21.2407 N   0  0  0  0  0  0  0  0  0  0  0  0
    8.8588  -16.5237   22.5087 C   0  0  1  0  0  0  0  0  0  0  0  0
    7.3385  -16.5779   22.7410 C   0  0  0  0  0  0  0  0  0  0  0  0
    6.9818  -15.9676   24.0293 C   0  0  0  0  0  0  0  0  0  0  0  0
    6.4597  -16.6878   25.0888 C   0  0  0  0  0  0  0  0  0  0  0  0
    6.2612  -15.8098   26.0763 N   0  0  0  0  0  0  0  0  0  0  0  0
    6.6325  -14.5771   25.6888 C   0  0  0  0  0  0  0  0  0  0  0  0
    6.6247  -13.3644   26.3274 C   0  0  0  0  0  0  0  0  0  0  0  0
    7.0607  -12.2177   25.7212 C   0  0  0  0  0  0  0  0  0  0  0  0
    7.5287  -12.2907   24.4070 C   0  0  0  0  0  0  0  0  0  0  0  0
    7.5445  -13.5078   23.7444 C   0  0  0  0  0  0  0  0  0  0  0  0
    7.0939  -14.6441   24.3959 C   0  0  0  0  0  0  0  0  0  0  0  0
    9.5805  -17.1455   23.6372 C   0  0  0  0  0  0  0  0  0  0  0  0
    9.6437  -18.3967   23.7449 O   0  0  0  0  0  0  0  0  0  0  0  0
   10.2398  -16.3944   24.6574 N   0  0  0  0  0  0  0  0  0  0  0  0
   11.1152  -16.9891   25.6333 C   0  0  1  0  0  0  0  0  0  0  0  0
   11.8955  -15.8973   26.3137 C   0  0  0  0  0  0  0  0  0  0  0  0
   11.0300  -15.0495   27.1857 C   0  0  0  0  0  0  0  0  0  0  0  0
   10.7953  -15.4095   28.5120 C   0  0  0  0  0  0  0  0  0  0  0  0
    9.9949  -14.6142   29.2921 C   0  0  0  0  0  0  0  0  0  0  0  0
    9.4237  -13.4662   28.7745 C   0  0  0  0  0  0  0  0  0  0  0  0
    9.6402  -13.0945   27.4778 C   0  0  0  0  0  0  0  0  0  0  0  0
   10.4503  -13.9067   26.7020 C   0  0  0  0  0  0  0  0  0  0  0  0
   10.4328  -17.7970   26.6423 C   0  0  0  0  0  0  0  0  0  0  0  0
    9.0286  -17.7940   26.6054 O   0  0  0  0  0  0  0  0  0  0  0  0
   10.9717  -18.4830   27.5254 O   0  0  0  0  0  0  0  0  0  0  0  0
  2  1  1  1
  2  3  1  0
  4  2  1  0
  4  5  2  0
  6  4  1  0
  7  6  1  0
  7  8  1  1
  9  8  1  0
  9 17  1  0
 10 11  1  0
 10  9  2  0
 11 12  1  0
 12 13  2  0
 12 17  1  0
 13 14  1  0
 14 15  2  0
 16 15  1  0
 17 16  2  0
 18  7  1  0
 19 18  2  0
 20 18  1  0
 21 20  1  0
 21 29  1  0
 22 23  1  0
 21 22  1  1
 23 24  2  0
 24 25  1  0
 26 25  2  0
 27 26  1  0
 28 23  1  0
 28 27  2  0
 29 30  1  0
 31 29  2  0
M  END
$$$$
