AWF.pdb
     RDKit          3D

 31 33  0  0  1  0  0  0  0  0999 V2000
   11.3139  -15.5436   18.5636 C   0  0  0  0  0  0  0  0  0  0  0  0
   11.1420  -16.8110   19.4022 C   0  0  2  0  0  0  0  0  0  0  0  0
   10.0950  -17.6273   18.8202 N   0  0  0  0  0  0  0  0  0  0  0  0
   10.7118  -16.3802   20.7386 C   0  0  0  0  0  0  0  0  0  0  0  0
   11.4932  -15.7383   21.4923 O   0  0  0  0  0  0  0  0  0  0  0  0
    9.4159  -16.6452   21.2742 N   0  0  0  0  0  0  0  0  0  0  0  0
    9.0649  -16.2019   22.6090 C   0  0  1  0  0  0  0  0  0  0  0  0
    7.5379  -16.2580   22.7911 C   0  0  0  0  0  0  0  0  0  0  0  0
    7.1436  -15.7065   24.0948 C   0  0  0  0  0  0  0  0  0  0  0  0
    6.5737  -16.4698   25.0980 C   0  0  0  0  0  0  0  0  0  0  0  0
    6.3521  -15.6386   26.1205 N   0  0  0  0  0  0  0  0  0  0  0  0
    6.7543  -14.3942   25.8082 C   0  0  0  0  0  0  0  0  0  0  0  0
    6.7403  -13.2146   26.5059 C   0  0  0  0  0  0  0  0  0  0  0  0
    7.2138  -12.0463   25.9732 C   0  0  0  0  0  0  0  0  0  0  0  0
    7.7277  -12.0617   24.6744 C   0  0  0  0  0  0  0  0  0  0  0  0
    7.7504  -13.2448   23.9529 C   0  0  0  0  0  0  0  0  0  0  0  0
    7.2608  -14.4046   24.5307 C   0  0  0  0  0  0  0  0  0  0  0  0
    9.7436  -16.9917   23.6562 C   0  0  0  0  0  0  0  0  0  0  0  0
    9.8975  -18.2326   23.5231 O   0  0  0  0  0  0  0  0  0  0  0  0
   10.2595  -16.4215   24.8597 N   0  0  0  0  0  0  0  0  0  0  0  0
   11.0443  -17.1643   25.8108 C   0  0  1  0  0  0  0  0  0  0  0  0
   11.7096  -16.1965   26.7513 C   0  0  0  0  0  0  0  0  0  0  0  0
   10.7207  -15.3210   27.4469 C   0  0  0  0  0  0  0  0  0  0  0  0
    9.8807  -14.4833   26.7144 C   0  0  0  0  0  0  0  0  0  0  0  0
    8.9817  -13.6872   27.3775 C   0  0  0  0  0  0  0  0  0  0  0  0
    8.9043  -13.7106   28.7579 C   0  0  0  0  0  0  0  0  0  0  0  0
    9.7176  -14.5237   29.4956 C   0  0  0  0  0  0  0  0  0  0  0  0
   10.6203  -15.3218   28.8129 C   0  0  0  0  0  0  0  0  0  0  0  0
   10.2848  -18.1454   26.5835 C   0  0  0  0  0  0  0  0  0  0  0  0
    8.9021  -18.2012   26.3426 O   0  0  0  0  0  0  0  0  0  0  0  0
   10.7415  -18.9314   27.4289 O   0  0  0  0  0  0  0  0  0  0  0  0
  2  1  1  6
  2  3  1  0
  4  2  1  0
  4  5  2  0
  6  4  1  0
  7  6  1  0
  7  8  1  1
  9  8  1  0
  9 17  1  0
 10 11  1  0
 10  9  2  0
 11 12  1  0
 12 13  2  0
 12 17  1  0
 13 14  1  0
 14 15  2  0
 16 15  1  0
 17 16  2  0
 18  7  1  0
 19 18  2  0
 20 18  1  0
 21 20  1  0
 21 29  1  0
 22 23  1  0
 21 22  1  1
 23 24  2  0
 24 25  1  0
 26 25  2  0
 27 26  1  0
 28 23  1  0
 28 27  2  0
 29 30  1  0
 31 29  2  0
M  END
$$$$
