AWF.pdb
     RDKit          3D

 31 33  0  0  1  0  0  0  0  0999 V2000
    5.8295  -19.1456   20.7394 C   0  0  0  0  0  0  0  0  0  0  0  0
    5.1577  -18.3501   21.8595 C   0  0  2  0  0  0  0  0  0  0  0  0
    3.9576  -17.7226   21.3428 N   0  0  0  0  0  0  0  0  0  0  0  0
    6.1019  -17.2982   22.2578 C   0  0  0  0  0  0  0  0  0  0  0  0
    6.1582  -16.2084   21.6254 O   0  0  0  0  0  0  0  0  0  0  0  0
    7.0028  -17.4214   23.3577 N   0  0  0  0  0  0  0  0  0  0  0  0
    7.9904  -16.3934   23.6206 C   0  0  1  0  0  0  0  0  0  0  0  0
    8.3133  -16.3547   25.1248 C   0  0  0  0  0  0  0  0  0  0  0  0
    7.3581  -15.5016   25.8454 C   0  0  0  0  0  0  0  0  0  0  0  0
    6.1012  -15.9320   26.2312 C   0  0  0  0  0  0  0  0  0  0  0  0
    5.5259  -14.8978   26.8517 N   0  0  0  0  0  0  0  0  0  0  0  0
    6.3587  -13.8425   26.8739 C   0  0  0  0  0  0  0  0  0  0  0  0
    6.2352  -12.5765   27.3841 C   0  0  0  0  0  0  0  0  0  0  0  0
    7.2376  -11.6499   27.2874 C   0  0  0  0  0  0  0  0  0  0  0  0
    8.4248  -12.0113   26.6461 C   0  0  0  0  0  0  0  0  0  0  0  0
    8.5687  -13.2868   26.1237 C   0  0  0  0  0  0  0  0  0  0  0  0
    7.5286  -14.1936   26.2438 C   0  0  0  0  0  0  0  0  0  0  0  0
    9.2218  -16.5865   22.8285 C   0  0  0  0  0  0  0  0  0  0  0  0
    9.6502  -17.7431   22.5832 O   0  0  0  0  0  0  0  0  0  0  0  0
    9.9925  -15.5071   22.2989 N   0  0  0  0  0  0  0  0  0  0  0  0
   11.1371  -15.6990   21.4471 C   0  0  1  0  0  0  0  0  0  0  0  0
   11.2285  -14.5418   20.4900 C   0  0  0  0  0  0  0  0  0  0  0  0
    9.9098  -14.2243   19.8666 C   0  0  0  0  0  0  0  0  0  0  0  0
    9.2240  -13.0623   20.2177 C   0  0  0  0  0  0  0  0  0  0  0  0
    8.0130  -12.7942   19.6317 C   0  0  0  0  0  0  0  0  0  0  0  0
    7.4726  -13.6633   18.7018 C   0  0  0  0  0  0  0  0  0  0  0  0
    8.1273  -14.8075   18.3429 C   0  0  0  0  0  0  0  0  0  0  0  0
    9.3488  -15.0653   18.9425 C   0  0  0  0  0  0  0  0  0  0  0  0
   12.4043  -15.8368   22.1623 C   0  0  0  0  0  0  0  0  0  0  0  0
   12.3591  -15.6791   23.5573 O   0  0  0  0  0  0  0  0  0  0  0  0
   13.5127  -16.0787   21.6583 O   0  0  0  0  0  0  0  0  0  0  0  0
  2  1  1  6
  2  3  1  0
  4  2  1  0
  4  5  2  0
  6  4  1  0
  7  6  1  0
  7  8  1  1
  9  8  1  0
  9 17  1  0
 10 11  1  0
 10  9  2  0
 11 12  1  0
 12 13  2  0
 12 17  1  0
 13 14  1  0
 14 15  2  0
 16 15  1  0
 17 16  2  0
 18  7  1  0
 19 18  2  0
 20 18  1  0
 21 20  1  0
 21 29  1  0
 22 23  1  0
 21 22  1  6
 23 24  2  0
 24 25  1  0
 26 25  2  0
 27 26  1  0
 28 23  1  0
 28 27  2  0
 29 30  1  0
 31 29  2  0
M  END
$$$$
