AWF.pdb
     RDKit          3D

 31 33  0  0  1  0  0  0  0  0999 V2000
    8.1469  -13.1476   18.9077 C   0  0  0  0  0  0  0  0  0  0  0  0
    8.8702  -14.4696   19.1687 C   0  0  2  0  0  0  0  0  0  0  0  0
    8.0402  -15.5646   18.7068 N   0  0  0  0  0  0  0  0  0  0  0  0
    9.0309  -14.5851   20.6238 C   0  0  0  0  0  0  0  0  0  0  0  0
    9.8077  -13.8139   21.2504 O   0  0  0  0  0  0  0  0  0  0  0  0
    8.3425  -15.5488   21.4199 N   0  0  0  0  0  0  0  0  0  0  0  0
    8.5009  -15.5636   22.8608 C   0  0  1  0  0  0  0  0  0  0  0  0
    7.2918  -16.2599   23.5099 C   0  0  0  0  0  0  0  0  0  0  0  0
    6.7083  -15.4223   24.5670 C   0  0  0  0  0  0  0  0  0  0  0  0
    5.7319  -15.8735   25.4370 C   0  0  0  0  0  0  0  0  0  0  0  0
    5.4495  -14.8485   26.2465 N   0  0  0  0  0  0  0  0  0  0  0  0
    6.1994  -13.7792   25.9273 C   0  0  0  0  0  0  0  0  0  0  0  0
    6.2786  -12.5148   26.4503 C   0  0  0  0  0  0  0  0  0  0  0  0
    7.1355  -11.5715   25.9519 C   0  0  0  0  0  0  0  0  0  0  0  0
    7.9551  -11.9134   24.8737 C   0  0  0  0  0  0  0  0  0  0  0  0
    7.8896  -13.1869   24.3310 C   0  0  0  0  0  0  0  0  0  0  0  0
    7.0078  -14.1111   24.8665 C   0  0  0  0  0  0  0  0  0  0  0  0
    9.7607  -16.2119   23.2774 C   0  0  0  0  0  0  0  0  0  0  0  0
   10.2245  -17.1847   22.6295 O   0  0  0  0  0  0  0  0  0  0  0  0
   10.5215  -15.7941   24.4115 N   0  0  0  0  0  0  0  0  0  0  0  0
   11.7279  -16.4537   24.8381 C   0  0  1  0  0  0  0  0  0  0  0  0
   12.4262  -15.5822   25.8463 C   0  0  0  0  0  0  0  0  0  0  0  0
   11.5384  -15.2296   26.9933 C   0  0  0  0  0  0  0  0  0  0  0  0
   11.5931  -15.9600   28.1796 C   0  0  0  0  0  0  0  0  0  0  0  0
   10.7655  -15.6169   29.2183 C   0  0  0  0  0  0  0  0  0  0  0  0
    9.8838  -14.5587   29.0965 C   0  0  0  0  0  0  0  0  0  0  0  0
    9.8134  -13.8294   27.9434 C   0  0  0  0  0  0  0  0  0  0  0  0
   10.6547  -14.1870   26.9031 C   0  0  0  0  0  0  0  0  0  0  0  0
   11.5185  -17.7825   25.4096 C   0  0  0  0  0  0  0  0  0  0  0  0
   12.6641  -18.5730   25.5988 O   0  0  0  0  0  0  0  0  0  0  0  0
   10.4305  -18.2786   25.7430 O   0  0  0  0  0  0  0  0  0  0  0  0
  2  1  1  1
  2  3  1  0
  4  2  1  0
  4  5  2  0
  6  4  1  0
  7  6  1  0
  7  8  1  1
  9  8  1  0
  9 17  1  0
 10 11  1  0
 10  9  2  0
 11 12  1  0
 12 13  2  0
 12 17  1  0
 13 14  1  0
 14 15  2  0
 16 15  1  0
 17 16  2  0
 18  7  1  0
 19 18  2  0
 20 18  1  0
 21 20  1  0
 21 29  1  0
 22 23  1  0
 21 22  1  1
 23 24  2  0
 24 25  1  0
 26 25  2  0
 27 26  1  0
 28 23  1  0
 28 27  2  0
 29 30  1  0
 31 29  2  0
M  END
$$$$
