AWF.pdb
     RDKit          3D

 31 33  0  0  1  0  0  0  0  0999 V2000
    9.5682  -18.7585   19.5188 C   0  0  0  0  0  0  0  0  0  0  0  0
    9.9657  -19.0739   20.9615 C   0  0  2  0  0  0  0  0  0  0  0  0
    8.7920  -19.5061   21.6940 N   0  0  0  0  0  0  0  0  0  0  0  0
   10.4506  -17.8196   21.5517 C   0  0  0  0  0  0  0  0  0  0  0  0
   11.5152  -17.2824   21.1410 O   0  0  0  0  0  0  0  0  0  0  0  0
    9.7769  -17.1302   22.6040 N   0  0  0  0  0  0  0  0  0  0  0  0
   10.3748  -15.9632   23.2222 C   0  0  1  0  0  0  0  0  0  0  0  0
    9.2806  -14.9349   23.5590 C   0  0  0  0  0  0  0  0  0  0  0  0
    8.2016  -14.9703   22.5619 C   0  0  0  0  0  0  0  0  0  0  0  0
    7.0966  -15.7953   22.6721 C   0  0  0  0  0  0  0  0  0  0  0  0
    6.3429  -15.5569   21.5948 N   0  0  0  0  0  0  0  0  0  0  0  0
    6.9198  -14.6248   20.8164 C   0  0  0  0  0  0  0  0  0  0  0  0
    6.5473  -14.0508   19.6288 C   0  0  0  0  0  0  0  0  0  0  0  0
    7.3106  -13.1006   19.0066 C   0  0  0  0  0  0  0  0  0  0  0  0
    8.5089  -12.7055   19.6059 C   0  0  0  0  0  0  0  0  0  0  0  0
    8.9028  -13.2743   20.8068 C   0  0  0  0  0  0  0  0  0  0  0  0
    8.0997  -14.2330   21.4023 C   0  0  0  0  0  0  0  0  0  0  0  0
   11.1544  -16.3078   24.4282 C   0  0  0  0  0  0  0  0  0  0  0  0
   12.3472  -15.9286   24.5492 O   0  0  0  0  0  0  0  0  0  0  0  0
   10.6269  -17.0732   25.5124 N   0  0  0  0  0  0  0  0  0  0  0  0
   11.4021  -17.4416   26.6681 C   0  0  1  0  0  0  0  0  0  0  0  0
   11.8794  -16.1888   27.3510 C   0  0  0  0  0  0  0  0  0  0  0  0
   10.7645  -15.2295   27.6059 C   0  0  0  0  0  0  0  0  0  0  0  0
   10.9661  -14.1102   28.4122 C   0  0  0  0  0  0  0  0  0  0  0  0
    9.9248  -13.2447   28.6322 C   0  0  0  0  0  0  0  0  0  0  0  0
    8.6856  -13.4744   28.0633 C   0  0  0  0  0  0  0  0  0  0  0  0
    8.4657  -14.5648   27.2699 C   0  0  0  0  0  0  0  0  0  0  0  0
    9.5259  -15.4298   27.0564 C   0  0  0  0  0  0  0  0  0  0  0  0
   10.6875  -18.2761   27.6322 C   0  0  0  0  0  0  0  0  0  0  0  0
   11.4387  -18.7772   28.7081 O   0  0  0  0  0  0  0  0  0  0  0  0
    9.4856  -18.5838   27.5926 O   0  0  0  0  0  0  0  0  0  0  0  0
  2  1  1  6
  2  3  1  0
  4  2  1  0
  4  5  2  0
  6  4  1  0
  7  6  1  0
  7  8  1  1
  9  8  1  0
  9 17  1  0
 10 11  1  0
 10  9  2  0
 11 12  1  0
 12 13  2  0
 12 17  1  0
 13 14  1  0
 14 15  2  0
 16 15  1  0
 17 16  2  0
 18  7  1  0
 19 18  2  0
 20 18  1  0
 21 20  1  0
 21 29  1  0
 22 23  1  0
 21 22  1  1
 23 24  2  0
 24 25  1  0
 26 25  2  0
 27 26  1  0
 28 23  1  0
 28 27  2  0
 29 30  1  0
 31 29  2  0
M  END
$$$$
