SQR.pdb
     RDKit          3D

 27 26  0  0  1  0  0  0  0  0999 V2000
   11.0508  -12.6890   19.5327 O   0  0  0  0  0  0  0  0  0  0  0  0
   11.0447  -13.7586   18.6204 C   0  0  0  0  0  0  0  0  0  0  0  0
    9.6155  -14.1894   18.3883 C   0  0  2  0  0  0  0  0  0  0  0  0
    8.7630  -13.0529   18.2514 N   0  0  0  0  0  0  0  0  0  0  0  0
    9.1862  -15.0744   19.5287 C   0  0  0  0  0  0  0  0  0  0  0  0
    8.2268  -14.7295   20.2452 O   0  0  0  0  0  0  0  0  0  0  0  0
   10.3677  -21.3079   21.1021 N   0  0  0  0  0  0  0  0  0  0  0  0
    9.9060  -20.7823   19.8679 C   0  0  0  0  0  0  0  0  0  0  0  0
    9.4819  -21.5867   19.0125 O   0  0  0  0  0  0  0  0  0  0  0  0
    9.9319  -19.3460   19.6239 C   0  0  0  0  0  0  0  0  0  0  0  0
   10.3682  -18.4821   20.7548 C   0  0  0  0  0  0  0  0  0  0  0  0
    9.6544  -17.1894   20.8718 C   0  0  2  0  0  0  0  0  0  0  0  0
    9.8599  -16.2888   19.7930 N   0  0  0  0  0  0  0  0  0  0  0  0
    9.8268  -16.5889   22.2336 C   0  0  0  0  0  0  0  0  0  0  0  0
   10.8488  -15.9401   22.5579 O   0  0  0  0  0  0  0  0  0  0  0  0
    8.0694  -11.2827   26.5838 N   0  0  0  0  0  0  0  0  0  0  0  0
    6.8794  -11.5445   27.3444 C   0  0  0  0  0  0  0  0  0  0  0  0
    6.3670  -10.5817   28.0073 N   0  0  0  0  0  0  0  0  0  0  0  0
    6.2948  -12.8234   27.3590 N   0  0  0  0  0  0  0  0  0  0  0  0
    6.3415  -13.6615   26.1941 C   0  0  0  0  0  0  0  0  0  0  0  0
    7.6848  -14.3262   25.9871 C   0  0  0  0  0  0  0  0  0  0  0  0
    7.6530  -15.1435   24.7180 C   0  0  0  0  0  0  0  0  0  0  0  0
    8.9058  -15.9357   24.4875 C   0  0  2  0  0  0  0  0  0  0  0  0
    8.8364  -16.7118   23.2594 N   0  0  0  0  0  0  0  0  0  0  0  0
    9.2190  -16.8159   25.6202 C   0  0  0  0  0  0  0  0  0  0  0  0
    9.8543  -16.3152   26.7455 O   0  0  0  0  0  0  0  0  0  0  0  0
    8.9099  -18.0274   25.5689 O   0  0  0  0  0  0  0  0  0  0  0  0
  2  1  1  0
  3  2  1  0
  3  4  1  1
  5  3  1  0
  6  5  2  0
  7  8  1  0
  8 10  1  0
  9  8  2  0
 10 11  1  0
 12 11  1  6
 12 13  1  0
 13  5  1  0
 14 15  2  0
 14 12  1  0
 17 16  1  0
 17 19  1  0
 18 17  2  0
 20 19  1  0
 21 22  1  0
 21 20  1  0
 23 22  1  1
 23 24  1  0
 24 14  1  0
 25 23  1  0
 26 25  1  0
 27 25  2  0
M  END
$$$$
