SQR.pdb
     RDKit          3D

 27 26  0  0  1  0  0  0  0  0999 V2000
    7.5045  -13.7072   19.7324 O   0  0  0  0  0  0  0  0  0  0  0  0
    8.2752  -12.8799   18.8970 C   0  0  0  0  0  0  0  0  0  0  0  0
    8.9895  -13.7441   17.8847 C   0  0  2  0  0  0  0  0  0  0  0  0
    8.1299  -14.0483   16.7866 N   0  0  0  0  0  0  0  0  0  0  0  0
    9.4778  -14.9915   18.5728 C   0  0  0  0  0  0  0  0  0  0  0  0
    9.4159  -16.0846   17.9777 O   0  0  0  0  0  0  0  0  0  0  0  0
   14.5039  -13.7451   17.7552 N   0  0  0  0  0  0  0  0  0  0  0  0
   14.8353  -14.3760   18.9820 C   0  0  0  0  0  0  0  0  0  0  0  0
   16.0442  -14.4952   19.2696 O   0  0  0  0  0  0  0  0  0  0  0  0
   13.7846  -14.8623   19.8668 C   0  0  0  0  0  0  0  0  0  0  0  0
   12.3850  -14.5129   19.5002 C   0  0  0  0  0  0  0  0  0  0  0  0
   11.3371  -15.1817   20.3058 C   0  0  2  0  0  0  0  0  0  0  0  0
   10.0038  -14.9338   19.8837 N   0  0  0  0  0  0  0  0  0  0  0  0
   11.5755  -15.0017   21.7740 C   0  0  0  0  0  0  0  0  0  0  0  0
   12.7266  -14.9357   22.2652 O   0  0  0  0  0  0  0  0  0  0  0  0
    5.2125  -20.8401   21.8305 N   0  0  0  0  0  0  0  0  0  0  0  0
    5.7214  -19.5004   21.7346 C   0  0  0  0  0  0  0  0  0  0  0  0
    4.9076  -18.5709   21.4135 N   0  0  0  0  0  0  0  0  0  0  0  0
    7.0759  -19.2193   21.9870 N   0  0  0  0  0  0  0  0  0  0  0  0
    7.4705  -18.5498   23.1944 C   0  0  0  0  0  0  0  0  0  0  0  0
    8.9619  -18.3132   23.2888 C   0  0  0  0  0  0  0  0  0  0  0  0
    9.3133  -17.0231   22.5875 C   0  0  0  0  0  0  0  0  0  0  0  0
   10.0252  -16.0401   23.4691 C   0  0  2  0  0  0  0  0  0  0  0  0
   10.5063  -14.8906   22.7188 N   0  0  0  0  0  0  0  0  0  0  0  0
   11.1351  -16.6599   24.2038 C   0  0  0  0  0  0  0  0  0  0  0  0
   11.1023  -16.7460   25.5866 O   0  0  0  0  0  0  0  0  0  0  0  0
   12.1182  -17.1138   23.5764 O   0  0  0  0  0  0  0  0  0  0  0  0
  2  1  1  0
  3  2  1  0
  3  4  1  6
  5  3  1  0
  6  5  2  0
  7  8  1  0
  8 10  1  0
  9  8  2  0
 10 11  1  0
 12 11  1  6
 12 13  1  0
 13  5  1  0
 14 15  2  0
 14 12  1  0
 17 16  1  0
 17 19  1  0
 18 17  2  0
 20 19  1  0
 21 22  1  0
 21 20  1  0
 23 22  1  6
 23 24  1  0
 24 14  1  0
 25 23  1  0
 26 25  1  0
 27 25  2  0
M  END
$$$$
