SQR.pdb
     RDKit          3D

 27 26  0  0  1  0  0  0  0  0999 V2000
    8.8905  -18.6644   18.1173 O   0  0  0  0  0  0  0  0  0  0  0  0
    9.9495  -18.4424   17.2198 C   0  0  0  0  0  0  0  0  0  0  0  0
    9.7913  -17.0676   16.6142 C   0  0  2  0  0  0  0  0  0  0  0  0
   10.7930  -16.8351   15.6243 N   0  0  0  0  0  0  0  0  0  0  0  0
    9.8492  -16.0440   17.7173 C   0  0  0  0  0  0  0  0  0  0  0  0
   10.9525  -15.5851   18.0710 O   0  0  0  0  0  0  0  0  0  0  0  0
    7.1886  -14.7827   16.6987 N   0  0  0  0  0  0  0  0  0  0  0  0
    7.3665  -13.3831   16.8481 C   0  0  0  0  0  0  0  0  0  0  0  0
    7.3912  -12.6837   15.8142 O   0  0  0  0  0  0  0  0  0  0  0  0
    7.5129  -12.7973   18.1742 C   0  0  0  0  0  0  0  0  0  0  0  0
    7.4278  -13.7294   19.3316 C   0  0  0  0  0  0  0  0  0  0  0  0
    8.5425  -14.6985   19.4432 C   0  0  2  0  0  0  0  0  0  0  0  0
    8.6671  -15.6004   18.3531 N   0  0  0  0  0  0  0  0  0  0  0  0
    8.5785  -15.3396   20.7969 C   0  0  0  0  0  0  0  0  0  0  0  0
    7.8353  -14.9700   21.7359 O   0  0  0  0  0  0  0  0  0  0  0  0
   17.2104  -13.8256   21.2297 N   0  0  0  0  0  0  0  0  0  0  0  0
   16.0075  -14.2812   20.5907 C   0  0  0  0  0  0  0  0  0  0  0  0
   15.6517  -13.7114   19.5054 N   0  0  0  0  0  0  0  0  0  0  0  0
   15.2432  -15.3243   21.1431 N   0  0  0  0  0  0  0  0  0  0  0  0
   13.9200  -15.5973   20.6570 C   0  0  0  0  0  0  0  0  0  0  0  0
   12.8573  -14.7252   21.2889 C   0  0  0  0  0  0  0  0  0  0  0  0
   11.5006  -15.1149   20.7531 C   0  0  0  0  0  0  0  0  0  0  0  0
   10.8275  -16.1872   21.5576 C   0  0  2  0  0  0  0  0  0  0  0  0
    9.4623  -16.4200   21.1130 N   0  0  0  0  0  0  0  0  0  0  0  0
   10.8432  -15.8910   22.9956 C   0  0  0  0  0  0  0  0  0  0  0  0
    9.9452  -14.9850   23.5370 O   0  0  0  0  0  0  0  0  0  0  0  0
   11.6741  -16.4610   23.7377 O   0  0  0  0  0  0  0  0  0  0  0  0
  2  1  1  0
  3  2  1  0
  3  4  1  6
  5  3  1  0
  6  5  2  0
  7  8  1  0
  8 10  1  0
  9  8  2  0
 10 11  1  0
 12 11  1  6
 12 13  1  0
 13  5  1  0
 14 15  2  0
 14 12  1  0
 17 16  1  0
 17 19  1  0
 18 17  2  0
 20 19  1  0
 21 22  1  0
 21 20  1  0
 23 22  1  6
 23 24  1  0
 24 14  1  0
 25 23  1  0
 26 25  1  0
 27 25  2  0
M  END
$$$$
