SQR.pdb
     RDKit          3D

 27 26  0  0  1  0  0  0  0  0999 V2000
    5.9613  -15.1354   18.0189 O   0  0  0  0  0  0  0  0  0  0  0  0
    7.1719  -14.9801   18.7165 C   0  0  0  0  0  0  0  0  0  0  0  0
    7.2005  -13.6029   19.3366 C   0  0  2  0  0  0  0  0  0  0  0  0
    7.7234  -12.6466   18.4150 N   0  0  0  0  0  0  0  0  0  0  0  0
    8.0140  -13.6597   20.6027 C   0  0  0  0  0  0  0  0  0  0  0  0
    9.2556  -13.7381   20.5311 O   0  0  0  0  0  0  0  0  0  0  0  0
    5.8356  -12.0650   26.5141 N   0  0  0  0  0  0  0  0  0  0  0  0
    7.1152  -12.6429   26.7178 C   0  0  0  0  0  0  0  0  0  0  0  0
    7.5940  -12.6108   27.8703 O   0  0  0  0  0  0  0  0  0  0  0  0
    7.8332  -13.2516   25.6054 C   0  0  0  0  0  0  0  0  0  0  0  0
    7.2156  -13.1208   24.2575 C   0  0  0  0  0  0  0  0  0  0  0  0
    7.9837  -13.7359   23.1503 C   0  0  2  0  0  0  0  0  0  0  0  0
    7.3837  -13.6253   21.8677 N   0  0  0  0  0  0  0  0  0  0  0  0
    8.4543  -15.1127   23.5076 C   0  0  0  0  0  0  0  0  0  0  0  0
    7.6664  -16.0771   23.6484 O   0  0  0  0  0  0  0  0  0  0  0  0
   15.8354  -15.0694   20.8154 N   0  0  0  0  0  0  0  0  0  0  0  0
   14.5658  -14.9911   20.1484 C   0  0  0  0  0  0  0  0  0  0  0  0
   14.4952  -14.3112   19.0704 N   0  0  0  0  0  0  0  0  0  0  0  0
   13.4331  -15.6439   20.6662 N   0  0  0  0  0  0  0  0  0  0  0  0
   13.5291  -16.4388   21.8582 C   0  0  0  0  0  0  0  0  0  0  0  0
   12.5015  -16.0734   22.9069 C   0  0  0  0  0  0  0  0  0  0  0  0
   11.4177  -17.1241   22.9388 C   0  0  0  0  0  0  0  0  0  0  0  0
   10.2954  -16.7945   23.8778 C   0  0  2  0  0  0  0  0  0  0  0  0
    9.8361  -15.4244   23.7115 N   0  0  0  0  0  0  0  0  0  0  0  0
   10.6595  -17.0349   25.2798 C   0  0  0  0  0  0  0  0  0  0  0  0
   10.5788  -16.0133   26.2126 O   0  0  0  0  0  0  0  0  0  0  0  0
   11.0457  -18.1710   25.6348 O   0  0  0  0  0  0  0  0  0  0  0  0
  2  1  1  0
  3  2  1  0
  3  4  1  6
  5  3  1  0
  6  5  2  0
  7  8  1  0
  8 10  1  0
  9  8  2  0
 10 11  1  0
 12 11  1  1
 12 13  1  0
 13  5  1  0
 14 15  2  0
 14 12  1  0
 17 16  1  0
 17 19  1  0
 18 17  2  0
 20 19  1  0
 21 22  1  0
 21 20  1  0
 23 22  1  6
 23 24  1  0
 24 14  1  0
 25 23  1  0
 26 25  1  0
 27 25  2  0
M  END
$$$$
