SQR.pdb
     RDKit          3D

 27 26  0  0  1  0  0  0  0  0999 V2000
    7.7677  -19.6597   22.1363 O   0  0  0  0  0  0  0  0  0  0  0  0
    6.5305  -19.3048   21.5709 C   0  0  0  0  0  0  0  0  0  0  0  0
    6.7191  -19.0921   20.0872 C   0  0  2  0  0  0  0  0  0  0  0  0
    7.2476  -20.2673   19.4733 N   0  0  0  0  0  0  0  0  0  0  0  0
    7.6184  -17.9021   19.8800 C   0  0  0  0  0  0  0  0  0  0  0  0
    8.8321  -18.0811   19.6611 O   0  0  0  0  0  0  0  0  0  0  0  0
    8.1743  -13.4212   17.4071 N   0  0  0  0  0  0  0  0  0  0  0  0
    8.3817  -12.5739   18.5259 C   0  0  0  0  0  0  0  0  0  0  0  0
    9.1306  -11.5858   18.3796 O   0  0  0  0  0  0  0  0  0  0  0  0
    7.7319  -12.8623   19.7979 C   0  0  0  0  0  0  0  0  0  0  0  0
    6.9792  -14.1430   19.8905 C   0  0  0  0  0  0  0  0  0  0  0  0
    7.8171  -15.3624   19.9632 C   0  0  2  0  0  0  0  0  0  0  0  0
    7.1000  -16.5879   19.9315 N   0  0  0  0  0  0  0  0  0  0  0  0
    8.8403  -15.2607   21.0529 C   0  0  0  0  0  0  0  0  0  0  0  0
    9.7474  -14.3960   21.0448 O   0  0  0  0  0  0  0  0  0  0  0  0
   10.8144  -16.1241   29.1931 N   0  0  0  0  0  0  0  0  0  0  0  0
   10.0894  -14.8927   29.0484 C   0  0  0  0  0  0  0  0  0  0  0  0
   10.2943  -13.9712   29.9075 N   0  0  0  0  0  0  0  0  0  0  0  0
    9.1804  -14.7062   27.9919 N   0  0  0  0  0  0  0  0  0  0  0  0
    8.8935  -15.7755   27.0775 C   0  0  0  0  0  0  0  0  0  0  0  0
    9.7735  -15.7645   25.8469 C   0  0  0  0  0  0  0  0  0  0  0  0
    8.9125  -15.8587   24.6102 C   0  0  0  0  0  0  0  0  0  0  0  0
    9.7023  -15.8951   23.3353 C   0  0  2  0  0  0  0  0  0  0  0  0
    8.8534  -16.1421   22.1804 N   0  0  0  0  0  0  0  0  0  0  0  0
   10.7842  -16.8865   23.3839 C   0  0  0  0  0  0  0  0  0  0  0  0
   11.9630  -16.6089   24.0577 O   0  0  0  0  0  0  0  0  0  0  0  0
   10.6407  -17.9905   22.8124 O   0  0  0  0  0  0  0  0  0  0  0  0
  2  1  1  0
  3  2  1  0
  3  4  1  1
  5  3  1  0
  6  5  2  0
  7  8  1  0
  8 10  1  0
  9  8  2  0
 10 11  1  0
 12 11  1  1
 12 13  1  0
 13  5  1  0
 14 15  2  0
 14 12  1  0
 17 16  1  0
 17 19  1  0
 18 17  2  0
 20 19  1  0
 21 22  1  0
 21 20  1  0
 23 22  1  1
 23 24  1  0
 24 14  1  0
 25 23  1  0
 26 25  1  0
 27 25  2  0
M  END
$$$$
