SQR.pdb
     RDKit          3D

 27 26  0  0  1  0  0  0  0  0999 V2000
   10.6293  -18.7035   18.0554 O   0  0  0  0  0  0  0  0  0  0  0  0
    9.9096  -18.3144   16.9122 C   0  0  0  0  0  0  0  0  0  0  0  0
    8.4383  -18.2838   17.2529 C   0  0  2  0  0  0  0  0  0  0  0  0
    7.6659  -17.9011   16.1152 N   0  0  0  0  0  0  0  0  0  0  0  0
    8.2297  -17.3434   18.4105 C   0  0  0  0  0  0  0  0  0  0  0  0
    7.4346  -16.3912   18.2917 O   0  0  0  0  0  0  0  0  0  0  0  0
    5.9060  -20.0020   22.7407 N   0  0  0  0  0  0  0  0  0  0  0  0
    5.9690  -18.7116   23.3268 C   0  0  0  0  0  0  0  0  0  0  0  0
    5.4581  -18.5570   24.4554 O   0  0  0  0  0  0  0  0  0  0  0  0
    6.6146  -17.6130   22.6200 C   0  0  0  0  0  0  0  0  0  0  0  0
    7.1412  -17.9090   21.2597 C   0  0  0  0  0  0  0  0  0  0  0  0
    8.4578  -17.3056   20.9488 C   0  0  2  0  0  0  0  0  0  0  0  0
    8.9256  -17.5304   19.6267 N   0  0  0  0  0  0  0  0  0  0  0  0
    9.4593  -17.5887   22.0267 C   0  0  0  0  0  0  0  0  0  0  0  0
    9.6151  -18.7318   22.5162 O   0  0  0  0  0  0  0  0  0  0  0  0
    5.2890  -11.7876   25.7477 N   0  0  0  0  0  0  0  0  0  0  0  0
    6.4114  -11.9472   26.6296 C   0  0  0  0  0  0  0  0  0  0  0  0
    6.6215  -11.0411   27.5037 N   0  0  0  0  0  0  0  0  0  0  0  0
    7.2548  -13.0684   26.5343 N   0  0  0  0  0  0  0  0  0  0  0  0
    7.3955  -13.7734   25.2913 C   0  0  0  0  0  0  0  0  0  0  0  0
    8.3195  -14.9681   25.3808 C   0  0  0  0  0  0  0  0  0  0  0  0
    8.6701  -15.4399   23.9901 C   0  0  0  0  0  0  0  0  0  0  0  0
   10.0615  -15.9897   23.8802 C   0  0  2  0  0  0  0  0  0  0  0  0
   10.3097  -16.5749   22.5719 N   0  0  0  0  0  0  0  0  0  0  0  0
   10.3521  -16.9716   24.9324 C   0  0  0  0  0  0  0  0  0  0  0  0
    9.7895  -18.2372   24.8883 O   0  0  0  0  0  0  0  0  0  0  0  0
   11.1137  -16.6629   25.8763 O   0  0  0  0  0  0  0  0  0  0  0  0
  2  1  1  0
  3  2  1  0
  3  4  1  6
  5  3  1  0
  6  5  2  0
  7  8  1  0
  8 10  1  0
  9  8  2  0
 10 11  1  0
 12 11  1  1
 12 13  1  0
 13  5  1  0
 14 15  2  0
 14 12  1  0
 17 16  1  0
 17 19  1  0
 18 17  2  0
 20 19  1  0
 21 22  1  0
 21 20  1  0
 23 22  1  6
 23 24  1  0
 24 14  1  0
 25 23  1  0
 26 25  1  0
 27 25  2  0
M  END
$$$$
