SQR.pdb
     RDKit          3D

 27 26  0  0  1  0  0  0  0  0999 V2000
    9.3707  -15.3959   15.7317 O   0  0  0  0  0  0  0  0  0  0  0  0
    7.9951  -15.2426   15.9780 C   0  0  0  0  0  0  0  0  0  0  0  0
    7.7719  -13.9205   16.6740 C   0  0  2  0  0  0  0  0  0  0  0  0
    8.2503  -12.8418   15.8710 N   0  0  0  0  0  0  0  0  0  0  0  0
    8.4522  -13.9603   18.0170 C   0  0  0  0  0  0  0  0  0  0  0  0
    9.5966  -13.4826   18.1393 O   0  0  0  0  0  0  0  0  0  0  0  0
    6.0510  -17.1714   23.1743 N   0  0  0  0  0  0  0  0  0  0  0  0
    7.1595  -16.4339   23.6642 C   0  0  0  0  0  0  0  0  0  0  0  0
    7.4388  -16.5354   24.8768 O   0  0  0  0  0  0  0  0  0  0  0  0
    7.9373  -15.5905   22.7659 C   0  0  0  0  0  0  0  0  0  0  0  0
    7.4105  -15.4186   21.3844 C   0  0  0  0  0  0  0  0  0  0  0  0
    8.3364  -14.7592   20.4346 C   0  0  2  0  0  0  0  0  0  0  0  0
    7.8064  -14.5332   19.1365 N   0  0  0  0  0  0  0  0  0  0  0  0
    9.6921  -15.3966   20.4580 C   0  0  0  0  0  0  0  0  0  0  0  0
    9.9573  -16.4365   19.8107 O   0  0  0  0  0  0  0  0  0  0  0  0
   16.9463  -13.3988   18.5078 N   0  0  0  0  0  0  0  0  0  0  0  0
   16.2967  -14.2191   17.5239 C   0  0  0  0  0  0  0  0  0  0  0  0
   17.0297  -14.8690   16.7057 N   0  0  0  0  0  0  0  0  0  0  0  0
   14.8944  -14.3050   17.4627 N   0  0  0  0  0  0  0  0  0  0  0  0
   14.0882  -13.9008   18.5800 C   0  0  0  0  0  0  0  0  0  0  0  0
   14.0892  -14.9026   19.7138 C   0  0  0  0  0  0  0  0  0  0  0  0
   13.1528  -14.4343   20.8016 C   0  0  0  0  0  0  0  0  0  0  0  0
   12.1103  -15.4487   21.1683 C   0  0  2  0  0  0  0  0  0  0  0  0
   10.7800  -14.8627   21.2192 N   0  0  0  0  0  0  0  0  0  0  0  0
   12.4131  -16.1170   22.4401 C   0  0  0  0  0  0  0  0  0  0  0  0
   11.5082  -16.0767   23.4889 O   0  0  0  0  0  0  0  0  0  0  0  0
   13.4968  -16.7275   22.5779 O   0  0  0  0  0  0  0  0  0  0  0  0
  2  1  1  0
  3  2  1  0
  3  4  1  6
  5  3  1  0
  6  5  2  0
  7  8  1  0
  8 10  1  0
  9  8  2  0
 10 11  1  0
 12 11  1  1
 12 13  1  0
 13  5  1  0
 14 15  2  0
 14 12  1  0
 17 16  1  0
 17 19  1  0
 18 17  2  0
 20 19  1  0
 21 22  1  0
 21 20  1  0
 23 22  1  1
 23 24  1  0
 24 14  1  0
 25 23  1  0
 26 25  1  0
 27 25  2  0
M  END
$$$$
