SQR.pdb
     RDKit          3D

 27 26  0  0  1  0  0  0  0  0999 V2000
    8.9949  -13.6319   19.6833 O   0  0  0  0  0  0  0  0  0  0  0  0
    8.3517  -14.1188   18.5319 C   0  0  0  0  0  0  0  0  0  0  0  0
    9.3499  -14.1569   17.3987 C   0  0  2  0  0  0  0  0  0  0  0  0
    8.7501  -14.6873   16.2171 N   0  0  0  0  0  0  0  0  0  0  0  0
   10.5420  -14.9690   17.8318 C   0  0  0  0  0  0  0  0  0  0  0  0
   10.4457  -16.2093   17.9041 O   0  0  0  0  0  0  0  0  0  0  0  0
   16.5479  -13.3669   16.6418 N   0  0  0  0  0  0  0  0  0  0  0  0
   16.3774  -13.2199   18.0425 C   0  0  0  0  0  0  0  0  0  0  0  0
   17.2791  -12.6412   18.6832 O   0  0  0  0  0  0  0  0  0  0  0  0
   15.1804  -13.7333   18.6960 C   0  0  0  0  0  0  0  0  0  0  0  0
   14.1899  -14.4286   17.8294 C   0  0  0  0  0  0  0  0  0  0  0  0
   12.9928  -14.9466   18.5314 C   0  0  2  0  0  0  0  0  0  0  0  0
   11.7652  -14.3389   18.1560 N   0  0  0  0  0  0  0  0  0  0  0  0
   13.2214  -15.0414   20.0091 C   0  0  0  0  0  0  0  0  0  0  0  0
   12.8963  -14.1250   20.7999 O   0  0  0  0  0  0  0  0  0  0  0  0
   11.3076  -21.7736   25.0346 N   0  0  0  0  0  0  0  0  0  0  0  0
   11.8084  -20.8236   25.9883 C   0  0  0  0  0  0  0  0  0  0  0  0
   11.6704  -21.0892   27.2291 N   0  0  0  0  0  0  0  0  0  0  0  0
   12.4329  -19.6355   25.5689 N   0  0  0  0  0  0  0  0  0  0  0  0
   12.3267  -19.1959   24.2061 C   0  0  0  0  0  0  0  0  0  0  0  0
   13.1025  -17.9282   23.9229 C   0  0  0  0  0  0  0  0  0  0  0  0
   13.1099  -17.6628   22.4366 C   0  0  0  0  0  0  0  0  0  0  0  0
   13.7996  -16.3842   22.0628 C   0  0  2  0  0  0  0  0  0  0  0  0
   13.8252  -16.1849   20.6222 N   0  0  0  0  0  0  0  0  0  0  0  0
   15.1629  -16.3135   22.6033 C   0  0  0  0  0  0  0  0  0  0  0  0
   16.2542  -16.2414   21.7523 O   0  0  0  0  0  0  0  0  0  0  0  0
   15.3405  -16.3186   23.8421 O   0  0  0  0  0  0  0  0  0  0  0  0
  2  1  1  0
  3  2  1  0
  3  4  1  6
  5  3  1  0
  6  5  2  0
  7  8  1  0
  8 10  1  0
  9  8  2  0
 10 11  1  0
 12 11  1  6
 12 13  1  0
 13  5  1  0
 14 15  2  0
 14 12  1  0
 17 16  1  0
 17 19  1  0
 18 17  2  0
 20 19  1  0
 21 22  1  0
 21 20  1  0
 23 22  1  6
 23 24  1  0
 24 14  1  0
 25 23  1  0
 26 25  1  0
 27 25  2  0
M  END
$$$$
