SQR.pdb
     RDKit          3D

 27 26  0  0  1  0  0  0  0  0999 V2000
    7.1221  -20.9177   22.0337 O   0  0  0  0  0  0  0  0  0  0  0  0
    6.1611  -20.5279   21.0846 C   0  0  0  0  0  0  0  0  0  0  0  0
    6.8703  -20.1388   19.8088 C   0  0  2  0  0  0  0  0  0  0  0  0
    7.5227  -21.2690   19.2306 N   0  0  0  0  0  0  0  0  0  0  0  0
    7.8423  -19.0300   20.1149 C   0  0  0  0  0  0  0  0  0  0  0  0
    9.0214  -19.3104   20.4044 O   0  0  0  0  0  0  0  0  0  0  0  0
    7.2547  -12.8902   18.2113 N   0  0  0  0  0  0  0  0  0  0  0  0
    8.3362  -12.9018   19.1295 C   0  0  0  0  0  0  0  0  0  0  0  0
    8.9395  -11.8284   19.3352 O   0  0  0  0  0  0  0  0  0  0  0  0
    8.7164  -14.1368   19.8031 C   0  0  0  0  0  0  0  0  0  0  0  0
    7.7955  -15.2957   19.6475 C   0  0  0  0  0  0  0  0  0  0  0  0
    8.1935  -16.5195   20.3811 C   0  0  2  0  0  0  0  0  0  0  0  0
    7.4303  -17.6782   20.0772 N   0  0  0  0  0  0  0  0  0  0  0  0
    8.3702  -16.2491   21.8441 C   0  0  0  0  0  0  0  0  0  0  0  0
    7.4496  -16.4241   22.6763 O   0  0  0  0  0  0  0  0  0  0  0  0
    4.7666  -13.1095   26.8083 N   0  0  0  0  0  0  0  0  0  0  0  0
    5.8599  -12.3701   27.3749 C   0  0  0  0  0  0  0  0  0  0  0  0
    5.5880  -11.3335   28.0682 N   0  0  0  0  0  0  0  0  0  0  0  0
    7.1913  -12.7752   27.1728 N   0  0  0  0  0  0  0  0  0  0  0  0
    7.7422  -12.8405   25.8485 C   0  0  0  0  0  0  0  0  0  0  0  0
    8.6568  -14.0271   25.6374 C   0  0  0  0  0  0  0  0  0  0  0  0
    8.5763  -14.4763   24.1981 C   0  0  0  0  0  0  0  0  0  0  0  0
    9.7121  -15.3657   23.7868 C   0  0  2  0  0  0  0  0  0  0  0  0
    9.6026  -15.7737   22.3950 N   0  0  0  0  0  0  0  0  0  0  0  0
    9.8274  -16.5487   24.6488 C   0  0  0  0  0  0  0  0  0  0  0  0
   11.0379  -16.8724   25.2409 O   0  0  0  0  0  0  0  0  0  0  0  0
    8.8249  -17.2702   24.8501 O   0  0  0  0  0  0  0  0  0  0  0  0
  2  1  1  0
  3  2  1  0
  3  4  1  1
  5  3  1  0
  6  5  2  0
  7  8  1  0
  8 10  1  0
  9  8  2  0
 10 11  1  0
 12 11  1  6
 12 13  1  0
 13  5  1  0
 14 15  2  0
 14 12  1  0
 17 16  1  0
 17 19  1  0
 18 17  2  0
 20 19  1  0
 21 22  1  0
 21 20  1  0
 23 22  1  1
 23 24  1  0
 24 14  1  0
 25 23  1  0
 26 25  1  0
 27 25  2  0
M  END
$$$$
