SQR.pdb
     RDKit          3D

 27 26  0  0  1  0  0  0  0  0999 V2000
   11.3035  -18.0157   13.9007 O   0  0  0  0  0  0  0  0  0  0  0  0
   10.0930  -17.6300   14.5026 C   0  0  0  0  0  0  0  0  0  0  0  0
    9.9101  -16.1424   14.3135 C   0  0  2  0  0  0  0  0  0  0  0  0
   10.8383  -15.6392   13.3531 N   0  0  0  0  0  0  0  0  0  0  0  0
   10.0655  -15.4629   15.6484 C   0  0  0  0  0  0  0  0  0  0  0  0
   11.2004  -15.1244   16.0361 O   0  0  0  0  0  0  0  0  0  0  0  0
    7.9604  -12.0848   19.0312 N   0  0  0  0  0  0  0  0  0  0  0  0
    7.7631  -12.9795   20.1144 C   0  0  0  0  0  0  0  0  0  0  0  0
    7.8145  -12.5155   21.2722 O   0  0  0  0  0  0  0  0  0  0  0  0
    7.5085  -14.3924   19.8648 C   0  0  0  0  0  0  0  0  0  0  0  0
    7.5503  -14.8403   18.4460 C   0  0  0  0  0  0  0  0  0  0  0  0
    8.9062  -14.9507   17.8599 C   0  0  2  0  0  0  0  0  0  0  0  0
    8.9390  -15.2064   16.4632 N   0  0  0  0  0  0  0  0  0  0  0  0
    9.7888  -15.8391   18.6825 C   0  0  0  0  0  0  0  0  0  0  0  0
   10.5351  -16.7059   18.1703 O   0  0  0  0  0  0  0  0  0  0  0  0
   16.9107  -15.3973   18.4806 N   0  0  0  0  0  0  0  0  0  0  0  0
   16.1412  -14.3443   17.8789 C   0  0  0  0  0  0  0  0  0  0  0  0
   16.6830  -13.6635   16.9450 N   0  0  0  0  0  0  0  0  0  0  0  0
   14.8294  -14.0703   18.3049 N   0  0  0  0  0  0  0  0  0  0  0  0
   14.4087  -14.4050   19.6364 C   0  0  0  0  0  0  0  0  0  0  0  0
   13.2899  -15.4228   19.6737 C   0  0  0  0  0  0  0  0  0  0  0  0
   12.0913  -14.8296   20.3744 C   0  0  0  0  0  0  0  0  0  0  0  0
   11.1008  -15.8577   20.8350 C   0  0  2  0  0  0  0  0  0  0  0  0
    9.8434  -15.7597   20.1104 N   0  0  0  0  0  0  0  0  0  0  0  0
   10.8545  -15.7788   22.2803 C   0  0  0  0  0  0  0  0  0  0  0  0
    9.5787  -15.5364   22.7642 O   0  0  0  0  0  0  0  0  0  0  0  0
   11.8039  -15.9316   23.0811 O   0  0  0  0  0  0  0  0  0  0  0  0
  2  1  1  0
  3  2  1  0
  3  4  1  6
  5  3  1  0
  6  5  2  0
  7  8  1  0
  8 10  1  0
  9  8  2  0
 10 11  1  0
 12 11  1  1
 12 13  1  0
 13  5  1  0
 14 15  2  0
 14 12  1  0
 17 16  1  0
 17 19  1  0
 18 17  2  0
 20 19  1  0
 21 22  1  0
 21 20  1  0
 23 22  1  6
 23 24  1  0
 24 14  1  0
 25 23  1  0
 26 25  1  0
 27 25  2  0
M  END
$$$$
