SQR.pdb
     RDKit          3D

 27 26  0  0  1  0  0  0  0  0999 V2000
    6.8825  -22.1646   27.0908 O   0  0  0  0  0  0  0  0  0  0  0  0
    5.7956  -21.3309   26.7750 C   0  0  0  0  0  0  0  0  0  0  0  0
    6.1556  -20.5034   25.5635 C   0  0  2  0  0  0  0  0  0  0  0  0
    6.3332  -21.3373   24.4189 N   0  0  0  0  0  0  0  0  0  0  0  0
    7.3970  -19.7087   25.8726 C   0  0  0  0  0  0  0  0  0  0  0  0
    8.4901  -20.0677   25.3939 O   0  0  0  0  0  0  0  0  0  0  0  0
    7.8019  -13.5179   27.5718 N   0  0  0  0  0  0  0  0  0  0  0  0
    9.0690  -14.0756   27.8820 C   0  0  0  0  0  0  0  0  0  0  0  0
    9.9915  -13.2935   28.1918 O   0  0  0  0  0  0  0  0  0  0  0  0
    9.2691  -15.5182   27.8365 C   0  0  0  0  0  0  0  0  0  0  0  0
    8.1374  -16.3357   27.3203 C   0  0  0  0  0  0  0  0  0  0  0  0
    8.4093  -17.7874   27.2069 C   0  0  2  0  0  0  0  0  0  0  0  0
    7.3336  -18.5630   26.6982 N   0  0  0  0  0  0  0  0  0  0  0  0
    9.0383  -18.3270   28.4551 C   0  0  0  0  0  0  0  0  0  0  0  0
    8.3650  -18.8372   29.3808 O   0  0  0  0  0  0  0  0  0  0  0  0
    8.8488  -25.0992   31.0703 N   0  0  0  0  0  0  0  0  0  0  0  0
   10.1137  -24.8555   31.7056 C   0  0  0  0  0  0  0  0  0  0  0  0
   10.5041  -25.6777   32.6004 N   0  0  0  0  0  0  0  0  0  0  0  0
   10.9000  -23.7443   31.3530 N   0  0  0  0  0  0  0  0  0  0  0  0
   10.3923  -22.7451   30.4555 C   0  0  0  0  0  0  0  0  0  0  0  0
   11.4188  -21.6988   30.0804 C   0  0  0  0  0  0  0  0  0  0  0  0
   10.7848  -20.6730   29.1719 C   0  0  0  0  0  0  0  0  0  0  0  0
   11.1074  -19.2585   29.5533 C   0  0  2  0  0  0  0  0  0  0  0  0
   10.4517  -18.2997   28.6778 N   0  0  0  0  0  0  0  0  0  0  0  0
   12.5541  -19.0090   29.5766 C   0  0  0  0  0  0  0  0  0  0  0  0
   13.3104  -19.3579   30.6842 O   0  0  0  0  0  0  0  0  0  0  0  0
   13.1083  -18.4770   28.5887 O   0  0  0  0  0  0  0  0  0  0  0  0
  2  1  1  0
  3  2  1  0
  3  4  1  6
  5  3  1  0
  6  5  2  0
  7  8  1  0
  8 10  1  0
  9  8  2  0
 10 11  1  0
 12 11  1  1
 12 13  1  0
 13  5  1  0
 14 15  2  0
 14 12  1  0
 17 16  1  0
 17 19  1  0
 18 17  2  0
 20 19  1  0
 21 22  1  0
 21 20  1  0
 23 22  1  6
 23 24  1  0
 24 14  1  0
 25 23  1  0
 26 25  1  0
 27 25  2  0
M  END
$$$$
