SQR.pdb
     RDKit          3D

 27 26  0  0  1  0  0  0  0  0999 V2000
    7.5778  -13.1140   19.5499 O   0  0  0  0  0  0  0  0  0  0  0  0
    8.3867  -12.6245   18.5096 C   0  0  0  0  0  0  0  0  0  0  0  0
    8.8997  -13.7943   17.7032 C   0  0  2  0  0  0  0  0  0  0  0  0
    7.8327  -14.4234   16.9940 N   0  0  0  0  0  0  0  0  0  0  0  0
    9.5941  -14.7546   18.6325 C   0  0  0  0  0  0  0  0  0  0  0  0
    8.9464  -15.6858   19.1484 O   0  0  0  0  0  0  0  0  0  0  0  0
   15.4037  -13.8189   18.5306 N   0  0  0  0  0  0  0  0  0  0  0  0
   14.8693  -14.9369   17.8399 C   0  0  0  0  0  0  0  0  0  0  0  0
   15.3965  -15.2602   16.7554 O   0  0  0  0  0  0  0  0  0  0  0  0
   13.7412  -15.6740   18.3943 C   0  0  0  0  0  0  0  0  0  0  0  0
   13.2128  -15.2045   19.7043 C   0  0  0  0  0  0  0  0  0  0  0  0
   11.7462  -15.3271   19.8724 C   0  0  2  0  0  0  0  0  0  0  0  0
   10.9698  -14.6095   18.9240 N   0  0  0  0  0  0  0  0  0  0  0  0
   11.3389  -15.1252   21.3001 C   0  0  0  0  0  0  0  0  0  0  0  0
   11.5545  -14.0551   21.9159 O   0  0  0  0  0  0  0  0  0  0  0  0
    7.2259  -11.3942   25.6560 N   0  0  0  0  0  0  0  0  0  0  0  0
    6.8864  -12.4785   26.5347 C   0  0  0  0  0  0  0  0  0  0  0  0
    6.2657  -12.2032   27.6154 N   0  0  0  0  0  0  0  0  0  0  0  0
    7.2270  -13.8048   26.2149 N   0  0  0  0  0  0  0  0  0  0  0  0
    7.7319  -14.1358   24.9121 C   0  0  0  0  0  0  0  0  0  0  0  0
    8.0290  -15.6094   24.7408 C   0  0  0  0  0  0  0  0  0  0  0  0
    8.6314  -15.8472   23.3769 C   0  0  0  0  0  0  0  0  0  0  0  0
   10.1313  -15.8707   23.3835 C   0  0  2  0  0  0  0  0  0  0  0  0
   10.6736  -16.1386   22.0607 N   0  0  0  0  0  0  0  0  0  0  0  0
   10.6643  -16.8393   24.3498 C   0  0  0  0  0  0  0  0  0  0  0  0
   11.1556  -18.0623   23.9218 O   0  0  0  0  0  0  0  0  0  0  0  0
   10.6747  -16.5581   25.5692 O   0  0  0  0  0  0  0  0  0  0  0  0
  2  1  1  0
  3  2  1  0
  3  4  1  1
  5  3  1  0
  6  5  2  0
  7  8  1  0
  8 10  1  0
  9  8  2  0
 10 11  1  0
 12 11  1  1
 12 13  1  0
 13  5  1  0
 14 15  2  0
 14 12  1  0
 17 16  1  0
 17 19  1  0
 18 17  2  0
 20 19  1  0
 21 22  1  0
 21 20  1  0
 23 22  1  6
 23 24  1  0
 24 14  1  0
 25 23  1  0
 26 25  1  0
 27 25  2  0
M  END
$$$$
