SQR.pdb
     RDKit          3D

 27 26  0  0  1  0  0  0  0  0999 V2000
   13.4634  -19.3074   14.4226 O   0  0  0  0  0  0  0  0  0  0  0  0
   12.2058  -19.4764   13.8175 C   0  0  0  0  0  0  0  0  0  0  0  0
   11.5368  -18.1266   13.7051 C   0  0  2  0  0  0  0  0  0  0  0  0
   12.3426  -17.2271   12.9444 N   0  0  0  0  0  0  0  0  0  0  0  0
   11.2719  -17.6016   15.0916 C   0  0  0  0  0  0  0  0  0  0  0  0
   11.9317  -16.6342   15.5176 O   0  0  0  0  0  0  0  0  0  0  0  0
    7.1478  -19.6000   20.7593 N   0  0  0  0  0  0  0  0  0  0  0  0
    7.0615  -18.7398   19.6345 C   0  0  0  0  0  0  0  0  0  0  0  0
    5.9367  -18.5550   19.1252 O   0  0  0  0  0  0  0  0  0  0  0  0
    8.2582  -18.0994   19.1042 C   0  0  0  0  0  0  0  0  0  0  0  0
    8.7077  -18.5336   17.7533 C   0  0  0  0  0  0  0  0  0  0  0  0
    9.8922  -17.8188   17.2237 C   0  0  2  0  0  0  0  0  0  0  0  0
   10.2846  -18.1946   15.9114 N   0  0  0  0  0  0  0  0  0  0  0  0
   11.0048  -17.7825   18.2264 C   0  0  0  0  0  0  0  0  0  0  0  0
   11.8356  -18.7135   18.3429 O   0  0  0  0  0  0  0  0  0  0  0  0
   16.6811  -12.0745   18.7004 N   0  0  0  0  0  0  0  0  0  0  0  0
   16.0252  -13.1441   18.0012 C   0  0  0  0  0  0  0  0  0  0  0  0
   16.2325  -13.2571   16.7469 N   0  0  0  0  0  0  0  0  0  0  0  0
   15.1796  -14.0413   18.6774 N   0  0  0  0  0  0  0  0  0  0  0  0
   15.5699  -14.6028   19.9400 C   0  0  0  0  0  0  0  0  0  0  0  0
   14.5023  -15.4741   20.5645 C   0  0  0  0  0  0  0  0  0  0  0  0
   13.3254  -15.5816   19.6248 C   0  0  0  0  0  0  0  0  0  0  0  0
   12.3301  -16.6271   20.0330 C   0  0  2  0  0  0  0  0  0  0  0  0
   11.1987  -16.6819   19.1205 N   0  0  0  0  0  0  0  0  0  0  0  0
   11.8560  -16.4311   21.4087 C   0  0  0  0  0  0  0  0  0  0  0  0
   12.7400  -16.4991   22.4738 O   0  0  0  0  0  0  0  0  0  0  0  0
   10.6444  -16.2012   21.6209 O   0  0  0  0  0  0  0  0  0  0  0  0
  2  1  1  0
  3  2  1  0
  3  4  1  1
  5  3  1  0
  6  5  2  0
  7  8  1  0
  8 10  1  0
  9  8  2  0
 10 11  1  0
 12 11  1  1
 12 13  1  0
 13  5  1  0
 14 15  2  0
 14 12  1  0
 17 16  1  0
 17 19  1  0
 18 17  2  0
 20 19  1  0
 21 22  1  0
 21 20  1  0
 23 22  1  6
 23 24  1  0
 24 14  1  0
 25 23  1  0
 26 25  1  0
 27 25  2  0
M  END
$$$$
