SQR.pdb
     RDKit          3D

 27 26  0  0  1  0  0  0  0  0999 V2000
   17.6067  -20.0132   18.3982 O   0  0  0  0  0  0  0  0  0  0  0  0
   17.1306  -20.0071   19.7209 C   0  0  0  0  0  0  0  0  0  0  0  0
   15.7164  -19.4761   19.7243 C   0  0  2  0  0  0  0  0  0  0  0  0
   15.6323  -18.2629   18.9770 N   0  0  0  0  0  0  0  0  0  0  0  0
   15.2758  -19.2835   21.1515 C   0  0  0  0  0  0  0  0  0  0  0  0
   15.1662  -18.1296   21.6092 O   0  0  0  0  0  0  0  0  0  0  0  0
   10.8669  -22.6661   24.0404 N   0  0  0  0  0  0  0  0  0  0  0  0
   11.4427  -21.9069   25.0915 C   0  0  0  0  0  0  0  0  0  0  0  0
   10.8824  -21.9342   26.2068 O   0  0  0  0  0  0  0  0  0  0  0  0
   12.6512  -21.1266   24.8591 C   0  0  0  0  0  0  0  0  0  0  0  0
   13.2135  -21.1567   23.4813 C   0  0  0  0  0  0  0  0  0  0  0  0
   14.4730  -20.3988   23.2982 C   0  0  2  0  0  0  0  0  0  0  0  0
   14.9866  -20.3963   21.9740 N   0  0  0  0  0  0  0  0  0  0  0  0
   15.4748  -20.7346   24.3604 C   0  0  0  0  0  0  0  0  0  0  0  0
   15.9737  -21.8784   24.4767 O   0  0  0  0  0  0  0  0  0  0  0  0
   11.8444  -20.8945   31.7461 N   0  0  0  0  0  0  0  0  0  0  0  0
   12.8484  -21.9185   31.6675 C   0  0  0  0  0  0  0  0  0  0  0  0
   12.6931  -22.9671   32.3785 N   0  0  0  0  0  0  0  0  0  0  0  0
   13.9699  -21.7718   30.8319 N   0  0  0  0  0  0  0  0  0  0  0  0
   13.8511  -21.1227   29.5567 C   0  0  0  0  0  0  0  0  0  0  0  0
   15.1764  -20.9441   28.8490 C   0  0  0  0  0  0  0  0  0  0  0  0
   14.9381  -20.3948   27.4629 C   0  0  0  0  0  0  0  0  0  0  0  0
   16.2027  -20.1362   26.6986 C   0  0  2  0  0  0  0  0  0  0  0  0
   15.9341  -19.7733   25.3160 N   0  0  0  0  0  0  0  0  0  0  0  0
   17.1215  -21.2805   26.7475 C   0  0  0  0  0  0  0  0  0  0  0  0
   18.4847  -21.0822   26.8981 O   0  0  0  0  0  0  0  0  0  0  0  0
   16.6698  -22.4437   26.6523 O   0  0  0  0  0  0  0  0  0  0  0  0
  2  1  1  0
  3  2  1  0
  3  4  1  6
  5  3  1  0
  6  5  2  0
  7  8  1  0
  8 10  1  0
  9  8  2  0
 10 11  1  0
 12 11  1  6
 12 13  1  0
 13  5  1  0
 14 15  2  0
 14 12  1  0
 17 16  1  0
 17 19  1  0
 18 17  2  0
 20 19  1  0
 21 22  1  0
 21 20  1  0
 23 22  1  6
 23 24  1  0
 24 14  1  0
 25 23  1  0
 26 25  1  0
 27 25  2  0
M  END
$$$$
