SQR.pdb
     RDKit          3D

 27 26  0  0  1  0  0  0  0  0999 V2000
   11.6037  -23.0331   33.1600 O   0  0  0  0  0  0  0  0  0  0  0  0
   12.5515  -22.7853   32.1518 C   0  0  0  0  0  0  0  0  0  0  0  0
   13.2408  -24.0840   31.8050 C   0  0  2  0  0  0  0  0  0  0  0  0
   12.4138  -25.1980   32.1400 N   0  0  0  0  0  0  0  0  0  0  0  0
   14.5637  -24.1358   32.5227 C   0  0  0  0  0  0  0  0  0  0  0  0
   15.2206  -25.1947   32.5225 O   0  0  0  0  0  0  0  0  0  0  0  0
   15.2391  -20.1963   31.6354 N   0  0  0  0  0  0  0  0  0  0  0  0
   16.5664  -20.5298   31.2615 C   0  0  0  0  0  0  0  0  0  0  0  0
   16.9232  -20.2824   30.0910 O   0  0  0  0  0  0  0  0  0  0  0  0
   17.4715  -21.1402   32.2266 C   0  0  0  0  0  0  0  0  0  0  0  0
   16.9131  -21.4369   33.5741 C   0  0  0  0  0  0  0  0  0  0  0  0
   16.3616  -22.8016   33.7409 C   0  0  2  0  0  0  0  0  0  0  0  0
   15.0654  -22.9976   33.1946 N   0  0  0  0  0  0  0  0  0  0  0  0
   16.5332  -23.2948   35.1452 C   0  0  0  0  0  0  0  0  0  0  0  0
   17.6457  -23.3076   35.7221 O   0  0  0  0  0  0  0  0  0  0  0  0
   12.5931  -25.6575   41.4737 N   0  0  0  0  0  0  0  0  0  0  0  0
   13.3035  -26.8948   41.6391 C   0  0  0  0  0  0  0  0  0  0  0  0
   13.4655  -27.3400   42.8243 N   0  0  0  0  0  0  0  0  0  0  0  0
   13.8061  -27.5964   40.5289 N   0  0  0  0  0  0  0  0  0  0  0  0
   13.7478  -27.0222   39.2141 C   0  0  0  0  0  0  0  0  0  0  0  0
   14.7354  -25.8947   39.0078 C   0  0  0  0  0  0  0  0  0  0  0  0
   14.6596  -25.4128   37.5790 C   0  0  0  0  0  0  0  0  0  0  0  0
   15.6337  -24.3153   37.2676 C   0  0  2  0  0  0  0  0  0  0  0  0
   15.4393  -23.7841   35.9276 N   0  0  0  0  0  0  0  0  0  0  0  0
   17.0263  -24.7479   37.4386 C   0  0  0  0  0  0  0  0  0  0  0  0
   17.5725  -24.8763   38.7057 O   0  0  0  0  0  0  0  0  0  0  0  0
   17.7253  -25.0024   36.4323 O   0  0  0  0  0  0  0  0  0  0  0  0
  2  1  1  0
  3  2  1  0
  3  4  1  1
  5  3  1  0
  6  5  2  0
  7  8  1  0
  8 10  1  0
  9  8  2  0
 10 11  1  0
 12 11  1  1
 12 13  1  0
 13  5  1  0
 14 15  2  0
 14 12  1  0
 17 16  1  0
 17 19  1  0
 18 17  2  0
 20 19  1  0
 21 22  1  0
 21 20  1  0
 23 22  1  6
 23 24  1  0
 24 14  1  0
 25 23  1  0
 26 25  1  0
 27 25  2  0
M  END
$$$$
