ASS.pdb
     RDKit          3D

 18 17  0  0  1  0  0  0  0  0999 V2000
   19.0839  -11.6469  -17.4192 C   0  0  0  0  0  0  0  0  0  0  0  0
   19.5297  -10.2907  -17.8588 C   0  0  2  0  0  0  0  0  0  0  0  0
   20.6614  -10.3878  -18.7845 N   0  0  0  0  0  0  0  0  0  0  0  0
   19.9722   -9.4888  -16.6837 C   0  0  0  0  0  0  0  0  0  0  0  0
   19.1734   -9.2290  -15.7380 O   0  0  0  0  0  0  0  0  0  0  0  0
   23.9714   -8.4352  -16.1549 O   0  0  0  0  0  0  0  0  0  0  0  0
   23.1338   -8.6861  -15.0701 C   0  0  0  0  0  0  0  0  0  0  0  0
   21.7175   -8.2237  -15.4013 C   0  0  2  0  0  0  0  0  0  0  0  0
   21.2931   -8.9827  -16.5668 N   0  0  0  0  0  0  0  0  0  0  0  0
   21.7799   -6.7668  -15.7115 C   0  0  0  0  0  0  0  0  0  0  0  0
   22.1320   -6.3949  -16.8530 O   0  0  0  0  0  0  0  0  0  0  0  0
   19.2070   -3.9572  -14.3436 O   0  0  0  0  0  0  0  0  0  0  0  0
   20.1346   -3.8492  -15.3495 C   0  0  0  0  0  0  0  0  0  0  0  0
   21.4807   -4.4015  -14.9405 C   0  0  2  0  0  0  0  0  0  0  0  0
   21.4388   -5.8225  -14.7065 N   0  0  0  0  0  0  0  0  0  0  0  0
   22.0414   -3.6861  -13.7731 C   0  0  0  0  0  0  0  0  0  0  0  0
   22.2608   -4.2620  -12.6823 O   0  0  0  0  0  0  0  0  0  0  0  0
   22.3295   -2.3389  -13.8990 O   0  0  0  0  0  0  0  0  0  0  0  0
  2  1  1  1
  2  3  1  0
  4  2  1  0
  4  5  2  0
  6  7  1  0
  8  7  1  6
  8  9  1  0
  9  4  1  0
 10  8  1  0
 11 10  2  0
 12 13  1  0
 14 13  1  1
 14 15  1  0
 14 16  1  0
 15 10  1  0
 16 18  1  0
 17 16  2  0
M  END
$$$$
