ASS.pdb
     RDKit          3D

 18 17  0  0  1  0  0  0  0  0999 V2000
   16.8793   -9.2279  -17.6702 C   0  0  0  0  0  0  0  0  0  0  0  0
   17.8381  -10.2949  -17.2537 C   0  0  2  0  0  0  0  0  0  0  0  0
   17.1429  -11.3759  -16.5501 N   0  0  0  0  0  0  0  0  0  0  0  0
   18.8608   -9.7341  -16.3267 C   0  0  0  0  0  0  0  0  0  0  0  0
   18.5427   -9.3560  -15.1623 O   0  0  0  0  0  0  0  0  0  0  0  0
   23.5385   -8.6429  -15.5878 O   0  0  0  0  0  0  0  0  0  0  0  0
   22.5698   -9.2762  -16.3636 C   0  0  0  0  0  0  0  0  0  0  0  0
   21.1819   -8.9182  -15.8390 C   0  0  2  0  0  0  0  0  0  0  0  0
   20.2241   -9.5975  -16.6970 N   0  0  0  0  0  0  0  0  0  0  0  0
   21.0291   -7.4388  -15.9413 C   0  0  0  0  0  0  0  0  0  0  0  0
   20.7648   -6.9222  -17.0497 O   0  0  0  0  0  0  0  0  0  0  0  0
   19.5408   -3.3815  -14.4898 O   0  0  0  0  0  0  0  0  0  0  0  0
   19.6390   -4.7488  -14.5592 C   0  0  0  0  0  0  0  0  0  0  0  0
   21.0584   -5.2028  -14.8108 C   0  0  2  0  0  0  0  0  0  0  0  0
   21.1858   -6.6375  -14.7787 N   0  0  0  0  0  0  0  0  0  0  0  0
   22.0173   -4.5624  -13.8836 C   0  0  0  0  0  0  0  0  0  0  0  0
   22.5437   -5.1879  -12.9343 O   0  0  0  0  0  0  0  0  0  0  0  0
   22.3368   -3.2306  -14.0788 O   0  0  0  0  0  0  0  0  0  0  0  0
  2  1  1  1
  2  3  1  0
  4  2  1  0
  4  5  2  0
  6  7  1  0
  8  7  1  6
  8  9  1  0
  9  4  1  0
 10  8  1  0
 11 10  2  0
 12 13  1  0
 14 13  1  1
 14 15  1  0
 14 16  1  0
 15 10  1  0
 16 18  1  0
 17 16  2  0
M  END
$$$$
