ASS.pdb
     RDKit          3D

 18 17  0  0  1  0  0  0  0  0999 V2000
   17.5240  -10.8403  -17.5130 C   0  0  0  0  0  0  0  0  0  0  0  0
   18.1099   -9.5285  -17.9217 C   0  0  2  0  0  0  0  0  0  0  0  0
   19.0259   -9.6957  -19.0531 N   0  0  0  0  0  0  0  0  0  0  0  0
   18.8842   -8.9374  -16.7945 C   0  0  0  0  0  0  0  0  0  0  0  0
   18.3332   -8.7079  -15.6793 O   0  0  0  0  0  0  0  0  0  0  0  0
   22.5937   -9.7976  -15.4776 O   0  0  0  0  0  0  0  0  0  0  0  0
   22.4529   -8.5006  -15.9671 C   0  0  0  0  0  0  0  0  0  0  0  0
   21.0060   -8.0456  -15.7975 C   0  0  2  0  0  0  0  0  0  0  0  0
   20.2593   -8.6063  -16.9124 N   0  0  0  0  0  0  0  0  0  0  0  0
   20.9932   -6.5556  -15.8469 C   0  0  0  0  0  0  0  0  0  0  0  0
   20.5070   -5.9768  -16.8438 O   0  0  0  0  0  0  0  0  0  0  0  0
   19.8748   -2.5552  -14.6119 O   0  0  0  0  0  0  0  0  0  0  0  0
   19.9815   -3.9179  -14.7359 C   0  0  0  0  0  0  0  0  0  0  0  0
   21.4187   -4.3816  -14.6761 C   0  0  2  0  0  0  0  0  0  0  0  0
   21.5332   -5.8152  -14.7614 N   0  0  0  0  0  0  0  0  0  0  0  0
   22.1190   -3.8620  -13.4807 C   0  0  0  0  0  0  0  0  0  0  0  0
   22.3560   -4.5817  -12.4831 O   0  0  0  0  0  0  0  0  0  0  0  0
   22.5210   -2.5383  -13.4733 O   0  0  0  0  0  0  0  0  0  0  0  0
  2  1  1  1
  2  3  1  0
  4  2  1  0
  4  5  2  0
  6  7  1  0
  8  7  1  6
  8  9  1  0
  9  4  1  0
 10  8  1  0
 11 10  2  0
 12 13  1  0
 14 13  1  1
 14 15  1  0
 14 16  1  0
 15 10  1  0
 16 18  1  0
 17 16  2  0
M  END
$$$$
