ASS.pdb
     RDKit          3D

 18 17  0  0  1  0  0  0  0  0999 V2000
   16.5896   -9.3032  -17.1943 C   0  0  0  0  0  0  0  0  0  0  0  0
   17.6239  -10.3024  -16.7901 C   0  0  2  0  0  0  0  0  0  0  0  0
   17.0017  -11.4791  -16.1775 N   0  0  0  0  0  0  0  0  0  0  0  0
   18.5513   -9.7060  -15.7883 C   0  0  0  0  0  0  0  0  0  0  0  0
   18.1125   -9.2264  -14.7032 O   0  0  0  0  0  0  0  0  0  0  0  0
   22.5555   -9.2928  -16.6899 O   0  0  0  0  0  0  0  0  0  0  0  0
   22.2443   -9.4459  -15.3404 C   0  0  0  0  0  0  0  0  0  0  0  0
   20.8303   -8.9328  -15.0815 C   0  0  2  0  0  0  0  0  0  0  0  0
   19.9540   -9.6464  -15.9968 N   0  0  0  0  0  0  0  0  0  0  0  0
   20.8213   -7.4704  -15.3708 C   0  0  0  0  0  0  0  0  0  0  0  0
   20.3042   -7.0559  -16.4320 O   0  0  0  0  0  0  0  0  0  0  0  0
   19.6038   -4.6732  -16.1559 O   0  0  0  0  0  0  0  0  0  0  0  0
   19.9994   -4.5990  -14.8438 C   0  0  0  0  0  0  0  0  0  0  0  0
   21.3949   -5.1430  -14.6411 C   0  0  2  0  0  0  0  0  0  0  0  0
   21.3999   -6.5692  -14.4374 N   0  0  0  0  0  0  0  0  0  0  0  0
   22.1073   -4.4466  -13.5471 C   0  0  0  0  0  0  0  0  0  0  0  0
   22.4256   -5.0284  -12.4842 O   0  0  0  0  0  0  0  0  0  0  0  0
   22.4280   -3.1110  -13.7119 O   0  0  0  0  0  0  0  0  0  0  0  0
  2  1  1  1
  2  3  1  0
  4  2  1  0
  4  5  2  0
  6  7  1  0
  8  7  1  6
  8  9  1  0
  9  4  1  0
 10  8  1  0
 11 10  2  0
 12 13  1  0
 14 13  1  1
 14 15  1  0
 14 16  1  0
 15 10  1  0
 16 18  1  0
 17 16  2  0
M  END
$$$$
