ASS.pdb
     RDKit          3D

 18 17  0  0  1  0  0  0  0  0999 V2000
   19.3525  -12.3009  -16.3902 C   0  0  0  0  0  0  0  0  0  0  0  0
   19.2795  -10.8578  -16.7688 C   0  0  2  0  0  0  0  0  0  0  0  0
   19.8782  -10.6330  -18.0871 N   0  0  0  0  0  0  0  0  0  0  0  0
   20.0283  -10.0289  -15.7830 C   0  0  0  0  0  0  0  0  0  0  0  0
   19.7033  -10.0236  -14.5605 O   0  0  0  0  0  0  0  0  0  0  0  0
   23.5455   -8.1161  -16.8238 O   0  0  0  0  0  0  0  0  0  0  0  0
   23.3140   -8.5001  -15.5046 C   0  0  0  0  0  0  0  0  0  0  0  0
   21.8248   -8.3812  -15.1924 C   0  0  2  0  0  0  0  0  0  0  0  0
   21.1284   -9.2149  -16.1592 N   0  0  0  0  0  0  0  0  0  0  0  0
   21.4430   -6.9492  -15.3549 C   0  0  0  0  0  0  0  0  0  0  0  0
   21.2577   -6.4879  -16.5030 O   0  0  0  0  0  0  0  0  0  0  0  0
   19.3141   -3.0947  -13.7016 O   0  0  0  0  0  0  0  0  0  0  0  0
   19.5895   -4.4393  -13.7135 C   0  0  0  0  0  0  0  0  0  0  0  0
   20.9541   -4.7330  -14.2931 C   0  0  2  0  0  0  0  0  0  0  0  0
   21.2953   -6.1299  -14.2038 N   0  0  0  0  0  0  0  0  0  0  0  0
   22.0068   -3.8882  -13.6870 C   0  0  0  0  0  0  0  0  0  0  0  0
   22.1083   -2.6659  -13.9427 O   0  0  0  0  0  0  0  0  0  0  0  0
   22.9029   -4.4749  -12.8115 O   0  0  0  0  0  0  0  0  0  0  0  0
  2  1  1  1
  2  3  1  0
  4  2  1  0
  4  5  2  0
  6  7  1  0
  8  7  1  6
  8  9  1  0
  9  4  1  0
 10  8  1  0
 11 10  2  0
 12 13  1  0
 14 13  1  1
 14 15  1  0
 14 16  1  0
 15 10  1  0
 16 18  1  0
 17 16  2  0
M  END
$$$$
