ASS.pdb
     RDKit          3D

 18 17  0  0  1  0  0  0  0  0999 V2000
   17.4002  -11.4076  -18.0929 C   0  0  0  0  0  0  0  0  0  0  0  0
   18.8728  -11.1730  -18.1808 C   0  0  2  0  0  0  0  0  0  0  0  0
   19.5959  -12.4399  -18.3190 N   0  0  0  0  0  0  0  0  0  0  0  0
   19.3619  -10.5041  -16.9426 C   0  0  0  0  0  0  0  0  0  0  0  0
   18.6315  -10.4326  -15.9124 O   0  0  0  0  0  0  0  0  0  0  0  0
   22.9658   -9.3032  -14.1371 O   0  0  0  0  0  0  0  0  0  0  0  0
   22.4667   -9.8882  -15.2991 C   0  0  0  0  0  0  0  0  0  0  0  0
   21.1149   -9.2683  -15.6423 C   0  0  2  0  0  0  0  0  0  0  0  0
   20.6532   -9.9213  -16.8568 N   0  0  0  0  0  0  0  0  0  0  0  0
   21.3325   -7.8116  -15.8736 C   0  0  0  0  0  0  0  0  0  0  0  0
   21.9245   -7.4344  -16.9092 O   0  0  0  0  0  0  0  0  0  0  0  0
   19.1922   -4.7896  -13.7578 O   0  0  0  0  0  0  0  0  0  0  0  0
   19.8077   -4.6629  -14.9780 C   0  0  0  0  0  0  0  0  0  0  0  0
   21.0914   -5.4574  -15.0503 C   0  0  2  0  0  0  0  0  0  0  0  0
   20.8645   -6.8736  -14.9147 N   0  0  0  0  0  0  0  0  0  0  0  0
   22.0926   -4.9825  -14.0699 C   0  0  0  0  0  0  0  0  0  0  0  0
   22.5284   -3.8079  -14.0798 O   0  0  0  0  0  0  0  0  0  0  0  0
   22.5565   -5.8703  -13.1157 O   0  0  0  0  0  0  0  0  0  0  0  0
  2  1  1  1
  2  3  1  0
  4  2  1  0
  4  5  2  0
  6  7  1  0
  8  7  1  6
  8  9  1  0
  9  4  1  0
 10  8  1  0
 11 10  2  0
 12 13  1  0
 14 13  1  1
 14 15  1  0
 14 16  1  0
 15 10  1  0
 16 18  1  0
 17 16  2  0
M  END
$$$$
