ASS.pdb
     RDKit          3D

 18 17  0  0  1  0  0  0  0  0999 V2000
   17.4059  -11.5361  -16.7158 C   0  0  0  0  0  0  0  0  0  0  0  0
   18.3691  -10.5331  -17.2612 C   0  0  2  0  0  0  0  0  0  0  0  0
   19.5309  -11.1964  -17.8590 N   0  0  0  0  0  0  0  0  0  0  0  0
   18.8637   -9.6483  -16.1694 C   0  0  0  0  0  0  0  0  0  0  0  0
   18.0627   -8.9324  -15.5018 O   0  0  0  0  0  0  0  0  0  0  0  0
   22.9574   -9.4047  -15.1106 O   0  0  0  0  0  0  0  0  0  0  0  0
   21.9409   -9.3875  -14.1577 C   0  0  0  0  0  0  0  0  0  0  0  0
   20.7035   -8.7132  -14.7439 C   0  0  2  0  0  0  0  0  0  0  0  0
   20.2387   -9.5647  -15.8273 N   0  0  0  0  0  0  0  0  0  0  0  0
   21.1196   -7.3780  -15.2603 C   0  0  0  0  0  0  0  0  0  0  0  0
   21.2846   -7.2176  -16.4901 O   0  0  0  0  0  0  0  0  0  0  0  0
   20.6888   -3.1581  -16.1037 O   0  0  0  0  0  0  0  0  0  0  0  0
   20.4565   -4.4444  -15.6851 C   0  0  0  0  0  0  0  0  0  0  0  0
   21.5606   -4.9568  -14.7892 C   0  0  2  0  0  0  0  0  0  0  0  0
   21.3225   -6.3077  -14.3485 N   0  0  0  0  0  0  0  0  0  0  0  0
   21.8038   -4.0571  -13.6400 C   0  0  0  0  0  0  0  0  0  0  0  0
   21.4686   -4.3636  -12.4724 O   0  0  0  0  0  0  0  0  0  0  0  0
   22.4215   -2.8411  -13.8715 O   0  0  0  0  0  0  0  0  0  0  0  0
  2  1  1  1
  2  3  1  0
  4  2  1  0
  4  5  2  0
  6  7  1  0
  8  7  1  6
  8  9  1  0
  9  4  1  0
 10  8  1  0
 11 10  2  0
 12 13  1  0
 14 13  1  1
 14 15  1  0
 14 16  1  0
 15 10  1  0
 16 18  1  0
 17 16  2  0
M  END
$$$$
