ASS.pdb
     RDKit          3D

 18 17  0  0  1  0  0  0  0  0999 V2000
   17.4422  -12.5354  -15.1163 C   0  0  0  0  0  0  0  0  0  0  0  0
   16.5675  -11.3310  -14.9916 C   0  0  2  0  0  0  0  0  0  0  0  0
   15.3862  -11.4525  -15.8500 N   0  0  0  0  0  0  0  0  0  0  0  0
   17.3104  -10.1100  -15.4121 C   0  0  0  0  0  0  0  0  0  0  0  0
   17.8471  -10.0390  -16.5552 O   0  0  0  0  0  0  0  0  0  0  0  0
   16.5150   -6.6401  -13.6428 O   0  0  0  0  0  0  0  0  0  0  0  0
   17.0729   -6.6467  -14.9196 C   0  0  0  0  0  0  0  0  0  0  0  0
   18.1074   -7.7645  -15.0186 C   0  0  2  0  0  0  0  0  0  0  0  0
   17.4518   -8.9806  -14.5643 N   0  0  0  0  0  0  0  0  0  0  0  0
   19.2436   -7.4081  -14.1215 C   0  0  0  0  0  0  0  0  0  0  0  0
   19.2117   -7.7553  -12.9200 O   0  0  0  0  0  0  0  0  0  0  0  0
   23.0418   -6.4666  -15.6421 O   0  0  0  0  0  0  0  0  0  0  0  0
   22.7711   -6.8974  -14.3674 C   0  0  0  0  0  0  0  0  0  0  0  0
   21.4811   -6.3172  -13.8352 C   0  0  2  0  0  0  0  0  0  0  0  0
   20.3455   -6.6796  -14.6443 N   0  0  0  0  0  0  0  0  0  0  0  0
   21.5639   -4.8503  -13.6608 C   0  0  0  0  0  0  0  0  0  0  0  0
   20.9061   -4.0573  -14.3736 O   0  0  0  0  0  0  0  0  0  0  0  0
   22.3966   -4.3473  -12.6771 O   0  0  0  0  0  0  0  0  0  0  0  0
  2  1  1  6
  2  3  1  0
  4  2  1  0
  4  5  2  0
  6  7  1  0
  8  7  1  1
  8  9  1  0
  9  4  1  0
 10  8  1  0
 11 10  2  0
 12 13  1  0
 14 13  1  6
 14 15  1  0
 14 16  1  0
 15 10  1  0
 16 18  1  0
 17 16  2  0
M  END
$$$$
