ASS.pdb
     RDKit          3D

 18 17  0  0  1  0  0  0  0  0999 V2000
   12.1697  -13.3994  -10.8535 C   0  0  0  0  0  0  0  0  0  0  0  0
   12.2796  -11.9829  -11.3149 C   0  0  2  0  0  0  0  0  0  0  0  0
   12.3242  -11.9125  -12.7778 N   0  0  0  0  0  0  0  0  0  0  0  0
   13.5319  -11.3675  -10.7927 C   0  0  0  0  0  0  0  0  0  0  0  0
   13.7252  -11.2469   -9.5484 O   0  0  0  0  0  0  0  0  0  0  0  0
   16.0682   -9.3960  -13.3646 O   0  0  0  0  0  0  0  0  0  0  0  0
   16.6930  -10.0308  -12.2931 C   0  0  0  0  0  0  0  0  0  0  0  0
   15.7074  -10.1674  -11.1358 C   0  0  2  0  0  0  0  0  0  0  0  0
   14.5569  -10.8920  -11.6515 N   0  0  0  0  0  0  0  0  0  0  0  0
   15.3200   -8.7925  -10.7089 C   0  0  0  0  0  0  0  0  0  0  0  0
   14.4763   -8.1550  -11.3774 O   0  0  0  0  0  0  0  0  0  0  0  0
   15.2996   -5.6575   -7.0171 O   0  0  0  0  0  0  0  0  0  0  0  0
   15.5948   -6.9037   -7.5108 C   0  0  0  0  0  0  0  0  0  0  0  0
   15.5037   -6.9519   -9.0187 C   0  0  2  0  0  0  0  0  0  0  0  0
   15.9146   -8.2267   -9.5493 N   0  0  0  0  0  0  0  0  0  0  0  0
   16.2515   -5.8447   -9.6544 C   0  0  0  0  0  0  0  0  0  0  0  0
   17.3817   -6.0137  -10.1678 O   0  0  0  0  0  0  0  0  0  0  0  0
   15.6768   -4.5865   -9.6781 O   0  0  0  0  0  0  0  0  0  0  0  0
  2  1  1  6
  2  3  1  0
  4  2  1  0
  4  5  2  0
  6  7  1  0
  8  7  1  6
  8  9  1  0
  9  4  1  0
 10  8  1  0
 11 10  2  0
 12 13  1  0
 14 13  1  1
 14 15  1  0
 14 16  1  0
 15 10  1  0
 16 18  1  0
 17 16  2  0
M  END
$$$$
