ASS.pdb
     RDKit          3D

 18 17  0  0  1  0  0  0  0  0999 V2000
   15.8889   -7.2609   -7.6387 C   0  0  0  0  0  0  0  0  0  0  0  0
   14.9466   -7.2262   -8.7972 C   0  0  2  0  0  0  0  0  0  0  0  0
   13.6836   -7.8896   -8.4629 N   0  0  0  0  0  0  0  0  0  0  0  0
   15.5389   -7.9392   -9.9635 C   0  0  0  0  0  0  0  0  0  0  0  0
   15.0265   -9.0117  -10.3964 O   0  0  0  0  0  0  0  0  0  0  0  0
   16.4460   -7.9726  -14.2167 O   0  0  0  0  0  0  0  0  0  0  0  0
   16.0925   -7.5043  -12.9530 C   0  0  0  0  0  0  0  0  0  0  0  0
   17.1030   -8.0022  -11.9233 C   0  0  2  0  0  0  0  0  0  0  0  0
   16.6912   -7.4590  -10.6387 N   0  0  0  0  0  0  0  0  0  0  0  0
   18.4423   -7.4779  -12.3157 C   0  0  0  0  0  0  0  0  0  0  0  0
   18.7264   -6.2813  -12.0864 O   0  0  0  0  0  0  0  0  0  0  0  0
   20.8769   -9.7271  -14.8828 O   0  0  0  0  0  0  0  0  0  0  0  0
   21.5283   -9.0296  -13.8965 C   0  0  0  0  0  0  0  0  0  0  0  0
   20.6853   -7.9007  -13.3495 C   0  0  2  0  0  0  0  0  0  0  0  0
   19.3760   -8.3448  -12.9442 N   0  0  0  0  0  0  0  0  0  0  0  0
   20.5935   -6.7684  -14.2975 C   0  0  0  0  0  0  0  0  0  0  0  0
   19.5277   -6.4817  -14.8903 O   0  0  0  0  0  0  0  0  0  0  0  0
   21.7253   -6.0078  -14.5306 O   0  0  0  0  0  0  0  0  0  0  0  0
  2  1  1  1
  2  3  1  0
  4  2  1  0
  4  5  2  0
  6  7  1  0
  8  7  1  6
  8  9  1  0
  9  4  1  0
 10  8  1  0
 11 10  2  0
 12 13  1  0
 14 13  1  6
 14 15  1  0
 14 16  1  0
 15 10  1  0
 16 18  1  0
 17 16  2  0
M  END
$$$$
