ASS.pdb
     RDKit          3D

 18 17  0  0  1  0  0  0  0  0999 V2000
   19.5824  -10.8368  -15.8304 C   0  0  0  0  0  0  0  0  0  0  0  0
   19.1660   -9.4104  -15.6776 C   0  0  2  0  0  0  0  0  0  0  0  0
   20.1508   -8.5112  -16.2848 N   0  0  0  0  0  0  0  0  0  0  0  0
   19.0589   -9.0577  -14.2341 C   0  0  0  0  0  0  0  0  0  0  0  0
   18.2688   -9.6841  -13.4703 O   0  0  0  0  0  0  0  0  0  0  0  0
   20.9384   -5.6897  -12.6193 O   0  0  0  0  0  0  0  0  0  0  0  0
   20.9840   -6.8788  -11.8946 C   0  0  0  0  0  0  0  0  0  0  0  0
   19.7589   -7.7262  -12.2270 C   0  0  2  0  0  0  0  0  0  0  0  0
   19.8264   -8.0161  -13.6504 N   0  0  0  0  0  0  0  0  0  0  0  0
   18.5495   -6.9148  -11.9081 C   0  0  0  0  0  0  0  0  0  0  0  0
   18.1483   -6.0592  -12.7280 O   0  0  0  0  0  0  0  0  0  0  0  0
   15.4937   -8.1437   -9.4565 O   0  0  0  0  0  0  0  0  0  0  0  0
   15.4592   -7.0246  -10.2504 C   0  0  0  0  0  0  0  0  0  0  0  0
   16.7790   -6.2883  -10.2494 C   0  0  2  0  0  0  0  0  0  0  0  0
   17.8706   -7.1252  -10.6780 N   0  0  0  0  0  0  0  0  0  0  0  0
   17.0667   -5.6689   -8.9369 C   0  0  0  0  0  0  0  0  0  0  0  0
   18.1055   -5.9350   -8.2890 O   0  0  0  0  0  0  0  0  0  0  0  0
   16.1544   -4.7687   -8.4163 O   0  0  0  0  0  0  0  0  0  0  0  0
  2  1  1  1
  2  3  1  0
  4  2  1  0
  4  5  2  0
  6  7  1  0
  8  7  1  6
  8  9  1  0
  9  4  1  0
 10  8  1  0
 11 10  2  0
 12 13  1  0
 14 13  1  1
 14 15  1  0
 14 16  1  0
 15 10  1  0
 16 18  1  0
 17 16  2  0
M  END
$$$$
