ASS.pdb
     RDKit          3D

 18 17  0  0  1  0  0  0  0  0999 V2000
   17.9150  -10.5043  -18.3713 C   0  0  0  0  0  0  0  0  0  0  0  0
   18.6966  -11.4426  -17.5110 C   0  0  2  0  0  0  0  0  0  0  0  0
   17.8032  -12.3191  -16.7489 N   0  0  0  0  0  0  0  0  0  0  0  0
   19.5233  -10.6783  -16.5354 C   0  0  0  0  0  0  0  0  0  0  0  0
   18.9916  -10.1174  -15.5340 O   0  0  0  0  0  0  0  0  0  0  0  0
   23.9768   -9.5375  -15.0003 O   0  0  0  0  0  0  0  0  0  0  0  0
   23.1762  -10.1577  -15.9573 C   0  0  0  0  0  0  0  0  0  0  0  0
   21.7180   -9.7663  -15.7338 C   0  0  2  0  0  0  0  0  0  0  0  0
   20.9289  -10.5423  -16.6772 N   0  0  0  0  0  0  0  0  0  0  0  0
   21.5949   -8.3072  -16.0141 C   0  0  0  0  0  0  0  0  0  0  0  0
   21.4828   -7.9147  -17.1967 O   0  0  0  0  0  0  0  0  0  0  0  0
   19.9068   -4.1961  -15.5245 O   0  0  0  0  0  0  0  0  0  0  0  0
   20.0331   -5.5519  -15.3521 C   0  0  0  0  0  0  0  0  0  0  0  0
   21.4708   -5.9640  -15.1350 C   0  0  2  0  0  0  0  0  0  0  0  0
   21.6066   -7.3842  -14.9342 N   0  0  0  0  0  0  0  0  0  0  0  0
   22.1033   -5.2076  -14.0318 C   0  0  0  0  0  0  0  0  0  0  0  0
   22.4107   -5.7489  -12.9446 O   0  0  0  0  0  0  0  0  0  0  0  0
   22.3596   -3.8606  -14.2155 O   0  0  0  0  0  0  0  0  0  0  0  0
  2  1  1  1
  2  3  1  0
  4  2  1  0
  4  5  2  0
  6  7  1  0
  8  7  1  6
  8  9  1  0
  9  4  1  0
 10  8  1  0
 11 10  2  0
 12 13  1  0
 14 13  1  1
 14 15  1  0
 14 16  1  0
 15 10  1  0
 16 18  1  0
 17 16  2  0
M  END
$$$$
