ASS.pdb
     RDKit          3D

 18 17  0  0  1  0  0  0  0  0999 V2000
   16.4541  -12.0058  -20.7111 C   0  0  0  0  0  0  0  0  0  0  0  0
   17.8672  -12.0033  -20.2269 C   0  0  2  0  0  0  0  0  0  0  0  0
   18.3339  -13.3686  -19.9717 N   0  0  0  0  0  0  0  0  0  0  0  0
   17.9723  -11.2418  -18.9508 C   0  0  0  0  0  0  0  0  0  0  0  0
   17.2492  -11.5394  -17.9566 O   0  0  0  0  0  0  0  0  0  0  0  0
   21.2230   -8.9609  -18.2836 O   0  0  0  0  0  0  0  0  0  0  0  0
   20.5184   -9.4678  -17.1937 C   0  0  0  0  0  0  0  0  0  0  0  0
   19.0256   -9.4783  -17.5114 C   0  0  2  0  0  0  0  0  0  0  0  0
   18.8759  -10.1595  -18.7875 N   0  0  0  0  0  0  0  0  0  0  0  0
   18.5760   -8.0603  -17.6115 C   0  0  0  0  0  0  0  0  0  0  0  0
   18.6306   -7.4736  -18.7152 O   0  0  0  0  0  0  0  0  0  0  0  0
   16.6767   -6.5577  -14.3528 O   0  0  0  0  0  0  0  0  0  0  0  0
   16.5329   -5.7785  -15.4734 C   0  0  0  0  0  0  0  0  0  0  0  0
   17.6264   -6.0336  -16.4851 C   0  0  2  0  0  0  0  0  0  0  0  0
   18.0923   -7.3965  -16.4524 N   0  0  0  0  0  0  0  0  0  0  0  0
   18.7506   -5.0832  -16.3370 C   0  0  0  0  0  0  0  0  0  0  0  0
   19.9181   -5.4664  -16.0925 O   0  0  0  0  0  0  0  0  0  0  0  0
   18.4953   -3.7305  -16.4745 O   0  0  0  0  0  0  0  0  0  0  0  0
  2  1  1  1
  2  3  1  0
  4  2  1  0
  4  5  2  0
  6  7  1  0
  8  7  1  6
  8  9  1  0
  9  4  1  0
 10  8  1  0
 11 10  2  0
 12 13  1  0
 14 13  1  1
 14 15  1  0
 14 16  1  0
 15 10  1  0
 16 18  1  0
 17 16  2  0
M  END
$$$$
