EWL.pdb
     RDKit          3D

 32 33  0  0  1  0  0  0  0  0999 V2000
   10.6663  -17.2173   19.1551 N   0  0  0  0  0  0  0  0  0  0  0  0
   11.5528  -17.3547   20.2898 C   0  0  1  0  0  0  0  0  0  0  0  0
   12.8900  -16.8142   19.9419 C   0  0  0  0  0  0  0  0  0  0  0  0
   13.9697  -17.8402   19.8053 C   0  0  0  0  0  0  0  0  0  0  0  0
   15.3025  -17.3414   19.5084 C   0  0  0  0  0  0  0  0  0  0  0  0
   15.6369  -16.9679   18.3624 O   0  0  0  0  0  0  0  0  0  0  0  0
   10.9372  -16.6042   21.4431 C   0  0  0  0  0  0  0  0  0  0  0  0
   11.3520  -15.4512   21.7392 O   0  0  0  0  0  0  0  0  0  0  0  0
   16.3029  -17.2475   20.4969 O   0  0  0  0  0  0  0  0  0  0  0  0
    9.8929  -17.1590   22.2108 N   0  0  0  0  0  0  0  0  0  0  0  0
    9.2097  -16.5524   23.2863 C   0  0  1  0  0  0  0  0  0  0  0  0
    7.7433  -16.4261   23.2299 C   0  0  0  0  0  0  0  0  0  0  0  0
    7.1210  -15.6762   24.3440 C   0  0  0  0  0  0  0  0  0  0  0  0
    6.3279  -16.1827   25.3667 C   0  0  0  0  0  0  0  0  0  0  0  0
    5.9798  -15.1803   26.1946 N   0  0  0  0  0  0  0  0  0  0  0  0
    6.5186  -14.0376   25.7461 C   0  0  0  0  0  0  0  0  0  0  0  0
    6.4596  -12.7427   26.2237 C   0  0  0  0  0  0  0  0  0  0  0  0
    7.1315  -11.7480   25.5190 C   0  0  0  0  0  0  0  0  0  0  0  0
    7.8388  -12.0370   24.3749 C   0  0  0  0  0  0  0  0  0  0  0  0
    7.8766  -13.3259   23.9311 C   0  0  0  0  0  0  0  0  0  0  0  0
    7.2210  -14.3344   24.6090 C   0  0  0  0  0  0  0  0  0  0  0  0
    9.6606  -17.0442   24.6462 C   0  0  0  0  0  0  0  0  0  0  0  0
   10.0004  -18.2597   24.8265 O   0  0  0  0  0  0  0  0  0  0  0  0
    9.3186  -13.3838   28.8054 C   0  0  0  0  0  0  0  0  0  0  0  0
    9.8803  -14.2448   27.6328 C   0  0  1  0  0  0  0  0  0  0  0  0
   11.2729  -13.6395   27.4056 C   0  0  0  0  0  0  0  0  0  0  0  0
    9.9514  -15.6555   28.0562 C   0  0  0  0  0  0  0  0  0  0  0  0
   10.3295  -16.6937   27.0699 C   0  0  2  0  0  0  0  0  0  0  0  0
    9.7360  -16.2195   25.7742 N   0  0  0  0  0  0  0  0  0  0  0  0
    9.9379  -18.0692   27.2577 C   0  0  0  0  0  0  0  0  0  0  0  0
   10.7037  -18.8694   27.9023 O   0  0  0  0  0  0  0  0  0  0  0  0
    8.7671  -18.6107   26.7934 O   0  0  0  0  0  0  0  0  0  0  0  0
  2  3  1  0
  2  1  1  6
  3  4  1  0
  4  5  1  0
  5  9  1  0
  6  5  2  0
  7  2  1  0
  8  7  2  0
 10  7  1  0
 11 10  1  0
 12 13  1  0
 11 12  1  6
 13 14  2  0
 14 15  1  0
 16 17  2  0
 16 15  1  0
 18 17  1  0
 19 18  2  0
 20 19  1  0
 20 21  2  0
 21 13  1  0
 21 16  1  0
 22 29  1  0
 22 11  1  0
 23 22  2  0
 25 24  1  1
 25 27  1  0
 26 25  1  0
 28 27  1  1
 28 29  1  0
 28 30  1  0
 30 32  1  0
 31 30  2  0
M  END
$$$$
