EWL.pdb
     RDKit          3D

 32 33  0  0  1  0  0  0  0  0999 V2000
    8.5308  -15.7583   18.8662 N   0  0  0  0  0  0  0  0  0  0  0  0
    9.2812  -16.7272   19.6347 C   0  0  1  0  0  0  0  0  0  0  0  0
   10.6077  -16.9389   19.0045 C   0  0  0  0  0  0  0  0  0  0  0  0
   11.4656  -17.9679   19.6695 C   0  0  0  0  0  0  0  0  0  0  0  0
   12.7809  -18.1862   19.0902 C   0  0  0  0  0  0  0  0  0  0  0  0
   13.8104  -17.6389   19.5431 O   0  0  0  0  0  0  0  0  0  0  0  0
    9.4157  -16.1915   21.0373 C   0  0  0  0  0  0  0  0  0  0  0  0
    9.9633  -15.0736   21.2361 O   0  0  0  0  0  0  0  0  0  0  0  0
   12.9774  -19.0308   17.9790 O   0  0  0  0  0  0  0  0  0  0  0  0
    8.9374  -16.9117   22.1509 N   0  0  0  0  0  0  0  0  0  0  0  0
    9.0203  -16.5369   23.5088 C   0  0  1  0  0  0  0  0  0  0  0  0
    7.9833  -16.9962   24.4484 C   0  0  0  0  0  0  0  0  0  0  0  0
    7.0571  -15.9523   24.9416 C   0  0  0  0  0  0  0  0  0  0  0  0
    5.7950  -16.1329   25.4949 C   0  0  0  0  0  0  0  0  0  0  0  0
    5.2875  -14.9351   25.8399 N   0  0  0  0  0  0  0  0  0  0  0  0
    6.1753  -13.9797   25.5297 C   0  0  0  0  0  0  0  0  0  0  0  0
    6.1370  -12.6063   25.6726 C   0  0  0  0  0  0  0  0  0  0  0  0
    7.2338  -11.8667   25.2396 C   0  0  0  0  0  0  0  0  0  0  0  0
    8.3327  -12.4787   24.6820 C   0  0  0  0  0  0  0  0  0  0  0  0
    8.3378  -13.8365   24.5559 C   0  0  0  0  0  0  0  0  0  0  0  0
    7.2652  -14.5973   24.9768 C   0  0  0  0  0  0  0  0  0  0  0  0
   10.4040  -16.7064   24.1016 C   0  0  0  0  0  0  0  0  0  0  0  0
   11.0183  -17.8213   24.0294 O   0  0  0  0  0  0  0  0  0  0  0  0
   11.4852  -13.7275   28.7701 C   0  0  0  0  0  0  0  0  0  0  0  0
   10.2556  -14.5252   28.2379 C   0  0  1  0  0  0  0  0  0  0  0  0
    9.0751  -13.6199   28.6175 C   0  0  0  0  0  0  0  0  0  0  0  0
   10.3791  -14.6919   26.7779 C   0  0  0  0  0  0  0  0  0  0  0  0
   11.3287  -15.6915   26.2369 C   0  0  2  0  0  0  0  0  0  0  0  0
   11.0908  -15.6765   24.7539 N   0  0  0  0  0  0  0  0  0  0  0  0
   11.2866  -17.0646   26.6768 C   0  0  0  0  0  0  0  0  0  0  0  0
   10.2654  -17.7907   26.4083 O   0  0  0  0  0  0  0  0  0  0  0  0
   12.2890  -17.6835   27.3781 O   0  0  0  0  0  0  0  0  0  0  0  0
  2  3  1  0
  2  1  1  6
  3  4  1  0
  4  5  1  0
  5  9  1  0
  6  5  2  0
  7  2  1  0
  8  7  2  0
 10  7  1  0
 11 10  1  0
 12 13  1  0
 11 12  1  1
 13 14  2  0
 14 15  1  0
 16 17  2  0
 16 15  1  0
 18 17  1  0
 19 18  2  0
 20 19  1  0
 20 21  2  0
 21 13  1  0
 21 16  1  0
 22 29  1  0
 22 11  1  0
 23 22  2  0
 25 24  1  6
 25 27  1  0
 26 25  1  0
 28 27  1  1
 28 29  1  0
 28 30  1  0
 30 32  1  0
 31 30  2  0
M  END
$$$$
