EWL.pdb
     RDKit          3D

 32 33  0  0  1  0  0  0  0  0999 V2000
    9.9783  -19.6169   21.0783 N   0  0  0  0  0  0  0  0  0  0  0  0
   11.2299  -18.9287   21.3069 C   0  0  1  0  0  0  0  0  0  0  0  0
   11.9469  -18.7637   20.0185 C   0  0  0  0  0  0  0  0  0  0  0  0
   11.1008  -18.2850   18.8819 C   0  0  0  0  0  0  0  0  0  0  0  0
   11.7500  -18.1971   17.5841 C   0  0  0  0  0  0  0  0  0  0  0  0
   11.1754  -17.7223   16.5797 O   0  0  0  0  0  0  0  0  0  0  0  0
   10.9097  -17.5962   21.9348 C   0  0  0  0  0  0  0  0  0  0  0  0
   11.8388  -16.7935   22.2205 O   0  0  0  0  0  0  0  0  0  0  0  0
   13.0710  -18.6431   17.3775 O   0  0  0  0  0  0  0  0  0  0  0  0
    9.5821  -17.2122   22.2136 N   0  0  0  0  0  0  0  0  0  0  0  0
    9.1511  -16.0193   22.8322 C   0  0  1  0  0  0  0  0  0  0  0  0
    7.7117  -15.7111   22.8804 C   0  0  0  0  0  0  0  0  0  0  0  0
    7.1679  -15.3959   24.2204 C   0  0  0  0  0  0  0  0  0  0  0  0
    6.6779  -16.2882   25.1666 C   0  0  0  0  0  0  0  0  0  0  0  0
    6.3010  -15.6065   26.2642 N   0  0  0  0  0  0  0  0  0  0  0  0
    6.5282  -14.3003   26.0656 C   0  0  0  0  0  0  0  0  0  0  0  0
    6.3138  -13.1964   26.8679 C   0  0  0  0  0  0  0  0  0  0  0  0
    6.6518  -11.9419   26.3687 C   0  0  0  0  0  0  0  0  0  0  0  0
    7.1862  -11.7945   25.1095 C   0  0  0  0  0  0  0  0  0  0  0  0
    7.3851  -12.9053   24.3437 C   0  0  0  0  0  0  0  0  0  0  0  0
    7.0606  -14.1631   24.8116 C   0  0  0  0  0  0  0  0  0  0  0  0
    9.8074  -15.7596   24.1726 C   0  0  0  0  0  0  0  0  0  0  0  0
   10.3464  -14.6341   24.4338 O   0  0  0  0  0  0  0  0  0  0  0  0
   11.6657  -14.8014   28.9544 C   0  0  0  0  0  0  0  0  0  0  0  0
   10.2456  -14.8377   28.3111 C   0  0  1  0  0  0  0  0  0  0  0  0
    9.7207  -13.4183   28.5699 C   0  0  0  0  0  0  0  0  0  0  0  0
   10.3716  -15.1281   26.8709 C   0  0  0  0  0  0  0  0  0  0  0  0
   10.6947  -16.5051   26.4312 C   0  0  2  0  0  0  0  0  0  0  0  0
    9.8664  -16.7125   25.1955 N   0  0  0  0  0  0  0  0  0  0  0  0
   10.4734  -17.6311   27.3052 C   0  0  0  0  0  0  0  0  0  0  0  0
    9.3664  -18.2744   27.2508 O   0  0  0  0  0  0  0  0  0  0  0  0
   11.3857  -18.0927   28.2185 O   0  0  0  0  0  0  0  0  0  0  0  0
  2  3  1  0
  2  1  1  6
  3  4  1  0
  4  5  1  0
  5  9  1  0
  6  5  2  0
  7  2  1  0
  8  7  2  0
 10  7  1  0
 11 10  1  0
 12 13  1  0
 11 12  1  1
 13 14  2  0
 14 15  1  0
 16 17  2  0
 16 15  1  0
 18 17  1  0
 19 18  2  0
 20 19  1  0
 20 21  2  0
 21 13  1  0
 21 16  1  0
 22 29  1  0
 22 11  1  0
 23 22  2  0
 25 24  1  1
 25 27  1  0
 26 25  1  0
 28 27  1  1
 28 29  1  0
 28 30  1  0
 30 32  1  0
 31 30  2  0
M  END
$$$$
