EWL.pdb
     RDKit          3D

 32 33  0  0  1  0  0  0  0  0999 V2000
   10.9746  -19.1002   20.2014 N   0  0  0  0  0  0  0  0  0  0  0  0
   11.8082  -17.9183   20.2254 C   0  0  1  0  0  0  0  0  0  0  0  0
   11.8508  -17.3148   18.8706 C   0  0  0  0  0  0  0  0  0  0  0  0
   12.5673  -18.1277   17.8396 C   0  0  0  0  0  0  0  0  0  0  0  0
   12.7845  -17.4918   16.5504 C   0  0  0  0  0  0  0  0  0  0  0  0
   13.4284  -16.4263   16.4304 O   0  0  0  0  0  0  0  0  0  0  0  0
   11.2205  -16.9660   21.2354 C   0  0  0  0  0  0  0  0  0  0  0  0
   11.7115  -15.8136   21.3765 O   0  0  0  0  0  0  0  0  0  0  0  0
   12.2811  -18.0390   15.3529 O   0  0  0  0  0  0  0  0  0  0  0  0
   10.1191  -17.3287   22.0373 N   0  0  0  0  0  0  0  0  0  0  0  0
    9.4539  -16.5245   22.9870 C   0  0  1  0  0  0  0  0  0  0  0  0
    7.9814  -16.5003   23.0067 C   0  0  0  0  0  0  0  0  0  0  0  0
    7.3345  -15.8809   21.8283 C   0  0  0  0  0  0  0  0  0  0  0  0
    6.3839  -16.4486   20.9883 C   0  0  0  0  0  0  0  0  0  0  0  0
    6.0297  -15.5509   20.0502 N   0  0  0  0  0  0  0  0  0  0  0  0
    6.7174  -14.4175   20.2497 C   0  0  0  0  0  0  0  0  0  0  0  0
    6.7253  -13.2143   19.5712 C   0  0  0  0  0  0  0  0  0  0  0  0
    7.5719  -12.2066   20.0242 C   0  0  0  0  0  0  0  0  0  0  0  0
    8.3841  -12.3945   21.1186 C   0  0  0  0  0  0  0  0  0  0  0  0
    8.3514  -13.5945   21.7655 C   0  0  0  0  0  0  0  0  0  0  0  0
    7.5215  -14.6129   21.3405 C   0  0  0  0  0  0  0  0  0  0  0  0
   10.0139  -16.6521   24.3888 C   0  0  0  0  0  0  0  0  0  0  0  0
   10.7984  -17.6080   24.6990 O   0  0  0  0  0  0  0  0  0  0  0  0
   11.5588  -14.1622   29.1314 C   0  0  0  0  0  0  0  0  0  0  0  0
   10.0719  -14.6100   28.9885 C   0  0  1  0  0  0  0  0  0  0  0  0
    9.3054  -13.4509   29.6413 C   0  0  0  0  0  0  0  0  0  0  0  0
    9.7435  -14.7561   27.5584 C   0  0  0  0  0  0  0  0  0  0  0  0
   10.2616  -15.9231   26.8078 C   0  0  2  0  0  0  0  0  0  0  0  0
    9.7185  -15.7513   25.4180 N   0  0  0  0  0  0  0  0  0  0  0  0
    9.9635  -17.2682   27.2351 C   0  0  0  0  0  0  0  0  0  0  0  0
   10.8323  -17.9345   27.9012 O   0  0  0  0  0  0  0  0  0  0  0  0
    8.7810  -17.9154   26.9853 O   0  0  0  0  0  0  0  0  0  0  0  0
  2  3  1  0
  2  1  1  6
  3  4  1  0
  4  5  1  0
  5  9  1  0
  6  5  2  0
  7  2  1  0
  8  7  2  0
 10  7  1  0
 11 10  1  0
 12 13  1  0
 11 12  1  1
 13 14  2  0
 14 15  1  0
 16 17  2  0
 16 15  1  0
 18 17  1  0
 19 18  2  0
 20 19  1  0
 20 21  2  0
 21 13  1  0
 21 16  1  0
 22 29  1  0
 22 11  1  0
 23 22  2  0
 25 24  1  6
 25 27  1  0
 26 25  1  0
 28 27  1  1
 28 29  1  0
 28 30  1  0
 30 32  1  0
 31 30  2  0
M  END
$$$$
