EWL.pdb
     RDKit          3D

 32 33  0  0  1  0  0  0  0  0999 V2000
   10.5414  -18.7378   20.8537 N   0  0  0  0  0  0  0  0  0  0  0  0
   11.3106  -17.5149   20.9262 C   0  0  1  0  0  0  0  0  0  0  0  0
   11.0397  -16.6877   19.7246 C   0  0  0  0  0  0  0  0  0  0  0  0
   11.4570  -17.3034   18.4270 C   0  0  0  0  0  0  0  0  0  0  0  0
   11.0619  -16.5974   17.2192 C   0  0  0  0  0  0  0  0  0  0  0  0
   10.4815  -15.4899   17.2515 O   0  0  0  0  0  0  0  0  0  0  0  0
   10.9106  -16.7987   22.1909 C   0  0  0  0  0  0  0  0  0  0  0  0
   11.3895  -15.6620   22.4509 O   0  0  0  0  0  0  0  0  0  0  0  0
   11.3096  -17.1193   15.9335 O   0  0  0  0  0  0  0  0  0  0  0  0
   10.0004  -17.3682   23.1046 N   0  0  0  0  0  0  0  0  0  0  0  0
    9.5430  -16.8060   24.3154 C   0  0  1  0  0  0  0  0  0  0  0  0
    8.0978  -16.7819   24.5988 C   0  0  0  0  0  0  0  0  0  0  0  0
    7.3571  -15.6217   24.0547 C   0  0  0  0  0  0  0  0  0  0  0  0
    6.7601  -15.5089   22.8047 C   0  0  0  0  0  0  0  0  0  0  0  0
    6.1653  -14.3057   22.7053 N   0  0  0  0  0  0  0  0  0  0  0  0
    6.3548  -13.6300   23.8476 C   0  0  0  0  0  0  0  0  0  0  0  0
    5.9583  -12.3686   24.2473 C   0  0  0  0  0  0  0  0  0  0  0  0
    6.3225  -11.9340   25.5185 C   0  0  0  0  0  0  0  0  0  0  0  0
    7.0587  -12.7329   26.3626 C   0  0  0  0  0  0  0  0  0  0  0  0
    7.4335  -13.9729   25.9365 C   0  0  0  0  0  0  0  0  0  0  0  0
    7.0867  -14.4323   24.6815 C   0  0  0  0  0  0  0  0  0  0  0  0
   10.3270  -17.2599   25.5295 C   0  0  0  0  0  0  0  0  0  0  0  0
   11.1350  -18.2437   25.4605 O   0  0  0  0  0  0  0  0  0  0  0  0
    9.8492  -14.2216   27.7719 C   0  0  0  0  0  0  0  0  0  0  0  0
   11.0132  -14.7479   28.6662 C   0  0  1  0  0  0  0  0  0  0  0  0
   10.9527  -13.8147   29.8839 C   0  0  0  0  0  0  0  0  0  0  0  0
   10.7497  -16.1523   29.0305 C   0  0  0  0  0  0  0  0  0  0  0  0
   10.8927  -17.2101   28.0038 C   0  0  2  0  0  0  0  0  0  0  0  0
   10.2242  -16.6460   26.7828 N   0  0  0  0  0  0  0  0  0  0  0  0
   10.3618  -18.5327   28.2264 C   0  0  0  0  0  0  0  0  0  0  0  0
    9.2668  -18.8853   27.6615 O   0  0  0  0  0  0  0  0  0  0  0  0
   10.9570  -19.4828   29.0155 O   0  0  0  0  0  0  0  0  0  0  0  0
  2  3  1  0
  2  1  1  6
  3  4  1  0
  4  5  1  0
  5  9  1  0
  6  5  2  0
  7  2  1  0
  8  7  2  0
 10  7  1  0
 11 10  1  0
 12 13  1  0
 11 12  1  1
 13 14  2  0
 14 15  1  0
 16 17  2  0
 16 15  1  0
 18 17  1  0
 19 18  2  0
 20 19  1  0
 20 21  2  0
 21 13  1  0
 21 16  1  0
 22 29  1  0
 22 11  1  0
 23 22  2  0
 25 24  1  6
 25 27  1  0
 26 25  1  0
 28 27  1  1
 28 29  1  0
 28 30  1  0
 30 32  1  0
 31 30  2  0
M  END
$$$$
