EWL.pdb
     RDKit          3D

 32 33  0  0  1  0  0  0  0  0999 V2000
   10.5590  -18.7593   20.6043 N   0  0  0  0  0  0  0  0  0  0  0  0
   11.6762  -17.9491   21.0378 C   0  0  1  0  0  0  0  0  0  0  0  0
   12.1149  -17.0737   19.9232 C   0  0  0  0  0  0  0  0  0  0  0  0
   12.0796  -17.7092   18.5697 C   0  0  0  0  0  0  0  0  0  0  0  0
   12.4686  -16.8681   17.4496 C   0  0  0  0  0  0  0  0  0  0  0  0
   12.9316  -15.7169   17.6069 O   0  0  0  0  0  0  0  0  0  0  0  0
   11.2203  -17.1422   22.2267 C   0  0  0  0  0  0  0  0  0  0  0  0
   11.9635  -16.2409   22.7003 O   0  0  0  0  0  0  0  0  0  0  0  0
   12.3476  -17.2999   16.1133 O   0  0  0  0  0  0  0  0  0  0  0  0
    9.9670  -17.3654   22.8328 N   0  0  0  0  0  0  0  0  0  0  0  0
    9.4487  -16.7278   23.9800 C   0  0  1  0  0  0  0  0  0  0  0  0
    7.9894  -16.6374   24.1576 C   0  0  0  0  0  0  0  0  0  0  0  0
    7.3789  -15.3382   23.7969 C   0  0  0  0  0  0  0  0  0  0  0  0
    6.8866  -14.9494   22.5567 C   0  0  0  0  0  0  0  0  0  0  0  0
    6.3913  -13.7013   22.6487 N   0  0  0  0  0  0  0  0  0  0  0  0
    6.5445  -13.2631   23.9064 C   0  0  0  0  0  0  0  0  0  0  0  0
    6.2135  -12.0657   24.5105 C   0  0  0  0  0  0  0  0  0  0  0  0
    6.5131  -11.9022   25.8599 C   0  0  0  0  0  0  0  0  0  0  0  0
    7.1235  -12.9015   26.5822 C   0  0  0  0  0  0  0  0  0  0  0  0
    7.4365  -14.0712   25.9549 C   0  0  0  0  0  0  0  0  0  0  0  0
    7.1511  -14.2635   24.6177 C   0  0  0  0  0  0  0  0  0  0  0  0
   10.1275  -17.1491   25.2671 C   0  0  0  0  0  0  0  0  0  0  0  0
   10.9849  -18.0926   25.2801 O   0  0  0  0  0  0  0  0  0  0  0  0
    9.3828  -13.7140   29.4936 C   0  0  0  0  0  0  0  0  0  0  0  0
    9.9488  -14.5411   28.2989 C   0  0  1  0  0  0  0  0  0  0  0  0
   11.2319  -13.7792   27.9378 C   0  0  0  0  0  0  0  0  0  0  0  0
   10.2293  -15.9168   28.7497 C   0  0  0  0  0  0  0  0  0  0  0  0
   10.5988  -16.9486   27.7534 C   0  0  2  0  0  0  0  0  0  0  0  0
    9.8694  -16.5468   26.5035 N   0  0  0  0  0  0  0  0  0  0  0  0
   10.3228  -18.3433   27.9967 C   0  0  0  0  0  0  0  0  0  0  0  0
   10.9919  -18.9820   28.8837 O   0  0  0  0  0  0  0  0  0  0  0  0
    9.3631  -19.0684   27.3389 O   0  0  0  0  0  0  0  0  0  0  0  0
  2  3  1  0
  2  1  1  6
  3  4  1  0
  4  5  1  0
  5  9  1  0
  6  5  2  0
  7  2  1  0
  8  7  2  0
 10  7  1  0
 11 10  1  0
 12 13  1  0
 11 12  1  1
 13 14  2  0
 14 15  1  0
 16 17  2  0
 16 15  1  0
 18 17  1  0
 19 18  2  0
 20 19  1  0
 20 21  2  0
 21 13  1  0
 21 16  1  0
 22 29  1  0
 22 11  1  0
 23 22  2  0
 25 24  1  1
 25 27  1  0
 26 25  1  0
 28 27  1  1
 28 29  1  0
 28 30  1  0
 30 32  1  0
 31 30  2  0
M  END
$$$$
