EWL.pdb
     RDKit          3D

 32 33  0  0  1  0  0  0  0  0999 V2000
    9.9837  -18.2711   21.7298 N   0  0  0  0  0  0  0  0  0  0  0  0
   11.2375  -17.7348   22.2122 C   0  0  1  0  0  0  0  0  0  0  0  0
   11.7823  -16.7781   21.2174 C   0  0  0  0  0  0  0  0  0  0  0  0
   11.4527  -17.0926   19.7928 C   0  0  0  0  0  0  0  0  0  0  0  0
   11.8808  -16.1207   18.8000 C   0  0  0  0  0  0  0  0  0  0  0  0
   12.7852  -15.2870   19.0268 O   0  0  0  0  0  0  0  0  0  0  0  0
   10.9676  -17.0624   23.5341 C   0  0  0  0  0  0  0  0  0  0  0  0
   11.8716  -16.3854   24.0941 O   0  0  0  0  0  0  0  0  0  0  0  0
   11.3011  -16.0583   17.5167 O   0  0  0  0  0  0  0  0  0  0  0  0
    9.7145  -17.1658   24.1719 N   0  0  0  0  0  0  0  0  0  0  0  0
    9.3649  -16.6788   25.4493 C   0  0  1  0  0  0  0  0  0  0  0  0
    8.0113  -16.1420   25.6709 C   0  0  0  0  0  0  0  0  0  0  0  0
    7.6598  -14.9422   24.8787 C   0  0  0  0  0  0  0  0  0  0  0  0
    7.4710  -14.8606   23.5041 C   0  0  0  0  0  0  0  0  0  0  0  0
    7.1378  -13.5982   23.1774 N   0  0  0  0  0  0  0  0  0  0  0  0
    7.1035  -12.8540   24.2919 C   0  0  0  0  0  0  0  0  0  0  0  0
    6.8249  -11.5167   24.4974 C   0  0  0  0  0  0  0  0  0  0  0  0
    6.8787  -11.0234   25.7978 C   0  0  0  0  0  0  0  0  0  0  0  0
    7.2005  -11.8388   26.8582 C   0  0  0  0  0  0  0  0  0  0  0  0
    7.4698  -13.1543   26.6202 C   0  0  0  0  0  0  0  0  0  0  0  0
    7.4236  -13.6730   25.3414 C   0  0  0  0  0  0  0  0  0  0  0  0
    9.7777  -17.5959   26.5822 C   0  0  0  0  0  0  0  0  0  0  0  0
    9.4085  -17.3675   27.7809 O   0  0  0  0  0  0  0  0  0  0  0  0
   10.8690  -23.1024   27.7107 C   0  0  0  0  0  0  0  0  0  0  0  0
   11.9460  -21.9749   27.7313 C   0  0  1  0  0  0  0  0  0  0  0  0
   13.1782  -22.6732   27.1385 C   0  0  0  0  0  0  0  0  0  0  0  0
   11.4892  -20.8508   26.8933 C   0  0  0  0  0  0  0  0  0  0  0  0
   10.9577  -19.6291   27.5402 C   0  0  2  0  0  0  0  0  0  0  0  0
   10.5732  -18.7322   26.3984 N   0  0  0  0  0  0  0  0  0  0  0  0
   11.7716  -18.8610   28.4503 C   0  0  0  0  0  0  0  0  0  0  0  0
   12.6532  -18.0517   27.9917 O   0  0  0  0  0  0  0  0  0  0  0  0
   11.6722  -18.9208   29.8163 O   0  0  0  0  0  0  0  0  0  0  0  0
  2  3  1  0
  2  1  1  6
  3  4  1  0
  4  5  1  0
  5  9  1  0
  6  5  2  0
  7  2  1  0
  8  7  2  0
 10  7  1  0
 11 10  1  0
 12 13  1  0
 11 12  1  6
 13 14  2  0
 14 15  1  0
 16 17  2  0
 16 15  1  0
 18 17  1  0
 19 18  2  0
 20 19  1  0
 20 21  2  0
 21 13  1  0
 21 16  1  0
 22 29  1  0
 22 11  1  0
 23 22  2  0
 25 24  1  6
 25 27  1  0
 26 25  1  0
 28 27  1  6
 28 29  1  0
 28 30  1  0
 30 32  1  0
 31 30  2  0
M  END
$$$$
