EWL.pdb
     RDKit          3D

 32 33  0  0  1  0  0  0  0  0999 V2000
    8.5265  -19.2379   21.2672 N   0  0  0  0  0  0  0  0  0  0  0  0
    9.8964  -18.9396   20.9111 C   0  0  1  0  0  0  0  0  0  0  0  0
   10.0255  -18.8950   19.4337 C   0  0  0  0  0  0  0  0  0  0  0  0
    9.6164  -20.1476   18.7260 C   0  0  0  0  0  0  0  0  0  0  0  0
    9.7071  -20.1302   17.2752 C   0  0  0  0  0  0  0  0  0  0  0  0
   10.1738  -19.1551   16.6460 O   0  0  0  0  0  0  0  0  0  0  0  0
   10.2522  -17.6150   21.5364 C   0  0  0  0  0  0  0  0  0  0  0  0
   11.3811  -17.0976   21.3195 O   0  0  0  0  0  0  0  0  0  0  0  0
    9.2733  -21.2146   16.4861 O   0  0  0  0  0  0  0  0  0  0  0  0
    9.3460  -16.9241   22.3665 N   0  0  0  0  0  0  0  0  0  0  0  0
    9.4868  -15.6179   22.8818 C   0  0  1  0  0  0  0  0  0  0  0  0
    8.3102  -14.7337   22.9370 C   0  0  0  0  0  0  0  0  0  0  0  0
    7.5973  -14.6951   24.2336 C   0  0  0  0  0  0  0  0  0  0  0  0
    7.2079  -15.7742   25.0181 C   0  0  0  0  0  0  0  0  0  0  0  0
    6.6084  -15.3173   26.1330 N   0  0  0  0  0  0  0  0  0  0  0  0
    6.5932  -13.9771   26.1018 C   0  0  0  0  0  0  0  0  0  0  0  0
    6.0964  -13.0414   26.9884 C   0  0  0  0  0  0  0  0  0  0  0  0
    6.2265  -11.6934   26.6672 C   0  0  0  0  0  0  0  0  0  0  0  0
    6.8327  -11.2929   25.4988 C   0  0  0  0  0  0  0  0  0  0  0  0
    7.3123  -12.2427   24.6459 C   0  0  0  0  0  0  0  0  0  0  0  0
    7.1989  -13.5876   24.9373 C   0  0  0  0  0  0  0  0  0  0  0  0
   10.2728  -15.5575   24.1753 C   0  0  0  0  0  0  0  0  0  0  0  0
   11.2620  -14.7640   24.3072 O   0  0  0  0  0  0  0  0  0  0  0  0
    8.8466  -14.4226   29.1159 C   0  0  0  0  0  0  0  0  0  0  0  0
    9.5341  -14.6271   27.7313 C   0  0  1  0  0  0  0  0  0  0  0  0
   10.6902  -13.6176   27.7753 C   0  0  0  0  0  0  0  0  0  0  0  0
   10.0156  -16.0171   27.6281 C   0  0  0  0  0  0  0  0  0  0  0  0
   10.8795  -16.4059   26.4897 C   0  0  2  0  0  0  0  0  0  0  0  0
    9.9761  -16.3478   25.2912 N   0  0  0  0  0  0  0  0  0  0  0  0
   11.5518  -17.6820   26.4742 C   0  0  0  0  0  0  0  0  0  0  0  0
   12.8232  -17.7364   26.6264 O   0  0  0  0  0  0  0  0  0  0  0  0
   10.9198  -18.8877   26.3119 O   0  0  0  0  0  0  0  0  0  0  0  0
  2  3  1  0
  2  1  1  6
  3  4  1  0
  4  5  1  0
  5  9  1  0
  6  5  2  0
  7  2  1  0
  8  7  2  0
 10  7  1  0
 11 10  1  0
 12 13  1  0
 11 12  1  1
 13 14  2  0
 14 15  1  0
 16 17  2  0
 16 15  1  0
 18 17  1  0
 19 18  2  0
 20 19  1  0
 20 21  2  0
 21 13  1  0
 21 16  1  0
 22 29  1  0
 22 11  1  0
 23 22  2  0
 25 24  1  1
 25 27  1  0
 26 25  1  0
 28 27  1  1
 28 29  1  0
 28 30  1  0
 30 32  1  0
 31 30  2  0
M  END
$$$$
