EWL.pdb
     RDKit          3D

 32 33  0  0  1  0  0  0  0  0999 V2000
   10.3146  -17.7075   18.9682 N   0  0  0  0  0  0  0  0  0  0  0  0
   11.2052  -17.6050   20.1033 C   0  0  1  0  0  0  0  0  0  0  0  0
   12.5142  -17.0663   19.6586 C   0  0  0  0  0  0  0  0  0  0  0  0
   13.2920  -17.9659   18.7516 C   0  0  0  0  0  0  0  0  0  0  0  0
   14.5954  -17.4841   18.3245 C   0  0  0  0  0  0  0  0  0  0  0  0
   14.7313  -16.6571   17.3960 O   0  0  0  0  0  0  0  0  0  0  0  0
   10.5512  -16.7000   21.1160 C   0  0  0  0  0  0  0  0  0  0  0  0
   10.4680  -15.4617   20.8951 O   0  0  0  0  0  0  0  0  0  0  0  0
   15.7897  -17.9207   18.9326 O   0  0  0  0  0  0  0  0  0  0  0  0
   10.0181  -17.2039   22.3200 N   0  0  0  0  0  0  0  0  0  0  0  0
    9.3142  -16.4838   23.3086 C   0  0  1  0  0  0  0  0  0  0  0  0
    7.8682  -16.2576   23.1437 C   0  0  0  0  0  0  0  0  0  0  0  0
    7.2049  -15.5212   24.2430 C   0  0  0  0  0  0  0  0  0  0  0  0
    6.4121  -16.0466   25.2565 C   0  0  0  0  0  0  0  0  0  0  0  0
    6.0194  -15.0508   26.0723 N   0  0  0  0  0  0  0  0  0  0  0  0
    6.5286  -13.8941   25.6249 C   0  0  0  0  0  0  0  0  0  0  0  0
    6.4210  -12.5990   26.0929 C   0  0  0  0  0  0  0  0  0  0  0  0
    7.0720  -11.5876   25.3924 C   0  0  0  0  0  0  0  0  0  0  0  0
    7.8061  -11.8608   24.2613 C   0  0  0  0  0  0  0  0  0  0  0  0
    7.8918  -13.1505   23.8266 C   0  0  0  0  0  0  0  0  0  0  0  0
    7.2580  -14.1753   24.5007 C   0  0  0  0  0  0  0  0  0  0  0  0
    9.6380  -16.9196   24.7228 C   0  0  0  0  0  0  0  0  0  0  0  0
    9.4135  -18.1131   25.1108 O   0  0  0  0  0  0  0  0  0  0  0  0
    8.3719  -14.0676   28.9352 C   0  0  0  0  0  0  0  0  0  0  0  0
    9.3530  -14.4977   27.8020 C   0  0  1  0  0  0  0  0  0  0  0  0
   10.5489  -13.5588   28.0156 C   0  0  0  0  0  0  0  0  0  0  0  0
    9.7198  -15.9138   27.9881 C   0  0  0  0  0  0  0  0  0  0  0  0
   10.6425  -16.5595   27.0262 C   0  0  2  0  0  0  0  0  0  0  0  0
   10.1944  -16.0647   25.6807 N   0  0  0  0  0  0  0  0  0  0  0  0
   10.7491  -17.9963   26.9551 C   0  0  0  0  0  0  0  0  0  0  0  0
   11.9017  -18.5474   26.8542 O   0  0  0  0  0  0  0  0  0  0  0  0
    9.6808  -18.8545   26.9955 O   0  0  0  0  0  0  0  0  0  0  0  0
  2  3  1  0
  2  1  1  6
  3  4  1  0
  4  5  1  0
  5  9  1  0
  6  5  2  0
  7  2  1  0
  8  7  2  0
 10  7  1  0
 11 10  1  0
 12 13  1  0
 11 12  1  6
 13 14  2  0
 14 15  1  0
 16 17  2  0
 16 15  1  0
 18 17  1  0
 19 18  2  0
 20 19  1  0
 20 21  2  0
 21 13  1  0
 21 16  1  0
 22 29  1  0
 22 11  1  0
 23 22  2  0
 25 24  1  1
 25 27  1  0
 26 25  1  0
 28 27  1  1
 28 29  1  0
 28 30  1  0
 30 32  1  0
 31 30  2  0
M  END
$$$$
