EWL.pdb
     RDKit          3D

 32 33  0  0  1  0  0  0  0  0999 V2000
    9.3920  -17.2410   18.4646 N   0  0  0  0  0  0  0  0  0  0  0  0
   10.2419  -17.4409   19.6180 C   0  0  1  0  0  0  0  0  0  0  0  0
   11.6560  -17.2003   19.2387 C   0  0  0  0  0  0  0  0  0  0  0  0
   12.2455  -18.2217   18.3189 C   0  0  0  0  0  0  0  0  0  0  0  0
   13.6027  -17.9732   17.8607 C   0  0  0  0  0  0  0  0  0  0  0  0
   13.8507  -17.2799   16.8497 O   0  0  0  0  0  0  0  0  0  0  0  0
    9.7877  -16.4841   20.6906 C   0  0  0  0  0  0  0  0  0  0  0  0
    9.2827  -15.3736   20.3731 O   0  0  0  0  0  0  0  0  0  0  0  0
   14.7257  -18.5001   18.5300 O   0  0  0  0  0  0  0  0  0  0  0  0
    9.9088  -16.7991   22.0595 N   0  0  0  0  0  0  0  0  0  0  0  0
    9.1988  -16.2217   23.1337 C   0  0  1  0  0  0  0  0  0  0  0  0
    7.7264  -16.2068   23.0999 C   0  0  0  0  0  0  0  0  0  0  0  0
    7.0656  -15.5371   24.2426 C   0  0  0  0  0  0  0  0  0  0  0  0
    6.4187  -16.1367   25.3166 C   0  0  0  0  0  0  0  0  0  0  0  0
    5.9740  -15.1818   26.1544 N   0  0  0  0  0  0  0  0  0  0  0  0
    6.3084  -13.9802   25.6628 C   0  0  0  0  0  0  0  0  0  0  0  0
    6.0847  -12.6998   26.1304 C   0  0  0  0  0  0  0  0  0  0  0  0
    6.5576  -11.6297   25.3765 C   0  0  0  0  0  0  0  0  0  0  0  0
    7.2316  -11.8316   24.1942 C   0  0  0  0  0  0  0  0  0  0  0  0
    7.4356  -13.1087   23.7615 C   0  0  0  0  0  0  0  0  0  0  0  0
    6.9792  -14.1906   24.4879 C   0  0  0  0  0  0  0  0  0  0  0  0
    9.7067  -16.6482   24.4956 C   0  0  0  0  0  0  0  0  0  0  0  0
    9.1487  -17.5979   25.1377 O   0  0  0  0  0  0  0  0  0  0  0  0
   11.0193  -14.0065   29.0935 C   0  0  0  0  0  0  0  0  0  0  0  0
    9.7284  -14.5582   28.4145 C   0  0  1  0  0  0  0  0  0  0  0  0
    8.7309  -13.4055   28.5979 C   0  0  0  0  0  0  0  0  0  0  0  0
   10.0057  -14.8304   26.9920 C   0  0  0  0  0  0  0  0  0  0  0  0
   10.8993  -15.9534   26.6262 C   0  0  2  0  0  0  0  0  0  0  0  0
   10.7987  -16.0461   25.1304 N   0  0  0  0  0  0  0  0  0  0  0  0
   10.6854  -17.2740   27.1657 C   0  0  0  0  0  0  0  0  0  0  0  0
   11.5051  -17.7532   28.0264 O   0  0  0  0  0  0  0  0  0  0  0  0
    9.6348  -18.0872   26.8275 O   0  0  0  0  0  0  0  0  0  0  0  0
  2  3  1  0
  2  1  1  6
  3  4  1  0
  4  5  1  0
  5  9  1  0
  6  5  2  0
  7  2  1  0
  8  7  2  0
 10  7  1  0
 11 10  1  0
 12 13  1  0
 11 12  1  6
 13 14  2  0
 14 15  1  0
 16 17  2  0
 16 15  1  0
 18 17  1  0
 19 18  2  0
 20 19  1  0
 20 21  2  0
 21 13  1  0
 21 16  1  0
 22 29  1  0
 22 11  1  0
 23 22  2  0
 25 24  1  1
 25 27  1  0
 26 25  1  0
 28 27  1  1
 28 29  1  0
 28 30  1  0
 30 32  1  0
 31 30  2  0
M  END
$$$$
