EWL.pdb
     RDKit          3D

 32 33  0  0  1  0  0  0  0  0999 V2000
   10.4475  -17.3449   18.4569 N   0  0  0  0  0  0  0  0  0  0  0  0
   10.9990  -17.7917   19.7173 C   0  0  1  0  0  0  0  0  0  0  0  0
   12.4801  -17.7226   19.6620 C   0  0  0  0  0  0  0  0  0  0  0  0
   13.0631  -17.7635   18.2852 C   0  0  0  0  0  0  0  0  0  0  0  0
   14.5138  -17.7983   18.1977 C   0  0  0  0  0  0  0  0  0  0  0  0
   15.2459  -17.7665   19.2113 O   0  0  0  0  0  0  0  0  0  0  0  0
   10.4450  -16.9001   20.7992 C   0  0  0  0  0  0  0  0  0  0  0  0
   10.8522  -15.7121   20.9082 O   0  0  0  0  0  0  0  0  0  0  0  0
   15.1864  -17.8702   16.9611 O   0  0  0  0  0  0  0  0  0  0  0  0
    9.4674  -17.3599   21.7052 N   0  0  0  0  0  0  0  0  0  0  0  0
    8.8434  -16.6222   22.7336 C   0  0  1  0  0  0  0  0  0  0  0  0
    7.3742  -16.6302   22.8375 C   0  0  0  0  0  0  0  0  0  0  0  0
    6.8092  -15.8984   23.9934 C   0  0  0  0  0  0  0  0  0  0  0  0
    6.0473  -16.4171   25.0336 C   0  0  0  0  0  0  0  0  0  0  0  0
    5.7497  -15.4303   25.8990 N   0  0  0  0  0  0  0  0  0  0  0  0
    6.2910  -14.2858   25.4580 C   0  0  0  0  0  0  0  0  0  0  0  0
    6.2739  -13.0026   25.9693 C   0  0  0  0  0  0  0  0  0  0  0  0
    6.9357  -12.0020   25.2636 C   0  0  0  0  0  0  0  0  0  0  0  0
    7.5928  -12.2738   24.0858 C   0  0  0  0  0  0  0  0  0  0  0  0
    7.5902  -13.5515   23.6093 C   0  0  0  0  0  0  0  0  0  0  0  0
    6.9434  -14.5656   24.2872 C   0  0  0  0  0  0  0  0  0  0  0  0
    9.4851  -16.8133   24.0925 C   0  0  0  0  0  0  0  0  0  0  0  0
   10.2587  -17.8005   24.3214 O   0  0  0  0  0  0  0  0  0  0  0  0
   11.5704  -14.1592   28.5823 C   0  0  0  0  0  0  0  0  0  0  0  0
   10.1268  -14.7466   28.6357 C   0  0  1  0  0  0  0  0  0  0  0  0
    9.3547  -13.6756   29.4193 C   0  0  0  0  0  0  0  0  0  0  0  0
    9.6152  -14.9048   27.2617 C   0  0  0  0  0  0  0  0  0  0  0  0
   10.0364  -16.0756   26.4581 C   0  0  2  0  0  0  0  0  0  0  0  0
    9.2807  -15.9407   25.1671 N   0  0  0  0  0  0  0  0  0  0  0  0
    9.8380  -17.4179   26.9476 C   0  0  0  0  0  0  0  0  0  0  0  0
    8.6814  -17.9637   26.8654 O   0  0  0  0  0  0  0  0  0  0  0  0
   10.8222  -18.1906   27.5076 O   0  0  0  0  0  0  0  0  0  0  0  0
  2  3  1  0
  2  1  1  6
  3  4  1  0
  4  5  1  0
  5  9  1  0
  6  5  2  0
  7  2  1  0
  8  7  2  0
 10  7  1  0
 11 10  1  0
 12 13  1  0
 11 12  1  1
 13 14  2  0
 14 15  1  0
 16 17  2  0
 16 15  1  0
 18 17  1  0
 19 18  2  0
 20 19  1  0
 20 21  2  0
 21 13  1  0
 21 16  1  0
 22 29  1  0
 22 11  1  0
 23 22  2  0
 25 24  1  6
 25 27  1  0
 26 25  1  0
 28 27  1  1
 28 29  1  0
 28 30  1  0
 30 32  1  0
 31 30  2  0
M  END
$$$$
