EWL.pdb
     RDKit          3D

 32 33  0  0  1  0  0  0  0  0999 V2000
    9.6790  -17.0394   19.0109 N   0  0  0  0  0  0  0  0  0  0  0  0
   10.5771  -17.2868   20.1176 C   0  0  1  0  0  0  0  0  0  0  0  0
   11.9479  -16.8550   19.7489 C   0  0  0  0  0  0  0  0  0  0  0  0
   13.0421  -17.4561   20.5725 C   0  0  0  0  0  0  0  0  0  0  0  0
   13.9603  -18.3447   19.8792 C   0  0  0  0  0  0  0  0  0  0  0  0
   13.8011  -19.5851   19.8558 O   0  0  0  0  0  0  0  0  0  0  0  0
   10.0579  -16.5194   21.3067 C   0  0  0  0  0  0  0  0  0  0  0  0
   10.1926  -15.2671   21.3574 O   0  0  0  0  0  0  0  0  0  0  0  0
   15.0898  -17.8613   19.1883 O   0  0  0  0  0  0  0  0  0  0  0  0
    9.4129  -17.1687   22.3791 N   0  0  0  0  0  0  0  0  0  0  0  0
    8.9930  -16.5924   23.5968 C   0  0  1  0  0  0  0  0  0  0  0  0
    7.6602  -16.9229   24.1294 C   0  0  0  0  0  0  0  0  0  0  0  0
    6.9980  -15.8533   24.9092 C   0  0  0  0  0  0  0  0  0  0  0  0
    5.9836  -15.9946   25.8487 C   0  0  0  0  0  0  0  0  0  0  0  0
    5.6739  -14.7849   26.3509 N   0  0  0  0  0  0  0  0  0  0  0  0
    6.4514  -13.8598   25.7704 C   0  0  0  0  0  0  0  0  0  0  0  0
    6.5250  -12.4894   25.9276 C   0  0  0  0  0  0  0  0  0  0  0  0
    7.4490  -11.7857   25.1605 C   0  0  0  0  0  0  0  0  0  0  0  0
    8.2721  -12.4294   24.2656 C   0  0  0  0  0  0  0  0  0  0  0  0
    8.1735  -13.7833   24.1354 C   0  0  0  0  0  0  0  0  0  0  0  0
    7.2674  -14.5089   24.8830 C   0  0  0  0  0  0  0  0  0  0  0  0
   10.0427  -16.6469   24.6877 C   0  0  0  0  0  0  0  0  0  0  0  0
   11.2777  -16.7901   24.4053 O   0  0  0  0  0  0  0  0  0  0  0  0
    9.4074  -13.6629   29.0146 C   0  0  0  0  0  0  0  0  0  0  0  0
    9.9450  -14.4122   27.7571 C   0  0  1  0  0  0  0  0  0  0  0  0
   11.0811  -13.4972   27.2782 C   0  0  0  0  0  0  0  0  0  0  0  0
   10.4370  -15.7434   28.1578 C   0  0  0  0  0  0  0  0  0  0  0  0
   10.7815  -16.7367   27.1147 C   0  0  2  0  0  0  0  0  0  0  0  0
    9.7396  -16.5452   26.0499 N   0  0  0  0  0  0  0  0  0  0  0  0
   10.8417  -18.1441   27.4254 C   0  0  0  0  0  0  0  0  0  0  0  0
   11.8026  -18.6003   28.1401 O   0  0  0  0  0  0  0  0  0  0  0  0
    9.9178  -19.0682   27.0108 O   0  0  0  0  0  0  0  0  0  0  0  0
  2  3  1  0
  2  1  1  6
  3  4  1  0
  4  5  1  0
  5  9  1  0
  6  5  2  0
  7  2  1  0
  8  7  2  0
 10  7  1  0
 11 10  1  0
 12 13  1  0
 11 12  1  1
 13 14  2  0
 14 15  1  0
 16 17  2  0
 16 15  1  0
 18 17  1  0
 19 18  2  0
 20 19  1  0
 20 21  2  0
 21 13  1  0
 21 16  1  0
 22 29  1  0
 22 11  1  0
 23 22  2  0
 25 24  1  1
 25 27  1  0
 26 25  1  0
 28 27  1  1
 28 29  1  0
 28 30  1  0
 30 32  1  0
 31 30  2  0
M  END
$$$$
