CDC.pdb
     RDKit          3D

 21 20  0  0  1  0  0  0  0  0999 V2000
    7.7512  -14.5300   18.2897 N   0  0  0  0  0  0  0  0  0  0  0  0
    8.8550  -14.4460   19.1867 C   0  0  1  0  0  0  0  0  0  0  0  0
    9.2267  -12.9971   19.4696 C   0  0  0  0  0  0  0  0  0  0  0  0
    7.8309  -12.1403   20.2127 S   0  0  0  0  0  0  0  0  0  0  0  0
    8.6159  -15.0833   20.5087 C   0  0  0  0  0  0  0  0  0  0  0  0
    7.4021  -15.2230   20.8410 O   0  0  0  0  0  0  0  0  0  0  0  0
    9.6235  -15.5161   21.3636 N   0  0  0  0  0  0  0  0  0  0  0  0
    9.3408  -16.2315   22.6519 C   0  0  1  0  0  0  0  0  0  0  0  0
   10.5713  -17.0216   22.9585 C   0  0  0  0  0  0  0  0  0  0  0  0
   10.7526  -18.3301   22.3906 C   0  0  0  0  0  0  0  0  0  0  0  0
   11.8295  -18.7957   21.9883 O   0  0  0  0  0  0  0  0  0  0  0  0
    9.1118  -15.1617   23.6615 C   0  0  0  0  0  0  0  0  0  0  0  0
    9.9274  -14.1696   23.6679 O   0  0  0  0  0  0  0  0  0  0  0  0
    9.6474  -19.2225   22.2456 O   0  0  0  0  0  0  0  0  0  0  0  0
    8.0896  -15.1091   24.6162 N   0  0  0  0  0  0  0  0  0  0  0  0
    7.9792  -13.9571   25.5148 C   0  0  1  0  0  0  0  0  0  0  0  0
    6.5353  -13.4755   25.4593 C   0  0  0  0  0  0  0  0  0  0  0  0
    6.2620  -12.1726   26.6919 S   0  0  0  0  0  0  0  0  0  0  0  0
    8.3913  -14.3357   26.8711 C   0  0  0  0  0  0  0  0  0  0  0  0
    8.6502  -15.6680   27.1531 O   0  0  0  0  0  0  0  0  0  0  0  0
    8.5229  -13.5037   27.8015 O   0  0  0  0  0  0  0  0  0  0  0  0
  2  1  1  6
  2  3  1  0
  4  3  1  0
  5  2  1  0
  6  5  2  0
  7  5  1  0
  8 12  1  0
  8  7  1  0
  8  9  1  1
 10  9  1  0
 11 10  2  0
 12 15  1  0
 13 12  2  0
 14 10  1  0
 15 16  1  0
 16 17  1  1
 16 19  1  0
 17 18  1  0
 19 21  2  0
 19 20  1  0
M  END
$$$$
