CDC.pdb
     RDKit          3D

 21 20  0  0  1  0  0  0  0  0999 V2000
    7.5435  -15.1863   19.0166 N   0  0  0  0  0  0  0  0  0  0  0  0
    8.1859  -14.5038   20.0896 C   0  0  1  0  0  0  0  0  0  0  0  0
    7.5383  -13.1507   20.3489 C   0  0  0  0  0  0  0  0  0  0  0  0
    8.1669  -11.9365   19.1805 S   0  0  0  0  0  0  0  0  0  0  0  0
    8.1567  -15.2373   21.3828 C   0  0  0  0  0  0  0  0  0  0  0  0
    7.0300  -15.7007   21.7275 O   0  0  0  0  0  0  0  0  0  0  0  0
    9.2656  -15.4304   22.1992 N   0  0  0  0  0  0  0  0  0  0  0  0
    9.1971  -16.1886   23.4923 C   0  0  1  0  0  0  0  0  0  0  0  0
   10.4219  -17.0435   23.5295 C   0  0  0  0  0  0  0  0  0  0  0  0
   10.5333  -18.1881   22.6663 C   0  0  0  0  0  0  0  0  0  0  0  0
   11.5248  -18.4756   21.9789 O   0  0  0  0  0  0  0  0  0  0  0  0
    9.2185  -15.1549   24.5635 C   0  0  0  0  0  0  0  0  0  0  0  0
   10.2519  -14.3954   24.6325 O   0  0  0  0  0  0  0  0  0  0  0  0
    9.4537  -19.1139   22.5387 O   0  0  0  0  0  0  0  0  0  0  0  0
    8.2229  -14.9079   25.5158 N   0  0  0  0  0  0  0  0  0  0  0  0
    8.4527  -13.9342   26.5863 C   0  0  1  0  0  0  0  0  0  0  0  0
    7.1000  -13.3405   26.9572 C   0  0  0  0  0  0  0  0  0  0  0  0
    6.2901  -12.6589   25.4838 S   0  0  0  0  0  0  0  0  0  0  0  0
    9.1099  -14.5848   27.7254 C   0  0  0  0  0  0  0  0  0  0  0  0
    9.5180  -13.8136   28.8025 O   0  0  0  0  0  0  0  0  0  0  0  0
    9.3246  -15.8203   27.7748 O   0  0  0  0  0  0  0  0  0  0  0  0
  2  1  1  6
  2  3  1  0
  4  3  1  0
  5  2  1  0
  6  5  2  0
  7  5  1  0
  8 12  1  0
  8  7  1  0
  8  9  1  1
 10  9  1  0
 11 10  2  0
 12 15  1  0
 13 12  2  0
 14 10  1  0
 15 16  1  0
 16 17  1  1
 16 19  1  0
 17 18  1  0
 19 21  2  0
 19 20  1  0
M  END
$$$$
