CDC.pdb
     RDKit          3D

 21 20  0  0  1  0  0  0  0  0999 V2000
    7.7741  -14.8572   18.2815 N   0  0  0  0  0  0  0  0  0  0  0  0
    8.8134  -14.7330   19.2482 C   0  0  1  0  0  0  0  0  0  0  0  0
    9.2429  -13.2819   19.4129 C   0  0  0  0  0  0  0  0  0  0  0  0
    7.8248  -12.2701   19.8601 S   0  0  0  0  0  0  0  0  0  0  0  0
    8.4448  -15.2177   20.6049 C   0  0  0  0  0  0  0  0  0  0  0  0
    7.2041  -15.2772   20.8499 O   0  0  0  0  0  0  0  0  0  0  0  0
    9.3633  -15.5939   21.5787 N   0  0  0  0  0  0  0  0  0  0  0  0
    8.9526  -16.2035   22.8869 C   0  0  1  0  0  0  0  0  0  0  0  0
   10.0747  -17.1053   23.2870 C   0  0  0  0  0  0  0  0  0  0  0  0
   10.0237  -17.8153   24.5363 C   0  0  0  0  0  0  0  0  0  0  0  0
   11.0084  -18.1696   25.2019 O   0  0  0  0  0  0  0  0  0  0  0  0
    8.8047  -15.0620   23.8311 C   0  0  0  0  0  0  0  0  0  0  0  0
    9.7790  -14.2288   23.9096 O   0  0  0  0  0  0  0  0  0  0  0  0
    8.7716  -18.1768   25.1198 O   0  0  0  0  0  0  0  0  0  0  0  0
    7.7055  -14.7847   24.6520 N   0  0  0  0  0  0  0  0  0  0  0  0
    7.7485  -13.6551   25.5841 C   0  0  1  0  0  0  0  0  0  0  0  0
    6.3106  -13.2207   25.8366 C   0  0  0  0  0  0  0  0  0  0  0  0
    6.2663  -11.8860   27.0647 S   0  0  0  0  0  0  0  0  0  0  0  0
    8.4398  -14.0467   26.8176 C   0  0  0  0  0  0  0  0  0  0  0  0
    8.4713  -15.3841   27.1808 O   0  0  0  0  0  0  0  0  0  0  0  0
    9.0114  -13.2215   27.5709 O   0  0  0  0  0  0  0  0  0  0  0  0
  2  1  1  6
  2  3  1  0
  4  3  1  0
  5  2  1  0
  6  5  2  0
  7  5  1  0
  8 12  1  0
  8  7  1  0
  8  9  1  1
 10  9  1  0
 11 10  2  0
 12 15  1  0
 13 12  2  0
 14 10  1  0
 15 16  1  0
 16 17  1  1
 16 19  1  0
 17 18  1  0
 19 21  2  0
 19 20  1  0
M  END
$$$$
