CDC.pdb
     RDKit          3D

 21 20  0  0  1  0  0  0  0  0999 V2000
    7.8468  -15.1009   18.9883 N   0  0  0  0  0  0  0  0  0  0  0  0
    8.6629  -14.6541   20.0674 C   0  0  1  0  0  0  0  0  0  0  0  0
    8.0748  -13.4147   20.7272 C   0  0  0  0  0  0  0  0  0  0  0  0
    7.9116  -12.0948   19.5165 S   0  0  0  0  0  0  0  0  0  0  0  0
    8.8461  -15.6580   21.1490 C   0  0  0  0  0  0  0  0  0  0  0  0
    8.3382  -16.7977   20.9341 O   0  0  0  0  0  0  0  0  0  0  0  0
    9.5227  -15.4130   22.3389 N   0  0  0  0  0  0  0  0  0  0  0  0
    9.9636  -16.5118   23.2607 C   0  0  1  0  0  0  0  0  0  0  0  0
   10.9697  -17.3079   22.4948 C   0  0  0  0  0  0  0  0  0  0  0  0
   11.6755  -18.3875   23.1302 C   0  0  0  0  0  0  0  0  0  0  0  0
   11.1508  -19.3988   23.6202 O   0  0  0  0  0  0  0  0  0  0  0  0
   10.5817  -15.8287   24.4302 C   0  0  0  0  0  0  0  0  0  0  0  0
   11.2595  -14.7619   24.2022 O   0  0  0  0  0  0  0  0  0  0  0  0
   13.0987  -18.3624   23.2438 O   0  0  0  0  0  0  0  0  0  0  0  0
   10.5028  -16.2187   25.7721 N   0  0  0  0  0  0  0  0  0  0  0  0
   10.3575  -15.2103   26.8250 C   0  0  1  0  0  0  0  0  0  0  0  0
    9.0365  -14.4910   26.5848 C   0  0  0  0  0  0  0  0  0  0  0  0
    8.7821  -13.2115   27.8456 S   0  0  0  0  0  0  0  0  0  0  0  0
   10.4153  -15.8490   28.1447 C   0  0  0  0  0  0  0  0  0  0  0  0
   10.9115  -15.1325   29.2226 O   0  0  0  0  0  0  0  0  0  0  0  0
   10.0335  -17.0268   28.3500 O   0  0  0  0  0  0  0  0  0  0  0  0
  2  1  1  6
  2  3  1  0
  4  3  1  0
  5  2  1  0
  6  5  2  0
  7  5  1  0
  8 12  1  0
  8  7  1  0
  8  9  1  6
 10  9  1  0
 11 10  2  0
 12 15  1  0
 13 12  2  0
 14 10  1  0
 15 16  1  0
 16 17  1  6
 16 19  1  0
 17 18  1  0
 19 21  2  0
 19 20  1  0
M  END
$$$$
