CDC.pdb
     RDKit          3D

 21 20  0  0  1  0  0  0  0  0999 V2000
    6.8796  -15.1855   19.6091 N   0  0  0  0  0  0  0  0  0  0  0  0
    8.1065  -14.7533   20.1904 C   0  0  1  0  0  0  0  0  0  0  0  0
    8.0579  -13.2735   20.5444 C   0  0  0  0  0  0  0  0  0  0  0  0
    7.8299  -12.2939   19.0534 S   0  0  0  0  0  0  0  0  0  0  0  0
    8.4753  -15.4712   21.4394 C   0  0  0  0  0  0  0  0  0  0  0  0
    7.5073  -15.8811   22.1450 O   0  0  0  0  0  0  0  0  0  0  0  0
    9.7825  -15.7043   21.8522 N   0  0  0  0  0  0  0  0  0  0  0  0
   10.1152  -16.5298   23.0602 C   0  0  1  0  0  0  0  0  0  0  0  0
   11.4503  -17.1403   22.7821 C   0  0  0  0  0  0  0  0  0  0  0  0
   11.5691  -18.2307   21.8524 C   0  0  0  0  0  0  0  0  0  0  0  0
   10.9076  -19.2792   21.8865 O   0  0  0  0  0  0  0  0  0  0  0  0
   10.1785  -15.5694   24.1959 C   0  0  0  0  0  0  0  0  0  0  0  0
   10.4590  -14.3464   23.9218 O   0  0  0  0  0  0  0  0  0  0  0  0
   12.5050  -18.1730   20.7754 O   0  0  0  0  0  0  0  0  0  0  0  0
    9.9580  -15.8495   25.5494 N   0  0  0  0  0  0  0  0  0  0  0  0
    9.8750  -14.7583   26.5236 C   0  0  1  0  0  0  0  0  0  0  0  0
    8.5956  -13.9853   26.2307 C   0  0  0  0  0  0  0  0  0  0  0  0
    8.3738  -12.6577   27.4472 S   0  0  0  0  0  0  0  0  0  0  0  0
    9.9029  -15.2984   27.8876 C   0  0  0  0  0  0  0  0  0  0  0  0
   10.3425  -14.4924   28.9261 O   0  0  0  0  0  0  0  0  0  0  0  0
    9.5446  -16.4686   28.1655 O   0  0  0  0  0  0  0  0  0  0  0  0
  2  1  1  1
  2  3  1  0
  4  3  1  0
  5  2  1  0
  6  5  2  0
  7  5  1  0
  8 12  1  0
  8  7  1  0
  8  9  1  6
 10  9  1  0
 11 10  2  0
 12 15  1  0
 13 12  2  0
 14 10  1  0
 15 16  1  0
 16 17  1  6
 16 19  1  0
 17 18  1  0
 19 21  2  0
 19 20  1  0
M  END
$$$$
