CDC.pdb
     RDKit          3D

 21 20  0  0  1  0  0  0  0  0999 V2000
    7.4278  -15.3216   18.6849 N   0  0  0  0  0  0  0  0  0  0  0  0
    8.1799  -14.6442   19.6876 C   0  0  1  0  0  0  0  0  0  0  0  0
    7.7106  -13.2053   19.8513 C   0  0  0  0  0  0  0  0  0  0  0  0
    8.1478  -12.2484   18.3925 S   0  0  0  0  0  0  0  0  0  0  0  0
    8.0990  -15.2674   21.0352 C   0  0  0  0  0  0  0  0  0  0  0  0
    6.9903  -15.8043   21.3278 O   0  0  0  0  0  0  0  0  0  0  0  0
    9.1432  -15.2874   21.9533 N   0  0  0  0  0  0  0  0  0  0  0  0
    9.0616  -16.0262   23.2567 C   0  0  1  0  0  0  0  0  0  0  0  0
   10.1783  -17.0187   23.2339 C   0  0  0  0  0  0  0  0  0  0  0  0
   10.4949  -17.7807   24.4114 C   0  0  0  0  0  0  0  0  0  0  0  0
   11.5482  -17.6951   25.0607 O   0  0  0  0  0  0  0  0  0  0  0  0
    9.2655  -14.9972   24.3131 C   0  0  0  0  0  0  0  0  0  0  0  0
   10.3070  -14.2515   24.2197 O   0  0  0  0  0  0  0  0  0  0  0  0
    9.5694  -18.7338   24.9348 O   0  0  0  0  0  0  0  0  0  0  0  0
    8.4360  -14.7410   25.4109 N   0  0  0  0  0  0  0  0  0  0  0  0
    8.8334  -13.7566   26.4208 C   0  0  1  0  0  0  0  0  0  0  0  0
    7.6757  -12.7801   26.5824 C   0  0  0  0  0  0  0  0  0  0  0  0
    6.1170  -13.6854   26.7878 S   0  0  0  0  0  0  0  0  0  0  0  0
    9.1739  -14.4340   27.6769 C   0  0  0  0  0  0  0  0  0  0  0  0
    9.6637  -13.6879   28.7375 O   0  0  0  0  0  0  0  0  0  0  0  0
    9.0429  -15.6712   27.8423 O   0  0  0  0  0  0  0  0  0  0  0  0
  2  1  1  6
  2  3  1  0
  4  3  1  0
  5  2  1  0
  6  5  2  0
  7  5  1  0
  8 12  1  0
  8  7  1  0
  8  9  1  6
 10  9  1  0
 11 10  2  0
 12 15  1  0
 13 12  2  0
 14 10  1  0
 15 16  1  0
 16 17  1  1
 16 19  1  0
 17 18  1  0
 19 21  2  0
 19 20  1  0
M  END
$$$$
