CDC.pdb
     RDKit          3D

 21 20  0  0  1  0  0  0  0  0999 V2000
   -1.2009  -25.8605   28.9828 N   0  0  0  0  0  0  0  0  0  0  0  0
   -2.0112  -25.9560   27.8149 C   0  0  1  0  0  0  0  0  0  0  0  0
   -1.6761  -27.2050   27.0117 C   0  0  0  0  0  0  0  0  0  0  0  0
    0.0596  -27.1836   26.5411 S   0  0  0  0  0  0  0  0  0  0  0  0
   -3.4716  -26.0134   28.0894 C   0  0  0  0  0  0  0  0  0  0  0  0
   -4.2181  -26.1378   27.0744 O   0  0  0  0  0  0  0  0  0  0  0  0
   -4.0335  -25.9398   29.3592 N   0  0  0  0  0  0  0  0  0  0  0  0
   -5.5135  -26.0130   29.5953 C   0  0  1  0  0  0  0  0  0  0  0  0
   -5.6803  -26.5855   30.9654 C   0  0  0  0  0  0  0  0  0  0  0  0
   -5.5743  -28.0039   31.1760 C   0  0  0  0  0  0  0  0  0  0  0  0
   -5.9700  -28.8783   30.3906 O   0  0  0  0  0  0  0  0  0  0  0  0
   -5.9995  -24.6075   29.5266 C   0  0  0  0  0  0  0  0  0  0  0  0
   -5.2885  -23.7067   30.1032 O   0  0  0  0  0  0  0  0  0  0  0  0
   -4.9764  -28.5226   32.3645 O   0  0  0  0  0  0  0  0  0  0  0  0
   -7.1579  -24.1468   28.8903 N   0  0  0  0  0  0  0  0  0  0  0  0
   -7.4723  -22.7158   28.8781 C   0  0  1  0  0  0  0  0  0  0  0  0
   -7.8738  -22.3519   27.4546 C   0  0  0  0  0  0  0  0  0  0  0  0
   -8.5262  -20.6599   27.4013 S   0  0  0  0  0  0  0  0  0  0  0  0
   -8.5321  -22.4253   29.8504 C   0  0  0  0  0  0  0  0  0  0  0  0
   -8.5498  -21.1929   30.4846 O   0  0  0  0  0  0  0  0  0  0  0  0
   -9.4352  -23.2468   30.1411 O   0  0  0  0  0  0  0  0  0  0  0  0
  2  1  1  1
  2  3  1  0
  4  3  1  0
  5  2  1  0
  6  5  2  0
  7  5  1  0
  8 12  1  0
  8  7  1  0
  8  9  1  1
 10  9  1  0
 11 10  2  0
 12 15  1  0
 13 12  2  0
 14 10  1  0
 15 16  1  0
 16 17  1  6
 16 19  1  0
 17 18  1  0
 19 21  2  0
 19 20  1  0
M  END
$$$$
