CDC.pdb
     RDKit          3D

 21 20  0  0  1  0  0  0  0  0999 V2000
    7.1805  -15.4618   19.2357 N   0  0  0  0  0  0  0  0  0  0  0  0
    8.2493  -14.9023   19.9938 C   0  0  1  0  0  0  0  0  0  0  0  0
    7.9275  -13.4813   20.4351 C   0  0  0  0  0  0  0  0  0  0  0  0
    7.7707  -12.4134   18.9965 S   0  0  0  0  0  0  0  0  0  0  0  0
    8.5819  -15.6599   21.2293 C   0  0  0  0  0  0  0  0  0  0  0  0
    7.6230  -16.2917   21.7626 O   0  0  0  0  0  0  0  0  0  0  0  0
    9.8474  -15.7051   21.8039 N   0  0  0  0  0  0  0  0  0  0  0  0
   10.1539  -16.5226   23.0242 C   0  0  1  0  0  0  0  0  0  0  0  0
   11.5112  -17.1040   22.7954 C   0  0  0  0  0  0  0  0  0  0  0  0
   12.1886  -17.8021   23.8544 C   0  0  0  0  0  0  0  0  0  0  0  0
   11.6383  -18.4829   24.7329 O   0  0  0  0  0  0  0  0  0  0  0  0
   10.1552  -15.5604   24.1602 C   0  0  0  0  0  0  0  0  0  0  0  0
   10.6324  -14.3881   23.9423 O   0  0  0  0  0  0  0  0  0  0  0  0
   13.6111  -17.7528   23.9681 O   0  0  0  0  0  0  0  0  0  0  0  0
    9.6829  -15.7885   25.4579 N   0  0  0  0  0  0  0  0  0  0  0  0
    9.7508  -14.7255   26.4640 C   0  0  1  0  0  0  0  0  0  0  0  0
    8.4884  -13.8853   26.3218 C   0  0  0  0  0  0  0  0  0  0  0  0
    8.4274  -12.6219   27.6224 S   0  0  0  0  0  0  0  0  0  0  0  0
    9.8872  -15.3087   27.8034 C   0  0  0  0  0  0  0  0  0  0  0  0
    9.9356  -16.6873   27.9401 O   0  0  0  0  0  0  0  0  0  0  0  0
    9.9630  -14.6137   28.8457 O   0  0  0  0  0  0  0  0  0  0  0  0
  2  1  1  1
  2  3  1  0
  4  3  1  0
  5  2  1  0
  6  5  2  0
  7  5  1  0
  8 12  1  0
  8  7  1  0
  8  9  1  6
 10  9  1  0
 11 10  2  0
 12 15  1  0
 13 12  2  0
 14 10  1  0
 15 16  1  0
 16 17  1  1
 16 19  1  0
 17 18  1  0
 19 21  2  0
 19 20  1  0
M  END
$$$$
