CDC.pdb
     RDKit          3D

 21 20  0  0  1  0  0  0  0  0999 V2000
   -3.0203  -21.7871   23.2417 N   0  0  0  0  0  0  0  0  0  0  0  0
   -2.9548  -20.8029   24.2698 C   0  0  1  0  0  0  0  0  0  0  0  0
   -3.0861  -19.3983   23.6978 C   0  0  0  0  0  0  0  0  0  0  0  0
   -1.7694  -19.0945   22.5109 S   0  0  0  0  0  0  0  0  0  0  0  0
   -4.0125  -20.9338   25.3069 C   0  0  0  0  0  0  0  0  0  0  0  0
   -3.9784  -20.0777   26.2391 O   0  0  0  0  0  0  0  0  0  0  0  0
   -4.9987  -21.9141   25.3008 N   0  0  0  0  0  0  0  0  0  0  0  0
   -6.0519  -22.0098   26.3653 C   0  0  1  0  0  0  0  0  0  0  0  0
   -7.3489  -22.1756   25.6422 C   0  0  0  0  0  0  0  0  0  0  0  0
   -8.5704  -22.3605   26.3779 C   0  0  0  0  0  0  0  0  0  0  0  0
   -8.6610  -22.4350   27.6126 O   0  0  0  0  0  0  0  0  0  0  0  0
   -5.7092  -23.2216   27.1592 C   0  0  0  0  0  0  0  0  0  0  0  0
   -5.3259  -24.2634   26.5132 O   0  0  0  0  0  0  0  0  0  0  0  0
   -9.8211  -22.4768   25.6989 O   0  0  0  0  0  0  0  0  0  0  0  0
   -5.7518  -23.3564   28.5517 N   0  0  0  0  0  0  0  0  0  0  0  0
   -5.3805  -24.6265   29.1806 C   0  0  1  0  0  0  0  0  0  0  0  0
   -3.9096  -24.5299   29.5639 C   0  0  0  0  0  0  0  0  0  0  0  0
   -3.4614  -25.8918   30.6756 S   0  0  0  0  0  0  0  0  0  0  0  0
   -6.2446  -24.8864   30.3377 C   0  0  0  0  0  0  0  0  0  0  0  0
   -6.4861  -26.1962   30.7218 O   0  0  0  0  0  0  0  0  0  0  0  0
   -6.7837  -23.9710   31.0060 O   0  0  0  0  0  0  0  0  0  0  0  0
  2  1  1  6
  2  3  1  0
  4  3  1  0
  5  2  1  0
  6  5  2  0
  7  5  1  0
  8 12  1  0
  8  7  1  0
  8  9  1  6
 10  9  1  0
 11 10  2  0
 12 15  1  0
 13 12  2  0
 14 10  1  0
 15 16  1  0
 16 17  1  1
 16 19  1  0
 17 18  1  0
 19 21  2  0
 19 20  1  0
M  END
$$$$
