CDC.pdb
     RDKit          3D

 21 20  0  0  1  0  0  0  0  0999 V2000
    6.8958  -15.3426   18.9675 N   0  0  0  0  0  0  0  0  0  0  0  0
    7.9449  -14.7657   19.7398 C   0  0  1  0  0  0  0  0  0  0  0  0
    7.7537  -13.2634   19.8948 C   0  0  0  0  0  0  0  0  0  0  0  0
    8.0447  -12.4430   18.3210 S   0  0  0  0  0  0  0  0  0  0  0  0
    8.0631  -15.3174   21.1156 C   0  0  0  0  0  0  0  0  0  0  0  0
    6.9720  -15.6140   21.6854 O   0  0  0  0  0  0  0  0  0  0  0  0
    9.2688  -15.5152   21.7796 N   0  0  0  0  0  0  0  0  0  0  0  0
    9.3567  -16.1997   23.1120 C   0  0  1  0  0  0  0  0  0  0  0  0
   10.7260  -16.7943   23.1755 C   0  0  0  0  0  0  0  0  0  0  0  0
   11.2211  -17.3435   24.4088 C   0  0  0  0  0  0  0  0  0  0  0  0
   10.5399  -17.9480   25.2506 O   0  0  0  0  0  0  0  0  0  0  0  0
    9.1794  -15.1245   24.1264 C   0  0  0  0  0  0  0  0  0  0  0  0
    9.4914  -13.9275   23.7808 O   0  0  0  0  0  0  0  0  0  0  0  0
   12.5994  -17.2209   24.7611 O   0  0  0  0  0  0  0  0  0  0  0  0
    8.6984  -15.2699   25.4327 N   0  0  0  0  0  0  0  0  0  0  0  0
    8.3943  -14.0868   26.2417 C   0  0  1  0  0  0  0  0  0  0  0  0
    7.0412  -13.5592   25.7827 C   0  0  0  0  0  0  0  0  0  0  0  0
    6.4529  -12.2724   26.9184 S   0  0  0  0  0  0  0  0  0  0  0  0
    8.4050  -14.4356   27.6669 C   0  0  0  0  0  0  0  0  0  0  0  0
    8.4074  -15.7714   28.0371 O   0  0  0  0  0  0  0  0  0  0  0  0
    8.4119  -13.5747   28.5800 O   0  0  0  0  0  0  0  0  0  0  0  0
  2  1  1  1
  2  3  1  0
  4  3  1  0
  5  2  1  0
  6  5  2  0
  7  5  1  0
  8 12  1  0
  8  7  1  0
  8  9  1  1
 10  9  1  0
 11 10  2  0
 12 15  1  0
 13 12  2  0
 14 10  1  0
 15 16  1  0
 16 17  1  6
 16 19  1  0
 17 18  1  0
 19 21  2  0
 19 20  1  0
M  END
$$$$
