CDC.pdb
     RDKit          3D

 21 20  0  0  1  0  0  0  0  0999 V2000
    8.3540  -14.5603   17.8131 N   0  0  0  0  0  0  0  0  0  0  0  0
    9.0830  -14.4608   19.0331 C   0  0  1  0  0  0  0  0  0  0  0  0
    9.5037  -13.0239   19.3086 C   0  0  0  0  0  0  0  0  0  0  0  0
    8.0512  -11.9678   19.4052 S   0  0  0  0  0  0  0  0  0  0  0  0
    8.3292  -14.9140   20.2321 C   0  0  0  0  0  0  0  0  0  0  0  0
    7.0686  -14.9323   20.1154 O   0  0  0  0  0  0  0  0  0  0  0  0
    8.9210  -15.3037   21.4286 N   0  0  0  0  0  0  0  0  0  0  0  0
    8.1588  -15.9920   22.5226 C   0  0  1  0  0  0  0  0  0  0  0  0
    8.7242  -17.3725   22.6075 C   0  0  0  0  0  0  0  0  0  0  0  0
   10.1206  -17.5677   22.8893 C   0  0  0  0  0  0  0  0  0  0  0  0
   10.9387  -16.6659   23.1253 O   0  0  0  0  0  0  0  0  0  0  0  0
    8.4378  -15.2094   23.7579 C   0  0  0  0  0  0  0  0  0  0  0  0
    9.6123  -14.7059   23.8869 O   0  0  0  0  0  0  0  0  0  0  0  0
   10.6833  -18.8798   22.9162 O   0  0  0  0  0  0  0  0  0  0  0  0
    7.5510  -14.9502   24.8093 N   0  0  0  0  0  0  0  0  0  0  0  0
    8.0027  -14.2057   25.9875 C   0  0  1  0  0  0  0  0  0  0  0  0
    6.7611  -13.6722   26.6903 C   0  0  0  0  0  0  0  0  0  0  0  0
    6.0608  -12.2836   25.7562 S   0  0  0  0  0  0  0  0  0  0  0  0
    8.8066  -15.0749   26.8541 C   0  0  0  0  0  0  0  0  0  0  0  0
    9.4099  -14.5371   27.9803 O   0  0  0  0  0  0  0  0  0  0  0  0
    8.9784  -16.2967   26.6245 O   0  0  0  0  0  0  0  0  0  0  0  0
  2  1  1  6
  2  3  1  0
  4  3  1  0
  5  2  1  0
  6  5  2  0
  7  5  1  0
  8 12  1  0
  8  7  1  0
  8  9  1  1
 10  9  1  0
 11 10  2  0
 12 15  1  0
 13 12  2  0
 14 10  1  0
 15 16  1  0
 16 17  1  1
 16 19  1  0
 17 18  1  0
 19 21  2  0
 19 20  1  0
M  END
$$$$
