MKM.pdb
     RDKit          3D

 26 25  0  0  1  0  0  0  0  0999 V2000
    6.7426  -11.6641   27.7523 C   0  0  0  0  0  0  0  0  0  0  0  0
    5.6787  -12.5740   26.6026 S   0  0  0  0  0  0  0  0  0  0  0  0
    6.3990  -14.2220   26.2248 C   0  0  0  0  0  0  0  0  0  0  0  0
    5.4930  -14.8581   25.2241 C   0  0  0  0  0  0  0  0  0  0  0  0
    5.9968  -16.1018   24.5772 C   0  0  2  0  0  0  0  0  0  0  0  0
    6.2361  -17.0457   25.6958 N   0  0  0  0  0  0  0  0  0  0  0  0
    7.2643  -15.9885   23.8500 C   0  0  0  0  0  0  0  0  0  0  0  0
    8.2076  -16.8360   24.0537 O   0  0  0  0  0  0  0  0  0  0  0  0
    7.5993  -15.0000   22.8865 N   0  0  0  0  0  0  0  0  0  0  0  0
    8.8497  -15.0298   22.1400 C   0  0  1  0  0  0  0  0  0  0  0  0
    8.7823  -13.7580   21.2866 C   0  0  0  0  0  0  0  0  0  0  0  0
    7.8079  -13.8023   20.1747 C   0  0  0  0  0  0  0  0  0  0  0  0
    8.6408  -13.8105   18.8772 C   0  0  0  0  0  0  0  0  0  0  0  0
    7.7228  -13.8943   17.6768 C   0  0  0  0  0  0  0  0  0  0  0  0
    8.5636  -14.0619   16.5058 N   0  0  0  0  0  0  0  0  0  0  0  0
   10.0495  -15.0440   22.9692 C   0  0  0  0  0  0  0  0  0  0  0  0
   10.4590  -13.9229   23.4295 O   0  0  0  0  0  0  0  0  0  0  0  0
    9.8494  -14.8367   28.1796 C   0  0  0  0  0  0  0  0  0  0  0  0
   11.6378  -14.6797   28.1821 S   0  0  0  0  0  0  0  0  0  0  0  0
   12.3319  -15.4193   26.6733 C   0  0  0  0  0  0  0  0  0  0  0  0
   11.2460  -15.4709   25.5966 C   0  0  0  0  0  0  0  0  0  0  0  0
   11.8526  -16.0458   24.3302 C   0  0  2  0  0  0  0  0  0  0  0  0
   10.8163  -16.1651   23.3251 N   0  0  0  0  0  0  0  0  0  0  0  0
   12.4618  -17.3592   24.5589 C   0  0  0  0  0  0  0  0  0  0  0  0
   13.7253  -17.4681   25.1531 O   0  0  0  0  0  0  0  0  0  0  0  0
   11.8633  -18.4040   24.2271 O   0  0  0  0  0  0  0  0  0  0  0  0
  2  1  1  0
  3  2  1  0
  4  3  1  0
  4  5  1  0
  5  7  1  0
  5  6  1  1
  7  8  2  0
  9 10  1  0
  9  7  1  0
 10 11  1  6
 11 12  1  0
 12 13  1  0
 13 14  1  0
 14 15  1  0
 16 17  2  0
 16 10  1  0
 18 19  1  0
 19 20  1  0
 20 21  1  0
 22 21  1  1
 22 24  1  0
 22 23  1  0
 23 16  1  0
 24 25  1  0
 26 24  2  0
M  END
$$$$
