MKM.pdb
     RDKit          3D

 26 25  0  0  1  0  0  0  0  0999 V2000
    9.5146  -12.1724   18.9231 C   0  0  0  0  0  0  0  0  0  0  0  0
    7.8458  -12.8510   19.1133 S   0  0  0  0  0  0  0  0  0  0  0  0
    7.9071  -14.6822   19.2563 C   0  0  0  0  0  0  0  0  0  0  0  0
    9.2505  -15.0163   19.8138 C   0  0  0  0  0  0  0  0  0  0  0  0
    9.4594  -16.4333   20.2229 C   0  0  2  0  0  0  0  0  0  0  0  0
    8.5672  -17.2227   19.3396 N   0  0  0  0  0  0  0  0  0  0  0  0
    9.0891  -16.7735   21.5996 C   0  0  0  0  0  0  0  0  0  0  0  0
    8.2758  -17.7398   21.8331 O   0  0  0  0  0  0  0  0  0  0  0  0
    9.5479  -16.1312   22.7805 N   0  0  0  0  0  0  0  0  0  0  0  0
    9.9976  -16.8752   23.9492 C   0  0  1  0  0  0  0  0  0  0  0  0
   11.1679  -17.7062   23.4103 C   0  0  0  0  0  0  0  0  0  0  0  0
   10.8621  -19.1330   23.1682 C   0  0  0  0  0  0  0  0  0  0  0  0
   12.1548  -19.9079   23.4933 C   0  0  0  0  0  0  0  0  0  0  0  0
   11.8817  -20.9358   24.5701 C   0  0  0  0  0  0  0  0  0  0  0  0
   11.1687  -22.0334   23.9431 N   0  0  0  0  0  0  0  0  0  0  0  0
   10.4160  -16.0436   25.0720 C   0  0  0  0  0  0  0  0  0  0  0  0
   11.6348  -16.1359   25.4496 O   0  0  0  0  0  0  0  0  0  0  0  0
    5.8370  -12.9484   27.4041 C   0  0  0  0  0  0  0  0  0  0  0  0
    7.1965  -11.7948   27.1934 S   0  0  0  0  0  0  0  0  0  0  0  0
    8.7090  -12.6900   26.7282 C   0  0  0  0  0  0  0  0  0  0  0  0
    8.9295  -13.8429   27.7097 C   0  0  0  0  0  0  0  0  0  0  0  0
    9.9967  -14.7596   27.1414 C   0  0  2  0  0  0  0  0  0  0  0  0
    9.6212  -15.1397   25.7950 N   0  0  0  0  0  0  0  0  0  0  0  0
   10.1764  -15.9655   27.9550 C   0  0  0  0  0  0  0  0  0  0  0  0
   11.0257  -15.9573   29.0686 O   0  0  0  0  0  0  0  0  0  0  0  0
    9.5743  -17.0215   27.6680 O   0  0  0  0  0  0  0  0  0  0  0  0
  2  1  1  0
  3  2  1  0
  4  3  1  0
  4  5  1  0
  5  7  1  0
  5  6  1  6
  7  8  2  0
  9 10  1  0
  9  7  1  0
 10 11  1  6
 11 12  1  0
 12 13  1  0
 13 14  1  0
 14 15  1  0
 16 17  2  0
 16 10  1  0
 18 19  1  0
 19 20  1  0
 20 21  1  0
 22 21  1  1
 22 24  1  0
 22 23  1  0
 23 16  1  0
 24 25  1  0
 26 24  2  0
M  END
$$$$
