MKM.pdb
     RDKit          3D

 26 25  0  0  1  0  0  0  0  0999 V2000
    7.0879  -11.6796   24.8270 C   0  0  0  0  0  0  0  0  0  0  0  0
    6.4030  -12.5709   26.2476 S   0  0  0  0  0  0  0  0  0  0  0  0
    6.6656  -14.3802   26.0609 C   0  0  0  0  0  0  0  0  0  0  0  0
    5.9101  -14.7916   24.8414 C   0  0  0  0  0  0  0  0  0  0  0  0
    6.0140  -16.2268   24.4560 C   0  0  2  0  0  0  0  0  0  0  0  0
    5.5543  -16.9782   25.6491 N   0  0  0  0  0  0  0  0  0  0  0  0
    7.3586  -16.7207   24.1457 C   0  0  0  0  0  0  0  0  0  0  0  0
    8.0895  -17.2361   25.0675 O   0  0  0  0  0  0  0  0  0  0  0  0
    7.9921  -16.7026   22.8745 N   0  0  0  0  0  0  0  0  0  0  0  0
    9.3527  -17.1821   22.6736 C   0  0  1  0  0  0  0  0  0  0  0  0
    9.6372  -16.8341   21.2079 C   0  0  0  0  0  0  0  0  0  0  0  0
   10.9693  -17.2467   20.7147 C   0  0  0  0  0  0  0  0  0  0  0  0
   11.0047  -16.8751   19.2188 C   0  0  0  0  0  0  0  0  0  0  0  0
   12.3321  -17.2849   18.6181 C   0  0  0  0  0  0  0  0  0  0  0  0
   12.4043  -16.6926   17.2951 N   0  0  0  0  0  0  0  0  0  0  0  0
   10.3434  -16.5806   23.5591 C   0  0  0  0  0  0  0  0  0  0  0  0
   10.5038  -15.3135   23.4868 O   0  0  0  0  0  0  0  0  0  0  0  0
   10.0902  -13.2556   28.4401 C   0  0  0  0  0  0  0  0  0  0  0  0
   10.9912  -14.7142   28.9727 S   0  0  0  0  0  0  0  0  0  0  0  0
   12.0162  -15.3471   27.6110 C   0  0  0  0  0  0  0  0  0  0  0  0
   11.1142  -16.0352   26.5843 C   0  0  0  0  0  0  0  0  0  0  0  0
   11.9718  -16.4827   25.4153 C   0  0  2  0  0  0  0  0  0  0  0  0
   11.1519  -17.2444   24.4957 N   0  0  0  0  0  0  0  0  0  0  0  0
   13.1073  -17.3023   25.8479 C   0  0  0  0  0  0  0  0  0  0  0  0
   14.2114  -16.7179   26.4811 O   0  0  0  0  0  0  0  0  0  0  0  0
   13.1089  -18.5368   25.6586 O   0  0  0  0  0  0  0  0  0  0  0  0
  2  1  1  0
  3  2  1  0
  4  3  1  0
  4  5  1  0
  5  7  1  0
  5  6  1  1
  7  8  2  0
  9 10  1  0
  9  7  1  0
 10 11  1  6
 11 12  1  0
 12 13  1  0
 13 14  1  0
 14 15  1  0
 16 17  2  0
 16 10  1  0
 18 19  1  0
 19 20  1  0
 20 21  1  0
 22 21  1  1
 22 24  1  0
 22 23  1  0
 23 16  1  0
 24 25  1  0
 26 24  2  0
M  END
$$$$
