MKM.pdb
     RDKit          3D

 26 25  0  0  1  0  0  0  0  0999 V2000
    7.5622  -11.8661   25.5612 C   0  0  0  0  0  0  0  0  0  0  0  0
    6.5265  -12.4336   26.9348 S   0  0  0  0  0  0  0  0  0  0  0  0
    5.4916  -13.8606   26.4150 C   0  0  0  0  0  0  0  0  0  0  0  0
    6.4191  -15.0196   26.2615 C   0  0  0  0  0  0  0  0  0  0  0  0
    6.1253  -15.9534   25.1388 C   0  0  2  0  0  0  0  0  0  0  0  0
    5.7331  -17.2260   25.7914 N   0  0  0  0  0  0  0  0  0  0  0  0
    7.2447  -16.2705   24.2474 C   0  0  0  0  0  0  0  0  0  0  0  0
    8.1427  -17.1149   24.6083 O   0  0  0  0  0  0  0  0  0  0  0  0
    7.4730  -15.7303   22.9537 N   0  0  0  0  0  0  0  0  0  0  0  0
    8.6609  -16.0490   22.1733 C   0  0  1  0  0  0  0  0  0  0  0  0
    8.3609  -15.4286   20.8038 C   0  0  0  0  0  0  0  0  0  0  0  0
    9.4572  -15.5336   19.8164 C   0  0  0  0  0  0  0  0  0  0  0  0
    8.7988  -15.9693   18.4920 C   0  0  0  0  0  0  0  0  0  0  0  0
    9.8642  -16.2312   17.4494 C   0  0  0  0  0  0  0  0  0  0  0  0
    9.1922  -16.7477   16.2712 N   0  0  0  0  0  0  0  0  0  0  0  0
    9.9060  -15.5276   22.7257 C   0  0  0  0  0  0  0  0  0  0  0  0
    9.9879  -14.2628   22.8989 O   0  0  0  0  0  0  0  0  0  0  0  0
   11.1049  -14.1671   29.3216 C   0  0  0  0  0  0  0  0  0  0  0  0
   10.2575  -14.6795   27.8241 S   0  0  0  0  0  0  0  0  0  0  0  0
   11.3727  -15.6678   26.7824 C   0  0  0  0  0  0  0  0  0  0  0  0
   10.6679  -15.9932   25.4640 C   0  0  0  0  0  0  0  0  0  0  0  0
   11.7033  -15.9993   24.3549 C   0  0  2  0  0  0  0  0  0  0  0  0
   11.0407  -16.2676   23.0950 N   0  0  0  0  0  0  0  0  0  0  0  0
   12.7452  -17.0053   24.5803 C   0  0  0  0  0  0  0  0  0  0  0  0
   12.7329  -18.2176   23.8792 O   0  0  0  0  0  0  0  0  0  0  0  0
   13.6621  -16.7976   25.4025 O   0  0  0  0  0  0  0  0  0  0  0  0
  2  1  1  0
  3  2  1  0
  4  3  1  0
  4  5  1  0
  5  7  1  0
  5  6  1  1
  7  8  2  0
  9 10  1  0
  9  7  1  0
 10 11  1  6
 11 12  1  0
 12 13  1  0
 13 14  1  0
 14 15  1  0
 16 17  2  0
 16 10  1  0
 18 19  1  0
 19 20  1  0
 20 21  1  0
 22 21  1  1
 22 24  1  0
 22 23  1  0
 23 16  1  0
 24 25  1  0
 26 24  2  0
M  END
$$$$
