MKM.pdb
     RDKit          3D

 26 25  0  0  1  0  0  0  0  0999 V2000
    6.8837  -11.6706   28.3248 C   0  0  0  0  0  0  0  0  0  0  0  0
    6.0394  -12.2856   26.8448 S   0  0  0  0  0  0  0  0  0  0  0  0
    5.1724  -13.8651   27.2068 C   0  0  0  0  0  0  0  0  0  0  0  0
    5.6393  -14.8459   26.1835 C   0  0  0  0  0  0  0  0  0  0  0  0
    7.0301  -14.6624   25.6824 C   0  0  2  0  0  0  0  0  0  0  0  0
    7.1510  -13.2095   25.4108 N   0  0  0  0  0  0  0  0  0  0  0  0
    7.3662  -15.3490   24.4319 C   0  0  0  0  0  0  0  0  0  0  0  0
    7.5175  -16.6242   24.4120 O   0  0  0  0  0  0  0  0  0  0  0  0
    7.5537  -14.7438   23.1606 N   0  0  0  0  0  0  0  0  0  0  0  0
    8.4384  -15.3081   22.1504 C   0  0  1  0  0  0  0  0  0  0  0  0
    8.1605  -14.4441   20.9148 C   0  0  0  0  0  0  0  0  0  0  0  0
    8.9041  -14.8362   19.6978 C   0  0  0  0  0  0  0  0  0  0  0  0
    8.3393  -13.9697   18.5545 C   0  0  0  0  0  0  0  0  0  0  0  0
    9.0407  -14.3089   17.2569 C   0  0  0  0  0  0  0  0  0  0  0  0
    8.3581  -13.5860   16.1996 N   0  0  0  0  0  0  0  0  0  0  0  0
    9.8535  -15.2825   22.5028 C   0  0  0  0  0  0  0  0  0  0  0  0
   10.4175  -14.1374   22.5875 O   0  0  0  0  0  0  0  0  0  0  0  0
    9.9821  -15.4716   28.0333 C   0  0  0  0  0  0  0  0  0  0  0  0
   11.5882  -14.8124   27.5760 S   0  0  0  0  0  0  0  0  0  0  0  0
   12.2203  -15.6724   26.1041 C   0  0  0  0  0  0  0  0  0  0  0  0
   11.1567  -15.6300   25.0050 C   0  0  0  0  0  0  0  0  0  0  0  0
   11.7223  -16.2946   23.7638 C   0  0  2  0  0  0  0  0  0  0  0  0
   10.6784  -16.3883   22.7640 N   0  0  0  0  0  0  0  0  0  0  0  0
   12.2462  -17.6339   24.0470 C   0  0  0  0  0  0  0  0  0  0  0  0
   13.5641  -17.8083   24.4876 O   0  0  0  0  0  0  0  0  0  0  0  0
   11.5249  -18.6429   23.8998 O   0  0  0  0  0  0  0  0  0  0  0  0
  2  1  1  0
  3  2  1  0
  4  3  1  0
  4  5  1  0
  5  7  1  0
  5  6  1  6
  7  8  2  0
  9 10  1  0
  9  7  1  0
 10 11  1  6
 11 12  1  0
 12 13  1  0
 13 14  1  0
 14 15  1  0
 16 17  2  0
 16 10  1  0
 18 19  1  0
 19 20  1  0
 20 21  1  0
 22 21  1  1
 22 24  1  0
 22 23  1  0
 23 16  1  0
 24 25  1  0
 26 24  2  0
M  END
$$$$
