MKM.pdb
     RDKit          3D

 26 25  0  0  1  0  0  0  0  0999 V2000
    9.1074  -11.9907   20.4879 C   0  0  0  0  0  0  0  0  0  0  0  0
    7.8398  -12.2543   19.2209 S   0  0  0  0  0  0  0  0  0  0  0  0
    7.3994  -14.0351   19.1105 C   0  0  0  0  0  0  0  0  0  0  0  0
    7.1167  -14.4862   20.5046 C   0  0  0  0  0  0  0  0  0  0  0  0
    6.7819  -15.9277   20.6747 C   0  0  2  0  0  0  0  0  0  0  0  0
    5.3265  -16.0176   20.4046 N   0  0  0  0  0  0  0  0  0  0  0  0
    6.9927  -16.4904   22.0116 C   0  0  0  0  0  0  0  0  0  0  0  0
    6.1924  -16.1977   22.9725 O   0  0  0  0  0  0  0  0  0  0  0  0
    8.0330  -17.3759   22.4004 N   0  0  0  0  0  0  0  0  0  0  0  0
    8.3454  -17.6475   23.7969 C   0  0  1  0  0  0  0  0  0  0  0  0
    8.0686  -19.1491   23.9354 C   0  0  0  0  0  0  0  0  0  0  0  0
    7.0778  -19.5089   24.9729 C   0  0  0  0  0  0  0  0  0  0  0  0
    7.0071  -21.0491   24.9800 C   0  0  0  0  0  0  0  0  0  0  0  0
    6.0091  -21.5137   26.0187 C   0  0  0  0  0  0  0  0  0  0  0  0
    6.0364  -22.9648   26.0195 N   0  0  0  0  0  0  0  0  0  0  0  0
    9.7146  -17.3271   24.1843 C   0  0  0  0  0  0  0  0  0  0  0  0
   10.5814  -18.2649   24.1092 O   0  0  0  0  0  0  0  0  0  0  0  0
    9.7624  -12.2544   28.4719 C   0  0  0  0  0  0  0  0  0  0  0  0
    9.8288  -13.8675   29.2572 S   0  0  0  0  0  0  0  0  0  0  0  0
   10.7271  -15.0411   28.1983 C   0  0  0  0  0  0  0  0  0  0  0  0
   10.0050  -15.1555   26.8542 C   0  0  0  0  0  0  0  0  0  0  0  0
   10.8596  -15.9915   25.9198 C   0  0  2  0  0  0  0  0  0  0  0  0
   10.1959  -16.0878   24.6360 N   0  0  0  0  0  0  0  0  0  0  0  0
   11.0957  -17.3385   26.4475 C   0  0  0  0  0  0  0  0  0  0  0  0
   12.3800  -17.7396   26.8364 O   0  0  0  0  0  0  0  0  0  0  0  0
   10.1543  -18.1516   26.5589 O   0  0  0  0  0  0  0  0  0  0  0  0
  2  1  1  0
  3  2  1  0
  4  3  1  0
  4  5  1  0
  5  7  1  0
  5  6  1  1
  7  8  2  0
  9 10  1  0
  9  7  1  0
 10 11  1  6
 11 12  1  0
 12 13  1  0
 13 14  1  0
 14 15  1  0
 16 17  2  0
 16 10  1  0
 18 19  1  0
 19 20  1  0
 20 21  1  0
 22 21  1  1
 22 24  1  0
 22 23  1  0
 23 16  1  0
 24 25  1  0
 26 24  2  0
M  END
$$$$
