MKM.pdb
     RDKit          3D

 26 25  0  0  1  0  0  0  0  0999 V2000
    8.4848  -11.5533   19.7630 C   0  0  0  0  0  0  0  0  0  0  0  0
    7.4867  -12.4149   18.5208 S   0  0  0  0  0  0  0  0  0  0  0  0
    7.9862  -14.1796   18.4035 C   0  0  0  0  0  0  0  0  0  0  0  0
    7.5942  -14.8149   19.6957 C   0  0  0  0  0  0  0  0  0  0  0  0
    8.6023  -15.7184   20.3173 C   0  0  2  0  0  0  0  0  0  0  0  0
    8.6633  -16.8986   19.4214 N   0  0  0  0  0  0  0  0  0  0  0  0
    8.2825  -16.2269   21.6542 C   0  0  0  0  0  0  0  0  0  0  0  0
    7.9126  -15.4213   22.5837 O   0  0  0  0  0  0  0  0  0  0  0  0
    8.3299  -17.5826   22.0755 N   0  0  0  0  0  0  0  0  0  0  0  0
    8.0993  -17.9788   23.4580 C   0  0  1  0  0  0  0  0  0  0  0  0
    8.6523  -19.4076   23.5131 C   0  0  0  0  0  0  0  0  0  0  0  0
    8.6296  -20.0355   24.8522 C   0  0  0  0  0  0  0  0  0  0  0  0
    7.2071  -20.6017   25.0342 C   0  0  0  0  0  0  0  0  0  0  0  0
    7.1048  -21.3185   26.3633 C   0  0  0  0  0  0  0  0  0  0  0  0
    5.7715  -21.8866   26.4417 N   0  0  0  0  0  0  0  0  0  0  0  0
    8.7466  -17.1256   24.4482 C   0  0  0  0  0  0  0  0  0  0  0  0
    9.9621  -16.7912   24.2311 O   0  0  0  0  0  0  0  0  0  0  0  0
    6.1838  -11.6627   25.5993 C   0  0  0  0  0  0  0  0  0  0  0  0
    6.9580  -11.8786   27.2047 S   0  0  0  0  0  0  0  0  0  0  0  0
    8.2248  -13.1798   27.1173 C   0  0  0  0  0  0  0  0  0  0  0  0
    7.6400  -14.3997   26.4024 C   0  0  0  0  0  0  0  0  0  0  0  0
    8.7344  -15.4404   26.2557 C   0  0  2  0  0  0  0  0  0  0  0  0
    8.1780  -16.6220   25.6292 N   0  0  0  0  0  0  0  0  0  0  0  0
    9.3227  -15.8061   27.5474 C   0  0  0  0  0  0  0  0  0  0  0  0
    9.2897  -17.1314   27.9991 O   0  0  0  0  0  0  0  0  0  0  0  0
    9.8637  -14.9407   28.2673 O   0  0  0  0  0  0  0  0  0  0  0  0
  2  1  1  0
  3  2  1  0
  4  3  1  0
  4  5  1  0
  5  7  1  0
  5  6  1  6
  7  8  2  0
  9 10  1  0
  9  7  1  0
 10 11  1  6
 11 12  1  0
 12 13  1  0
 13 14  1  0
 14 15  1  0
 16 17  2  0
 16 10  1  0
 18 19  1  0
 19 20  1  0
 20 21  1  0
 22 21  1  1
 22 24  1  0
 22 23  1  0
 23 16  1  0
 24 25  1  0
 26 24  2  0
M  END
$$$$
