MKM.pdb
     RDKit          3D

 26 25  0  0  1  0  0  0  0  0999 V2000
    6.2124  -11.6494   25.5045 C   0  0  0  0  0  0  0  0  0  0  0  0
    6.1351  -12.4792   27.1129 S   0  0  0  0  0  0  0  0  0  0  0  0
    6.1529  -14.3043   26.8981 C   0  0  0  0  0  0  0  0  0  0  0  0
    5.8357  -14.5624   25.4629 C   0  0  0  0  0  0  0  0  0  0  0  0
    5.9783  -15.9713   25.0005 C   0  0  2  0  0  0  0  0  0  0  0  0
    6.0619  -16.7759   26.2434 N   0  0  0  0  0  0  0  0  0  0  0  0
    7.1811  -16.2813   24.2224 C   0  0  0  0  0  0  0  0  0  0  0  0
    8.1402  -16.9531   24.7500 O   0  0  0  0  0  0  0  0  0  0  0  0
    7.4328  -15.9120   22.8741 N   0  0  0  0  0  0  0  0  0  0  0  0
    8.6850  -16.2260   22.1997 C   0  0  1  0  0  0  0  0  0  0  0  0
    8.5240  -15.5608   20.8278 C   0  0  0  0  0  0  0  0  0  0  0  0
    9.6167  -15.8332   19.8689 C   0  0  0  0  0  0  0  0  0  0  0  0
    9.2651  -17.1719   19.1898 C   0  0  0  0  0  0  0  0  0  0  0  0
   10.1086  -17.3554   17.9465 C   0  0  0  0  0  0  0  0  0  0  0  0
   11.3989  -17.8628   18.3757 N   0  0  0  0  0  0  0  0  0  0  0  0
    9.8788  -15.7406   22.8828 C   0  0  0  0  0  0  0  0  0  0  0  0
    9.9882  -14.4768   23.0483 O   0  0  0  0  0  0  0  0  0  0  0  0
   10.4989  -15.9102   28.9887 C   0  0  0  0  0  0  0  0  0  0  0  0
   11.2036  -14.5080   28.1167 S   0  0  0  0  0  0  0  0  0  0  0  0
   12.1059  -15.0771   26.6445 C   0  0  0  0  0  0  0  0  0  0  0  0
   11.0992  -15.5331   25.5864 C   0  0  0  0  0  0  0  0  0  0  0  0
   11.8636  -15.9420   24.3411 C   0  0  2  0  0  0  0  0  0  0  0  0
   10.9360  -16.5147   23.3873 N   0  0  0  0  0  0  0  0  0  0  0  0
   12.9187  -16.9152   24.6379 C   0  0  0  0  0  0  0  0  0  0  0  0
   14.1171  -16.5102   25.2391 O   0  0  0  0  0  0  0  0  0  0  0  0
   12.7662  -18.1230   24.3591 O   0  0  0  0  0  0  0  0  0  0  0  0
  2  1  1  0
  3  2  1  0
  4  3  1  0
  4  5  1  0
  5  7  1  0
  5  6  1  1
  7  8  2  0
  9 10  1  0
  9  7  1  0
 10 11  1  6
 11 12  1  0
 12 13  1  0
 13 14  1  0
 14 15  1  0
 16 17  2  0
 16 10  1  0
 18 19  1  0
 19 20  1  0
 20 21  1  0
 22 21  1  1
 22 24  1  0
 22 23  1  0
 23 16  1  0
 24 25  1  0
 26 24  2  0
M  END
$$$$
