MKM.pdb
     RDKit          3D

 26 25  0  0  1  0  0  0  0  0999 V2000
    8.2200  -11.7837   20.5850 C   0  0  0  0  0  0  0  0  0  0  0  0
    7.8136  -12.3433   18.9107 S   0  0  0  0  0  0  0  0  0  0  0  0
    7.8725  -14.1775   18.8121 C   0  0  0  0  0  0  0  0  0  0  0  0
    8.2922  -14.6584   20.1611 C   0  0  0  0  0  0  0  0  0  0  0  0
    8.3937  -16.1348   20.3312 C   0  0  2  0  0  0  0  0  0  0  0  0
    7.0644  -16.6586   19.9340 N   0  0  0  0  0  0  0  0  0  0  0  0
    8.6408  -16.6165   21.6932 C   0  0  0  0  0  0  0  0  0  0  0  0
    7.6743  -16.7099   22.5340 O   0  0  0  0  0  0  0  0  0  0  0  0
    9.8914  -17.0210   22.2318 N   0  0  0  0  0  0  0  0  0  0  0  0
   10.0415  -17.4588   23.6128 C   0  0  1  0  0  0  0  0  0  0  0  0
   11.2935  -18.3427   23.5692 C   0  0  0  0  0  0  0  0  0  0  0  0
   11.1464  -19.5973   22.7997 C   0  0  0  0  0  0  0  0  0  0  0  0
   12.5228  -20.2906   22.8464 C   0  0  0  0  0  0  0  0  0  0  0  0
   12.4552  -21.6179   22.1221 C   0  0  0  0  0  0  0  0  0  0  0  0
   13.7888  -22.1898   22.1513 N   0  0  0  0  0  0  0  0  0  0  0  0
   10.1953  -16.3760   24.5778 C   0  0  0  0  0  0  0  0  0  0  0  0
   10.4399  -15.2081   24.1166 O   0  0  0  0  0  0  0  0  0  0  0  0
    6.8958  -11.3562   25.9172 C   0  0  0  0  0  0  0  0  0  0  0  0
    6.7490  -12.7265   27.0678 S   0  0  0  0  0  0  0  0  0  0  0  0
    8.3853  -13.4516   27.3876 C   0  0  0  0  0  0  0  0  0  0  0  0
    8.5678  -14.6847   26.5004 C   0  0  0  0  0  0  0  0  0  0  0  0
    9.9381  -15.2754   26.7754 C   0  0  2  0  0  0  0  0  0  0  0  0
   10.1031  -16.4717   25.9756 N   0  0  0  0  0  0  0  0  0  0  0  0
   10.1199  -15.6080   28.1912 C   0  0  0  0  0  0  0  0  0  0  0  0
   10.2909  -14.5987   29.1471 O   0  0  0  0  0  0  0  0  0  0  0  0
   10.1253  -16.7984   28.5690 O   0  0  0  0  0  0  0  0  0  0  0  0
  2  1  1  0
  3  2  1  0
  4  3  1  0
  4  5  1  0
  5  7  1  0
  5  6  1  1
  7  8  2  0
  9 10  1  0
  9  7  1  0
 10 11  1  6
 11 12  1  0
 12 13  1  0
 13 14  1  0
 14 15  1  0
 16 17  2  0
 16 10  1  0
 18 19  1  0
 19 20  1  0
 20 21  1  0
 22 21  1  1
 22 24  1  0
 22 23  1  0
 23 16  1  0
 24 25  1  0
 26 24  2  0
M  END
$$$$
