MKM.pdb
     RDKit          3D

 26 25  0  0  1  0  0  0  0  0999 V2000
   14.5684  -17.7294   21.2987 C   0  0  0  0  0  0  0  0  0  0  0  0
   14.6593  -17.4658   19.5088 S   0  0  0  0  0  0  0  0  0  0  0  0
   13.0398  -17.8308   18.7205 C   0  0  0  0  0  0  0  0  0  0  0  0
   11.9926  -17.3332   19.6600 C   0  0  0  0  0  0  0  0  0  0  0  0
   10.5799  -17.6118   19.2782 C   0  0  2  0  0  0  0  0  0  0  0  0
   10.3047  -16.7035   18.1386 N   0  0  0  0  0  0  0  0  0  0  0  0
    9.5634  -17.3245   20.2942 C   0  0  0  0  0  0  0  0  0  0  0  0
    9.0854  -16.1387   20.4170 O   0  0  0  0  0  0  0  0  0  0  0  0
    9.0038  -18.2509   21.2142 N   0  0  0  0  0  0  0  0  0  0  0  0
    7.9041  -17.9009   22.1028 C   0  0  1  0  0  0  0  0  0  0  0  0
    7.3056  -19.2617   22.4774 C   0  0  0  0  0  0  0  0  0  0  0  0
    6.1938  -19.2088   23.4515 C   0  0  0  0  0  0  0  0  0  0  0  0
    5.6881  -20.6576   23.6014 C   0  0  0  0  0  0  0  0  0  0  0  0
    4.5247  -20.6991   24.5687 C   0  0  0  0  0  0  0  0  0  0  0  0
    4.0398  -22.0668   24.5965 N   0  0  0  0  0  0  0  0  0  0  0  0
    8.3006  -17.1552   23.2920 C   0  0  0  0  0  0  0  0  0  0  0  0
    9.4183  -17.4629   23.8330 O   0  0  0  0  0  0  0  0  0  0  0  0
    6.6170  -11.4561   25.4159 C   0  0  0  0  0  0  0  0  0  0  0  0
    7.1349  -12.0808   27.0173 S   0  0  0  0  0  0  0  0  0  0  0  0
    7.6684  -13.8126   26.8695 C   0  0  0  0  0  0  0  0  0  0  0  0
    7.1810  -14.3734   25.5320 C   0  0  0  0  0  0  0  0  0  0  0  0
    8.1061  -15.5032   25.1195 C   0  0  2  0  0  0  0  0  0  0  0  0
    7.5845  -16.1227   23.9185 N   0  0  0  0  0  0  0  0  0  0  0  0
    8.2399  -16.5162   26.1704 C   0  0  0  0  0  0  0  0  0  0  0  0
    7.3935  -17.6315   26.2011 O   0  0  0  0  0  0  0  0  0  0  0  0
    9.1121  -16.4010   27.0570 O   0  0  0  0  0  0  0  0  0  0  0  0
  2  1  1  0
  3  2  1  0
  4  3  1  0
  4  5  1  0
  5  7  1  0
  5  6  1  6
  7  8  2  0
  9 10  1  0
  9  7  1  0
 10 11  1  1
 11 12  1  0
 12 13  1  0
 13 14  1  0
 14 15  1  0
 16 17  2  0
 16 10  1  0
 18 19  1  0
 19 20  1  0
 20 21  1  0
 22 21  1  1
 22 24  1  0
 22 23  1  0
 23 16  1  0
 24 25  1  0
 26 24  2  0
M  END
$$$$
