MKM.pdb
     RDKit          3D

 26 25  0  0  1  0  0  0  0  0999 V2000
    6.7510  -12.0944   27.0162 C   0  0  0  0  0  0  0  0  0  0  0  0
    5.6756  -13.4357   26.4454 S   0  0  0  0  0  0  0  0  0  0  0  0
    6.5374  -15.0535   26.5777 C   0  0  0  0  0  0  0  0  0  0  0  0
    5.6059  -16.0741   26.0141 C   0  0  0  0  0  0  0  0  0  0  0  0
    6.2178  -17.1096   25.1353 C   0  0  2  0  0  0  0  0  0  0  0  0
    6.8751  -18.0607   26.0641 N   0  0  0  0  0  0  0  0  0  0  0  0
    7.2562  -16.6460   24.2106 C   0  0  0  0  0  0  0  0  0  0  0  0
    8.4320  -17.1619   24.2434 O   0  0  0  0  0  0  0  0  0  0  0  0
    7.1155  -15.6380   23.2197 N   0  0  0  0  0  0  0  0  0  0  0  0
    8.1651  -15.3401   22.2549 C   0  0  1  0  0  0  0  0  0  0  0  0
    7.6025  -14.1436   21.4788 C   0  0  0  0  0  0  0  0  0  0  0  0
    8.5357  -13.5349   20.5060 C   0  0  0  0  0  0  0  0  0  0  0  0
    7.7414  -13.3761   19.1941 C   0  0  0  0  0  0  0  0  0  0  0  0
    8.5882  -12.6615   18.1631 C   0  0  0  0  0  0  0  0  0  0  0  0
    7.8240  -12.6289   16.9296 N   0  0  0  0  0  0  0  0  0  0  0  0
    9.4592  -15.0213   22.8474 C   0  0  0  0  0  0  0  0  0  0  0  0
    9.5817  -13.8803   23.4126 O   0  0  0  0  0  0  0  0  0  0  0  0
   11.0999  -13.3425   28.1299 C   0  0  0  0  0  0  0  0  0  0  0  0
   11.4367  -15.0895   27.8901 S   0  0  0  0  0  0  0  0  0  0  0  0
   12.1607  -15.3661   26.2454 C   0  0  0  0  0  0  0  0  0  0  0  0
   11.0336  -15.5076   25.2204 C   0  0  0  0  0  0  0  0  0  0  0  0
   11.6508  -15.5915   23.8368 C   0  0  2  0  0  0  0  0  0  0  0  0
   10.6018  -15.8372   22.8686 N   0  0  0  0  0  0  0  0  0  0  0  0
   12.6553  -16.6550   23.7460 C   0  0  0  0  0  0  0  0  0  0  0  0
   13.9926  -16.4064   24.0795 O   0  0  0  0  0  0  0  0  0  0  0  0
   12.3347  -17.8018   23.3691 O   0  0  0  0  0  0  0  0  0  0  0  0
  2  1  1  0
  3  2  1  0
  4  3  1  0
  4  5  1  0
  5  7  1  0
  5  6  1  1
  7  8  2  0
  9 10  1  0
  9  7  1  0
 10 11  1  1
 11 12  1  0
 12 13  1  0
 13 14  1  0
 14 15  1  0
 16 17  2  0
 16 10  1  0
 18 19  1  0
 19 20  1  0
 20 21  1  0
 22 21  1  1
 22 24  1  0
 22 23  1  0
 23 16  1  0
 24 25  1  0
 26 24  2  0
M  END
$$$$
