HFF.pdb
     RDKit          3D

 33 35  0  0  1  0  0  0  0  0999 V2000
   10.4176  -16.9100   19.9241 N   0  0  0  0  0  0  0  0  0  0  0  0
    9.2614  -17.0888   20.7919 C   0  0  1  0  0  0  0  0  0  0  0  0
    9.3551  -18.4517   21.4905 C   0  0  0  0  0  0  0  0  0  0  0  0
    9.0389  -19.5357   20.5580 C   0  0  0  0  0  0  0  0  0  0  0  0
    7.7622  -20.0128   20.2754 C   0  0  0  0  0  0  0  0  0  0  0  0
    7.8995  -21.0057   19.3800 N   0  0  0  0  0  0  0  0  0  0  0  0
    9.2089  -21.1565   19.1028 C   0  0  0  0  0  0  0  0  0  0  0  0
    9.8891  -20.2563   19.8255 N   0  0  0  0  0  0  0  0  0  0  0  0
    9.4321  -16.0925   21.8975 C   0  0  0  0  0  0  0  0  0  0  0  0
   10.5360  -15.7548   22.3356 O   0  0  0  0  0  0  0  0  0  0  0  0
    8.2783  -15.4961   22.4825 N   0  0  0  0  0  0  0  0  0  0  0  0
    8.2966  -14.8331   23.7530 C   0  0  1  0  0  0  0  0  0  0  0  0
    7.0831  -13.9523   23.9614 C   0  0  0  0  0  0  0  0  0  0  0  0
    7.1223  -13.1680   25.2146 C   0  0  0  0  0  0  0  0  0  0  0  0
    7.7136  -11.9113   25.2368 C   0  0  0  0  0  0  0  0  0  0  0  0
    7.7623  -11.1326   26.3590 C   0  0  0  0  0  0  0  0  0  0  0  0
    7.2133  -11.5918   27.5140 C   0  0  0  0  0  0  0  0  0  0  0  0
    6.6153  -12.8303   27.5494 C   0  0  0  0  0  0  0  0  0  0  0  0
    6.5724  -13.6101   26.4002 C   0  0  0  0  0  0  0  0  0  0  0  0
    8.6194  -15.6973   24.9055 C   0  0  0  0  0  0  0  0  0  0  0  0
    7.8401  -16.6487   25.2670 O   0  0  0  0  0  0  0  0  0  0  0  0
    9.8193  -15.4458   25.6061 N   0  0  0  0  0  0  0  0  0  0  0  0
   10.2730  -16.2545   26.7112 C   0  0  1  0  0  0  0  0  0  0  0  0
   11.6925  -16.6800   26.3694 C   0  0  0  0  0  0  0  0  0  0  0  0
   11.7972  -17.4675   25.1602 C   0  0  0  0  0  0  0  0  0  0  0  0
   12.1104  -16.8151   23.9850 C   0  0  0  0  0  0  0  0  0  0  0  0
   12.2419  -17.5276   22.7868 C   0  0  0  0  0  0  0  0  0  0  0  0
   12.0606  -18.8733   22.7810 C   0  0  0  0  0  0  0  0  0  0  0  0
   11.7422  -19.5699   23.9508 C   0  0  0  0  0  0  0  0  0  0  0  0
   11.6192  -18.8164   25.1323 C   0  0  0  0  0  0  0  0  0  0  0  0
   10.1518  -15.5224   27.9541 C   0  0  0  0  0  0  0  0  0  0  0  0
    9.7001  -14.2109   27.9559 O   0  0  0  0  0  0  0  0  0  0  0  0
   10.4450  -16.0322   29.0807 O   0  0  0  0  0  0  0  0  0  0  0  0
  2  1  1  6
  2  3  1  0
  4  3  1  0
  5  4  2  0
  6  7  1  0
  6  5  1  0
  7  8  2  0
  8  4  1  0
  9 11  1  0
  9  2  1  0
 10  9  2  0
 12 11  1  0
 12 13  1  1
 13 14  1  0
 14 19  1  0
 15 14  2  0
 15 16  1  0
 16 17  2  0
 17 18  1  0
 19 18  2  0
 20 12  1  0
 21 20  2  0
 22 20  1  0
 23 31  1  0
 23 22  1  0
 23 24  1  6
 25 24  1  0
 25 26  2  0
 27 26  1  0
 28 27  2  0
 29 30  2  0
 29 28  1  0
 30 25  1  0
 31 32  1  0
 33 31  2  0
M  END
$$$$
