HFF.pdb
     RDKit          3D

 33 35  0  0  1  0  0  0  0  0999 V2000
   11.5333  -16.8396   19.8972 N   0  0  0  0  0  0  0  0  0  0  0  0
   10.6082  -17.6041   20.7227 C   0  0  1  0  0  0  0  0  0  0  0  0
   11.2980  -18.8864   21.2065 C   0  0  0  0  0  0  0  0  0  0  0  0
   10.4855  -20.0633   20.8917 C   0  0  0  0  0  0  0  0  0  0  0  0
    9.2349  -20.0429   20.2808 C   0  0  0  0  0  0  0  0  0  0  0  0
    8.8250  -21.3184   20.1745 N   0  0  0  0  0  0  0  0  0  0  0  0
    9.7738  -22.1197   20.6958 C   0  0  0  0  0  0  0  0  0  0  0  0
   10.7769  -21.3433   21.1272 N   0  0  0  0  0  0  0  0  0  0  0  0
   10.4175  -16.7929   21.9676 C   0  0  0  0  0  0  0  0  0  0  0  0
   11.3579  -16.3400   22.6273 O   0  0  0  0  0  0  0  0  0  0  0  0
    9.0967  -16.5208   22.4267 N   0  0  0  0  0  0  0  0  0  0  0  0
    8.8180  -15.8612   23.6681 C   0  0  1  0  0  0  0  0  0  0  0  0
    7.5726  -15.0032   23.5983 C   0  0  0  0  0  0  0  0  0  0  0  0
    7.3432  -14.1837   24.8079 C   0  0  0  0  0  0  0  0  0  0  0  0
    6.2958  -13.2723   24.8488 C   0  0  0  0  0  0  0  0  0  0  0  0
    6.0229  -12.5025   25.9447 C   0  0  0  0  0  0  0  0  0  0  0  0
    6.8002  -12.6201   27.0529 C   0  0  0  0  0  0  0  0  0  0  0  0
    7.8521  -13.5068   27.0673 C   0  0  0  0  0  0  0  0  0  0  0  0
    8.1166  -14.2835   25.9461 C   0  0  0  0  0  0  0  0  0  0  0  0
    8.8905  -16.7225   24.8647 C   0  0  0  0  0  0  0  0  0  0  0  0
    7.9590  -17.5573   25.1452 O   0  0  0  0  0  0  0  0  0  0  0  0
   10.0222  -16.6011   25.7004 N   0  0  0  0  0  0  0  0  0  0  0  0
   10.5758  -17.7053   26.4458 C   0  0  1  0  0  0  0  0  0  0  0  0
   10.7484  -17.2083   27.8727 C   0  0  0  0  0  0  0  0  0  0  0  0
   10.7315  -15.7672   28.0014 C   0  0  0  0  0  0  0  0  0  0  0  0
    9.9199  -15.2109   28.9692 C   0  0  0  0  0  0  0  0  0  0  0  0
    9.8754  -13.8233   29.1514 C   0  0  0  0  0  0  0  0  0  0  0  0
   10.6387  -13.0173   28.3693 C   0  0  0  0  0  0  0  0  0  0  0  0
   11.4733  -13.5430   27.3784 C   0  0  0  0  0  0  0  0  0  0  0  0
   11.4881  -14.9416   27.2281 C   0  0  0  0  0  0  0  0  0  0  0  0
    9.7302  -18.8732   26.3183 C   0  0  0  0  0  0  0  0  0  0  0  0
    8.5842  -18.8292   25.5378 O   0  0  0  0  0  0  0  0  0  0  0  0
    9.9889  -19.9730   26.9001 O   0  0  0  0  0  0  0  0  0  0  0  0
  2  1  1  6
  2  3  1  0
  4  3  1  0
  5  4  2  0
  6  7  1  0
  6  5  1  0
  7  8  2  0
  8  4  1  0
  9 11  1  0
  9  2  1  0
 10  9  2  0
 12 11  1  0
 12 13  1  6
 13 14  1  0
 14 19  1  0
 15 14  2  0
 15 16  1  0
 16 17  2  0
 17 18  1  0
 19 18  2  0
 20 12  1  0
 21 20  2  0
 22 20  1  0
 23 31  1  0
 23 22  1  0
 23 24  1  1
 25 24  1  0
 25 26  2  0
 27 26  1  0
 28 27  2  0
 29 30  2  0
 29 28  1  0
 30 25  1  0
 31 32  1  0
 33 31  2  0
M  END
$$$$
