HFF.pdb
     RDKit          3D

 33 35  0  0  1  0  0  0  0  0999 V2000
    5.9346  -17.7436   18.0189 N   0  0  0  0  0  0  0  0  0  0  0  0
    6.7624  -18.2847   19.0884 C   0  0  1  0  0  0  0  0  0  0  0  0
    8.1668  -18.5798   18.5453 C   0  0  0  0  0  0  0  0  0  0  0  0
    8.1676  -19.8085   17.7487 C   0  0  0  0  0  0  0  0  0  0  0  0
    7.0492  -20.3915   17.1598 C   0  0  0  0  0  0  0  0  0  0  0  0
    7.4677  -21.5001   16.5257 N   0  0  0  0  0  0  0  0  0  0  0  0
    8.7975  -21.6202   16.7024 C   0  0  0  0  0  0  0  0  0  0  0  0
    9.2091  -20.5852   17.4470 N   0  0  0  0  0  0  0  0  0  0  0  0
    6.9661  -17.1535   20.0492 C   0  0  0  0  0  0  0  0  0  0  0  0
    7.1418  -15.9860   19.6877 O   0  0  0  0  0  0  0  0  0  0  0  0
    6.9593  -17.4182   21.4489 N   0  0  0  0  0  0  0  0  0  0  0  0
    7.3321  -16.4452   22.4330 C   0  0  1  0  0  0  0  0  0  0  0  0
    6.3262  -16.3509   23.5604 C   0  0  0  0  0  0  0  0  0  0  0  0
    6.7090  -15.3977   24.6244 C   0  0  0  0  0  0  0  0  0  0  0  0
    7.5473  -15.7991   25.6566 C   0  0  0  0  0  0  0  0  0  0  0  0
    7.9509  -14.9584   26.6558 C   0  0  0  0  0  0  0  0  0  0  0  0
    7.5228  -13.6687   26.6562 C   0  0  0  0  0  0  0  0  0  0  0  0
    6.6901  -13.2175   25.6583 C   0  0  0  0  0  0  0  0  0  0  0  0
    6.2892  -14.0836   24.6485 C   0  0  0  0  0  0  0  0  0  0  0  0
    8.7364  -16.5155   22.8823 C   0  0  0  0  0  0  0  0  0  0  0  0
    9.2658  -17.6231   23.2513 O   0  0  0  0  0  0  0  0  0  0  0  0
    9.4879  -15.3202   22.8960 N   0  0  0  0  0  0  0  0  0  0  0  0
   10.9284  -15.2918   22.8229 C   0  0  1  0  0  0  0  0  0  0  0  0
   11.2927  -13.9696   22.1657 C   0  0  0  0  0  0  0  0  0  0  0  0
   10.5156  -13.6645   20.9840 C   0  0  0  0  0  0  0  0  0  0  0  0
   10.8568  -14.2910   19.8025 C   0  0  0  0  0  0  0  0  0  0  0  0
   10.1300  -14.0479   18.6305 C   0  0  0  0  0  0  0  0  0  0  0  0
    9.0790  -13.1885   18.6569 C   0  0  0  0  0  0  0  0  0  0  0  0
    8.7027  -12.5347   19.8341 C   0  0  0  0  0  0  0  0  0  0  0  0
    9.4592  -12.8066   20.9884 C   0  0  0  0  0  0  0  0  0  0  0  0
   11.5032  -15.4839   24.1374 C   0  0  0  0  0  0  0  0  0  0  0  0
   10.6855  -15.5991   25.2520 O   0  0  0  0  0  0  0  0  0  0  0  0
   12.7569  -15.5562   24.3328 O   0  0  0  0  0  0  0  0  0  0  0  0
  2  1  1  6
  2  3  1  0
  4  3  1  0
  5  4  2  0
  6  7  1  0
  6  5  1  0
  7  8  2  0
  8  4  1  0
  9 11  1  0
  9  2  1  0
 10  9  2  0
 12 11  1  0
 12 13  1  1
 13 14  1  0
 14 19  1  0
 15 14  2  0
 15 16  1  0
 16 17  2  0
 17 18  1  0
 19 18  2  0
 20 12  1  0
 21 20  2  0
 22 20  1  0
 23 31  1  0
 23 22  1  0
 23 24  1  1
 25 24  1  0
 25 26  2  0
 27 26  1  0
 28 27  2  0
 29 30  2  0
 29 28  1  0
 30 25  1  0
 31 32  1  0
 33 31  2  0
M  END
$$$$
