HFF.pdb
     RDKit          3D

 33 35  0  0  1  0  0  0  0  0999 V2000
    9.6154  -15.8885   19.9306 N   0  0  0  0  0  0  0  0  0  0  0  0
    9.7214  -17.0558   20.7954 C   0  0  1  0  0  0  0  0  0  0  0  0
   11.1828  -17.5208   20.8460 C   0  0  0  0  0  0  0  0  0  0  0  0
   11.5737  -18.1428   19.5793 C   0  0  0  0  0  0  0  0  0  0  0  0
   10.7780  -18.9922   18.8157 C   0  0  0  0  0  0  0  0  0  0  0  0
   11.4986  -19.3487   17.7388 N   0  0  0  0  0  0  0  0  0  0  0  0
   12.7041  -18.7522   17.8117 C   0  0  0  0  0  0  0  0  0  0  0  0
   12.7352  -18.0225   18.9349 N   0  0  0  0  0  0  0  0  0  0  0  0
    9.4429  -16.5558   22.1798 C   0  0  0  0  0  0  0  0  0  0  0  0
    9.9616  -15.5364   22.6450 O   0  0  0  0  0  0  0  0  0  0  0  0
    8.5396  -17.2768   23.0126 N   0  0  0  0  0  0  0  0  0  0  0  0
    8.2396  -16.8936   24.3606 C   0  0  1  0  0  0  0  0  0  0  0  0
    6.7775  -16.5500   24.5506 C   0  0  0  0  0  0  0  0  0  0  0  0
    6.5461  -15.1747   25.0429 C   0  0  0  0  0  0  0  0  0  0  0  0
    6.9434  -14.0820   24.2830 C   0  0  0  0  0  0  0  0  0  0  0  0
    6.7387  -12.7892   24.6764 C   0  0  0  0  0  0  0  0  0  0  0  0
    6.1207  -12.5423   25.8611 C   0  0  0  0  0  0  0  0  0  0  0  0
    5.7069  -13.5872   26.6547 C   0  0  0  0  0  0  0  0  0  0  0  0
    5.9210  -14.8962   26.2409 C   0  0  0  0  0  0  0  0  0  0  0  0
    8.7899  -17.7839   25.4017 C   0  0  0  0  0  0  0  0  0  0  0  0
    8.7630  -19.0590   25.2737 O   0  0  0  0  0  0  0  0  0  0  0  0
    9.3507  -17.1889   26.5529 N   0  0  0  0  0  0  0  0  0  0  0  0
    9.7959  -17.9471   27.6967 C   0  0  1  0  0  0  0  0  0  0  0  0
   10.6656  -17.0060   28.5156 C   0  0  0  0  0  0  0  0  0  0  0  0
   11.1338  -15.8489   27.7839 C   0  0  0  0  0  0  0  0  0  0  0  0
   11.9269  -16.0593   26.6741 C   0  0  0  0  0  0  0  0  0  0  0  0
   12.3953  -14.9786   25.9169 C   0  0  0  0  0  0  0  0  0  0  0  0
   12.0652  -13.7116   26.2771 C   0  0  0  0  0  0  0  0  0  0  0  0
   11.2642  -13.4579   27.3947 C   0  0  0  0  0  0  0  0  0  0  0  0
   10.8152  -14.5713   28.1277 C   0  0  0  0  0  0  0  0  0  0  0  0
    8.6614  -18.4885   28.4145 C   0  0  0  0  0  0  0  0  0  0  0  0
    8.8512  -19.3903   29.4513 O   0  0  0  0  0  0  0  0  0  0  0  0
    7.4619  -18.1718   28.1388 O   0  0  0  0  0  0  0  0  0  0  0  0
  2  1  1  6
  2  3  1  0
  4  3  1  0
  5  4  2  0
  6  7  1  0
  6  5  1  0
  7  8  2  0
  8  4  1  0
  9 11  1  0
  9  2  1  0
 10  9  2  0
 12 11  1  0
 12 13  1  6
 13 14  1  0
 14 19  1  0
 15 14  2  0
 15 16  1  0
 16 17  2  0
 17 18  1  0
 19 18  2  0
 20 12  1  0
 21 20  2  0
 22 20  1  0
 23 31  1  0
 23 22  1  0
 23 24  1  1
 25 24  1  0
 25 26  2  0
 27 26  1  0
 28 27  2  0
 29 30  2  0
 29 28  1  0
 30 25  1  0
 31 32  1  0
 33 31  2  0
M  END
$$$$
