HFF.pdb
     RDKit          3D

 33 35  0  0  1  0  0  0  0  0999 V2000
   10.4199  -17.9842   20.1901 N   0  0  0  0  0  0  0  0  0  0  0  0
   10.7144  -16.5602   20.2765 C   0  0  1  0  0  0  0  0  0  0  0  0
    9.9716  -15.8180   19.1577 C   0  0  0  0  0  0  0  0  0  0  0  0
   10.3364  -16.3572   17.8460 C   0  0  0  0  0  0  0  0  0  0  0  0
   11.6334  -16.4910   17.3587 C   0  0  0  0  0  0  0  0  0  0  0  0
   11.5411  -17.0174   16.1255 N   0  0  0  0  0  0  0  0  0  0  0  0
   10.2398  -17.2113   15.8373 C   0  0  0  0  0  0  0  0  0  0  0  0
    9.5196  -16.8061   16.8919 N   0  0  0  0  0  0  0  0  0  0  0  0
   10.0538  -16.0899   21.5361 C   0  0  0  0  0  0  0  0  0  0  0  0
   10.0177  -14.9032   21.8753 O   0  0  0  0  0  0  0  0  0  0  0  0
    9.4325  -17.0419   22.3946 N   0  0  0  0  0  0  0  0  0  0  0  0
    8.9759  -16.7261   23.7159 C   0  0  1  0  0  0  0  0  0  0  0  0
    7.4663  -16.6519   23.8019 C   0  0  0  0  0  0  0  0  0  0  0  0
    6.9639  -15.4099   24.4282 C   0  0  0  0  0  0  0  0  0  0  0  0
    6.2365  -15.4654   25.6102 C   0  0  0  0  0  0  0  0  0  0  0  0
    5.7640  -14.3512   26.2451 C   0  0  0  0  0  0  0  0  0  0  0  0
    6.0065  -13.1256   25.7109 C   0  0  0  0  0  0  0  0  0  0  0  0
    6.7212  -13.0118   24.5408 C   0  0  0  0  0  0  0  0  0  0  0  0
    7.1962  -14.1536   23.9073 C   0  0  0  0  0  0  0  0  0  0  0  0
    9.6037  -17.5085   24.7988 C   0  0  0  0  0  0  0  0  0  0  0  0
   10.1318  -18.6550   24.5759 O   0  0  0  0  0  0  0  0  0  0  0  0
    9.6064  -16.9566   26.0986 N   0  0  0  0  0  0  0  0  0  0  0  0
   10.1075  -17.6597   27.2543 C   0  0  1  0  0  0  0  0  0  0  0  0
    9.9859  -16.6940   28.4227 C   0  0  0  0  0  0  0  0  0  0  0  0
   10.4637  -15.3586   28.1363 C   0  0  0  0  0  0  0  0  0  0  0  0
   11.7953  -15.2013   27.8094 C   0  0  0  0  0  0  0  0  0  0  0  0
   12.3104  -13.9351   27.5057 C   0  0  0  0  0  0  0  0  0  0  0  0
   11.4919  -12.8519   27.5321 C   0  0  0  0  0  0  0  0  0  0  0  0
   10.1376  -12.9707   27.8586 C   0  0  0  0  0  0  0  0  0  0  0  0
    9.6608  -14.2600   28.1573 C   0  0  0  0  0  0  0  0  0  0  0  0
    9.3945  -18.9067   27.4333 C   0  0  0  0  0  0  0  0  0  0  0  0
    9.9682  -19.9478   28.1483 O   0  0  0  0  0  0  0  0  0  0  0  0
    8.2334  -19.1063   26.9568 O   0  0  0  0  0  0  0  0  0  0  0  0
  2  1  1  6
  2  3  1  0
  4  3  1  0
  5  4  2  0
  6  7  1  0
  6  5  1  0
  7  8  2  0
  8  4  1  0
  9 11  1  0
  9  2  1  0
 10  9  2  0
 12 11  1  0
 12 13  1  6
 13 14  1  0
 14 19  1  0
 15 14  2  0
 15 16  1  0
 16 17  2  0
 17 18  1  0
 19 18  2  0
 20 12  1  0
 21 20  2  0
 22 20  1  0
 23 31  1  0
 23 22  1  0
 23 24  1  1
 25 24  1  0
 25 26  2  0
 27 26  1  0
 28 27  2  0
 29 30  2  0
 29 28  1  0
 30 25  1  0
 31 32  1  0
 33 31  2  0
M  END
$$$$
