HFF.pdb
     RDKit          3D

 33 35  0  0  1  0  0  0  0  0999 V2000
    9.3547  -17.7267   19.3633 N   0  0  0  0  0  0  0  0  0  0  0  0
    8.5073  -18.2453   20.4285 C   0  0  1  0  0  0  0  0  0  0  0  0
    8.9465  -19.6732   20.7787 C   0  0  0  0  0  0  0  0  0  0  0  0
    8.5487  -20.6112   19.7269 C   0  0  0  0  0  0  0  0  0  0  0  0
    7.8536  -20.2792   18.5675 C   0  0  0  0  0  0  0  0  0  0  0  0
    7.6807  -21.4150   17.8701 N   0  0  0  0  0  0  0  0  0  0  0  0
    8.2416  -22.4298   18.5556 C   0  0  0  0  0  0  0  0  0  0  0  0
    8.7654  -21.9264   19.6813 N   0  0  0  0  0  0  0  0  0  0  0  0
    8.8544  -17.4416   21.6442 C   0  0  0  0  0  0  0  0  0  0  0  0
    9.9931  -17.0221   21.8719 O   0  0  0  0  0  0  0  0  0  0  0  0
    7.8358  -17.1370   22.5924 N   0  0  0  0  0  0  0  0  0  0  0  0
    8.0953  -16.4758   23.8371 C   0  0  1  0  0  0  0  0  0  0  0  0
    6.8441  -15.8772   24.4439 C   0  0  0  0  0  0  0  0  0  0  0  0
    7.0613  -14.5626   25.0857 C   0  0  0  0  0  0  0  0  0  0  0  0
    8.3301  -13.9982   25.1154 C   0  0  0  0  0  0  0  0  0  0  0  0
    8.5880  -12.7787   25.6762 C   0  0  0  0  0  0  0  0  0  0  0  0
    7.5703  -12.0725   26.2346 C   0  0  0  0  0  0  0  0  0  0  0  0
    6.2932  -12.5844   26.2340 C   0  0  0  0  0  0  0  0  0  0  0  0
    6.0462  -13.8249   25.6592 C   0  0  0  0  0  0  0  0  0  0  0  0
    8.9220  -17.2402   24.7917 C   0  0  0  0  0  0  0  0  0  0  0  0
    8.6876  -18.4759   25.0392 O   0  0  0  0  0  0  0  0  0  0  0  0
    9.9867  -16.5687   25.4315 N   0  0  0  0  0  0  0  0  0  0  0  0
   10.9847  -17.2449   26.2238 C   0  0  1  0  0  0  0  0  0  0  0  0
   11.8945  -16.1583   26.7757 C   0  0  0  0  0  0  0  0  0  0  0  0
   11.2837  -15.3435   27.8035 C   0  0  0  0  0  0  0  0  0  0  0  0
   10.6890  -14.1572   27.4241 C   0  0  0  0  0  0  0  0  0  0  0  0
   10.0673  -13.3358   28.3725 C   0  0  0  0  0  0  0  0  0  0  0  0
   10.0482  -13.7103   29.6776 C   0  0  0  0  0  0  0  0  0  0  0  0
   10.6397  -14.9045   30.1008 C   0  0  0  0  0  0  0  0  0  0  0  0
   11.2536  -15.6999   29.1165 C   0  0  0  0  0  0  0  0  0  0  0  0
   10.3534  -18.0659   27.2351 C   0  0  0  0  0  0  0  0  0  0  0  0
   11.0996  -18.9795   27.9651 O   0  0  0  0  0  0  0  0  0  0  0  0
    9.1127  -17.9927   27.5005 O   0  0  0  0  0  0  0  0  0  0  0  0
  2  1  1  6
  2  3  1  0
  4  3  1  0
  5  4  2  0
  6  7  1  0
  6  5  1  0
  7  8  2  0
  8  4  1  0
  9 11  1  0
  9  2  1  0
 10  9  2  0
 12 11  1  0
 12 13  1  1
 13 14  1  0
 14 19  1  0
 15 14  2  0
 15 16  1  0
 16 17  2  0
 17 18  1  0
 19 18  2  0
 20 12  1  0
 21 20  2  0
 22 20  1  0
 23 31  1  0
 23 22  1  0
 23 24  1  1
 25 24  1  0
 25 26  2  0
 27 26  1  0
 28 27  2  0
 29 30  2  0
 29 28  1  0
 30 25  1  0
 31 32  1  0
 33 31  2  0
M  END
$$$$
