HFF.pdb
     RDKit          3D

 33 35  0  0  1  0  0  0  0  0999 V2000
    9.7913  -17.9135   18.7676 N   0  0  0  0  0  0  0  0  0  0  0  0
    8.7435  -18.0805   19.7656 C   0  0  1  0  0  0  0  0  0  0  0  0
    8.9216  -19.4322   20.4694 C   0  0  0  0  0  0  0  0  0  0  0  0
    8.2541  -20.4991   19.7208 C   0  0  0  0  0  0  0  0  0  0  0  0
    8.3810  -20.7297   18.3539 C   0  0  0  0  0  0  0  0  0  0  0  0
    7.6104  -21.7901   18.0576 N   0  0  0  0  0  0  0  0  0  0  0  0
    7.0161  -22.2187   19.1878 C   0  0  0  0  0  0  0  0  0  0  0  0
    7.4168  -21.4251   20.1902 N   0  0  0  0  0  0  0  0  0  0  0  0
    9.0373  -17.0669   20.8288 C   0  0  0  0  0  0  0  0  0  0  0  0
   10.1798  -16.6810   21.0944 O   0  0  0  0  0  0  0  0  0  0  0  0
    7.9610  -16.5109   21.5782 N   0  0  0  0  0  0  0  0  0  0  0  0
    8.1538  -15.6487   22.7066 C   0  0  1  0  0  0  0  0  0  0  0  0
    6.8557  -15.0465   23.2007 C   0  0  0  0  0  0  0  0  0  0  0  0
    7.0367  -13.9925   24.2222 C   0  0  0  0  0  0  0  0  0  0  0  0
    8.2977  -13.4652   24.4697 C   0  0  0  0  0  0  0  0  0  0  0  0
    8.5232  -12.4769   25.3864 C   0  0  0  0  0  0  0  0  0  0  0  0
    7.4794  -11.9755   26.0973 C   0  0  0  0  0  0  0  0  0  0  0  0
    6.2085  -12.4616   25.8935 C   0  0  0  0  0  0  0  0  0  0  0  0
    5.9946  -13.4657   24.9572 C   0  0  0  0  0  0  0  0  0  0  0  0
    9.0086  -16.1996   23.7766 C   0  0  0  0  0  0  0  0  0  0  0  0
    8.6268  -17.1911   24.4937 O   0  0  0  0  0  0  0  0  0  0  0  0
   10.2687  -15.5999   23.9923 N   0  0  0  0  0  0  0  0  0  0  0  0
   10.8687  -15.4702   25.2978 C   0  0  1  0  0  0  0  0  0  0  0  0
    9.7290  -15.1720   26.2595 C   0  0  0  0  0  0  0  0  0  0  0  0
   10.1561  -14.9097   27.6168 C   0  0  0  0  0  0  0  0  0  0  0  0
   10.3359  -15.9868   28.4609 C   0  0  0  0  0  0  0  0  0  0  0  0
   10.7646  -15.7954   29.7801 C   0  0  0  0  0  0  0  0  0  0  0  0
   11.0068  -14.5383   30.2330 C   0  0  0  0  0  0  0  0  0  0  0  0
   10.8361  -13.4221   29.4085 C   0  0  0  0  0  0  0  0  0  0  0  0
   10.4040  -13.6584   28.0909 C   0  0  0  0  0  0  0  0  0  0  0  0
   11.6292  -16.6582   25.6228 C   0  0  0  0  0  0  0  0  0  0  0  0
   11.2456  -17.8956   25.1268 O   0  0  0  0  0  0  0  0  0  0  0  0
   12.6634  -16.6289   26.3607 O   0  0  0  0  0  0  0  0  0  0  0  0
  2  1  1  6
  2  3  1  0
  4  3  1  0
  5  4  2  0
  6  7  1  0
  6  5  1  0
  7  8  2  0
  8  4  1  0
  9 11  1  0
  9  2  1  0
 10  9  2  0
 12 11  1  0
 12 13  1  1
 13 14  1  0
 14 19  1  0
 15 14  2  0
 15 16  1  0
 16 17  2  0
 17 18  1  0
 19 18  2  0
 20 12  1  0
 21 20  2  0
 22 20  1  0
 23 31  1  0
 23 22  1  0
 23 24  1  1
 25 24  1  0
 25 26  2  0
 27 26  1  0
 28 27  2  0
 29 30  2  0
 29 28  1  0
 30 25  1  0
 31 32  1  0
 33 31  2  0
M  END
$$$$
