HFF.pdb
     RDKit          3D

 33 35  0  0  1  0  0  0  0  0999 V2000
    9.1349  -18.3889   19.2674 N   0  0  0  0  0  0  0  0  0  0  0  0
    8.4208  -18.2202   20.5257 C   0  0  1  0  0  0  0  0  0  0  0  0
    8.7253  -19.4087   21.4472 C   0  0  0  0  0  0  0  0  0  0  0  0
    8.2289  -20.6573   20.8650 C   0  0  0  0  0  0  0  0  0  0  0  0
    7.2075  -20.7617   19.9251 C   0  0  0  0  0  0  0  0  0  0  0  0
    7.0514  -22.0685   19.6529 N   0  0  0  0  0  0  0  0  0  0  0  0
    7.9357  -22.7693   20.3884 C   0  0  0  0  0  0  0  0  0  0  0  0
    8.6447  -21.8987   21.1196 N   0  0  0  0  0  0  0  0  0  0  0  0
    9.0696  -17.0511   21.2013 C   0  0  0  0  0  0  0  0  0  0  0  0
   10.2505  -16.7387   21.0206 O   0  0  0  0  0  0  0  0  0  0  0  0
    8.3038  -16.2505   22.0968 N   0  0  0  0  0  0  0  0  0  0  0  0
    8.7978  -15.0409   22.6858 C   0  0  1  0  0  0  0  0  0  0  0  0
    7.8616  -13.8708   22.4709 C   0  0  0  0  0  0  0  0  0  0  0  0
    7.6356  -13.5400   21.0473 C   0  0  0  0  0  0  0  0  0  0  0  0
    8.4234  -12.5862   20.4156 C   0  0  0  0  0  0  0  0  0  0  0  0
    8.2745  -12.2533   19.0984 C   0  0  0  0  0  0  0  0  0  0  0  0
    7.3181  -12.8723   18.3578 C   0  0  0  0  0  0  0  0  0  0  0  0
    6.5086  -13.8246   18.9328 C   0  0  0  0  0  0  0  0  0  0  0  0
    6.6725  -14.1534   20.2728 C   0  0  0  0  0  0  0  0  0  0  0  0
    9.2880  -15.1742   24.0718 C   0  0  0  0  0  0  0  0  0  0  0  0
   10.0205  -14.2715   24.6118 O   0  0  0  0  0  0  0  0  0  0  0  0
    8.9266  -16.3329   24.7934 N   0  0  0  0  0  0  0  0  0  0  0  0
    9.0906  -16.4574   26.2213 C   0  0  1  0  0  0  0  0  0  0  0  0
    7.7498  -16.0859   26.8352 C   0  0  0  0  0  0  0  0  0  0  0  0
    7.4869  -14.6633   26.8611 C   0  0  0  0  0  0  0  0  0  0  0  0
    8.4830  -13.8269   27.3228 C   0  0  0  0  0  0  0  0  0  0  0  0
    8.2919  -12.4401   27.3548 C   0  0  0  0  0  0  0  0  0  0  0  0
    7.1161  -11.9130   26.9266 C   0  0  0  0  0  0  0  0  0  0  0  0
    6.0833  -12.7274   26.4521 C   0  0  0  0  0  0  0  0  0  0  0  0
    6.3160  -14.1146   26.4370 C   0  0  0  0  0  0  0  0  0  0  0  0
    9.5556  -17.7855   26.5608 C   0  0  0  0  0  0  0  0  0  0  0  0
    9.6906  -18.7554   25.5782 O   0  0  0  0  0  0  0  0  0  0  0  0
    9.8579  -18.1227   27.7482 O   0  0  0  0  0  0  0  0  0  0  0  0
  2  1  1  6
  2  3  1  0
  4  3  1  0
  5  4  2  0
  6  7  1  0
  6  5  1  0
  7  8  2  0
  8  4  1  0
  9 11  1  0
  9  2  1  0
 10  9  2  0
 12 11  1  0
 12 13  1  1
 13 14  1  0
 14 19  1  0
 15 14  2  0
 15 16  1  0
 16 17  2  0
 17 18  1  0
 19 18  2  0
 20 12  1  0
 21 20  2  0
 22 20  1  0
 23 31  1  0
 23 22  1  0
 23 24  1  1
 25 24  1  0
 25 26  2  0
 27 26  1  0
 28 27  2  0
 29 30  2  0
 29 28  1  0
 30 25  1  0
 31 32  1  0
 33 31  2  0
M  END
$$$$
