HFF.pdb
     RDKit          3D

 33 35  0  0  1  0  0  0  0  0999 V2000
   10.2087  -17.8267   19.2686 N   0  0  0  0  0  0  0  0  0  0  0  0
    9.3868  -18.1482   20.4274 C   0  0  1  0  0  0  0  0  0  0  0  0
   10.0674  -19.2554   21.2429 C   0  0  0  0  0  0  0  0  0  0  0  0
   10.0329  -20.5284   20.5199 C   0  0  0  0  0  0  0  0  0  0  0  0
    9.4544  -20.7337   19.2706 C   0  0  0  0  0  0  0  0  0  0  0  0
    9.6292  -22.0297   18.9610 N   0  0  0  0  0  0  0  0  0  0  0  0
   10.2914  -22.6272   19.9703 C   0  0  0  0  0  0  0  0  0  0  0  0
   10.5303  -21.7027   20.9102 N   0  0  0  0  0  0  0  0  0  0  0  0
    9.4524  -16.9415   21.3127 C   0  0  0  0  0  0  0  0  0  0  0  0
   10.3540  -16.1009   21.2402 O   0  0  0  0  0  0  0  0  0  0  0  0
    8.4356  -16.7375   22.2893 N   0  0  0  0  0  0  0  0  0  0  0  0
    8.3954  -15.5945   23.1530 C   0  0  1  0  0  0  0  0  0  0  0  0
    6.9805  -15.1867   23.5044 C   0  0  0  0  0  0  0  0  0  0  0  0
    6.9031  -14.0656   24.4658 C   0  0  0  0  0  0  0  0  0  0  0  0
    7.4057  -12.8158   24.1271 C   0  0  0  0  0  0  0  0  0  0  0  0
    7.3448  -11.7381   24.9655 C   0  0  0  0  0  0  0  0  0  0  0  0
    6.7709  -11.8766   26.1894 C   0  0  0  0  0  0  0  0  0  0  0  0
    6.2576  -13.0926   26.5774 C   0  0  0  0  0  0  0  0  0  0  0  0
    6.3257  -14.1789   25.7137 C   0  0  0  0  0  0  0  0  0  0  0  0
    9.3114  -15.6510   24.3092 C   0  0  0  0  0  0  0  0  0  0  0  0
    9.5293  -14.6212   25.0407 O   0  0  0  0  0  0  0  0  0  0  0  0
    9.9477  -16.8798   24.5905 N   0  0  0  0  0  0  0  0  0  0  0  0
   10.8163  -17.0780   25.7251 C   0  0  1  0  0  0  0  0  0  0  0  0
    9.9095  -17.1581   26.9434 C   0  0  0  0  0  0  0  0  0  0  0  0
    9.7837  -15.9120   27.6678 C   0  0  0  0  0  0  0  0  0  0  0  0
   10.4489  -15.7900   28.8709 C   0  0  0  0  0  0  0  0  0  0  0  0
   10.3779  -14.6015   29.6079 C   0  0  0  0  0  0  0  0  0  0  0  0
    9.6487  -13.5587   29.1340 C   0  0  0  0  0  0  0  0  0  0  0  0
    8.9608  -13.6437   27.9197 C   0  0  0  0  0  0  0  0  0  0  0  0
    9.0582  -14.8551   27.2112 C   0  0  0  0  0  0  0  0  0  0  0  0
   11.6500  -18.2441   25.5234 C   0  0  0  0  0  0  0  0  0  0  0  0
   11.4399  -19.0783   24.4352 O   0  0  0  0  0  0  0  0  0  0  0  0
   12.5955  -18.5551   26.3136 O   0  0  0  0  0  0  0  0  0  0  0  0
  2  1  1  6
  2  3  1  0
  4  3  1  0
  5  4  2  0
  6  7  1  0
  6  5  1  0
  7  8  2  0
  8  4  1  0
  9 11  1  0
  9  2  1  0
 10  9  2  0
 12 11  1  0
 12 13  1  1
 13 14  1  0
 14 19  1  0
 15 14  2  0
 15 16  1  0
 16 17  2  0
 17 18  1  0
 19 18  2  0
 20 12  1  0
 21 20  2  0
 22 20  1  0
 23 31  1  0
 23 22  1  0
 23 24  1  1
 25 24  1  0
 25 26  2  0
 27 26  1  0
 28 27  2  0
 29 30  2  0
 29 28  1  0
 30 25  1  0
 31 32  1  0
 33 31  2  0
M  END
$$$$
