HFF.pdb
     RDKit          3D

 33 35  0  0  1  0  0  0  0  0999 V2000
   10.0479  -17.4434   18.5554 N   0  0  0  0  0  0  0  0  0  0  0  0
    9.9186  -18.2882   19.7350 C   0  0  1  0  0  0  0  0  0  0  0  0
   11.2191  -19.0756   19.9423 C   0  0  0  0  0  0  0  0  0  0  0  0
   11.3547  -20.1285   18.9337 C   0  0  0  0  0  0  0  0  0  0  0  0
   11.0538  -21.4742   19.1237 C   0  0  0  0  0  0  0  0  0  0  0  0
   11.3172  -22.1063   17.9672 N   0  0  0  0  0  0  0  0  0  0  0  0
   11.7677  -21.2023   17.0762 C   0  0  0  0  0  0  0  0  0  0  0  0
   11.7848  -20.0050   17.6773 N   0  0  0  0  0  0  0  0  0  0  0  0
    9.8654  -17.3464   20.8987 C   0  0  0  0  0  0  0  0  0  0  0  0
   10.8548  -16.7397   21.3202 O   0  0  0  0  0  0  0  0  0  0  0  0
    8.6239  -17.1276   21.5621 N   0  0  0  0  0  0  0  0  0  0  0  0
    8.4908  -16.3000   22.7246 C   0  0  1  0  0  0  0  0  0  0  0  0
    7.1514  -15.5967   22.7815 C   0  0  0  0  0  0  0  0  0  0  0  0
    7.0116  -14.6692   23.9249 C   0  0  0  0  0  0  0  0  0  0  0  0
    6.4333  -15.1015   25.1115 C   0  0  0  0  0  0  0  0  0  0  0  0
    6.2953  -14.2966   26.2074 C   0  0  0  0  0  0  0  0  0  0  0  0
    6.7375  -13.0129   26.1524 C   0  0  0  0  0  0  0  0  0  0  0  0
    7.3178  -12.5316   25.0015 C   0  0  0  0  0  0  0  0  0  0  0  0
    7.4522  -13.3621   23.8957 C   0  0  0  0  0  0  0  0  0  0  0  0
    8.8925  -16.9356   23.9949 C   0  0  0  0  0  0  0  0  0  0  0  0
    8.3141  -17.9959   24.4243 O   0  0  0  0  0  0  0  0  0  0  0  0
    9.9390  -16.3394   24.7318 N   0  0  0  0  0  0  0  0  0  0  0  0
   10.6311  -17.0102   25.8052 C   0  0  1  0  0  0  0  0  0  0  0  0
   11.7548  -16.0784   26.2316 C   0  0  0  0  0  0  0  0  0  0  0  0
   11.3800  -15.1360   27.2636 C   0  0  0  0  0  0  0  0  0  0  0  0
   11.0340  -13.8561   26.8800 C   0  0  0  0  0  0  0  0  0  0  0  0
   10.6461  -12.9062   27.8328 C   0  0  0  0  0  0  0  0  0  0  0  0
   10.6089  -13.2477   29.1466 C   0  0  0  0  0  0  0  0  0  0  0  0
   10.9521  -14.5339   29.5743 C   0  0  0  0  0  0  0  0  0  0  0  0
   11.3363  -15.4573   28.5852 C   0  0  0  0  0  0  0  0  0  0  0  0
    9.7057  -17.3536   26.8640 C   0  0  0  0  0  0  0  0  0  0  0  0
   10.0446  -18.3089   27.8110 O   0  0  0  0  0  0  0  0  0  0  0  0
    8.5629  -16.8094   26.9781 O   0  0  0  0  0  0  0  0  0  0  0  0
  2  1  1  6
  2  3  1  0
  4  3  1  0
  5  4  2  0
  6  7  1  0
  6  5  1  0
  7  8  2  0
  8  4  1  0
  9 11  1  0
  9  2  1  0
 10  9  2  0
 12 11  1  0
 12 13  1  1
 13 14  1  0
 14 19  1  0
 15 14  2  0
 15 16  1  0
 16 17  2  0
 17 18  1  0
 19 18  2  0
 20 12  1  0
 21 20  2  0
 22 20  1  0
 23 31  1  0
 23 22  1  0
 23 24  1  1
 25 24  1  0
 25 26  2  0
 27 26  1  0
 28 27  2  0
 29 30  2  0
 29 28  1  0
 30 25  1  0
 31 32  1  0
 33 31  2  0
M  END
$$$$
