HFF.pdb
     RDKit          3D

 33 35  0  0  1  0  0  0  0  0999 V2000
   10.1025  -17.0430   18.2815 N   0  0  0  0  0  0  0  0  0  0  0  0
   10.4598  -17.9076   19.3980 C   0  0  1  0  0  0  0  0  0  0  0  0
   11.9513  -18.2577   19.3137 C   0  0  0  0  0  0  0  0  0  0  0  0
   12.2072  -19.1740   18.2005 C   0  0  0  0  0  0  0  0  0  0  0  0
   11.6142  -20.4213   18.0268 C   0  0  0  0  0  0  0  0  0  0  0  0
   12.1155  -20.9443   16.8947 N   0  0  0  0  0  0  0  0  0  0  0  0
   12.9920  -20.0679   16.3678 C   0  0  0  0  0  0  0  0  0  0  0  0
   13.0371  -18.9969   17.1716 N   0  0  0  0  0  0  0  0  0  0  0  0
   10.3485  -17.0497   20.6210 C   0  0  0  0  0  0  0  0  0  0  0  0
   11.1201  -16.1162   20.8616 O   0  0  0  0  0  0  0  0  0  0  0  0
    9.3098  -17.3077   21.5612 N   0  0  0  0  0  0  0  0  0  0  0  0
    9.1672  -16.5850   22.7905 C   0  0  1  0  0  0  0  0  0  0  0  0
    7.7937  -15.9661   22.9395 C   0  0  0  0  0  0  0  0  0  0  0  0
    7.5494  -14.8274   22.0280 C   0  0  0  0  0  0  0  0  0  0  0  0
    6.8215  -15.0088   20.8591 C   0  0  0  0  0  0  0  0  0  0  0  0
    6.5472  -13.9912   19.9888 C   0  0  0  0  0  0  0  0  0  0  0  0
    6.9988  -12.7392   20.2627 C   0  0  0  0  0  0  0  0  0  0  0  0
    7.7260  -12.5026   21.4064 C   0  0  0  0  0  0  0  0  0  0  0  0
    7.9960  -13.5469   22.2822 C   0  0  0  0  0  0  0  0  0  0  0  0
    9.6415  -17.2966   23.9937 C   0  0  0  0  0  0  0  0  0  0  0  0
    9.4065  -18.5445   24.1688 O   0  0  0  0  0  0  0  0  0  0  0  0
   10.3666  -16.5601   24.9558 N   0  0  0  0  0  0  0  0  0  0  0  0
   11.0000  -17.1661   26.1016 C   0  0  1  0  0  0  0  0  0  0  0  0
   11.7994  -16.0621   26.7762 C   0  0  0  0  0  0  0  0  0  0  0  0
   10.9957  -15.1396   27.5485 C   0  0  0  0  0  0  0  0  0  0  0  0
   10.2049  -14.2379   26.8654 C   0  0  0  0  0  0  0  0  0  0  0  0
    9.3929  -13.3325   27.5595 C   0  0  0  0  0  0  0  0  0  0  0  0
    9.3826  -13.3423   28.9173 C   0  0  0  0  0  0  0  0  0  0  0  0
   10.1696  -14.2403   29.6447 C   0  0  0  0  0  0  0  0  0  0  0  0
   10.9707  -15.1323   28.9091 C   0  0  0  0  0  0  0  0  0  0  0  0
   10.0099  -17.7917   26.9521 C   0  0  0  0  0  0  0  0  0  0  0  0
   10.4002  -18.6347   27.9823 O   0  0  0  0  0  0  0  0  0  0  0  0
    8.7618  -17.6041   26.8029 O   0  0  0  0  0  0  0  0  0  0  0  0
  2  1  1  6
  2  3  1  0
  4  3  1  0
  5  4  2  0
  6  7  1  0
  6  5  1  0
  7  8  2  0
  8  4  1  0
  9 11  1  0
  9  2  1  0
 10  9  2  0
 12 11  1  0
 12 13  1  1
 13 14  1  0
 14 19  1  0
 15 14  2  0
 15 16  1  0
 16 17  2  0
 17 18  1  0
 19 18  2  0
 20 12  1  0
 21 20  2  0
 22 20  1  0
 23 31  1  0
 23 22  1  0
 23 24  1  1
 25 24  1  0
 25 26  2  0
 27 26  1  0
 28 27  2  0
 29 30  2  0
 29 28  1  0
 30 25  1  0
 31 32  1  0
 33 31  2  0
M  END
$$$$
