HFF.pdb
     RDKit          3D

 33 35  0  0  1  0  0  0  0  0999 V2000
    8.6792  -17.3343   18.8771 N   0  0  0  0  0  0  0  0  0  0  0  0
    9.9921  -16.7547   19.1262 C   0  0  1  0  0  0  0  0  0  0  0  0
   10.2442  -15.6171   18.1279 C   0  0  0  0  0  0  0  0  0  0  0  0
    9.0644  -14.7575   18.0116 C   0  0  0  0  0  0  0  0  0  0  0  0
    7.7756  -15.1891   17.7111 C   0  0  0  0  0  0  0  0  0  0  0  0
    6.9872  -14.1008   17.6935 N   0  0  0  0  0  0  0  0  0  0  0  0
    7.7409  -13.0196   17.9709 C   0  0  0  0  0  0  0  0  0  0  0  0
    9.0006  -13.4339   18.1623 N   0  0  0  0  0  0  0  0  0  0  0  0
    9.8816  -16.0669   20.4524 C   0  0  0  0  0  0  0  0  0  0  0  0
   10.7272  -15.2702   20.8707 O   0  0  0  0  0  0  0  0  0  0  0  0
    8.7550  -16.3314   21.2831 N   0  0  0  0  0  0  0  0  0  0  0  0
    8.6383  -15.8435   22.6255 C   0  0  1  0  0  0  0  0  0  0  0  0
    7.2746  -15.2491   22.9066 C   0  0  0  0  0  0  0  0  0  0  0  0
    7.2235  -14.4246   24.1333 C   0  0  0  0  0  0  0  0  0  0  0  0
    6.7703  -14.9713   25.3270 C   0  0  0  0  0  0  0  0  0  0  0  0
    6.7191  -14.2648   26.4959 C   0  0  0  0  0  0  0  0  0  0  0  0
    7.1255  -12.9683   26.5101 C   0  0  0  0  0  0  0  0  0  0  0  0
    7.5830  -12.3756   25.3559 C   0  0  0  0  0  0  0  0  0  0  0  0
    7.6302  -13.1069   24.1754 C   0  0  0  0  0  0  0  0  0  0  0  0
    9.1207  -16.7669   23.6714 C   0  0  0  0  0  0  0  0  0  0  0  0
    8.8277  -18.0146   23.6488 O   0  0  0  0  0  0  0  0  0  0  0  0
    9.9196  -16.2350   24.7071 N   0  0  0  0  0  0  0  0  0  0  0  0
   10.7098  -17.0530   25.5945 C   0  0  1  0  0  0  0  0  0  0  0  0
   11.5844  -16.0943   26.3874 C   0  0  0  0  0  0  0  0  0  0  0  0
   10.8724  -15.3494   27.4031 C   0  0  0  0  0  0  0  0  0  0  0  0
   10.8081  -15.8827   28.6745 C   0  0  0  0  0  0  0  0  0  0  0  0
   10.1474  -15.1986   29.7023 C   0  0  0  0  0  0  0  0  0  0  0  0
    9.5654  -13.9988   29.4460 C   0  0  0  0  0  0  0  0  0  0  0  0
    9.6091  -13.4260   28.1713 C   0  0  0  0  0  0  0  0  0  0  0  0
   10.2822  -14.1460   27.1677 C   0  0  0  0  0  0  0  0  0  0  0  0
    9.8515  -17.8892   26.4067 C   0  0  0  0  0  0  0  0  0  0  0  0
    8.4731  -17.7432   26.3526 O   0  0  0  0  0  0  0  0  0  0  0  0
   10.3061  -18.7795   27.1914 O   0  0  0  0  0  0  0  0  0  0  0  0
  2  1  1  6
  2  3  1  0
  4  3  1  0
  5  4  2  0
  6  7  1  0
  6  5  1  0
  7  8  2  0
  8  4  1  0
  9 11  1  0
  9  2  1  0
 10  9  2  0
 12 11  1  0
 12 13  1  1
 13 14  1  0
 14 19  1  0
 15 14  2  0
 15 16  1  0
 16 17  2  0
 17 18  1  0
 19 18  2  0
 20 12  1  0
 21 20  2  0
 22 20  1  0
 23 31  1  0
 23 22  1  0
 23 24  1  1
 25 24  1  0
 25 26  2  0
 27 26  1  0
 28 27  2  0
 29 30  2  0
 29 28  1  0
 30 25  1  0
 31 32  1  0
 33 31  2  0
M  END
$$$$
