HFF.pdb
     RDKit          3D

 33 35  0  0  1  0  0  0  0  0999 V2000
   10.6272  -17.3904   18.4186 N   0  0  0  0  0  0  0  0  0  0  0  0
    9.7197  -17.9209   19.4269 C   0  0  1  0  0  0  0  0  0  0  0  0
   10.3447  -19.1660   20.0698 C   0  0  0  0  0  0  0  0  0  0  0  0
   10.1822  -20.3349   19.2028 C   0  0  0  0  0  0  0  0  0  0  0  0
    8.9903  -20.7439   18.6114 C   0  0  0  0  0  0  0  0  0  0  0  0
    9.2600  -21.8532   17.9022 N   0  0  0  0  0  0  0  0  0  0  0  0
   10.5691  -22.1408   18.0355 C   0  0  0  0  0  0  0  0  0  0  0  0
   11.1167  -21.2095   18.8280 N   0  0  0  0  0  0  0  0  0  0  0  0
    9.7035  -16.9038   20.5267 C   0  0  0  0  0  0  0  0  0  0  0  0
   10.7063  -16.2744   20.8770 O   0  0  0  0  0  0  0  0  0  0  0  0
    8.4830  -16.6368   21.2111 N   0  0  0  0  0  0  0  0  0  0  0  0
    8.3904  -15.7486   22.3321 C   0  0  1  0  0  0  0  0  0  0  0  0
    7.0443  -15.0605   22.4128 C   0  0  0  0  0  0  0  0  0  0  0  0
    6.9218  -14.1188   23.5465 C   0  0  0  0  0  0  0  0  0  0  0  0
    7.3223  -12.7962   23.4057 C   0  0  0  0  0  0  0  0  0  0  0  0
    7.2149  -11.8761   24.4106 C   0  0  0  0  0  0  0  0  0  0  0  0
    6.6960  -12.2538   25.6083 C   0  0  0  0  0  0  0  0  0  0  0  0
    6.2841  -13.5519   25.8036 C   0  0  0  0  0  0  0  0  0  0  0  0
    6.3984  -14.4758   24.7722 C   0  0  0  0  0  0  0  0  0  0  0  0
    8.8592  -16.3086   23.6149 C   0  0  0  0  0  0  0  0  0  0  0  0
    8.5960  -17.5166   23.9533 O   0  0  0  0  0  0  0  0  0  0  0  0
    9.6110  -15.4711   24.4677 N   0  0  0  0  0  0  0  0  0  0  0  0
   10.0812  -15.8847   25.7673 C   0  0  1  0  0  0  0  0  0  0  0  0
   10.3487  -14.6067   26.5470 C   0  0  0  0  0  0  0  0  0  0  0  0
   10.6992  -14.8243   27.9338 C   0  0  0  0  0  0  0  0  0  0  0  0
   11.6665  -15.7665   28.2193 C   0  0  0  0  0  0  0  0  0  0  0  0
   12.0588  -16.0079   29.5416 C   0  0  0  0  0  0  0  0  0  0  0  0
   11.4830  -15.3077   30.5526 C   0  0  0  0  0  0  0  0  0  0  0  0
   10.4997  -14.3454   30.3037 C   0  0  0  0  0  0  0  0  0  0  0  0
   10.1345  -14.1341   28.9618 C   0  0  0  0  0  0  0  0  0  0  0  0
    9.1240  -16.7747   26.3894 C   0  0  0  0  0  0  0  0  0  0  0  0
    9.5480  -17.9428   27.0058 O   0  0  0  0  0  0  0  0  0  0  0  0
    7.8757  -16.5364   26.4034 O   0  0  0  0  0  0  0  0  0  0  0  0
  2  1  1  6
  2  3  1  0
  4  3  1  0
  5  4  2  0
  6  7  1  0
  6  5  1  0
  7  8  2  0
  8  4  1  0
  9 11  1  0
  9  2  1  0
 10  9  2  0
 12 11  1  0
 12 13  1  1
 13 14  1  0
 14 19  1  0
 15 14  2  0
 15 16  1  0
 16 17  2  0
 17 18  1  0
 19 18  2  0
 20 12  1  0
 21 20  2  0
 22 20  1  0
 23 31  1  0
 23 22  1  0
 23 24  1  1
 25 24  1  0
 25 26  2  0
 27 26  1  0
 28 27  2  0
 29 30  2  0
 29 28  1  0
 30 25  1  0
 31 32  1  0
 33 31  2  0
M  END
$$$$
