HFF.pdb
     RDKit          3D

 33 35  0  0  1  0  0  0  0  0999 V2000
   10.1696  -16.0529   19.4964 N   0  0  0  0  0  0  0  0  0  0  0  0
    9.1725  -16.6120   20.3991 C   0  0  1  0  0  0  0  0  0  0  0  0
    9.5391  -18.0659   20.7250 C   0  0  0  0  0  0  0  0  0  0  0  0
    9.2078  -18.9484   19.6044 C   0  0  0  0  0  0  0  0  0  0  0  0
    9.0411  -18.5483   18.2816 C   0  0  0  0  0  0  0  0  0  0  0  0
    8.7417  -19.6482   17.5696 N   0  0  0  0  0  0  0  0  0  0  0  0
    8.7180  -20.7062   18.4028 C   0  0  0  0  0  0  0  0  0  0  0  0
    9.0035  -20.2660   19.6356 N   0  0  0  0  0  0  0  0  0  0  0  0
    9.3526  -15.8842   21.6960 C   0  0  0  0  0  0  0  0  0  0  0  0
   10.4485  -15.7569   22.2505 O   0  0  0  0  0  0  0  0  0  0  0  0
    8.2181  -15.3048   22.3335 N   0  0  0  0  0  0  0  0  0  0  0  0
    8.2718  -14.6986   23.6310 C   0  0  1  0  0  0  0  0  0  0  0  0
    7.1192  -13.7468   23.8710 C   0  0  0  0  0  0  0  0  0  0  0  0
    7.2008  -13.0222   25.1576 C   0  0  0  0  0  0  0  0  0  0  0  0
    6.4452  -13.4390   26.2460 C   0  0  0  0  0  0  0  0  0  0  0  0
    6.4937  -12.8218   27.4645 C   0  0  0  0  0  0  0  0  0  0  0  0
    7.3116  -11.7506   27.6377 C   0  0  0  0  0  0  0  0  0  0  0  0
    8.0818  -11.2942   26.5930 C   0  0  0  0  0  0  0  0  0  0  0  0
    8.0227  -11.9327   25.3604 C   0  0  0  0  0  0  0  0  0  0  0  0
    8.5267  -15.6303   24.7473 C   0  0  0  0  0  0  0  0  0  0  0  0
    7.7056  -16.5725   25.0327 O   0  0  0  0  0  0  0  0  0  0  0  0
    9.7085  -15.4547   25.4998 N   0  0  0  0  0  0  0  0  0  0  0  0
   10.1324  -16.3710   26.5302 C   0  0  1  0  0  0  0  0  0  0  0  0
   11.5950  -16.6775   26.2484 C   0  0  0  0  0  0  0  0  0  0  0  0
   11.8242  -17.3517   24.9888 C   0  0  0  0  0  0  0  0  0  0  0  0
   12.3958  -16.6302   23.9604 C   0  0  0  0  0  0  0  0  0  0  0  0
   12.6570  -17.2343   22.7245 C   0  0  0  0  0  0  0  0  0  0  0  0
   12.3460  -18.5427   22.5362 C   0  0  0  0  0  0  0  0  0  0  0  0
   11.7659  -19.3066   23.5535 C   0  0  0  0  0  0  0  0  0  0  0  0
   11.5199  -18.6614   24.7790 C   0  0  0  0  0  0  0  0  0  0  0  0
    9.8818  -15.8071   27.8397 C   0  0  0  0  0  0  0  0  0  0  0  0
    9.3370  -14.5376   27.9655 O   0  0  0  0  0  0  0  0  0  0  0  0
   10.1410  -16.4319   28.9155 O   0  0  0  0  0  0  0  0  0  0  0  0
  2  1  1  6
  2  3  1  0
  4  3  1  0
  5  4  2  0
  6  7  1  0
  6  5  1  0
  7  8  2  0
  8  4  1  0
  9 11  1  0
  9  2  1  0
 10  9  2  0
 12 11  1  0
 12 13  1  1
 13 14  1  0
 14 19  1  0
 15 14  2  0
 15 16  1  0
 16 17  2  0
 17 18  1  0
 19 18  2  0
 20 12  1  0
 21 20  2  0
 22 20  1  0
 23 31  1  0
 23 22  1  0
 23 24  1  6
 25 24  1  0
 25 26  2  0
 27 26  1  0
 28 27  2  0
 29 30  2  0
 29 28  1  0
 30 25  1  0
 31 32  1  0
 33 31  2  0
M  END
$$$$
