QSV.pdb
     RDKit          3D

 23 22  0  0  1  0  0  0  0  0999 V2000
   18.9560  -14.4275  -18.9437 N   0  0  0  0  0  0  0  0  0  0  0  0
   20.3045  -14.0308  -18.8541 C   0  0  0  0  0  0  0  0  0  0  0  0
   21.2090  -14.8580  -19.0881 O   0  0  0  0  0  0  0  0  0  0  0  0
   20.6483  -12.6450  -18.4857 C   0  0  0  0  0  0  0  0  0  0  0  0
   19.3915  -11.8183  -18.3204 C   0  0  0  0  0  0  0  0  0  0  0  0
   18.8963  -11.8447  -16.8904 C   0  0  2  0  0  0  0  0  0  0  0  0
   17.7223  -12.6654  -16.8348 N   0  0  0  0  0  0  0  0  0  0  0  0
   18.6486  -10.4446  -16.4760 C   0  0  0  0  0  0  0  0  0  0  0  0
   17.4942   -9.9833  -16.6758 O   0  0  0  0  0  0  0  0  0  0  0  0
   19.1632   -8.9778  -13.2173 O   0  0  0  0  0  0  0  0  0  0  0  0
   18.4213   -8.4419  -14.2542 C   0  0  0  0  0  0  0  0  0  0  0  0
   19.3155   -8.3031  -15.4951 C   0  0  2  0  0  0  0  0  0  0  0  0
   19.6541   -9.6376  -15.8773 N   0  0  0  0  0  0  0  0  0  0  0  0
   20.4955   -7.5044  -15.0875 C   0  0  0  0  0  0  0  0  0  0  0  0
   21.3893   -8.0929  -14.4107 O   0  0  0  0  0  0  0  0  0  0  0  0
   23.5249   -3.7013  -16.0308 C   0  0  0  0  0  0  0  0  0  0  0  0
   22.2230   -4.4471  -16.3110 C   0  0  1  0  0  0  0  0  0  0  0  0
   22.2640   -5.1225  -17.6591 C   0  0  0  0  0  0  0  0  0  0  0  0
   21.9706   -5.4636  -15.2191 C   0  0  2  0  0  0  0  0  0  0  0  0
   20.7131   -6.1443  -15.3872 N   0  0  0  0  0  0  0  0  0  0  0  0
   21.9031   -4.7262  -13.9283 C   0  0  0  0  0  0  0  0  0  0  0  0
   22.9552   -4.5881  -13.0591 O   0  0  0  0  0  0  0  0  0  0  0  0
   20.8037   -4.1972  -13.6217 O   0  0  0  0  0  0  0  0  0  0  0  0
  1  2  1  0
  2  3  2  0
  4  5  1  0
  4  2  1  0
  6  8  1  0
  6  5  1  0
  6  7  1  6
  8  9  2  0
 10 11  1  0
 12 11  1  1
 12 13  1  0
 13  8  1  0
 14 12  1  0
 15 14  2  0
 17 16  1  1
 17 19  1  0
 18 17  1  0
 19 21  1  0
 19 20  1  6
 20 14  1  0
 21 22  1  0
 23 21  2  0
M  END
$$$$
