QSV.pdb
     RDKit          3D

 23 22  0  0  1  0  0  0  0  0999 V2000
   24.1645  -20.0819   -9.6000 N   0  0  0  0  0  0  0  0  0  0  0  0
   25.2972  -20.8149   -9.1955 C   0  0  0  0  0  0  0  0  0  0  0  0
   25.2426  -21.5192   -8.1668 O   0  0  0  0  0  0  0  0  0  0  0  0
   26.5427  -20.7521   -9.9822 C   0  0  0  0  0  0  0  0  0  0  0  0
   26.4015  -19.7534  -11.1106 C   0  0  0  0  0  0  0  0  0  0  0  0
   25.7527  -20.3801  -12.3259 C   0  0  2  0  0  0  0  0  0  0  0  0
   26.4408  -21.6015  -12.6251 N   0  0  0  0  0  0  0  0  0  0  0  0
   25.8148  -19.3915  -13.4269 C   0  0  0  0  0  0  0  0  0  0  0  0
   25.3189  -18.2555  -13.2059 O   0  0  0  0  0  0  0  0  0  0  0  0
   27.8325  -20.1735  -16.8642 O   0  0  0  0  0  0  0  0  0  0  0  0
   27.7140  -18.8543  -16.4664 C   0  0  0  0  0  0  0  0  0  0  0  0
   26.3984  -18.6764  -15.6942 C   0  0  2  0  0  0  0  0  0  0  0  0
   26.4034  -19.6890  -14.6861 N   0  0  0  0  0  0  0  0  0  0  0  0
   25.2990  -18.8449  -16.6737 C   0  0  0  0  0  0  0  0  0  0  0  0
   25.0154  -20.0262  -17.0307 O   0  0  0  0  0  0  0  0  0  0  0  0
   21.6201  -18.0110  -16.4802 C   0  0  0  0  0  0  0  0  0  0  0  0
   22.1824  -17.3081  -17.7129 C   0  0  1  0  0  0  0  0  0  0  0  0
   22.4540  -15.8516  -17.4303 C   0  0  0  0  0  0  0  0  0  0  0  0
   23.4483  -18.0029  -18.1650 C   0  0  2  0  0  0  0  0  0  0  0  0
   24.5378  -17.8050  -17.2447 N   0  0  0  0  0  0  0  0  0  0  0  0
   23.8522  -17.3968  -19.4625 C   0  0  0  0  0  0  0  0  0  0  0  0
   24.9405  -16.5788  -19.6300 O   0  0  0  0  0  0  0  0  0  0  0  0
   23.1427  -17.6574  -20.4681 O   0  0  0  0  0  0  0  0  0  0  0  0
  1  2  1  0
  2  3  2  0
  4  5  1  0
  4  2  1  0
  6  8  1  0
  6  5  1  0
  6  7  1  6
  8  9  2  0
 10 11  1  0
 12 11  1  6
 12 13  1  0
 13  8  1  0
 14 12  1  0
 15 14  2  0
 17 16  1  1
 17 19  1  0
 18 17  1  0
 19 21  1  0
 19 20  1  1
 20 14  1  0
 21 22  1  0
 23 21  2  0
M  END
$$$$
