QSV.pdb
     RDKit          3D

 23 22  0  0  1  0  0  0  0  0999 V2000
   23.6785  -15.3126  -15.8562 N   0  0  0  0  0  0  0  0  0  0  0  0
   23.0969  -15.9907  -16.9452 C   0  0  0  0  0  0  0  0  0  0  0  0
   23.7018  -16.9462  -17.4727 O   0  0  0  0  0  0  0  0  0  0  0  0
   21.7795  -15.5753  -17.4611 C   0  0  0  0  0  0  0  0  0  0  0  0
   21.2212  -14.4437  -16.6255 C   0  0  0  0  0  0  0  0  0  0  0  0
   20.9131  -13.2290  -17.4744 C   0  0  2  0  0  0  0  0  0  0  0  0
   22.0017  -13.0275  -18.3852 N   0  0  0  0  0  0  0  0  0  0  0  0
   20.7000  -12.0848  -16.5588 C   0  0  0  0  0  0  0  0  0  0  0  0
   19.7301  -12.1631  -15.7595 O   0  0  0  0  0  0  0  0  0  0  0  0
   23.5454   -9.2760  -15.7245 O   0  0  0  0  0  0  0  0  0  0  0  0
   22.5322   -9.6399  -14.8564 C   0  0  0  0  0  0  0  0  0  0  0  0
   21.2425   -9.8747  -15.6565 C   0  0  2  0  0  0  0  0  0  0  0  0
   21.5399  -10.9380  -16.5635 N   0  0  0  0  0  0  0  0  0  0  0  0
   20.9266   -8.6015  -16.3462 C   0  0  0  0  0  0  0  0  0  0  0  0
   21.4918   -8.3882  -17.4590 O   0  0  0  0  0  0  0  0  0  0  0  0
   18.0258   -7.2664  -18.0424 C   0  0  0  0  0  0  0  0  0  0  0  0
   18.3473   -6.2247  -16.9742 C   0  0  1  0  0  0  0  0  0  0  0  0
   17.4325   -6.3686  -15.7834 C   0  0  0  0  0  0  0  0  0  0  0  0
   19.7930   -6.3583  -16.5481 C   0  0  2  0  0  0  0  0  0  0  0  0
   20.0502   -7.6039  -15.8733 N   0  0  0  0  0  0  0  0  0  0  0  0
   20.0764   -5.2655  -15.5786 C   0  0  0  0  0  0  0  0  0  0  0  0
   20.2608   -5.4529  -14.2324 O   0  0  0  0  0  0  0  0  0  0  0  0
   20.1502   -4.0947  -16.0326 O   0  0  0  0  0  0  0  0  0  0  0  0
  1  2  1  0
  2  3  2  0
  4  5  1  0
  4  2  1  0
  6  8  1  0
  6  5  1  0
  6  7  1  6
  8  9  2  0
 10 11  1  0
 12 11  1  1
 12 13  1  0
 13  8  1  0
 14 12  1  0
 15 14  2  0
 17 16  1  6
 17 19  1  0
 18 17  1  0
 19 21  1  0
 19 20  1  1
 20 14  1  0
 21 22  1  0
 23 21  2  0
M  END
$$$$
