QSV.pdb
     RDKit          3D

 23 22  0  0  1  0  0  0  0  0999 V2000
   22.2094   -9.3098  -13.4380 N   0  0  0  0  0  0  0  0  0  0  0  0
   21.6107   -9.7795  -14.6234 C   0  0  0  0  0  0  0  0  0  0  0  0
   21.8521  -10.9374  -15.0209 O   0  0  0  0  0  0  0  0  0  0  0  0
   20.7026   -8.9088  -15.3925 C   0  0  0  0  0  0  0  0  0  0  0  0
   20.5706   -7.5607  -14.7176 C   0  0  0  0  0  0  0  0  0  0  0  0
   19.5748   -6.6769  -15.4374 C   0  0  2  0  0  0  0  0  0  0  0  0
   20.3018   -5.6825  -16.1706 N   0  0  0  0  0  0  0  0  0  0  0  0
   18.6673   -6.1018  -14.4180 C   0  0  0  0  0  0  0  0  0  0  0  0
   18.9781   -4.9782  -13.9424 O   0  0  0  0  0  0  0  0  0  0  0  0
   14.8964   -7.1059  -14.2960 O   0  0  0  0  0  0  0  0  0  0  0  0
   15.3050   -5.9070  -13.7408 C   0  0  0  0  0  0  0  0  0  0  0  0
   16.6509   -6.1130  -13.0301 C   0  0  2  0  0  0  0  0  0  0  0  0
   17.4917   -6.7702  -13.9802 N   0  0  0  0  0  0  0  0  0  0  0  0
   16.3813   -6.9407  -11.8306 C   0  0  0  0  0  0  0  0  0  0  0  0
   16.6348   -8.1787  -11.9105 O   0  0  0  0  0  0  0  0  0  0  0  0
   13.9478   -5.5879   -8.6168 C   0  0  0  0  0  0  0  0  0  0  0  0
   15.1072   -6.5194   -8.2736 C   0  0  1  0  0  0  0  0  0  0  0  0
   14.7430   -7.4437   -7.1386 C   0  0  0  0  0  0  0  0  0  0  0  0
   15.5022   -7.3167   -9.4974 C   0  0  2  0  0  0  0  0  0  0  0  0
   15.8671   -6.4719  -10.6048 N   0  0  0  0  0  0  0  0  0  0  0  0
   14.3140   -8.1069   -9.9192 C   0  0  0  0  0  0  0  0  0  0  0  0
   13.9809   -9.3363   -9.4102 O   0  0  0  0  0  0  0  0  0  0  0  0
   13.5707   -7.6065  -10.8021 O   0  0  0  0  0  0  0  0  0  0  0  0
  1  2  1  0
  2  3  2  0
  4  5  1  0
  4  2  1  0
  6  8  1  0
  6  5  1  0
  6  7  1  1
  8  9  2  0
 10 11  1  0
 12 11  1  6
 12 13  1  0
 13  8  1  0
 14 12  1  0
 15 14  2  0
 17 16  1  6
 17 19  1  0
 18 17  1  0
 19 21  1  0
 19 20  1  6
 20 14  1  0
 21 22  1  0
 23 21  2  0
M  END
$$$$
