QSV.pdb
     RDKit          3D

 23 22  0  0  1  0  0  0  0  0999 V2000
   14.1077  -10.5870  -15.5318 N   0  0  0  0  0  0  0  0  0  0  0  0
   13.4418  -11.8042  -15.2884 C   0  0  0  0  0  0  0  0  0  0  0  0
   12.2109  -11.8051  -15.0835 O   0  0  0  0  0  0  0  0  0  0  0  0
   14.1936  -13.0726  -15.2752 C   0  0  0  0  0  0  0  0  0  0  0  0
   15.6622  -12.8154  -15.5352 C   0  0  0  0  0  0  0  0  0  0  0  0
   15.9335  -12.5988  -17.0084 C   0  0  2  0  0  0  0  0  0  0  0  0
   15.8502  -13.8660  -17.6735 N   0  0  0  0  0  0  0  0  0  0  0  0
   17.2657  -11.9633  -17.1300 C   0  0  0  0  0  0  0  0  0  0  0  0
   18.2545  -12.6199  -16.7099 O   0  0  0  0  0  0  0  0  0  0  0  0
   17.7881   -8.0099  -18.1825 O   0  0  0  0  0  0  0  0  0  0  0  0
   18.6797   -8.9287  -18.7056 C   0  0  0  0  0  0  0  0  0  0  0  0
   18.7690  -10.1379  -17.7630 C   0  0  2  0  0  0  0  0  0  0  0  0
   17.4449  -10.6703  -17.6926 N   0  0  0  0  0  0  0  0  0  0  0  0
   19.2554   -9.6307  -16.4581 C   0  0  0  0  0  0  0  0  0  0  0  0
   18.3863   -9.3806  -15.5718 O   0  0  0  0  0  0  0  0  0  0  0  0
   23.3225   -9.8313  -15.1598 C   0  0  0  0  0  0  0  0  0  0  0  0
   22.1223   -9.7491  -14.2204 C   0  0  1  0  0  0  0  0  0  0  0  0
   22.5234   -9.1980  -12.8748 C   0  0  0  0  0  0  0  0  0  0  0  0
   21.0438   -8.8893  -14.8425 C   0  0  2  0  0  0  0  0  0  0  0  0
   20.6030   -9.4017  -16.1138 N   0  0  0  0  0  0  0  0  0  0  0  0
   21.6307   -7.5443  -15.0893 C   0  0  0  0  0  0  0  0  0  0  0  0
   21.8415   -6.6008  -14.1163 O   0  0  0  0  0  0  0  0  0  0  0  0
   21.9521   -7.2621  -16.2723 O   0  0  0  0  0  0  0  0  0  0  0  0
  1  2  1  0
  2  3  2  0
  4  5  1  0
  4  2  1  0
  6  8  1  0
  6  5  1  0
  6  7  1  6
  8  9  2  0
 10 11  1  0
 12 11  1  6
 12 13  1  0
 13  8  1  0
 14 12  1  0
 15 14  2  0
 17 16  1  6
 17 19  1  0
 18 17  1  0
 19 21  1  0
 19 20  1  6
 20 14  1  0
 21 22  1  0
 23 21  2  0
M  END
$$$$
