QSV.pdb
     RDKit          3D

 23 22  0  0  1  0  0  0  0  0999 V2000
   18.8368  -13.6984  -15.3991 N   0  0  0  0  0  0  0  0  0  0  0  0
   17.4458  -13.8622  -15.2506 C   0  0  0  0  0  0  0  0  0  0  0  0
   16.9984  -14.9027  -14.7268 O   0  0  0  0  0  0  0  0  0  0  0  0
   16.5205  -12.8105  -15.7110 C   0  0  0  0  0  0  0  0  0  0  0  0
   17.2946  -11.5915  -16.1641 C   0  0  0  0  0  0  0  0  0  0  0  0
   16.3677  -10.4533  -16.5331 C   0  0  2  0  0  0  0  0  0  0  0  0
   15.7380  -10.7710  -17.7811 N   0  0  0  0  0  0  0  0  0  0  0  0
   17.1783   -9.2151  -16.5880 C   0  0  0  0  0  0  0  0  0  0  0  0
   17.9043   -9.0498  -17.6034 O   0  0  0  0  0  0  0  0  0  0  0  0
   16.3437   -6.1110  -14.2451 O   0  0  0  0  0  0  0  0  0  0  0  0
   17.0309   -5.8855  -15.4239 C   0  0  0  0  0  0  0  0  0  0  0  0
   17.9641   -7.0738  -15.6992 C   0  0  2  0  0  0  0  0  0  0  0  0
   17.1543   -8.2418  -15.5523 N   0  0  0  0  0  0  0  0  0  0  0  0
   19.0572   -7.0022  -14.7009 C   0  0  0  0  0  0  0  0  0  0  0  0
   18.8192   -7.4619  -13.5453 O   0  0  0  0  0  0  0  0  0  0  0  0
   22.3822   -8.6499  -14.5252 C   0  0  0  0  0  0  0  0  0  0  0  0
   22.6443   -7.1496  -14.4251 C   0  0  1  0  0  0  0  0  0  0  0  0
   23.0876   -6.5866  -15.7524 C   0  0  0  0  0  0  0  0  0  0  0  0
   21.3962   -6.4433  -13.9427 C   0  0  2  0  0  0  0  0  0  0  0  0
   20.3421   -6.4671  -14.9233 N   0  0  0  0  0  0  0  0  0  0  0  0
   21.7504   -5.0167  -13.7114 C   0  0  0  0  0  0  0  0  0  0  0  0
   22.5534   -4.5735  -12.6914 O   0  0  0  0  0  0  0  0  0  0  0  0
   21.2776   -4.1670  -14.5094 O   0  0  0  0  0  0  0  0  0  0  0  0
  1  2  1  0
  2  3  2  0
  4  5  1  0
  4  2  1  0
  6  8  1  0
  6  5  1  0
  6  7  1  6
  8  9  2  0
 10 11  1  0
 12 11  1  1
 12 13  1  0
 13  8  1  0
 14 12  1  0
 15 14  2  0
 17 16  1  6
 17 19  1  0
 18 17  1  0
 19 21  1  0
 19 20  1  6
 20 14  1  0
 21 22  1  0
 23 21  2  0
M  END
$$$$
