QSV.pdb
     RDKit          3D

 23 22  0  0  1  0  0  0  0  0999 V2000
   25.2081  -19.6742   -9.0514 N   0  0  0  0  0  0  0  0  0  0  0  0
   25.1024  -21.0624   -9.2648 C   0  0  0  0  0  0  0  0  0  0  0  0
   24.1684  -21.6996   -8.7368 O   0  0  0  0  0  0  0  0  0  0  0  0
   26.0896  -21.7617  -10.1078 C   0  0  0  0  0  0  0  0  0  0  0  0
   26.7590  -20.7863  -11.0517 C   0  0  0  0  0  0  0  0  0  0  0  0
   25.9444  -20.5885  -12.3119 C   0  0  2  0  0  0  0  0  0  0  0  0
   25.7881  -21.8614  -12.9524 N   0  0  0  0  0  0  0  0  0  0  0  0
   26.6532  -19.5964  -13.1525 C   0  0  0  0  0  0  0  0  0  0  0  0
   27.0119  -18.5254  -12.5959 O   0  0  0  0  0  0  0  0  0  0  0  0
   27.4219  -20.2614  -17.1312 O   0  0  0  0  0  0  0  0  0  0  0  0
   28.3167  -19.4904  -16.4119 C   0  0  0  0  0  0  0  0  0  0  0  0
   27.5700  -18.7828  -15.2715 C   0  0  2  0  0  0  0  0  0  0  0  0
   26.9278  -19.8210  -14.5289 N   0  0  0  0  0  0  0  0  0  0  0  0
   26.6089  -17.8474  -15.9022 C   0  0  0  0  0  0  0  0  0  0  0  0
   25.4890  -18.3186  -16.2589 O   0  0  0  0  0  0  0  0  0  0  0  0
   24.9246  -13.9460  -15.1679 C   0  0  0  0  0  0  0  0  0  0  0  0
   25.9820  -14.1772  -16.2441 C   0  0  1  0  0  0  0  0  0  0  0  0
   27.3674  -13.9128  -15.7093 C   0  0  0  0  0  0  0  0  0  0  0  0
   25.8794  -15.5937  -16.7661 C   0  0  2  0  0  0  0  0  0  0  0  0
   26.8301  -16.4759  -16.1409 N   0  0  0  0  0  0  0  0  0  0  0  0
   26.1996  -15.5594  -18.2189 C   0  0  0  0  0  0  0  0  0  0  0  0
   25.3500  -15.0910  -19.1885 O   0  0  0  0  0  0  0  0  0  0  0  0
   27.3271  -15.9908  -18.5726 O   0  0  0  0  0  0  0  0  0  0  0  0
  1  2  1  0
  2  3  2  0
  4  5  1  0
  4  2  1  0
  6  8  1  0
  6  5  1  0
  6  7  1  6
  8  9  2  0
 10 11  1  0
 12 11  1  6
 12 13  1  0
 13  8  1  0
 14 12  1  0
 15 14  2  0
 17 16  1  1
 17 19  1  0
 18 17  1  0
 19 21  1  0
 19 20  1  1
 20 14  1  0
 21 22  1  0
 23 21  2  0
M  END
$$$$
