QSV.pdb
     RDKit          3D

 23 22  0  0  1  0  0  0  0  0999 V2000
   15.3397  -12.4515  -19.1083 N   0  0  0  0  0  0  0  0  0  0  0  0
   14.6052  -13.5990  -18.7511 C   0  0  0  0  0  0  0  0  0  0  0  0
   14.2664  -14.4151  -19.6323 O   0  0  0  0  0  0  0  0  0  0  0  0
   14.2371  -13.8372  -17.3432 C   0  0  0  0  0  0  0  0  0  0  0  0
   14.7623  -12.7205  -16.4670 C   0  0  0  0  0  0  0  0  0  0  0  0
   16.1589  -13.0204  -15.9665 C   0  0  2  0  0  0  0  0  0  0  0  0
   16.0840  -14.1245  -15.0552 N   0  0  0  0  0  0  0  0  0  0  0  0
   16.6863  -11.7849  -15.3430 C   0  0  0  0  0  0  0  0  0  0  0  0
   16.2999  -11.5230  -14.1736 O   0  0  0  0  0  0  0  0  0  0  0  0
   20.1773  -10.5337  -15.9769 O   0  0  0  0  0  0  0  0  0  0  0  0
   19.4718  -10.0186  -14.9046 C   0  0  0  0  0  0  0  0  0  0  0  0
   18.0265   -9.7364  -15.3405 C   0  0  2  0  0  0  0  0  0  0  0  0
   17.5898  -10.9177  -16.0153 N   0  0  0  0  0  0  0  0  0  0  0  0
   18.0688   -8.5495  -16.2270 C   0  0  0  0  0  0  0  0  0  0  0  0
   18.2665   -8.7533  -17.4611 O   0  0  0  0  0  0  0  0  0  0  0  0
   15.4405   -5.7779  -16.7112 C   0  0  0  0  0  0  0  0  0  0  0  0
   16.7823   -5.1139  -16.4137 C   0  0  1  0  0  0  0  0  0  0  0  0
   16.8521   -4.6500  -14.9801 C   0  0  0  0  0  0  0  0  0  0  0  0
   17.9082   -6.0801  -16.7111 C   0  0  2  0  0  0  0  0  0  0  0  0
   17.9076   -7.2100  -15.8187 N   0  0  0  0  0  0  0  0  0  0  0  0
   19.1892   -5.3529  -16.5000 C   0  0  0  0  0  0  0  0  0  0  0  0
   19.7305   -4.4625  -17.3921 O   0  0  0  0  0  0  0  0  0  0  0  0
   19.8107   -5.5755  -15.4292 O   0  0  0  0  0  0  0  0  0  0  0  0
  1  2  1  0
  2  3  2  0
  4  5  1  0
  4  2  1  0
  6  8  1  0
  6  5  1  0
  6  7  1  1
  8  9  2  0
 10 11  1  0
 12 11  1  6
 12 13  1  0
 13  8  1  0
 14 12  1  0
 15 14  2  0
 17 16  1  1
 17 19  1  0
 18 17  1  0
 19 21  1  0
 19 20  1  1
 20 14  1  0
 21 22  1  0
 23 21  2  0
M  END
$$$$
