QSV.pdb
     RDKit          3D

 23 22  0  0  1  0  0  0  0  0999 V2000
   15.2506  -12.9558  -12.6978 N   0  0  0  0  0  0  0  0  0  0  0  0
   15.3095  -12.6411  -14.0695 C   0  0  0  0  0  0  0  0  0  0  0  0
   15.6051  -13.5288  -14.8952 O   0  0  0  0  0  0  0  0  0  0  0  0
   15.0235  -11.2698  -14.5300 C   0  0  0  0  0  0  0  0  0  0  0  0
   14.7053  -10.3755  -13.3513 C   0  0  0  0  0  0  0  0  0  0  0  0
   15.4212   -9.0462  -13.4563 C   0  0  2  0  0  0  0  0  0  0  0  0
   16.8251   -9.2999  -13.5970 N   0  0  0  0  0  0  0  0  0  0  0  0
   15.0893   -8.2615  -12.2449 C   0  0  0  0  0  0  0  0  0  0  0  0
   13.8688   -8.1235  -11.9679 O   0  0  0  0  0  0  0  0  0  0  0  0
   17.9281   -7.1412   -9.6038 O   0  0  0  0  0  0  0  0  0  0  0  0
   16.6226   -7.2376   -9.1575 C   0  0  0  0  0  0  0  0  0  0  0  0
   15.6688   -6.8820  -10.3075 C   0  0  2  0  0  0  0  0  0  0  0  0
   16.0872   -7.6804  -11.4161 N   0  0  0  0  0  0  0  0  0  0  0  0
   15.8183   -5.4286  -10.5561 C   0  0  0  0  0  0  0  0  0  0  0  0
   16.7180   -5.0684  -11.3711 O   0  0  0  0  0  0  0  0  0  0  0  0
   13.3819   -2.8093  -11.9270 C   0  0  0  0  0  0  0  0  0  0  0  0
   13.8830   -2.3341  -10.5658 C   0  0  1  0  0  0  0  0  0  0  0  0
   12.8700   -2.6189   -9.4851 C   0  0  0  0  0  0  0  0  0  0  0  0
   15.2009   -3.0039  -10.2435 C   0  0  2  0  0  0  0  0  0  0  0  0
   15.0458   -4.4081   -9.9655 N   0  0  0  0  0  0  0  0  0  0  0  0
   15.7364   -2.3672   -9.0098 C   0  0  0  0  0  0  0  0  0  0  0  0
   16.3095   -1.1217   -8.9670 O   0  0  0  0  0  0  0  0  0  0  0  0
   15.6539   -3.0220   -7.9389 O   0  0  0  0  0  0  0  0  0  0  0  0
  1  2  1  0
  2  3  2  0
  4  5  1  0
  4  2  1  0
  6  8  1  0
  6  5  1  0
  6  7  1  1
  8  9  2  0
 10 11  1  0
 12 11  1  1
 12 13  1  0
 13  8  1  0
 14 12  1  0
 15 14  2  0
 17 16  1  6
 17 19  1  0
 18 17  1  0
 19 21  1  0
 19 20  1  1
 20 14  1  0
 21 22  1  0
 23 21  2  0
M  END
$$$$
