QSV.pdb
     RDKit          3D

 23 22  0  0  1  0  0  0  0  0999 V2000
   24.8590  -31.3227  -15.8168 N   0  0  0  0  0  0  0  0  0  0  0  0
   25.1628  -31.4601  -17.1853 C   0  0  0  0  0  0  0  0  0  0  0  0
   25.5104  -32.5719  -17.6327 O   0  0  0  0  0  0  0  0  0  0  0  0
   25.0713  -30.2970  -18.0870 C   0  0  0  0  0  0  0  0  0  0  0  0
   24.6407  -29.0676  -17.3165 C   0  0  0  0  0  0  0  0  0  0  0  0
   23.1544  -29.0864  -17.0307 C   0  0  2  0  0  0  0  0  0  0  0  0
   22.4554  -28.8710  -18.2636 N   0  0  0  0  0  0  0  0  0  0  0  0
   22.8802  -28.0437  -16.0155 C   0  0  0  0  0  0  0  0  0  0  0  0
   23.5233  -28.1123  -14.9351 O   0  0  0  0  0  0  0  0  0  0  0  0
   21.4341  -23.7352  -14.8457 O   0  0  0  0  0  0  0  0  0  0  0  0
   21.6293  -24.6941  -15.8230 C   0  0  0  0  0  0  0  0  0  0  0  0
   21.6913  -26.0802  -15.1646 C   0  0  2  0  0  0  0  0  0  0  0  0
   21.9373  -27.0016  -16.2286 N   0  0  0  0  0  0  0  0  0  0  0  0
   20.3835  -26.3008  -14.5030 C   0  0  0  0  0  0  0  0  0  0  0  0
   19.3871  -26.5321  -15.2493 O   0  0  0  0  0  0  0  0  0  0  0  0
   19.8546  -25.8897  -10.3085 C   0  0  0  0  0  0  0  0  0  0  0  0
   19.0171  -26.9354  -11.0399 C   0  0  1  0  0  0  0  0  0  0  0  0
   17.6583  -27.0850  -10.4023 C   0  0  0  0  0  0  0  0  0  0  0  0
   18.8770  -26.5509  -12.4966 C   0  0  2  0  0  0  0  0  0  0  0  0
   20.1489  -26.2767  -13.1134 N   0  0  0  0  0  0  0  0  0  0  0  0
   18.0803  -25.2955  -12.5533 C   0  0  0  0  0  0  0  0  0  0  0  0
   16.7239  -25.2472  -12.7516 O   0  0  0  0  0  0  0  0  0  0  0  0
   18.7001  -24.2104  -12.4087 O   0  0  0  0  0  0  0  0  0  0  0  0
  1  2  1  0
  2  3  2  0
  4  5  1  0
  4  2  1  0
  6  8  1  0
  6  5  1  0
  6  7  1  6
  8  9  2  0
 10 11  1  0
 12 11  1  6
 12 13  1  0
 13  8  1  0
 14 12  1  0
 15 14  2  0
 17 16  1  1
 17 19  1  0
 18 17  1  0
 19 21  1  0
 19 20  1  1
 20 14  1  0
 21 22  1  0
 23 21  2  0
M  END
$$$$
