QSV.pdb
     RDKit          3D

 23 22  0  0  1  0  0  0  0  0999 V2000
   17.5753  -15.5762  -15.5663 N   0  0  0  0  0  0  0  0  0  0  0  0
   17.4845  -16.2720  -16.7876 C   0  0  0  0  0  0  0  0  0  0  0  0
   16.6311  -17.1720  -16.9243 O   0  0  0  0  0  0  0  0  0  0  0  0
   18.3926  -15.9401  -17.9010 C   0  0  0  0  0  0  0  0  0  0  0  0
   19.3518  -14.8448  -17.4879 C   0  0  0  0  0  0  0  0  0  0  0  0
   19.0628  -13.5516  -18.2193 C   0  0  2  0  0  0  0  0  0  0  0  0
   19.1239  -13.8072  -19.6286 N   0  0  0  0  0  0  0  0  0  0  0  0
   20.0537  -12.5490  -17.7655 C   0  0  0  0  0  0  0  0  0  0  0  0
   20.4337  -12.6203  -16.5672 O   0  0  0  0  0  0  0  0  0  0  0  0
   23.0763  -10.5742  -19.8216 O   0  0  0  0  0  0  0  0  0  0  0  0
   22.0498   -9.8213  -19.2811 C   0  0  0  0  0  0  0  0  0  0  0  0
   21.4570  -10.5674  -18.0767 C   0  0  2  0  0  0  0  0  0  0  0  0
   20.5676  -11.5413  -18.6263 N   0  0  0  0  0  0  0  0  0  0  0  0
   20.7613   -9.5570  -17.2451 C   0  0  0  0  0  0  0  0  0  0  0  0
   19.6288   -9.1559  -17.6451 O   0  0  0  0  0  0  0  0  0  0  0  0
   19.3305   -9.8457  -13.8885 C   0  0  0  0  0  0  0  0  0  0  0  0
   20.2820   -8.6543  -13.8176 C   0  0  1  0  0  0  0  0  0  0  0  0
   21.5961   -9.0461  -13.1891 C   0  0  0  0  0  0  0  0  0  0  0  0
   20.5068   -8.0959  -15.2058 C   0  0  2  0  0  0  0  0  0  0  0  0
   21.2483   -9.0012  -16.0447 N   0  0  0  0  0  0  0  0  0  0  0  0
   21.3221   -6.8592  -15.0640 C   0  0  0  0  0  0  0  0  0  0  0  0
   20.8749   -5.6987  -14.4856 O   0  0  0  0  0  0  0  0  0  0  0  0
   22.4991   -6.8888  -15.5069 O   0  0  0  0  0  0  0  0  0  0  0  0
  1  2  1  0
  2  3  2  0
  4  5  1  0
  4  2  1  0
  6  8  1  0
  6  5  1  0
  6  7  1  6
  8  9  2  0
 10 11  1  0
 12 11  1  6
 12 13  1  0
 13  8  1  0
 14 12  1  0
 15 14  2  0
 17 16  1  6
 17 19  1  0
 18 17  1  0
 19 21  1  0
 19 20  1  6
 20 14  1  0
 21 22  1  0
 23 21  2  0
M  END
$$$$
