FFW.pdb
     RDKit          3D

 37 40  0  0  1  0  0  0  0  0999 V2000
   14.8164  -18.4920    3.7112 N   0  0  0  0  0  0  0  0  0  0  0  0
   16.1439  -18.7458    4.2043 C   0  0  1  0  0  0  0  0  0  0  0  0
   17.0762  -17.6321    3.7746 C   0  0  0  0  0  0  0  0  0  0  0  0
   17.5233  -17.9160    2.3899 C   0  0  0  0  0  0  0  0  0  0  0  0
   17.0646  -17.0705    1.4010 C   0  0  0  0  0  0  0  0  0  0  0  0
   17.4715  -17.3152    0.1078 C   0  0  0  0  0  0  0  0  0  0  0  0
   18.3139  -18.3778   -0.1811 C   0  0  0  0  0  0  0  0  0  0  0  0
   18.7677  -19.2174    0.8117 C   0  0  0  0  0  0  0  0  0  0  0  0
   18.3724  -18.9896    2.1094 C   0  0  0  0  0  0  0  0  0  0  0  0
   16.0913  -18.8779    5.6775 C   0  0  0  0  0  0  0  0  0  0  0  0
   15.2618  -18.2043    6.3748 O   0  0  0  0  0  0  0  0  0  0  0  0
   16.9660  -19.7623    6.3587 N   0  0  0  0  0  0  0  0  0  0  0  0
   16.9664  -19.8094    7.8434 C   0  0  1  0  0  0  0  0  0  0  0  0
   17.1929  -21.2486    8.1886 C   0  0  0  0  0  0  0  0  0  0  0  0
   16.0433  -22.1372    8.1215 C   0  0  0  0  0  0  0  0  0  0  0  0
   15.9660  -23.0828    7.0861 C   0  0  0  0  0  0  0  0  0  0  0  0
   14.9139  -23.9624    7.0066 C   0  0  0  0  0  0  0  0  0  0  0  0
   13.8928  -23.9622    7.9273 C   0  0  0  0  0  0  0  0  0  0  0  0
   13.9444  -23.0569    8.9385 C   0  0  0  0  0  0  0  0  0  0  0  0
   14.9982  -22.1721    9.0222 C   0  0  0  0  0  0  0  0  0  0  0  0
   18.0657  -18.9403    8.3010 C   0  0  0  0  0  0  0  0  0  0  0  0
   19.2578  -19.2552    7.9466 O   0  0  0  0  0  0  0  0  0  0  0  0
   17.8997  -17.7837    9.0954 N   0  0  0  0  0  0  0  0  0  0  0  0
   18.8070  -16.6627    8.9208 C   0  0  1  0  0  0  0  0  0  0  0  0
   18.7250  -16.1401    7.5184 C   0  0  0  0  0  0  0  0  0  0  0  0
   19.5248  -14.9325    7.3311 C   0  0  0  0  0  0  0  0  0  0  0  0
   20.6368  -14.5716    8.0914 C   0  0  0  0  0  0  0  0  0  0  0  0
   21.1039  -13.3868    7.6752 N   0  0  0  0  0  0  0  0  0  0  0  0
   20.3561  -12.9313    6.6649 C   0  0  0  0  0  0  0  0  0  0  0  0
   20.4772  -11.7781    5.9246 C   0  0  0  0  0  0  0  0  0  0  0  0
   19.5660  -11.5558    4.8979 C   0  0  0  0  0  0  0  0  0  0  0  0
   18.5789  -12.5017    4.6653 C   0  0  0  0  0  0  0  0  0  0  0  0
   18.4789  -13.6478    5.4216 C   0  0  0  0  0  0  0  0  0  0  0  0
   19.3624  -13.8851    6.4344 C   0  0  0  0  0  0  0  0  0  0  0  0
   18.6983  -15.6110    9.9195 C   0  0  0  0  0  0  0  0  0  0  0  0
   17.5701  -15.1542   10.2718 O   0  0  0  0  0  0  0  0  0  0  0  0
   19.8606  -15.0943   10.5031 O   0  0  0  0  0  0  0  0  0  0  0  0
  2  1  1  1
  2  3  1  0
  4  3  1  0
  4  5  2  0
  6  5  1  0
  7  6  2  0
  8  9  2  0
  8  7  1  0
  9  4  1  0
 10 11  2  0
 10  2  1  0
 12 10  1  0
 13 21  1  0
 13 12  1  0
 13 14  1  6
 15 14  1  0
 15 16  2  0
 17 16  1  0
 18 17  2  0
 19 20  2  0
 19 18  1  0
 20 15  1  0
 21 22  2  0
 23 24  1  0
 23 21  1  0
 24 25  1  6
 25 26  1  0
 26 34  1  0
 26 27  2  0
 27 28  1  0
 29 28  1  0
 29 30  2  0
 31 30  1  0
 32 31  2  0
 33 32  1  0
 33 34  2  0
 34 29  1  0
 35 24  1  0
 36 35  2  0
 37 35  1  0
M  END
$$$$
