FFW.pdb
     RDKit          3D

 37 40  0  0  1  0  0  0  0  0999 V2000
   25.3067   -9.1051  -22.6711 N   0  0  0  0  0  0  0  0  0  0  0  0
   24.6030   -9.3795  -21.4468 C   0  0  1  0  0  0  0  0  0  0  0  0
   25.4999  -10.1446  -20.4958 C   0  0  0  0  0  0  0  0  0  0  0  0
   25.7509  -11.4844  -21.0790 C   0  0  0  0  0  0  0  0  0  0  0  0
   26.9802  -11.6859  -21.6718 C   0  0  0  0  0  0  0  0  0  0  0  0
   27.2344  -12.9254  -22.2166 C   0  0  0  0  0  0  0  0  0  0  0  0
   26.2812  -13.9308  -22.1662 C   0  0  0  0  0  0  0  0  0  0  0  0
   25.0563  -13.7220  -21.5725 C   0  0  0  0  0  0  0  0  0  0  0  0
   24.7833  -12.4908  -21.0229 C   0  0  0  0  0  0  0  0  0  0  0  0
   24.1465   -8.1002  -20.8588 C   0  0  0  0  0  0  0  0  0  0  0  0
   24.7594   -7.0061  -21.0936 O   0  0  0  0  0  0  0  0  0  0  0  0
   23.0084   -8.0548  -20.0139 N   0  0  0  0  0  0  0  0  0  0  0  0
   22.5815   -6.7659  -19.4115 C   0  0  1  0  0  0  0  0  0  0  0  0
   21.4573   -6.2843  -20.2751 C   0  0  0  0  0  0  0  0  0  0  0  0
   20.7796   -5.0643  -19.8652 C   0  0  0  0  0  0  0  0  0  0  0  0
   21.4260   -3.8293  -20.0362 C   0  0  0  0  0  0  0  0  0  0  0  0
   20.8071   -2.6519  -19.6931 C   0  0  0  0  0  0  0  0  0  0  0  0
   19.5359   -2.6224  -19.1700 C   0  0  0  0  0  0  0  0  0  0  0  0
   18.8895   -3.8040  -18.9948 C   0  0  0  0  0  0  0  0  0  0  0  0
   19.5067   -4.9880  -19.3375 C   0  0  0  0  0  0  0  0  0  0  0  0
   22.1482   -7.0578  -18.0330 C   0  0  0  0  0  0  0  0  0  0  0  0
   21.5837   -8.1891  -17.8157 O   0  0  0  0  0  0  0  0  0  0  0  0
   22.3158   -6.1847  -16.9349 N   0  0  0  0  0  0  0  0  0  0  0  0
   21.9391   -6.6317  -15.6050 C   0  0  1  0  0  0  0  0  0  0  0  0
   23.1131   -7.2563  -14.9136 C   0  0  0  0  0  0  0  0  0  0  0  0
   23.1133   -8.7121  -15.0311 C   0  0  0  0  0  0  0  0  0  0  0  0
   21.9866   -9.5305  -14.9579 C   0  0  0  0  0  0  0  0  0  0  0  0
   22.3530  -10.8148  -15.0655 N   0  0  0  0  0  0  0  0  0  0  0  0
   23.6794  -10.9001  -15.2095 C   0  0  0  0  0  0  0  0  0  0  0  0
   24.4823  -12.0052  -15.3726 C   0  0  0  0  0  0  0  0  0  0  0  0
   25.8502  -11.8084  -15.5274 C   0  0  0  0  0  0  0  0  0  0  0  0
   26.3440  -10.5127  -15.5108 C   0  0  0  0  0  0  0  0  0  0  0  0
   25.5188   -9.4232  -15.3452 C   0  0  0  0  0  0  0  0  0  0  0  0
   24.1736   -9.5940  -15.1908 C   0  0  0  0  0  0  0  0  0  0  0  0
   21.2645   -5.6404  -14.7818 C   0  0  0  0  0  0  0  0  0  0  0  0
   21.5641   -4.4114  -14.8560 O   0  0  0  0  0  0  0  0  0  0  0  0
   20.2655   -6.0507  -13.8917 O   0  0  0  0  0  0  0  0  0  0  0  0
  2  1  1  6
  2  3  1  0
  4  3  1  0
  4  5  2  0
  6  5  1  0
  7  6  2  0
  8  9  2  0
  8  7  1  0
  9  4  1  0
 10 11  2  0
 10  2  1  0
 12 10  1  0
 13 21  1  0
 13 12  1  0
 13 14  1  6
 15 14  1  0
 15 16  2  0
 17 16  1  0
 18 17  2  0
 19 20  2  0
 19 18  1  0
 20 15  1  0
 21 22  2  0
 23 24  1  0
 23 21  1  0
 24 25  1  1
 25 26  1  0
 26 34  1  0
 26 27  2  0
 27 28  1  0
 29 28  1  0
 29 30  2  0
 31 30  1  0
 32 31  2  0
 33 32  1  0
 33 34  2  0
 34 29  1  0
 35 24  1  0
 36 35  2  0
 37 35  1  0
M  END
$$$$
