FFW.pdb
     RDKit          3D

 37 40  0  0  1  0  0  0  0  0999 V2000
   27.1060  -21.8771  -13.5553 N   0  0  0  0  0  0  0  0  0  0  0  0
   27.0465  -20.6700  -12.7749 C   0  0  1  0  0  0  0  0  0  0  0  0
   26.0629  -19.7006  -13.3971 C   0  0  0  0  0  0  0  0  0  0  0  0
   26.6778  -19.1491  -14.6282 C   0  0  0  0  0  0  0  0  0  0  0  0
   27.6598  -18.1947  -14.4609 C   0  0  0  0  0  0  0  0  0  0  0  0
   28.2464  -17.6722  -15.5927 C   0  0  0  0  0  0  0  0  0  0  0  0
   27.8567  -18.0971  -16.8535 C   0  0  0  0  0  0  0  0  0  0  0  0
   26.8757  -19.0505  -17.0123 C   0  0  0  0  0  0  0  0  0  0  0  0
   26.2779  -19.5842  -15.8942 C   0  0  0  0  0  0  0  0  0  0  0  0
   26.6707  -21.0150  -11.3856 C   0  0  0  0  0  0  0  0  0  0  0  0
   25.7415  -21.8537  -11.1385 O   0  0  0  0  0  0  0  0  0  0  0  0
   27.3371  -20.4200  -10.2842 N   0  0  0  0  0  0  0  0  0  0  0  0
   26.9095  -20.7374   -8.8975 C   0  0  1  0  0  0  0  0  0  0  0  0
   27.8270  -19.9488   -8.0155 C   0  0  0  0  0  0  0  0  0  0  0  0
   27.5784  -19.9992   -6.5833 C   0  0  0  0  0  0  0  0  0  0  0  0
   26.7440  -21.0036   -6.0663 C   0  0  0  0  0  0  0  0  0  0  0  0
   26.5108  -21.1061   -4.7164 C   0  0  0  0  0  0  0  0  0  0  0  0
   27.0765  -20.2393   -3.8114 C   0  0  0  0  0  0  0  0  0  0  0  0
   27.8874  -19.2589   -4.2866 C   0  0  0  0  0  0  0  0  0  0  0  0
   28.1242  -19.1521   -5.6404 C   0  0  0  0  0  0  0  0  0  0  0  0
   25.5037  -20.3115   -8.7728 C   0  0  0  0  0  0  0  0  0  0  0  0
   25.2296  -19.0861   -9.0354 O   0  0  0  0  0  0  0  0  0  0  0  0
   24.4377  -21.1567   -8.3914 N   0  0  0  0  0  0  0  0  0  0  0  0
   23.0732  -20.7684   -8.7041 C   0  0  1  0  0  0  0  0  0  0  0  0
   22.9346  -20.4878  -10.1699 C   0  0  0  0  0  0  0  0  0  0  0  0
   21.5698  -20.1178  -10.5350 C   0  0  0  0  0  0  0  0  0  0  0  0
   20.8962  -18.9767  -10.1004 C   0  0  0  0  0  0  0  0  0  0  0  0
   19.6508  -18.9711  -10.5946 N   0  0  0  0  0  0  0  0  0  0  0  0
   19.4535  -20.0592  -11.3460 C   0  0  0  0  0  0  0  0  0  0  0  0
   18.3439  -20.4538  -12.0571 C   0  0  0  0  0  0  0  0  0  0  0  0
   18.4150  -21.6359  -12.7860 C   0  0  0  0  0  0  0  0  0  0  0  0
   19.5957  -22.3629  -12.7650 C   0  0  0  0  0  0  0  0  0  0  0  0
   20.6922  -21.9462  -12.0442 C   0  0  0  0  0  0  0  0  0  0  0  0
   20.6435  -20.7896  -11.3214 C   0  0  0  0  0  0  0  0  0  0  0  0
   22.0403  -21.6613   -8.2029 C   0  0  0  0  0  0  0  0  0  0  0  0
   20.8867  -21.2296   -7.9057 O   0  0  0  0  0  0  0  0  0  0  0  0
   22.3250  -23.0226   -8.0464 O   0  0  0  0  0  0  0  0  0  0  0  0
  2  1  1  6
  2  3  1  0
  4  3  1  0
  4  5  2  0
  6  5  1  0
  7  6  2  0
  8  9  2  0
  8  7  1  0
  9  4  1  0
 10 11  2  0
 10  2  1  0
 12 10  1  0
 13 21  1  0
 13 12  1  0
 13 14  1  1
 15 14  1  0
 15 16  2  0
 17 16  1  0
 18 17  2  0
 19 20  2  0
 19 18  1  0
 20 15  1  0
 21 22  2  0
 23 24  1  0
 23 21  1  0
 24 25  1  6
 25 26  1  0
 26 34  1  0
 26 27  2  0
 27 28  1  0
 29 28  1  0
 29 30  2  0
 31 30  1  0
 32 31  2  0
 33 32  1  0
 33 34  2  0
 34 29  1  0
 35 24  1  0
 36 35  2  0
 37 35  1  0
M  END
$$$$
