FFW.pdb
     RDKit          3D

 37 40  0  0  1  0  0  0  0  0999 V2000
   25.7464  -19.3332   -7.7074 N   0  0  0  0  0  0  0  0  0  0  0  0
   26.7504  -20.1167   -8.3765 C   0  0  1  0  0  0  0  0  0  0  0  0
   27.2194  -21.2371   -7.4715 C   0  0  0  0  0  0  0  0  0  0  0  0
   27.9252  -20.6303   -6.3175 C   0  0  0  0  0  0  0  0  0  0  0  0
   27.3481  -20.7977   -5.0756 C   0  0  0  0  0  0  0  0  0  0  0  0
   27.9905  -20.2443   -3.9897 C   0  0  0  0  0  0  0  0  0  0  0  0
   29.1766  -19.5445   -4.1488 C   0  0  0  0  0  0  0  0  0  0  0  0
   29.7466  -19.3818   -5.3918 C   0  0  0  0  0  0  0  0  0  0  0  0
   29.1202  -19.9269   -6.4886 C   0  0  0  0  0  0  0  0  0  0  0  0
   26.1884  -20.6356   -9.6436 C   0  0  0  0  0  0  0  0  0  0  0  0
   24.9710  -21.0086   -9.7258 O   0  0  0  0  0  0  0  0  0  0  0  0
   26.9918  -20.7324  -10.8082 N   0  0  0  0  0  0  0  0  0  0  0  0
   26.6963  -19.8788  -11.9875 C   0  0  1  0  0  0  0  0  0  0  0  0
   27.9572  -19.8779  -12.7949 C   0  0  0  0  0  0  0  0  0  0  0  0
   27.8882  -19.3161  -14.1348 C   0  0  0  0  0  0  0  0  0  0  0  0
   27.7343  -17.9288  -14.2904 C   0  0  0  0  0  0  0  0  0  0  0  0
   27.6985  -17.3552  -15.5381 C   0  0  0  0  0  0  0  0  0  0  0  0
   27.8103  -18.1023  -16.6869 C   0  0  0  0  0  0  0  0  0  0  0  0
   27.9599  -19.4465  -16.5630 C   0  0  0  0  0  0  0  0  0  0  0  0
   27.9962  -20.0265  -15.3130 C   0  0  0  0  0  0  0  0  0  0  0  0
   25.5700  -20.5068  -12.7017 C   0  0  0  0  0  0  0  0  0  0  0  0
   25.5395  -21.7884  -12.7511 O   0  0  0  0  0  0  0  0  0  0  0  0
   24.5203  -19.7994  -13.3293 N   0  0  0  0  0  0  0  0  0  0  0  0
   23.4779  -20.5369  -14.0219 C   0  0  1  0  0  0  0  0  0  0  0  0
   22.2262  -20.5671  -13.1980 C   0  0  0  0  0  0  0  0  0  0  0  0
   21.1731  -21.3639  -13.8218 C   0  0  0  0  0  0  0  0  0  0  0  0
   21.0322  -22.7471  -13.7132 C   0  0  0  0  0  0  0  0  0  0  0  0
   19.9843  -23.1534  -14.4426 N   0  0  0  0  0  0  0  0  0  0  0  0
   19.4097  -22.1041  -15.0393 C   0  0  0  0  0  0  0  0  0  0  0  0
   18.3059  -22.0473  -15.8584 C   0  0  0  0  0  0  0  0  0  0  0  0
   17.8995  -20.8040  -16.3307 C   0  0  0  0  0  0  0  0  0  0  0  0
   18.6209  -19.6800  -15.9574 C   0  0  0  0  0  0  0  0  0  0  0  0
   19.7231  -19.7641  -15.1366 C   0  0  0  0  0  0  0  0  0  0  0  0
   20.1393  -20.9744  -14.6627 C   0  0  0  0  0  0  0  0  0  0  0  0
   23.2355  -20.1309  -15.3973 C   0  0  0  0  0  0  0  0  0  0  0  0
   22.7892  -18.9773  -15.6725 O   0  0  0  0  0  0  0  0  0  0  0  0
   23.5005  -21.0301  -16.4365 O   0  0  0  0  0  0  0  0  0  0  0  0
  2  1  1  1
  2  3  1  0
  4  3  1  0
  4  5  2  0
  6  5  1  0
  7  6  2  0
  8  9  2  0
  8  7  1  0
  9  4  1  0
 10 11  2  0
 10  2  1  0
 12 10  1  0
 13 21  1  0
 13 12  1  0
 13 14  1  6
 15 14  1  0
 15 16  2  0
 17 16  1  0
 18 17  2  0
 19 20  2  0
 19 18  1  0
 20 15  1  0
 21 22  2  0
 23 24  1  0
 23 21  1  0
 24 25  1  1
 25 26  1  0
 26 34  1  0
 26 27  2  0
 27 28  1  0
 29 28  1  0
 29 30  2  0
 31 30  1  0
 32 31  2  0
 33 32  1  0
 33 34  2  0
 34 29  1  0
 35 24  1  0
 36 35  2  0
 37 35  1  0
M  END
$$$$
