FFW.pdb
     RDKit          3D

 37 40  0  0  1  0  0  0  0  0999 V2000
   23.8203  -20.9952  -17.4467 N   0  0  0  0  0  0  0  0  0  0  0  0
   23.7783  -20.2695  -16.2053 C   0  0  1  0  0  0  0  0  0  0  0  0
   22.3758  -20.3033  -15.6343 C   0  0  0  0  0  0  0  0  0  0  0  0
   21.5773  -19.2559  -16.3152 C   0  0  0  0  0  0  0  0  0  0  0  0
   21.7985  -17.9513  -15.9250 C   0  0  0  0  0  0  0  0  0  0  0  0
   21.0690  -16.9627  -16.5483 C   0  0  0  0  0  0  0  0  0  0  0  0
   20.1458  -17.2774  -17.5335 C   0  0  0  0  0  0  0  0  0  0  0  0
   19.9308  -18.5823  -17.9177 C   0  0  0  0  0  0  0  0  0  0  0  0
   20.6495  -19.5838  -17.3070 C   0  0  0  0  0  0  0  0  0  0  0  0
   24.7638  -20.8588  -15.2714 C   0  0  0  0  0  0  0  0  0  0  0  0
   24.9283  -22.1215  -15.1905 O   0  0  0  0  0  0  0  0  0  0  0  0
   25.5576  -20.0317  -14.4366 N   0  0  0  0  0  0  0  0  0  0  0  0
   26.5178  -20.6429  -13.4822 C   0  0  1  0  0  0  0  0  0  0  0  0
   27.7814  -19.8558  -13.6413 C   0  0  0  0  0  0  0  0  0  0  0  0
   28.8862  -20.1856  -12.7545 C   0  0  0  0  0  0  0  0  0  0  0  0
   29.5365  -21.4220  -12.8985 C   0  0  0  0  0  0  0  0  0  0  0  0
   30.6053  -21.7575  -12.1034 C   0  0  0  0  0  0  0  0  0  0  0  0
   31.0884  -20.9086  -11.1357 C   0  0  0  0  0  0  0  0  0  0  0  0
   30.4764  -19.7066  -10.9767 C   0  0  0  0  0  0  0  0  0  0  0  0
   29.4033  -19.3657  -11.7722 C   0  0  0  0  0  0  0  0  0  0  0  0
   25.9333  -20.5047  -12.1360 C   0  0  0  0  0  0  0  0  0  0  0  0
   25.2602  -19.4411  -11.8878 O   0  0  0  0  0  0  0  0  0  0  0  0
   26.0560  -21.4612  -11.1033 N   0  0  0  0  0  0  0  0  0  0  0  0
   25.8466  -21.0529   -9.7250 C   0  0  1  0  0  0  0  0  0  0  0  0
   26.8222  -21.7461   -8.8227 C   0  0  0  0  0  0  0  0  0  0  0  0
   26.7230  -21.2825   -7.4413 C   0  0  0  0  0  0  0  0  0  0  0  0
   25.5804  -21.3497   -6.6446 C   0  0  0  0  0  0  0  0  0  0  0  0
   25.8301  -20.7995   -5.4488 N   0  0  0  0  0  0  0  0  0  0  0  0
   27.0932  -20.3639   -5.4019 C   0  0  0  0  0  0  0  0  0  0  0  0
   27.7823  -19.7571   -4.3775 C   0  0  0  0  0  0  0  0  0  0  0  0
   29.1157  -19.4230   -4.5879 C   0  0  0  0  0  0  0  0  0  0  0  0
   29.6909  -19.7144   -5.8156 C   0  0  0  0  0  0  0  0  0  0  0  0
   28.9787  -20.3219   -6.8253 C   0  0  0  0  0  0  0  0  0  0  0  0
   27.6689  -20.6574   -6.6400 C   0  0  0  0  0  0  0  0  0  0  0  0
   25.7965  -19.6167   -9.5008 C   0  0  0  0  0  0  0  0  0  0  0  0
   26.7362  -18.8589   -9.8859 O   0  0  0  0  0  0  0  0  0  0  0  0
   24.6901  -19.0609   -8.8485 O   0  0  0  0  0  0  0  0  0  0  0  0
  2  1  1  6
  2  3  1  0
  4  3  1  0
  4  5  2  0
  6  5  1  0
  7  6  2  0
  8  9  2  0
  8  7  1  0
  9  4  1  0
 10 11  2  0
 10  2  1  0
 12 10  1  0
 13 21  1  0
 13 12  1  0
 13 14  1  1
 15 14  1  0
 15 16  2  0
 17 16  1  0
 18 17  2  0
 19 20  2  0
 19 18  1  0
 20 15  1  0
 21 22  2  0
 23 24  1  0
 23 21  1  0
 24 25  1  1
 25 26  1  0
 26 34  1  0
 26 27  2  0
 27 28  1  0
 29 28  1  0
 29 30  2  0
 31 30  1  0
 32 31  2  0
 33 32  1  0
 33 34  2  0
 34 29  1  0
 35 24  1  0
 36 35  2  0
 37 35  1  0
M  END
$$$$
