FFW.pdb
     RDKit          3D

 37 40  0  0  1  0  0  0  0  0999 V2000
   29.7665  -14.0172  -22.6162 N   0  0  0  0  0  0  0  0  0  0  0  0
   28.6427  -14.3977  -21.8026 C   0  0  1  0  0  0  0  0  0  0  0  0
   27.3526  -14.1583  -22.5592 C   0  0  0  0  0  0  0  0  0  0  0  0
   27.2172  -12.6994  -22.7862 C   0  0  0  0  0  0  0  0  0  0  0  0
   27.4240  -12.2469  -24.0729 C   0  0  0  0  0  0  0  0  0  0  0  0
   27.2994  -10.8948  -24.3054 C   0  0  0  0  0  0  0  0  0  0  0  0
   26.9767  -10.0252  -23.2750 C   0  0  0  0  0  0  0  0  0  0  0  0
   26.7716  -10.4847  -21.9930 C   0  0  0  0  0  0  0  0  0  0  0  0
   26.8916  -11.8316  -21.7407 C   0  0  0  0  0  0  0  0  0  0  0  0
   28.7924  -15.8172  -21.4113 C   0  0  0  0  0  0  0  0  0  0  0  0
   29.3403  -16.6660  -22.1908 O   0  0  0  0  0  0  0  0  0  0  0  0
   28.3292  -16.2758  -20.1518 N   0  0  0  0  0  0  0  0  0  0  0  0
   28.5613  -17.6849  -19.7432 C   0  0  1  0  0  0  0  0  0  0  0  0
   29.3807  -17.5992  -18.4930 C   0  0  0  0  0  0  0  0  0  0  0  0
   30.7989  -17.3143  -18.6458 C   0  0  0  0  0  0  0  0  0  0  0  0
   31.2361  -15.9798  -18.6343 C   0  0  0  0  0  0  0  0  0  0  0  0
   32.5701  -15.6700  -18.7420 C   0  0  0  0  0  0  0  0  0  0  0  0
   33.5358  -16.6409  -18.8654 C   0  0  0  0  0  0  0  0  0  0  0  0
   33.1383  -17.9395  -18.8792 C   0  0  0  0  0  0  0  0  0  0  0  0
   31.8008  -18.2551  -18.7716 C   0  0  0  0  0  0  0  0  0  0  0  0
   27.2370  -18.2886  -19.5089 C   0  0  0  0  0  0  0  0  0  0  0  0
   26.4012  -17.6269  -18.7952 O   0  0  0  0  0  0  0  0  0  0  0  0
   26.8211  -19.5390  -20.0187 N   0  0  0  0  0  0  0  0  0  0  0  0
   25.4450  -19.9641  -19.8288 C   0  0  1  0  0  0  0  0  0  0  0  0
   24.5013  -18.9030  -20.3085 C   0  0  0  0  0  0  0  0  0  0  0  0
   23.1032  -19.2953  -20.1524 C   0  0  0  0  0  0  0  0  0  0  0  0
   22.2806  -18.9518  -19.0800 C   0  0  0  0  0  0  0  0  0  0  0  0
   21.0737  -19.5118  -19.2385 N   0  0  0  0  0  0  0  0  0  0  0  0
   21.0444  -20.2186  -20.3729 C   0  0  0  0  0  0  0  0  0  0  0  0
   20.0181  -20.9370  -20.9413 C   0  0  0  0  0  0  0  0  0  0  0  0
   20.2509  -21.5676  -22.1587 C   0  0  0  0  0  0  0  0  0  0  0  0
   21.5018  -21.4459  -22.7448 C   0  0  0  0  0  0  0  0  0  0  0  0
   22.5128  -20.7212  -22.1546 C   0  0  0  0  0  0  0  0  0  0  0  0
   22.3057  -20.0952  -20.9597 C   0  0  0  0  0  0  0  0  0  0  0  0
   25.1216  -21.2819  -20.3523 C   0  0  0  0  0  0  0  0  0  0  0  0
   24.2532  -22.0157  -19.7928 O   0  0  0  0  0  0  0  0  0  0  0  0
   25.7807  -21.7484  -21.4954 O   0  0  0  0  0  0  0  0  0  0  0  0
  2  1  1  6
  2  3  1  0
  4  3  1  0
  4  5  2  0
  6  5  1  0
  7  6  2  0
  8  9  2  0
  8  7  1  0
  9  4  1  0
 10 11  2  0
 10  2  1  0
 12 10  1  0
 13 21  1  0
 13 12  1  0
 13 14  1  1
 15 14  1  0
 15 16  2  0
 17 16  1  0
 18 17  2  0
 19 20  2  0
 19 18  1  0
 20 15  1  0
 21 22  2  0
 23 24  1  0
 23 21  1  0
 24 25  1  6
 25 26  1  0
 26 34  1  0
 26 27  2  0
 27 28  1  0
 29 28  1  0
 29 30  2  0
 31 30  1  0
 32 31  2  0
 33 32  1  0
 33 34  2  0
 34 29  1  0
 35 24  1  0
 36 35  2  0
 37 35  1  0
M  END
$$$$
