FFW.pdb
     RDKit          3D

 37 40  0  0  1  0  0  0  0  0999 V2000
   26.0931  -20.2300  -14.0481 N   0  0  0  0  0  0  0  0  0  0  0  0
   25.1323  -20.0684  -12.9896 C   0  0  1  0  0  0  0  0  0  0  0  0
   23.8310  -20.7466  -13.3652 C   0  0  0  0  0  0  0  0  0  0  0  0
   23.2389  -20.0052  -14.5045 C   0  0  0  0  0  0  0  0  0  0  0  0
   23.2562  -20.6327  -15.7330 C   0  0  0  0  0  0  0  0  0  0  0  0
   22.7076  -19.9618  -16.8039 C   0  0  0  0  0  0  0  0  0  0  0  0
   22.1586  -18.6989  -16.6434 C   0  0  0  0  0  0  0  0  0  0  0  0
   22.1450  -18.0792  -15.4136 C   0  0  0  0  0  0  0  0  0  0  0  0
   22.6882  -18.7328  -14.3319 C   0  0  0  0  0  0  0  0  0  0  0  0
   25.6978  -20.6234  -11.7395 C   0  0  0  0  0  0  0  0  0  0  0  0
   26.2784  -21.7594  -11.7211 O   0  0  0  0  0  0  0  0  0  0  0  0
   25.6100  -19.9036  -10.5208 N   0  0  0  0  0  0  0  0  0  0  0  0
   26.2052  -20.4660   -9.2814 C   0  0  1  0  0  0  0  0  0  0  0  0
   26.8834  -19.3099   -8.6142 C   0  0  0  0  0  0  0  0  0  0  0  0
   27.4497  -19.5427   -7.2948 C   0  0  0  0  0  0  0  0  0  0  0  0
   26.9026  -18.8772   -6.1857 C   0  0  0  0  0  0  0  0  0  0  0  0
   27.3866  -19.0949   -4.9187 C   0  0  0  0  0  0  0  0  0  0  0  0
   28.4211  -19.9669   -4.6739 C   0  0  0  0  0  0  0  0  0  0  0  0
   28.9675  -20.6228   -5.7302 C   0  0  0  0  0  0  0  0  0  0  0  0
   28.4851  -20.4073   -7.0034 C   0  0  0  0  0  0  0  0  0  0  0  0
   25.0942  -21.0079   -8.4782 C   0  0  0  0  0  0  0  0  0  0  0  0
   25.3948  -21.7015   -7.4417 O   0  0  0  0  0  0  0  0  0  0  0  0
   23.7244  -20.8130   -8.7645 N   0  0  0  0  0  0  0  0  0  0  0  0
   22.7247  -21.5076   -7.9718 C   0  0  1  0  0  0  0  0  0  0  0  0
   21.6027  -20.5785   -7.6186 C   0  0  0  0  0  0  0  0  0  0  0  0
   20.4364  -21.2912   -7.1039 C   0  0  0  0  0  0  0  0  0  0  0  0
   20.2421  -21.6748   -5.7773 C   0  0  0  0  0  0  0  0  0  0  0  0
   19.0864  -22.3431   -5.6645 N   0  0  0  0  0  0  0  0  0  0  0  0
   18.4899  -22.4272   -6.8581 C   0  0  0  0  0  0  0  0  0  0  0  0
   17.2900  -23.0014   -7.2089 C   0  0  0  0  0  0  0  0  0  0  0  0
   16.8867  -22.9246   -8.5375 C   0  0  0  0  0  0  0  0  0  0  0  0
   17.7073  -22.2756   -9.4476 C   0  0  0  0  0  0  0  0  0  0  0  0
   18.9045  -21.7096   -9.0708 C   0  0  0  0  0  0  0  0  0  0  0  0
   19.3195  -21.7743   -7.7723 C   0  0  0  0  0  0  0  0  0  0  0  0
   22.2568  -22.7690   -8.5243 C   0  0  0  0  0  0  0  0  0  0  0  0
   21.9656  -23.7471   -7.7731 O   0  0  0  0  0  0  0  0  0  0  0  0
   22.1249  -22.9054   -9.9108 O   0  0  0  0  0  0  0  0  0  0  0  0
  2  1  1  6
  2  3  1  0
  4  3  1  0
  4  5  2  0
  6  5  1  0
  7  6  2  0
  8  9  2  0
  8  7  1  0
  9  4  1  0
 10 11  2  0
 10  2  1  0
 12 10  1  0
 13 21  1  0
 13 12  1  0
 13 14  1  1
 15 14  1  0
 15 16  2  0
 17 16  1  0
 18 17  2  0
 19 20  2  0
 19 18  1  0
 20 15  1  0
 21 22  2  0
 23 24  1  0
 23 21  1  0
 24 25  1  6
 25 26  1  0
 26 34  1  0
 26 27  2  0
 27 28  1  0
 29 28  1  0
 29 30  2  0
 31 30  1  0
 32 31  2  0
 33 32  1  0
 33 34  2  0
 34 29  1  0
 35 24  1  0
 36 35  2  0
 37 35  1  0
M  END
$$$$
