FFW.pdb
     RDKit          3D

 37 40  0  0  1  0  0  0  0  0999 V2000
   23.9305  -17.7668  -17.5367 N   0  0  0  0  0  0  0  0  0  0  0  0
   24.2324  -17.8529  -16.1328 C   0  0  1  0  0  0  0  0  0  0  0  0
   22.9620  -18.0976  -15.3452 C   0  0  0  0  0  0  0  0  0  0  0  0
   22.0869  -16.9115  -15.5052 C   0  0  0  0  0  0  0  0  0  0  0  0
   22.4546  -15.7692  -14.8247 C   0  0  0  0  0  0  0  0  0  0  0  0
   21.6564  -14.6549  -14.9631 C   0  0  0  0  0  0  0  0  0  0  0  0
   20.5236  -14.6893  -15.7614 C   0  0  0  0  0  0  0  0  0  0  0  0
   20.1631  -15.8334  -16.4378 C   0  0  0  0  0  0  0  0  0  0  0  0
   20.9473  -16.9567  -16.3123 C   0  0  0  0  0  0  0  0  0  0  0  0
   25.2241  -18.9310  -15.9206 C   0  0  0  0  0  0  0  0  0  0  0  0
   25.2679  -19.9519  -16.6847 O   0  0  0  0  0  0  0  0  0  0  0  0
   26.1589  -18.8582  -14.8566 N   0  0  0  0  0  0  0  0  0  0  0  0
   27.2620  -19.8491  -14.7680 C   0  0  1  0  0  0  0  0  0  0  0  0
   28.5154  -19.0332  -14.6976 C   0  0  0  0  0  0  0  0  0  0  0  0
   28.8648  -18.2487  -15.8716 C   0  0  0  0  0  0  0  0  0  0  0  0
   29.6207  -18.8436  -16.8948 C   0  0  0  0  0  0  0  0  0  0  0  0
   29.9428  -18.1476  -18.0344 C   0  0  0  0  0  0  0  0  0  0  0  0
   29.5458  -16.8458  -18.2298 C   0  0  0  0  0  0  0  0  0  0  0  0
   28.8136  -16.2479  -17.2545 C   0  0  0  0  0  0  0  0  0  0  0  0
   28.4881  -16.9424  -16.1091 C   0  0  0  0  0  0  0  0  0  0  0  0
   27.0339  -20.6386  -13.5442 C   0  0  0  0  0  0  0  0  0  0  0  0
   27.9328  -21.4916  -13.2124 O   0  0  0  0  0  0  0  0  0  0  0  0
   25.9008  -20.5186  -12.7087 N   0  0  0  0  0  0  0  0  0  0  0  0
   25.4876  -21.6530  -11.9008 C   0  0  1  0  0  0  0  0  0  0  0  0
   26.5363  -21.9742  -10.8791 C   0  0  0  0  0  0  0  0  0  0  0  0
   26.5013  -21.0559   -9.7439 C   0  0  0  0  0  0  0  0  0  0  0  0
   25.4122  -20.2679   -9.3730 C   0  0  0  0  0  0  0  0  0  0  0  0
   25.7381  -19.5168   -8.3124 N   0  0  0  0  0  0  0  0  0  0  0  0
   27.0008  -19.7639   -7.9492 C   0  0  0  0  0  0  0  0  0  0  0  0
   27.7417  -19.2425   -6.9140 C   0  0  0  0  0  0  0  0  0  0  0  0
   29.0444  -19.6978   -6.7419 C   0  0  0  0  0  0  0  0  0  0  0  0
   29.5384  -20.6533   -7.6170 C   0  0  0  0  0  0  0  0  0  0  0  0
   28.7761  -21.1587   -8.6461 C   0  0  0  0  0  0  0  0  0  0  0  0
   27.4957  -20.7251   -8.8332 C   0  0  0  0  0  0  0  0  0  0  0  0
   24.1547  -21.5571  -11.3267 C   0  0  0  0  0  0  0  0  0  0  0  0
   23.6633  -22.5059  -10.6456 O   0  0  0  0  0  0  0  0  0  0  0  0
   23.4008  -20.3956  -11.5293 O   0  0  0  0  0  0  0  0  0  0  0  0
  2  1  1  6
  2  3  1  0
  4  3  1  0
  4  5  2  0
  6  5  1  0
  7  6  2  0
  8  9  2  0
  8  7  1  0
  9  4  1  0
 10 11  2  0
 10  2  1  0
 12 10  1  0
 13 21  1  0
 13 12  1  0
 13 14  1  1
 15 14  1  0
 15 16  2  0
 17 16  1  0
 18 17  2  0
 19 20  2  0
 19 18  1  0
 20 15  1  0
 21 22  2  0
 23 24  1  0
 23 21  1  0
 24 25  1  1
 25 26  1  0
 26 34  1  0
 26 27  2  0
 27 28  1  0
 29 28  1  0
 29 30  2  0
 31 30  1  0
 32 31  2  0
 33 32  1  0
 33 34  2  0
 34 29  1  0
 35 24  1  0
 36 35  2  0
 37 35  1  0
M  END
$$$$
