FFW.pdb
     RDKit          3D

 37 40  0  0  1  0  0  0  0  0999 V2000
   27.8701  -22.1992  -19.4139 N   0  0  0  0  0  0  0  0  0  0  0  0
   28.6129  -21.7361  -18.2722 C   0  0  1  0  0  0  0  0  0  0  0  0
   29.7176  -20.8012  -18.7192 C   0  0  0  0  0  0  0  0  0  0  0  0
   30.7087  -21.5946  -19.4851 C   0  0  0  0  0  0  0  0  0  0  0  0
   31.4648  -22.5026  -18.7728 C   0  0  0  0  0  0  0  0  0  0  0  0
   32.3890  -23.2522  -19.4669 C   0  0  0  0  0  0  0  0  0  0  0  0
   32.5473  -23.0931  -20.8349 C   0  0  0  0  0  0  0  0  0  0  0  0
   31.7886  -22.1847  -21.5389 C   0  0  0  0  0  0  0  0  0  0  0  0
   30.8603  -21.4265  -20.8638 C   0  0  0  0  0  0  0  0  0  0  0  0
   27.6824  -21.0733  -17.3312 C   0  0  0  0  0  0  0  0  0  0  0  0
   27.4130  -19.8300  -17.4298 O   0  0  0  0  0  0  0  0  0  0  0  0
   27.0603  -21.8060  -16.2884 N   0  0  0  0  0  0  0  0  0  0  0  0
   25.9722  -21.1846  -15.4907 C   0  0  1  0  0  0  0  0  0  0  0  0
   24.7031  -21.7215  -16.0760 C   0  0  0  0  0  0  0  0  0  0  0  0
   24.2140  -21.0925  -17.2930 C   0  0  0  0  0  0  0  0  0  0  0  0
   23.4805  -19.8984  -17.2016 C   0  0  0  0  0  0  0  0  0  0  0  0
   23.0298  -19.2553  -18.3287 C   0  0  0  0  0  0  0  0  0  0  0  0
   23.2714  -19.7428  -19.5914 C   0  0  0  0  0  0  0  0  0  0  0  0
   23.9787  -20.8966  -19.7064 C   0  0  0  0  0  0  0  0  0  0  0  0
   24.4328  -21.5455  -18.5781 C   0  0  0  0  0  0  0  0  0  0  0  0
   26.1701  -21.6055  -14.0918 C   0  0  0  0  0  0  0  0  0  0  0  0
   26.6358  -22.7832  -13.8869 O   0  0  0  0  0  0  0  0  0  0  0  0
   25.8898  -20.8036  -12.9628 N   0  0  0  0  0  0  0  0  0  0  0  0
   25.9645  -21.3898  -11.6358 C   0  0  1  0  0  0  0  0  0  0  0  0
   27.3215  -21.1619  -11.0415 C   0  0  0  0  0  0  0  0  0  0  0  0
   27.2574  -20.4151   -9.7880 C   0  0  0  0  0  0  0  0  0  0  0  0
   26.2800  -19.4788   -9.4523 C   0  0  0  0  0  0  0  0  0  0  0  0
   26.5482  -18.9575   -8.2475 N   0  0  0  0  0  0  0  0  0  0  0  0
   27.6648  -19.5019   -7.7533 C   0  0  0  0  0  0  0  0  0  0  0  0
   28.2984  -19.2842   -6.5517 C   0  0  0  0  0  0  0  0  0  0  0  0
   29.4491  -20.0133   -6.2724 C   0  0  0  0  0  0  0  0  0  0  0  0
   29.9067  -20.9242   -7.2127 C   0  0  0  0  0  0  0  0  0  0  0  0
   29.2542  -21.1228   -8.4087 C   0  0  0  0  0  0  0  0  0  0  0  0
   28.1237  -20.4172   -8.7030 C   0  0  0  0  0  0  0  0  0  0  0  0
   24.8863  -21.0241  -10.7309 C   0  0  0  0  0  0  0  0  0  0  0  0
   24.2221  -19.9579  -10.8979 O   0  0  0  0  0  0  0  0  0  0  0  0
   24.5755  -21.8650   -9.6562 O   0  0  0  0  0  0  0  0  0  0  0  0
  2  1  1  6
  2  3  1  0
  4  3  1  0
  4  5  2  0
  6  5  1  0
  7  6  2  0
  8  9  2  0
  8  7  1  0
  9  4  1  0
 10 11  2  0
 10  2  1  0
 12 10  1  0
 13 21  1  0
 13 12  1  0
 13 14  1  6
 15 14  1  0
 15 16  2  0
 17 16  1  0
 18 17  2  0
 19 20  2  0
 19 18  1  0
 20 15  1  0
 21 22  2  0
 23 24  1  0
 23 21  1  0
 24 25  1  1
 25 26  1  0
 26 34  1  0
 26 27  2  0
 27 28  1  0
 29 28  1  0
 29 30  2  0
 31 30  1  0
 32 31  2  0
 33 32  1  0
 33 34  2  0
 34 29  1  0
 35 24  1  0
 36 35  2  0
 37 35  1  0
M  END
$$$$
