FFW.pdb
     RDKit          3D

 37 40  0  0  1  0  0  0  0  0999 V2000
   21.4925  -20.0937  -20.8189 N   0  0  0  0  0  0  0  0  0  0  0  0
   21.4123  -19.3486  -19.5910 C   0  0  1  0  0  0  0  0  0  0  0  0
   21.9867  -17.9613  -19.7902 C   0  0  0  0  0  0  0  0  0  0  0  0
   23.4095  -18.1052  -20.1814 C   0  0  0  0  0  0  0  0  0  0  0  0
   24.2888  -18.5081  -19.1976 C   0  0  0  0  0  0  0  0  0  0  0  0
   25.6151  -18.6513  -19.5419 C   0  0  0  0  0  0  0  0  0  0  0  0
   26.0429  -18.3969  -20.8358 C   0  0  0  0  0  0  0  0  0  0  0  0
   25.1589  -17.9952  -21.8124 C   0  0  0  0  0  0  0  0  0  0  0  0
   23.8303  -17.8464  -21.4883 C   0  0  0  0  0  0  0  0  0  0  0  0
   19.9997  -19.2981  -19.1518 C   0  0  0  0  0  0  0  0  0  0  0  0
   19.0459  -19.2068  -19.9943 O   0  0  0  0  0  0  0  0  0  0  0  0
   19.6654  -19.3510  -17.7746 N   0  0  0  0  0  0  0  0  0  0  0  0
   18.2404  -19.3449  -17.3555 C   0  0  1  0  0  0  0  0  0  0  0  0
   18.0728  -20.5777  -16.5224 C   0  0  0  0  0  0  0  0  0  0  0  0
   17.7258  -21.8075  -17.2172 C   0  0  0  0  0  0  0  0  0  0  0  0
   18.7480  -22.6901  -17.6026 C   0  0  0  0  0  0  0  0  0  0  0  0
   18.4599  -23.8774  -18.2307 C   0  0  0  0  0  0  0  0  0  0  0  0
   17.1691  -24.2587  -18.5114 C   0  0  0  0  0  0  0  0  0  0  0  0
   16.1625  -23.4221  -18.1487 C   0  0  0  0  0  0  0  0  0  0  0  0
   16.4469  -22.2295  -17.5184 C   0  0  0  0  0  0  0  0  0  0  0  0
   18.0247  -18.1085  -16.5823 C   0  0  0  0  0  0  0  0  0  0  0  0
   19.0384  -17.5986  -15.9839 O   0  0  0  0  0  0  0  0  0  0  0  0
   16.7846  -17.4427  -16.4587 N   0  0  0  0  0  0  0  0  0  0  0  0
   16.7046  -16.0235  -16.7582 C   0  0  1  0  0  0  0  0  0  0  0  0
   17.4642  -15.7123  -18.0123 C   0  0  0  0  0  0  0  0  0  0  0  0
   17.4700  -14.2835  -18.3147 C   0  0  0  0  0  0  0  0  0  0  0  0
   18.4598  -13.3787  -17.9320 C   0  0  0  0  0  0  0  0  0  0  0  0
   18.1283  -12.1465  -18.3405 N   0  0  0  0  0  0  0  0  0  0  0  0
   16.9570  -12.1791  -18.9842 C   0  0  0  0  0  0  0  0  0  0  0  0
   16.2487  -11.1638  -19.5843 C   0  0  0  0  0  0  0  0  0  0  0  0
   15.0509  -11.4803  -20.2158 C   0  0  0  0  0  0  0  0  0  0  0  0
   14.6236  -12.7995  -20.2136 C   0  0  0  0  0  0  0  0  0  0  0  0
   15.3511  -13.7974  -19.6049 C   0  0  0  0  0  0  0  0  0  0  0  0
   16.5289  -13.5084  -18.9788 C   0  0  0  0  0  0  0  0  0  0  0  0
   15.3633  -15.4611  -16.7596 C   0  0  0  0  0  0  0  0  0  0  0  0
   15.0964  -14.3979  -16.1241 O   0  0  0  0  0  0  0  0  0  0  0  0
   14.3485  -16.1052  -17.4766 O   0  0  0  0  0  0  0  0  0  0  0  0
  2  1  1  6
  2  3  1  0
  4  3  1  0
  4  5  2  0
  6  5  1  0
  7  6  2  0
  8  9  2  0
  8  7  1  0
  9  4  1  0
 10 11  2  0
 10  2  1  0
 12 10  1  0
 13 21  1  0
 13 12  1  0
 13 14  1  1
 15 14  1  0
 15 16  2  0
 17 16  1  0
 18 17  2  0
 19 20  2  0
 19 18  1  0
 20 15  1  0
 21 22  2  0
 23 24  1  0
 23 21  1  0
 24 25  1  6
 25 26  1  0
 26 34  1  0
 26 27  2  0
 27 28  1  0
 29 28  1  0
 29 30  2  0
 31 30  1  0
 32 31  2  0
 33 32  1  0
 33 34  2  0
 34 29  1  0
 35 24  1  0
 36 35  2  0
 37 35  1  0
M  END
$$$$
