FFW.pdb
     RDKit          3D

 37 40  0  0  1  0  0  0  0  0999 V2000
   25.2576  -20.2272  -17.3188 N   0  0  0  0  0  0  0  0  0  0  0  0
   24.5308  -19.2018  -16.6190 C   0  0  1  0  0  0  0  0  0  0  0  0
   23.9934  -18.1851  -17.6048 C   0  0  0  0  0  0  0  0  0  0  0  0
   25.1429  -17.4293  -18.1576 C   0  0  0  0  0  0  0  0  0  0  0  0
   25.7034  -16.4651  -17.3455 C   0  0  0  0  0  0  0  0  0  0  0  0
   26.7750  -15.7540  -17.8394 C   0  0  0  0  0  0  0  0  0  0  0  0
   27.2671  -16.0055  -19.1109 C   0  0  0  0  0  0  0  0  0  0  0  0
   26.7022  -16.9699  -19.9155 C   0  0  0  0  0  0  0  0  0  0  0  0
   25.6311  -17.6906  -19.4403 C   0  0  0  0  0  0  0  0  0  0  0  0
   23.4443  -19.8327  -15.8365 C   0  0  0  0  0  0  0  0  0  0  0  0
   22.9218  -20.9388  -16.1992 O   0  0  0  0  0  0  0  0  0  0  0  0
   22.9518  -19.2223  -14.6550 N   0  0  0  0  0  0  0  0  0  0  0  0
   21.8055  -19.8268  -13.9290 C   0  0  1  0  0  0  0  0  0  0  0  0
   21.9190  -19.3170  -12.5259 C   0  0  0  0  0  0  0  0  0  0  0  0
   20.8350  -19.6402  -11.6114 C   0  0  0  0  0  0  0  0  0  0  0  0
   19.8554  -18.6717  -11.3384 C   0  0  0  0  0  0  0  0  0  0  0  0
   18.7974  -18.9484  -10.5070 C   0  0  0  0  0  0  0  0  0  0  0  0
   18.6450  -20.1754   -9.9055 C   0  0  0  0  0  0  0  0  0  0  0  0
   19.5795  -21.1292  -10.1536 C   0  0  0  0  0  0  0  0  0  0  0  0
   20.6429  -20.8560  -10.9871 C   0  0  0  0  0  0  0  0  0  0  0  0
   20.5779  -19.3620  -14.6001 C   0  0  0  0  0  0  0  0  0  0  0  0
   20.5376  -18.1378  -14.9817 O   0  0  0  0  0  0  0  0  0  0  0  0
   19.4471  -20.1688  -14.8581 N   0  0  0  0  0  0  0  0  0  0  0  0
   18.2985  -19.5910  -15.5341 C   0  0  1  0  0  0  0  0  0  0  0  0
   17.7983  -20.5208  -16.5980 C   0  0  0  0  0  0  0  0  0  0  0  0
   17.1967  -21.7282  -16.0382 C   0  0  0  0  0  0  0  0  0  0  0  0
   16.3114  -21.7675  -14.9614 C   0  0  0  0  0  0  0  0  0  0  0  0
   15.9890  -23.0388  -14.6874 N   0  0  0  0  0  0  0  0  0  0  0  0
   16.6174  -23.8612  -15.5336 C   0  0  0  0  0  0  0  0  0  0  0  0
   16.5691  -25.2324  -15.6345 C   0  0  0  0  0  0  0  0  0  0  0  0
   17.3132  -25.8456  -16.6365 C   0  0  0  0  0  0  0  0  0  0  0  0
   18.0686  -25.0525  -17.4870 C   0  0  0  0  0  0  0  0  0  0  0  0
   18.1005  -23.6815  -17.3643 C   0  0  0  0  0  0  0  0  0  0  0  0
   17.3782  -23.0596  -16.3874 C   0  0  0  0  0  0  0  0  0  0  0  0
   17.2374  -19.1123  -14.6621 C   0  0  0  0  0  0  0  0  0  0  0  0
   17.1567  -19.4929  -13.4562 O   0  0  0  0  0  0  0  0  0  0  0  0
   16.2884  -18.2141  -15.1633 O   0  0  0  0  0  0  0  0  0  0  0  0
  2  1  1  6
  2  3  1  0
  4  3  1  0
  4  5  2  0
  6  5  1  0
  7  6  2  0
  8  9  2  0
  8  7  1  0
  9  4  1  0
 10 11  2  0
 10  2  1  0
 12 10  1  0
 13 21  1  0
 13 12  1  0
 13 14  1  1
 15 14  1  0
 15 16  2  0
 17 16  1  0
 18 17  2  0
 19 20  2  0
 19 18  1  0
 20 15  1  0
 21 22  2  0
 23 24  1  0
 23 21  1  0
 24 25  1  6
 25 26  1  0
 26 34  1  0
 26 27  2  0
 27 28  1  0
 29 28  1  0
 29 30  2  0
 31 30  1  0
 32 31  2  0
 33 32  1  0
 33 34  2  0
 34 29  1  0
 35 24  1  0
 36 35  2  0
 37 35  1  0
M  END
$$$$
