SVI.pdb
     RDKit          3D

 22 21  0  0  1  0  0  0  0  0999 V2000
   22.0837  -16.8133  -16.8728 O   0  0  0  0  0  0  0  0  0  0  0  0
   22.3322  -18.0515  -16.3083 C   0  0  0  0  0  0  0  0  0  0  0  0
   23.5428  -18.6558  -16.9855 C   0  0  2  0  0  0  0  0  0  0  0  0
   23.1704  -19.3922  -18.1711 N   0  0  0  0  0  0  0  0  0  0  0  0
   24.2276  -19.5834  -16.0498 C   0  0  0  0  0  0  0  0  0  0  0  0
   23.7059  -20.6881  -15.7114 O   0  0  0  0  0  0  0  0  0  0  0  0
   27.7341  -20.6692  -16.4073 C   0  0  0  0  0  0  0  0  0  0  0  0
   27.6301  -20.3712  -14.9266 C   0  0  1  0  0  0  0  0  0  0  0  0
   28.2620  -19.0012  -14.7030 C   0  0  0  0  0  0  0  0  0  0  0  0
   26.1482  -20.1982  -14.5653 C   0  0  2  0  0  0  0  0  0  0  0  0
   25.5006  -19.2931  -15.4798 N   0  0  0  0  0  0  0  0  0  0  0  0
   26.0061  -19.7330  -13.1452 C   0  0  0  0  0  0  0  0  0  0  0  0
   26.2049  -18.5359  -12.8649 O   0  0  0  0  0  0  0  0  0  0  0  0
   21.7401  -20.3170  -10.3340 C   0  0  0  0  0  0  0  0  0  0  0  0
   23.1127  -19.8471  -10.8455 C   0  0  0  0  0  0  0  0  0  0  0  0
   24.2140  -20.5784  -10.1229 C   0  0  2  0  0  0  0  0  0  0  0  0
   24.0594  -20.2853   -8.6485 C   0  0  0  0  0  0  0  0  0  0  0  0
   25.5274  -20.2699  -10.7059 C   0  0  2  0  0  0  0  0  0  0  0  0
   25.6541  -20.6038  -12.1096 N   0  0  0  0  0  0  0  0  0  0  0  0
   26.6318  -20.9676  -10.0197 C   0  0  0  0  0  0  0  0  0  0  0  0
   27.1549  -22.0369  -10.4050 O   0  0  0  0  0  0  0  0  0  0  0  0
   27.2027  -20.4620   -8.8322 O   0  0  0  0  0  0  0  0  0  0  0  0
  2  1  1  0
  3  4  1  6
  3  2  1  0
  5  3  1  0
  6  5  2  0
  8  7  1  6
  8 10  1  0
  9  8  1  0
 10 11  1  6
 10 12  1  0
 11  5  1  0
 12 19  1  0
 13 12  2  0
 15 14  1  0
 16 15  1  0
 16 17  1  1
 18 16  1  0
 18 19  1  6
 20 18  1  0
 20 22  1  0
 21 20  2  0
M  END
$$$$
