SVI.pdb
     RDKit          3D

 22 21  0  0  1  0  0  0  0  0999 V2000
   29.2065  -23.1758  -16.5821 O   0  0  0  0  0  0  0  0  0  0  0  0
   29.0152  -22.0216  -15.8440 C   0  0  0  0  0  0  0  0  0  0  0  0
   27.6716  -21.4312  -16.2122 C   0  0  2  0  0  0  0  0  0  0  0  0
   27.7600  -20.6263  -17.4084 N   0  0  0  0  0  0  0  0  0  0  0  0
   27.1812  -20.5748  -15.1027 C   0  0  0  0  0  0  0  0  0  0  0  0
   27.0560  -19.3207  -15.2391 O   0  0  0  0  0  0  0  0  0  0  0  0
   24.8408  -19.8628  -15.0099 C   0  0  0  0  0  0  0  0  0  0  0  0
   24.6716  -19.9777  -13.5097 C   0  0  1  0  0  0  0  0  0  0  0  0
   23.7638  -21.1765  -13.2548 C   0  0  0  0  0  0  0  0  0  0  0  0
   26.0253  -20.3555  -12.8923 C   0  0  2  0  0  0  0  0  0  0  0  0
   26.8243  -21.1033  -13.8288 N   0  0  0  0  0  0  0  0  0  0  0  0
   25.8239  -21.1189  -11.6155 C   0  0  0  0  0  0  0  0  0  0  0  0
   25.6619  -22.3531  -11.6533 O   0  0  0  0  0  0  0  0  0  0  0  0
   27.3929  -18.7243   -6.6270 C   0  0  0  0  0  0  0  0  0  0  0  0
   26.4082  -19.2079   -7.7056 C   0  0  0  0  0  0  0  0  0  0  0  0
   26.7194  -20.6304   -8.0922 C   0  0  2  0  0  0  0  0  0  0  0  0
   28.1707  -20.6778   -8.5106 C   0  0  0  0  0  0  0  0  0  0  0  0
   25.7500  -21.1377   -9.0736 C   0  0  2  0  0  0  0  0  0  0  0  0
   25.8109  -20.4893  -10.3673 N   0  0  0  0  0  0  0  0  0  0  0  0
   24.3539  -21.0026   -8.6153 C   0  0  0  0  0  0  0  0  0  0  0  0
   23.8750  -21.5545   -7.5996 O   0  0  0  0  0  0  0  0  0  0  0  0
   23.4183  -20.2105   -9.3147 O   0  0  0  0  0  0  0  0  0  0  0  0
  2  1  1  0
  3  4  1  6
  3  2  1  0
  5  3  1  0
  6  5  2  0
  8  7  1  6
  8 10  1  0
  9  8  1  0
 10 11  1  6
 10 12  1  0
 11  5  1  0
 12 19  1  0
 13 12  2  0
 15 14  1  0
 16 15  1  0
 16 17  1  6
 18 16  1  0
 18 19  1  6
 20 18  1  0
 20 22  1  0
 21 20  2  0
M  END
$$$$
