SVI.pdb
     RDKit          3D

 22 21  0  0  1  0  0  0  0  0999 V2000
   17.9567  -13.7047  -18.6008 O   0  0  0  0  0  0  0  0  0  0  0  0
   18.1829  -12.6849  -17.6939 C   0  0  0  0  0  0  0  0  0  0  0  0
   19.4055  -13.0322  -16.8730 C   0  0  2  0  0  0  0  0  0  0  0  0
   19.1546  -14.1597  -16.0056 N   0  0  0  0  0  0  0  0  0  0  0  0
   19.7914  -11.8690  -16.0346 C   0  0  0  0  0  0  0  0  0  0  0  0
   19.1100  -11.5269  -15.0218 O   0  0  0  0  0  0  0  0  0  0  0  0
   22.7079  -11.1917  -14.0437 C   0  0  0  0  0  0  0  0  0  0  0  0
   22.6493   -9.9755  -14.9435 C   0  0  1  0  0  0  0  0  0  0  0  0
   23.5834  -10.2458  -16.1184 C   0  0  0  0  0  0  0  0  0  0  0  0
   21.2439   -9.8865  -15.5548 C   0  0  2  0  0  0  0  0  0  0  0  0
   20.9394  -11.0728  -16.3131 N   0  0  0  0  0  0  0  0  0  0  0  0
   21.1172   -8.6519  -16.3991 C   0  0  0  0  0  0  0  0  0  0  0  0
   21.6977   -8.5943  -17.4995 O   0  0  0  0  0  0  0  0  0  0  0  0
   16.7478   -7.1340  -18.3638 C   0  0  0  0  0  0  0  0  0  0  0  0
   18.2518   -7.2716  -18.0710 C   0  0  0  0  0  0  0  0  0  0  0  0
   18.7066   -6.1619  -17.1590 C   0  0  2  0  0  0  0  0  0  0  0  0
   18.3786   -4.8538  -17.8407 C   0  0  0  0  0  0  0  0  0  0  0  0
   20.1089   -6.3451  -16.7590 C   0  0  2  0  0  0  0  0  0  0  0  0
   20.3621   -7.5478  -15.9926 N   0  0  0  0  0  0  0  0  0  0  0  0
   20.6174   -5.2265  -15.9418 C   0  0  0  0  0  0  0  0  0  0  0  0
   20.5669   -5.1688  -14.6930 O   0  0  0  0  0  0  0  0  0  0  0  0
   21.2219   -4.0949  -16.5299 O   0  0  0  0  0  0  0  0  0  0  0  0
  2  1  1  0
  3  4  1  1
  3  2  1  0
  5  3  1  0
  6  5  2  0
  8  7  1  1
  8 10  1  0
  9  8  1  0
 10 11  1  6
 10 12  1  0
 11  5  1  0
 12 19  1  0
 13 12  2  0
 15 14  1  0
 16 15  1  0
 16 17  1  6
 18 16  1  0
 18 19  1  1
 20 18  1  0
 20 22  1  0
 21 20  2  0
M  END
$$$$
