SVI.pdb
     RDKit          3D

 22 21  0  0  1  0  0  0  0  0999 V2000
   19.8701  -13.4448  -20.5728 O   0  0  0  0  0  0  0  0  0  0  0  0
   19.5304  -12.7668  -19.4158 C   0  0  0  0  0  0  0  0  0  0  0  0
   20.1119  -13.5103  -18.2332 C   0  0  2  0  0  0  0  0  0  0  0  0
   19.3231  -14.6746  -17.9034 N   0  0  0  0  0  0  0  0  0  0  0  0
   20.1487  -12.6149  -17.0492 C   0  0  0  0  0  0  0  0  0  0  0  0
   19.1800  -12.5542  -16.2337 O   0  0  0  0  0  0  0  0  0  0  0  0
   23.6812  -10.4309  -15.8700 C   0  0  0  0  0  0  0  0  0  0  0  0
   22.5932  -10.8680  -14.9121 C   0  0  1  0  0  0  0  0  0  0  0  0
   22.4777   -9.7840  -13.8454 C   0  0  0  0  0  0  0  0  0  0  0  0
   21.2504  -10.8499  -15.6558 C   0  0  2  0  0  0  0  0  0  0  0  0
   21.2634  -11.7767  -16.7585 N   0  0  0  0  0  0  0  0  0  0  0  0
   20.9254   -9.4586  -16.1164 C   0  0  0  0  0  0  0  0  0  0  0  0
   21.4478   -9.0148  -17.1562 O   0  0  0  0  0  0  0  0  0  0  0  0
   15.9332   -8.0398  -16.6120 C   0  0  0  0  0  0  0  0  0  0  0  0
   17.4498   -7.9734  -16.8615 C   0  0  0  0  0  0  0  0  0  0  0  0
   18.1177   -7.1584  -15.7847 C   0  0  2  0  0  0  0  0  0  0  0  0
   17.6071   -5.7415  -15.9082 C   0  0  0  0  0  0  0  0  0  0  0  0
   19.5777   -7.3219  -15.8242 C   0  0  2  0  0  0  0  0  0  0  0  0
   20.0464   -8.6294  -15.4135 N   0  0  0  0  0  0  0  0  0  0  0  0
   20.2819   -6.3487  -14.9671 C   0  0  0  0  0  0  0  0  0  0  0  0
   20.7462   -5.2538  -15.3557 O   0  0  0  0  0  0  0  0  0  0  0  0
   20.4924   -6.5891  -13.5924 O   0  0  0  0  0  0  0  0  0  0  0  0
  2  1  1  0
  3  4  1  1
  3  2  1  0
  5  3  1  0
  6  5  2  0
  8  7  1  6
  8 10  1  0
  9  8  1  0
 10 11  1  6
 10 12  1  0
 11  5  1  0
 12 19  1  0
 13 12  2  0
 15 14  1  0
 16 15  1  0
 16 17  1  6
 18 16  1  0
 18 19  1  1
 20 18  1  0
 20 22  1  0
 21 20  2  0
M  END
$$$$
