SVI.pdb
     RDKit          3D

 22 21  0  0  1  0  0  0  0  0999 V2000
   22.6262  -18.0176  -17.0026 O   0  0  0  0  0  0  0  0  0  0  0  0
   23.9675  -18.0027  -16.6648 C   0  0  0  0  0  0  0  0  0  0  0  0
   24.6175  -19.2526  -17.2168 C   0  0  2  0  0  0  0  0  0  0  0  0
   23.6634  -20.0731  -17.9261 N   0  0  0  0  0  0  0  0  0  0  0  0
   25.1906  -20.0511  -16.1037 C   0  0  0  0  0  0  0  0  0  0  0  0
   24.5408  -20.9956  -15.5626 O   0  0  0  0  0  0  0  0  0  0  0  0
   28.8237  -18.8552  -14.0732 C   0  0  0  0  0  0  0  0  0  0  0  0
   28.4889  -20.3206  -14.2542 C   0  0  1  0  0  0  0  0  0  0  0  0
   28.8470  -21.0234  -12.9488 C   0  0  0  0  0  0  0  0  0  0  0  0
   26.9660  -20.4618  -14.3863 C   0  0  2  0  0  0  0  0  0  0  0  0
   26.4928  -19.8082  -15.5795 N   0  0  0  0  0  0  0  0  0  0  0  0
   26.2821  -19.9249  -13.1625 C   0  0  0  0  0  0  0  0  0  0  0  0
   26.2151  -18.6944  -12.9827 O   0  0  0  0  0  0  0  0  0  0  0  0
   21.4064  -20.7667  -11.9774 C   0  0  0  0  0  0  0  0  0  0  0  0
   22.8255  -20.1728  -11.9914 C   0  0  0  0  0  0  0  0  0  0  0  0
   23.6461  -20.7628  -10.8740 C   0  0  2  0  0  0  0  0  0  0  0  0
   22.9524  -20.4222   -9.5755 C   0  0  0  0  0  0  0  0  0  0  0  0
   25.0543  -20.3550  -10.9774 C   0  0  2  0  0  0  0  0  0  0  0  0
   25.7091  -20.7645  -12.2027 N   0  0  0  0  0  0  0  0  0  0  0  0
   25.8816  -20.8850   -9.8764 C   0  0  0  0  0  0  0  0  0  0  0  0
   26.5220  -21.9593   -9.9125 O   0  0  0  0  0  0  0  0  0  0  0  0
   26.0179  -20.1936   -8.6536 O   0  0  0  0  0  0  0  0  0  0  0  0
  2  1  1  0
  3  4  1  1
  3  2  1  0
  5  3  1  0
  6  5  2  0
  8  7  1  1
  8 10  1  0
  9  8  1  0
 10 11  1  6
 10 12  1  0
 11  5  1  0
 12 19  1  0
 13 12  2  0
 15 14  1  0
 16 15  1  0
 16 17  1  1
 18 16  1  0
 18 19  1  6
 20 18  1  0
 20 22  1  0
 21 20  2  0
M  END
$$$$
