SVI.pdb
     RDKit          3D

 22 21  0  0  1  0  0  0  0  0999 V2000
   41.4951   -9.8636   -3.5976 O   0  0  0  0  0  0  0  0  0  0  0  0
   41.5947   -9.0716   -4.7273 C   0  0  0  0  0  0  0  0  0  0  0  0
   42.2965   -9.8621   -5.8099 C   0  0  2  0  0  0  0  0  0  0  0  0
   43.7302   -9.8363   -5.6353 N   0  0  0  0  0  0  0  0  0  0  0  0
   41.9729   -9.2852   -7.1393 C   0  0  0  0  0  0  0  0  0  0  0  0
   42.8091   -8.5754   -7.7751 O   0  0  0  0  0  0  0  0  0  0  0  0
   41.3052  -10.6864  -10.2444 C   0  0  0  0  0  0  0  0  0  0  0  0
   40.1074   -9.7669  -10.1343 C   0  0  1  0  0  0  0  0  0  0  0  0
   38.9262  -10.6258   -9.6947 C   0  0  0  0  0  0  0  0  0  0  0  0
   40.3482   -8.7862   -8.9782 C   0  0  2  0  0  0  0  0  0  0  0  0
   40.7158   -9.4910   -7.7770 N   0  0  0  0  0  0  0  0  0  0  0  0
   39.1362   -7.9282   -8.7581 C   0  0  0  0  0  0  0  0  0  0  0  0
   38.1652   -8.3825   -8.1242 O   0  0  0  0  0  0  0  0  0  0  0  0
   37.4888   -2.5192   -6.9545 C   0  0  0  0  0  0  0  0  0  0  0  0
   37.1343   -3.6396   -7.9473 C   0  0  0  0  0  0  0  0  0  0  0  0
   38.3015   -4.5785   -8.1088 C   0  0  2  0  0  0  0  0  0  0  0  0
   39.5035   -3.7443   -8.4868 C   0  0  0  0  0  0  0  0  0  0  0  0
   37.9721   -5.6826   -9.0211 C   0  0  2  0  0  0  0  0  0  0  0  0
   39.0536   -6.6199   -9.2439 N   0  0  0  0  0  0  0  0  0  0  0  0
   37.5593   -5.2116  -10.3573 C   0  0  0  0  0  0  0  0  0  0  0  0
   38.2408   -5.3243  -11.4005 O   0  0  0  0  0  0  0  0  0  0  0  0
   36.3175   -4.5745  -10.5668 O   0  0  0  0  0  0  0  0  0  0  0  0
  2  1  1  0
  3  4  1  1
  3  2  1  0
  5  3  1  0
  6  5  2  0
  8  7  1  1
  8 10  1  0
  9  8  1  0
 10 11  1  1
 10 12  1  0
 11  5  1  0
 12 19  1  0
 13 12  2  0
 15 14  1  0
 16 15  1  0
 16 17  1  6
 18 16  1  0
 18 19  1  6
 20 18  1  0
 20 22  1  0
 21 20  2  0
M  END
$$$$
