SVI.pdb
     RDKit          3D

 22 21  0  0  1  0  0  0  0  0999 V2000
   26.5740  -17.5626  -18.1026 O   0  0  0  0  0  0  0  0  0  0  0  0
   26.6376  -18.2402  -16.8983 C   0  0  0  0  0  0  0  0  0  0  0  0
   27.4731  -19.4870  -17.0903 C   0  0  2  0  0  0  0  0  0  0  0  0
   27.0087  -20.2640  -18.2160 N   0  0  0  0  0  0  0  0  0  0  0  0
   27.3977  -20.3316  -15.8712 C   0  0  0  0  0  0  0  0  0  0  0  0
   26.4967  -21.2122  -15.7297 O   0  0  0  0  0  0  0  0  0  0  0  0
   29.9565  -19.6553  -12.4311 C   0  0  0  0  0  0  0  0  0  0  0  0
   29.4835  -21.0437  -12.8065 C   0  0  1  0  0  0  0  0  0  0  0  0
   29.1490  -21.7667  -11.5059 C   0  0  0  0  0  0  0  0  0  0  0  0
   28.1497  -20.9200  -13.5564 C   0  0  2  0  0  0  0  0  0  0  0  0
   28.3234  -20.2065  -14.7956 N   0  0  0  0  0  0  0  0  0  0  0  0
   27.1192  -20.2603  -12.6869 C   0  0  0  0  0  0  0  0  0  0  0  0
   27.1145  -19.0206  -12.5673 O   0  0  0  0  0  0  0  0  0  0  0  0
   22.8951  -19.4345  -13.1533 C   0  0  0  0  0  0  0  0  0  0  0  0
   23.3803  -20.8705  -12.8906 C   0  0  0  0  0  0  0  0  0  0  0  0
   23.7600  -21.0331  -11.4416 C   0  0  2  0  0  0  0  0  0  0  0  0
   22.6212  -20.4869  -10.6120 C   0  0  0  0  0  0  0  0  0  0  0  0
   25.0855  -20.4580  -11.1728 C   0  0  2  0  0  0  0  0  0  0  0  0
   26.1502  -20.9938  -11.9958 N   0  0  0  0  0  0  0  0  0  0  0  0
   25.5153  -20.6504   -9.7743 C   0  0  0  0  0  0  0  0  0  0  0  0
   26.1592  -21.6358   -9.3502 O   0  0  0  0  0  0  0  0  0  0  0  0
   25.2213  -19.7013   -8.7720 O   0  0  0  0  0  0  0  0  0  0  0  0
  2  1  1  0
  3  4  1  6
  3  2  1  0
  5  3  1  0
  6  5  2  0
  8  7  1  1
  8 10  1  0
  9  8  1  0
 10 11  1  6
 10 12  1  0
 11  5  1  0
 12 19  1  0
 13 12  2  0
 15 14  1  0
 16 15  1  0
 16 17  1  1
 18 16  1  0
 18 19  1  6
 20 18  1  0
 20 22  1  0
 21 20  2  0
M  END
$$$$
