SVI.pdb
     RDKit          3D

 22 21  0  0  1  0  0  0  0  0999 V2000
   20.3895  -14.5784  -15.7751 O   0  0  0  0  0  0  0  0  0  0  0  0
   20.5312  -13.3776  -16.4471 C   0  0  0  0  0  0  0  0  0  0  0  0
   19.1957  -12.6665  -16.4503 C   0  0  2  0  0  0  0  0  0  0  0  0
   18.2796  -13.2705  -17.3898 N   0  0  0  0  0  0  0  0  0  0  0  0
   19.3882  -11.2434  -16.8280 C   0  0  0  0  0  0  0  0  0  0  0  0
   19.7639  -10.9118  -17.9925 O   0  0  0  0  0  0  0  0  0  0  0  0
   17.0053   -9.1811  -17.4659 C   0  0  0  0  0  0  0  0  0  0  0  0
   17.7461   -8.2671  -16.5129 C   0  0  1  0  0  0  0  0  0  0  0  0
   17.0900   -8.4245  -15.1451 C   0  0  0  0  0  0  0  0  0  0  0  0
   19.1766   -8.7965  -16.3400 C   0  0  2  0  0  0  0  0  0  0  0  0
   19.1653  -10.1728  -15.9150 N   0  0  0  0  0  0  0  0  0  0  0  0
   19.9412   -7.9347  -15.3776 C   0  0  0  0  0  0  0  0  0  0  0  0
   20.0597   -8.2908  -14.1901 O   0  0  0  0  0  0  0  0  0  0  0  0
   24.5561   -6.2939  -17.3110 C   0  0  0  0  0  0  0  0  0  0  0  0
   23.4122   -6.7555  -16.3917 C   0  0  0  0  0  0  0  0  0  0  0  0
   22.6915   -5.5620  -15.8206 C   0  0  2  0  0  0  0  0  0  0  0  0
   23.7162   -4.7184  -15.0982 C   0  0  0  0  0  0  0  0  0  0  0  0
   21.5248   -5.9758  -15.0283 C   0  0  2  0  0  0  0  0  0  0  0  0
   20.5343   -6.7304  -15.7680 N   0  0  0  0  0  0  0  0  0  0  0  0
   20.8061   -4.8317  -14.4351 C   0  0  0  0  0  0  0  0  0  0  0  0
   19.8246   -4.2538  -14.9528 O   0  0  0  0  0  0  0  0  0  0  0  0
   21.1863   -4.2824  -13.1918 O   0  0  0  0  0  0  0  0  0  0  0  0
  2  1  1  0
  3  4  1  6
  3  2  1  0
  5  3  1  0
  6  5  2  0
  8  7  1  6
  8 10  1  0
  9  8  1  0
 10 11  1  1
 10 12  1  0
 11  5  1  0
 12 19  1  0
 13 12  2  0
 15 14  1  0
 16 15  1  0
 16 17  1  1
 18 16  1  0
 18 19  1  6
 20 18  1  0
 20 22  1  0
 21 20  2  0
M  END
$$$$
