SVI.pdb
     RDKit          3D

 22 21  0  0  1  0  0  0  0  0999 V2000
   29.9262  -24.6035  -15.0632 O   0  0  0  0  0  0  0  0  0  0  0  0
   28.7767  -24.2597  -15.7516 C   0  0  0  0  0  0  0  0  0  0  0  0
   28.9373  -22.8533  -16.2860 C   0  0  2  0  0  0  0  0  0  0  0  0
   30.3271  -22.5320  -16.5140 N   0  0  0  0  0  0  0  0  0  0  0  0
   28.3827  -21.8815  -15.3098 C   0  0  0  0  0  0  0  0  0  0  0  0
   29.1303  -21.2578  -14.4978 O   0  0  0  0  0  0  0  0  0  0  0  0
   24.2338  -20.5873  -15.4101 C   0  0  0  0  0  0  0  0  0  0  0  0
   25.4284  -19.7082  -15.1061 C   0  0  1  0  0  0  0  0  0  0  0  0
   24.9672  -18.6656  -14.0929 C   0  0  0  0  0  0  0  0  0  0  0  0
   26.4809  -20.5501  -14.3713 C   0  0  2  0  0  0  0  0  0  0  0  0
   26.9904  -21.5921  -15.2253 N   0  0  0  0  0  0  0  0  0  0  0  0
   25.9082  -21.1149  -13.1038 C   0  0  0  0  0  0  0  0  0  0  0  0
   25.3828  -22.2440  -13.1132 O   0  0  0  0  0  0  0  0  0  0  0  0
   28.0392  -19.5534   -8.2442 C   0  0  0  0  0  0  0  0  0  0  0  0
   27.4038  -20.4906   -9.2857 C   0  0  0  0  0  0  0  0  0  0  0  0
   25.9425  -20.1646   -9.4541 C   0  0  2  0  0  0  0  0  0  0  0  0
   25.2605  -20.4526   -8.1367 C   0  0  0  0  0  0  0  0  0  0  0  0
   25.3802  -20.8415  -10.6312 C   0  0  2  0  0  0  0  0  0  0  0  0
   25.9420  -20.4126  -11.8954 N   0  0  0  0  0  0  0  0  0  0  0  0
   23.9210  -20.6563  -10.7500 C   0  0  0  0  0  0  0  0  0  0  0  0
   23.0586  -21.3845  -10.2102 O   0  0  0  0  0  0  0  0  0  0  0  0
   23.3677  -19.6039  -11.5103 O   0  0  0  0  0  0  0  0  0  0  0  0
  2  1  1  0
  3  4  1  1
  3  2  1  0
  5  3  1  0
  6  5  2  0
  8  7  1  1
  8 10  1  0
  9  8  1  0
 10 11  1  6
 10 12  1  0
 11  5  1  0
 12 19  1  0
 13 12  2  0
 15 14  1  0
 16 15  1  0
 16 17  1  1
 18 16  1  0
 18 19  1  6
 20 18  1  0
 20 22  1  0
 21 20  2  0
M  END
$$$$
