SVI.pdb
     RDKit          3D

 22 21  0  0  1  0  0  0  0  0999 V2000
   27.9135  -23.8803  -18.9992 O   0  0  0  0  0  0  0  0  0  0  0  0
   28.3012  -23.2274  -17.8430 C   0  0  0  0  0  0  0  0  0  0  0  0
   28.1080  -21.7399  -18.0416 C   0  0  2  0  0  0  0  0  0  0  0  0
   29.0801  -21.2011  -18.9644 N   0  0  0  0  0  0  0  0  0  0  0  0
   28.2539  -21.0390  -16.7407 C   0  0  0  0  0  0  0  0  0  0  0  0
   29.1827  -20.1997  -16.5405 O   0  0  0  0  0  0  0  0  0  0  0  0
   28.1681  -18.6444  -16.1127 C   0  0  0  0  0  0  0  0  0  0  0  0
   27.1135  -18.8994  -15.0566 C   0  0  1  0  0  0  0  0  0  0  0  0
   25.7611  -18.8654  -15.7610 C   0  0  0  0  0  0  0  0  0  0  0  0
   27.2695  -20.3391  -14.5472 C   0  0  2  0  0  0  0  0  0  0  0  0
   27.3686  -21.2635  -15.6474 N   0  0  0  0  0  0  0  0  0  0  0  0
   26.1332  -20.6976  -13.6341 C   0  0  0  0  0  0  0  0  0  0  0  0
   25.2452  -21.4758  -14.0299 O   0  0  0  0  0  0  0  0  0  0  0  0
   25.3800  -20.6267   -7.4502 C   0  0  0  0  0  0  0  0  0  0  0  0
   24.8735  -21.0291   -8.8460 C   0  0  0  0  0  0  0  0  0  0  0  0
   25.7270  -20.3917   -9.9115 C   0  0  2  0  0  0  0  0  0  0  0  0
   25.8276  -18.9189   -9.5887 C   0  0  0  0  0  0  0  0  0  0  0  0
   25.2337  -20.7236  -11.2555 C   0  0  2  0  0  0  0  0  0  0  0  0
   26.0314  -20.1844  -12.3376 N   0  0  0  0  0  0  0  0  0  0  0  0
   23.8563  -20.2482  -11.4886 C   0  0  0  0  0  0  0  0  0  0  0  0
   23.5525  -19.1986  -12.0982 O   0  0  0  0  0  0  0  0  0  0  0  0
   22.7355  -20.9692  -11.0239 O   0  0  0  0  0  0  0  0  0  0  0  0
  2  1  1  0
  3  4  1  6
  3  2  1  0
  5  3  1  0
  6  5  2  0
  8  7  1  6
  8 10  1  0
  9  8  1  0
 10 11  1  6
 10 12  1  0
 11  5  1  0
 12 19  1  0
 13 12  2  0
 15 14  1  0
 16 15  1  0
 16 17  1  1
 18 16  1  0
 18 19  1  6
 20 18  1  0
 20 22  1  0
 21 20  2  0
M  END
$$$$
