VKW.pdb
     RDKit          3D

 31 32  0  0  1  0  0  0  0  0999 V2000
   26.9991  -18.9276  -17.0363 C   0  0  0  0  0  0  0  0  0  0  0  0
   27.8597  -18.2220  -16.0163 C   0  0  2  0  0  0  0  0  0  0  0  0
   29.1565  -17.7124  -16.6113 C   0  0  0  0  0  0  0  0  0  0  0  0
   28.1125  -19.0630  -14.7814 C   0  0  2  0  0  0  0  0  0  0  0  0
   28.9259  -20.2063  -15.2078 N   0  0  0  0  0  0  0  0  0  0  0  0
   26.8870  -19.5954  -14.1744 C   0  0  0  0  0  0  0  0  0  0  0  0
   25.9738  -18.8046  -13.7720 O   0  0  0  0  0  0  0  0  0  0  0  0
   26.6059  -20.9643  -13.9840 N   0  0  0  0  0  0  0  0  0  0  0  0
   25.4039  -21.4452  -13.2549 C   0  0  1  0  0  0  0  0  0  0  0  0
   25.1442  -22.8693  -13.6905 C   0  0  0  0  0  0  0  0  0  0  0  0
   24.1173  -22.9280  -14.7733 C   0  0  0  0  0  0  0  0  0  0  0  0
   23.3290  -24.2341  -14.7257 C   0  0  0  0  0  0  0  0  0  0  0  0
   22.3622  -24.3508  -15.8788 C   0  0  0  0  0  0  0  0  0  0  0  0
   21.6334  -25.6191  -15.8155 N   0  0  0  0  0  0  0  0  0  0  0  0
   25.6665  -21.4072  -11.8132 C   0  0  0  0  0  0  0  0  0  0  0  0
   26.7687  -21.8851  -11.3744 O   0  0  0  0  0  0  0  0  0  0  0  0
   24.8015  -20.8757  -10.8455 N   0  0  0  0  0  0  0  0  0  0  0  0
   25.0336  -21.0455   -9.4166 C   0  0  1  0  0  0  0  0  0  0  0  0
   26.4075  -20.4792   -9.0658 C   0  0  0  0  0  0  0  0  0  0  0  0
   26.6584  -20.7088   -7.6239 C   0  0  0  0  0  0  0  0  0  0  0  0
   26.0444  -21.6298   -6.7860 C   0  0  0  0  0  0  0  0  0  0  0  0
   26.5579  -21.5100   -5.5514 N   0  0  0  0  0  0  0  0  0  0  0  0
   27.4857  -20.5437   -5.5524 C   0  0  0  0  0  0  0  0  0  0  0  0
   28.2783  -20.0550   -4.5500 C   0  0  0  0  0  0  0  0  0  0  0  0
   29.1886  -19.0263   -4.7884 C   0  0  0  0  0  0  0  0  0  0  0  0
   29.2505  -18.5297   -6.0731 C   0  0  0  0  0  0  0  0  0  0  0  0
   28.4522  -19.0200   -7.0891 C   0  0  0  0  0  0  0  0  0  0  0  0
   27.5682  -20.0293   -6.8268 C   0  0  0  0  0  0  0  0  0  0  0  0
   23.9864  -20.4703   -8.5789 C   0  0  0  0  0  0  0  0  0  0  0  0
   23.6724  -20.9860   -7.3481 O   0  0  0  0  0  0  0  0  0  0  0  0
   23.3168  -19.4598   -8.9579 O   0  0  0  0  0  0  0  0  0  0  0  0
  2  1  1  6
  2  3  1  0
  4  2  1  0
  4  5  1  6
  6  4  1  0
  6  7  2  0
  8  6  1  0
  9  8  1  0
 10 11  1  0
  9 10  1  6
 12 13  1  0
 12 11  1  0
 13 14  1  0
 15 16  2  0
 15  9  1  0
 17 15  1  0
 18 17  1  0
 18 29  1  0
 18 19  1  1
 20 19  1  0
 20 21  2  0
 22 21  1  0
 23 22  1  0
 24 23  2  0
 25 24  1  0
 26 25  2  0
 26 27  1  0
 27 28  2  0
 28 23  1  0
 28 20  1  0
 29 31  2  0
 29 30  1  0
M  END
$$$$
