VKW.pdb
     RDKit          3D

 31 32  0  0  1  0  0  0  0  0999 V2000
   27.5196  -17.2997  -16.0571 C   0  0  0  0  0  0  0  0  0  0  0  0
   28.6818  -17.6531  -16.9534 C   0  0  2  0  0  0  0  0  0  0  0  0
   29.3855  -16.4252  -17.4942 C   0  0  0  0  0  0  0  0  0  0  0  0
   28.2933  -18.6021  -18.0688 C   0  0  2  0  0  0  0  0  0  0  0  0
   27.4477  -17.8423  -18.9952 N   0  0  0  0  0  0  0  0  0  0  0  0
   27.5156  -19.7589  -17.6095 C   0  0  0  0  0  0  0  0  0  0  0  0
   26.2432  -19.7127  -17.5959 O   0  0  0  0  0  0  0  0  0  0  0  0
   28.0650  -20.9777  -17.1604 N   0  0  0  0  0  0  0  0  0  0  0  0
   27.2285  -22.1180  -16.7049 C   0  0  1  0  0  0  0  0  0  0  0  0
   28.0230  -23.3850  -16.9263 C   0  0  0  0  0  0  0  0  0  0  0  0
   27.2336  -24.5950  -16.5480 C   0  0  0  0  0  0  0  0  0  0  0  0
   28.0320  -25.8761  -16.7732 C   0  0  0  0  0  0  0  0  0  0  0  0
   27.2122  -27.1093  -16.4816 C   0  0  0  0  0  0  0  0  0  0  0  0
   28.0260  -28.3175  -16.6295 N   0  0  0  0  0  0  0  0  0  0  0  0
   26.9332  -21.9604  -15.2777 C   0  0  0  0  0  0  0  0  0  0  0  0
   27.9065  -21.8527  -14.4549 O   0  0  0  0  0  0  0  0  0  0  0  0
   25.6489  -21.9087  -14.7166 N   0  0  0  0  0  0  0  0  0  0  0  0
   25.4307  -21.7264  -13.2871 C   0  0  1  0  0  0  0  0  0  0  0  0
   26.3534  -20.6202  -12.7809 C   0  0  0  0  0  0  0  0  0  0  0  0
   26.2003  -20.5135  -11.3113 C   0  0  0  0  0  0  0  0  0  0  0  0
   25.1281  -19.9927  -10.5997 C   0  0  0  0  0  0  0  0  0  0  0  0
   25.3899  -20.0796   -9.2859 N   0  0  0  0  0  0  0  0  0  0  0  0
   26.5948  -20.6389   -9.1132 C   0  0  0  0  0  0  0  0  0  0  0  0
   27.2955  -20.9359   -7.9762 C   0  0  0  0  0  0  0  0  0  0  0  0
   28.5564  -21.5272   -8.0411 C   0  0  0  0  0  0  0  0  0  0  0  0
   29.0585  -21.7958   -9.2966 C   0  0  0  0  0  0  0  0  0  0  0  0
   28.3548  -21.4979  -10.4482 C   0  0  0  0  0  0  0  0  0  0  0  0
   27.1202  -20.9182  -10.3548 C   0  0  0  0  0  0  0  0  0  0  0  0
   24.0388  -21.4676  -12.9335 C   0  0  0  0  0  0  0  0  0  0  0  0
   23.4456  -22.0435  -11.8400 O   0  0  0  0  0  0  0  0  0  0  0  0
   23.3131  -20.6917  -13.6294 O   0  0  0  0  0  0  0  0  0  0  0  0
  2  1  1  6
  2  3  1  0
  4  2  1  0
  4  5  1  6
  6  4  1  0
  6  7  2  0
  8  6  1  0
  9  8  1  0
 10 11  1  0
  9 10  1  1
 12 13  1  0
 12 11  1  0
 13 14  1  0
 15 16  2  0
 15  9  1  0
 17 15  1  0
 18 17  1  0
 18 29  1  0
 18 19  1  6
 20 19  1  0
 20 21  2  0
 22 21  1  0
 23 22  1  0
 24 23  2  0
 25 24  1  0
 26 25  2  0
 26 27  1  0
 27 28  2  0
 28 23  1  0
 28 20  1  0
 29 31  2  0
 29 30  1  0
M  END
$$$$
