VKW.pdb
     RDKit          3D

 31 32  0  0  1  0  0  0  0  0999 V2000
   22.6640  -18.1879  -19.4760 C   0  0  0  0  0  0  0  0  0  0  0  0
   21.5210  -17.8816  -18.5386 C   0  0  2  0  0  0  0  0  0  0  0  0
   20.8642  -16.5517  -18.8474 C   0  0  0  0  0  0  0  0  0  0  0  0
   21.9195  -17.9743  -17.0797 C   0  0  2  0  0  0  0  0  0  0  0  0
   22.4966  -16.6761  -16.7157 N   0  0  0  0  0  0  0  0  0  0  0  0
   22.9361  -18.9989  -16.8140 C   0  0  0  0  0  0  0  0  0  0  0  0
   22.6130  -20.2301  -16.7790 O   0  0  0  0  0  0  0  0  0  0  0  0
   24.3036  -18.7427  -16.5833 N   0  0  0  0  0  0  0  0  0  0  0  0
   25.2924  -19.8217  -16.3269 C   0  0  1  0  0  0  0  0  0  0  0  0
   26.5476  -19.4846  -17.0990 C   0  0  0  0  0  0  0  0  0  0  0  0
   27.6065  -20.5174  -16.8933 C   0  0  0  0  0  0  0  0  0  0  0  0
   28.3079  -20.8672  -18.2029 C   0  0  0  0  0  0  0  0  0  0  0  0
   29.3896  -21.9008  -18.0039 C   0  0  0  0  0  0  0  0  0  0  0  0
   30.0649  -22.1922  -19.2700 N   0  0  0  0  0  0  0  0  0  0  0  0
   25.5906  -19.8724  -14.8925 C   0  0  0  0  0  0  0  0  0  0  0  0
   25.7126  -18.7739  -14.2489 O   0  0  0  0  0  0  0  0  0  0  0  0
   25.7524  -21.0443  -14.1392 N   0  0  0  0  0  0  0  0  0  0  0  0
   25.7794  -21.0353  -12.6819 C   0  0  1  0  0  0  0  0  0  0  0  0
   24.6037  -20.2076  -12.1683 C   0  0  0  0  0  0  0  0  0  0  0  0
   24.5702  -20.3016  -10.6903 C   0  0  0  0  0  0  0  0  0  0  0  0
   23.5287  -20.7431   -9.8857 C   0  0  0  0  0  0  0  0  0  0  0  0
   23.9048  -20.6654   -8.5993 N   0  0  0  0  0  0  0  0  0  0  0  0
   25.1551  -20.1891   -8.5344 C   0  0  0  0  0  0  0  0  0  0  0  0
   25.9669  -19.9329   -7.4633 C   0  0  0  0  0  0  0  0  0  0  0  0
   27.2548  -19.4290   -7.6399 C   0  0  0  0  0  0  0  0  0  0  0  0
   27.6669  -19.2034   -8.9361 C   0  0  0  0  0  0  0  0  0  0  0  0
   26.8509  -19.4606  -10.0214 C   0  0  0  0  0  0  0  0  0  0  0  0
   25.5924  -19.9546   -9.8187 C   0  0  0  0  0  0  0  0  0  0  0  0
   25.7983  -22.3674  -12.0865 C   0  0  0  0  0  0  0  0  0  0  0  0
   26.6897  -22.7139  -11.1043 O   0  0  0  0  0  0  0  0  0  0  0  0
   24.9833  -23.2686  -12.4562 O   0  0  0  0  0  0  0  0  0  0  0  0
  2  1  1  6
  2  3  1  0
  4  2  1  0
  4  5  1  6
  6  4  1  0
  6  7  2  0
  8  6  1  0
  9  8  1  0
 10 11  1  0
  9 10  1  6
 12 13  1  0
 12 11  1  0
 13 14  1  0
 15 16  2  0
 15  9  1  0
 17 15  1  0
 18 17  1  0
 18 29  1  0
 18 19  1  1
 20 19  1  0
 20 21  2  0
 22 21  1  0
 23 22  1  0
 24 23  2  0
 25 24  1  0
 26 25  2  0
 26 27  1  0
 27 28  2  0
 28 23  1  0
 28 20  1  0
 29 31  2  0
 29 30  1  0
M  END
$$$$
