VKW.pdb
     RDKit          3D

 31 32  0  0  1  0  0  0  0  0999 V2000
   14.7989  -17.2169  -18.8711 C   0  0  0  0  0  0  0  0  0  0  0  0
   15.3814  -18.5254  -19.3479 C   0  0  2  0  0  0  0  0  0  0  0  0
   14.3950  -19.6697  -19.2343 C   0  0  0  0  0  0  0  0  0  0  0  0
   16.6959  -18.8615  -18.6732 C   0  0  2  0  0  0  0  0  0  0  0  0
   16.3846  -19.1808  -17.2761 N   0  0  0  0  0  0  0  0  0  0  0  0
   17.6532  -17.7491  -18.6687 C   0  0  0  0  0  0  0  0  0  0  0  0
   17.6158  -16.8736  -17.7449 O   0  0  0  0  0  0  0  0  0  0  0  0
   18.6614  -17.5441  -19.6333 N   0  0  0  0  0  0  0  0  0  0  0  0
   19.6348  -16.4243  -19.5544 C   0  0  1  0  0  0  0  0  0  0  0  0
   20.8965  -16.8645  -20.2613 C   0  0  0  0  0  0  0  0  0  0  0  0
   21.9828  -17.1828  -19.2871 C   0  0  0  0  0  0  0  0  0  0  0  0
   22.2974  -18.6762  -19.2691 C   0  0  0  0  0  0  0  0  0  0  0  0
   23.4174  -19.0043  -18.3121 C   0  0  0  0  0  0  0  0  0  0  0  0
   23.6486  -20.4493  -18.2635 N   0  0  0  0  0  0  0  0  0  0  0  0
   19.0737  -15.2486  -20.2266 C   0  0  0  0  0  0  0  0  0  0  0  0
   18.1258  -15.4140  -21.0691 O   0  0  0  0  0  0  0  0  0  0  0  0
   19.4862  -13.9239  -20.0215 N   0  0  0  0  0  0  0  0  0  0  0  0
   18.8846  -12.8025  -20.7321 C   0  0  1  0  0  0  0  0  0  0  0  0
   17.3799  -12.7996  -20.4725 C   0  0  0  0  0  0  0  0  0  0  0  0
   16.7759  -11.6660  -21.2106 C   0  0  0  0  0  0  0  0  0  0  0  0
   16.7859  -11.4355  -22.5795 C   0  0  0  0  0  0  0  0  0  0  0  0
   16.1296  -10.2931  -22.8368 N   0  0  0  0  0  0  0  0  0  0  0  0
   15.6908   -9.7686  -21.6849 C   0  0  0  0  0  0  0  0  0  0  0  0
   14.9802   -8.6281  -21.4274 C   0  0  0  0  0  0  0  0  0  0  0  0
   14.6294   -8.2769  -20.1245 C   0  0  0  0  0  0  0  0  0  0  0  0
   15.0303   -9.1280  -19.1168 C   0  0  0  0  0  0  0  0  0  0  0  0
   15.7481  -10.2812  -19.3716 C   0  0  0  0  0  0  0  0  0  0  0  0
   16.0784  -10.6010  -20.6591 C   0  0  0  0  0  0  0  0  0  0  0  0
   19.4867  -11.5126  -20.4113 C   0  0  0  0  0  0  0  0  0  0  0  0
   19.7054  -10.5530  -21.3656 O   0  0  0  0  0  0  0  0  0  0  0  0
   19.8361  -11.2226  -19.2252 O   0  0  0  0  0  0  0  0  0  0  0  0
  2  1  1  1
  2  3  1  0
  4  2  1  0
  4  5  1  1
  6  4  1  0
  6  7  2  0
  8  6  1  0
  9  8  1  0
 10 11  1  0
  9 10  1  6
 12 13  1  0
 12 11  1  0
 13 14  1  0
 15 16  2  0
 15  9  1  0
 17 15  1  0
 18 17  1  0
 18 29  1  0
 18 19  1  1
 20 19  1  0
 20 21  2  0
 22 21  1  0
 23 22  1  0
 24 23  2  0
 25 24  1  0
 26 25  2  0
 26 27  1  0
 27 28  2  0
 28 23  1  0
 28 20  1  0
 29 31  2  0
 29 30  1  0
M  END
$$$$
