VKW.pdb
     RDKit          3D

 31 32  0  0  1  0  0  0  0  0999 V2000
   29.5118  -20.6305  -13.0684 C   0  0  0  0  0  0  0  0  0  0  0  0
   28.9237  -21.2247  -14.3254 C   0  0  2  0  0  0  0  0  0  0  0  0
   29.9822  -21.5405  -15.3623 C   0  0  0  0  0  0  0  0  0  0  0  0
   27.8143  -20.3749  -14.9110 C   0  0  2  0  0  0  0  0  0  0  0  0
   28.4464  -19.1649  -15.4468 N   0  0  0  0  0  0  0  0  0  0  0  0
   26.8170  -19.9504  -13.9215 C   0  0  0  0  0  0  0  0  0  0  0  0
   26.9948  -18.8851  -13.2471 O   0  0  0  0  0  0  0  0  0  0  0  0
   25.6213  -20.6389  -13.6298 N   0  0  0  0  0  0  0  0  0  0  0  0
   24.6614  -20.1806  -12.5923 C   0  0  1  0  0  0  0  0  0  0  0  0
   23.2675  -20.3486  -13.1528 C   0  0  0  0  0  0  0  0  0  0  0  0
   23.0439  -19.4576  -14.3303 C   0  0  0  0  0  0  0  0  0  0  0  0
   21.6714  -19.6916  -14.9555 C   0  0  0  0  0  0  0  0  0  0  0  0
   20.8784  -18.4123  -15.0683 C   0  0  0  0  0  0  0  0  0  0  0  0
   21.4919  -17.5086  -16.0433 N   0  0  0  0  0  0  0  0  0  0  0  0
   24.8167  -21.0076  -11.3919 C   0  0  0  0  0  0  0  0  0  0  0  0
   25.6685  -21.9615  -11.4063 O   0  0  0  0  0  0  0  0  0  0  0  0
   24.1038  -20.8417  -10.1956 N   0  0  0  0  0  0  0  0  0  0  0  0
   24.6675  -21.1940   -8.8983 C   0  0  1  0  0  0  0  0  0  0  0  0
   25.9702  -20.4235   -8.6970 C   0  0  0  0  0  0  0  0  0  0  0  0
   26.4978  -20.7330   -7.3478 C   0  0  0  0  0  0  0  0  0  0  0  0
   26.3371  -21.9011   -6.6149 C   0  0  0  0  0  0  0  0  0  0  0  0
   26.9704  -21.7713   -5.4383 N   0  0  0  0  0  0  0  0  0  0  0  0
   27.5395  -20.5602   -5.3760 C   0  0  0  0  0  0  0  0  0  0  0  0
   28.2842  -19.9642   -4.3951 C   0  0  0  0  0  0  0  0  0  0  0  0
   28.7811  -18.6713   -4.5534 C   0  0  0  0  0  0  0  0  0  0  0  0
   28.4878  -18.0279   -5.7369 C   0  0  0  0  0  0  0  0  0  0  0  0
   27.7362  -18.6255   -6.7309 C   0  0  0  0  0  0  0  0  0  0  0  0
   27.2616  -19.8945   -6.5487 C   0  0  0  0  0  0  0  0  0  0  0  0
   23.7474  -20.9925   -7.7838 C   0  0  0  0  0  0  0  0  0  0  0  0
   23.6809  -21.8636   -6.7273 O   0  0  0  0  0  0  0  0  0  0  0  0
   22.9636  -19.9940   -7.7455 O   0  0  0  0  0  0  0  0  0  0  0  0
  2  1  1  1
  2  3  1  0
  4  2  1  0
  4  5  1  1
  6  4  1  0
  6  7  2  0
  8  6  1  0
  9  8  1  0
 10 11  1  0
  9 10  1  6
 12 13  1  0
 12 11  1  0
 13 14  1  0
 15 16  2  0
 15  9  1  0
 17 15  1  0
 18 17  1  0
 18 29  1  0
 18 19  1  1
 20 19  1  0
 20 21  2  0
 22 21  1  0
 23 22  1  0
 24 23  2  0
 25 24  1  0
 26 25  2  0
 26 27  1  0
 27 28  2  0
 28 23  1  0
 28 20  1  0
 29 31  2  0
 29 30  1  0
M  END
$$$$
