VKW.pdb
     RDKit          3D

 31 32  0  0  1  0  0  0  0  0999 V2000
   28.9888  -18.7789  -16.2750 C   0  0  0  0  0  0  0  0  0  0  0  0
   27.5783  -19.3162  -16.2419 C   0  0  2  0  0  0  0  0  0  0  0  0
   26.7251  -18.6287  -15.1957 C   0  0  0  0  0  0  0  0  0  0  0  0
   27.5294  -20.8230  -16.0902 C   0  0  2  0  0  0  0  0  0  0  0  0
   28.3486  -21.3836  -17.1697 N   0  0  0  0  0  0  0  0  0  0  0  0
   26.1791  -21.3818  -16.2256 C   0  0  0  0  0  0  0  0  0  0  0  0
   25.4247  -21.0133  -17.1828 O   0  0  0  0  0  0  0  0  0  0  0  0
   25.6061  -22.3348  -15.3582 N   0  0  0  0  0  0  0  0  0  0  0  0
   24.1825  -22.7509  -15.4474 C   0  0  1  0  0  0  0  0  0  0  0  0
   24.1477  -24.2622  -15.4607 C   0  0  0  0  0  0  0  0  0  0  0  0
   24.4322  -24.8006  -16.8244 C   0  0  0  0  0  0  0  0  0  0  0  0
   25.8171  -25.4381  -16.8959 C   0  0  0  0  0  0  0  0  0  0  0  0
   26.1735  -25.8546  -18.3021 C   0  0  0  0  0  0  0  0  0  0  0  0
   27.5020  -26.4690  -18.3378 N   0  0  0  0  0  0  0  0  0  0  0  0
   23.4583  -22.2481  -14.2762 C   0  0  0  0  0  0  0  0  0  0  0  0
   23.7942  -22.6689  -13.1161 O   0  0  0  0  0  0  0  0  0  0  0  0
   22.4079  -21.3193  -14.3099 N   0  0  0  0  0  0  0  0  0  0  0  0
   21.4653  -21.1700  -13.2083 C   0  0  1  0  0  0  0  0  0  0  0  0
   21.7560  -19.8600  -12.4798 C   0  0  0  0  0  0  0  0  0  0  0  0
   23.2135  -19.7725  -12.2297 C   0  0  0  0  0  0  0  0  0  0  0  0
   24.2168  -19.4438  -13.1311 C   0  0  0  0  0  0  0  0  0  0  0  0
   25.4020  -19.4839  -12.5021 N   0  0  0  0  0  0  0  0  0  0  0  0
   25.2094  -19.8268  -11.2216 C   0  0  0  0  0  0  0  0  0  0  0  0
   26.0940  -19.9985  -10.1921 C   0  0  0  0  0  0  0  0  0  0  0  0
   25.6565  -20.3645   -8.9199 C   0  0  0  0  0  0  0  0  0  0  0  0
   24.2999  -20.5435   -8.7515 C   0  0  0  0  0  0  0  0  0  0  0  0
   23.4021  -20.3713   -9.7880 C   0  0  0  0  0  0  0  0  0  0  0  0
   23.8593  -20.0121  -11.0253 C   0  0  0  0  0  0  0  0  0  0  0  0
   20.0669  -21.2583  -13.6157 C   0  0  0  0  0  0  0  0  0  0  0  0
   19.0413  -21.2553  -12.7059 O   0  0  0  0  0  0  0  0  0  0  0  0
   19.7387  -21.3422  -14.8397 O   0  0  0  0  0  0  0  0  0  0  0  0
  2  1  1  1
  2  3  1  0
  4  2  1  0
  4  5  1  6
  6  4  1  0
  6  7  2  0
  8  6  1  0
  9  8  1  0
 10 11  1  0
  9 10  1  1
 12 13  1  0
 12 11  1  0
 13 14  1  0
 15 16  2  0
 15  9  1  0
 17 15  1  0
 18 17  1  0
 18 29  1  0
 18 19  1  6
 20 19  1  0
 20 21  2  0
 22 21  1  0
 23 22  1  0
 24 23  2  0
 25 24  1  0
 26 25  2  0
 26 27  1  0
 27 28  2  0
 28 23  1  0
 28 20  1  0
 29 31  2  0
 29 30  1  0
M  END
$$$$
