VKW.pdb
     RDKit          3D

 31 32  0  0  1  0  0  0  0  0999 V2000
   14.1152  -21.7990    3.1088 C   0  0  0  0  0  0  0  0  0  0  0  0
   15.5326  -21.8564    2.5922 C   0  0  2  0  0  0  0  0  0  0  0  0
   15.8860  -23.2190    2.0320 C   0  0  0  0  0  0  0  0  0  0  0  0
   16.5491  -21.4023    3.6201 C   0  0  2  0  0  0  0  0  0  0  0  0
   16.7472  -22.5244    4.5433 N   0  0  0  0  0  0  0  0  0  0  0  0
   16.1049  -20.2508    4.4142 C   0  0  0  0  0  0  0  0  0  0  0  0
   15.9682  -19.1086    3.8683 O   0  0  0  0  0  0  0  0  0  0  0  0
   15.7980  -20.2858    5.7903 N   0  0  0  0  0  0  0  0  0  0  0  0
   15.3516  -19.0868    6.5459 C   0  0  1  0  0  0  0  0  0  0  0  0
   14.6695  -19.5684    7.8062 C   0  0  0  0  0  0  0  0  0  0  0  0
   14.1430  -18.4254    8.6103 C   0  0  0  0  0  0  0  0  0  0  0  0
   13.4733  -18.9071    9.8944 C   0  0  0  0  0  0  0  0  0  0  0  0
   12.8914  -17.7636   10.6893 C   0  0  0  0  0  0  0  0  0  0  0  0
   12.2411  -18.2576   11.9046 N   0  0  0  0  0  0  0  0  0  0  0  0
   16.5201  -18.2729    6.8940 C   0  0  0  0  0  0  0  0  0  0  0  0
   17.5269  -18.8415    7.4406 O   0  0  0  0  0  0  0  0  0  0  0  0
   16.6424  -16.8936    6.6715 N   0  0  0  0  0  0  0  0  0  0  0  0
   17.7451  -16.1119    7.2168 C   0  0  1  0  0  0  0  0  0  0  0  0
   18.9333  -16.1955    6.2615 C   0  0  0  0  0  0  0  0  0  0  0  0
   19.3511  -14.8193    5.9065 C   0  0  0  0  0  0  0  0  0  0  0  0
   20.0366  -13.9046    6.6942 C   0  0  0  0  0  0  0  0  0  0  0  0
   20.2141  -12.7713    5.9969 N   0  0  0  0  0  0  0  0  0  0  0  0
   19.6692  -12.9126    4.7813 C   0  0  0  0  0  0  0  0  0  0  0  0
   19.5924  -12.0492    3.7227 C   0  0  0  0  0  0  0  0  0  0  0  0
   18.9649  -12.4207    2.5344 C   0  0  0  0  0  0  0  0  0  0  0  0
   18.4299  -13.6901    2.4788 C   0  0  0  0  0  0  0  0  0  0  0  0
   18.5049  -14.5660    3.5452 C   0  0  0  0  0  0  0  0  0  0  0  0
   19.1262  -14.1751    4.6985 C   0  0  0  0  0  0  0  0  0  0  0  0
   17.3929  -14.7276    7.5149 C   0  0  0  0  0  0  0  0  0  0  0  0
   18.0566  -13.9953    8.4650 O   0  0  0  0  0  0  0  0  0  0  0  0
   16.4495  -14.1385    6.9018 O   0  0  0  0  0  0  0  0  0  0  0  0
  2  1  1  1
  2  3  1  0
  4  2  1  0
  4  5  1  1
  6  4  1  0
  6  7  2  0
  8  6  1  0
  9  8  1  0
 10 11  1  0
  9 10  1  1
 12 13  1  0
 12 11  1  0
 13 14  1  0
 15 16  2  0
 15  9  1  0
 17 15  1  0
 18 17  1  0
 18 29  1  0
 18 19  1  6
 20 19  1  0
 20 21  2  0
 22 21  1  0
 23 22  1  0
 24 23  2  0
 25 24  1  0
 26 25  2  0
 26 27  1  0
 27 28  2  0
 28 23  1  0
 28 20  1  0
 29 31  2  0
 29 30  1  0
M  END
$$$$
