VKW.pdb
     RDKit          3D

 31 32  0  0  1  0  0  0  0  0999 V2000
   24.9156  -18.8781  -17.5995 C   0  0  0  0  0  0  0  0  0  0  0  0
   23.6582  -18.5693  -16.8231 C   0  0  2  0  0  0  0  0  0  0  0  0
   22.9584  -17.3259  -17.3323 C   0  0  0  0  0  0  0  0  0  0  0  0
   23.8965  -18.4951  -15.3286 C   0  0  2  0  0  0  0  0  0  0  0  0
   24.5934  -17.2302  -15.0738 N   0  0  0  0  0  0  0  0  0  0  0  0
   24.7452  -19.5773  -14.8162 C   0  0  0  0  0  0  0  0  0  0  0  0
   24.3474  -20.7856  -14.8702 O   0  0  0  0  0  0  0  0  0  0  0  0
   26.0217  -19.4031  -14.2425 N   0  0  0  0  0  0  0  0  0  0  0  0
   26.7811  -20.5161  -13.6161 C   0  0  1  0  0  0  0  0  0  0  0  0
   28.2352  -20.3467  -13.9933 C   0  0  0  0  0  0  0  0  0  0  0  0
   28.4521  -20.5978  -15.4494 C   0  0  0  0  0  0  0  0  0  0  0  0
   28.9488  -22.0184  -15.7036 C   0  0  0  0  0  0  0  0  0  0  0  0
   29.2672  -22.2516  -17.1603 C   0  0  0  0  0  0  0  0  0  0  0  0
   29.8455  -23.5823  -17.3561 N   0  0  0  0  0  0  0  0  0  0  0  0
   26.6341  -20.4412  -12.1595 C   0  0  0  0  0  0  0  0  0  0  0  0
   26.8059  -19.3143  -11.5796 O   0  0  0  0  0  0  0  0  0  0  0  0
   26.3077  -21.5173  -11.3214 N   0  0  0  0  0  0  0  0  0  0  0  0
   25.9573  -21.3330   -9.9187 C   0  0  1  0  0  0  0  0  0  0  0  0
   27.0335  -20.4849   -9.2451 C   0  0  0  0  0  0  0  0  0  0  0  0
   26.7445  -20.4213   -7.7936 C   0  0  0  0  0  0  0  0  0  0  0  0
   25.5674  -20.7616   -7.1412 C   0  0  0  0  0  0  0  0  0  0  0  0
   25.7198  -20.5529   -5.8238 N   0  0  0  0  0  0  0  0  0  0  0  0
   26.9547  -20.0884   -5.5918 C   0  0  0  0  0  0  0  0  0  0  0  0
   27.5785  -19.7305   -4.4279 C   0  0  0  0  0  0  0  0  0  0  0  0
   28.8926  -19.2648   -4.4289 C   0  0  0  0  0  0  0  0  0  0  0  0
   29.5274  -19.1831   -5.6500 C   0  0  0  0  0  0  0  0  0  0  0  0
   28.9018  -19.5434   -6.8284 C   0  0  0  0  0  0  0  0  0  0  0  0
   27.6125  -19.9970   -6.7979 C   0  0  0  0  0  0  0  0  0  0  0  0
   24.6260  -20.7714   -9.7146 C   0  0  0  0  0  0  0  0  0  0  0  0
   23.7549  -21.2804   -8.7865 O   0  0  0  0  0  0  0  0  0  0  0  0
   24.2155  -19.7796  -10.3934 O   0  0  0  0  0  0  0  0  0  0  0  0
  2  1  1  6
  2  3  1  0
  4  2  1  0
  4  5  1  6
  6  4  1  0
  6  7  2  0
  8  6  1  0
  9  8  1  0
 10 11  1  0
  9 10  1  1
 12 13  1  0
 12 11  1  0
 13 14  1  0
 15 16  2  0
 15  9  1  0
 17 15  1  0
 18 17  1  0
 18 29  1  0
 18 19  1  6
 20 19  1  0
 20 21  2  0
 22 21  1  0
 23 22  1  0
 24 23  2  0
 25 24  1  0
 26 25  2  0
 26 27  1  0
 27 28  2  0
 28 23  1  0
 28 20  1  0
 29 31  2  0
 29 30  1  0
M  END
$$$$
