VKW.pdb
     RDKit          3D

 31 32  0  0  1  0  0  0  0  0999 V2000
   22.7387  -19.5690  -10.2983 C   0  0  0  0  0  0  0  0  0  0  0  0
   23.3864  -20.9088  -10.0439 C   0  0  2  0  0  0  0  0  0  0  0  0
   22.9625  -21.5106   -8.7198 C   0  0  0  0  0  0  0  0  0  0  0  0
   24.8956  -20.8629  -10.1708 C   0  0  2  0  0  0  0  0  0  0  0  0
   25.3838  -19.9900   -9.0983 N   0  0  0  0  0  0  0  0  0  0  0  0
   25.3595  -20.2991  -11.4439 C   0  0  0  0  0  0  0  0  0  0  0  0
   25.6794  -19.0691  -11.5229 O   0  0  0  0  0  0  0  0  0  0  0  0
   25.4940  -21.0205  -12.6483 N   0  0  0  0  0  0  0  0  0  0  0  0
   25.9372  -20.3902  -13.9187 C   0  0  1  0  0  0  0  0  0  0  0  0
   26.7514  -21.4136  -14.6771 C   0  0  0  0  0  0  0  0  0  0  0  0
   27.3062  -20.8400  -15.9394 C   0  0  0  0  0  0  0  0  0  0  0  0
   28.1028  -21.8797  -16.7229 C   0  0  0  0  0  0  0  0  0  0  0  0
   28.8354  -21.2652  -17.8907 C   0  0  0  0  0  0  0  0  0  0  0  0
   29.7891  -22.2184  -18.4616 N   0  0  0  0  0  0  0  0  0  0  0  0
   24.7602  -20.0103  -14.7056 C   0  0  0  0  0  0  0  0  0  0  0  0
   23.7551  -20.8008  -14.7323 O   0  0  0  0  0  0  0  0  0  0  0  0
   24.6277  -18.8266  -15.4460 N   0  0  0  0  0  0  0  0  0  0  0  0
   23.3914  -18.4714  -16.1314 C   0  0  1  0  0  0  0  0  0  0  0  0
   23.0731  -17.0043  -15.8533 C   0  0  0  0  0  0  0  0  0  0  0  0
   23.8870  -16.1643  -16.7624 C   0  0  0  0  0  0  0  0  0  0  0  0
   23.5081  -15.6013  -17.9735 C   0  0  0  0  0  0  0  0  0  0  0  0
   24.5445  -14.9162  -18.4821 N   0  0  0  0  0  0  0  0  0  0  0  0
   25.5873  -15.0110  -17.6466 C   0  0  0  0  0  0  0  0  0  0  0  0
   26.8514  -14.4931  -17.7213 C   0  0  0  0  0  0  0  0  0  0  0  0
   27.7869  -14.7284  -16.7147 C   0  0  0  0  0  0  0  0  0  0  0  0
   27.3791  -15.5022  -15.6490 C   0  0  0  0  0  0  0  0  0  0  0  0
   26.1033  -16.0276  -15.5687 C   0  0  0  0  0  0  0  0  0  0  0  0
   25.2064  -15.7806  -16.5704 C   0  0  0  0  0  0  0  0  0  0  0  0
   23.4112  -18.7540  -17.5628 C   0  0  0  0  0  0  0  0  0  0  0  0
   22.2619  -18.8334  -18.3059 O   0  0  0  0  0  0  0  0  0  0  0  0
   24.5027  -18.9395  -18.1852 O   0  0  0  0  0  0  0  0  0  0  0  0
  2  1  1  1
  2  3  1  0
  4  2  1  0
  4  5  1  1
  6  4  1  0
  6  7  2  0
  8  6  1  0
  9  8  1  0
 10 11  1  0
  9 10  1  6
 12 13  1  0
 12 11  1  0
 13 14  1  0
 15 16  2  0
 15  9  1  0
 17 15  1  0
 18 17  1  0
 18 29  1  0
 18 19  1  6
 20 19  1  0
 20 21  2  0
 22 21  1  0
 23 22  1  0
 24 23  2  0
 25 24  1  0
 26 25  2  0
 26 27  1  0
 27 28  2  0
 28 23  1  0
 28 20  1  0
 29 31  2  0
 29 30  1  0
M  END
$$$$
