VKW.pdb
     RDKit          3D

 31 32  0  0  1  0  0  0  0  0999 V2000
   26.8388  -24.8653  -16.2952 C   0  0  0  0  0  0  0  0  0  0  0  0
   26.9365  -24.0507  -17.5624 C   0  0  2  0  0  0  0  0  0  0  0  0
   26.9644  -24.9188  -18.8037 C   0  0  0  0  0  0  0  0  0  0  0  0
   28.0973  -23.0770  -17.5443 C   0  0  2  0  0  0  0  0  0  0  0  0
   29.3233  -23.8811  -17.5119 N   0  0  0  0  0  0  0  0  0  0  0  0
   28.1112  -22.2039  -16.3647 C   0  0  0  0  0  0  0  0  0  0  0  0
   28.8999  -22.4471  -15.3951 O   0  0  0  0  0  0  0  0  0  0  0  0
   27.2981  -21.0649  -16.1903 N   0  0  0  0  0  0  0  0  0  0  0  0
   27.3287  -20.2353  -14.9580 C   0  0  1  0  0  0  0  0  0  0  0  0
   26.8159  -18.8600  -15.3198 C   0  0  0  0  0  0  0  0  0  0  0  0
   27.8743  -18.0424  -15.9843 C   0  0  0  0  0  0  0  0  0  0  0  0
   27.3515  -16.6631  -16.3760 C   0  0  0  0  0  0  0  0  0  0  0  0
   28.3967  -15.8490  -17.0990 C   0  0  0  0  0  0  0  0  0  0  0  0
   27.8442  -14.5626  -17.5276 N   0  0  0  0  0  0  0  0  0  0  0  0
   26.4564  -20.8402  -13.9470 C   0  0  0  0  0  0  0  0  0  0  0  0
   25.4170  -21.4785  -14.3317 O   0  0  0  0  0  0  0  0  0  0  0  0
   26.6646  -20.7882  -12.5610 N   0  0  0  0  0  0  0  0  0  0  0  0
   25.7957  -21.4798  -11.6169 C   0  0  1  0  0  0  0  0  0  0  0  0
   26.6160  -21.8919  -10.3969 C   0  0  0  0  0  0  0  0  0  0  0  0
   26.6195  -20.7699   -9.4296 C   0  0  0  0  0  0  0  0  0  0  0  0
   25.6468  -19.7965   -9.2468 C   0  0  0  0  0  0  0  0  0  0  0  0
   26.0394  -18.9617   -8.2716 N   0  0  0  0  0  0  0  0  0  0  0  0
   27.2341  -19.3547   -7.8102 C   0  0  0  0  0  0  0  0  0  0  0  0
   28.0369  -18.8357   -6.8315 C   0  0  0  0  0  0  0  0  0  0  0  0
   29.2615  -19.4236   -6.5175 C   0  0  0  0  0  0  0  0  0  0  0  0
   29.6209  -20.5442   -7.2356 C   0  0  0  0  0  0  0  0  0  0  0  0
   28.8136  -21.0725   -8.2251 C   0  0  0  0  0  0  0  0  0  0  0  0
   27.6177  -20.4754   -8.5121 C   0  0  0  0  0  0  0  0  0  0  0  0
   24.6147  -20.7125  -11.2349 C   0  0  0  0  0  0  0  0  0  0  0  0
   23.5009  -21.3071  -10.7005 O   0  0  0  0  0  0  0  0  0  0  0  0
   24.5688  -19.4520  -11.3825 O   0  0  0  0  0  0  0  0  0  0  0  0
  2  1  1  1
  2  3  1  0
  4  2  1  0
  4  5  1  1
  6  4  1  0
  6  7  2  0
  8  6  1  0
  9  8  1  0
 10 11  1  0
  9 10  1  6
 12 13  1  0
 12 11  1  0
 13 14  1  0
 15 16  2  0
 15  9  1  0
 17 15  1  0
 18 17  1  0
 18 29  1  0
 18 19  1  1
 20 19  1  0
 20 21  2  0
 22 21  1  0
 23 22  1  0
 24 23  2  0
 25 24  1  0
 26 25  2  0
 26 27  1  0
 27 28  2  0
 28 23  1  0
 28 20  1  0
 29 31  2  0
 29 30  1  0
M  END
$$$$
