VKW.pdb
     RDKit          3D

 31 32  0  0  1  0  0  0  0  0999 V2000
   23.8505   -6.8523  -25.0692 C   0  0  0  0  0  0  0  0  0  0  0  0
   24.0534   -6.0061  -23.8356 C   0  0  2  0  0  0  0  0  0  0  0  0
   25.4858   -6.0410  -23.3432 C   0  0  0  0  0  0  0  0  0  0  0  0
   23.0802   -6.3471  -22.7253 C   0  0  2  0  0  0  0  0  0  0  0  0
   21.7349   -6.0857  -23.2472 N   0  0  0  0  0  0  0  0  0  0  0  0
   23.2537   -5.5257  -21.5216 C   0  0  0  0  0  0  0  0  0  0  0  0
   24.3320   -5.5935  -20.8479 O   0  0  0  0  0  0  0  0  0  0  0  0
   22.2973   -4.6230  -21.0121 N   0  0  0  0  0  0  0  0  0  0  0  0
   22.5181   -3.8300  -19.7751 C   0  0  1  0  0  0  0  0  0  0  0  0
   21.6736   -2.5802  -19.8764 C   0  0  0  0  0  0  0  0  0  0  0  0
   22.3265   -1.5512  -20.7397 C   0  0  0  0  0  0  0  0  0  0  0  0
   21.4640   -0.2983  -20.8653 C   0  0  0  0  0  0  0  0  0  0  0  0
   22.1350    0.7661  -21.6988 C   0  0  0  0  0  0  0  0  0  0  0  0
   21.3569    2.0062  -21.6769 N   0  0  0  0  0  0  0  0  0  0  0  0
   22.0982   -4.6200  -18.6139 C   0  0  0  0  0  0  0  0  0  0  0  0
   21.0563   -5.3552  -18.7124 O   0  0  0  0  0  0  0  0  0  0  0  0
   22.7538   -4.6505  -17.3744 N   0  0  0  0  0  0  0  0  0  0  0  0
   22.2917   -5.4815  -16.2697 C   0  0  1  0  0  0  0  0  0  0  0  0
   22.3057   -6.9438  -16.7084 C   0  0  0  0  0  0  0  0  0  0  0  0
   22.8512   -7.7634  -15.6015 C   0  0  0  0  0  0  0  0  0  0  0  0
   22.2890   -7.9967  -14.3538 C   0  0  0  0  0  0  0  0  0  0  0  0
   23.1073   -8.7908  -13.6455 N   0  0  0  0  0  0  0  0  0  0  0  0
   24.1844   -9.0852  -14.3856 C   0  0  0  0  0  0  0  0  0  0  0  0
   25.2854   -9.8491  -14.1099 C   0  0  0  0  0  0  0  0  0  0  0  0
   26.3002  -10.0162  -15.0513 C   0  0  0  0  0  0  0  0  0  0  0  0
   26.1412   -9.3791  -16.2635 C   0  0  0  0  0  0  0  0  0  0  0  0
   25.0310   -8.6064  -16.5470 C   0  0  0  0  0  0  0  0  0  0  0  0
   24.0511   -8.4599  -15.6050 C   0  0  0  0  0  0  0  0  0  0  0  0
   23.0416   -5.2852  -15.0333 C   0  0  0  0  0  0  0  0  0  0  0  0
   22.4970   -5.5435  -13.8020 O   0  0  0  0  0  0  0  0  0  0  0  0
   24.2395   -4.8636  -15.0463 O   0  0  0  0  0  0  0  0  0  0  0  0
  2  1  1  6
  2  3  1  0
  4  2  1  0
  4  5  1  6
  6  4  1  0
  6  7  2  0
  8  6  1  0
  9  8  1  0
 10 11  1  0
  9 10  1  6
 12 13  1  0
 12 11  1  0
 13 14  1  0
 15 16  2  0
 15  9  1  0
 17 15  1  0
 18 17  1  0
 18 29  1  0
 18 19  1  6
 20 19  1  0
 20 21  2  0
 22 21  1  0
 23 22  1  0
 24 23  2  0
 25 24  1  0
 26 25  2  0
 26 27  1  0
 27 28  2  0
 28 23  1  0
 28 20  1  0
 29 31  2  0
 29 30  1  0
M  END
$$$$
