VKW.pdb
     RDKit          3D

 31 32  0  0  1  0  0  0  0  0999 V2000
   28.5781  -25.6251  -16.4190 C   0  0  0  0  0  0  0  0  0  0  0  0
   27.6004  -25.2986  -17.5220 C   0  0  2  0  0  0  0  0  0  0  0  0
   27.6676  -26.2926  -18.6633 C   0  0  0  0  0  0  0  0  0  0  0  0
   27.7362  -23.8747  -18.0221 C   0  0  2  0  0  0  0  0  0  0  0  0
   29.0231  -23.7928  -18.7206 N   0  0  0  0  0  0  0  0  0  0  0  0
   27.7534  -22.8755  -16.9473 C   0  0  0  0  0  0  0  0  0  0  0  0
   28.7910  -22.7281  -16.2241 O   0  0  0  0  0  0  0  0  0  0  0  0
   26.6818  -22.0189  -16.6204 N   0  0  0  0  0  0  0  0  0  0  0  0
   26.7758  -20.9803  -15.5620 C   0  0  1  0  0  0  0  0  0  0  0  0
   26.1130  -19.7283  -16.0898 C   0  0  0  0  0  0  0  0  0  0  0  0
   26.9621  -18.5227  -15.8536 C   0  0  0  0  0  0  0  0  0  0  0  0
   27.8675  -18.2341  -17.0479 C   0  0  0  0  0  0  0  0  0  0  0  0
   28.6953  -16.9894  -16.8394 C   0  0  0  0  0  0  0  0  0  0  0  0
   29.6113  -16.7840  -17.9631 N   0  0  0  0  0  0  0  0  0  0  0  0
   26.0720  -21.4471  -14.3638 C   0  0  0  0  0  0  0  0  0  0  0  0
   24.9719  -22.0844  -14.5038 O   0  0  0  0  0  0  0  0  0  0  0  0
   26.5075  -21.2606  -13.0437 N   0  0  0  0  0  0  0  0  0  0  0  0
   25.7819  -21.8011  -11.9010 C   0  0  1  0  0  0  0  0  0  0  0  0
   26.7598  -22.0167  -10.7484 C   0  0  0  0  0  0  0  0  0  0  0  0
   26.5728  -20.9284   -9.7609 C   0  0  0  0  0  0  0  0  0  0  0  0
   25.4660  -20.1071   -9.5941 C   0  0  0  0  0  0  0  0  0  0  0  0
   25.7045  -19.2481   -8.5905 N   0  0  0  0  0  0  0  0  0  0  0  0
   26.9276  -19.4786   -8.0951 C   0  0  0  0  0  0  0  0  0  0  0  0
   27.6167  -18.8741   -7.0794 C   0  0  0  0  0  0  0  0  0  0  0  0
   28.9019  -19.2898   -6.7338 C   0  0  0  0  0  0  0  0  0  0  0  0
   29.4398  -20.3312   -7.4597 C   0  0  0  0  0  0  0  0  0  0  0  0
   28.7479  -20.9452   -8.4864 C   0  0  0  0  0  0  0  0  0  0  0  0
   27.4890  -20.5170   -8.8038 C   0  0  0  0  0  0  0  0  0  0  0  0
   24.6411  -20.9885  -11.4916 C   0  0  0  0  0  0  0  0  0  0  0  0
   23.5589  -21.5256  -10.8437 O   0  0  0  0  0  0  0  0  0  0  0  0
   24.6028  -19.7398  -11.7200 O   0  0  0  0  0  0  0  0  0  0  0  0
  2  1  1  1
  2  3  1  0
  4  2  1  0
  4  5  1  1
  6  4  1  0
  6  7  2  0
  8  6  1  0
  9  8  1  0
 10 11  1  0
  9 10  1  6
 12 13  1  0
 12 11  1  0
 13 14  1  0
 15 16  2  0
 15  9  1  0
 17 15  1  0
 18 17  1  0
 18 29  1  0
 18 19  1  1
 20 19  1  0
 20 21  2  0
 22 21  1  0
 23 22  1  0
 24 23  2  0
 25 24  1  0
 26 25  2  0
 26 27  1  0
 27 28  2  0
 28 23  1  0
 28 20  1  0
 29 31  2  0
 29 30  1  0
M  END
$$$$
