VKW.pdb
     RDKit          3D

 31 32  0  0  1  0  0  0  0  0999 V2000
   22.5105  -18.7703  -17.3695 C   0  0  0  0  0  0  0  0  0  0  0  0
   23.7234  -17.8753  -17.2861 C   0  0  2  0  0  0  0  0  0  0  0  0
   24.3896  -17.6822  -18.6330 C   0  0  0  0  0  0  0  0  0  0  0  0
   24.7184  -18.3338  -16.2394 C   0  0  2  0  0  0  0  0  0  0  0  0
   25.3446  -19.5546  -16.7573 N   0  0  0  0  0  0  0  0  0  0  0  0
   24.1008  -18.6676  -14.9506 C   0  0  0  0  0  0  0  0  0  0  0  0
   23.4984  -17.7714  -14.2759 O   0  0  0  0  0  0  0  0  0  0  0  0
   24.1077  -19.9465  -14.3560 N   0  0  0  0  0  0  0  0  0  0  0  0
   23.5369  -20.2112  -13.0100 C   0  0  1  0  0  0  0  0  0  0  0  0
   22.4946  -21.2957  -13.1605 C   0  0  0  0  0  0  0  0  0  0  0  0
   21.8941  -21.6597  -11.8425 C   0  0  0  0  0  0  0  0  0  0  0  0
   20.5402  -20.9850  -11.6397 C   0  0  0  0  0  0  0  0  0  0  0  0
   19.9228  -21.3489  -10.3114 C   0  0  0  0  0  0  0  0  0  0  0  0
   19.1511  -22.5882  -10.4227 N   0  0  0  0  0  0  0  0  0  0  0  0
   24.6036  -20.6688  -12.1147 C   0  0  0  0  0  0  0  0  0  0  0  0
   25.2851  -21.6998  -12.4441 O   0  0  0  0  0  0  0  0  0  0  0  0
   24.9600  -20.0615  -10.9018 N   0  0  0  0  0  0  0  0  0  0  0  0
   26.0057  -20.5987  -10.0400 C   0  0  1  0  0  0  0  0  0  0  0  0
   26.6056  -19.4603   -9.2182 C   0  0  0  0  0  0  0  0  0  0  0  0
   27.7797  -19.9797   -8.4791 C   0  0  0  0  0  0  0  0  0  0  0  0
   28.7363  -20.8833   -8.9213 C   0  0  0  0  0  0  0  0  0  0  0  0
   29.6292  -21.0919   -7.9408 N   0  0  0  0  0  0  0  0  0  0  0  0
   29.2905  -20.3568   -6.8734 C   0  0  0  0  0  0  0  0  0  0  0  0
   29.8784  -20.2287   -5.6446 C   0  0  0  0  0  0  0  0  0  0  0  0
   29.3378  -19.3891   -4.6716 C   0  0  0  0  0  0  0  0  0  0  0  0
   28.1914  -18.7001   -5.0055 C   0  0  0  0  0  0  0  0  0  0  0  0
   27.5937  -18.8259   -6.2452 C   0  0  0  0  0  0  0  0  0  0  0  0
   28.1455  -19.6564   -7.1804 C   0  0  0  0  0  0  0  0  0  0  0  0
   25.5593  -21.6971   -9.1894 C   0  0  0  0  0  0  0  0  0  0  0  0
   26.2363  -22.8872   -9.1208 O   0  0  0  0  0  0  0  0  0  0  0  0
   24.5168  -21.5956   -8.4711 O   0  0  0  0  0  0  0  0  0  0  0  0
  2  1  1  6
  2  3  1  0
  4  2  1  0
  4  5  1  6
  6  4  1  0
  6  7  2  0
  8  6  1  0
  9  8  1  0
 10 11  1  0
  9 10  1  6
 12 13  1  0
 12 11  1  0
 13 14  1  0
 15 16  2  0
 15  9  1  0
 17 15  1  0
 18 17  1  0
 18 29  1  0
 18 19  1  1
 20 19  1  0
 20 21  2  0
 22 21  1  0
 23 22  1  0
 24 23  2  0
 25 24  1  0
 26 25  2  0
 26 27  1  0
 27 28  2  0
 28 23  1  0
 28 20  1  0
 29 31  2  0
 29 30  1  0
M  END
$$$$
