YMN.pdb
     RDKit          3D

 29 29  0  0  1  0  0  0  0  0999 V2000
   29.7544  -13.1561  -16.3255 O   0  0  0  0  0  0  0  0  0  0  0  0
   28.6857  -12.2770  -16.4848 C   0  0  0  0  0  0  0  0  0  0  0  0
   28.1006  -12.0433  -17.7115 C   0  0  0  0  0  0  0  0  0  0  0  0
   27.0369  -11.1652  -17.8572 C   0  0  0  0  0  0  0  0  0  0  0  0
   26.5171  -10.4855  -16.7749 C   0  0  0  0  0  0  0  0  0  0  0  0
   25.3784   -9.5334  -16.8754 C   0  0  0  0  0  0  0  0  0  0  0  0
   24.1422  -10.2693  -16.4378 C   0  0  2  0  0  0  0  0  0  0  0  0
   24.0364  -11.4774  -17.2348 N   0  0  0  0  0  0  0  0  0  0  0  0
   22.9000   -9.5044  -16.6055 C   0  0  0  0  0  0  0  0  0  0  0  0
   22.0997   -9.9117  -17.5073 O   0  0  0  0  0  0  0  0  0  0  0  0
   27.1063  -10.7229  -15.5483 C   0  0  0  0  0  0  0  0  0  0  0  0
   28.1661  -11.5975  -15.4025 C   0  0  0  0  0  0  0  0  0  0  0  0
   17.5497  -11.4463  -17.6279 C   0  0  0  0  0  0  0  0  0  0  0  0
   18.2709  -10.5209  -16.2637 S   0  0  0  0  0  0  0  0  0  0  0  0
   19.5957   -9.4153  -16.9271 C   0  0  0  0  0  0  0  0  0  0  0  0
   20.1828   -8.7362  -15.7572 C   0  0  0  0  0  0  0  0  0  0  0  0
   21.2266   -7.7018  -15.9844 C   0  0  2  0  0  0  0  0  0  0  0  0
   22.5536   -8.3627  -15.8336 N   0  0  0  0  0  0  0  0  0  0  0  0
   21.2059   -6.5246  -15.1336 C   0  0  0  0  0  0  0  0  0  0  0  0
   22.0513   -6.3761  -14.2137 O   0  0  0  0  0  0  0  0  0  0  0  0
   20.9520   -1.6784  -13.6184 N   0  0  0  0  0  0  0  0  0  0  0  0
   21.9922   -2.2730  -14.3700 C   0  0  0  0  0  0  0  0  0  0  0  0
   23.0571   -1.6473  -14.5633 O   0  0  0  0  0  0  0  0  0  0  0  0
   21.7986   -3.6168  -14.9089 C   0  0  0  0  0  0  0  0  0  0  0  0
   20.4469   -4.2292  -14.6008 C   0  0  2  0  0  0  0  0  0  0  0  0
   20.2488   -5.4933  -15.2956 N   0  0  0  0  0  0  0  0  0  0  0  0
   19.3362   -3.3352  -14.9027 C   0  0  0  0  0  0  0  0  0  0  0  0
   18.9105   -3.2040  -16.0785 O   0  0  0  0  0  0  0  0  0  0  0  0
   18.7184   -2.6054  -13.9058 O   0  0  0  0  0  0  0  0  0  0  0  0
  2 12  2  0
  2  1  1  0
  3  2  1  0
  4  5  1  0
  4  3  2  0
  5 11  2  0
  6  5  1  0
  7  6  1  0
  7  8  1  6
  9 10  2  0
  9  7  1  0
 11 12  1  0
 13 14  1  0
 14 15  1  0
 16 15  1  0
 17 16  1  1
 17 18  1  0
 18  9  1  0
 19 17  1  0
 19 26  1  0
 20 19  2  0
 21 22  1  0
 22 24  1  0
 23 22  2  0
 25 24  1  6
 25 26  1  0
 25 27  1  0
 27 29  1  0
 28 27  2  0
M  END
$$$$
