YMN.pdb
     RDKit          3D

 29 29  0  0  1  0  0  0  0  0999 V2000
   29.1621  -15.8165  -19.6762 O   0  0  0  0  0  0  0  0  0  0  0  0
   28.2987  -16.4735  -18.8027 C   0  0  0  0  0  0  0  0  0  0  0  0
   28.6286  -16.7189  -17.4863 C   0  0  0  0  0  0  0  0  0  0  0  0
   27.7600  -17.3742  -16.6262 C   0  0  0  0  0  0  0  0  0  0  0  0
   26.5230  -17.8102  -17.0543 C   0  0  0  0  0  0  0  0  0  0  0  0
   25.5540  -18.5174  -16.1745 C   0  0  0  0  0  0  0  0  0  0  0  0
   26.1607  -19.8474  -15.8219 C   0  0  2  0  0  0  0  0  0  0  0  0
   26.1940  -20.6561  -17.0264 N   0  0  0  0  0  0  0  0  0  0  0  0
   25.4179  -20.5906  -14.7963 C   0  0  0  0  0  0  0  0  0  0  0  0
   24.5390  -21.4108  -15.2141 O   0  0  0  0  0  0  0  0  0  0  0  0
   26.1969  -17.5621  -18.3735 C   0  0  0  0  0  0  0  0  0  0  0  0
   27.0618  -16.9093  -19.2309 C   0  0  0  0  0  0  0  0  0  0  0  0
   25.8730  -19.6782   -8.0337 C   0  0  0  0  0  0  0  0  0  0  0  0
   25.9295  -21.4173   -8.4919 S   0  0  0  0  0  0  0  0  0  0  0  0
   24.7900  -21.6952   -9.9208 C   0  0  0  0  0  0  0  0  0  0  0  0
   25.4664  -21.1209  -11.0986 C   0  0  0  0  0  0  0  0  0  0  0  0
   24.7718  -21.1701  -12.4125 C   0  0  2  0  0  0  0  0  0  0  0  0
   25.6235  -20.4458  -13.3976 N   0  0  0  0  0  0  0  0  0  0  0  0
   23.4277  -20.6239  -12.4856 C   0  0  0  0  0  0  0  0  0  0  0  0
   23.2299  -19.3826  -12.4312 O   0  0  0  0  0  0  0  0  0  0  0  0
   19.3143  -18.1280  -13.8961 N   0  0  0  0  0  0  0  0  0  0  0  0
   19.6857  -19.3837  -14.4307 C   0  0  0  0  0  0  0  0  0  0  0  0
   18.9005  -19.9955  -15.1872 O   0  0  0  0  0  0  0  0  0  0  0  0
   20.9897  -19.9439  -14.0847 C   0  0  0  0  0  0  0  0  0  0  0  0
   20.9880  -20.8271  -12.8531 C   0  0  2  0  0  0  0  0  0  0  0  0
   22.2848  -21.4486  -12.6249 N   0  0  0  0  0  0  0  0  0  0  0  0
   19.9606  -21.8598  -12.8962 C   0  0  0  0  0  0  0  0  0  0  0  0
   20.2505  -23.0518  -13.1715 O   0  0  0  0  0  0  0  0  0  0  0  0
   18.6376  -21.5594  -12.6358 O   0  0  0  0  0  0  0  0  0  0  0  0
  2 12  2  0
  2  1  1  0
  3  2  1  0
  4  5  1  0
  4  3  2  0
  5 11  2  0
  6  5  1  0
  7  6  1  0
  7  8  1  6
  9 10  2  0
  9  7  1  0
 11 12  1  0
 13 14  1  0
 14 15  1  0
 16 15  1  0
 17 16  1  1
 17 18  1  0
 18  9  1  0
 19 17  1  0
 19 26  1  0
 20 19  2  0
 21 22  1  0
 22 24  1  0
 23 22  2  0
 25 24  1  6
 25 26  1  0
 25 27  1  0
 27 29  1  0
 28 27  2  0
M  END
$$$$
