YMN.pdb
     RDKit          3D

 29 29  0  0  1  0  0  0  0  0999 V2000
   30.7153  -17.4875  -19.8400 O   0  0  0  0  0  0  0  0  0  0  0  0
   30.1378  -18.1978  -18.7902 C   0  0  0  0  0  0  0  0  0  0  0  0
   29.4805  -19.3946  -18.9840 C   0  0  0  0  0  0  0  0  0  0  0  0
   28.9094  -20.0925  -17.9302 C   0  0  0  0  0  0  0  0  0  0  0  0
   28.9756  -19.6157  -16.6371 C   0  0  0  0  0  0  0  0  0  0  0  0
   28.3807  -20.3233  -15.4716 C   0  0  0  0  0  0  0  0  0  0  0  0
   26.9058  -20.0299  -15.4774 C   0  0  2  0  0  0  0  0  0  0  0  0
   26.7306  -18.6177  -15.1932 N   0  0  0  0  0  0  0  0  0  0  0  0
   26.1405  -20.7918  -14.4824 C   0  0  0  0  0  0  0  0  0  0  0  0
   26.1180  -22.0557  -14.6295 O   0  0  0  0  0  0  0  0  0  0  0  0
   29.6349  -18.4167  -16.4480 C   0  0  0  0  0  0  0  0  0  0  0  0
   30.2041  -17.7209  -17.4974 C   0  0  0  0  0  0  0  0  0  0  0  0
   24.9371  -20.8625   -8.0278 C   0  0  0  0  0  0  0  0  0  0  0  0
   26.4251  -20.3142   -8.8781 S   0  0  0  0  0  0  0  0  0  0  0  0
   26.3573  -20.8929  -10.6325 C   0  0  0  0  0  0  0  0  0  0  0  0
   24.9715  -20.6663  -11.0826 C   0  0  0  0  0  0  0  0  0  0  0  0
   24.6067  -21.0345  -12.4764 C   0  0  2  0  0  0  0  0  0  0  0  0
   25.4415  -20.2069  -13.3921 N   0  0  0  0  0  0  0  0  0  0  0  0
   23.2165  -20.8872  -12.8711 C   0  0  0  0  0  0  0  0  0  0  0  0
   22.7453  -19.7601  -13.1719 O   0  0  0  0  0  0  0  0  0  0  0  0
   18.9787  -21.7779  -16.2086 N   0  0  0  0  0  0  0  0  0  0  0  0
   19.2935  -22.6021  -15.1030 C   0  0  0  0  0  0  0  0  0  0  0  0
   18.3920  -23.2608  -14.5406 O   0  0  0  0  0  0  0  0  0  0  0  0
   20.6767  -22.6667  -14.6379 C   0  0  0  0  0  0  0  0  0  0  0  0
   20.9811  -21.7825  -13.4452 C   0  0  2  0  0  0  0  0  0  0  0  0
   22.3313  -21.9905  -12.9416 N   0  0  0  0  0  0  0  0  0  0  0  0
   20.0294  -21.9527  -12.3546 C   0  0  0  0  0  0  0  0  0  0  0  0
   20.2867  -22.7055  -11.3810 O   0  0  0  0  0  0  0  0  0  0  0  0
   18.8164  -21.2918  -12.3584 O   0  0  0  0  0  0  0  0  0  0  0  0
  2 12  2  0
  2  1  1  0
  3  2  1  0
  4  5  1  0
  4  3  2  0
  5 11  2  0
  6  5  1  0
  7  6  1  0
  7  8  1  1
  9 10  2  0
  9  7  1  0
 11 12  1  0
 13 14  1  0
 14 15  1  0
 16 15  1  0
 17 16  1  1
 17 18  1  0
 18  9  1  0
 19 17  1  0
 19 26  1  0
 20 19  2  0
 21 22  1  0
 22 24  1  0
 23 22  2  0
 25 24  1  6
 25 26  1  0
 25 27  1  0
 27 29  1  0
 28 27  2  0
M  END
$$$$
