YMN.pdb
     RDKit          3D

 29 29  0  0  1  0  0  0  0  0999 V2000
   28.4217  -13.6326  -17.2741 O   0  0  0  0  0  0  0  0  0  0  0  0
   27.8370  -14.7283  -16.6434 C   0  0  0  0  0  0  0  0  0  0  0  0
   27.2927  -15.7807  -17.3492 C   0  0  0  0  0  0  0  0  0  0  0  0
   26.7131  -16.8663  -16.7093 C   0  0  0  0  0  0  0  0  0  0  0  0
   26.6567  -16.9387  -15.3327 C   0  0  0  0  0  0  0  0  0  0  0  0
   26.0470  -18.0786  -14.5965 C   0  0  0  0  0  0  0  0  0  0  0  0
   27.1713  -18.8608  -13.9759 C   0  0  2  0  0  0  0  0  0  0  0  0
   27.9273  -19.4822  -15.0475 N   0  0  0  0  0  0  0  0  0  0  0  0
   26.7290  -19.9192  -13.0592 C   0  0  0  0  0  0  0  0  0  0  0  0
   26.4735  -21.0517  -13.5804 O   0  0  0  0  0  0  0  0  0  0  0  0
   27.2032  -15.8823  -14.6301 C   0  0  0  0  0  0  0  0  0  0  0  0
   27.7807  -14.8005  -15.2669 C   0  0  0  0  0  0  0  0  0  0  0  0
   27.7569  -19.7223   -7.1132 C   0  0  0  0  0  0  0  0  0  0  0  0
   26.3650  -20.8073   -6.7625 S   0  0  0  0  0  0  0  0  0  0  0  0
   25.6188  -21.3565   -8.3622 C   0  0  0  0  0  0  0  0  0  0  0  0
   26.2159  -20.5014   -9.4047 C   0  0  0  0  0  0  0  0  0  0  0  0
   25.8759  -20.7708  -10.8271 C   0  0  2  0  0  0  0  0  0  0  0  0
   26.5751  -19.7495  -11.6567 N   0  0  0  0  0  0  0  0  0  0  0  0
   24.4710  -20.7718  -11.1961 C   0  0  0  0  0  0  0  0  0  0  0  0
   23.7114  -19.8291  -10.8535 O   0  0  0  0  0  0  0  0  0  0  0  0
   19.7092  -22.3006  -11.5268 N   0  0  0  0  0  0  0  0  0  0  0  0
   20.4676  -22.0255  -10.3650 C   0  0  0  0  0  0  0  0  0  0  0  0
   19.8944  -21.9095   -9.2600 O   0  0  0  0  0  0  0  0  0  0  0  0
   21.9165  -21.8816  -10.4818 C   0  0  0  0  0  0  0  0  0  0  0  0
   22.4505  -22.0208  -11.8934 C   0  0  2  0  0  0  0  0  0  0  0  0
   23.8910  -21.8175  -11.9550 N   0  0  0  0  0  0  0  0  0  0  0  0
   21.7974  -21.1240  -12.8386 C   0  0  0  0  0  0  0  0  0  0  0  0
   21.6448  -19.9040  -12.5756 O   0  0  0  0  0  0  0  0  0  0  0  0
   21.3268  -21.5881  -14.0516 O   0  0  0  0  0  0  0  0  0  0  0  0
  2 12  2  0
  2  1  1  0
  3  2  1  0
  4  5  1  0
  4  3  2  0
  5 11  2  0
  6  5  1  0
  7  6  1  0
  7  8  1  6
  9 10  2  0
  9  7  1  0
 11 12  1  0
 13 14  1  0
 14 15  1  0
 16 15  1  0
 17 16  1  1
 17 18  1  0
 18  9  1  0
 19 17  1  0
 19 26  1  0
 20 19  2  0
 21 22  1  0
 22 24  1  0
 23 22  2  0
 25 24  1  1
 25 26  1  0
 25 27  1  0
 27 29  1  0
 28 27  2  0
M  END
$$$$
