YMN.pdb
     RDKit          3D

 29 29  0  0  1  0  0  0  0  0999 V2000
   28.3930  -19.3472  -21.9798 O   0  0  0  0  0  0  0  0  0  0  0  0
   27.5180  -19.6918  -20.9523 C   0  0  0  0  0  0  0  0  0  0  0  0
   27.6316  -19.1687  -19.6813 C   0  0  0  0  0  0  0  0  0  0  0  0
   26.7538  -19.5200  -18.6665 C   0  0  0  0  0  0  0  0  0  0  0  0
   25.7249  -20.4121  -18.8877 C   0  0  0  0  0  0  0  0  0  0  0  0
   24.7564  -20.8229  -17.8358 C   0  0  0  0  0  0  0  0  0  0  0  0
   25.4822  -21.7482  -16.8986 C   0  0  2  0  0  0  0  0  0  0  0  0
   25.3544  -23.0979  -17.4161 N   0  0  0  0  0  0  0  0  0  0  0  0
   24.9623  -21.7372  -15.5254 C   0  0  0  0  0  0  0  0  0  0  0  0
   23.9390  -22.4593  -15.2998 O   0  0  0  0  0  0  0  0  0  0  0  0
   25.6151  -20.9333  -20.1622 C   0  0  0  0  0  0  0  0  0  0  0  0
   26.4892  -20.5839  -21.1737 C   0  0  0  0  0  0  0  0  0  0  0  0
   24.1312  -21.2677   -8.3864 C   0  0  0  0  0  0  0  0  0  0  0  0
   24.7103  -21.6359  -10.0496 S   0  0  0  0  0  0  0  0  0  0  0  0
   25.4266  -20.0990  -10.7860 C   0  0  0  0  0  0  0  0  0  0  0  0
   25.8723  -20.4672  -12.1426 C   0  0  0  0  0  0  0  0  0  0  0  0
   24.8503  -20.8849  -13.1387 C   0  0  2  0  0  0  0  0  0  0  0  0
   25.5273  -20.9819  -14.4625 N   0  0  0  0  0  0  0  0  0  0  0  0
   23.6739  -20.0462  -13.2902 C   0  0  0  0  0  0  0  0  0  0  0  0
   23.6124  -19.1757  -14.1964 O   0  0  0  0  0  0  0  0  0  0  0  0
   19.2221  -17.8868  -13.9462 N   0  0  0  0  0  0  0  0  0  0  0  0
   20.0637  -18.6080  -14.8249 C   0  0  0  0  0  0  0  0  0  0  0  0
   19.7209  -18.7797  -16.0149 O   0  0  0  0  0  0  0  0  0  0  0  0
   21.3261  -19.1413  -14.3193 C   0  0  0  0  0  0  0  0  0  0  0  0
   21.2433  -19.7434  -12.9309 C   0  0  2  0  0  0  0  0  0  0  0  0
   22.5475  -20.1659  -12.4402 N   0  0  0  0  0  0  0  0  0  0  0  0
   20.3139  -20.8632  -12.8521 C   0  0  0  0  0  0  0  0  0  0  0  0
   20.3655  -21.8083  -13.6797 O   0  0  0  0  0  0  0  0  0  0  0  0
   19.3486  -20.9193  -11.8655 O   0  0  0  0  0  0  0  0  0  0  0  0
  2 12  2  0
  2  1  1  0
  3  2  1  0
  4  5  1  0
  4  3  2  0
  5 11  2  0
  6  5  1  0
  7  6  1  0
  7  8  1  6
  9 10  2  0
  9  7  1  0
 11 12  1  0
 13 14  1  0
 14 15  1  0
 16 15  1  0
 17 16  1  1
 17 18  1  0
 18  9  1  0
 19 17  1  0
 19 26  1  0
 20 19  2  0
 21 22  1  0
 22 24  1  0
 23 22  2  0
 25 24  1  6
 25 26  1  0
 25 27  1  0
 27 29  1  0
 28 27  2  0
M  END
$$$$
