YMN.pdb
     RDKit          3D

 29 29  0  0  1  0  0  0  0  0999 V2000
   29.0259  -13.8483  -17.7382 O   0  0  0  0  0  0  0  0  0  0  0  0
   28.2439  -14.9047  -17.2772 C   0  0  0  0  0  0  0  0  0  0  0  0
   27.5989  -15.7723  -18.1335 C   0  0  0  0  0  0  0  0  0  0  0  0
   26.8228  -16.8207  -17.6620 C   0  0  0  0  0  0  0  0  0  0  0  0
   26.6630  -17.0404  -16.3093 C   0  0  0  0  0  0  0  0  0  0  0  0
   25.8426  -18.1484  -15.7505 C   0  0  0  0  0  0  0  0  0  0  0  0
   26.7941  -19.1632  -15.1793 C   0  0  2  0  0  0  0  0  0  0  0  0
   27.4165  -19.8644  -16.2870 N   0  0  0  0  0  0  0  0  0  0  0  0
   26.1548  -20.1607  -14.3120 C   0  0  0  0  0  0  0  0  0  0  0  0
   25.6892  -21.1970  -14.8856 O   0  0  0  0  0  0  0  0  0  0  0  0
   27.3110  -16.1689  -15.4556 C   0  0  0  0  0  0  0  0  0  0  0  0
   28.0843  -15.1242  -15.9247 C   0  0  0  0  0  0  0  0  0  0  0  0
   25.9698  -19.4073   -8.0076 C   0  0  0  0  0  0  0  0  0  0  0  0
   25.5744  -21.1623   -8.0434 S   0  0  0  0  0  0  0  0  0  0  0  0
   24.7927  -21.5647   -9.6695 C   0  0  0  0  0  0  0  0  0  0  0  0
   25.5822  -20.8491  -10.6889 C   0  0  0  0  0  0  0  0  0  0  0  0
   25.1732  -20.9616  -12.1142 C   0  0  2  0  0  0  0  0  0  0  0  0
   26.0319  -20.0331  -12.9020 N   0  0  0  0  0  0  0  0  0  0  0  0
   23.7852  -20.6849  -12.4414 C   0  0  0  0  0  0  0  0  0  0  0  0
   23.3986  -19.5120  -12.6816 O   0  0  0  0  0  0  0  0  0  0  0  0
   18.7962  -21.0745  -13.6843 N   0  0  0  0  0  0  0  0  0  0  0  0
   19.6330  -21.8075  -14.5580 C   0  0  0  0  0  0  0  0  0  0  0  0
   19.1750  -22.2499  -15.6338 O   0  0  0  0  0  0  0  0  0  0  0  0
   21.0261  -22.0338  -14.1815 C   0  0  0  0  0  0  0  0  0  0  0  0
   21.4462  -21.3599  -12.8906 C   0  0  2  0  0  0  0  0  0  0  0  0
   22.8081  -21.7078  -12.5110 N   0  0  0  0  0  0  0  0  0  0  0  0
   20.5482  -21.6503  -11.7801 C   0  0  0  0  0  0  0  0  0  0  0  0
   20.8040  -22.5710  -10.9630 O   0  0  0  0  0  0  0  0  0  0  0  0
   19.3893  -20.9224  -11.5925 O   0  0  0  0  0  0  0  0  0  0  0  0
  2 12  2  0
  2  1  1  0
  3  2  1  0
  4  5  1  0
  4  3  2  0
  5 11  2  0
  6  5  1  0
  7  6  1  0
  7  8  1  6
  9 10  2  0
  9  7  1  0
 11 12  1  0
 13 14  1  0
 14 15  1  0
 16 15  1  0
 17 16  1  1
 17 18  1  0
 18  9  1  0
 19 17  1  0
 19 26  1  0
 20 19  2  0
 21 22  1  0
 22 24  1  0
 23 22  2  0
 25 24  1  6
 25 26  1  0
 25 27  1  0
 27 29  1  0
 28 27  2  0
M  END
$$$$
