YMN.pdb
     RDKit          3D

 29 29  0  0  1  0  0  0  0  0999 V2000
   28.2843  -21.3185  -23.3100 O   0  0  0  0  0  0  0  0  0  0  0  0
   27.8372  -20.6821  -22.1545 C   0  0  0  0  0  0  0  0  0  0  0  0
   28.2628  -19.4200  -21.7969 C   0  0  0  0  0  0  0  0  0  0  0  0
   27.8102  -18.7968  -20.6434 C   0  0  0  0  0  0  0  0  0  0  0  0
   26.9105  -19.4172  -19.8012 C   0  0  0  0  0  0  0  0  0  0  0  0
   26.3934  -18.7947  -18.5529 C   0  0  0  0  0  0  0  0  0  0  0  0
   24.9551  -18.4314  -18.7987 C   0  0  2  0  0  0  0  0  0  0  0  0
   24.9308  -17.2088  -19.5801 N   0  0  0  0  0  0  0  0  0  0  0  0
   24.1781  -18.2030  -17.5738 C   0  0  0  0  0  0  0  0  0  0  0  0
   24.3648  -17.0919  -16.9819 O   0  0  0  0  0  0  0  0  0  0  0  0
   26.4871  -20.6811  -20.1636 C   0  0  0  0  0  0  0  0  0  0  0  0
   26.9376  -21.3025  -21.3126 C   0  0  0  0  0  0  0  0  0  0  0  0
   17.4043  -16.7882  -15.0685 C   0  0  0  0  0  0  0  0  0  0  0  0
   18.4904  -17.8617  -16.0201 S   0  0  0  0  0  0  0  0  0  0  0  0
   20.2289  -17.6154  -15.4419 C   0  0  0  0  0  0  0  0  0  0  0  0
   21.0628  -18.5087  -16.2672 C   0  0  0  0  0  0  0  0  0  0  0  0
   22.4490  -18.8046  -15.8178 C   0  0  2  0  0  0  0  0  0  0  0  0
   23.2527  -19.1335  -17.0287 N   0  0  0  0  0  0  0  0  0  0  0  0
   22.6305  -19.8713  -14.8485 C   0  0  0  0  0  0  0  0  0  0  0  0
   22.5867  -21.0787  -15.1994 O   0  0  0  0  0  0  0  0  0  0  0  0
   25.1399  -22.4729  -11.9256 N   0  0  0  0  0  0  0  0  0  0  0  0
   25.0460  -21.2988  -11.1424 C   0  0  0  0  0  0  0  0  0  0  0  0
   25.8921  -21.0765  -10.2493 O   0  0  0  0  0  0  0  0  0  0  0  0
   23.9533  -20.3630  -11.3958 C   0  0  0  0  0  0  0  0  0  0  0  0
   23.0682  -20.7327  -12.5693 C   0  0  2  0  0  0  0  0  0  0  0  0
   22.8678  -19.6117  -13.4766 N   0  0  0  0  0  0  0  0  0  0  0  0
   21.7718  -21.2575  -12.1596 C   0  0  0  0  0  0  0  0  0  0  0  0
   20.7176  -20.5972  -12.3427 O   0  0  0  0  0  0  0  0  0  0  0  0
   21.6629  -22.4962  -11.5580 O   0  0  0  0  0  0  0  0  0  0  0  0
  2 12  2  0
  2  1  1  0
  3  2  1  0
  4  5  1  0
  4  3  2  0
  5 11  2  0
  6  5  1  0
  7  6  1  0
  7  8  1  6
  9 10  2  0
  9  7  1  0
 11 12  1  0
 13 14  1  0
 14 15  1  0
 16 15  1  0
 17 16  1  6
 17 18  1  0
 18  9  1  0
 19 17  1  0
 19 26  1  0
 20 19  2  0
 21 22  1  0
 22 24  1  0
 23 22  2  0
 25 24  1  1
 25 26  1  0
 25 27  1  0
 27 29  1  0
 28 27  2  0
M  END
$$$$
