YMN.pdb
     RDKit          3D

 29 29  0  0  1  0  0  0  0  0999 V2000
   24.7107  -13.2502  -19.6561 O   0  0  0  0  0  0  0  0  0  0  0  0
   24.2515  -14.4101  -19.0364 C   0  0  0  0  0  0  0  0  0  0  0  0
   23.7628  -15.4834  -19.7514 C   0  0  0  0  0  0  0  0  0  0  0  0
   23.3082  -16.6330  -19.1225 C   0  0  0  0  0  0  0  0  0  0  0  0
   23.3262  -16.7511  -17.7480 C   0  0  0  0  0  0  0  0  0  0  0  0
   22.8510  -17.9603  -17.0233 C   0  0  0  0  0  0  0  0  0  0  0  0
   24.0578  -18.6161  -16.4112 C   0  0  2  0  0  0  0  0  0  0  0  0
   24.8791  -19.1347  -17.4894 N   0  0  0  0  0  0  0  0  0  0  0  0
   23.7400  -19.7285  -15.5070 C   0  0  0  0  0  0  0  0  0  0  0  0
   23.3531  -20.8111  -16.0527 O   0  0  0  0  0  0  0  0  0  0  0  0
   23.8166  -15.6737  -17.0362 C   0  0  0  0  0  0  0  0  0  0  0  0
   24.2696  -14.5281  -17.6621 C   0  0  0  0  0  0  0  0  0  0  0  0
   25.9115  -19.7881   -9.8914 C   0  0  0  0  0  0  0  0  0  0  0  0
   24.8396  -21.1503   -9.4087 S   0  0  0  0  0  0  0  0  0  0  0  0
   23.6891  -21.5281  -10.8055 C   0  0  0  0  0  0  0  0  0  0  0  0
   24.0953  -20.6480  -11.9168 C   0  0  0  0  0  0  0  0  0  0  0  0
   23.4193  -20.8043  -13.2320 C   0  0  2  0  0  0  0  0  0  0  0  0
   23.8392  -19.6613  -14.0909 N   0  0  0  0  0  0  0  0  0  0  0  0
   21.9682  -20.8703  -13.2408 C   0  0  0  0  0  0  0  0  0  0  0  0
   21.2724  -19.8295  -13.1157 O   0  0  0  0  0  0  0  0  0  0  0  0
   17.0946  -22.9538  -15.8616 N   0  0  0  0  0  0  0  0  0  0  0  0
   17.7616  -22.7743  -14.6273 C   0  0  0  0  0  0  0  0  0  0  0  0
   17.1002  -22.6646  -13.5721 O   0  0  0  0  0  0  0  0  0  0  0  0
   19.2213  -22.7204  -14.6115 C   0  0  0  0  0  0  0  0  0  0  0  0
   19.8136  -22.0825  -13.3708 C   0  0  2  0  0  0  0  0  0  0  0  0
   21.2694  -22.0927  -13.3935 N   0  0  0  0  0  0  0  0  0  0  0  0
   19.3475  -22.7013  -12.1364 C   0  0  0  0  0  0  0  0  0  0  0  0
   19.9947  -23.6321  -11.5929 O   0  0  0  0  0  0  0  0  0  0  0  0
   18.1805  -22.2831  -11.5269 O   0  0  0  0  0  0  0  0  0  0  0  0
  2 12  2  0
  2  1  1  0
  3  2  1  0
  4  5  1  0
  4  3  2  0
  5 11  2  0
  6  5  1  0
  7  6  1  0
  7  8  1  6
  9 10  2  0
  9  7  1  0
 11 12  1  0
 13 14  1  0
 14 15  1  0
 16 15  1  0
 17 16  1  1
 17 18  1  0
 18  9  1  0
 19 17  1  0
 19 26  1  0
 20 19  2  0
 21 22  1  0
 22 24  1  0
 23 22  2  0
 25 24  1  6
 25 26  1  0
 25 27  1  0
 27 29  1  0
 28 27  2  0
M  END
$$$$
