YMN.pdb
     RDKit          3D

 29 29  0  0  1  0  0  0  0  0999 V2000
   28.7170  -16.1837  -18.0559 O   0  0  0  0  0  0  0  0  0  0  0  0
   28.1074  -16.9170  -17.0406 C   0  0  0  0  0  0  0  0  0  0  0  0
   28.2104  -16.5624  -15.7119 C   0  0  0  0  0  0  0  0  0  0  0  0
   27.5987  -17.3011  -14.7099 C   0  0  0  0  0  0  0  0  0  0  0  0
   26.8576  -18.4274  -15.0026 C   0  0  0  0  0  0  0  0  0  0  0  0
   26.1816  -19.2551  -13.9677 C   0  0  0  0  0  0  0  0  0  0  0  0
   27.2469  -20.0572  -13.2727 C   0  0  2  0  0  0  0  0  0  0  0  0
   27.6797  -21.1045  -14.1792 N   0  0  0  0  0  0  0  0  0  0  0  0
   26.8002  -20.6916  -12.0260 C   0  0  0  0  0  0  0  0  0  0  0  0
   26.3081  -21.8607  -12.1284 O   0  0  0  0  0  0  0  0  0  0  0  0
   26.7573  -18.7787  -16.3348 C   0  0  0  0  0  0  0  0  0  0  0  0
   27.3665  -18.0432  -17.3335 C   0  0  0  0  0  0  0  0  0  0  0  0
   26.9643  -19.9309   -4.3062 C   0  0  0  0  0  0  0  0  0  0  0  0
   27.3413  -19.5335   -6.0201 S   0  0  0  0  0  0  0  0  0  0  0  0
   26.9310  -20.9947   -7.0756 C   0  0  0  0  0  0  0  0  0  0  0  0
   27.3284  -20.6299   -8.4480 C   0  0  0  0  0  0  0  0  0  0  0  0
   26.3210  -20.7472   -9.5355 C   0  0  2  0  0  0  0  0  0  0  0  0
   26.8864  -20.0841  -10.7442 N   0  0  0  0  0  0  0  0  0  0  0  0
   24.9987  -20.1972   -9.2921 C   0  0  0  0  0  0  0  0  0  0  0  0
   24.7234  -19.0108   -9.6073 O   0  0  0  0  0  0  0  0  0  0  0  0
   20.4944  -19.7108  -11.3836 N   0  0  0  0  0  0  0  0  0  0  0  0
   21.0948  -20.9719  -11.1606 C   0  0  0  0  0  0  0  0  0  0  0  0
   20.4524  -22.0181  -11.3966 O   0  0  0  0  0  0  0  0  0  0  0  0
   22.4643  -21.0256  -10.6550 C   0  0  0  0  0  0  0  0  0  0  0  0
   22.5951  -20.7761   -9.1658 C   0  0  2  0  0  0  0  0  0  0  0  0
   23.9622  -20.9590   -8.6994 N   0  0  0  0  0  0  0  0  0  0  0  0
   21.7002  -21.6067   -8.3701 C   0  0  0  0  0  0  0  0  0  0  0  0
   22.0940  -22.6923   -7.8728 O   0  0  0  0  0  0  0  0  0  0  0  0
   20.3927  -21.2258   -8.1387 O   0  0  0  0  0  0  0  0  0  0  0  0
  2 12  2  0
  2  1  1  0
  3  2  1  0
  4  5  1  0
  4  3  2  0
  5 11  2  0
  6  5  1  0
  7  6  1  0
  7  8  1  6
  9 10  2  0
  9  7  1  0
 11 12  1  0
 13 14  1  0
 14 15  1  0
 16 15  1  0
 17 16  1  1
 17 18  1  0
 18  9  1  0
 19 17  1  0
 19 26  1  0
 20 19  2  0
 21 22  1  0
 22 24  1  0
 23 22  2  0
 25 24  1  6
 25 26  1  0
 25 27  1  0
 27 29  1  0
 28 27  2  0
M  END
$$$$
