YMN.pdb
     RDKit          3D

 29 29  0  0  1  0  0  0  0  0999 V2000
   25.9520  -17.0820  -18.7567 O   0  0  0  0  0  0  0  0  0  0  0  0
   25.5432  -17.8887  -17.6973 C   0  0  0  0  0  0  0  0  0  0  0  0
   25.0105  -17.3673  -16.5370 C   0  0  0  0  0  0  0  0  0  0  0  0
   24.6072  -18.1813  -15.4889 C   0  0  0  0  0  0  0  0  0  0  0  0
   24.7228  -19.5541  -15.5641 C   0  0  0  0  0  0  0  0  0  0  0  0
   24.3063  -20.4724  -14.4703 C   0  0  0  0  0  0  0  0  0  0  0  0
   25.3271  -20.3504  -13.3729 C   0  0  2  0  0  0  0  0  0  0  0  0
   26.5514  -20.9812  -13.8301 N   0  0  0  0  0  0  0  0  0  0  0  0
   24.9298  -20.9903  -12.1125 C   0  0  0  0  0  0  0  0  0  0  0  0
   25.3456  -22.1781  -11.9229 O   0  0  0  0  0  0  0  0  0  0  0  0
   25.2569  -20.0717  -16.7281 C   0  0  0  0  0  0  0  0  0  0  0  0
   25.6589  -19.2613  -17.7726 C   0  0  0  0  0  0  0  0  0  0  0  0
   26.0174  -20.1959   -5.8183 C   0  0  0  0  0  0  0  0  0  0  0  0
   26.6514  -19.5048   -7.3539 S   0  0  0  0  0  0  0  0  0  0  0  0
   26.0444  -20.5320   -8.7659 C   0  0  0  0  0  0  0  0  0  0  0  0
   24.5754  -20.4040   -8.7604 C   0  0  0  0  0  0  0  0  0  0  0  0
   23.7993  -21.0655   -9.8427 C   0  0  2  0  0  0  0  0  0  0  0  0
   24.1259  -20.3691  -11.1189 N   0  0  0  0  0  0  0  0  0  0  0  0
   22.3538  -21.1094   -9.7060 C   0  0  0  0  0  0  0  0  0  0  0  0
   21.6651  -20.0588   -9.7757 O   0  0  0  0  0  0  0  0  0  0  0  0
   19.4442  -23.4827   -5.7910 N   0  0  0  0  0  0  0  0  0  0  0  0
   20.0724  -23.3547   -7.0519 C   0  0  0  0  0  0  0  0  0  0  0  0
   20.8245  -24.2625   -7.4680 O   0  0  0  0  0  0  0  0  0  0  0  0
   19.8270  -22.1546   -7.8477 C   0  0  0  0  0  0  0  0  0  0  0  0
   20.2089  -22.2800   -9.3090 C   0  0  2  0  0  0  0  0  0  0  0  0
   21.6525  -22.3215   -9.4946 N   0  0  0  0  0  0  0  0  0  0  0  0
   19.6480  -21.2189  -10.1356 C   0  0  0  0  0  0  0  0  0  0  0  0
   18.9154  -21.4842  -11.1224 O   0  0  0  0  0  0  0  0  0  0  0  0
   19.9048  -19.8900   -9.8594 O   0  0  0  0  0  0  0  0  0  0  0  0
  2 12  2  0
  2  1  1  0
  3  2  1  0
  4  5  1  0
  4  3  2  0
  5 11  2  0
  6  5  1  0
  7  6  1  0
  7  8  1  6
  9 10  2  0
  9  7  1  0
 11 12  1  0
 13 14  1  0
 14 15  1  0
 16 15  1  0
 17 16  1  1
 17 18  1  0
 18  9  1  0
 19 17  1  0
 19 26  1  0
 20 19  2  0
 21 22  1  0
 22 24  1  0
 23 22  2  0
 25 24  1  1
 25 26  1  0
 25 27  1  0
 27 29  1  0
 28 27  2  0
M  END
$$$$
