YMN.pdb
     RDKit          3D

 29 29  0  0  1  0  0  0  0  0999 V2000
   26.5522  -12.3139  -17.2385 O   0  0  0  0  0  0  0  0  0  0  0  0
   26.2901  -13.5969  -16.7639 C   0  0  0  0  0  0  0  0  0  0  0  0
   26.5168  -13.9579  -15.4523 C   0  0  0  0  0  0  0  0  0  0  0  0
   26.2517  -15.2391  -14.9917 C   0  0  0  0  0  0  0  0  0  0  0  0
   25.7475  -16.2109  -15.8313 C   0  0  0  0  0  0  0  0  0  0  0  0
   25.4459  -17.5991  -15.3896 C   0  0  0  0  0  0  0  0  0  0  0  0
   26.6456  -18.0962  -14.6314 C   0  0  2  0  0  0  0  0  0  0  0  0
   27.7777  -18.0984  -15.5393 N   0  0  0  0  0  0  0  0  0  0  0  0
   26.4926  -19.4536  -14.0929 C   0  0  0  0  0  0  0  0  0  0  0  0
   27.0794  -20.3865  -14.7292 O   0  0  0  0  0  0  0  0  0  0  0  0
   25.5220  -15.8447  -17.1440 C   0  0  0  0  0  0  0  0  0  0  0  0
   25.7859  -14.5685  -17.6034 C   0  0  0  0  0  0  0  0  0  0  0  0
   24.9653  -20.8656   -8.0970 C   0  0  0  0  0  0  0  0  0  0  0  0
   26.7421  -20.7473   -8.3551 S   0  0  0  0  0  0  0  0  0  0  0  0
   27.1084  -21.0665  -10.1387 C   0  0  0  0  0  0  0  0  0  0  0  0
   25.8178  -20.9624  -10.8444 C   0  0  0  0  0  0  0  0  0  0  0  0
   25.7986  -21.1318  -12.3216 C   0  0  2  0  0  0  0  0  0  0  0  0
   25.7428  -19.7720  -12.9284 N   0  0  0  0  0  0  0  0  0  0  0  0
   24.7288  -21.9296  -12.8951 C   0  0  0  0  0  0  0  0  0  0  0  0
   24.4817  -23.0857  -12.4647 O   0  0  0  0  0  0  0  0  0  0  0  0
   19.8862  -22.2879  -12.0771 N   0  0  0  0  0  0  0  0  0  0  0  0
   20.5509  -21.0549  -12.2740 C   0  0  0  0  0  0  0  0  0  0  0  0
   19.8959  -19.9902  -12.2927 O   0  0  0  0  0  0  0  0  0  0  0  0
   22.0006  -21.0518  -12.4529 C   0  0  0  0  0  0  0  0  0  0  0  0
   22.4671  -21.5225  -13.8159 C   0  0  2  0  0  0  0  0  0  0  0  0
   23.9151  -21.4527  -13.9517 N   0  0  0  0  0  0  0  0  0  0  0  0
   21.8454  -20.7913  -14.9127 C   0  0  0  0  0  0  0  0  0  0  0  0
   22.4984  -19.9548  -15.5869 O   0  0  0  0  0  0  0  0  0  0  0  0
   20.5200  -20.9958  -15.2438 O   0  0  0  0  0  0  0  0  0  0  0  0
  2 12  2  0
  2  1  1  0
  3  2  1  0
  4  5  1  0
  4  3  2  0
  5 11  2  0
  6  5  1  0
  7  6  1  0
  7  8  1  6
  9 10  2  0
  9  7  1  0
 11 12  1  0
 13 14  1  0
 14 15  1  0
 16 15  1  0
 17 16  1  1
 17 18  1  0
 18  9  1  0
 19 17  1  0
 19 26  1  0
 20 19  2  0
 21 22  1  0
 22 24  1  0
 23 22  2  0
 25 24  1  1
 25 26  1  0
 25 27  1  0
 27 29  1  0
 28 27  2  0
M  END
$$$$
