YMN.pdb
     RDKit          3D

 29 29  0  0  1  0  0  0  0  0999 V2000
   28.1740  -20.4493   -6.1249 O   0  0  0  0  0  0  0  0  0  0  0  0
   27.6516  -20.4137   -7.4157 C   0  0  0  0  0  0  0  0  0  0  0  0
   28.3411  -19.8611   -8.4745 C   0  0  0  0  0  0  0  0  0  0  0  0
   27.8100  -19.8316   -9.7555 C   0  0  0  0  0  0  0  0  0  0  0  0
   26.5630  -20.3568  -10.0250 C   0  0  0  0  0  0  0  0  0  0  0  0
   25.9468  -20.3511  -11.3790 C   0  0  0  0  0  0  0  0  0  0  0  0
   26.4849  -21.5447  -12.1186 C   0  0  2  0  0  0  0  0  0  0  0  0
   27.8758  -21.2819  -12.4382 N   0  0  0  0  0  0  0  0  0  0  0  0
   25.7789  -21.8401  -13.3718 C   0  0  0  0  0  0  0  0  0  0  0  0
   25.9885  -21.0445  -14.3427 O   0  0  0  0  0  0  0  0  0  0  0  0
   25.8762  -20.9093   -8.9613 C   0  0  0  0  0  0  0  0  0  0  0  0
   26.4048  -20.9389   -7.6850 C   0  0  0  0  0  0  0  0  0  0  0  0
   24.2825  -27.2526  -15.4022 C   0  0  0  0  0  0  0  0  0  0  0  0
   23.5409  -26.4682  -16.8418 S   0  0  0  0  0  0  0  0  0  0  0  0
   23.1916  -24.6973  -16.4428 C   0  0  0  0  0  0  0  0  0  0  0  0
   24.0490  -24.3629  -15.2906 C   0  0  0  0  0  0  0  0  0  0  0  0
   23.9609  -22.9964  -14.7109 C   0  0  2  0  0  0  0  0  0  0  0  0
   24.8966  -22.9392  -13.5526 N   0  0  0  0  0  0  0  0  0  0  0  0
   22.6574  -22.5356  -14.2653 C   0  0  0  0  0  0  0  0  0  0  0  0
   22.5281  -21.9099  -13.1815 O   0  0  0  0  0  0  0  0  0  0  0  0
   18.4485  -19.8175  -15.1930 N   0  0  0  0  0  0  0  0  0  0  0  0
   19.7844  -19.4040  -15.4056 C   0  0  0  0  0  0  0  0  0  0  0  0
   20.0352  -18.2003  -15.6321 O   0  0  0  0  0  0  0  0  0  0  0  0
   20.8515  -20.4003  -15.3556 C   0  0  0  0  0  0  0  0  0  0  0  0
   20.3980  -21.7874  -14.9464 C   0  0  2  0  0  0  0  0  0  0  0  0
   21.4797  -22.7593  -15.0196 N   0  0  0  0  0  0  0  0  0  0  0  0
   19.2657  -22.2682  -15.7280 C   0  0  0  0  0  0  0  0  0  0  0  0
   18.0875  -21.9495  -15.4264 O   0  0  0  0  0  0  0  0  0  0  0  0
   19.4537  -23.0885  -16.8234 O   0  0  0  0  0  0  0  0  0  0  0  0
  2 12  2  0
  2  1  1  0
  3  2  1  0
  4  5  1  0
  4  3  2  0
  5 11  2  0
  6  5  1  0
  7  6  1  0
  7  8  1  6
  9 10  2  0
  9  7  1  0
 11 12  1  0
 13 14  1  0
 14 15  1  0
 16 15  1  0
 17 16  1  1
 17 18  1  0
 18  9  1  0
 19 17  1  0
 19 26  1  0
 20 19  2  0
 21 22  1  0
 22 24  1  0
 23 22  2  0
 25 24  1  6
 25 26  1  0
 25 27  1  0
 27 29  1  0
 28 27  2  0
M  END
$$$$
