YMN.pdb
     RDKit          3D

 29 29  0  0  1  0  0  0  0  0999 V2000
   28.9244  -16.1349  -18.0973 O   0  0  0  0  0  0  0  0  0  0  0  0
   28.2631  -16.9277  -17.1623 C   0  0  0  0  0  0  0  0  0  0  0  0
   28.2185  -16.6045  -15.8223 C   0  0  0  0  0  0  0  0  0  0  0  0
   27.5566  -17.4024  -14.9008 C   0  0  0  0  0  0  0  0  0  0  0  0
   26.9119  -18.5589  -15.2887 C   0  0  0  0  0  0  0  0  0  0  0  0
   26.1881  -19.4500  -14.3426 C   0  0  0  0  0  0  0  0  0  0  0  0
   27.2252  -20.1614  -13.5183 C   0  0  2  0  0  0  0  0  0  0  0  0
   27.8848  -21.1321  -14.3719 N   0  0  0  0  0  0  0  0  0  0  0  0
   26.6799  -20.8747  -12.3565 C   0  0  0  0  0  0  0  0  0  0  0  0
   26.2452  -22.0524  -12.5659 O   0  0  0  0  0  0  0  0  0  0  0  0
   26.9593  -18.8785  -16.6317 C   0  0  0  0  0  0  0  0  0  0  0  0
   27.6185  -18.0840  -17.5502 C   0  0  0  0  0  0  0  0  0  0  0  0
   28.7630  -20.0899   -5.6929 C   0  0  0  0  0  0  0  0  0  0  0  0
   27.2311  -19.6535   -6.5299 S   0  0  0  0  0  0  0  0  0  0  0  0
   27.1275  -20.5982   -8.1154 C   0  0  0  0  0  0  0  0  0  0  0  0
   25.8760  -20.1667   -8.7653 C   0  0  0  0  0  0  0  0  0  0  0  0
   25.5343  -20.7320  -10.0976 C   0  0  2  0  0  0  0  0  0  0  0  0
   26.6135  -20.3330  -11.0444 N   0  0  0  0  0  0  0  0  0  0  0  0
   24.2572  -20.3593  -10.6809 C   0  0  0  0  0  0  0  0  0  0  0  0
   24.1924  -19.5123  -11.6088 O   0  0  0  0  0  0  0  0  0  0  0  0
   20.3756  -21.7814  -14.2280 N   0  0  0  0  0  0  0  0  0  0  0  0
   20.7533  -20.8238  -13.2579 C   0  0  0  0  0  0  0  0  0  0  0  0
   20.0663  -19.7910  -13.1017 O   0  0  0  0  0  0  0  0  0  0  0  0
   21.9479  -21.0639  -12.4522 C   0  0  0  0  0  0  0  0  0  0  0  0
   21.8197  -20.6521  -10.9993 C   0  0  2  0  0  0  0  0  0  0  0  0
   23.0346  -20.9258  -10.2448 N   0  0  0  0  0  0  0  0  0  0  0  0
   20.6865  -21.2777  -10.3296 C   0  0  0  0  0  0  0  0  0  0  0  0
   20.8586  -22.0861   -9.3822 O   0  0  0  0  0  0  0  0  0  0  0  0
   19.3895  -21.0007  -10.7160 O   0  0  0  0  0  0  0  0  0  0  0  0
  2 12  2  0
  2  1  1  0
  3  2  1  0
  4  5  1  0
  4  3  2  0
  5 11  2  0
  6  5  1  0
  7  6  1  0
  7  8  1  6
  9 10  2  0
  9  7  1  0
 11 12  1  0
 13 14  1  0
 14 15  1  0
 16 15  1  0
 17 16  1  1
 17 18  1  0
 18  9  1  0
 19 17  1  0
 19 26  1  0
 20 19  2  0
 21 22  1  0
 22 24  1  0
 23 22  2  0
 25 24  1  6
 25 26  1  0
 25 27  1  0
 27 29  1  0
 28 27  2  0
M  END
$$$$
