YMN.pdb
     RDKit          3D

 29 29  0  0  1  0  0  0  0  0999 V2000
   19.7592  -15.0433  -23.4968 O   0  0  0  0  0  0  0  0  0  0  0  0
   19.9070  -14.2310  -22.3749 C   0  0  0  0  0  0  0  0  0  0  0  0
   20.6306  -13.0573  -22.4053 C   0  0  0  0  0  0  0  0  0  0  0  0
   20.7705  -12.2570  -21.2812 C   0  0  0  0  0  0  0  0  0  0  0  0
   20.1884  -12.6037  -20.0794 C   0  0  0  0  0  0  0  0  0  0  0  0
   20.3069  -11.7826  -18.8445 C   0  0  0  0  0  0  0  0  0  0  0  0
   21.6867  -12.0075  -18.2905 C   0  0  2  0  0  0  0  0  0  0  0  0
   21.7507  -13.3685  -17.7911 N   0  0  0  0  0  0  0  0  0  0  0  0
   22.0444  -11.1028  -17.1907 C   0  0  0  0  0  0  0  0  0  0  0  0
   21.6634  -11.4463  -16.0260 O   0  0  0  0  0  0  0  0  0  0  0  0
   19.4646  -13.7800  -20.0538 C   0  0  0  0  0  0  0  0  0  0  0  0
   19.3249  -14.5778  -21.1733 C   0  0  0  0  0  0  0  0  0  0  0  0
   27.7416  -12.1036  -15.0164 C   0  0  0  0  0  0  0  0  0  0  0  0
   27.0591  -10.6160  -15.7640 S   0  0  0  0  0  0  0  0  0  0  0  0
   25.2164  -10.6711  -15.6274 C   0  0  0  0  0  0  0  0  0  0  0  0
   24.7352   -9.3521  -16.0782 C   0  0  0  0  0  0  0  0  0  0  0  0
   23.2689   -9.1254  -16.1778 C   0  0  2  0  0  0  0  0  0  0  0  0
   22.7749   -9.8949  -17.3543 N   0  0  0  0  0  0  0  0  0  0  0  0
   22.8055   -7.7545  -16.3042 C   0  0  0  0  0  0  0  0  0  0  0  0
   22.8520   -7.1552  -17.4095 O   0  0  0  0  0  0  0  0  0  0  0  0
   18.5865   -4.0093  -16.1192 N   0  0  0  0  0  0  0  0  0  0  0  0
   19.7357   -4.2401  -15.3276 C   0  0  0  0  0  0  0  0  0  0  0  0
   20.2698   -3.2912  -14.7133 O   0  0  0  0  0  0  0  0  0  0  0  0
   20.2787   -5.5936  -15.2438 C   0  0  0  0  0  0  0  0  0  0  0  0
   21.7812   -5.6806  -15.4219 C   0  0  2  0  0  0  0  0  0  0  0  0
   22.2796   -7.0315  -15.2058 N   0  0  0  0  0  0  0  0  0  0  0  0
   22.5095   -4.7561  -14.5623 C   0  0  0  0  0  0  0  0  0  0  0  0
   22.9023   -5.1052  -13.4201 O   0  0  0  0  0  0  0  0  0  0  0  0
   22.7897   -3.4686  -14.9772 O   0  0  0  0  0  0  0  0  0  0  0  0
  2 12  2  0
  2  1  1  0
  3  2  1  0
  4  5  1  0
  4  3  2  0
  5 11  2  0
  6  5  1  0
  7  6  1  0
  7  8  1  1
  9 10  2  0
  9  7  1  0
 11 12  1  0
 13 14  1  0
 14 15  1  0
 16 15  1  0
 17 16  1  6
 17 18  1  0
 18  9  1  0
 19 17  1  0
 19 26  1  0
 20 19  2  0
 21 22  1  0
 22 24  1  0
 23 22  2  0
 25 24  1  1
 25 26  1  0
 25 27  1  0
 27 29  1  0
 28 27  2  0
M  END
$$$$
