YMN.pdb
     RDKit          3D

 29 29  0  0  1  0  0  0  0  0999 V2000
   14.9065  -22.3046  -12.2682 O   0  0  0  0  0  0  0  0  0  0  0  0
   16.2105  -21.9119  -11.9757 C   0  0  0  0  0  0  0  0  0  0  0  0
   16.8965  -22.3926  -10.8801 C   0  0  0  0  0  0  0  0  0  0  0  0
   18.1949  -21.9937  -10.5995 C   0  0  0  0  0  0  0  0  0  0  0  0
   18.8577  -21.0945  -11.4092 C   0  0  0  0  0  0  0  0  0  0  0  0
   20.2490  -20.6334  -11.1543 C   0  0  0  0  0  0  0  0  0  0  0  0
   21.0328  -20.8626  -12.4169 C   0  0  2  0  0  0  0  0  0  0  0  0
   21.0355  -22.2883  -12.6880 N   0  0  0  0  0  0  0  0  0  0  0  0
   22.4283  -20.4115  -12.3449 C   0  0  0  0  0  0  0  0  0  0  0  0
   22.6136  -19.1690  -12.1409 O   0  0  0  0  0  0  0  0  0  0  0  0
   18.1666  -20.6157  -12.5053 C   0  0  0  0  0  0  0  0  0  0  0  0
   16.8730  -21.0127  -12.7854 C   0  0  0  0  0  0  0  0  0  0  0  0
   26.6676  -20.0771   -7.3674 C   0  0  0  0  0  0  0  0  0  0  0  0
   26.8068  -20.9751   -8.9203 S   0  0  0  0  0  0  0  0  0  0  0  0
   25.5050  -20.3639  -10.0818 C   0  0  0  0  0  0  0  0  0  0  0  0
   25.6437  -21.1695  -11.3091 C   0  0  0  0  0  0  0  0  0  0  0  0
   24.9388  -20.7201  -12.5389 C   0  0  2  0  0  0  0  0  0  0  0  0
   23.5538  -21.2673  -12.4874 N   0  0  0  0  0  0  0  0  0  0  0  0
   25.5220  -21.0793  -13.8199 C   0  0  0  0  0  0  0  0  0  0  0  0
   25.3046  -22.2055  -14.3367 O   0  0  0  0  0  0  0  0  0  0  0  0
   27.1345  -20.1487  -19.0200 N   0  0  0  0  0  0  0  0  0  0  0  0
   27.9539  -19.7481  -17.9388 C   0  0  0  0  0  0  0  0  0  0  0  0
   29.1947  -19.6981  -18.0828 O   0  0  0  0  0  0  0  0  0  0  0  0
   27.3276  -19.3983  -16.6663 C   0  0  0  0  0  0  0  0  0  0  0  0
   26.8200  -20.5828  -15.8686 C   0  0  2  0  0  0  0  0  0  0  0  0
   26.3511  -20.1907  -14.5471 N   0  0  0  0  0  0  0  0  0  0  0  0
   27.8113  -21.6425  -15.7324 C   0  0  0  0  0  0  0  0  0  0  0  0
   27.9970  -22.4789  -16.6525 O   0  0  0  0  0  0  0  0  0  0  0  0
   28.5761  -21.7591  -14.5881 O   0  0  0  0  0  0  0  0  0  0  0  0
  2 12  2  0
  2  1  1  0
  3  2  1  0
  4  5  1  0
  4  3  2  0
  5 11  2  0
  6  5  1  0
  7  6  1  0
  7  8  1  1
  9 10  2  0
  9  7  1  0
 11 12  1  0
 13 14  1  0
 14 15  1  0
 16 15  1  0
 17 16  1  1
 17 18  1  0
 18  9  1  0
 19 17  1  0
 19 26  1  0
 20 19  2  0
 21 22  1  0
 22 24  1  0
 23 22  2  0
 25 24  1  1
 25 26  1  0
 25 27  1  0
 27 29  1  0
 28 27  2  0
M  END
$$$$
