YMN.pdb
     RDKit          3D

 29 29  0  0  1  0  0  0  0  0999 V2000
   14.8882  -14.3851  -18.9548 O   0  0  0  0  0  0  0  0  0  0  0  0
   16.1184  -13.9831  -18.4398 C   0  0  0  0  0  0  0  0  0  0  0  0
   17.3157  -14.4307  -18.9576 C   0  0  0  0  0  0  0  0  0  0  0  0
   18.5344  -14.0230  -18.4358 C   0  0  0  0  0  0  0  0  0  0  0  0
   18.5997  -13.1478  -17.3712 C   0  0  0  0  0  0  0  0  0  0  0  0
   19.8788  -12.6789  -16.7735 C   0  0  0  0  0  0  0  0  0  0  0  0
   20.0213  -11.2210  -17.1129 C   0  0  2  0  0  0  0  0  0  0  0  0
   20.1435  -11.1083  -18.5545 N   0  0  0  0  0  0  0  0  0  0  0  0
   21.1933  -10.5773  -16.5061 C   0  0  0  0  0  0  0  0  0  0  0  0
   21.2737  -10.6247  -15.2369 O   0  0  0  0  0  0  0  0  0  0  0  0
   17.3980  -12.7022  -16.8560 C   0  0  0  0  0  0  0  0  0  0  0  0
   16.1836  -13.1081  -17.3753 C   0  0  0  0  0  0  0  0  0  0  0  0
   27.7298  -10.2100  -14.3874 C   0  0  0  0  0  0  0  0  0  0  0  0
   26.1468  -10.5854  -15.1561 S   0  0  0  0  0  0  0  0  0  0  0  0
   25.9294   -9.4989  -16.6358 C   0  0  0  0  0  0  0  0  0  0  0  0
   24.6160   -9.8484  -17.2080 C   0  0  0  0  0  0  0  0  0  0  0  0
   23.3910   -9.3112  -16.5584 C   0  0  2  0  0  0  0  0  0  0  0  0
   22.2162   -9.9210  -17.2427 N   0  0  0  0  0  0  0  0  0  0  0  0
   23.2115   -7.8698  -16.5451 C   0  0  0  0  0  0  0  0  0  0  0  0
   22.8283   -7.2560  -17.5743 O   0  0  0  0  0  0  0  0  0  0  0  0
   24.0956   -2.7778  -17.2330 N   0  0  0  0  0  0  0  0  0  0  0  0
   23.0409   -3.6835  -16.9722 C   0  0  0  0  0  0  0  0  0  0  0  0
   21.8708   -3.2595  -16.8541 O   0  0  0  0  0  0  0  0  0  0  0  0
   23.3438   -5.1068  -16.8454 C   0  0  0  0  0  0  0  0  0  0  0  0
   23.2106   -5.6552  -15.4387 C   0  0  2  0  0  0  0  0  0  0  0  0
   23.4506   -7.0904  -15.3870 N   0  0  0  0  0  0  0  0  0  0  0  0
   21.9169   -5.3618  -14.8350 C   0  0  0  0  0  0  0  0  0  0  0  0
   21.1445   -6.2864  -14.4754 O   0  0  0  0  0  0  0  0  0  0  0  0
   21.5012   -4.0590  -14.6400 O   0  0  0  0  0  0  0  0  0  0  0  0
  2 12  2  0
  2  1  1  0
  3  2  1  0
  4  5  1  0
  4  3  2  0
  5 11  2  0
  6  5  1  0
  7  6  1  0
  7  8  1  6
  9 10  2  0
  9  7  1  0
 11 12  1  0
 13 14  1  0
 14 15  1  0
 16 15  1  0
 17 16  1  6
 17 18  1  0
 18  9  1  0
 19 17  1  0
 19 26  1  0
 20 19  2  0
 21 22  1  0
 22 24  1  0
 23 22  2  0
 25 24  1  6
 25 26  1  0
 25 27  1  0
 27 29  1  0
 28 27  2  0
M  END
$$$$
