YMN.pdb
     RDKit          3D

 29 29  0  0  1  0  0  0  0  0999 V2000
   16.8601  -16.1224  -20.2218 O   0  0  0  0  0  0  0  0  0  0  0  0
   17.6143  -15.0603  -19.7288 C   0  0  0  0  0  0  0  0  0  0  0  0
   18.2818  -15.1274  -18.5238 C   0  0  0  0  0  0  0  0  0  0  0  0
   19.0297  -14.0626  -18.0436 C   0  0  0  0  0  0  0  0  0  0  0  0
   19.1377  -12.8857  -18.7554 C   0  0  0  0  0  0  0  0  0  0  0  0
   19.9258  -11.7142  -18.2869 C   0  0  0  0  0  0  0  0  0  0  0  0
   21.2114  -11.7011  -19.0668 C   0  0  2  0  0  0  0  0  0  0  0  0
   22.0235  -12.8124  -18.6071 N   0  0  0  0  0  0  0  0  0  0  0  0
   21.9950  -10.4695  -18.9077 C   0  0  0  0  0  0  0  0  0  0  0  0
   22.8088  -10.4366  -17.9299 O   0  0  0  0  0  0  0  0  0  0  0  0
   18.4675  -12.8231  -19.9617 C   0  0  0  0  0  0  0  0  0  0  0  0
   17.7221  -13.8835  -20.4407 C   0  0  0  0  0  0  0  0  0  0  0  0
   24.8214   -4.2431  -22.7709 C   0  0  0  0  0  0  0  0  0  0  0  0
   23.6544   -5.6019  -22.5984 S   0  0  0  0  0  0  0  0  0  0  0  0
   23.6316   -6.1483  -20.8326 C   0  0  0  0  0  0  0  0  0  0  0  0
   22.9107   -7.4346  -20.8139 C   0  0  0  0  0  0  0  0  0  0  0  0
   22.6761   -8.0999  -19.5048 C   0  0  2  0  0  0  0  0  0  0  0  0
   21.8947   -9.3415  -19.7662 N   0  0  0  0  0  0  0  0  0  0  0  0
   21.9896   -7.3393  -18.4752 C   0  0  0  0  0  0  0  0  0  0  0  0
   20.8869   -7.7279  -18.0105 O   0  0  0  0  0  0  0  0  0  0  0  0
   22.2808   -5.7281  -13.3059 N   0  0  0  0  0  0  0  0  0  0  0  0
   21.3537   -5.8864  -14.3623 C   0  0  0  0  0  0  0  0  0  0  0  0
   20.1711   -5.5085  -14.2151 O   0  0  0  0  0  0  0  0  0  0  0  0
   21.8014   -6.4929  -15.6135 C   0  0  0  0  0  0  0  0  0  0  0  0
   21.8793   -5.5341  -16.7847 C   0  0  2  0  0  0  0  0  0  0  0  0
   22.5205   -6.1386  -17.9437 N   0  0  0  0  0  0  0  0  0  0  0  0
   22.5593   -4.2881  -16.4542 C   0  0  0  0  0  0  0  0  0  0  0  0
   22.0957   -3.5073  -15.5846 O   0  0  0  0  0  0  0  0  0  0  0  0
   23.7334   -3.9282  -17.0868 O   0  0  0  0  0  0  0  0  0  0  0  0
  2 12  2  0
  2  1  1  0
  3  2  1  0
  4  5  1  0
  4  3  2  0
  5 11  2  0
  6  5  1  0
  7  6  1  0
  7  8  1  1
  9 10  2  0
  9  7  1  0
 11 12  1  0
 13 14  1  0
 14 15  1  0
 16 15  1  0
 17 16  1  6
 17 18  1  0
 18  9  1  0
 19 17  1  0
 19 26  1  0
 20 19  2  0
 21 22  1  0
 22 24  1  0
 23 22  2  0
 25 24  1  1
 25 26  1  0
 25 27  1  0
 27 29  1  0
 28 27  2  0
M  END
$$$$
