YMN.pdb
     RDKit          3D

 29 29  0  0  1  0  0  0  0  0999 V2000
   23.7748  -14.0351  -22.8972 O   0  0  0  0  0  0  0  0  0  0  0  0
   22.9243  -13.3789  -22.0104 C   0  0  0  0  0  0  0  0  0  0  0  0
   21.8967  -14.0278  -21.3586 C   0  0  0  0  0  0  0  0  0  0  0  0
   21.0564  -13.3632  -20.4777 C   0  0  0  0  0  0  0  0  0  0  0  0
   21.2146  -12.0179  -20.2156 C   0  0  0  0  0  0  0  0  0  0  0  0
   20.3424  -11.2572  -19.2809 C   0  0  0  0  0  0  0  0  0  0  0  0
   21.0084  -11.2783  -17.9328 C   0  0  2  0  0  0  0  0  0  0  0  0
   20.9273  -12.6319  -17.4161 N   0  0  0  0  0  0  0  0  0  0  0  0
   20.3943  -10.3786  -16.9482 C   0  0  0  0  0  0  0  0  0  0  0  0
   19.3034  -10.7710  -16.4232 O   0  0  0  0  0  0  0  0  0  0  0  0
   22.2452  -11.3723  -20.8707 C   0  0  0  0  0  0  0  0  0  0  0  0
   23.0827  -12.0338  -21.7484 C   0  0  0  0  0  0  0  0  0  0  0  0
   22.7881  -10.4105  -11.1798 C   0  0  0  0  0  0  0  0  0  0  0  0
   22.4461   -8.9481  -12.1707 S   0  0  0  0  0  0  0  0  0  0  0  0
   21.3235   -9.4191  -13.5618 C   0  0  0  0  0  0  0  0  0  0  0  0
   21.1219   -8.1926  -14.3554 C   0  0  0  0  0  0  0  0  0  0  0  0
   20.2536   -8.2595  -15.5607 C   0  0  2  0  0  0  0  0  0  0  0  0
   20.9401   -9.1250  -16.5607 N   0  0  0  0  0  0  0  0  0  0  0  0
   19.9015   -7.0079  -16.2086 C   0  0  0  0  0  0  0  0  0  0  0  0
   20.1925   -6.7995  -17.4147 O   0  0  0  0  0  0  0  0  0  0  0  0
   17.8421   -3.8675  -19.5483 N   0  0  0  0  0  0  0  0  0  0  0  0
   17.3925   -4.0440  -18.2189 C   0  0  0  0  0  0  0  0  0  0  0  0
   16.5803   -3.2332  -17.7232 O   0  0  0  0  0  0  0  0  0  0  0  0
   17.8909   -5.1795  -17.4469 C   0  0  0  0  0  0  0  0  0  0  0  0
   18.7768   -4.8036  -16.2760 C   0  0  2  0  0  0  0  0  0  0  0  0
   19.2172   -5.9720  -15.5271 N   0  0  0  0  0  0  0  0  0  0  0  0
   18.1431   -3.8590  -15.3648 C   0  0  0  0  0  0  0  0  0  0  0  0
   17.2047   -4.2174  -14.6087 O   0  0  0  0  0  0  0  0  0  0  0  0
   18.5551   -2.5419  -15.3049 O   0  0  0  0  0  0  0  0  0  0  0  0
  2 12  2  0
  2  1  1  0
  3  2  1  0
  4  5  1  0
  4  3  2  0
  5 11  2  0
  6  5  1  0
  7  6  1  0
  7  8  1  1
  9 10  2  0
  9  7  1  0
 11 12  1  0
 13 14  1  0
 14 15  1  0
 16 15  1  0
 17 16  1  1
 17 18  1  0
 18  9  1  0
 19 17  1  0
 19 26  1  0
 20 19  2  0
 21 22  1  0
 22 24  1  0
 23 22  2  0
 25 24  1  6
 25 26  1  0
 25 27  1  0
 27 29  1  0
 28 27  2  0
M  END
$$$$
