GCC.pdb
     RDKit          3D

 17 16  0  0  1  0  0  0  0  0999 V2000
    7.5973  -14.6404   20.1271 N   0  0  0  0  0  0  0  0  0  0  0  0
    6.6508  -14.3053   21.1416 C   0  0  0  0  0  0  0  0  0  0  0  0
    7.3655  -14.1420   22.4345 C   0  0  0  0  0  0  0  0  0  0  0  0
    8.5802  -14.4606   22.4994 O   0  0  0  0  0  0  0  0  0  0  0  0
    6.7395  -13.6433   23.5974 N   0  0  0  0  0  0  0  0  0  0  0  0
    7.5782  -13.4312   24.7827 C   0  0  1  0  0  0  0  0  0  0  0  0
    6.7488  -12.6956   25.8417 C   0  0  0  0  0  0  0  0  0  0  0  0
    7.6702  -12.4927   27.3569 S   0  0  0  0  0  0  0  0  0  0  0  0
    7.8493  -14.7900   25.3154 C   0  0  0  0  0  0  0  0  0  0  0  0
    6.9135  -15.6704   25.3780 O   0  0  0  0  0  0  0  0  0  0  0  0
    9.1158  -15.2366   25.7871 N   0  0  0  0  0  0  0  0  0  0  0  0
    9.3017  -16.6269   26.2388 C   0  0  1  0  0  0  0  0  0  0  0  0
    9.9499  -17.4467   25.1431 C   0  0  0  0  0  0  0  0  0  0  0  0
   11.2742  -18.4895   25.8043 S   0  0  0  0  0  0  0  0  0  0  0  0
   10.0804  -16.6223   27.4893 C   0  0  0  0  0  0  0  0  0  0  0  0
   10.0534  -17.6984   28.3457 O   0  0  0  0  0  0  0  0  0  0  0  0
   10.7748  -15.6288   27.7770 O   0  0  0  0  0  0  0  0  0  0  0  0
  1  2  1  0
  2  3  1  0
  3  4  2  0
  3  5  1  0
  5  6  1  0
  6  7  1  1
  8  7  1  0
  9 11  1  0
  9  6  1  0
 10  9  2  0
 12 11  1  0
 12 15  1  0
 12 13  1  6
 14 13  1  0
 15 16  1  0
 17 15  2  0
M  END
$$$$
