GCC.pdb
     RDKit          3D

 17 16  0  0  1  0  0  0  0  0999 V2000
    4.6033  -18.7021   21.1080 N   0  0  0  0  0  0  0  0  0  0  0  0
    4.9763  -17.6405   21.9862 C   0  0  0  0  0  0  0  0  0  0  0  0
    6.2158  -17.0013   21.4725 C   0  0  0  0  0  0  0  0  0  0  0  0
    7.1433  -17.7350   21.0452 O   0  0  0  0  0  0  0  0  0  0  0  0
    6.3995  -15.6018   21.4426 N   0  0  0  0  0  0  0  0  0  0  0  0
    7.7132  -15.0976   21.0263 C   0  0  1  0  0  0  0  0  0  0  0  0
    7.5667  -13.6241   20.6293 C   0  0  0  0  0  0  0  0  0  0  0  0
    6.6805  -13.4556   19.0891 S   0  0  0  0  0  0  0  0  0  0  0  0
    8.5493  -15.1324   22.2524 C   0  0  0  0  0  0  0  0  0  0  0  0
    8.0570  -14.8004   23.3935 O   0  0  0  0  0  0  0  0  0  0  0  0
    9.9181  -15.5212   22.2878 N   0  0  0  0  0  0  0  0  0  0  0  0
   10.6003  -15.7527   23.5733 C   0  0  1  0  0  0  0  0  0  0  0  0
    9.8714  -16.8189   24.3635 C   0  0  0  0  0  0  0  0  0  0  0  0
   10.2613  -16.7052   26.1280 S   0  0  0  0  0  0  0  0  0  0  0  0
   12.0090  -16.0949   23.3111 C   0  0  0  0  0  0  0  0  0  0  0  0
   12.9439  -16.0732   24.3199 O   0  0  0  0  0  0  0  0  0  0  0  0
   12.3606  -16.4092   22.1579 O   0  0  0  0  0  0  0  0  0  0  0  0
  1  2  1  0
  2  3  1  0
  3  4  2  0
  3  5  1  0
  5  6  1  0
  6  7  1  1
  8  7  1  0
  9 11  1  0
  9  6  1  0
 10  9  2  0
 12 11  1  0
 12 15  1  0
 12 13  1  6
 14 13  1  0
 15 16  1  0
 17 15  2  0
M  END
$$$$
