GCC.pdb
     RDKit          3D

 17 16  0  0  1  0  0  0  0  0999 V2000
    4.7612  -20.8021   22.1003 N   0  0  0  0  0  0  0  0  0  0  0  0
    5.2996  -20.7595   23.4215 C   0  0  0  0  0  0  0  0  0  0  0  0
    5.8553  -19.4042   23.6734 C   0  0  0  0  0  0  0  0  0  0  0  0
    5.3174  -18.4153   23.1131 O   0  0  0  0  0  0  0  0  0  0  0  0
    6.9643  -19.1764   24.5168 N   0  0  0  0  0  0  0  0  0  0  0  0
    7.4180  -17.7908   24.6832 C   0  0  1  0  0  0  0  0  0  0  0  0
    7.3476  -17.4300   26.1716 C   0  0  0  0  0  0  0  0  0  0  0  0
    8.2136  -18.6307   27.1686 S   0  0  0  0  0  0  0  0  0  0  0  0
    8.8549  -17.8048   24.3109 C   0  0  0  0  0  0  0  0  0  0  0  0
    9.5419  -18.8900   24.3821 O   0  0  0  0  0  0  0  0  0  0  0  0
    9.5842  -16.6704   23.8556 N   0  0  0  0  0  0  0  0  0  0  0  0
   11.0244  -16.7717   23.5612 C   0  0  1  0  0  0  0  0  0  0  0  0
   11.4236  -15.7169   22.5509 C   0  0  0  0  0  0  0  0  0  0  0  0
   10.4514  -15.8674   21.0308 S   0  0  0  0  0  0  0  0  0  0  0  0
   11.7778  -16.6720   24.8233 C   0  0  0  0  0  0  0  0  0  0  0  0
   13.1437  -16.8320   24.8487 O   0  0  0  0  0  0  0  0  0  0  0  0
   11.1693  -16.4390   25.8852 O   0  0  0  0  0  0  0  0  0  0  0  0
  1  2  1  0
  2  3  1  0
  3  4  2  0
  3  5  1  0
  5  6  1  0
  6  7  1  1
  8  7  1  0
  9 11  1  0
  9  6  1  0
 10  9  2  0
 12 11  1  0
 12 15  1  0
 12 13  1  6
 14 13  1  0
 15 16  1  0
 17 15  2  0
M  END
$$$$
