GCC.pdb
     RDKit          3D

 17 16  0  0  1  0  0  0  0  0999 V2000
    8.1891  -16.1039   20.4702 N   0  0  0  0  0  0  0  0  0  0  0  0
    7.4140  -16.1465   21.6680 C   0  0  0  0  0  0  0  0  0  0  0  0
    7.9969  -15.2002   22.6548 C   0  0  0  0  0  0  0  0  0  0  0  0
    9.1270  -14.7010   22.4207 O   0  0  0  0  0  0  0  0  0  0  0  0
    7.3362  -14.8353   23.8478 N   0  0  0  0  0  0  0  0  0  0  0  0
    8.0669  -13.9881   24.7974 C   0  0  1  0  0  0  0  0  0  0  0  0
    7.0495  -13.2179   25.6470 C   0  0  0  0  0  0  0  0  0  0  0  0
    5.9137  -14.3295   26.4594 S   0  0  0  0  0  0  0  0  0  0  0  0
    8.7607  -14.9334   25.7078 C   0  0  0  0  0  0  0  0  0  0  0  0
    8.6001  -16.2036   25.5831 O   0  0  0  0  0  0  0  0  0  0  0  0
    9.6359  -14.5471   26.7617 N   0  0  0  0  0  0  0  0  0  0  0  0
   10.6893  -15.4615   27.2367 C   0  0  1  0  0  0  0  0  0  0  0  0
   11.5096  -14.7915   28.3187 C   0  0  0  0  0  0  0  0  0  0  0  0
   10.5880  -13.4396   29.0942 S   0  0  0  0  0  0  0  0  0  0  0  0
   10.0642  -16.7178   27.6852 C   0  0  0  0  0  0  0  0  0  0  0  0
    8.6961  -16.8540   27.7269 O   0  0  0  0  0  0  0  0  0  0  0  0
   10.7849  -17.6729   28.0326 O   0  0  0  0  0  0  0  0  0  0  0  0
  1  2  1  0
  2  3  1  0
  3  4  2  0
  3  5  1  0
  5  6  1  0
  6  7  1  1
  8  7  1  0
  9 11  1  0
  9  6  1  0
 10  9  2  0
 12 11  1  0
 12 15  1  0
 12 13  1  1
 14 13  1  0
 15 16  1  0
 17 15  2  0
M  END
$$$$
