GCC.pdb
     RDKit          3D

 17 16  0  0  1  0  0  0  0  0999 V2000
    4.9694  -20.2990   22.1639 N   0  0  0  0  0  0  0  0  0  0  0  0
    5.1443  -19.8880   23.5195 C   0  0  0  0  0  0  0  0  0  0  0  0
    5.5785  -18.4667   23.5413 C   0  0  0  0  0  0  0  0  0  0  0  0
    4.9554  -17.6322   22.8367 O   0  0  0  0  0  0  0  0  0  0  0  0
    6.6632  -18.0097   24.3207 N   0  0  0  0  0  0  0  0  0  0  0  0
    6.9531  -16.5713   24.3047 C   0  0  1  0  0  0  0  0  0  0  0  0
    7.5629  -16.1815   25.6562 C   0  0  0  0  0  0  0  0  0  0  0  0
    8.0656  -14.4689   25.6677 S   0  0  0  0  0  0  0  0  0  0  0  0
    8.0192  -16.4009   23.2858 C   0  0  0  0  0  0  0  0  0  0  0  0
    8.9424  -17.2857   23.1460 O   0  0  0  0  0  0  0  0  0  0  0  0
    8.1216  -15.2922   22.3991 N   0  0  0  0  0  0  0  0  0  0  0  0
    9.1893  -15.2372   21.3851 C   0  0  1  0  0  0  0  0  0  0  0  0
    8.9392  -14.0900   20.4291 C   0  0  0  0  0  0  0  0  0  0  0  0
    7.2751  -14.1805   19.7213 S   0  0  0  0  0  0  0  0  0  0  0  0
   10.4914  -15.1422   22.0677 C   0  0  0  0  0  0  0  0  0  0  0  0
   11.6678  -15.1432   21.3549 O   0  0  0  0  0  0  0  0  0  0  0  0
   10.5290  -15.0594   23.3102 O   0  0  0  0  0  0  0  0  0  0  0  0
  1  2  1  0
  2  3  1  0
  3  4  2  0
  3  5  1  0
  5  6  1  0
  6  7  1  1
  8  7  1  0
  9 11  1  0
  9  6  1  0
 10  9  2  0
 12 11  1  0
 12 15  1  0
 12 13  1  6
 14 13  1  0
 15 16  1  0
 17 15  2  0
M  END
$$$$
