GCC.pdb
     RDKit          3D

 17 16  0  0  1  0  0  0  0  0999 V2000
    8.7913  -17.7901   17.3763 N   0  0  0  0  0  0  0  0  0  0  0  0
    7.8011  -17.5634   18.3791 C   0  0  0  0  0  0  0  0  0  0  0  0
    8.3799  -16.7031   19.4439 C   0  0  0  0  0  0  0  0  0  0  0  0
    9.6167  -16.4760   19.4336 O   0  0  0  0  0  0  0  0  0  0  0  0
    7.6005  -16.1271   20.4704 N   0  0  0  0  0  0  0  0  0  0  0  0
    8.3081  -15.4358   21.5543 C   0  0  1  0  0  0  0  0  0  0  0  0
    7.2804  -14.6759   22.4009 C   0  0  0  0  0  0  0  0  0  0  0  0
    8.0274  -14.0095   23.8786 S   0  0  0  0  0  0  0  0  0  0  0  0
    8.8576  -16.5162   22.4111 C   0  0  0  0  0  0  0  0  0  0  0  0
    8.1724  -17.5783   22.6503 O   0  0  0  0  0  0  0  0  0  0  0  0
   10.1415  -16.4883   23.0251 N   0  0  0  0  0  0  0  0  0  0  0  0
   10.6169  -17.6311   23.8247 C   0  0  1  0  0  0  0  0  0  0  0  0
   11.7851  -18.3000   23.1314 C   0  0  0  0  0  0  0  0  0  0  0  0
   13.1297  -17.1239   22.8359 S   0  0  0  0  0  0  0  0  0  0  0  0
   10.9474  -17.1601   25.1808 C   0  0  0  0  0  0  0  0  0  0  0  0
   11.2995  -18.0454   26.1730 O   0  0  0  0  0  0  0  0  0  0  0  0
   10.9078  -15.9410   25.4345 O   0  0  0  0  0  0  0  0  0  0  0  0
  1  2  1  0
  2  3  1  0
  3  4  2  0
  3  5  1  0
  5  6  1  0
  6  7  1  1
  8  7  1  0
  9 11  1  0
  9  6  1  0
 10  9  2  0
 12 11  1  0
 12 15  1  0
 12 13  1  6
 14 13  1  0
 15 16  1  0
 17 15  2  0
M  END
$$$$
