GCC.pdb
     RDKit          3D

 17 16  0  0  1  0  0  0  0  0999 V2000
    4.0263  -18.9143   21.4710 N   0  0  0  0  0  0  0  0  0  0  0  0
    3.9387  -17.4929   21.3759 C   0  0  0  0  0  0  0  0  0  0  0  0
    5.2901  -16.9433   21.0923 C   0  0  0  0  0  0  0  0  0  0  0  0
    6.2791  -17.7192   21.1271 O   0  0  0  0  0  0  0  0  0  0  0  0
    5.5144  -15.5839   20.7844 N   0  0  0  0  0  0  0  0  0  0  0  0
    6.8993  -15.1601   20.5484 C   0  0  1  0  0  0  0  0  0  0  0  0
    6.8793  -13.8123   19.8182 C   0  0  0  0  0  0  0  0  0  0  0  0
    8.5346  -13.2386   19.4763 S   0  0  0  0  0  0  0  0  0  0  0  0
    7.4650  -14.9106   21.8980 C   0  0  0  0  0  0  0  0  0  0  0  0
    6.7716  -14.3119   22.8010 O   0  0  0  0  0  0  0  0  0  0  0  0
    8.7721  -15.2935   22.3111 N   0  0  0  0  0  0  0  0  0  0  0  0
    9.1661  -15.2118   23.7287 C   0  0  1  0  0  0  0  0  0  0  0  0
    8.2549  -16.0786   24.5719 C   0  0  0  0  0  0  0  0  0  0  0  0
    7.8460  -15.2665   26.1377 S   0  0  0  0  0  0  0  0  0  0  0  0
   10.5865  -15.5829   23.8515 C   0  0  0  0  0  0  0  0  0  0  0  0
   11.3280  -15.9271   22.7452 O   0  0  0  0  0  0  0  0  0  0  0  0
   11.1260  -15.5854   24.9745 O   0  0  0  0  0  0  0  0  0  0  0  0
  1  2  1  0
  2  3  1  0
  3  4  2  0
  3  5  1  0
  5  6  1  0
  6  7  1  6
  8  7  1  0
  9 11  1  0
  9  6  1  0
 10  9  2  0
 12 11  1  0
 12 15  1  0
 12 13  1  1
 14 13  1  0
 15 16  1  0
 17 15  2  0
M  END
$$$$
