GCC.pdb
     RDKit          3D

 17 16  0  0  1  0  0  0  0  0999 V2000
    8.0605  -15.6026   20.7246 N   0  0  0  0  0  0  0  0  0  0  0  0
    7.1093  -15.5069   21.7845 C   0  0  0  0  0  0  0  0  0  0  0  0
    7.7345  -14.7999   22.9326 C   0  0  0  0  0  0  0  0  0  0  0  0
    8.9639  -14.5399   22.8870 O   0  0  0  0  0  0  0  0  0  0  0  0
    7.0072  -14.4055   24.0765 N   0  0  0  0  0  0  0  0  0  0  0  0
    7.7241  -13.6502   25.1105 C   0  0  1  0  0  0  0  0  0  0  0  0
    6.6949  -12.9416   25.9986 C   0  0  0  0  0  0  0  0  0  0  0  0
    7.4924  -12.0287   27.3088 S   0  0  0  0  0  0  0  0  0  0  0  0
    8.3861  -14.6772   25.9534 C   0  0  0  0  0  0  0  0  0  0  0  0
    7.7480  -15.7281   26.3319 O   0  0  0  0  0  0  0  0  0  0  0  0
    9.7339  -14.6071   26.4057 N   0  0  0  0  0  0  0  0  0  0  0  0
   10.3173  -15.7017   27.2012 C   0  0  1  0  0  0  0  0  0  0  0  0
   11.7510  -15.9438   26.7787 C   0  0  0  0  0  0  0  0  0  0  0  0
   11.8836  -16.1045   24.9801 S   0  0  0  0  0  0  0  0  0  0  0  0
   10.1881  -15.3735   28.6316 C   0  0  0  0  0  0  0  0  0  0  0  0
   10.5597  -16.2743   29.6025 O   0  0  0  0  0  0  0  0  0  0  0  0
    9.7351  -14.2629   28.9686 O   0  0  0  0  0  0  0  0  0  0  0  0
  1  2  1  0
  2  3  1  0
  3  4  2  0
  3  5  1  0
  5  6  1  0
  6  7  1  1
  8  7  1  0
  9 11  1  0
  9  6  1  0
 10  9  2  0
 12 11  1  0
 12 15  1  0
 12 13  1  6
 14 13  1  0
 15 16  1  0
 17 15  2  0
M  END
$$$$
