GCC.pdb
     RDKit          3D

 17 16  0  0  1  0  0  0  0  0999 V2000
    5.1618  -18.5546   23.7513 N   0  0  0  0  0  0  0  0  0  0  0  0
    5.4071  -17.8323   24.9577 C   0  0  0  0  0  0  0  0  0  0  0  0
    6.4000  -16.7604   24.6857 C   0  0  0  0  0  0  0  0  0  0  0  0
    6.8995  -16.6753   23.5348 O   0  0  0  0  0  0  0  0  0  0  0  0
    6.8092  -15.8297   25.6652 N   0  0  0  0  0  0  0  0  0  0  0  0
    7.7988  -14.8201   25.2718 C   0  0  1  0  0  0  0  0  0  0  0  0
    7.9027  -13.7771   26.3906 C   0  0  0  0  0  0  0  0  0  0  0  0
    6.3946  -12.8333   26.5354 S   0  0  0  0  0  0  0  0  0  0  0  0
    9.0958  -15.5412   25.2334 C   0  0  0  0  0  0  0  0  0  0  0  0
    9.4039  -16.3891   26.1504 O   0  0  0  0  0  0  0  0  0  0  0  0
   10.0839  -15.3764   24.2223 N   0  0  0  0  0  0  0  0  0  0  0  0
   11.1614  -16.3676   24.0561 C   0  0  1  0  0  0  0  0  0  0  0  0
   11.0622  -17.0192   22.6929 C   0  0  0  0  0  0  0  0  0  0  0  0
   10.1934  -15.9487   21.5191 S   0  0  0  0  0  0  0  0  0  0  0  0
   12.4579  -15.7058   24.2830 C   0  0  0  0  0  0  0  0  0  0  0  0
   13.6308  -16.4243   24.2825 O   0  0  0  0  0  0  0  0  0  0  0  0
   12.4939  -14.4759   24.4785 O   0  0  0  0  0  0  0  0  0  0  0  0
  1  2  1  0
  2  3  1  0
  3  4  2  0
  3  5  1  0
  5  6  1  0
  6  7  1  1
  8  7  1  0
  9 11  1  0
  9  6  1  0
 10  9  2  0
 12 11  1  0
 12 15  1  0
 12 13  1  6
 14 13  1  0
 15 16  1  0
 17 15  2  0
M  END
$$$$
