GCC.pdb
     RDKit          3D

 17 16  0  0  1  0  0  0  0  0999 V2000
    6.4387  -18.8306   23.6229 N   0  0  0  0  0  0  0  0  0  0  0  0
    6.1317  -17.9305   24.6873 C   0  0  0  0  0  0  0  0  0  0  0  0
    6.8679  -16.6575   24.4711 C   0  0  0  0  0  0  0  0  0  0  0  0
    7.7935  -16.6301   23.6204 O   0  0  0  0  0  0  0  0  0  0  0  0
    6.5734  -15.4731   25.1807 N   0  0  0  0  0  0  0  0  0  0  0  0
    7.3451  -14.2708   24.8458 C   0  0  1  0  0  0  0  0  0  0  0  0
    6.5592  -13.0406   25.3143 C   0  0  0  0  0  0  0  0  0  0  0  0
    5.8771  -13.2926   26.9444 S   0  0  0  0  0  0  0  0  0  0  0  0
    8.5670  -14.3467   25.6853 C   0  0  0  0  0  0  0  0  0  0  0  0
    9.4636  -13.4261   25.6260 O   0  0  0  0  0  0  0  0  0  0  0  0
    8.8559  -15.3973   26.6011 N   0  0  0  0  0  0  0  0  0  0  0  0
   10.1371  -15.4290   27.3284 C   0  0  1  0  0  0  0  0  0  0  0  0
   10.0417  -14.5901   28.5853 C   0  0  0  0  0  0  0  0  0  0  0  0
    9.4203  -12.9298   28.2170 S   0  0  0  0  0  0  0  0  0  0  0  0
   10.4971  -16.8314   27.6001 C   0  0  0  0  0  0  0  0  0  0  0  0
   11.6836  -17.1523   28.2176 O   0  0  0  0  0  0  0  0  0  0  0  0
    9.7154  -17.7421   27.2660 O   0  0  0  0  0  0  0  0  0  0  0  0
  1  2  1  0
  2  3  1  0
  3  4  2  0
  3  5  1  0
  5  6  1  0
  6  7  1  1
  8  7  1  0
  9 11  1  0
  9  6  1  0
 10  9  2  0
 12 11  1  0
 12 15  1  0
 12 13  1  1
 14 13  1  0
 15 16  1  0
 17 15  2  0
M  END
$$$$
