GCC.pdb
     RDKit          3D

 17 16  0  0  1  0  0  0  0  0999 V2000
    7.6357  -18.7266   17.7891 N   0  0  0  0  0  0  0  0  0  0  0  0
    6.8799  -17.8264   18.5988 C   0  0  0  0  0  0  0  0  0  0  0  0
    7.8160  -16.9465   19.3462 C   0  0  0  0  0  0  0  0  0  0  0  0
    9.0192  -17.2955   19.4546 O   0  0  0  0  0  0  0  0  0  0  0  0
    7.4134  -15.7318   19.9423 N   0  0  0  0  0  0  0  0  0  0  0  0
    8.4471  -14.9192   20.5937 C   0  0  1  0  0  0  0  0  0  0  0  0
    7.8960  -13.5037   20.8015 C   0  0  0  0  0  0  0  0  0  0  0  0
    7.6924  -12.6553   19.2444 S   0  0  0  0  0  0  0  0  0  0  0  0
    8.6193  -15.5166   21.9417 C   0  0  0  0  0  0  0  0  0  0  0  0
    7.6645  -16.1782   22.4944 O   0  0  0  0  0  0  0  0  0  0  0  0
    9.8056  -15.4237   22.7227 N   0  0  0  0  0  0  0  0  0  0  0  0
   10.2669  -16.5687   23.5274 C   0  0  1  0  0  0  0  0  0  0  0  0
   10.5004  -17.7699   22.6356 C   0  0  0  0  0  0  0  0  0  0  0  0
   11.1692  -19.1634   23.5786 S   0  0  0  0  0  0  0  0  0  0  0  0
   11.4692  -16.1700   24.2795 C   0  0  0  0  0  0  0  0  0  0  0  0
   11.6208  -16.5060   25.6047 O   0  0  0  0  0  0  0  0  0  0  0  0
   12.3636  -15.5180   23.7076 O   0  0  0  0  0  0  0  0  0  0  0  0
  1  2  1  0
  2  3  1  0
  3  4  2  0
  3  5  1  0
  5  6  1  0
  6  7  1  1
  8  7  1  0
  9 11  1  0
  9  6  1  0
 10  9  2  0
 12 11  1  0
 12 15  1  0
 12 13  1  6
 14 13  1  0
 15 16  1  0
 17 15  2  0
M  END
$$$$
