GCC.pdb
     RDKit          3D

 17 16  0  0  1  0  0  0  0  0999 V2000
    9.1196  -15.4660   20.4049 N   0  0  0  0  0  0  0  0  0  0  0  0
    8.1734  -15.8862   21.3874 C   0  0  0  0  0  0  0  0  0  0  0  0
    8.3297  -15.0424   22.6008 C   0  0  0  0  0  0  0  0  0  0  0  0
    9.3293  -14.2843   22.6868 O   0  0  0  0  0  0  0  0  0  0  0  0
    7.4028  -15.0538   23.6656 N   0  0  0  0  0  0  0  0  0  0  0  0
    7.7093  -14.2322   24.8422 C   0  0  1  0  0  0  0  0  0  0  0  0
    6.4040  -13.9552   25.5971 C   0  0  0  0  0  0  0  0  0  0  0  0
    6.6927  -12.9350   27.0330 S   0  0  0  0  0  0  0  0  0  0  0  0
    8.5373  -15.0996   25.7171 C   0  0  0  0  0  0  0  0  0  0  0  0
    8.5177  -16.3788   25.5829 O   0  0  0  0  0  0  0  0  0  0  0  0
    9.3995  -14.6247   26.7453 N   0  0  0  0  0  0  0  0  0  0  0  0
   10.4564  -15.4896   27.2985 C   0  0  1  0  0  0  0  0  0  0  0  0
   11.2728  -14.7243   28.3187 C   0  0  0  0  0  0  0  0  0  0  0  0
   10.5919  -13.0688   28.5911 S   0  0  0  0  0  0  0  0  0  0  0  0
    9.8365  -16.7049   27.8543 C   0  0  0  0  0  0  0  0  0  0  0  0
   10.6062  -17.7228   28.3675 O   0  0  0  0  0  0  0  0  0  0  0  0
    8.5954  -16.8137   27.8603 O   0  0  0  0  0  0  0  0  0  0  0  0
  1  2  1  0
  2  3  1  0
  3  4  2  0
  3  5  1  0
  5  6  1  0
  6  7  1  1
  8  7  1  0
  9 11  1  0
  9  6  1  0
 10  9  2  0
 12 11  1  0
 12 15  1  0
 12 13  1  1
 14 13  1  0
 15 16  1  0
 17 15  2  0
M  END
$$$$
