GCC.pdb
     RDKit          3D

 17 16  0  0  1  0  0  0  0  0999 V2000
    4.8018  -19.0419   21.6762 N   0  0  0  0  0  0  0  0  0  0  0  0
    5.0076  -18.4707   22.9681 C   0  0  0  0  0  0  0  0  0  0  0  0
    6.2099  -17.5980   22.9246 C   0  0  0  0  0  0  0  0  0  0  0  0
    6.8450  -17.4952   21.8442 O   0  0  0  0  0  0  0  0  0  0  0  0
    6.6727  -16.8763   24.0462 N   0  0  0  0  0  0  0  0  0  0  0  0
    7.8299  -15.9943   23.8565 C   0  0  1  0  0  0  0  0  0  0  0  0
    7.7074  -14.8134   24.8265 C   0  0  0  0  0  0  0  0  0  0  0  0
    7.1810  -15.3576   26.4428 S   0  0  0  0  0  0  0  0  0  0  0  0
    9.0027  -16.7918   24.2947 C   0  0  0  0  0  0  0  0  0  0  0  0
    8.8525  -17.8187   25.0546 O   0  0  0  0  0  0  0  0  0  0  0  0
   10.3510  -16.5145   23.9325 N   0  0  0  0  0  0  0  0  0  0  0  0
   11.4081  -17.5186   24.1464 C   0  0  1  0  0  0  0  0  0  0  0  0
   12.4076  -17.4707   23.0100 C   0  0  0  0  0  0  0  0  0  0  0  0
   11.5963  -17.7448   21.4146 S   0  0  0  0  0  0  0  0  0  0  0  0
   12.0256  -17.2884   25.4639 C   0  0  0  0  0  0  0  0  0  0  0  0
   11.6717  -16.2047   26.2336 O   0  0  0  0  0  0  0  0  0  0  0  0
   12.8820  -18.0871   25.8891 O   0  0  0  0  0  0  0  0  0  0  0  0
  1  2  1  0
  2  3  1  0
  3  4  2  0
  3  5  1  0
  5  6  1  0
  6  7  1  1
  8  7  1  0
  9 11  1  0
  9  6  1  0
 10  9  2  0
 12 11  1  0
 12 15  1  0
 12 13  1  6
 14 13  1  0
 15 16  1  0
 17 15  2  0
M  END
$$$$
