GCC.pdb
     RDKit          3D

 17 16  0  0  1  0  0  0  0  0999 V2000
    6.4461  -18.4711   19.3917 N   0  0  0  0  0  0  0  0  0  0  0  0
    6.2984  -19.0143   20.7033 C   0  0  0  0  0  0  0  0  0  0  0  0
    7.2408  -18.3232   21.6216 C   0  0  0  0  0  0  0  0  0  0  0  0
    8.0452  -17.4829   21.1439 O   0  0  0  0  0  0  0  0  0  0  0  0
    7.2735  -18.5685   23.0115 N   0  0  0  0  0  0  0  0  0  0  0  0
    8.2668  -17.8382   23.8072 C   0  0  1  0  0  0  0  0  0  0  0  0
    7.5277  -16.9646   24.8275 C   0  0  0  0  0  0  0  0  0  0  0  0
    5.9535  -17.6802   25.2698 S   0  0  0  0  0  0  0  0  0  0  0  0
    8.9910  -18.8805   24.5770 C   0  0  0  0  0  0  0  0  0  0  0  0
    8.4548  -20.0296   24.7931 O   0  0  0  0  0  0  0  0  0  0  0  0
   10.2942  -18.7217   25.1268 N   0  0  0  0  0  0  0  0  0  0  0  0
   10.9742  -19.8505   25.7862 C   0  0  1  0  0  0  0  0  0  0  0  0
   12.4398  -19.8676   25.4064 C   0  0  0  0  0  0  0  0  0  0  0  0
   12.6482  -19.9982   23.6126 S   0  0  0  0  0  0  0  0  0  0  0  0
   10.7592  -19.7535   27.2404 C   0  0  0  0  0  0  0  0  0  0  0  0
   11.1943  -20.7444   28.0895 O   0  0  0  0  0  0  0  0  0  0  0  0
   10.1740  -18.7589   27.7100 O   0  0  0  0  0  0  0  0  0  0  0  0
  1  2  1  0
  2  3  1  0
  3  4  2  0
  3  5  1  0
  5  6  1  0
  6  7  1  1
  8  7  1  0
  9 11  1  0
  9  6  1  0
 10  9  2  0
 12 11  1  0
 12 15  1  0
 12 13  1  1
 14 13  1  0
 15 16  1  0
 17 15  2  0
M  END
$$$$
