GCC.pdb
     RDKit          3D

 17 16  0  0  1  0  0  0  0  0999 V2000
    6.3781  -19.1671   19.2288 N   0  0  0  0  0  0  0  0  0  0  0  0
    6.0348  -17.9540   19.8981 C   0  0  0  0  0  0  0  0  0  0  0  0
    7.2093  -17.0434   19.8807 C   0  0  0  0  0  0  0  0  0  0  0  0
    8.3193  -17.4938   19.4982 O   0  0  0  0  0  0  0  0  0  0  0  0
    7.1345  -15.6902   20.2758 N   0  0  0  0  0  0  0  0  0  0  0  0
    8.3781  -14.9112   20.2711 C   0  0  1  0  0  0  0  0  0  0  0  0
    8.0220  -13.4246   20.1549 C   0  0  0  0  0  0  0  0  0  0  0  0
    7.4041  -13.0342   18.5265 S   0  0  0  0  0  0  0  0  0  0  0  0
    8.9660  -15.1092   21.6198 C   0  0  0  0  0  0  0  0  0  0  0  0
    8.2239  -15.0861   22.6702 O   0  0  0  0  0  0  0  0  0  0  0  0
   10.3477  -15.3366   21.8750 N   0  0  0  0  0  0  0  0  0  0  0  0
   10.7893  -15.9202   23.1539 C   0  0  1  0  0  0  0  0  0  0  0  0
   10.1412  -17.2733   23.3588 C   0  0  0  0  0  0  0  0  0  0  0  0
   10.5465  -17.9516   24.9879 S   0  0  0  0  0  0  0  0  0  0  0  0
   12.2612  -15.9808   23.1679 C   0  0  0  0  0  0  0  0  0  0  0  0
   12.9858  -15.8969   22.0017 O   0  0  0  0  0  0  0  0  0  0  0  0
   12.8605  -16.1101   24.2524 O   0  0  0  0  0  0  0  0  0  0  0  0
  1  2  1  0
  2  3  1  0
  3  4  2  0
  3  5  1  0
  5  6  1  0
  6  7  1  1
  8  7  1  0
  9 11  1  0
  9  6  1  0
 10  9  2  0
 12 11  1  0
 12 15  1  0
 12 13  1  6
 14 13  1  0
 15 16  1  0
 17 15  2  0
M  END
$$$$
