GCC.pdb
     RDKit          3D

 17 16  0  0  1  0  0  0  0  0999 V2000
    5.0957  -19.9090   22.9736 N   0  0  0  0  0  0  0  0  0  0  0  0
    4.7289  -18.5529   22.7211 C   0  0  0  0  0  0  0  0  0  0  0  0
    5.9395  -17.7925   22.3146 C   0  0  0  0  0  0  0  0  0  0  0  0
    7.0320  -18.4057   22.2069 O   0  0  0  0  0  0  0  0  0  0  0  0
    5.9178  -16.4074   22.0428 N   0  0  0  0  0  0  0  0  0  0  0  0
    7.1471  -15.7976   21.5228 C   0  0  1  0  0  0  0  0  0  0  0  0
    6.7839  -14.4743   20.8392 C   0  0  0  0  0  0  0  0  0  0  0  0
    5.8411  -14.7546   19.3498 S   0  0  0  0  0  0  0  0  0  0  0  0
    7.9499  -15.4560   22.7238 C   0  0  0  0  0  0  0  0  0  0  0  0
    7.4132  -14.8473   23.7219 O   0  0  0  0  0  0  0  0  0  0  0  0
    9.3318  -15.7560   22.8859 N   0  0  0  0  0  0  0  0  0  0  0  0
    9.9810  -15.6194   24.2017 C   0  0  1  0  0  0  0  0  0  0  0  0
    9.2897  -16.5054   25.2165 C   0  0  0  0  0  0  0  0  0  0  0  0
    8.2213  -15.5353   26.3101 S   0  0  0  0  0  0  0  0  0  0  0  0
   11.4159  -15.9209   24.0595 C   0  0  0  0  0  0  0  0  0  0  0  0
   11.9214  -16.4276   22.8849 O   0  0  0  0  0  0  0  0  0  0  0  0
   12.1850  -15.7141   25.0176 O   0  0  0  0  0  0  0  0  0  0  0  0
  1  2  1  0
  2  3  1  0
  3  4  2  0
  3  5  1  0
  5  6  1  0
  6  7  1  1
  8  7  1  0
  9 11  1  0
  9  6  1  0
 10  9  2  0
 12 11  1  0
 12 15  1  0
 12 13  1  1
 14 13  1  0
 15 16  1  0
 17 15  2  0
M  END
$$$$
