CCQ.pdb
     RDKit          3D

 22 21  0  0  1  0  0  0  0  0999 V2000
   30.2334  -22.9579  -17.0150 N   0  0  0  0  0  0  0  0  0  0  0  0
   29.2844  -21.9222  -17.2728 C   0  0  1  0  0  0  0  0  0  0  0  0
   28.2864  -22.4210  -18.2955 C   0  0  0  0  0  0  0  0  0  0  0  0
   29.0478  -22.4324  -19.9490 S   0  0  0  0  0  0  0  0  0  0  0  0
   28.4913  -21.5707  -16.0496 C   0  0  0  0  0  0  0  0  0  0  0  0
   28.5833  -22.3636  -15.0778 O   0  0  0  0  0  0  0  0  0  0  0  0
   27.6850  -20.4196  -15.9813 N   0  0  0  0  0  0  0  0  0  0  0  0
   26.9176  -20.1240  -14.7653 C   0  0  1  0  0  0  0  0  0  0  0  0
   27.0178  -18.6115  -14.6057 C   0  0  0  0  0  0  0  0  0  0  0  0
   26.5701  -17.7076  -16.0823 S   0  0  0  0  0  0  0  0  0  0  0  0
   25.4918  -20.5270  -14.9677 C   0  0  0  0  0  0  0  0  0  0  0  0
   24.9883  -20.4543  -16.1409 O   0  0  0  0  0  0  0  0  0  0  0  0
   22.5661  -25.1754  -14.5426 N   0  0  0  0  0  0  0  0  0  0  0  0
   21.4018  -24.4579  -14.1645 C   0  0  0  0  0  0  0  0  0  0  0  0
   20.2822  -24.9858  -14.3171 O   0  0  0  0  0  0  0  0  0  0  0  0
   21.5429  -23.1114  -13.6043 C   0  0  0  0  0  0  0  0  0  0  0  0
   22.9472  -22.6359  -13.5742 C   0  0  0  0  0  0  0  0  0  0  0  0
   23.2292  -21.3247  -14.2191 C   0  0  2  0  0  0  0  0  0  0  0  0
   24.6344  -20.9915  -13.9568 N   0  0  0  0  0  0  0  0  0  0  0  0
   22.3427  -20.2205  -13.8034 C   0  0  0  0  0  0  0  0  0  0  0  0
   21.2002  -20.1011  -14.3045 O   0  0  0  0  0  0  0  0  0  0  0  0
   22.7172  -19.2667  -12.8495 O   0  0  0  0  0  0  0  0  0  0  0  0
  2  1  1  1
  2  5  1  0
  2  3  1  0
  4  3  1  0
  5  6  2  0
  7  8  1  0
  7  5  1  0
  8 11  1  0
  9 10  1  0
  8  9  1  6
 11 12  2  0
 11 19  1  0
 13 14  1  0
 14 15  2  0
 16 17  1  0
 16 14  1  0
 18 20  1  0
 18 17  1  1
 19 18  1  0
 20 22  1  0
 21 20  2  0
M  END
$$$$
