CCQ.pdb
     RDKit          3D

 22 21  0  0  1  0  0  0  0  0999 V2000
   19.7150  -10.6128  -16.5037 N   0  0  0  0  0  0  0  0  0  0  0  0
   18.7048   -9.8643  -15.8262 C   0  0  1  0  0  0  0  0  0  0  0  0
   17.4044  -10.6362  -15.8876 C   0  0  0  0  0  0  0  0  0  0  0  0
   16.6640  -10.4710  -17.5424 S   0  0  0  0  0  0  0  0  0  0  0  0
   19.0191   -9.6872  -14.3707 C   0  0  0  0  0  0  0  0  0  0  0  0
   19.9776  -10.3653  -13.9200 O   0  0  0  0  0  0  0  0  0  0  0  0
   18.2887   -8.8132  -13.5446 N   0  0  0  0  0  0  0  0  0  0  0  0
   18.9136   -8.2236  -12.3542 C   0  0  1  0  0  0  0  0  0  0  0  0
   20.1300   -7.4768  -12.8886 C   0  0  0  0  0  0  0  0  0  0  0  0
   20.9967   -6.5379  -11.6374 S   0  0  0  0  0  0  0  0  0  0  0  0
   17.9599   -7.2646  -11.7162 C   0  0  0  0  0  0  0  0  0  0  0  0
   17.5397   -6.2654  -12.3948 O   0  0  0  0  0  0  0  0  0  0  0  0
   13.5698   -9.1293   -8.0816 N   0  0  0  0  0  0  0  0  0  0  0  0
   13.3071   -7.7400   -7.9630 C   0  0  0  0  0  0  0  0  0  0  0  0
   12.3133   -7.3593   -7.3125 O   0  0  0  0  0  0  0  0  0  0  0  0
   14.2101   -6.7843   -8.6096 C   0  0  0  0  0  0  0  0  0  0  0  0
   15.4133   -7.4230   -9.1958 C   0  0  0  0  0  0  0  0  0  0  0  0
   16.3651   -6.5344   -9.9164 C   0  0  2  0  0  0  0  0  0  0  0  0
   17.4713   -7.3672  -10.4034 N   0  0  0  0  0  0  0  0  0  0  0  0
   16.8745   -5.3951   -9.1288 C   0  0  0  0  0  0  0  0  0  0  0  0
   17.9657   -5.4829   -8.5187 O   0  0  0  0  0  0  0  0  0  0  0  0
   16.1857   -4.1811   -9.0204 O   0  0  0  0  0  0  0  0  0  0  0  0
  2  1  1  6
  2  5  1  0
  2  3  1  0
  4  3  1  0
  5  6  2  0
  7  8  1  0
  7  5  1  0
  8 11  1  0
  9 10  1  0
  8  9  1  6
 11 12  2  0
 11 19  1  0
 13 14  1  0
 14 15  2  0
 16 17  1  0
 16 14  1  0
 18 20  1  0
 18 17  1  1
 19 18  1  0
 20 22  1  0
 21 20  2  0
M  END
$$$$
