CCQ.pdb
     RDKit          3D

 22 21  0  0  1  0  0  0  0  0999 V2000
   31.9657  -25.2447  -17.3037 N   0  0  0  0  0  0  0  0  0  0  0  0
   31.6153  -26.5917  -16.9836 C   0  0  1  0  0  0  0  0  0  0  0  0
   31.2442  -26.6624  -15.5180 C   0  0  0  0  0  0  0  0  0  0  0  0
   32.5638  -25.9179  -14.5088 S   0  0  0  0  0  0  0  0  0  0  0  0
   30.4084  -27.0535  -17.7445 C   0  0  0  0  0  0  0  0  0  0  0  0
   29.8134  -26.1826  -18.4294 O   0  0  0  0  0  0  0  0  0  0  0  0
   29.9571  -28.3856  -17.7023 N   0  0  0  0  0  0  0  0  0  0  0  0
   29.0942  -28.9094  -18.7682 C   0  0  1  0  0  0  0  0  0  0  0  0
   29.9815  -28.9272  -20.0073 C   0  0  0  0  0  0  0  0  0  0  0  0
   31.5437  -29.7597  -19.7536 S   0  0  0  0  0  0  0  0  0  0  0  0
   28.6655  -30.2996  -18.4218 C   0  0  0  0  0  0  0  0  0  0  0  0
   29.4196  -31.0118  -17.6738 O   0  0  0  0  0  0  0  0  0  0  0  0
   27.9434  -32.4264  -14.7433 N   0  0  0  0  0  0  0  0  0  0  0  0
   26.5357  -32.5959  -14.6871 C   0  0  0  0  0  0  0  0  0  0  0  0
   26.0392  -33.2855  -13.7742 O   0  0  0  0  0  0  0  0  0  0  0  0
   25.6979  -31.9568  -15.7051 C   0  0  0  0  0  0  0  0  0  0  0  0
   26.4785  -31.1903  -16.7063 C   0  0  0  0  0  0  0  0  0  0  0  0
   26.7321  -31.8527  -18.0146 C   0  0  2  0  0  0  0  0  0  0  0  0
   27.4764  -30.9080  -18.8561 N   0  0  0  0  0  0  0  0  0  0  0  0
   25.5263  -32.3386  -18.7130 C   0  0  0  0  0  0  0  0  0  0  0  0
   24.9394  -33.3739  -18.3200 O   0  0  0  0  0  0  0  0  0  0  0  0
   24.9820  -31.6877  -19.8266 O   0  0  0  0  0  0  0  0  0  0  0  0
  2  1  1  6
  2  5  1  0
  2  3  1  0
  4  3  1  0
  5  6  2  0
  7  8  1  0
  7  5  1  0
  8 11  1  0
  9 10  1  0
  8  9  1  6
 11 12  2  0
 11 19  1  0
 13 14  1  0
 14 15  2  0
 16 17  1  0
 16 14  1  0
 18 20  1  0
 18 17  1  1
 19 18  1  0
 20 22  1  0
 21 20  2  0
M  END
$$$$
