CCQ.pdb
     RDKit          3D

 22 21  0  0  1  0  0  0  0  0999 V2000
   28.5165  -20.9404  -15.7770 N   0  0  0  0  0  0  0  0  0  0  0  0
   28.0461  -20.1132  -14.7121 C   0  0  1  0  0  0  0  0  0  0  0  0
   27.4329  -18.8619  -15.3030 C   0  0  0  0  0  0  0  0  0  0  0  0
   28.7118  -17.5825  -15.5064 S   0  0  0  0  0  0  0  0  0  0  0  0
   26.9599  -20.7795  -13.9217 C   0  0  0  0  0  0  0  0  0  0  0  0
   26.2531  -21.6164  -14.5395 O   0  0  0  0  0  0  0  0  0  0  0  0
   26.7344  -20.4923  -12.5628 N   0  0  0  0  0  0  0  0  0  0  0  0
   25.6535  -21.1661  -11.8329 C   0  0  1  0  0  0  0  0  0  0  0  0
   25.8648  -20.7660  -10.3775 C   0  0  0  0  0  0  0  0  0  0  0  0
   24.4280  -21.0368   -9.3477 S   0  0  0  0  0  0  0  0  0  0  0  0
   24.3338  -20.6585  -12.3200 C   0  0  0  0  0  0  0  0  0  0  0  0
   24.1790  -19.4006  -12.4908 O   0  0  0  0  0  0  0  0  0  0  0  0
   21.4454  -22.3249  -17.0600 N   0  0  0  0  0  0  0  0  0  0  0  0
   20.4199  -21.4802  -16.5619 C   0  0  0  0  0  0  0  0  0  0  0  0
   19.4457  -21.2065  -17.2909 O   0  0  0  0  0  0  0  0  0  0  0  0
   20.5308  -20.9478  -15.2013 C   0  0  0  0  0  0  0  0  0  0  0  0
   21.7859  -21.3458  -14.5193 C   0  0  0  0  0  0  0  0  0  0  0  0
   21.9604  -20.8960  -13.1115 C   0  0  2  0  0  0  0  0  0  0  0  0
   23.2204  -21.4622  -12.6151 N   0  0  0  0  0  0  0  0  0  0  0  0
   20.8437  -21.2295  -12.2061 C   0  0  0  0  0  0  0  0  0  0  0  0
   20.7787  -22.3596  -11.6684 O   0  0  0  0  0  0  0  0  0  0  0  0
   19.8184  -20.3256  -11.9033 O   0  0  0  0  0  0  0  0  0  0  0  0
  2  1  1  6
  2  5  1  0
  2  3  1  0
  4  3  1  0
  5  6  2  0
  7  8  1  0
  7  5  1  0
  8 11  1  0
  9 10  1  0
  8  9  1  1
 11 12  2  0
 11 19  1  0
 13 14  1  0
 14 15  2  0
 16 17  1  0
 16 14  1  0
 18 20  1  0
 18 17  1  6
 19 18  1  0
 20 22  1  0
 21 20  2  0
M  END
$$$$
