CCQ.pdb
     RDKit          3D

 22 21  0  0  1  0  0  0  0  0999 V2000
   26.9520  -15.9589  -15.3529 N   0  0  0  0  0  0  0  0  0  0  0  0
   25.8267  -15.2086  -15.8115 C   0  0  1  0  0  0  0  0  0  0  0  0
   24.5966  -15.6678  -15.0586 C   0  0  0  0  0  0  0  0  0  0  0  0
   24.1043  -17.3249  -15.6294 S   0  0  0  0  0  0  0  0  0  0  0  0
   25.9730  -13.7445  -15.5224 C   0  0  0  0  0  0  0  0  0  0  0  0
   26.4549  -13.4424  -14.4007 O   0  0  0  0  0  0  0  0  0  0  0  0
   25.5954  -12.7538  -16.4476 N   0  0  0  0  0  0  0  0  0  0  0  0
   25.7541  -11.3324  -16.1168 C   0  0  1  0  0  0  0  0  0  0  0  0
   26.7282  -10.8010  -17.1617 C   0  0  0  0  0  0  0  0  0  0  0  0
   27.9465   -9.6753  -16.4934 S   0  0  0  0  0  0  0  0  0  0  0  0
   24.4337  -10.6422  -16.2457 C   0  0  0  0  0  0  0  0  0  0  0  0
   23.4848  -11.2320  -16.8679 O   0  0  0  0  0  0  0  0  0  0  0  0
   19.8926  -11.2146  -15.9844 N   0  0  0  0  0  0  0  0  0  0  0  0
   19.4746   -9.9997  -15.3822 C   0  0  0  0  0  0  0  0  0  0  0  0
   18.2568   -9.7396  -15.3122 O   0  0  0  0  0  0  0  0  0  0  0  0
   20.4852   -9.0777  -14.8573 C   0  0  0  0  0  0  0  0  0  0  0  0
   21.8709   -9.5844  -15.0060 C   0  0  0  0  0  0  0  0  0  0  0  0
   22.7979   -8.7769  -15.8447 C   0  0  2  0  0  0  0  0  0  0  0  0
   24.1354   -9.3705  -15.7294 N   0  0  0  0  0  0  0  0  0  0  0  0
   22.8348   -7.3365  -15.5256 C   0  0  0  0  0  0  0  0  0  0  0  0
   23.8138   -6.8467  -14.9155 O   0  0  0  0  0  0  0  0  0  0  0  0
   21.8045   -6.4563  -15.8772 O   0  0  0  0  0  0  0  0  0  0  0  0
  2  1  1  1
  2  5  1  0
  2  3  1  0
  4  3  1  0
  5  6  2  0
  7  8  1  0
  7  5  1  0
  8 11  1  0
  9 10  1  0
  8  9  1  6
 11 12  2  0
 11 19  1  0
 13 14  1  0
 14 15  2  0
 16 17  1  0
 16 14  1  0
 18 20  1  0
 18 17  1  1
 19 18  1  0
 20 22  1  0
 21 20  2  0
M  END
$$$$
