CCQ.pdb
     RDKit          3D

 22 21  0  0  1  0  0  0  0  0999 V2000
   25.0758  -16.5784  -16.6710 N   0  0  0  0  0  0  0  0  0  0  0  0
   24.8187  -15.6304  -15.6343 C   0  0  1  0  0  0  0  0  0  0  0  0
   26.0677  -14.8056  -15.4090 C   0  0  0  0  0  0  0  0  0  0  0  0
   27.4512  -15.8926  -14.9419 S   0  0  0  0  0  0  0  0  0  0  0  0
   23.7394  -14.6614  -16.0151 C   0  0  0  0  0  0  0  0  0  0  0  0
   23.6075  -14.4273  -17.2437 O   0  0  0  0  0  0  0  0  0  0  0  0
   22.9134  -14.0419  -15.0592 N   0  0  0  0  0  0  0  0  0  0  0  0
   21.7954  -13.1916  -15.4860 C   0  0  1  0  0  0  0  0  0  0  0  0
   20.5927  -13.7220  -14.7146 C   0  0  0  0  0  0  0  0  0  0  0  0
   20.0409  -15.3293  -15.2713 S   0  0  0  0  0  0  0  0  0  0  0  0
   22.0727  -11.7746  -15.0968 C   0  0  0  0  0  0  0  0  0  0  0  0
   22.5795  -11.5360  -13.9472 O   0  0  0  0  0  0  0  0  0  0  0  0
   23.5750   -7.2531  -18.9133 N   0  0  0  0  0  0  0  0  0  0  0  0
   23.4378   -6.4743  -17.7352 C   0  0  0  0  0  0  0  0  0  0  0  0
   23.7366   -5.2638  -17.7646 O   0  0  0  0  0  0  0  0  0  0  0  0
   22.9489   -7.1121  -16.5100 C   0  0  0  0  0  0  0  0  0  0  0  0
   22.6373   -8.5513  -16.6855 C   0  0  0  0  0  0  0  0  0  0  0  0
   22.1752   -9.2931  -15.4810 C   0  0  2  0  0  0  0  0  0  0  0  0
   21.8199  -10.6530  -15.9036 N   0  0  0  0  0  0  0  0  0  0  0  0
   21.0587   -8.6633  -14.7497 C   0  0  0  0  0  0  0  0  0  0  0  0
   19.8736   -8.8688  -15.1016 O   0  0  0  0  0  0  0  0  0  0  0  0
   21.2540   -7.8212  -13.6484 O   0  0  0  0  0  0  0  0  0  0  0  0
  2  1  1  6
  2  5  1  0
  2  3  1  0
  4  3  1  0
  5  6  2  0
  7  8  1  0
  7  5  1  0
  8 11  1  0
  9 10  1  0
  8  9  1  1
 11 12  2  0
 11 19  1  0
 13 14  1  0
 14 15  2  0
 16 17  1  0
 16 14  1  0
 18 20  1  0
 18 17  1  6
 19 18  1  0
 20 22  1  0
 21 20  2  0
M  END
$$$$
