CCQ.pdb
     RDKit          3D

 22 21  0  0  1  0  0  0  0  0999 V2000
   22.2074  -14.0341  -17.3107 N   0  0  0  0  0  0  0  0  0  0  0  0
   22.8383  -12.7560  -17.2205 C   0  0  1  0  0  0  0  0  0  0  0  0
   23.1014  -12.2439  -18.6203 C   0  0  0  0  0  0  0  0  0  0  0  0
   24.4151  -13.2310  -19.4038 S   0  0  0  0  0  0  0  0  0  0  0  0
   21.9548  -11.7394  -16.5612 C   0  0  0  0  0  0  0  0  0  0  0  0
   20.7233  -11.8324  -16.7985 O   0  0  0  0  0  0  0  0  0  0  0  0
   22.4643  -10.7321  -15.7212 N   0  0  0  0  0  0  0  0  0  0  0  0
   21.5566   -9.7719  -15.0814 C   0  0  1  0  0  0  0  0  0  0  0  0
   22.0454   -9.6822  -13.6406 C   0  0  0  0  0  0  0  0  0  0  0  0
   21.1926   -8.4424  -12.6743 S   0  0  0  0  0  0  0  0  0  0  0  0
   21.6869   -8.4422  -15.7531 C   0  0  0  0  0  0  0  0  0  0  0  0
   22.8496   -8.0298  -16.0899 O   0  0  0  0  0  0  0  0  0  0  0  0
   19.0030   -6.3103  -20.4692 N   0  0  0  0  0  0  0  0  0  0  0  0
   19.4971   -5.0557  -20.0276 C   0  0  0  0  0  0  0  0  0  0  0  0
   19.3470   -4.0508  -20.7509 O   0  0  0  0  0  0  0  0  0  0  0  0
   20.1742   -4.9707  -18.7310 C   0  0  0  0  0  0  0  0  0  0  0  0
   20.1737   -6.2536  -17.9871 C   0  0  0  0  0  0  0  0  0  0  0  0
   20.8258   -6.2579  -16.6494 C   0  0  2  0  0  0  0  0  0  0  0  0
   20.6170   -7.5838  -16.0555 N   0  0  0  0  0  0  0  0  0  0  0  0
   20.3734   -5.1953  -15.7305 C   0  0  0  0  0  0  0  0  0  0  0  0
   19.5092   -5.4382  -14.8561 O   0  0  0  0  0  0  0  0  0  0  0  0
   20.8710   -3.8877  -15.7812 O   0  0  0  0  0  0  0  0  0  0  0  0
  2  1  1  6
  2  5  1  0
  2  3  1  0
  4  3  1  0
  5  6  2  0
  7  8  1  0
  7  5  1  0
  8 11  1  0
  9 10  1  0
  8  9  1  1
 11 12  2  0
 11 19  1  0
 13 14  1  0
 14 15  2  0
 16 17  1  0
 16 14  1  0
 18 20  1  0
 18 17  1  6
 19 18  1  0
 20 22  1  0
 21 20  2  0
M  END
$$$$
