CCQ.pdb
     RDKit          3D

 22 21  0  0  1  0  0  0  0  0999 V2000
   28.8196  -21.0863  -15.7661 N   0  0  0  0  0  0  0  0  0  0  0  0
   28.1138  -20.2115  -14.8852 C   0  0  1  0  0  0  0  0  0  0  0  0
   27.1283  -19.3971  -15.6954 C   0  0  0  0  0  0  0  0  0  0  0  0
   27.9722  -18.6455  -17.1227 S   0  0  0  0  0  0  0  0  0  0  0  0
   27.3029  -20.9669  -13.8750 C   0  0  0  0  0  0  0  0  0  0  0  0
   27.8657  -21.9512  -13.3308 O   0  0  0  0  0  0  0  0  0  0  0  0
   25.9840  -20.6038  -13.5458 N   0  0  0  0  0  0  0  0  0  0  0  0
   25.3517  -21.1320  -12.3307 C   0  0  1  0  0  0  0  0  0  0  0  0
   26.1582  -20.5312  -11.1855 C   0  0  0  0  0  0  0  0  0  0  0  0
   25.7094  -21.1794   -9.5803 S   0  0  0  0  0  0  0  0  0  0  0  0
   23.9338  -20.6615  -12.2642 C   0  0  0  0  0  0  0  0  0  0  0  0
   23.6904  -19.4110  -12.3753 O   0  0  0  0  0  0  0  0  0  0  0  0
   21.0435  -25.2563  -14.6125 N   0  0  0  0  0  0  0  0  0  0  0  0
   20.1322  -24.2500  -15.0253 C   0  0  0  0  0  0  0  0  0  0  0  0
   19.2237  -24.5407  -15.8288 O   0  0  0  0  0  0  0  0  0  0  0  0
   20.2814  -22.8911  -14.4980 C   0  0  0  0  0  0  0  0  0  0  0  0
   21.4230  -22.7503  -13.5621 C   0  0  0  0  0  0  0  0  0  0  0  0
   21.6357  -21.4084  -12.9548 C   0  0  2  0  0  0  0  0  0  0  0  0
   22.8162  -21.4935  -12.0867 N   0  0  0  0  0  0  0  0  0  0  0  0
   20.4792  -20.8672  -12.2148 C   0  0  0  0  0  0  0  0  0  0  0  0
   20.3554  -21.0816  -10.9862 O   0  0  0  0  0  0  0  0  0  0  0  0
   19.4789  -20.1025  -12.8268 O   0  0  0  0  0  0  0  0  0  0  0  0
  2  1  1  6
  2  5  1  0
  2  3  1  0
  4  3  1  0
  5  6  2  0
  7  8  1  0
  7  5  1  0
  8 11  1  0
  9 10  1  0
  8  9  1  1
 11 12  2  0
 11 19  1  0
 13 14  1  0
 14 15  2  0
 16 17  1  0
 16 14  1  0
 18 20  1  0
 18 17  1  1
 19 18  1  0
 20 22  1  0
 21 20  2  0
M  END
$$$$
