CCQ.pdb
     RDKit          3D

 22 21  0  0  1  0  0  0  0  0999 V2000
   18.3715  -12.5226  -17.7282 N   0  0  0  0  0  0  0  0  0  0  0  0
   19.5025  -11.7380  -17.3476 C   0  0  1  0  0  0  0  0  0  0  0  0
   20.2135  -11.2707  -18.5994 C   0  0  0  0  0  0  0  0  0  0  0  0
   21.2274  -12.6225  -19.2766 S   0  0  0  0  0  0  0  0  0  0  0  0
   19.1012  -10.4982  -16.6056 C   0  0  0  0  0  0  0  0  0  0  0  0
   18.1736   -9.8185  -17.1149 O   0  0  0  0  0  0  0  0  0  0  0  0
   19.7212  -10.1066  -15.4048 N   0  0  0  0  0  0  0  0  0  0  0  0
   19.2828   -8.8919  -14.7067 C   0  0  1  0  0  0  0  0  0  0  0  0
   18.9505   -9.3588  -13.2944 C   0  0  0  0  0  0  0  0  0  0  0  0
   17.4851  -10.3803  -13.2075 S   0  0  0  0  0  0  0  0  0  0  0  0
   20.4069   -7.9061  -14.6719 C   0  0  0  0  0  0  0  0  0  0  0  0
   21.6006   -8.3338  -14.5057 O   0  0  0  0  0  0  0  0  0  0  0  0
   20.7739   -2.5922  -17.6626 N   0  0  0  0  0  0  0  0  0  0  0  0
   21.7638   -2.3178  -16.6838 C   0  0  0  0  0  0  0  0  0  0  0  0
   22.3814   -1.2350  -16.7261 O   0  0  0  0  0  0  0  0  0  0  0  0
   22.0382   -3.3150  -15.6460 C   0  0  0  0  0  0  0  0  0  0  0  0
   21.1636   -4.5091  -15.7381 C   0  0  0  0  0  0  0  0  0  0  0  0
   21.4148   -5.6058  -14.7639 C   0  0  2  0  0  0  0  0  0  0  0  0
   20.2640   -6.5157  -14.8101 N   0  0  0  0  0  0  0  0  0  0  0  0
   21.6782   -5.1643  -13.3806 C   0  0  0  0  0  0  0  0  0  0  0  0
   22.7554   -4.5927  -13.0913 O   0  0  0  0  0  0  0  0  0  0  0  0
   20.7634   -5.3537  -12.3379 O   0  0  0  0  0  0  0  0  0  0  0  0
  2  1  1  6
  2  5  1  0
  2  3  1  0
  4  3  1  0
  5  6  2  0
  7  8  1  0
  7  5  1  0
  8 11  1  0
  9 10  1  0
  8  9  1  1
 11 12  2  0
 11 19  1  0
 13 14  1  0
 14 15  2  0
 16 17  1  0
 16 14  1  0
 18 20  1  0
 18 17  1  6
 19 18  1  0
 20 22  1  0
 21 20  2  0
M  END
$$$$
