CCQ.pdb
     RDKit          3D

 22 21  0  0  1  0  0  0  0  0999 V2000
   26.3347  -13.3022  -17.0260 N   0  0  0  0  0  0  0  0  0  0  0  0
   26.1479  -12.0025  -16.4644 C   0  0  1  0  0  0  0  0  0  0  0  0
   27.4442  -11.2303  -16.5838 C   0  0  0  0  0  0  0  0  0  0  0  0
   28.7704  -12.1064  -15.6962 S   0  0  0  0  0  0  0  0  0  0  0  0
   25.1176  -11.2105  -17.2128 C   0  0  0  0  0  0  0  0  0  0  0  0
   24.6306  -11.7547  -18.2366 O   0  0  0  0  0  0  0  0  0  0  0  0
   24.7102   -9.9280  -16.8016 N   0  0  0  0  0  0  0  0  0  0  0  0
   23.5498   -9.2831  -17.4284 C   0  0  1  0  0  0  0  0  0  0  0  0
   22.3669  -10.1649  -17.0461 C   0  0  0  0  0  0  0  0  0  0  0  0
   20.7794   -9.4045  -17.3619 S   0  0  0  0  0  0  0  0  0  0  0  0
   23.3756   -7.9119  -16.8577 C   0  0  0  0  0  0  0  0  0  0  0  0
   22.4524   -7.1598  -17.3240 O   0  0  0  0  0  0  0  0  0  0  0  0
   24.0002   -3.5776  -18.8828 N   0  0  0  0  0  0  0  0  0  0  0  0
   23.7808   -2.8968  -17.6574 C   0  0  0  0  0  0  0  0  0  0  0  0
   23.5853   -1.6651  -17.6691 O   0  0  0  0  0  0  0  0  0  0  0  0
   23.7904   -3.6580  -16.4054 C   0  0  0  0  0  0  0  0  0  0  0  0
   23.9400   -5.1189  -16.6117 C   0  0  0  0  0  0  0  0  0  0  0  0
   24.0033   -5.9692  -15.3920 C   0  0  2  0  0  0  0  0  0  0  0  0
   24.1561   -7.3627  -15.8272 N   0  0  0  0  0  0  0  0  0  0  0  0
   22.8568   -5.8301  -14.4733 C   0  0  0  0  0  0  0  0  0  0  0  0
   22.0034   -6.7432  -14.3808 O   0  0  0  0  0  0  0  0  0  0  0  0
   22.6611   -4.6987  -13.6723 O   0  0  0  0  0  0  0  0  0  0  0  0
  2  1  1  6
  2  5  1  0
  2  3  1  0
  4  3  1  0
  5  6  2  0
  7  8  1  0
  7  5  1  0
  8 11  1  0
  9 10  1  0
  8  9  1  1
 11 12  2  0
 11 19  1  0
 13 14  1  0
 14 15  2  0
 16 17  1  0
 16 14  1  0
 18 20  1  0
 18 17  1  6
 19 18  1  0
 20 22  1  0
 21 20  2  0
M  END
$$$$
