CCQ.pdb
     RDKit          3D

 22 21  0  0  1  0  0  0  0  0999 V2000
   19.7594  -27.2957   -1.3653 N   0  0  0  0  0  0  0  0  0  0  0  0
   18.7728  -26.7535   -0.4865 C   0  0  1  0  0  0  0  0  0  0  0  0
   17.7757  -27.8400   -0.1456 C   0  0  0  0  0  0  0  0  0  0  0  0
   16.9261  -28.3965   -1.6564 S   0  0  0  0  0  0  0  0  0  0  0  0
   19.3665  -26.3056    0.8156 C   0  0  0  0  0  0  0  0  0  0  0  0
   20.6170  -26.1746    0.8432 O   0  0  0  0  0  0  0  0  0  0  0  0
   18.5779  -26.0433    1.9510 N   0  0  0  0  0  0  0  0  0  0  0  0
   19.1873  -25.4805    3.1622 C   0  0  1  0  0  0  0  0  0  0  0  0
   19.5252  -24.0418    2.7895 C   0  0  0  0  0  0  0  0  0  0  0  0
   19.9486  -23.0215    4.1959 S   0  0  0  0  0  0  0  0  0  0  0  0
   18.1901  -25.5031    4.2763 C   0  0  0  0  0  0  0  0  0  0  0  0
   17.0519  -24.9474    4.1000 O   0  0  0  0  0  0  0  0  0  0  0  0
   15.0255  -28.4795    6.5221 N   0  0  0  0  0  0  0  0  0  0  0  0
   15.1771  -28.1857    7.9020 C   0  0  0  0  0  0  0  0  0  0  0  0
   14.2379  -28.4297    8.6855 O   0  0  0  0  0  0  0  0  0  0  0  0
   16.4348  -27.6007    8.3739 C   0  0  0  0  0  0  0  0  0  0  0  0
   17.4219  -27.3852    7.2884 C   0  0  0  0  0  0  0  0  0  0  0  0
   17.3738  -26.0756    6.5833 C   0  0  2  0  0  0  0  0  0  0  0  0
   18.3979  -26.0970    5.5320 N   0  0  0  0  0  0  0  0  0  0  0  0
   17.5379  -24.8928    7.4504 C   0  0  0  0  0  0  0  0  0  0  0  0
   18.6810  -24.4471    7.7059 O   0  0  0  0  0  0  0  0  0  0  0  0
   16.4537  -24.2172    8.0232 O   0  0  0  0  0  0  0  0  0  0  0  0
  2  1  1  6
  2  5  1  0
  2  3  1  0
  4  3  1  0
  5  6  2  0
  7  8  1  0
  7  5  1  0
  8 11  1  0
  9 10  1  0
  8  9  1  6
 11 12  2  0
 11 19  1  0
 13 14  1  0
 14 15  2  0
 16 17  1  0
 16 14  1  0
 18 20  1  0
 18 17  1  1
 19 18  1  0
 20 22  1  0
 21 20  2  0
M  END
$$$$
