CCQ.pdb
     RDKit          3D

 22 21  0  0  1  0  0  0  0  0999 V2000
   29.0845  -19.4118  -16.2020 N   0  0  0  0  0  0  0  0  0  0  0  0
   28.3055  -19.7018  -15.0407 C   0  0  1  0  0  0  0  0  0  0  0  0
   28.8361  -18.8842  -13.8827 C   0  0  0  0  0  0  0  0  0  0  0  0
   30.1363  -19.8149  -13.0124 S   0  0  0  0  0  0  0  0  0  0  0  0
   26.8705  -19.3020  -15.2135 C   0  0  0  0  0  0  0  0  0  0  0  0
   26.6333  -18.0670  -15.2308 O   0  0  0  0  0  0  0  0  0  0  0  0
   25.8376  -20.2477  -15.3497 N   0  0  0  0  0  0  0  0  0  0  0  0
   24.4332  -19.8224  -15.3035 C   0  0  1  0  0  0  0  0  0  0  0  0
   23.8573  -20.2514  -16.6478 C   0  0  0  0  0  0  0  0  0  0  0  0
   24.7666  -19.6135  -18.0493 S   0  0  0  0  0  0  0  0  0  0  0  0
   23.7341  -20.5380  -14.1919 C   0  0  0  0  0  0  0  0  0  0  0  0
   23.9329  -21.7922  -14.0412 O   0  0  0  0  0  0  0  0  0  0  0  0
   25.3443  -22.0421  -10.7178 N   0  0  0  0  0  0  0  0  0  0  0  0
   24.2611  -21.4310  -10.0348 C   0  0  0  0  0  0  0  0  0  0  0  0
   23.7206  -22.0319   -9.0848 O   0  0  0  0  0  0  0  0  0  0  0  0
   23.8018  -20.1072  -10.4632 C   0  0  0  0  0  0  0  0  0  0  0  0
   22.3968  -20.1021  -10.9375 C   0  0  0  0  0  0  0  0  0  0  0  0
   22.1309  -20.7198  -12.2651 C   0  0  2  0  0  0  0  0  0  0  0  0
   22.8562  -19.9384  -13.2739 N   0  0  0  0  0  0  0  0  0  0  0  0
   20.7043  -20.8416  -12.6229 C   0  0  0  0  0  0  0  0  0  0  0  0
   19.9442  -21.5827  -11.9569 O   0  0  0  0  0  0  0  0  0  0  0  0
   20.1322  -20.1538  -13.6997 O   0  0  0  0  0  0  0  0  0  0  0  0
  2  1  1  6
  2  5  1  0
  2  3  1  0
  4  3  1  0
  5  6  2  0
  7  8  1  0
  7  5  1  0
  8 11  1  0
  9 10  1  0
  8  9  1  6
 11 12  2  0
 11 19  1  0
 13 14  1  0
 14 15  2  0
 16 17  1  0
 16 14  1  0
 18 20  1  0
 18 17  1  1
 19 18  1  0
 20 22  1  0
 21 20  2  0
M  END
$$$$
