CCQ.pdb
     RDKit          3D

 22 21  0  0  1  0  0  0  0  0999 V2000
   13.4481  -11.0391   -9.7687 N   0  0  0  0  0  0  0  0  0  0  0  0
   14.7061  -10.3753   -9.6408 C   0  0  1  0  0  0  0  0  0  0  0  0
   15.6673  -10.9553  -10.6560 C   0  0  0  0  0  0  0  0  0  0  0  0
   16.2958  -12.5592  -10.0673 S   0  0  0  0  0  0  0  0  0  0  0  0
   14.6023   -8.9117   -9.9501 C   0  0  0  0  0  0  0  0  0  0  0  0
   13.8319   -8.5935  -10.8919 O   0  0  0  0  0  0  0  0  0  0  0  0
   15.3223   -7.9385   -9.2329 N   0  0  0  0  0  0  0  0  0  0  0  0
   15.1916   -6.5173   -9.5770 C   0  0  1  0  0  0  0  0  0  0  0  0
   14.7596   -5.8457   -8.2788 C   0  0  0  0  0  0  0  0  0  0  0  0
   15.0628   -6.8423   -6.8252 S   0  0  0  0  0  0  0  0  0  0  0  0
   16.5204   -5.9879  -10.0132 C   0  0  0  0  0  0  0  0  0  0  0  0
   17.5489   -6.2253   -9.2912 O   0  0  0  0  0  0  0  0  0  0  0  0
   19.6878   -8.7356  -12.7814 N   0  0  0  0  0  0  0  0  0  0  0  0
   20.5271   -7.6145  -13.0095 C   0  0  0  0  0  0  0  0  0  0  0  0
   21.6496   -7.7864  -13.5253 O   0  0  0  0  0  0  0  0  0  0  0  0
   20.0550   -6.2799  -12.6318 C   0  0  0  0  0  0  0  0  0  0  0  0
   18.7339   -6.2970  -11.9584 C   0  0  0  0  0  0  0  0  0  0  0  0
   18.0957   -4.9793  -11.6917 C   0  0  2  0  0  0  0  0  0  0  0  0
   16.7450   -5.2339  -11.1767 N   0  0  0  0  0  0  0  0  0  0  0  0
   18.0517   -4.0613  -12.8463 C   0  0  0  0  0  0  0  0  0  0  0  0
   17.0496   -4.0355  -13.5985 O   0  0  0  0  0  0  0  0  0  0  0  0
   19.1002   -3.1884  -13.1603 O   0  0  0  0  0  0  0  0  0  0  0  0
  2  1  1  6
  2  5  1  0
  2  3  1  0
  4  3  1  0
  5  6  2  0
  7  8  1  0
  7  5  1  0
  8 11  1  0
  9 10  1  0
  8  9  1  1
 11 12  2  0
 11 19  1  0
 13 14  1  0
 14 15  2  0
 16 17  1  0
 16 14  1  0
 18 20  1  0
 18 17  1  6
 19 18  1  0
 20 22  1  0
 21 20  2  0
M  END
$$$$
