STM.pdb
     RDKit          3D

 22 21  0  0  1  0  0  0  0  0999 V2000
   11.6537  -13.2412   18.7916 O   0  0  0  0  0  0  0  0  0  0  0  0
   10.5354  -13.0419   19.5940 C   0  0  0  0  0  0  0  0  0  0  0  0
    9.3765  -13.8767   19.0769 C   0  0  2  0  0  0  0  0  0  0  0  0
    8.6005  -13.0704   18.1709 N   0  0  0  0  0  0  0  0  0  0  0  0
    8.5391  -14.3900   20.1699 C   0  0  0  0  0  0  0  0  0  0  0  0
    7.4917  -13.8066   20.5392 O   0  0  0  0  0  0  0  0  0  0  0  0
    7.4577  -17.9783   20.4779 C   0  0  0  0  0  0  0  0  0  0  0  0
    8.1728  -17.6455   21.7876 C   0  0  1  0  0  0  0  0  0  0  0  0
    9.4586  -18.1654   21.6704 O   0  0  0  0  0  0  0  0  0  0  0  0
    8.2365  -16.1293   21.9858 C   0  0  2  0  0  0  0  0  0  0  0  0
    8.8983  -15.5762   20.8462 N   0  0  0  0  0  0  0  0  0  0  0  0
    8.8593  -15.7804   23.2644 C   0  0  0  0  0  0  0  0  0  0  0  0
   10.0972  -15.5766   23.3332 O   0  0  0  0  0  0  0  0  0  0  0  0
    6.1037  -10.6450   26.5840 C   0  0  0  0  0  0  0  0  0  0  0  0
    6.4885  -12.2806   27.1552 S   0  0  0  0  0  0  0  0  0  0  0  0
    7.5742  -13.2610   26.1317 C   0  0  0  0  0  0  0  0  0  0  0  0
    7.9321  -14.6076   26.6447 C   0  0  0  0  0  0  0  0  0  0  0  0
    8.7933  -15.4182   25.7471 C   0  0  2  0  0  0  0  0  0  0  0  0
    8.1137  -15.6567   24.4677 N   0  0  0  0  0  0  0  0  0  0  0  0
    9.3040  -16.6660   26.3220 C   0  0  0  0  0  0  0  0  0  0  0  0
   10.0864  -16.7674   27.2879 O   0  0  0  0  0  0  0  0  0  0  0  0
    8.8828  -17.8825   25.7422 O   0  0  0  0  0  0  0  0  0  0  0  0
  2  1  1  0
  3  5  1  0
  3  2  1  0
  3  4  1  6
  5 11  1  0
  6  5  2  0
  8  7  1  6
  9  8  1  0
 10 12  1  0
 10  8  1  0
 10 11  1  6
 12 19  1  0
 12 13  2  0
 15 14  1  0
 15 16  1  0
 16 17  1  0
 18 17  1  1
 18 20  1  0
 19 18  1  0
 20 21  2  0
 20 22  1  0
M  END
$$$$
