STM.pdb
     RDKit          3D

 22 21  0  0  1  0  0  0  0  0999 V2000
    4.6867  -18.9182   22.5695 O   0  0  0  0  0  0  0  0  0  0  0  0
    3.8957  -17.9158   22.0184 C   0  0  0  0  0  0  0  0  0  0  0  0
    4.3455  -17.6300   20.5959 C   0  0  2  0  0  0  0  0  0  0  0  0
    4.0096  -18.7632   19.7735 N   0  0  0  0  0  0  0  0  0  0  0  0
    5.7839  -17.3381   20.5233 C   0  0  0  0  0  0  0  0  0  0  0  0
    6.5076  -17.7734   19.5958 O   0  0  0  0  0  0  0  0  0  0  0  0
    6.9069  -13.9771   20.1736 C   0  0  0  0  0  0  0  0  0  0  0  0
    7.8137  -15.2073   20.1326 C   0  0  1  0  0  0  0  0  0  0  0  0
    9.1091  -14.7286   19.9589 O   0  0  0  0  0  0  0  0  0  0  0  0
    7.7136  -15.9831   21.4480 C   0  0  2  0  0  0  0  0  0  0  0  0
    6.4010  -16.5446   21.5148 N   0  0  0  0  0  0  0  0  0  0  0  0
    8.0615  -15.1424   22.5954 C   0  0  0  0  0  0  0  0  0  0  0  0
    7.5626  -13.9957   22.7169 O   0  0  0  0  0  0  0  0  0  0  0  0
    7.7394  -11.6701   26.4360 C   0  0  0  0  0  0  0  0  0  0  0  0
    6.5735  -12.9354   26.8711 S   0  0  0  0  0  0  0  0  0  0  0  0
    7.1438  -14.6252   26.7871 C   0  0  0  0  0  0  0  0  0  0  0  0
    7.4156  -15.1667   25.4316 C   0  0  0  0  0  0  0  0  0  0  0  0
    8.8281  -15.0726   24.9843 C   0  0  2  0  0  0  0  0  0  0  0  0
    8.9612  -15.5691   23.6091 N   0  0  0  0  0  0  0  0  0  0  0  0
    9.8134  -15.6932   25.8745 C   0  0  0  0  0  0  0  0  0  0  0  0
   10.1716  -16.8876   25.8601 O   0  0  0  0  0  0  0  0  0  0  0  0
   10.4287  -14.8788   26.8501 O   0  0  0  0  0  0  0  0  0  0  0  0
  2  1  1  0
  3  5  1  0
  3  2  1  0
  3  4  1  6
  5 11  1  0
  6  5  2  0
  8  7  1  1
  9  8  1  0
 10 12  1  0
 10  8  1  0
 10 11  1  1
 12 19  1  0
 12 13  2  0
 15 14  1  0
 15 16  1  0
 16 17  1  0
 18 17  1  1
 18 20  1  0
 19 18  1  0
 20 21  2  0
 20 22  1  0
M  END
$$$$
