STM.pdb
     RDKit          3D

 22 21  0  0  1  0  0  0  0  0999 V2000
   10.1902  -11.5709   18.8866 O   0  0  0  0  0  0  0  0  0  0  0  0
    9.3087  -12.2827   19.6932 C   0  0  0  0  0  0  0  0  0  0  0  0
    9.0208  -13.6373   19.0692 C   0  0  2  0  0  0  0  0  0  0  0  0
    8.1474  -13.4447   17.9407 N   0  0  0  0  0  0  0  0  0  0  0  0
    8.4289  -14.5724   20.0360 C   0  0  0  0  0  0  0  0  0  0  0  0
    7.1994  -14.8200   20.0589 O   0  0  0  0  0  0  0  0  0  0  0  0
   10.7592  -17.5827   21.3548 C   0  0  0  0  0  0  0  0  0  0  0  0
    9.2440  -17.5462   21.5550 C   0  0  1  0  0  0  0  0  0  0  0  0
    8.9635  -18.4657   22.5616 O   0  0  0  0  0  0  0  0  0  0  0  0
    8.8002  -16.1462   21.9854 C   0  0  2  0  0  0  0  0  0  0  0  0
    9.2445  -15.2294   20.9830 N   0  0  0  0  0  0  0  0  0  0  0  0
    9.2678  -15.8258   23.3356 C   0  0  0  0  0  0  0  0  0  0  0  0
   10.4339  -15.3952   23.5184 O   0  0  0  0  0  0  0  0  0  0  0  0
    6.0769  -10.9483   26.4242 C   0  0  0  0  0  0  0  0  0  0  0  0
    6.3816  -12.6111   26.9646 S   0  0  0  0  0  0  0  0  0  0  0  0
    7.6212  -13.5374   26.0742 C   0  0  0  0  0  0  0  0  0  0  0  0
    7.9312  -14.8953   26.5887 C   0  0  0  0  0  0  0  0  0  0  0  0
    8.9563  -15.6445   25.8194 C   0  0  2  0  0  0  0  0  0  0  0  0
    8.4463  -15.9813   24.4845 N   0  0  0  0  0  0  0  0  0  0  0  0
    9.5126  -16.8221   26.4920 C   0  0  0  0  0  0  0  0  0  0  0  0
   10.2471  -16.8178   27.4998 O   0  0  0  0  0  0  0  0  0  0  0  0
    9.1997  -18.0941   25.9651 O   0  0  0  0  0  0  0  0  0  0  0  0
  2  1  1  0
  3  5  1  0
  3  2  1  0
  3  4  1  6
  5 11  1  0
  6  5  2  0
  8  7  1  1
  9  8  1  0
 10 12  1  0
 10  8  1  0
 10 11  1  6
 12 19  1  0
 12 13  2  0
 15 14  1  0
 15 16  1  0
 16 17  1  0
 18 17  1  1
 18 20  1  0
 19 18  1  0
 20 21  2  0
 20 22  1  0
M  END
$$$$
