STM.pdb
     RDKit          3D

 22 21  0  0  1  0  0  0  0  0999 V2000
    6.9189  -20.6066   23.4870 O   0  0  0  0  0  0  0  0  0  0  0  0
    5.9377  -19.8194   22.8939 C   0  0  0  0  0  0  0  0  0  0  0  0
    6.2474  -19.6377   21.4179 C   0  0  2  0  0  0  0  0  0  0  0  0
    6.3541  -20.9384   20.8095 N   0  0  0  0  0  0  0  0  0  0  0  0
    7.4750  -18.8582   21.2064 C   0  0  0  0  0  0  0  0  0  0  0  0
    8.5255  -19.3757   20.7568 O   0  0  0  0  0  0  0  0  0  0  0  0
    8.2743  -16.8547   18.7898 C   0  0  0  0  0  0  0  0  0  0  0  0
    8.3030  -15.8594   19.9499 C   0  0  1  0  0  0  0  0  0  0  0  0
    7.0383  -15.2800   19.9951 O   0  0  0  0  0  0  0  0  0  0  0  0
    8.5937  -16.5867   21.2647 C   0  0  2  0  0  0  0  0  0  0  0  0
    7.5048  -17.4796   21.5097 N   0  0  0  0  0  0  0  0  0  0  0  0
    8.8480  -15.6434   22.3556 C   0  0  0  0  0  0  0  0  0  0  0  0
    8.7339  -14.4067   22.1653 O   0  0  0  0  0  0  0  0  0  0  0  0
    6.6670  -11.4136   27.2700 C   0  0  0  0  0  0  0  0  0  0  0  0
    7.4220  -12.4180   26.0167 S   0  0  0  0  0  0  0  0  0  0  0  0
    6.9162  -14.1283   25.9364 C   0  0  0  0  0  0  0  0  0  0  0  0
    7.4168  -14.9142   24.7803 C   0  0  0  0  0  0  0  0  0  0  0  0
    8.8545  -15.2800   24.8390 C   0  0  2  0  0  0  0  0  0  0  0  0
    9.2287  -16.0670   23.6574 N   0  0  0  0  0  0  0  0  0  0  0  0
    9.2879  -15.9347   26.0767 C   0  0  0  0  0  0  0  0  0  0  0  0
    9.2913  -17.1616   26.3002 O   0  0  0  0  0  0  0  0  0  0  0  0
    9.7497  -15.1168   27.1309 O   0  0  0  0  0  0  0  0  0  0  0  0
  2  1  1  0
  3  5  1  0
  3  2  1  0
  3  4  1  1
  5 11  1  0
  6  5  2  0
  8  7  1  6
  9  8  1  0
 10 12  1  0
 10  8  1  0
 10 11  1  1
 12 19  1  0
 12 13  2  0
 15 14  1  0
 15 16  1  0
 16 17  1  0
 18 17  1  1
 18 20  1  0
 19 18  1  0
 20 21  2  0
 20 22  1  0
M  END
$$$$
