STM.pdb
     RDKit          3D

 22 21  0  0  1  0  0  0  0  0999 V2000
    9.0602  -12.3387   19.5542 O   0  0  0  0  0  0  0  0  0  0  0  0
    8.3508  -12.6467   18.3983 C   0  0  0  0  0  0  0  0  0  0  0  0
    8.5744  -14.1035   18.0309 C   0  0  2  0  0  0  0  0  0  0  0  0
    7.9042  -14.3690   16.7844 N   0  0  0  0  0  0  0  0  0  0  0  0
    8.1024  -15.0138   19.0836 C   0  0  0  0  0  0  0  0  0  0  0  0
    6.8969  -15.3439   19.1898 O   0  0  0  0  0  0  0  0  0  0  0  0
    9.0407  -18.3252   19.6675 C   0  0  0  0  0  0  0  0  0  0  0  0
    9.3877  -17.6884   21.0133 C   0  0  1  0  0  0  0  0  0  0  0  0
   10.7666  -17.4988   21.0086 O   0  0  0  0  0  0  0  0  0  0  0  0
    8.6741  -16.3428   21.1624 C   0  0  2  0  0  0  0  0  0  0  0  0
    9.0111  -15.5510   20.0213 N   0  0  0  0  0  0  0  0  0  0  0  0
    8.9888  -15.7068   22.4433 C   0  0  0  0  0  0  0  0  0  0  0  0
    9.9762  -14.9364   22.5442 O   0  0  0  0  0  0  0  0  0  0  0  0
    6.6911  -10.9107   27.7734 C   0  0  0  0  0  0  0  0  0  0  0  0
    6.4434  -12.0006   26.3948 S   0  0  0  0  0  0  0  0  0  0  0  0
    7.3197  -13.5558   26.4248 C   0  0  0  0  0  0  0  0  0  0  0  0
    7.2047  -14.4052   25.2123 C   0  0  0  0  0  0  0  0  0  0  0  0
    8.4445  -15.1230   24.8229 C   0  0  2  0  0  0  0  0  0  0  0  0
    8.2121  -15.9223   23.6135 N   0  0  0  0  0  0  0  0  0  0  0  0
    9.0678  -15.9232   25.8810 C   0  0  0  0  0  0  0  0  0  0  0  0
    9.3217  -15.5427   27.0411 O   0  0  0  0  0  0  0  0  0  0  0  0
    9.4234  -17.2560   25.5798 O   0  0  0  0  0  0  0  0  0  0  0  0
  2  1  1  0
  3  5  1  0
  3  2  1  0
  3  4  1  6
  5 11  1  0
  6  5  2  0
  8  7  1  6
  9  8  1  0
 10 12  1  0
 10  8  1  0
 10 11  1  6
 12 19  1  0
 12 13  2  0
 15 14  1  0
 15 16  1  0
 16 17  1  0
 18 17  1  1
 18 20  1  0
 19 18  1  0
 20 21  2  0
 20 22  1  0
M  END
$$$$
