STM.pdb
     RDKit          3D

 22 21  0  0  1  0  0  0  0  0999 V2000
   13.8007  -18.9416   20.6876 O   0  0  0  0  0  0  0  0  0  0  0  0
   12.9170  -17.9222   21.0256 C   0  0  0  0  0  0  0  0  0  0  0  0
   11.8787  -17.7576   19.9290 C   0  0  2  0  0  0  0  0  0  0  0  0
   12.5564  -17.4181   18.7048 N   0  0  0  0  0  0  0  0  0  0  0  0
   10.8751  -16.7404   20.2716 C   0  0  0  0  0  0  0  0  0  0  0  0
   10.9321  -15.5692   19.8258 O   0  0  0  0  0  0  0  0  0  0  0  0
    7.3475  -16.9873   19.6569 C   0  0  0  0  0  0  0  0  0  0  0  0
    7.4279  -16.7975   21.1718 C   0  0  1  0  0  0  0  0  0  0  0  0
    7.3213  -18.0689   21.7281 O   0  0  0  0  0  0  0  0  0  0  0  0
    8.7688  -16.1678   21.5562 C   0  0  2  0  0  0  0  0  0  0  0  0
    9.7993  -17.0608   21.1281 N   0  0  0  0  0  0  0  0  0  0  0  0
    8.8189  -15.8398   22.9826 C   0  0  0  0  0  0  0  0  0  0  0  0
    9.5474  -16.5037   23.7617 O   0  0  0  0  0  0  0  0  0  0  0  0
    5.7881  -10.5225   27.1109 C   0  0  0  0  0  0  0  0  0  0  0  0
    7.0367  -11.7427   27.4298 S   0  0  0  0  0  0  0  0  0  0  0  0
    6.7384  -13.3885   26.8054 C   0  0  0  0  0  0  0  0  0  0  0  0
    6.9569  -13.5958   25.3514 C   0  0  0  0  0  0  0  0  0  0  0  0
    7.9867  -14.6074   25.0044 C   0  0  2  0  0  0  0  0  0  0  0  0
    8.0634  -14.7775   23.5481 N   0  0  0  0  0  0  0  0  0  0  0  0
    7.8572  -15.8979   25.6873 C   0  0  0  0  0  0  0  0  0  0  0  0
    8.4632  -16.2510   26.7184 O   0  0  0  0  0  0  0  0  0  0  0  0
    6.9660  -16.8479   25.1426 O   0  0  0  0  0  0  0  0  0  0  0  0
  2  1  1  0
  3  5  1  0
  3  2  1  0
  3  4  1  6
  5 11  1  0
  6  5  2  0
  8  7  1  6
  9  8  1  0
 10 12  1  0
 10  8  1  0
 10 11  1  1
 12 19  1  0
 12 13  2  0
 15 14  1  0
 15 16  1  0
 16 17  1  0
 18 17  1  6
 18 20  1  0
 19 18  1  0
 20 21  2  0
 20 22  1  0
M  END
$$$$
