STM.pdb
     RDKit          3D

 22 21  0  0  1  0  0  0  0  0999 V2000
   10.5822  -13.5052   19.7808 O   0  0  0  0  0  0  0  0  0  0  0  0
    9.8590  -14.2190   18.8312 C   0  0  0  0  0  0  0  0  0  0  0  0
    8.3776  -13.9181   18.9806 C   0  0  2  0  0  0  0  0  0  0  0  0
    8.1619  -12.5251   18.6868 N   0  0  0  0  0  0  0  0  0  0  0  0
    7.8820  -14.2531   20.3228 C   0  0  0  0  0  0  0  0  0  0  0  0
    7.5240  -13.3727   21.1415 O   0  0  0  0  0  0  0  0  0  0  0  0
    6.3254  -18.1271   23.0746 C   0  0  0  0  0  0  0  0  0  0  0  0
    6.9372  -17.5602   21.7933 C   0  0  1  0  0  0  0  0  0  0  0  0
    5.9818  -17.7362   20.7965 O   0  0  0  0  0  0  0  0  0  0  0  0
    7.2451  -16.0712   21.9671 C   0  0  2  0  0  0  0  0  0  0  0  0
    7.7942  -15.6009   20.7342 N   0  0  0  0  0  0  0  0  0  0  0  0
    8.1013  -15.8319   23.1307 C   0  0  0  0  0  0  0  0  0  0  0  0
    9.3501  -15.9272   23.0306 O   0  0  0  0  0  0  0  0  0  0  0  0
    5.2348  -11.7740   27.1052 C   0  0  0  0  0  0  0  0  0  0  0  0
    7.0087  -11.7194   27.1036 S   0  0  0  0  0  0  0  0  0  0  0  0
    7.8535  -12.8857   26.0484 C   0  0  0  0  0  0  0  0  0  0  0  0
    7.8645  -14.3005   26.4990 C   0  0  0  0  0  0  0  0  0  0  0  0
    8.4736  -15.2629   25.5467 C   0  0  2  0  0  0  0  0  0  0  0  0
    7.5773  -15.4872   24.4057 N   0  0  0  0  0  0  0  0  0  0  0  0
    8.9215  -16.5300   26.1318 C   0  0  0  0  0  0  0  0  0  0  0  0
    8.2717  -17.5936   26.1744 O   0  0  0  0  0  0  0  0  0  0  0  0
   10.2095  -16.5735   26.7086 O   0  0  0  0  0  0  0  0  0  0  0  0
  2  1  1  0
  3  5  1  0
  3  2  1  0
  3  4  1  1
  5 11  1  0
  6  5  2  0
  8  7  1  1
  9  8  1  0
 10 12  1  0
 10  8  1  0
 10 11  1  6
 12 19  1  0
 12 13  2  0
 15 14  1  0
 15 16  1  0
 16 17  1  0
 18 17  1  1
 18 20  1  0
 19 18  1  0
 20 21  2  0
 20 22  1  0
M  END
$$$$
