STM.pdb
     RDKit          3D

 22 21  0  0  1  0  0  0  0  0999 V2000
    8.3403  -15.0424   17.2029 O   0  0  0  0  0  0  0  0  0  0  0  0
    8.0839  -15.3914   18.5245 C   0  0  0  0  0  0  0  0  0  0  0  0
    8.4538  -16.8470   18.7526 C   0  0  2  0  0  0  0  0  0  0  0  0
    7.5745  -17.6712   17.9646 N   0  0  0  0  0  0  0  0  0  0  0  0
    8.3833  -17.2151   20.1735 C   0  0  0  0  0  0  0  0  0  0  0  0
    7.2922  -17.4262   20.7552 O   0  0  0  0  0  0  0  0  0  0  0  0
   11.1495  -19.5315   21.6159 C   0  0  0  0  0  0  0  0  0  0  0  0
   10.9825  -18.3492   22.5707 C   0  0  1  0  0  0  0  0  0  0  0  0
   12.0269  -17.4731   22.2896 O   0  0  0  0  0  0  0  0  0  0  0  0
    9.6388  -17.6581   22.3280 C   0  0  2  0  0  0  0  0  0  0  0  0
    9.5648  -17.3432   20.9359 N   0  0  0  0  0  0  0  0  0  0  0  0
    9.4616  -16.5030   23.2106 C   0  0  0  0  0  0  0  0  0  0  0  0
    9.9364  -15.3835   22.8945 O   0  0  0  0  0  0  0  0  0  0  0  0
    6.3169  -10.8983   26.5859 C   0  0  0  0  0  0  0  0  0  0  0  0
    6.6477  -12.2805   25.5231 S   0  0  0  0  0  0  0  0  0  0  0  0
    6.9203  -13.8597   26.3101 C   0  0  0  0  0  0  0  0  0  0  0  0
    7.1932  -15.0100   25.4116 C   0  0  0  0  0  0  0  0  0  0  0  0
    8.6204  -15.4044   25.3046 C   0  0  2  0  0  0  0  0  0  0  0  0
    8.7595  -16.5852   24.4432 N   0  0  0  0  0  0  0  0  0  0  0  0
    9.3208  -15.5870   26.5792 C   0  0  0  0  0  0  0  0  0  0  0  0
    9.4234  -14.7435   27.4920 O   0  0  0  0  0  0  0  0  0  0  0  0
    9.9468  -16.8298   26.8177 O   0  0  0  0  0  0  0  0  0  0  0  0
  2  1  1  0
  3  5  1  0
  3  2  1  0
  3  4  1  6
  5 11  1  0
  6  5  2  0
  8  7  1  6
  9  8  1  0
 10 12  1  0
 10  8  1  0
 10 11  1  6
 12 19  1  0
 12 13  2  0
 15 14  1  0
 15 16  1  0
 16 17  1  0
 18 17  1  1
 18 20  1  0
 19 18  1  0
 20 21  2  0
 20 22  1  0
M  END
$$$$
