STM.pdb
     RDKit          3D

 22 21  0  0  1  0  0  0  0  0999 V2000
   -0.2992  -25.8447   31.7189 O   0  0  0  0  0  0  0  0  0  0  0  0
   -0.9889  -25.3653   30.6104 C   0  0  0  0  0  0  0  0  0  0  0  0
   -1.5849  -26.5271   29.8341 C   0  0  2  0  0  0  0  0  0  0  0  0
   -0.5084  -27.3203   29.2999 N   0  0  0  0  0  0  0  0  0  0  0  0
   -2.4802  -26.0695   28.7625 C   0  0  0  0  0  0  0  0  0  0  0  0
   -2.0493  -25.7065   27.6418 O   0  0  0  0  0  0  0  0  0  0  0  0
   -5.3767  -27.9183   27.3677 C   0  0  0  0  0  0  0  0  0  0  0  0
   -5.9467  -26.6227   27.9455 C   0  0  1  0  0  0  0  0  0  0  0  0
   -6.4131  -26.9380   29.2185 O   0  0  0  0  0  0  0  0  0  0  0  0
   -4.8522  -25.5571   28.0373 C   0  0  2  0  0  0  0  0  0  0  0  0
   -3.8761  -26.0254   28.9704 N   0  0  0  0  0  0  0  0  0  0  0  0
   -5.4082  -24.2427   28.3657 C   0  0  0  0  0  0  0  0  0  0  0  0
   -5.3434  -23.8012   29.5402 O   0  0  0  0  0  0  0  0  0  0  0  0
   -3.2601  -19.2848   24.5052 C   0  0  0  0  0  0  0  0  0  0  0  0
   -4.9218  -19.7622   24.9057 S   0  0  0  0  0  0  0  0  0  0  0  0
   -5.1527  -20.7168   26.3968 C   0  0  0  0  0  0  0  0  0  0  0  0
   -6.5404  -21.1506   26.6981 C   0  0  0  0  0  0  0  0  0  0  0  0
   -6.6680  -22.1502   27.7884 C   0  0  2  0  0  0  0  0  0  0  0  0
   -6.0363  -23.4160   27.3956 N   0  0  0  0  0  0  0  0  0  0  0  0
   -8.0284  -22.3647   28.2902 C   0  0  0  0  0  0  0  0  0  0  0  0
   -8.7615  -23.3419   28.0400 O   0  0  0  0  0  0  0  0  0  0  0  0
   -8.5821  -21.3828   29.1405 O   0  0  0  0  0  0  0  0  0  0  0  0
  2  1  1  0
  3  5  1  0
  3  2  1  0
  3  4  1  6
  5 11  1  0
  6  5  2  0
  8  7  1  1
  9  8  1  0
 10 12  1  0
 10  8  1  0
 10 11  1  1
 12 19  1  0
 12 13  2  0
 15 14  1  0
 15 16  1  0
 16 17  1  0
 18 17  1  6
 18 20  1  0
 19 18  1  0
 20 21  2  0
 20 22  1  0
M  END
$$$$
