STM.pdb
     RDKit          3D

 22 21  0  0  1  0  0  0  0  0999 V2000
    7.3070  -13.7207   19.0491 O   0  0  0  0  0  0  0  0  0  0  0  0
    8.6506  -14.0800   19.0377 C   0  0  0  0  0  0  0  0  0  0  0  0
    8.7788  -15.5918   19.1111 C   0  0  2  0  0  0  0  0  0  0  0  0
    8.0179  -16.1683   18.0331 N   0  0  0  0  0  0  0  0  0  0  0  0
    8.3315  -16.1183   20.4081 C   0  0  0  0  0  0  0  0  0  0  0  0
    7.1605  -16.5277   20.5946 O   0  0  0  0  0  0  0  0  0  0  0  0
    9.0677  -18.9760   21.7308 C   0  0  0  0  0  0  0  0  0  0  0  0
    9.5731  -18.0970   22.8750 C   0  0  1  0  0  0  0  0  0  0  0  0
   10.9519  -18.0008   22.7102 O   0  0  0  0  0  0  0  0  0  0  0  0
    8.9375  -16.7071   22.7957 C   0  0  2  0  0  0  0  0  0  0  0  0
    9.2253  -16.1782   21.4994 N   0  0  0  0  0  0  0  0  0  0  0  0
    9.3774  -15.8514   23.8997 C   0  0  0  0  0  0  0  0  0  0  0  0
   10.4472  -15.1987   23.8099 O   0  0  0  0  0  0  0  0  0  0  0  0
    6.1060  -11.1300   27.4813 C   0  0  0  0  0  0  0  0  0  0  0  0
    5.8542  -12.2426   26.1218 S   0  0  0  0  0  0  0  0  0  0  0  0
    7.2605  -13.2080   25.5946 C   0  0  0  0  0  0  0  0  0  0  0  0
    7.9732  -13.9721   26.6496 C   0  0  0  0  0  0  0  0  0  0  0  0
    9.0946  -14.8183   26.1694 C   0  0  2  0  0  0  0  0  0  0  0  0
    8.6346  -15.7171   25.1036 N   0  0  0  0  0  0  0  0  0  0  0  0
    9.8211  -15.5512   27.2103 C   0  0  0  0  0  0  0  0  0  0  0  0
    9.8391  -16.7884   27.3656 O   0  0  0  0  0  0  0  0  0  0  0  0
   10.5803  -14.8045   28.1375 O   0  0  0  0  0  0  0  0  0  0  0  0
  2  1  1  0
  3  5  1  0
  3  2  1  0
  3  4  1  6
  5 11  1  0
  6  5  2  0
  8  7  1  6
  9  8  1  0
 10 12  1  0
 10  8  1  0
 10 11  1  6
 12 19  1  0
 12 13  2  0
 15 14  1  0
 15 16  1  0
 16 17  1  0
 18 17  1  1
 18 20  1  0
 19 18  1  0
 20 21  2  0
 20 22  1  0
M  END
$$$$
