STM.pdb
     RDKit          3D

 22 21  0  0  1  0  0  0  0  0999 V2000
   10.0998  -15.6525   18.9755 O   0  0  0  0  0  0  0  0  0  0  0  0
   10.0452  -16.9548   18.4904 C   0  0  0  0  0  0  0  0  0  0  0  0
    8.6363  -17.5016   18.6436 C   0  0  2  0  0  0  0  0  0  0  0  0
    7.7744  -16.8101   17.7205 N   0  0  0  0  0  0  0  0  0  0  0  0
    8.1427  -17.3685   20.0213 C   0  0  0  0  0  0  0  0  0  0  0  0
    7.1146  -16.7064   20.3013 O   0  0  0  0  0  0  0  0  0  0  0  0
    8.3746  -19.6371   24.4205 C   0  0  0  0  0  0  0  0  0  0  0  0
    8.8359  -19.4542   22.9744 C   0  0  1  0  0  0  0  0  0  0  0  0
    8.2510  -20.4868   22.2472 O   0  0  0  0  0  0  0  0  0  0  0  0
    8.3652  -18.1014   22.4355 C   0  0  2  0  0  0  0  0  0  0  0  0
    8.8259  -17.9943   21.0867 N   0  0  0  0  0  0  0  0  0  0  0  0
    8.7930  -17.0000   23.3007 C   0  0  0  0  0  0  0  0  0  0  0  0
    9.9684  -16.5610   23.2355 O   0  0  0  0  0  0  0  0  0  0  0  0
    6.2441  -10.6313   26.4004 C   0  0  0  0  0  0  0  0  0  0  0  0
    6.2377  -12.3032   26.9957 S   0  0  0  0  0  0  0  0  0  0  0  0
    7.5839  -13.3534   26.4739 C   0  0  0  0  0  0  0  0  0  0  0  0
    7.2389  -14.4648   25.5518 C   0  0  0  0  0  0  0  0  0  0  0  0
    8.3899  -15.2734   25.0770 C   0  0  2  0  0  0  0  0  0  0  0  0
    7.9214  -16.3836   24.2384 N   0  0  0  0  0  0  0  0  0  0  0  0
    9.3044  -15.7419   26.1223 C   0  0  0  0  0  0  0  0  0  0  0  0
   10.2200  -15.0813   26.6520 O   0  0  0  0  0  0  0  0  0  0  0  0
    9.1522  -17.0655   26.5896 O   0  0  0  0  0  0  0  0  0  0  0  0
  2  1  1  0
  3  5  1  0
  3  2  1  0
  3  4  1  6
  5 11  1  0
  6  5  2  0
  8  7  1  1
  9  8  1  0
 10 12  1  0
 10  8  1  0
 10 11  1  6
 12 19  1  0
 12 13  2  0
 15 14  1  0
 15 16  1  0
 16 17  1  0
 18 17  1  1
 18 20  1  0
 19 18  1  0
 20 21  2  0
 20 22  1  0
M  END
$$$$
