STM.pdb
     RDKit          3D

 22 21  0  0  1  0  0  0  0  0999 V2000
    9.5922  -11.4178   18.8541 O   0  0  0  0  0  0  0  0  0  0  0  0
    8.8238  -12.2609   19.6499 C   0  0  0  0  0  0  0  0  0  0  0  0
    8.7462  -13.6382   19.0139 C   0  0  2  0  0  0  0  0  0  0  0  0
    7.7541  -13.6051   17.9709 N   0  0  0  0  0  0  0  0  0  0  0  0
    8.4344  -14.6816   20.0006 C   0  0  0  0  0  0  0  0  0  0  0  0
    7.2565  -15.0319   20.2524 O   0  0  0  0  0  0  0  0  0  0  0  0
   10.1327  -18.5860   22.4267 C   0  0  0  0  0  0  0  0  0  0  0  0
   10.3250  -17.4335   21.4407 C   0  0  1  0  0  0  0  0  0  0  0  0
   10.1111  -17.9677   20.1733 O   0  0  0  0  0  0  0  0  0  0  0  0
    9.3097  -16.3228   21.7195 C   0  0  2  0  0  0  0  0  0  0  0  0
    9.4725  -15.3296   20.7048 N   0  0  0  0  0  0  0  0  0  0  0  0
    9.4385  -15.8075   23.0842 C   0  0  0  0  0  0  0  0  0  0  0  0
   10.0908  -14.7571   23.3074 O   0  0  0  0  0  0  0  0  0  0  0  0
    6.3623  -11.2422   26.4243 C   0  0  0  0  0  0  0  0  0  0  0  0
    7.5432  -12.5537   26.6119 S   0  0  0  0  0  0  0  0  0  0  0  0
    6.9127  -14.2234   26.5664 C   0  0  0  0  0  0  0  0  0  0  0  0
    7.2698  -15.0347   25.3753 C   0  0  0  0  0  0  0  0  0  0  0  0
    8.5889  -15.7126   25.4439 C   0  0  2  0  0  0  0  0  0  0  0  0
    8.8463  -16.4533   24.2027 N   0  0  0  0  0  0  0  0  0  0  0  0
    8.8034  -16.5553   26.6238 C   0  0  0  0  0  0  0  0  0  0  0  0
    8.4264  -17.7355   26.7659 O   0  0  0  0  0  0  0  0  0  0  0  0
    9.5018  -15.9976   27.7168 O   0  0  0  0  0  0  0  0  0  0  0  0
  2  1  1  0
  3  5  1  0
  3  2  1  0
  3  4  1  6
  5 11  1  0
  6  5  2  0
  8  7  1  1
  9  8  1  0
 10 12  1  0
 10  8  1  0
 10 11  1  6
 12 19  1  0
 12 13  2  0
 15 14  1  0
 15 16  1  0
 16 17  1  0
 18 17  1  6
 18 20  1  0
 19 18  1  0
 20 21  2  0
 20 22  1  0
M  END
$$$$
