STM.pdb
     RDKit          3D

 22 21  0  0  1  0  0  0  0  0999 V2000
    9.9235  -19.3676   21.3614 O   0  0  0  0  0  0  0  0  0  0  0  0
    9.0604  -19.1392   20.2950 C   0  0  0  0  0  0  0  0  0  0  0  0
    9.6193  -18.0401   19.4079 C   0  0  2  0  0  0  0  0  0  0  0  0
   10.8879  -18.4757   18.8844 N   0  0  0  0  0  0  0  0  0  0  0  0
    9.7598  -16.7689   20.1316 C   0  0  0  0  0  0  0  0  0  0  0  0
   10.8791  -16.3086   20.4616 O   0  0  0  0  0  0  0  0  0  0  0  0
    7.6581  -12.5207   21.3777 C   0  0  0  0  0  0  0  0  0  0  0  0
    7.5540  -13.8936   20.7130 C   0  0  1  0  0  0  0  0  0  0  0  0
    7.8051  -13.6891   19.3594 O   0  0  0  0  0  0  0  0  0  0  0  0
    8.5962  -14.8474   21.3013 C   0  0  2  0  0  0  0  0  0  0  0  0
    8.6166  -16.0176   20.4811 N   0  0  0  0  0  0  0  0  0  0  0  0
    8.3392  -15.1165   22.7177 C   0  0  0  0  0  0  0  0  0  0  0  0
    7.4420  -15.9278   23.0573 O   0  0  0  0  0  0  0  0  0  0  0  0
    5.5971  -11.3502   27.5881 C   0  0  0  0  0  0  0  0  0  0  0  0
    7.1997  -11.9961   27.1827 S   0  0  0  0  0  0  0  0  0  0  0  0
    7.3832  -12.7584   25.5788 C   0  0  0  0  0  0  0  0  0  0  0  0
    7.4656  -14.2408   25.5547 C   0  0  0  0  0  0  0  0  0  0  0  0
    8.7871  -14.7947   25.1662 C   0  0  2  0  0  0  0  0  0  0  0  0
    9.0741  -14.4887   23.7592 N   0  0  0  0  0  0  0  0  0  0  0  0
    8.9827  -16.2184   25.4543 C   0  0  0  0  0  0  0  0  0  0  0  0
    8.8638  -17.1584   24.6435 O   0  0  0  0  0  0  0  0  0  0  0  0
    9.3406  -16.5838   26.7704 O   0  0  0  0  0  0  0  0  0  0  0  0
  2  1  1  0
  3  5  1  0
  3  2  1  0
  3  4  1  1
  5 11  1  0
  6  5  2  0
  8  7  1  1
  9  8  1  0
 10 12  1  0
 10  8  1  0
 10 11  1  6
 12 19  1  0
 12 13  2  0
 15 14  1  0
 15 16  1  0
 16 17  1  0
 18 17  1  6
 18 20  1  0
 19 18  1  0
 20 21  2  0
 20 22  1  0
M  END
$$$$
