CTC.pdb
     RDKit          3D

 20 19  0  0  1  0  0  0  0  0999 V2000
    6.8759  -20.5847   17.8549 N   0  0  0  0  0  0  0  0  0  0  0  0
    7.0998  -20.0602   19.1877 C   0  0  1  0  0  0  0  0  0  0  0  0
    7.3178  -21.2810   20.0889 C   0  0  0  0  0  0  0  0  0  0  0  0
    5.6962  -22.0085   20.4120 S   0  0  0  0  0  0  0  0  0  0  0  0
    8.3395  -19.2356   19.2423 C   0  0  0  0  0  0  0  0  0  0  0  0
    9.3645  -19.5298   18.6060 O   0  0  0  0  0  0  0  0  0  0  0  0
    8.3098  -15.6860   18.3225 C   0  0  0  0  0  0  0  0  0  0  0  0
    8.8458  -15.7672   19.7146 C   0  0  1  0  0  0  0  0  0  0  0  0
    7.7879  -15.5097   20.6265 O   0  0  0  0  0  0  0  0  0  0  0  0
    9.4516  -17.1194   20.0537 C   0  0  2  0  0  0  0  0  0  0  0  0
    8.3209  -18.0739   20.0613 N   0  0  0  0  0  0  0  0  0  0  0  0
   10.0702  -17.1931   21.3727 C   0  0  0  0  0  0  0  0  0  0  0  0
    9.3512  -17.0868   22.4236 O   0  0  0  0  0  0  0  0  0  0  0  0
   11.4566  -17.3827   21.5724 N   0  0  0  0  0  0  0  0  0  0  0  0
   11.9780  -17.4476   22.9159 C   0  0  1  0  0  0  0  0  0  0  0  0
   12.4861  -18.8742   23.1511 C   0  0  0  0  0  0  0  0  0  0  0  0
   11.0506  -19.9602   23.3793 S   0  0  0  0  0  0  0  0  0  0  0  0
   13.1028  -16.5019   23.1004 C   0  0  0  0  0  0  0  0  0  0  0  0
   13.5015  -15.8618   22.0931 O   0  0  0  0  0  0  0  0  0  0  0  0
   13.7311  -16.2930   24.3264 O   0  0  0  0  0  0  0  0  0  0  0  0
  2  3  1  0
  2  5  1  0
  2  1  1  6
  4  3  1  0
  5  6  2  0
  8  7  1  6
  8  9  1  0
  8 10  1  0
 10 12  1  0
 10 11  1  1
 11  5  1  0
 12 13  2  0
 14 12  1  0
 14 15  1  0
 15 18  1  0
 16 17  1  0
 15 16  1  6
 18 19  2  0
 18 20  1  0
M  END
$$$$
