CTC.pdb
     RDKit          3D

 20 19  0  0  1  0  0  0  0  0999 V2000
   11.7363  -16.2876   18.7878 N   0  0  0  0  0  0  0  0  0  0  0  0
   12.1504  -15.8633   20.1107 C   0  0  1  0  0  0  0  0  0  0  0  0
   12.5603  -14.3928   19.9716 C   0  0  0  0  0  0  0  0  0  0  0  0
   14.3583  -14.3175   20.1283 S   0  0  0  0  0  0  0  0  0  0  0  0
   11.0175  -15.9234   21.0764 C   0  0  0  0  0  0  0  0  0  0  0  0
    9.8516  -15.6415   20.7548 O   0  0  0  0  0  0  0  0  0  0  0  0
    9.3687  -18.4967   22.0398 C   0  0  0  0  0  0  0  0  0  0  0  0
    9.9356  -18.0399   23.3444 C   0  0  1  0  0  0  0  0  0  0  0  0
   11.1478  -18.7396   23.5851 O   0  0  0  0  0  0  0  0  0  0  0  0
   10.2262  -16.5487   23.3908 C   0  0  2  0  0  0  0  0  0  0  0  0
   11.3100  -16.3214   22.4093 N   0  0  0  0  0  0  0  0  0  0  0  0
   10.7184  -16.0665   24.6766 C   0  0  0  0  0  0  0  0  0  0  0  0
   11.9734  -16.0513   24.9165 O   0  0  0  0  0  0  0  0  0  0  0  0
    9.8725  -15.5977   25.7074 N   0  0  0  0  0  0  0  0  0  0  0  0
   10.4472  -15.1827   26.9638 C   0  0  1  0  0  0  0  0  0  0  0  0
    9.4817  -14.1843   27.6116 C   0  0  0  0  0  0  0  0  0  0  0  0
   10.1450  -13.7219   29.2359 S   0  0  0  0  0  0  0  0  0  0  0  0
   10.6287  -16.3348   27.8766 C   0  0  0  0  0  0  0  0  0  0  0  0
   11.4940  -16.2326   28.7845 O   0  0  0  0  0  0  0  0  0  0  0  0
    9.8916  -17.5130   27.7746 O   0  0  0  0  0  0  0  0  0  0  0  0
  2  3  1  0
  2  5  1  0
  2  1  1  6
  4  3  1  0
  5  6  2  0
  8  7  1  6
  8  9  1  0
  8 10  1  0
 10 12  1  0
 10 11  1  6
 11  5  1  0
 12 13  2  0
 14 12  1  0
 14 15  1  0
 15 18  1  0
 16 17  1  0
 15 16  1  1
 18 19  2  0
 18 20  1  0
M  END
$$$$
