CTC.pdb
     RDKit          3D

 20 19  0  0  1  0  0  0  0  0999 V2000
    6.5547  -19.1997   17.9493 N   0  0  0  0  0  0  0  0  0  0  0  0
    6.3204  -18.7522   19.3081 C   0  0  1  0  0  0  0  0  0  0  0  0
    6.1343  -20.0240   20.1435 C   0  0  0  0  0  0  0  0  0  0  0  0
    4.4910  -20.6762   19.7731 S   0  0  0  0  0  0  0  0  0  0  0  0
    7.5049  -18.0291   19.8502 C   0  0  0  0  0  0  0  0  0  0  0  0
    8.6704  -18.3767   19.5997 O   0  0  0  0  0  0  0  0  0  0  0  0
    8.0718  -14.5755   19.0467 C   0  0  0  0  0  0  0  0  0  0  0  0
    8.0244  -14.6406   20.5385 C   0  0  1  0  0  0  0  0  0  0  0  0
    6.7148  -14.2988   20.9687 O   0  0  0  0  0  0  0  0  0  0  0  0
    8.3693  -16.0114   21.0973 C   0  0  2  0  0  0  0  0  0  0  0  0
    7.2632  -16.9025   20.6827 N   0  0  0  0  0  0  0  0  0  0  0  0
    8.4337  -16.0741   22.5533 C   0  0  0  0  0  0  0  0  0  0  0  0
    7.3756  -16.3054   23.2313 O   0  0  0  0  0  0  0  0  0  0  0  0
    9.6275  -15.8923   23.2879 N   0  0  0  0  0  0  0  0  0  0  0  0
    9.6233  -16.1083   24.7142 C   0  0  1  0  0  0  0  0  0  0  0  0
    9.3184  -17.5898   24.9611 C   0  0  0  0  0  0  0  0  0  0  0  0
    9.5291  -17.9278   26.7313 S   0  0  0  0  0  0  0  0  0  0  0  0
   10.9405  -15.7846   25.3091 C   0  0  0  0  0  0  0  0  0  0  0  0
   11.9331  -15.7250   24.5380 O   0  0  0  0  0  0  0  0  0  0  0  0
   11.1258  -15.5461   26.6694 O   0  0  0  0  0  0  0  0  0  0  0  0
  2  3  1  0
  2  5  1  0
  2  1  1  6
  4  3  1  0
  5  6  2  0
  8  7  1  6
  8  9  1  0
  8 10  1  0
 10 12  1  0
 10 11  1  1
 11  5  1  0
 12 13  2  0
 14 12  1  0
 14 15  1  0
 15 18  1  0
 16 17  1  0
 15 16  1  6
 18 19  2  0
 18 20  1  0
M  END
$$$$
