CTC.pdb
     RDKit          3D

 20 19  0  0  1  0  0  0  0  0999 V2000
    8.7256  -17.4301   16.7143 N   0  0  0  0  0  0  0  0  0  0  0  0
    8.3334  -17.8486   18.0457 C   0  0  1  0  0  0  0  0  0  0  0  0
    8.8564  -19.2805   18.2075 C   0  0  0  0  0  0  0  0  0  0  0  0
    7.7700  -20.3620   17.2519 S   0  0  0  0  0  0  0  0  0  0  0  0
    8.9883  -17.0115   19.0897 C   0  0  0  0  0  0  0  0  0  0  0  0
   10.0735  -16.4381   18.9008 O   0  0  0  0  0  0  0  0  0  0  0  0
    6.9853  -14.3314   21.0216 C   0  0  0  0  0  0  0  0  0  0  0  0
    7.6401  -15.2768   21.9752 C   0  0  1  0  0  0  0  0  0  0  0  0
    6.6927  -16.2604   22.3652 O   0  0  0  0  0  0  0  0  0  0  0  0
    8.8523  -15.9844   21.3919 C   0  0  2  0  0  0  0  0  0  0  0  0
    8.3245  -16.8812   20.3399 N   0  0  0  0  0  0  0  0  0  0  0  0
    9.5750  -16.8282   22.3372 C   0  0  0  0  0  0  0  0  0  0  0  0
    9.3062  -18.0749   22.4174 O   0  0  0  0  0  0  0  0  0  0  0  0
   10.5870  -16.3438   23.1968 N   0  0  0  0  0  0  0  0  0  0  0  0
   11.2256  -17.2478   24.1220 C   0  0  1  0  0  0  0  0  0  0  0  0
   12.7150  -17.3054   23.7656 C   0  0  0  0  0  0  0  0  0  0  0  0
   13.3755  -15.6159   23.8020 S   0  0  0  0  0  0  0  0  0  0  0  0
   11.0849  -16.7736   25.5180 C   0  0  0  0  0  0  0  0  0  0  0  0
   10.4756  -15.6895   25.7101 O   0  0  0  0  0  0  0  0  0  0  0  0
   11.5920  -17.4677   26.6147 O   0  0  0  0  0  0  0  0  0  0  0  0
  2  3  1  0
  2  5  1  0
  2  1  1  6
  4  3  1  0
  5  6  2  0
  8  7  1  6
  8  9  1  0
  8 10  1  0
 10 12  1  0
 10 11  1  6
 11  5  1  0
 12 13  2  0
 14 12  1  0
 14 15  1  0
 15 18  1  0
 16 17  1  0
 15 16  1  6
 18 19  2  0
 18 20  1  0
M  END
$$$$
