CTC.pdb
     RDKit          3D

 20 19  0  0  1  0  0  0  0  0999 V2000
    3.4194  -18.7021   20.2915 N   0  0  0  0  0  0  0  0  0  0  0  0
    3.9976  -18.0016   21.4214 C   0  0  1  0  0  0  0  0  0  0  0  0
    3.8412  -18.9405   22.6231 C   0  0  0  0  0  0  0  0  0  0  0  0
    2.1607  -18.7345   23.2526 S   0  0  0  0  0  0  0  0  0  0  0  0
    5.4554  -17.7669   21.2227 C   0  0  0  0  0  0  0  0  0  0  0  0
    6.2206  -18.6476   20.7974 O   0  0  0  0  0  0  0  0  0  0  0  0
    6.6691  -14.7959   19.3157 C   0  0  0  0  0  0  0  0  0  0  0  0
    7.3928  -14.7949   20.6227 C   0  0  1  0  0  0  0  0  0  0  0  0
    6.7798  -13.8454   21.4828 O   0  0  0  0  0  0  0  0  0  0  0  0
    7.3881  -16.1456   21.3198 C   0  0  2  0  0  0  0  0  0  0  0  0
    5.9630  -16.4775   21.5397 N   0  0  0  0  0  0  0  0  0  0  0  0
    8.0267  -16.1532   22.6314 C   0  0  0  0  0  0  0  0  0  0  0  0
    7.3199  -16.0241   23.6880 O   0  0  0  0  0  0  0  0  0  0  0  0
    9.4200  -16.3009   22.8176 N   0  0  0  0  0  0  0  0  0  0  0  0
    9.9622  -16.2950   24.1544 C   0  0  1  0  0  0  0  0  0  0  0  0
    9.5093  -17.5845   24.8476 C   0  0  0  0  0  0  0  0  0  0  0  0
   10.3802  -17.7151   26.4340 S   0  0  0  0  0  0  0  0  0  0  0  0
   11.4426  -16.2575   24.1321 C   0  0  0  0  0  0  0  0  0  0  0  0
   12.0152  -16.3795   23.0182 O   0  0  0  0  0  0  0  0  0  0  0  0
   12.2194  -16.0950   25.2774 O   0  0  0  0  0  0  0  0  0  0  0  0
  2  3  1  0
  2  5  1  0
  2  1  1  6
  4  3  1  0
  5  6  2  0
  8  7  1  6
  8  9  1  0
  8 10  1  0
 10 12  1  0
 10 11  1  1
 11  5  1  0
 12 13  2  0
 14 12  1  0
 14 15  1  0
 15 18  1  0
 16 17  1  0
 15 16  1  6
 18 19  2  0
 18 20  1  0
M  END
$$$$
