CTC.pdb
     RDKit          3D

 20 19  0  0  1  0  0  0  0  0999 V2000
    7.6012  -15.0338   19.2032 N   0  0  0  0  0  0  0  0  0  0  0  0
    8.3300  -14.4347   20.3039 C   0  0  1  0  0  0  0  0  0  0  0  0
    7.8657  -12.9753   20.3709 C   0  0  0  0  0  0  0  0  0  0  0  0
    8.6034  -12.1103   18.9671 S   0  0  0  0  0  0  0  0  0  0  0  0
    7.9752  -15.0779   21.6001 C   0  0  0  0  0  0  0  0  0  0  0  0
    6.8131  -15.1001   22.0373 O   0  0  0  0  0  0  0  0  0  0  0  0
    8.2067  -18.5165   22.3705 C   0  0  0  0  0  0  0  0  0  0  0  0
    9.1069  -17.8458   23.3562 C   0  0  1  0  0  0  0  0  0  0  0  0
   10.4393  -17.8993   22.8673 O   0  0  0  0  0  0  0  0  0  0  0  0
    8.7491  -16.3910   23.6126 C   0  0  2  0  0  0  0  0  0  0  0  0
    9.0255  -15.6812   22.3440 N   0  0  0  0  0  0  0  0  0  0  0  0
    9.5547  -15.7404   24.6401 C   0  0  0  0  0  0  0  0  0  0  0  0
   10.6597  -15.1800   24.3275 O   0  0  0  0  0  0  0  0  0  0  0  0
    9.1816  -15.6847   26.0023 N   0  0  0  0  0  0  0  0  0  0  0  0
   10.0547  -15.0390   26.9518 C   0  0  1  0  0  0  0  0  0  0  0  0
    9.2265  -14.0008   27.7165 C   0  0  0  0  0  0  0  0  0  0  0  0
   10.3111  -13.1775   28.9157 S   0  0  0  0  0  0  0  0  0  0  0  0
   10.6107  -16.0143   27.9179 C   0  0  0  0  0  0  0  0  0  0  0  0
    9.9338  -17.0460   28.1644 O   0  0  0  0  0  0  0  0  0  0  0  0
   11.8362  -15.8408   28.5579 O   0  0  0  0  0  0  0  0  0  0  0  0
  2  3  1  0
  2  5  1  0
  2  1  1  6
  4  3  1  0
  5  6  2  0
  8  7  1  6
  8  9  1  0
  8 10  1  0
 10 12  1  0
 10 11  1  6
 11  5  1  0
 12 13  2  0
 14 12  1  0
 14 15  1  0
 15 18  1  0
 16 17  1  0
 15 16  1  1
 18 19  2  0
 18 20  1  0
M  END
$$$$
