CTC.pdb
     RDKit          3D

 20 19  0  0  1  0  0  0  0  0999 V2000
    7.9997  -15.1671   18.6701 N   0  0  0  0  0  0  0  0  0  0  0  0
    8.3102  -14.4004   19.8606 C   0  0  1  0  0  0  0  0  0  0  0  0
    7.6856  -13.0172   19.6448 C   0  0  0  0  0  0  0  0  0  0  0  0
    8.8591  -12.0410   18.6789 S   0  0  0  0  0  0  0  0  0  0  0  0
    7.6730  -14.9965   21.0682 C   0  0  0  0  0  0  0  0  0  0  0  0
    6.5321  -15.4864   21.0469 O   0  0  0  0  0  0  0  0  0  0  0  0
    7.6773  -17.8087   22.3896 C   0  0  0  0  0  0  0  0  0  0  0  0
    8.2667  -17.0283   23.5190 C   0  0  1  0  0  0  0  0  0  0  0  0
    9.6825  -17.1001   23.4333 O   0  0  0  0  0  0  0  0  0  0  0  0
    7.8609  -15.5634   23.5211 C   0  0  2  0  0  0  0  0  0  0  0  0
    8.4211  -14.9911   22.2768 N   0  0  0  0  0  0  0  0  0  0  0  0
    8.4104  -14.7836   24.6247 C   0  0  0  0  0  0  0  0  0  0  0  0
    9.6228  -14.3822   24.5834 O   0  0  0  0  0  0  0  0  0  0  0  0
    7.6664  -14.4289   25.7730 N   0  0  0  0  0  0  0  0  0  0  0  0
    8.3233  -13.7484   26.8623 C   0  0  1  0  0  0  0  0  0  0  0  0
    7.3072  -12.7920   27.4958 C   0  0  0  0  0  0  0  0  0  0  0  0
    6.3417  -12.0233   26.1658 S   0  0  0  0  0  0  0  0  0  0  0  0
    8.7855  -14.7073   27.8921 C   0  0  0  0  0  0  0  0  0  0  0  0
    8.4912  -15.9208   27.7372 O   0  0  0  0  0  0  0  0  0  0  0  0
    9.5234  -14.3281   29.0117 O   0  0  0  0  0  0  0  0  0  0  0  0
  2  3  1  0
  2  5  1  0
  2  1  1  6
  4  3  1  0
  5  6  2  0
  8  7  1  6
  8  9  1  0
  8 10  1  0
 10 12  1  0
 10 11  1  6
 11  5  1  0
 12 13  2  0
 14 12  1  0
 14 15  1  0
 15 18  1  0
 16 17  1  0
 15 16  1  1
 18 19  2  0
 18 20  1  0
M  END
$$$$
