CTC.pdb
     RDKit          3D

 20 19  0  0  1  0  0  0  0  0999 V2000
    8.6098  -14.6035   17.6837 N   0  0  0  0  0  0  0  0  0  0  0  0
    8.8962  -14.2111   19.0496 C   0  0  1  0  0  0  0  0  0  0  0  0
    8.2717  -12.8225   19.2279 C   0  0  0  0  0  0  0  0  0  0  0  0
    9.5308  -11.6049   18.7862 S   0  0  0  0  0  0  0  0  0  0  0  0
    8.2385  -15.1268   20.0236 C   0  0  0  0  0  0  0  0  0  0  0  0
    7.4116  -15.9862   19.6773 O   0  0  0  0  0  0  0  0  0  0  0  0
    8.2364  -17.7951   20.6963 C   0  0  0  0  0  0  0  0  0  0  0  0
    8.6905  -17.2932   22.0282 C   0  0  1  0  0  0  0  0  0  0  0  0
   10.1046  -17.1635   22.0089 O   0  0  0  0  0  0  0  0  0  0  0  0
    8.0914  -15.9484   22.4062 C   0  0  2  0  0  0  0  0  0  0  0  0
    8.5888  -14.9900   21.3944 N   0  0  0  0  0  0  0  0  0  0  0  0
    8.5138  -15.4404   23.7068 C   0  0  0  0  0  0  0  0  0  0  0  0
    9.6960  -14.9806   23.8610 O   0  0  0  0  0  0  0  0  0  0  0  0
    7.6749  -15.4202   24.8442 N   0  0  0  0  0  0  0  0  0  0  0  0
    8.1855  -14.9126   26.0942 C   0  0  1  0  0  0  0  0  0  0  0  0
    7.0183  -14.2644   26.8465 C   0  0  0  0  0  0  0  0  0  0  0  0
    6.2894  -12.9907   25.7795 S   0  0  0  0  0  0  0  0  0  0  0  0
    8.7459  -16.0022   26.9263 C   0  0  0  0  0  0  0  0  0  0  0  0
    8.6172  -17.1827   26.5101 O   0  0  0  0  0  0  0  0  0  0  0  0
    9.4014  -15.7792   28.1355 O   0  0  0  0  0  0  0  0  0  0  0  0
  2  3  1  0
  2  5  1  0
  2  1  1  6
  4  3  1  0
  5  6  2  0
  8  7  1  6
  8  9  1  0
  8 10  1  0
 10 12  1  0
 10 11  1  6
 11  5  1  0
 12 13  2  0
 14 12  1  0
 14 15  1  0
 15 18  1  0
 16 17  1  0
 15 16  1  1
 18 19  2  0
 18 20  1  0
M  END
$$$$
