CTC.pdb
     RDKit          3D

 20 19  0  0  1  0  0  0  0  0999 V2000
    7.9924  -17.2845   16.2119 N   0  0  0  0  0  0  0  0  0  0  0  0
    7.7533  -17.4312   17.6342 C   0  0  1  0  0  0  0  0  0  0  0  0
    8.1496  -18.8709   17.9809 C   0  0  0  0  0  0  0  0  0  0  0  0
    7.7877  -19.1222   19.7327 S   0  0  0  0  0  0  0  0  0  0  0  0
    8.6291  -16.5222   18.4256 C   0  0  0  0  0  0  0  0  0  0  0  0
    9.8202  -16.3243   18.1353 O   0  0  0  0  0  0  0  0  0  0  0  0
    7.6930  -12.9940   19.0721 C   0  0  0  0  0  0  0  0  0  0  0  0
    7.9335  -13.6377   20.3987 C   0  0  1  0  0  0  0  0  0  0  0  0
    6.6834  -14.0215   20.9529 O   0  0  0  0  0  0  0  0  0  0  0  0
    8.8220  -14.8687   20.3235 C   0  0  2  0  0  0  0  0  0  0  0  0
    8.0544  -15.8698   19.5501 N   0  0  0  0  0  0  0  0  0  0  0  0
    9.1236  -15.4785   21.6139 C   0  0  0  0  0  0  0  0  0  0  0  0
    8.1838  -15.9788   22.3206 O   0  0  0  0  0  0  0  0  0  0  0  0
   10.4286  -15.5577   22.1512 N   0  0  0  0  0  0  0  0  0  0  0  0
   10.6446  -16.2639   23.3904 C   0  0  1  0  0  0  0  0  0  0  0  0
   10.2775  -17.7339   23.1601 C   0  0  0  0  0  0  0  0  0  0  0  0
   10.6166  -18.6522   24.6878 S   0  0  0  0  0  0  0  0  0  0  0  0
   12.0620  -16.1844   23.8124 C   0  0  0  0  0  0  0  0  0  0  0  0
   12.3644  -16.6501   24.9416 O   0  0  0  0  0  0  0  0  0  0  0  0
   13.0633  -15.6229   23.0225 O   0  0  0  0  0  0  0  0  0  0  0  0
  2  3  1  0
  2  5  1  0
  2  1  1  6
  4  3  1  0
  5  6  2  0
  8  7  1  6
  8  9  1  0
  8 10  1  0
 10 12  1  0
 10 11  1  6
 11  5  1  0
 12 13  2  0
 14 12  1  0
 14 15  1  0
 15 18  1  0
 16 17  1  0
 15 16  1  6
 18 19  2  0
 18 20  1  0
M  END
$$$$
