CTC.pdb
     RDKit          3D

 20 19  0  0  1  0  0  0  0  0999 V2000
    4.4193  -19.7982   20.5587 N   0  0  0  0  0  0  0  0  0  0  0  0
    4.3400  -18.5243   21.2463 C   0  0  1  0  0  0  0  0  0  0  0  0
    3.5813  -18.7968   22.5502 C   0  0  0  0  0  0  0  0  0  0  0  0
    1.8205  -18.8417   22.1497 S   0  0  0  0  0  0  0  0  0  0  0  0
    5.6945  -18.0231   21.6122 C   0  0  0  0  0  0  0  0  0  0  0  0
    6.5826  -18.7673   22.0590 O   0  0  0  0  0  0  0  0  0  0  0  0
    8.5548  -13.9343   21.2770 C   0  0  0  0  0  0  0  0  0  0  0  0
    7.3534  -14.7600   20.9503 C   0  0  1  0  0  0  0  0  0  0  0  0
    7.3690  -15.0587   19.5619 O   0  0  0  0  0  0  0  0  0  0  0  0
    7.2887  -16.0686   21.7209 C   0  0  2  0  0  0  0  0  0  0  0  0
    5.9531  -16.6369   21.4333 N   0  0  0  0  0  0  0  0  0  0  0  0
    7.3788  -15.9241   23.1697 C   0  0  0  0  0  0  0  0  0  0  0  0
    6.4129  -15.4001   23.8219 O   0  0  0  0  0  0  0  0  0  0  0  0
    8.4985  -16.3407   23.9251 N   0  0  0  0  0  0  0  0  0  0  0  0
    8.5709  -16.0114   25.3277 C   0  0  1  0  0  0  0  0  0  0  0  0
    7.3954  -16.6995   26.0301 C   0  0  0  0  0  0  0  0  0  0  0  0
    7.6394  -18.4943   25.9241 S   0  0  0  0  0  0  0  0  0  0  0  0
    9.8363  -16.4945   25.9269 C   0  0  0  0  0  0  0  0  0  0  0  0
   10.6590  -17.0737   25.1712 O   0  0  0  0  0  0  0  0  0  0  0  0
   10.1514  -16.3372   27.2751 O   0  0  0  0  0  0  0  0  0  0  0  0
  2  3  1  0
  2  5  1  0
  2  1  1  1
  4  3  1  0
  5  6  2  0
  8  7  1  1
  8  9  1  0
  8 10  1  0
 10 12  1  0
 10 11  1  1
 11  5  1  0
 12 13  2  0
 14 12  1  0
 14 15  1  0
 15 18  1  0
 16 17  1  0
 15 16  1  1
 18 19  2  0
 18 20  1  0
M  END
$$$$
