CTC.pdb
     RDKit          3D

 20 19  0  0  1  0  0  0  0  0999 V2000
    7.8467  -15.0078   18.8914 N   0  0  0  0  0  0  0  0  0  0  0  0
    8.6122  -14.4819   20.0045 C   0  0  1  0  0  0  0  0  0  0  0  0
    8.1268  -13.0418   20.2057 C   0  0  0  0  0  0  0  0  0  0  0  0
    8.8579  -12.0386   18.8934 S   0  0  0  0  0  0  0  0  0  0  0  0
    8.3247  -15.2314   21.2596 C   0  0  0  0  0  0  0  0  0  0  0  0
    7.1783  -15.5909   21.5737 O   0  0  0  0  0  0  0  0  0  0  0  0
    9.3993  -18.4343   21.8010 C   0  0  0  0  0  0  0  0  0  0  0  0
    9.9849  -17.6962   22.9603 C   0  0  1  0  0  0  0  0  0  0  0  0
   11.3362  -17.3767   22.6622 O   0  0  0  0  0  0  0  0  0  0  0  0
    9.2504  -16.4076   23.2926 C   0  0  2  0  0  0  0  0  0  0  0  0
    9.4219  -15.5330   22.1114 N   0  0  0  0  0  0  0  0  0  0  0  0
    9.7910  -15.6788   24.4348 C   0  0  0  0  0  0  0  0  0  0  0  0
   10.8979  -15.0495   24.3268 O   0  0  0  0  0  0  0  0  0  0  0  0
    9.1503  -15.6183   25.6933 N   0  0  0  0  0  0  0  0  0  0  0  0
    9.7485  -14.8512   26.7585 C   0  0  1  0  0  0  0  0  0  0  0  0
    8.6233  -14.1112   27.4898 C   0  0  0  0  0  0  0  0  0  0  0  0
    9.3208  -13.3392   28.9763 S   0  0  0  0  0  0  0  0  0  0  0  0
   10.4501  -15.7296   27.7227 C   0  0  0  0  0  0  0  0  0  0  0  0
   10.0642  -16.9237   27.8159 O   0  0  0  0  0  0  0  0  0  0  0  0
   11.5063  -15.2961   28.5216 O   0  0  0  0  0  0  0  0  0  0  0  0
  2  3  1  0
  2  5  1  0
  2  1  1  6
  4  3  1  0
  5  6  2  0
  8  7  1  6
  8  9  1  0
  8 10  1  0
 10 12  1  0
 10 11  1  6
 11  5  1  0
 12 13  2  0
 14 12  1  0
 14 15  1  0
 15 18  1  0
 16 17  1  0
 15 16  1  1
 18 19  2  0
 18 20  1  0
M  END
$$$$
