CTC.pdb
     RDKit          3D

 20 19  0  0  1  0  0  0  0  0999 V2000
   11.8432  -17.2710   19.7517 N   0  0  0  0  0  0  0  0  0  0  0  0
   11.0584  -17.4340   20.9596 C   0  0  1  0  0  0  0  0  0  0  0  0
   12.0395  -17.9085   22.0377 C   0  0  0  0  0  0  0  0  0  0  0  0
   12.3815  -19.6543   21.7241 S   0  0  0  0  0  0  0  0  0  0  0  0
   10.4886  -16.1342   21.4129 C   0  0  0  0  0  0  0  0  0  0  0  0
   11.1200  -15.0674   21.3389 O   0  0  0  0  0  0  0  0  0  0  0  0
    7.2006  -14.7298   20.1029 C   0  0  0  0  0  0  0  0  0  0  0  0
    7.1250  -14.9630   21.5766 C   0  0  1  0  0  0  0  0  0  0  0  0
    6.5802  -16.2541   21.8068 O   0  0  0  0  0  0  0  0  0  0  0  0
    8.4732  -14.8809   22.2737 C   0  0  2  0  0  0  0  0  0  0  0  0
    9.1709  -16.1440   21.9458 N   0  0  0  0  0  0  0  0  0  0  0  0
    8.4001  -14.8090   23.7289 C   0  0  0  0  0  0  0  0  0  0  0  0
    8.7469  -15.8141   24.4376 O   0  0  0  0  0  0  0  0  0  0  0  0
    7.9589  -13.6637   24.4302 N   0  0  0  0  0  0  0  0  0  0  0  0
    7.8431  -13.7121   25.8672 C   0  0  1  0  0  0  0  0  0  0  0  0
    7.2581  -12.3746   26.3337 C   0  0  0  0  0  0  0  0  0  0  0  0
    7.1911  -12.3831   28.1469 S   0  0  0  0  0  0  0  0  0  0  0  0
    6.9403  -14.8053   26.2956 C   0  0  0  0  0  0  0  0  0  0  0  0
    5.8861  -14.9882   25.6334 O   0  0  0  0  0  0  0  0  0  0  0  0
    7.2049  -15.6302   27.3870 O   0  0  0  0  0  0  0  0  0  0  0  0
  2  3  1  0
  2  5  1  0
  2  1  1  6
  4  3  1  0
  5  6  2  0
  8  7  1  6
  8  9  1  0
  8 10  1  0
 10 12  1  0
 10 11  1  1
 11  5  1  0
 12 13  2  0
 14 12  1  0
 14 15  1  0
 15 18  1  0
 16 17  1  0
 15 16  1  6
 18 19  2  0
 18 20  1  0
M  END
$$$$
