CTC.pdb
     RDKit          3D

 20 19  0  0  1  0  0  0  0  0999 V2000
   10.9147  -17.7940   19.2607 N   0  0  0  0  0  0  0  0  0  0  0  0
   11.5017  -17.1896   20.4404 C   0  0  1  0  0  0  0  0  0  0  0  0
   11.8526  -15.7506   20.0452 C   0  0  0  0  0  0  0  0  0  0  0  0
   12.8076  -15.0369   21.4023 S   0  0  0  0  0  0  0  0  0  0  0  0
   10.5186  -17.1205   21.5577 C   0  0  0  0  0  0  0  0  0  0  0  0
    9.3224  -16.8400   21.3769 O   0  0  0  0  0  0  0  0  0  0  0  0
    9.4662  -19.8416   23.3860 C   0  0  0  0  0  0  0  0  0  0  0  0
   10.0445  -18.9377   24.4254 C   0  0  1  0  0  0  0  0  0  0  0  0
   11.3794  -19.3432   24.6910 O   0  0  0  0  0  0  0  0  0  0  0  0
   10.0614  -17.4742   24.0152 C   0  0  2  0  0  0  0  0  0  0  0  0
   10.9943  -17.3902   22.8697 N   0  0  0  0  0  0  0  0  0  0  0  0
   10.5693  -16.5642   25.0360 C   0  0  0  0  0  0  0  0  0  0  0  0
   11.8257  -16.3557   25.1396 O   0  0  0  0  0  0  0  0  0  0  0  0
    9.7373  -15.8734   25.9462 N   0  0  0  0  0  0  0  0  0  0  0  0
   10.3345  -15.0747   26.9885 C   0  0  1  0  0  0  0  0  0  0  0  0
    9.3000  -14.0335   27.4295 C   0  0  0  0  0  0  0  0  0  0  0  0
   10.0039  -13.0757   28.8003 S   0  0  0  0  0  0  0  0  0  0  0  0
   10.7042  -15.9073   28.1563 C   0  0  0  0  0  0  0  0  0  0  0  0
   11.7132  -15.5638   28.8251 O   0  0  0  0  0  0  0  0  0  0  0  0
    9.9915  -17.0409   28.5417 O   0  0  0  0  0  0  0  0  0  0  0  0
  2  3  1  0
  2  5  1  0
  2  1  1  6
  4  3  1  0
  5  6  2  0
  8  7  1  6
  8  9  1  0
  8 10  1  0
 10 12  1  0
 10 11  1  6
 11  5  1  0
 12 13  2  0
 14 12  1  0
 14 15  1  0
 15 18  1  0
 16 17  1  0
 15 16  1  1
 18 19  2  0
 18 20  1  0
M  END
$$$$
