CTC.pdb
     RDKit          3D

 20 19  0  0  1  0  0  0  0  0999 V2000
    8.1066  -14.8188   18.4436 N   0  0  0  0  0  0  0  0  0  0  0  0
    8.6242  -14.2701   19.6816 C   0  0  1  0  0  0  0  0  0  0  0  0
    8.3179  -12.7687   19.6366 C   0  0  0  0  0  0  0  0  0  0  0  0
    9.5528  -11.9989   18.5663 S   0  0  0  0  0  0  0  0  0  0  0  0
    7.9140  -14.8371   20.8622 C   0  0  0  0  0  0  0  0  0  0  0  0
    6.7183  -15.1706   20.8242 O   0  0  0  0  0  0  0  0  0  0  0  0
    8.0657  -17.8374   21.9964 C   0  0  0  0  0  0  0  0  0  0  0  0
    8.5375  -17.0914   23.2017 C   0  0  1  0  0  0  0  0  0  0  0  0
    9.9577  -17.0929   23.2121 O   0  0  0  0  0  0  0  0  0  0  0  0
    8.0599  -15.6492   23.2482 C   0  0  2  0  0  0  0  0  0  0  0  0
    8.6565  -14.9916   22.0644 N   0  0  0  0  0  0  0  0  0  0  0  0
    8.5102  -14.8985   24.4151 C   0  0  0  0  0  0  0  0  0  0  0  0
    9.7183  -14.4880   24.4848 O   0  0  0  0  0  0  0  0  0  0  0  0
    7.6717  -14.5828   25.5084 N   0  0  0  0  0  0  0  0  0  0  0  0
    8.2285  -13.9186   26.6615 C   0  0  1  0  0  0  0  0  0  0  0  0
    7.1114  -13.0938   27.3099 C   0  0  0  0  0  0  0  0  0  0  0  0
    6.4244  -11.9784   26.0545 S   0  0  0  0  0  0  0  0  0  0  0  0
    8.7370  -14.8974   27.6501 C   0  0  0  0  0  0  0  0  0  0  0  0
    8.5365  -16.1186   27.4222 O   0  0  0  0  0  0  0  0  0  0  0  0
    9.4195  -14.5287   28.8076 O   0  0  0  0  0  0  0  0  0  0  0  0
  2  3  1  0
  2  5  1  0
  2  1  1  6
  4  3  1  0
  5  6  2  0
  8  7  1  6
  8  9  1  0
  8 10  1  0
 10 12  1  0
 10 11  1  6
 11  5  1  0
 12 13  2  0
 14 12  1  0
 14 15  1  0
 15 18  1  0
 16 17  1  0
 15 16  1  1
 18 19  2  0
 18 20  1  0
M  END
$$$$
