CTC.pdb
     RDKit          3D

 20 19  0  0  1  0  0  0  0  0999 V2000
    7.7064  -13.6091   16.9888 N   0  0  0  0  0  0  0  0  0  0  0  0
    8.4648  -13.2980   18.1845 C   0  0  1  0  0  0  0  0  0  0  0  0
    7.4326  -12.8992   19.2453 C   0  0  0  0  0  0  0  0  0  0  0  0
    8.3223  -12.6571   20.7986 S   0  0  0  0  0  0  0  0  0  0  0  0
    9.1887  -14.4973   18.6920 C   0  0  0  0  0  0  0  0  0  0  0  0
    8.7052  -15.6399   18.6391 O   0  0  0  0  0  0  0  0  0  0  0  0
   13.2858  -13.9634   18.9868 C   0  0  0  0  0  0  0  0  0  0  0  0
   12.6076  -15.2779   18.7767 C   0  0  1  0  0  0  0  0  0  0  0  0
   13.5107  -16.3178   19.1230 O   0  0  0  0  0  0  0  0  0  0  0  0
   11.3431  -15.4470   19.6030 C   0  0  2  0  0  0  0  0  0  0  0  0
   10.4794  -14.2976   19.2530 N   0  0  0  0  0  0  0  0  0  0  0  0
   11.5497  -15.3909   21.0460 C   0  0  0  0  0  0  0  0  0  0  0  0
   11.2403  -14.3353   21.6963 O   0  0  0  0  0  0  0  0  0  0  0  0
   12.0847  -16.4617   21.7977 N   0  0  0  0  0  0  0  0  0  0  0  0
   11.9357  -16.4660   23.2326 C   0  0  1  0  0  0  0  0  0  0  0  0
   10.4361  -16.4306   23.5464 C   0  0  0  0  0  0  0  0  0  0  0  0
   10.2275  -16.5381   25.3456 S   0  0  0  0  0  0  0  0  0  0  0  0
   12.5212  -17.6891   23.8284 C   0  0  0  0  0  0  0  0  0  0  0  0
   12.7673  -17.6799   25.0624 O   0  0  0  0  0  0  0  0  0  0  0  0
   12.8079  -18.8357   23.0904 O   0  0  0  0  0  0  0  0  0  0  0  0
  2  3  1  0
  2  5  1  0
  2  1  1  6
  4  3  1  0
  5  6  2  0
  8  7  1  1
  8  9  1  0
  8 10  1  0
 10 12  1  0
 10 11  1  6
 11  5  1  0
 12 13  2  0
 14 12  1  0
 14 15  1  0
 15 18  1  0
 16 17  1  0
 15 16  1  6
 18 19  2  0
 18 20  1  0
M  END
$$$$
