LPV.pdb
     RDKit          3D

 23 23  0  0  1  0  0  0  0  0999 V2000
   28.0820  -19.7968  -14.4176 C   0  0  0  0  0  0  0  0  0  0  0  0
   26.9922  -19.1815  -13.5341 C   0  0  2  0  0  0  0  0  0  0  0  0
   27.0713  -17.7013  -13.7207 C   0  0  0  0  0  0  0  0  0  0  0  0
   27.2090  -19.6947  -12.1619 C   0  0  0  0  0  0  0  0  0  0  0  0
   27.0448  -21.1586  -11.9504 C   0  0  2  0  0  0  0  0  0  0  0  0
   25.7491  -21.5954  -12.3011 N   0  0  0  0  0  0  0  0  0  0  0  0
   27.5398  -21.6050  -10.6228 C   0  0  0  0  0  0  0  0  0  0  0  0
   26.6331  -21.9853   -9.8203 O   0  0  0  0  0  0  0  0  0  0  0  0
   28.8942  -21.6297  -10.2169 N   0  0  0  0  0  0  0  0  0  0  0  0
   30.0217  -21.2340  -11.0009 C   0  0  0  0  0  0  0  0  0  0  0  0
   31.2302  -21.8715  -10.3698 C   0  0  0  0  0  0  0  0  0  0  0  0
   30.7405  -22.5860   -9.1564 C   0  0  0  0  0  0  0  0  0  0  0  0
   29.3487  -22.0456   -8.9243 C   0  0  1  0  0  0  0  0  0  0  0  0
   29.4956  -20.8968   -7.9820 C   0  0  0  0  0  0  0  0  0  0  0  0
   29.7780  -19.7419   -8.4062 O   0  0  0  0  0  0  0  0  0  0  0  0
   27.6474  -18.6794   -4.2368 C   0  0  0  0  0  0  0  0  0  0  0  0
   27.6972  -19.8652   -5.1755 C   0  0  1  0  0  0  0  0  0  0  0  0
   26.7252  -19.5358   -6.2987 C   0  0  0  0  0  0  0  0  0  0  0  0
   29.0965  -19.9967   -5.6530 C   0  0  2  0  0  0  0  0  0  0  0  0
   29.3304  -21.0415   -6.6043 N   0  0  0  0  0  0  0  0  0  0  0  0
   30.0044  -20.2065   -4.4977 C   0  0  0  0  0  0  0  0  0  0  0  0
   30.6808  -19.1890   -3.8499 O   0  0  0  0  0  0  0  0  0  0  0  0
   30.2104  -21.3776   -4.0329 O   0  0  0  0  0  0  0  0  0  0  0  0
  2  1  1  6
  2  4  1  0
  2  3  1  0
  4  5  1  0
  5  6  1  1
  5  7  1  0
  7  9  1  0
  7  8  2  0
  9 10  1  0
 11 10  1  0
 12 11  1  0
 13 12  1  0
 13 14  1  1
 13  9  1  0
 14 20  1  0
 15 14  2  0
 17 16  1  1
 17 18  1  0
 19 17  1  0
 19 20  1  6
 21 19  1  0
 21 22  1  0
 23 21  2  0
M  END
$$$$
