LPV.pdb
     RDKit          3D

 23 23  0  0  1  0  0  0  0  0999 V2000
   25.8027  -18.4639  -15.8244 C   0  0  0  0  0  0  0  0  0  0  0  0
   24.6727  -18.1279  -14.8462 C   0  0  2  0  0  0  0  0  0  0  0  0
   24.5164  -16.6421  -14.8627 C   0  0  0  0  0  0  0  0  0  0  0  0
   25.0267  -18.7484  -13.5489 C   0  0  0  0  0  0  0  0  0  0  0  0
   25.0056  -20.2348  -13.4787 C   0  0  2  0  0  0  0  0  0  0  0  0
   23.7566  -20.7592  -13.8755 N   0  0  0  0  0  0  0  0  0  0  0  0
   25.5474  -20.7558  -12.1974 C   0  0  0  0  0  0  0  0  0  0  0  0
   24.6822  -21.2795  -11.4308 O   0  0  0  0  0  0  0  0  0  0  0  0
   26.9030  -20.7052  -11.7977 N   0  0  0  0  0  0  0  0  0  0  0  0
   27.9570  -20.0039  -12.4608 C   0  0  0  0  0  0  0  0  0  0  0  0
   29.2473  -20.6146  -11.9840 C   0  0  0  0  0  0  0  0  0  0  0  0
   28.8741  -21.6433  -10.9715 C   0  0  0  0  0  0  0  0  0  0  0  0
   27.4319  -21.3469  -10.6320 C   0  0  1  0  0  0  0  0  0  0  0  0
   27.4572  -20.4357   -9.4495 C   0  0  0  0  0  0  0  0  0  0  0  0
   27.2993  -19.1908   -9.5865 O   0  0  0  0  0  0  0  0  0  0  0  0
   26.6845  -20.1826   -4.6152 C   0  0  0  0  0  0  0  0  0  0  0  0
   26.6996  -21.0156   -5.8784 C   0  0  1  0  0  0  0  0  0  0  0  0
   25.2388  -21.2949   -6.1988 C   0  0  0  0  0  0  0  0  0  0  0  0
   27.3712  -20.2143   -6.9321 C   0  0  2  0  0  0  0  0  0  0  0  0
   27.6543  -20.9091   -8.1521 N   0  0  0  0  0  0  0  0  0  0  0  0
   28.6429  -19.6578   -6.4067 C   0  0  0  0  0  0  0  0  0  0  0  0
   28.7689  -18.3912   -5.8662 O   0  0  0  0  0  0  0  0  0  0  0  0
   29.7172  -20.3472   -6.4313 O   0  0  0  0  0  0  0  0  0  0  0  0
  2  1  1  6
  2  4  1  0
  2  3  1  0
  4  5  1  0
  5  6  1  1
  5  7  1  0
  7  9  1  0
  7  8  2  0
  9 10  1  0
 11 10  1  0
 12 11  1  0
 13 12  1  0
 13 14  1  1
 13  9  1  0
 14 20  1  0
 15 14  2  0
 17 16  1  1
 17 18  1  0
 19 17  1  0
 19 20  1  6
 21 19  1  0
 21 22  1  0
 23 21  2  0
M  END
$$$$
