LPV.pdb
     RDKit          3D

 23 23  0  0  1  0  0  0  0  0999 V2000
   29.2341  -18.7048  -14.8175 C   0  0  0  0  0  0  0  0  0  0  0  0
   28.3028  -19.1356  -15.9550 C   0  0  2  0  0  0  0  0  0  0  0  0
   28.0485  -17.9208  -16.7867 C   0  0  0  0  0  0  0  0  0  0  0  0
   27.1235  -19.7752  -15.3278 C   0  0  0  0  0  0  0  0  0  0  0  0
   27.3375  -21.0878  -14.6601 C   0  0  2  0  0  0  0  0  0  0  0  0
   27.9663  -22.0149  -15.5191 N   0  0  0  0  0  0  0  0  0  0  0  0
   26.1240  -21.5781  -13.9575 C   0  0  0  0  0  0  0  0  0  0  0  0
   25.5026  -22.5067  -14.5595 O   0  0  0  0  0  0  0  0  0  0  0  0
   25.6406  -21.0959  -12.7191 N   0  0  0  0  0  0  0  0  0  0  0  0
   26.2918  -20.1548  -11.8630 C   0  0  0  0  0  0  0  0  0  0  0  0
   25.6771  -20.3164  -10.4988 C   0  0  0  0  0  0  0  0  0  0  0  0
   24.6039  -21.3412  -10.6423 C   0  0  0  0  0  0  0  0  0  0  0  0
   24.3895  -21.4711  -12.1323 C   0  0  1  0  0  0  0  0  0  0  0  0
   23.2941  -20.5193  -12.4839 C   0  0  0  0  0  0  0  0  0  0  0  0
   23.5350  -19.2948  -12.6737 O   0  0  0  0  0  0  0  0  0  0  0  0
   20.3041  -20.9520  -15.9721 C   0  0  0  0  0  0  0  0  0  0  0  0
   21.3337  -21.3984  -14.9570 C   0  0  1  0  0  0  0  0  0  0  0  0
   22.6842  -21.0736  -15.5777 C   0  0  0  0  0  0  0  0  0  0  0  0
   21.0838  -20.6393  -13.7061 C   0  0  2  0  0  0  0  0  0  0  0  0
   21.9679  -20.9311  -12.6178 N   0  0  0  0  0  0  0  0  0  0  0  0
   19.6904  -20.8680  -13.2488 C   0  0  0  0  0  0  0  0  0  0  0  0
   18.7391  -19.8707  -13.1362 O   0  0  0  0  0  0  0  0  0  0  0  0
   19.2923  -22.0374  -12.9264 O   0  0  0  0  0  0  0  0  0  0  0  0
  2  1  1  1
  2  4  1  0
  2  3  1  0
  4  5  1  0
  5  6  1  6
  5  7  1  0
  7  9  1  0
  7  8  2  0
  9 10  1  0
 11 10  1  0
 12 11  1  0
 13 12  1  0
 13 14  1  6
 13  9  1  0
 14 20  1  0
 15 14  2  0
 17 16  1  6
 17 18  1  0
 19 17  1  0
 19 20  1  1
 21 19  1  0
 21 22  1  0
 23 21  2  0
M  END
$$$$
