LPV.pdb
     RDKit          3D

 23 23  0  0  1  0  0  0  0  0999 V2000
   14.2985  -10.2338  -18.6203 C   0  0  0  0  0  0  0  0  0  0  0  0
   14.4342  -10.5078  -17.1192 C   0  0  2  0  0  0  0  0  0  0  0  0
   13.3017   -9.8008  -16.4484 C   0  0  0  0  0  0  0  0  0  0  0  0
   15.8028  -10.0989  -16.7283 C   0  0  0  0  0  0  0  0  0  0  0  0
   16.9286  -10.9422  -17.2144 C   0  0  2  0  0  0  0  0  0  0  0  0
   16.8039  -12.2802  -16.7822 N   0  0  0  0  0  0  0  0  0  0  0  0
   18.2550  -10.3119  -16.9907 C   0  0  0  0  0  0  0  0  0  0  0  0
   18.9568  -10.8618  -16.0874 O   0  0  0  0  0  0  0  0  0  0  0  0
   18.7592   -9.1896  -17.6879 N   0  0  0  0  0  0  0  0  0  0  0  0
   18.0908   -8.4624  -18.7207 C   0  0  0  0  0  0  0  0  0  0  0  0
   19.1531   -7.7051  -19.4710 C   0  0  0  0  0  0  0  0  0  0  0  0
   20.4394   -7.9845  -18.7709 C   0  0  0  0  0  0  0  0  0  0  0  0
   20.0355   -8.5874  -17.4456 C   0  0  1  0  0  0  0  0  0  0  0  0
   19.9494   -7.4543  -16.4772 C   0  0  0  0  0  0  0  0  0  0  0  0
   18.8563   -6.8567  -16.2737 O   0  0  0  0  0  0  0  0  0  0  0  0
   21.6038   -5.9007  -12.2234 C   0  0  0  0  0  0  0  0  0  0  0  0
   21.7422   -6.8516  -13.3925 C   0  0  1  0  0  0  0  0  0  0  0  0
   21.0907   -8.1498  -12.9400 C   0  0  0  0  0  0  0  0  0  0  0  0
   21.0456   -6.2376  -14.5506 C   0  0  2  0  0  0  0  0  0  0  0  0
   21.0583   -7.0060  -15.7591 N   0  0  0  0  0  0  0  0  0  0  0  0
   21.6301   -4.9043  -14.8398 C   0  0  0  0  0  0  0  0  0  0  0  0
   21.1994   -3.7270  -14.2558 O   0  0  0  0  0  0  0  0  0  0  0  0
   22.5909   -4.7785  -15.6710 O   0  0  0  0  0  0  0  0  0  0  0  0
  2  1  1  6
  2  4  1  0
  2  3  1  0
  4  5  1  0
  5  6  1  1
  5  7  1  0
  7  9  1  0
  7  8  2  0
  9 10  1  0
 11 10  1  0
 12 11  1  0
 13 12  1  0
 13 14  1  1
 13  9  1  0
 14 20  1  0
 15 14  2  0
 17 16  1  1
 17 18  1  0
 19 17  1  0
 19 20  1  6
 21 19  1  0
 21 22  1  0
 23 21  2  0
M  END
$$$$
