LPV.pdb
     RDKit          3D

 23 23  0  0  1  0  0  0  0  0999 V2000
   25.0077  -15.5638  -19.8041 C   0  0  0  0  0  0  0  0  0  0  0  0
   23.5150  -15.2200  -19.8261 C   0  0  2  0  0  0  0  0  0  0  0  0
   23.1712  -14.8842  -21.2407 C   0  0  0  0  0  0  0  0  0  0  0  0
   23.3024  -14.1576  -18.8163 C   0  0  0  0  0  0  0  0  0  0  0  0
   23.5105  -14.5254  -17.3894 C   0  0  2  0  0  0  0  0  0  0  0  0
   22.8739  -15.7428  -17.0651 N   0  0  0  0  0  0  0  0  0  0  0  0
   23.2515  -13.3940  -16.4623 C   0  0  0  0  0  0  0  0  0  0  0  0
   22.1324  -13.4439  -15.8657 O   0  0  0  0  0  0  0  0  0  0  0  0
   24.1324  -12.3153  -16.2163 N   0  0  0  0  0  0  0  0  0  0  0  0
   25.4050  -12.1027  -16.8309 C   0  0  0  0  0  0  0  0  0  0  0  0
   26.1598  -11.1526  -15.9407 C   0  0  0  0  0  0  0  0  0  0  0  0
   25.2292  -10.7866  -14.8350 C   0  0  0  0  0  0  0  0  0  0  0  0
   23.8679  -11.2396  -15.3090 C   0  0  1  0  0  0  0  0  0  0  0  0
   23.2486  -10.0653  -15.9923 C   0  0  0  0  0  0  0  0  0  0  0  0
   23.4973   -9.8146  -17.2042 O   0  0  0  0  0  0  0  0  0  0  0  0
   19.2055   -7.5751  -16.4833 C   0  0  0  0  0  0  0  0  0  0  0  0
   20.0232   -8.7007  -15.8882 C   0  0  1  0  0  0  0  0  0  0  0  0
   19.7346   -9.9161  -16.7567 C   0  0  0  0  0  0  0  0  0  0  0  0
   21.4488   -8.2901  -15.9381 C   0  0  2  0  0  0  0  0  0  0  0  0
   22.3762   -9.1986  -15.3334 N   0  0  0  0  0  0  0  0  0  0  0  0
   21.6121   -6.9616  -15.2966 C   0  0  0  0  0  0  0  0  0  0  0  0
   21.7801   -5.7800  -15.9952 O   0  0  0  0  0  0  0  0  0  0  0  0
   21.6056   -6.8448  -14.0253 O   0  0  0  0  0  0  0  0  0  0  0  0
  2  1  1  6
  2  4  1  0
  2  3  1  0
  4  5  1  0
  5  6  1  1
  5  7  1  0
  7  9  1  0
  7  8  2  0
  9 10  1  0
 11 10  1  0
 12 11  1  0
 13 12  1  0
 13 14  1  6
 13  9  1  0
 14 20  1  0
 15 14  2  0
 17 16  1  6
 17 18  1  0
 19 17  1  0
 19 20  1  1
 21 19  1  0
 21 22  1  0
 23 21  2  0
M  END
$$$$
