LPV.pdb
     RDKit          3D

 23 23  0  0  1  0  0  0  0  0999 V2000
   14.4153  -28.1512   -9.2282 C   0  0  0  0  0  0  0  0  0  0  0  0
   15.4015  -27.1012   -9.7494 C   0  0  2  0  0  0  0  0  0  0  0  0
   14.5970  -26.0891  -10.4983 C   0  0  0  0  0  0  0  0  0  0  0  0
   16.4406  -27.8279  -10.5144 C   0  0  0  0  0  0  0  0  0  0  0  0
   17.8360  -27.3198  -10.4167 C   0  0  2  0  0  0  0  0  0  0  0  0
   18.7258  -28.0807  -11.2051 N   0  0  0  0  0  0  0  0  0  0  0  0
   18.2608  -27.0779   -9.0139 C   0  0  0  0  0  0  0  0  0  0  0  0
   18.7277  -28.0971   -8.4190 O   0  0  0  0  0  0  0  0  0  0  0  0
   18.1797  -25.8413   -8.3327 N   0  0  0  0  0  0  0  0  0  0  0  0
   17.5990  -24.6346   -8.8319 C   0  0  0  0  0  0  0  0  0  0  0  0
   18.1604  -23.5113   -8.0025 C   0  0  0  0  0  0  0  0  0  0  0  0
   19.0285  -24.1467   -6.9704 C   0  0  0  0  0  0  0  0  0  0  0  0
   18.6602  -25.6117   -7.0035 C   0  0  1  0  0  0  0  0  0  0  0  0
   17.5918  -25.7997   -5.9776 C   0  0  0  0  0  0  0  0  0  0  0  0
   16.3721  -25.7963   -6.3032 O   0  0  0  0  0  0  0  0  0  0  0  0
   16.4765  -27.3948   -1.4584 C   0  0  0  0  0  0  0  0  0  0  0  0
   17.5948  -26.9178   -2.3594 C   0  0  1  0  0  0  0  0  0  0  0  0
   18.4566  -28.1439   -2.6218 C   0  0  0  0  0  0  0  0  0  0  0  0
   16.9726  -26.3830   -3.5964 C   0  0  2  0  0  0  0  0  0  0  0  0
   17.8849  -25.9857   -4.6264 N   0  0  0  0  0  0  0  0  0  0  0  0
   16.1103  -25.2216   -3.2640 C   0  0  0  0  0  0  0  0  0  0  0  0
   14.7606  -25.3161   -2.9781 O   0  0  0  0  0  0  0  0  0  0  0  0
   16.5921  -24.0399   -3.2261 O   0  0  0  0  0  0  0  0  0  0  0  0
  2  1  1  6
  2  4  1  0
  2  3  1  0
  4  5  1  0
  5  6  1  1
  5  7  1  0
  7  9  1  0
  7  8  2  0
  9 10  1  0
 11 10  1  0
 12 11  1  0
 13 12  1  0
 13 14  1  1
 13  9  1  0
 14 20  1  0
 15 14  2  0
 17 16  1  1
 17 18  1  0
 19 17  1  0
 19 20  1  6
 21 19  1  0
 21 22  1  0
 23 21  2  0
M  END
$$$$
