LPV.pdb
     RDKit          3D

 23 23  0  0  1  0  0  0  0  0999 V2000
   29.3820  -20.0383   -4.8398 C   0  0  0  0  0  0  0  0  0  0  0  0
   27.8517  -20.0965   -4.8790 C   0  0  2  0  0  0  0  0  0  0  0  0
   27.4361  -21.1558   -3.9108 C   0  0  0  0  0  0  0  0  0  0  0  0
   27.4639  -20.2953   -6.2944 C   0  0  0  0  0  0  0  0  0  0  0  0
   27.8003  -19.2054   -7.2503 C   0  0  2  0  0  0  0  0  0  0  0  0
   27.5273  -17.9313   -6.7074 N   0  0  0  0  0  0  0  0  0  0  0  0
   27.2667  -19.4544   -8.6141 C   0  0  0  0  0  0  0  0  0  0  0  0
   26.2577  -18.7500   -8.9246 O   0  0  0  0  0  0  0  0  0  0  0  0
   27.7881  -20.3846   -9.5430 N   0  0  0  0  0  0  0  0  0  0  0  0
   28.6752  -21.4667   -9.2524 C   0  0  0  0  0  0  0  0  0  0  0  0
   29.3206  -21.8562  -10.5550 C   0  0  0  0  0  0  0  0  0  0  0  0
   28.7054  -20.9911  -11.6018 C   0  0  0  0  0  0  0  0  0  0  0  0
   27.4838  -20.3948  -10.9422 C   0  0  1  0  0  0  0  0  0  0  0  0
   26.3453  -21.3052  -11.2648 C   0  0  0  0  0  0  0  0  0  0  0  0
   26.1743  -22.3811  -10.6270 O   0  0  0  0  0  0  0  0  0  0  0  0
   21.6975  -21.3529  -12.2880 C   0  0  0  0  0  0  0  0  0  0  0  0
   22.9991  -20.6045  -12.0991 C   0  0  1  0  0  0  0  0  0  0  0  0
   23.0036  -20.1571  -10.6450 C   0  0  0  0  0  0  0  0  0  0  0  0
   24.1034  -21.5468  -12.4091 C   0  0  2  0  0  0  0  0  0  0  0  0
   25.4266  -21.0156  -12.2740 N   0  0  0  0  0  0  0  0  0  0  0  0
   23.9484  -22.0660  -13.7909 C   0  0  0  0  0  0  0  0  0  0  0  0
   23.1977  -23.1799  -14.1196 O   0  0  0  0  0  0  0  0  0  0  0  0
   24.5221  -21.4881  -14.7742 O   0  0  0  0  0  0  0  0  0  0  0  0
  2  1  1  6
  2  4  1  0
  2  3  1  0
  4  5  1  0
  5  6  1  1
  5  7  1  0
  7  9  1  0
  7  8  2  0
  9 10  1  0
 11 10  1  0
 12 11  1  0
 13 12  1  0
 13 14  1  1
 13  9  1  0
 14 20  1  0
 15 14  2  0
 17 16  1  1
 17 18  1  0
 19 17  1  0
 19 20  1  6
 21 19  1  0
 21 22  1  0
 23 21  2  0
M  END
$$$$
