LPV.pdb
     RDKit          3D

 23 23  0  0  1  0  0  0  0  0999 V2000
   29.5258  -17.7212  -17.2320 C   0  0  0  0  0  0  0  0  0  0  0  0
   28.0665  -18.0967  -17.5080 C   0  0  2  0  0  0  0  0  0  0  0  0
   27.3313  -16.8188  -17.7499 C   0  0  0  0  0  0  0  0  0  0  0  0
   27.6111  -18.9241  -16.3672 C   0  0  0  0  0  0  0  0  0  0  0  0
   28.2975  -20.2277  -16.1570 C   0  0  2  0  0  0  0  0  0  0  0  0
   28.1839  -21.0665  -17.2866 N   0  0  0  0  0  0  0  0  0  0  0  0
   27.9566  -20.8511  -14.8524 C   0  0  0  0  0  0  0  0  0  0  0  0
   26.9992  -21.6831  -14.8974 O   0  0  0  0  0  0  0  0  0  0  0  0
   28.6012  -20.5862  -13.6219 N   0  0  0  0  0  0  0  0  0  0  0  0
   29.7550  -19.7654  -13.4285 C   0  0  0  0  0  0  0  0  0  0  0  0
   30.3474  -20.1605  -12.1026 C   0  0  0  0  0  0  0  0  0  0  0  0
   29.4361  -21.1909  -11.5278 C   0  0  0  0  0  0  0  0  0  0  0  0
   28.1744  -21.0957  -12.3536 C   0  0  1  0  0  0  0  0  0  0  0  0
   27.2743  -20.1435  -11.6377 C   0  0  0  0  0  0  0  0  0  0  0  0
   27.3024  -18.9077  -11.8934 O   0  0  0  0  0  0  0  0  0  0  0  0
   23.9303  -22.0163  -11.7609 C   0  0  0  0  0  0  0  0  0  0  0  0
   24.1518  -20.5195  -11.7448 C   0  0  1  0  0  0  0  0  0  0  0  0
   22.7631  -19.9038  -11.6595 C   0  0  0  0  0  0  0  0  0  0  0  0
   24.9881  -20.2059  -10.5592 C   0  0  2  0  0  0  0  0  0  0  0  0
   26.3701  -20.5672  -10.6635 N   0  0  0  0  0  0  0  0  0  0  0  0
   24.4231  -20.8666   -9.3563 C   0  0  0  0  0  0  0  0  0  0  0  0
   23.7232  -20.2029   -8.3653 O   0  0  0  0  0  0  0  0  0  0  0  0
   24.5628  -22.1225   -9.1743 O   0  0  0  0  0  0  0  0  0  0  0  0
  2  1  1  1
  2  4  1  0
  2  3  1  0
  4  5  1  0
  5  6  1  6
  5  7  1  0
  7  9  1  0
  7  8  2  0
  9 10  1  0
 11 10  1  0
 12 11  1  0
 13 12  1  0
 13 14  1  1
 13  9  1  0
 14 20  1  0
 15 14  2  0
 17 16  1  1
 17 18  1  0
 19 17  1  0
 19 20  1  6
 21 19  1  0
 21 22  1  0
 23 21  2  0
M  END
$$$$
