LPV.pdb
     RDKit          3D

 23 23  0  0  1  0  0  0  0  0999 V2000
   28.2324  -19.9415  -14.5123 C   0  0  0  0  0  0  0  0  0  0  0  0
   27.1745  -19.2793  -13.6239 C   0  0  2  0  0  0  0  0  0  0  0  0
   27.2556  -17.8097  -13.8803 C   0  0  0  0  0  0  0  0  0  0  0  0
   27.4318  -19.7311  -12.2372 C   0  0  0  0  0  0  0  0  0  0  0  0
   27.2720  -21.1836  -11.9555 C   0  0  2  0  0  0  0  0  0  0  0  0
   25.9809  -21.6429  -12.2943 N   0  0  0  0  0  0  0  0  0  0  0  0
   27.7582  -21.5621  -10.6038 C   0  0  0  0  0  0  0  0  0  0  0  0
   26.8479  -21.9183   -9.7943 O   0  0  0  0  0  0  0  0  0  0  0  0
   29.1083  -21.5491  -10.1830 N   0  0  0  0  0  0  0  0  0  0  0  0
   30.2300  -21.0993  -10.9458 C   0  0  0  0  0  0  0  0  0  0  0  0
   31.4526  -21.7082  -10.3140 C   0  0  0  0  0  0  0  0  0  0  0  0
   30.9747  -22.4638   -9.1209 C   0  0  0  0  0  0  0  0  0  0  0  0
   29.5628  -21.9759   -8.8940 C   0  0  1  0  0  0  0  0  0  0  0  0
   29.6602  -20.8424   -7.9270 C   0  0  0  0  0  0  0  0  0  0  0  0
   29.9285  -19.6739   -8.3222 O   0  0  0  0  0  0  0  0  0  0  0  0
   27.6974  -18.7548   -4.1516 C   0  0  0  0  0  0  0  0  0  0  0  0
   27.7874  -19.9188   -5.1143 C   0  0  1  0  0  0  0  0  0  0  0  0
   26.8066  -19.5986   -6.2324 C   0  0  0  0  0  0  0  0  0  0  0  0
   29.1910  -19.9943   -5.5915 C   0  0  2  0  0  0  0  0  0  0  0  0
   29.4624  -21.0168   -6.5570 N   0  0  0  0  0  0  0  0  0  0  0  0
   30.1046  -20.1883   -4.4380 C   0  0  0  0  0  0  0  0  0  0  0  0
   30.7854  -19.1622   -3.8086 O   0  0  0  0  0  0  0  0  0  0  0  0
   30.3117  -21.3527   -3.9572 O   0  0  0  0  0  0  0  0  0  0  0  0
  2  1  1  6
  2  4  1  0
  2  3  1  0
  4  5  1  0
  5  6  1  1
  5  7  1  0
  7  9  1  0
  7  8  2  0
  9 10  1  0
 11 10  1  0
 12 11  1  0
 13 12  1  0
 13 14  1  1
 13  9  1  0
 14 20  1  0
 15 14  2  0
 17 16  1  1
 17 18  1  0
 19 17  1  0
 19 20  1  6
 21 19  1  0
 21 22  1  0
 23 21  2  0
M  END
$$$$
