LPV.pdb
     RDKit          3D

 23 23  0  0  1  0  0  0  0  0999 V2000
   27.8375  -17.0514  -16.5699 C   0  0  0  0  0  0  0  0  0  0  0  0
   26.3776  -17.0068  -16.1080 C   0  0  2  0  0  0  0  0  0  0  0  0
   26.0635  -15.5767  -15.8108 C   0  0  0  0  0  0  0  0  0  0  0  0
   26.2507  -17.9659  -14.9867 C   0  0  0  0  0  0  0  0  0  0  0  0
   26.3559  -19.4134  -15.3159 C   0  0  2  0  0  0  0  0  0  0  0  0
   25.3957  -19.8026  -16.2746 N   0  0  0  0  0  0  0  0  0  0  0  0
   26.4456  -20.2712  -14.1064 C   0  0  0  0  0  0  0  0  0  0  0  0
   25.4008  -20.9477  -13.8585 O   0  0  0  0  0  0  0  0  0  0  0  0
   27.5694  -20.3744  -13.2541 N   0  0  0  0  0  0  0  0  0  0  0  0
   28.8203  -19.7023  -13.4150 C   0  0  0  0  0  0  0  0  0  0  0  0
   29.8268  -20.4633  -12.5948 C   0  0  0  0  0  0  0  0  0  0  0  0
   29.0718  -21.5518  -11.9108 C   0  0  0  0  0  0  0  0  0  0  0  0
   27.6180  -21.1702  -12.0647 C   0  0  1  0  0  0  0  0  0  0  0  0
   27.2583  -20.3854  -10.8465 C   0  0  0  0  0  0  0  0  0  0  0  0
   27.2950  -19.1236  -10.8535 O   0  0  0  0  0  0  0  0  0  0  0  0
   24.1556  -20.3494   -7.1594 C   0  0  0  0  0  0  0  0  0  0  0  0
   24.8101  -21.1000   -8.2987 C   0  0  1  0  0  0  0  0  0  0  0  0
   23.8222  -21.0283   -9.4535 C   0  0  0  0  0  0  0  0  0  0  0  0
   26.0929  -20.4178   -8.6027 C   0  0  2  0  0  0  0  0  0  0  0  0
   26.8693  -21.0000   -9.6560 N   0  0  0  0  0  0  0  0  0  0  0  0
   26.9337  -20.3603   -7.3809 C   0  0  0  0  0  0  0  0  0  0  0  0
   27.0997  -19.2257   -6.6081 O   0  0  0  0  0  0  0  0  0  0  0  0
   27.5654  -21.3923   -6.9735 O   0  0  0  0  0  0  0  0  0  0  0  0
  2  1  1  1
  2  4  1  0
  2  3  1  0
  4  5  1  0
  5  6  1  1
  5  7  1  0
  7  9  1  0
  7  8  2  0
  9 10  1  0
 11 10  1  0
 12 11  1  0
 13 12  1  0
 13 14  1  1
 13  9  1  0
 14 20  1  0
 15 14  2  0
 17 16  1  1
 17 18  1  0
 19 17  1  0
 19 20  1  6
 21 19  1  0
 21 22  1  0
 23 21  2  0
M  END
$$$$
