LPV.pdb
     RDKit          3D

 23 23  0  0  1  0  0  0  0  0999 V2000
   26.2014  -17.5249  -12.8402 C   0  0  0  0  0  0  0  0  0  0  0  0
   26.9874  -18.8262  -13.0289 C   0  0  2  0  0  0  0  0  0  0  0  0
   28.0419  -18.5481  -14.0502 C   0  0  0  0  0  0  0  0  0  0  0  0
   26.0016  -19.8817  -13.3564 C   0  0  0  0  0  0  0  0  0  0  0  0
   26.4012  -21.2904  -13.0906 C   0  0  2  0  0  0  0  0  0  0  0  0
   25.4591  -22.2070  -13.6054 N   0  0  0  0  0  0  0  0  0  0  0  0
   26.8152  -21.5124  -11.6814 C   0  0  0  0  0  0  0  0  0  0  0  0
   25.8790  -21.8762  -10.9056 O   0  0  0  0  0  0  0  0  0  0  0  0
   28.1255  -21.3498  -11.1748 N   0  0  0  0  0  0  0  0  0  0  0  0
   29.2238  -20.7302  -11.8473 C   0  0  0  0  0  0  0  0  0  0  0  0
   30.4747  -21.2092  -11.1611 C   0  0  0  0  0  0  0  0  0  0  0  0
   30.0273  -22.0706  -10.0295 C   0  0  0  0  0  0  0  0  0  0  0  0
   28.5539  -21.7732   -9.8758 C   0  0  1  0  0  0  0  0  0  0  0  0
   28.4491  -20.6804   -8.8637 C   0  0  0  0  0  0  0  0  0  0  0  0
   28.4341  -19.4686   -9.2170 O   0  0  0  0  0  0  0  0  0  0  0  0
   27.2964  -19.3752   -4.2676 C   0  0  0  0  0  0  0  0  0  0  0  0
   27.3767  -20.4994   -5.2774 C   0  0  1  0  0  0  0  0  0  0  0  0
   25.9343  -20.8505   -5.6107 C   0  0  0  0  0  0  0  0  0  0  0  0
   28.1255  -19.9892   -6.4531 C   0  0  2  0  0  0  0  0  0  0  0  0
   28.3641  -20.9414   -7.4960 N   0  0  0  0  0  0  0  0  0  0  0  0
   29.4329  -19.4388   -6.0164 C   0  0  0  0  0  0  0  0  0  0  0  0
   29.6115  -18.1524   -5.5413 O   0  0  0  0  0  0  0  0  0  0  0  0
   30.4903  -20.1528   -6.0618 O   0  0  0  0  0  0  0  0  0  0  0  0
  2  1  1  6
  2  4  1  0
  2  3  1  0
  4  5  1  0
  5  6  1  1
  5  7  1  0
  7  9  1  0
  7  8  2  0
  9 10  1  0
 11 10  1  0
 12 11  1  0
 13 12  1  0
 13 14  1  1
 13  9  1  0
 14 20  1  0
 15 14  2  0
 17 16  1  1
 17 18  1  0
 19 17  1  0
 19 20  1  6
 21 19  1  0
 21 22  1  0
 23 21  2  0
M  END
$$$$
