MWI.pdb
     RDKit          3D

 31 32  0  0  1  0  0  0  0  0999 V2000
   26.6675  -16.0735  -14.9485 C   0  0  0  0  0  0  0  0  0  0  0  0
   27.6073  -16.7779  -16.3214 S   0  0  0  0  0  0  0  0  0  0  0  0
   28.2230  -18.4169  -15.8476 C   0  0  0  0  0  0  0  0  0  0  0  0
   27.3520  -19.0762  -14.7973 C   0  0  0  0  0  0  0  0  0  0  0  0
   27.9632  -20.3948  -14.3458 C   0  0  2  0  0  0  0  0  0  0  0  0
   27.9536  -21.3768  -15.3680 N   0  0  0  0  0  0  0  0  0  0  0  0
   27.2872  -20.8676  -13.0970 C   0  0  0  0  0  0  0  0  0  0  0  0
   26.2743  -21.5858  -13.1288 O   0  0  0  0  0  0  0  0  0  0  0  0
   27.7976  -20.5033  -11.7954 N   0  0  0  0  0  0  0  0  0  0  0  0
   27.0021  -20.6932  -10.6023 C   0  0  1  0  0  0  0  0  0  0  0  0
   27.7051  -20.0441   -9.4007 C   0  0  0  0  0  0  0  0  0  0  0  0
   26.9855  -20.3551   -8.1489 C   0  0  0  0  0  0  0  0  0  0  0  0
   25.7798  -20.9910   -8.0114 C   0  0  0  0  0  0  0  0  0  0  0  0
   25.5147  -21.0553   -6.6879 N   0  0  0  0  0  0  0  0  0  0  0  0
   26.4963  -20.4888   -5.9836 C   0  0  0  0  0  0  0  0  0  0  0  0
   26.7096  -20.3034   -4.6379 C   0  0  0  0  0  0  0  0  0  0  0  0
   27.8575  -19.6684   -4.1600 C   0  0  0  0  0  0  0  0  0  0  0  0
   28.7892  -19.2232   -5.1014 C   0  0  0  0  0  0  0  0  0  0  0  0
   28.5923  -19.4009   -6.4525 C   0  0  0  0  0  0  0  0  0  0  0  0
   27.4310  -20.0417   -6.8825 C   0  0  0  0  0  0  0  0  0  0  0  0
   25.6220  -20.1822  -10.7041 C   0  0  0  0  0  0  0  0  0  0  0  0
   25.4510  -18.9439  -10.6051 O   0  0  0  0  0  0  0  0  0  0  0  0
   21.5114  -19.9942  -14.7396 C   0  0  0  0  0  0  0  0  0  0  0  0
   21.6717  -19.9368  -13.2622 C   0  0  0  0  0  0  0  0  0  0  0  0
   22.9448  -20.4922  -12.7167 C   0  0  2  0  0  0  0  0  0  0  0  0
   23.2502  -21.8025  -13.3626 C   0  0  0  0  0  0  0  0  0  0  0  0
   23.1541  -20.4119  -11.2357 C   0  0  2  0  0  0  0  0  0  0  0  0
   24.4839  -20.9928  -10.9129 N   0  0  0  0  0  0  0  0  0  0  0  0
   22.1206  -21.0072  -10.3958 C   0  0  0  0  0  0  0  0  0  0  0  0
   22.1601  -22.1481   -9.8680 O   0  0  0  0  0  0  0  0  0  0  0  0
   20.9293  -20.3019  -10.0945 O   0  0  0  0  0  0  0  0  0  0  0  0
  2  1  1  0
  3  2  1  0
  4  3  1  0
  5  4  1  0
  5  6  1  6
  7  8  2  0
  7  5  1  0
  9  7  1  0
 10  9  1  0
 10 11  1  1
 11 12  1  0
 12 13  2  0
 12 20  1  0
 13 14  1  0
 14 15  1  0
 15 16  2  0
 16 17  1  0
 18 17  2  0
 19 18  1  0
 20 19  2  0
 20 15  1  0
 21 10  1  0
 22 21  2  0
 23 24  1  0
 24 25  1  0
 25 26  1  1
 27 25  1  0
 27 28  1  6
 28 21  1  0
 29 27  1  0
 30 29  2  0
 31 29  1  0
M  END
$$$$
