MWI.pdb
     RDKit          3D

 31 32  0  0  1  0  0  0  0  0999 V2000
   26.4247  -16.4933  -15.7680 C   0  0  0  0  0  0  0  0  0  0  0  0
   28.1270  -16.8469  -16.2592 S   0  0  0  0  0  0  0  0  0  0  0  0
   28.7091  -18.3244  -15.3829 C   0  0  0  0  0  0  0  0  0  0  0  0
   27.5749  -19.0905  -14.7322 C   0  0  0  0  0  0  0  0  0  0  0  0
   28.1126  -20.2768  -13.9451 C   0  0  2  0  0  0  0  0  0  0  0  0
   28.7090  -21.2566  -14.7780 N   0  0  0  0  0  0  0  0  0  0  0  0
   27.0309  -20.8467  -13.0819 C   0  0  0  0  0  0  0  0  0  0  0  0
   26.3169  -21.7905  -13.4590 O   0  0  0  0  0  0  0  0  0  0  0  0
   26.7790  -20.3145  -11.7626 N   0  0  0  0  0  0  0  0  0  0  0  0
   25.6622  -20.7815  -10.9705 C   0  0  1  0  0  0  0  0  0  0  0  0
   25.8262  -20.3154   -9.5161 C   0  0  0  0  0  0  0  0  0  0  0  0
   27.1515  -20.7051   -8.9932 C   0  0  0  0  0  0  0  0  0  0  0  0
   28.0722  -21.5344   -9.5778 C   0  0  0  0  0  0  0  0  0  0  0  0
   29.1324  -21.6002   -8.7425 N   0  0  0  0  0  0  0  0  0  0  0  0
   28.9236  -20.8519   -7.6577 C   0  0  0  0  0  0  0  0  0  0  0  0
   29.6740  -20.5788   -6.5382 C   0  0  0  0  0  0  0  0  0  0  0  0
   29.2050  -19.7321   -5.5321 C   0  0  0  0  0  0  0  0  0  0  0  0
   27.9380  -19.1675   -5.7009 C   0  0  0  0  0  0  0  0  0  0  0  0
   27.1733  -19.4293   -6.8156 C   0  0  0  0  0  0  0  0  0  0  0  0
   27.6841  -20.2805   -7.7947 C   0  0  0  0  0  0  0  0  0  0  0  0
   24.3410  -20.3654  -11.4780 C   0  0  0  0  0  0  0  0  0  0  0  0
   24.1096  -19.1357  -11.5597 O   0  0  0  0  0  0  0  0  0  0  0  0
   21.5942  -23.4562  -15.3391 C   0  0  0  0  0  0  0  0  0  0  0  0
   21.7378  -22.8776  -13.9766 C   0  0  0  0  0  0  0  0  0  0  0  0
   22.0028  -21.4106  -13.9099 C   0  0  2  0  0  0  0  0  0  0  0  0
   23.0756  -21.0392  -14.8786 C   0  0  0  0  0  0  0  0  0  0  0  0
   22.0831  -20.7850  -12.5512 C   0  0  2  0  0  0  0  0  0  0  0  0
   23.3243  -21.2584  -11.8841 N   0  0  0  0  0  0  0  0  0  0  0  0
   20.9312  -20.9719  -11.6759 C   0  0  0  0  0  0  0  0  0  0  0  0
   19.7789  -20.5014  -11.8561 O   0  0  0  0  0  0  0  0  0  0  0  0
   21.0321  -21.7433  -10.4917 O   0  0  0  0  0  0  0  0  0  0  0  0
  2  1  1  0
  3  2  1  0
  4  3  1  0
  5  4  1  0
  5  6  1  6
  7  8  2  0
  7  5  1  0
  9  7  1  0
 10  9  1  0
 10 11  1  1
 11 12  1  0
 12 13  2  0
 12 20  1  0
 13 14  1  0
 14 15  1  0
 15 16  2  0
 16 17  1  0
 18 17  2  0
 19 18  1  0
 20 19  2  0
 20 15  1  0
 21 10  1  0
 22 21  2  0
 23 24  1  0
 24 25  1  0
 25 26  1  1
 27 25  1  0
 27 28  1  1
 28 21  1  0
 29 27  1  0
 30 29  2  0
 31 29  1  0
M  END
$$$$
