MWI.pdb
     RDKit          3D

 31 32  0  0  1  0  0  0  0  0999 V2000
   27.3337  -16.5329  -15.7125 C   0  0  0  0  0  0  0  0  0  0  0  0
   28.8437  -17.3762  -16.2352 S   0  0  0  0  0  0  0  0  0  0  0  0
   28.4667  -19.1143  -16.5913 C   0  0  0  0  0  0  0  0  0  0  0  0
   27.5754  -19.7368  -15.5356 C   0  0  0  0  0  0  0  0  0  0  0  0
   28.3396  -20.7851  -14.7401 C   0  0  2  0  0  0  0  0  0  0  0  0
   28.6837  -21.9167  -15.5216 N   0  0  0  0  0  0  0  0  0  0  0  0
   27.5669  -21.1556  -13.5130 C   0  0  0  0  0  0  0  0  0  0  0  0
   26.5716  -21.8971  -13.5612 O   0  0  0  0  0  0  0  0  0  0  0  0
   27.9588  -20.6602  -12.2136 N   0  0  0  0  0  0  0  0  0  0  0  0
   27.1001  -20.8269  -11.0616 C   0  0  1  0  0  0  0  0  0  0  0  0
   27.7494  -20.1756   -9.8313 C   0  0  0  0  0  0  0  0  0  0  0  0
   26.9328  -20.4181   -8.6246 C   0  0  0  0  0  0  0  0  0  0  0  0
   25.6420  -20.8733   -8.5640 C   0  0  0  0  0  0  0  0  0  0  0  0
   25.3070  -20.9412   -7.2567 N   0  0  0  0  0  0  0  0  0  0  0  0
   26.3258  -20.5493   -6.4892 C   0  0  0  0  0  0  0  0  0  0  0  0
   26.4990  -20.4418   -5.1293 C   0  0  0  0  0  0  0  0  0  0  0  0
   27.7029  -19.9992   -4.5781 C   0  0  0  0  0  0  0  0  0  0  0  0
   28.7338  -19.6657   -5.4605 C   0  0  0  0  0  0  0  0  0  0  0  0
   28.5782  -19.7678   -6.8247 C   0  0  0  0  0  0  0  0  0  0  0  0
   27.3579  -20.2157   -7.3290 C   0  0  0  0  0  0  0  0  0  0  0  0
   25.7347  -20.2976  -11.2395 C   0  0  0  0  0  0  0  0  0  0  0  0
   25.5927  -19.0521  -11.2716 O   0  0  0  0  0  0  0  0  0  0  0  0
   23.4011  -20.3970  -15.4876 C   0  0  0  0  0  0  0  0  0  0  0  0
   23.7583  -20.1159  -14.0716 C   0  0  0  0  0  0  0  0  0  0  0  0
   22.8545  -20.6992  -13.0373 C   0  0  2  0  0  0  0  0  0  0  0  0
   21.4299  -20.4303  -13.3914 C   0  0  0  0  0  0  0  0  0  0  0  0
   23.2344  -20.5065  -11.6012 C   0  0  2  0  0  0  0  0  0  0  0  0
   24.5802  -21.0991  -11.3834 N   0  0  0  0  0  0  0  0  0  0  0  0
   22.2923  -21.0011  -10.6034 C   0  0  0  0  0  0  0  0  0  0  0  0
   22.2829  -22.1533  -10.0994 O   0  0  0  0  0  0  0  0  0  0  0  0
   21.2610  -20.1708  -10.0988 O   0  0  0  0  0  0  0  0  0  0  0  0
  2  1  1  0
  3  2  1  0
  4  3  1  0
  5  4  1  0
  5  6  1  6
  7  8  2  0
  7  5  1  0
  9  7  1  0
 10  9  1  0
 10 11  1  1
 11 12  1  0
 12 13  2  0
 12 20  1  0
 13 14  1  0
 14 15  1  0
 15 16  2  0
 16 17  1  0
 18 17  2  0
 19 18  1  0
 20 19  2  0
 20 15  1  0
 21 10  1  0
 22 21  2  0
 23 24  1  0
 24 25  1  0
 25 26  1  1
 27 25  1  0
 27 28  1  6
 28 21  1  0
 29 27  1  0
 30 29  2  0
 31 29  1  0
M  END
$$$$
