MWI.pdb
     RDKit          3D

 31 32  0  0  1  0  0  0  0  0999 V2000
   21.9159  -36.4885  -19.1808 C   0  0  0  0  0  0  0  0  0  0  0  0
   21.7938  -35.4605  -17.7001 S   0  0  0  0  0  0  0  0  0  0  0  0
   23.4340  -35.3051  -16.9415 C   0  0  0  0  0  0  0  0  0  0  0  0
   23.4014  -34.4901  -15.6643 C   0  0  0  0  0  0  0  0  0  0  0  0
   23.9708  -33.0990  -15.9024 C   0  0  2  0  0  0  0  0  0  0  0  0
   25.3378  -33.1277  -16.2762 N   0  0  0  0  0  0  0  0  0  0  0  0
   23.7275  -32.2378  -14.7027 C   0  0  0  0  0  0  0  0  0  0  0  0
   24.5258  -32.1932  -13.7521 O   0  0  0  0  0  0  0  0  0  0  0  0
   22.5431  -31.4158  -14.6092 N   0  0  0  0  0  0  0  0  0  0  0  0
   22.2845  -30.6106  -13.4356 C   0  0  1  0  0  0  0  0  0  0  0  0
   21.1068  -29.6623  -13.7057 C   0  0  0  0  0  0  0  0  0  0  0  0
   20.9358  -28.7157  -12.5848 C   0  0  0  0  0  0  0  0  0  0  0  0
   21.9153  -28.0840  -11.8646 C   0  0  0  0  0  0  0  0  0  0  0  0
   21.2953  -27.3154  -10.9422 N   0  0  0  0  0  0  0  0  0  0  0  0
   19.9702  -27.4331  -11.0459 C   0  0  0  0  0  0  0  0  0  0  0  0
   18.9147  -26.8716  -10.3666 C   0  0  0  0  0  0  0  0  0  0  0  0
   17.5912  -27.1715  -10.6948 C   0  0  0  0  0  0  0  0  0  0  0  0
   17.3727  -28.0685  -11.7437 C   0  0  0  0  0  0  0  0  0  0  0  0
   18.4175  -28.6397  -12.4351 C   0  0  0  0  0  0  0  0  0  0  0  0
   19.7225  -28.3090  -12.0721 C   0  0  0  0  0  0  0  0  0  0  0  0
   22.0227  -31.3890  -12.2101 C   0  0  0  0  0  0  0  0  0  0  0  0
   21.3404  -32.4353  -12.3197 O   0  0  0  0  0  0  0  0  0  0  0  0
   25.9230  -32.3683   -8.6854 C   0  0  0  0  0  0  0  0  0  0  0  0
   24.7197  -32.2966   -9.5564 C   0  0  0  0  0  0  0  0  0  0  0  0
   23.4397  -31.9331   -8.8809 C   0  0  2  0  0  0  0  0  0  0  0  0
   23.3207  -32.6608   -7.5834 C   0  0  0  0  0  0  0  0  0  0  0  0
   22.2059  -31.8705   -9.7281 C   0  0  2  0  0  0  0  0  0  0  0  0
   22.4951  -31.0385  -10.9256 N   0  0  0  0  0  0  0  0  0  0  0  0
   20.9852  -31.4138   -9.0731 C   0  0  0  0  0  0  0  0  0  0  0  0
   20.5953  -30.2217   -8.9796 O   0  0  0  0  0  0  0  0  0  0  0  0
   20.0978  -32.3331   -8.4608 O   0  0  0  0  0  0  0  0  0  0  0  0
  2  1  1  0
  3  2  1  0
  4  3  1  0
  5  4  1  0
  5  6  1  1
  7  8  2  0
  7  5  1  0
  9  7  1  0
 10  9  1  0
 10 11  1  6
 11 12  1  0
 12 13  2  0
 12 20  1  0
 13 14  1  0
 14 15  1  0
 15 16  2  0
 16 17  1  0
 18 17  2  0
 19 18  1  0
 20 19  2  0
 20 15  1  0
 21 10  1  0
 22 21  2  0
 23 24  1  0
 24 25  1  0
 25 26  1  1
 27 25  1  0
 27 28  1  6
 28 21  1  0
 29 27  1  0
 30 29  2  0
 31 29  1  0
M  END
$$$$
