MWI.pdb
     RDKit          3D

 31 32  0  0  1  0  0  0  0  0999 V2000
   27.4952  -18.4421  -22.9688 C   0  0  0  0  0  0  0  0  0  0  0  0
   27.1480  -19.8066  -21.8367 S   0  0  0  0  0  0  0  0  0  0  0  0
   27.1227  -19.1812  -20.1343 C   0  0  0  0  0  0  0  0  0  0  0  0
   26.7944  -20.2661  -19.1285 C   0  0  0  0  0  0  0  0  0  0  0  0
   27.9973  -20.5565  -18.2427 C   0  0  2  0  0  0  0  0  0  0  0  0
   28.8747  -21.5125  -18.8133 N   0  0  0  0  0  0  0  0  0  0  0  0
   27.5375  -20.9525  -16.8745 C   0  0  0  0  0  0  0  0  0  0  0  0
   27.0173  -22.0578  -16.6495 O   0  0  0  0  0  0  0  0  0  0  0  0
   27.6878  -20.0533  -15.7537 N   0  0  0  0  0  0  0  0  0  0  0  0
   27.1171  -20.3686  -14.4625 C   0  0  1  0  0  0  0  0  0  0  0  0
   27.6712  -19.4066  -13.4009 C   0  0  0  0  0  0  0  0  0  0  0  0
   27.2634  -19.8368  -12.0480 C   0  0  0  0  0  0  0  0  0  0  0  0
   26.0414  -19.6747  -11.4500 C   0  0  0  0  0  0  0  0  0  0  0  0
   26.1281  -20.2218  -10.2174 N   0  0  0  0  0  0  0  0  0  0  0  0
   27.3480  -20.7209  -10.0092 C   0  0  0  0  0  0  0  0  0  0  0  0
   27.9355  -21.3718   -8.9499 C   0  0  0  0  0  0  0  0  0  0  0  0
   29.2619  -21.8045   -9.0022 C   0  0  0  0  0  0  0  0  0  0  0  0
   29.9785  -21.5517  -10.1748 C   0  0  0  0  0  0  0  0  0  0  0  0
   29.4061  -20.9019  -11.2453 C   0  0  0  0  0  0  0  0  0  0  0  0
   28.0779  -20.4893  -11.1473 C   0  0  0  0  0  0  0  0  0  0  0  0
   25.6424  -20.3480  -14.4282 C   0  0  0  0  0  0  0  0  0  0  0  0
   25.0629  -19.3464  -14.9113 O   0  0  0  0  0  0  0  0  0  0  0  0
   20.9719  -24.1229  -14.7167 C   0  0  0  0  0  0  0  0  0  0  0  0
   21.4744  -22.7602  -15.0361 C   0  0  0  0  0  0  0  0  0  0  0  0
   22.9386  -22.5392  -14.8515 C   0  0  2  0  0  0  0  0  0  0  0  0
   23.6216  -23.8370  -14.5752 C   0  0  0  0  0  0  0  0  0  0  0  0
   23.3600  -21.3704  -14.0148 C   0  0  2  0  0  0  0  0  0  0  0  0
   24.8417  -21.3828  -13.8954 N   0  0  0  0  0  0  0  0  0  0  0  0
   22.7437  -21.2526  -12.6979 C   0  0  0  0  0  0  0  0  0  0  0  0
   21.5656  -20.8815  -12.4611 O   0  0  0  0  0  0  0  0  0  0  0  0
   23.4687  -21.5678  -11.5221 O   0  0  0  0  0  0  0  0  0  0  0  0
  2  1  1  0
  3  2  1  0
  4  3  1  0
  5  4  1  0
  5  6  1  6
  7  8  2  0
  7  5  1  0
  9  7  1  0
 10  9  1  0
 10 11  1  1
 11 12  1  0
 12 13  2  0
 12 20  1  0
 13 14  1  0
 14 15  1  0
 15 16  2  0
 16 17  1  0
 18 17  2  0
 19 18  1  0
 20 19  2  0
 20 15  1  0
 21 10  1  0
 22 21  2  0
 23 24  1  0
 24 25  1  0
 25 26  1  1
 27 25  1  0
 27 28  1  1
 28 21  1  0
 29 27  1  0
 30 29  2  0
 31 29  1  0
M  END
$$$$
