MWI.pdb
     RDKit          3D

 31 32  0  0  1  0  0  0  0  0999 V2000
   23.4375  -20.2212  -17.2558 C   0  0  0  0  0  0  0  0  0  0  0  0
   24.5842  -18.8659  -16.9203 S   0  0  0  0  0  0  0  0  0  0  0  0
   25.9988  -19.4974  -15.9768 C   0  0  0  0  0  0  0  0  0  0  0  0
   25.5816  -20.1007  -14.6508 C   0  0  0  0  0  0  0  0  0  0  0  0
   26.7888  -20.6659  -13.9165 C   0  0  2  0  0  0  0  0  0  0  0  0
   27.4262  -21.7062  -14.6381 N   0  0  0  0  0  0  0  0  0  0  0  0
   26.3919  -21.0912  -12.5374 C   0  0  0  0  0  0  0  0  0  0  0  0
   25.6022  -22.0295  -12.3401 O   0  0  0  0  0  0  0  0  0  0  0  0
   26.9228  -20.4193  -11.3738 N   0  0  0  0  0  0  0  0  0  0  0  0
   26.4660  -20.7577  -10.0437 C   0  0  1  0  0  0  0  0  0  0  0  0
   27.4681  -20.2373   -9.0024 C   0  0  0  0  0  0  0  0  0  0  0  0
   27.0034  -20.5479   -7.6352 C   0  0  0  0  0  0  0  0  0  0  0  0
   25.9971  -21.4012   -7.2658 C   0  0  0  0  0  0  0  0  0  0  0  0
   25.9261  -21.3692   -5.9168 N   0  0  0  0  0  0  0  0  0  0  0  0
   26.8399  -20.5350   -5.4174 C   0  0  0  0  0  0  0  0  0  0  0  0
   27.1787  -20.1584   -4.1390 C   0  0  0  0  0  0  0  0  0  0  0  0
   28.2087  -19.2485   -3.8933 C   0  0  0  0  0  0  0  0  0  0  0  0
   28.8887  -18.7284   -4.9976 C   0  0  0  0  0  0  0  0  0  0  0  0
   28.5633  -19.0947   -6.2844 C   0  0  0  0  0  0  0  0  0  0  0  0
   27.5279  -20.0076   -6.4805 C   0  0  0  0  0  0  0  0  0  0  0  0
   25.1143  -20.2628   -9.7209 C   0  0  0  0  0  0  0  0  0  0  0  0
   24.9570  -19.0228   -9.6201 O   0  0  0  0  0  0  0  0  0  0  0  0
   20.9416  -21.7628  -12.7234 C   0  0  0  0  0  0  0  0  0  0  0  0
   21.6006  -21.8227  -11.3915 C   0  0  0  0  0  0  0  0  0  0  0  0
   22.0069  -20.5145  -10.7995 C   0  0  2  0  0  0  0  0  0  0  0  0
   22.7066  -19.6842  -11.8234 C   0  0  0  0  0  0  0  0  0  0  0  0
   22.6110  -20.5352   -9.4290 C   0  0  2  0  0  0  0  0  0  0  0  0
   23.9864  -21.0909   -9.5257 N   0  0  0  0  0  0  0  0  0  0  0  0
   21.8541  -21.2262   -8.3909 C   0  0  0  0  0  0  0  0  0  0  0  0
   20.6715  -20.9755   -8.0444 O   0  0  0  0  0  0  0  0  0  0  0  0
   22.4288  -22.2930   -7.6566 O   0  0  0  0  0  0  0  0  0  0  0  0
  2  1  1  0
  3  2  1  0
  4  3  1  0
  5  4  1  0
  5  6  1  6
  7  8  2  0
  7  5  1  0
  9  7  1  0
 10  9  1  0
 10 11  1  1
 11 12  1  0
 12 13  2  0
 12 20  1  0
 13 14  1  0
 14 15  1  0
 15 16  2  0
 16 17  1  0
 18 17  2  0
 19 18  1  0
 20 19  2  0
 20 15  1  0
 21 10  1  0
 22 21  2  0
 23 24  1  0
 24 25  1  0
 25 26  1  6
 27 25  1  0
 27 28  1  6
 28 21  1  0
 29 27  1  0
 30 29  2  0
 31 29  1  0
M  END
$$$$
