MWI.pdb
     RDKit          3D

 31 32  0  0  1  0  0  0  0  0999 V2000
   27.8701  -16.7123  -15.3215 C   0  0  0  0  0  0  0  0  0  0  0  0
   27.2913  -17.8112  -16.6336 S   0  0  0  0  0  0  0  0  0  0  0  0
   27.4226  -19.5321  -16.0754 C   0  0  0  0  0  0  0  0  0  0  0  0
   28.5555  -19.7312  -15.0889 C   0  0  0  0  0  0  0  0  0  0  0  0
   28.6412  -21.1886  -14.6593 C   0  0  2  0  0  0  0  0  0  0  0  0
   28.3264  -22.0850  -15.7112 N   0  0  0  0  0  0  0  0  0  0  0  0
   27.7909  -21.4125  -13.4481 C   0  0  0  0  0  0  0  0  0  0  0  0
   26.6964  -21.9963  -13.5114 O   0  0  0  0  0  0  0  0  0  0  0  0
   28.2207  -20.9550  -12.1468 N   0  0  0  0  0  0  0  0  0  0  0  0
   27.3348  -21.0148  -11.0049 C   0  0  1  0  0  0  0  0  0  0  0  0
   28.0539  -20.4722   -9.7608 C   0  0  0  0  0  0  0  0  0  0  0  0
   27.1210  -20.3865   -8.6188 C   0  0  0  0  0  0  0  0  0  0  0  0
   25.7771  -20.6533   -8.6129 C   0  0  0  0  0  0  0  0  0  0  0  0
   25.3370  -20.4413   -7.3530 N   0  0  0  0  0  0  0  0  0  0  0  0
   26.3399  -20.0521   -6.5636 C   0  0  0  0  0  0  0  0  0  0  0  0
   26.4223  -19.7250   -5.2306 C   0  0  0  0  0  0  0  0  0  0  0  0
   27.6318  -19.3491   -4.6432 C   0  0  0  0  0  0  0  0  0  0  0  0
   28.7645  -19.3153   -5.4608 C   0  0  0  0  0  0  0  0  0  0  0  0
   28.7005  -19.6403   -6.7973 C   0  0  0  0  0  0  0  0  0  0  0  0
   27.4705  -20.0108   -7.3394 C   0  0  0  0  0  0  0  0  0  0  0  0
   26.0568  -20.3013  -11.1889 C   0  0  0  0  0  0  0  0  0  0  0  0
   26.1071  -19.0943  -11.5250 O   0  0  0  0  0  0  0  0  0  0  0  0
   22.8693  -19.3212  -15.3042 C   0  0  0  0  0  0  0  0  0  0  0  0
   22.6588  -19.4445  -13.8371 C   0  0  0  0  0  0  0  0  0  0  0  0
   23.7503  -20.1133  -13.0702 C   0  0  2  0  0  0  0  0  0  0  0  0
   24.2425  -21.3085  -13.8163 C   0  0  0  0  0  0  0  0  0  0  0  0
   23.5546  -20.2801  -11.5945 C   0  0  2  0  0  0  0  0  0  0  0  0
   24.7830  -20.8885  -11.0194 N   0  0  0  0  0  0  0  0  0  0  0  0
   22.3723  -21.0223  -11.1712 C   0  0  0  0  0  0  0  0  0  0  0  0
   22.2832  -22.2713  -11.0548 O   0  0  0  0  0  0  0  0  0  0  0  0
   21.1695  -20.3510  -10.8394 O   0  0  0  0  0  0  0  0  0  0  0  0
  2  1  1  0
  3  2  1  0
  4  3  1  0
  5  4  1  0
  5  6  1  6
  7  8  2  0
  7  5  1  0
  9  7  1  0
 10  9  1  0
 10 11  1  1
 11 12  1  0
 12 13  2  0
 12 20  1  0
 13 14  1  0
 14 15  1  0
 15 16  2  0
 16 17  1  0
 18 17  2  0
 19 18  1  0
 20 19  2  0
 20 15  1  0
 21 10  1  0
 22 21  2  0
 23 24  1  0
 24 25  1  0
 25 26  1  6
 27 25  1  0
 27 28  1  6
 28 21  1  0
 29 27  1  0
 30 29  2  0
 31 29  1  0
M  END
$$$$
