MWI.pdb
     RDKit          3D

 31 32  0  0  1  0  0  0  0  0999 V2000
   18.7859  -18.6608  -12.8317 C   0  0  0  0  0  0  0  0  0  0  0  0
   19.0879  -18.2324  -14.5607 S   0  0  0  0  0  0  0  0  0  0  0  0
   20.7092  -18.8724  -15.0624 C   0  0  0  0  0  0  0  0  0  0  0  0
   21.4011  -19.6247  -13.9435 C   0  0  0  0  0  0  0  0  0  0  0  0
   22.7857  -20.0800  -14.3810 C   0  0  2  0  0  0  0  0  0  0  0  0
   22.7426  -20.9673  -15.4857 N   0  0  0  0  0  0  0  0  0  0  0  0
   23.5224  -20.6602  -13.2144 C   0  0  0  0  0  0  0  0  0  0  0  0
   23.2873  -21.8039  -12.7906 O   0  0  0  0  0  0  0  0  0  0  0  0
   24.5474  -19.9021  -12.5347 N   0  0  0  0  0  0  0  0  0  0  0  0
   25.1963  -20.4198  -11.3501 C   0  0  1  0  0  0  0  0  0  0  0  0
   26.5589  -19.7359  -11.1635 C   0  0  0  0  0  0  0  0  0  0  0  0
   27.3547  -20.4373  -10.1356 C   0  0  0  0  0  0  0  0  0  0  0  0
   27.9817  -21.6506  -10.2448 C   0  0  0  0  0  0  0  0  0  0  0  0
   28.5856  -21.8922   -9.0604 N   0  0  0  0  0  0  0  0  0  0  0  0
   28.3685  -20.8885   -8.2083 C   0  0  0  0  0  0  0  0  0  0  0  0
   28.7580  -20.6473   -6.9118 C   0  0  0  0  0  0  0  0  0  0  0  0
   28.3859  -19.4805   -6.2415 C   0  0  0  0  0  0  0  0  0  0  0  0
   27.5981  -18.5591   -6.9363 C   0  0  0  0  0  0  0  0  0  0  0  0
   27.1995  -18.7839   -8.2350 C   0  0  0  0  0  0  0  0  0  0  0  0
   27.5965  -19.9633   -8.8639 C   0  0  0  0  0  0  0  0  0  0  0  0
   24.4018  -20.2864  -10.1143 C   0  0  0  0  0  0  0  0  0  0  0  0
   23.7697  -19.2173   -9.9412 O   0  0  0  0  0  0  0  0  0  0  0  0
   19.9517  -22.1361   -6.9176 C   0  0  0  0  0  0  0  0  0  0  0  0
   21.2809  -21.4799   -6.7981 C   0  0  0  0  0  0  0  0  0  0  0  0
   22.2047  -21.6500   -7.9576 C   0  0  2  0  0  0  0  0  0  0  0  0
   22.1319  -23.0500   -8.4695 C   0  0  0  0  0  0  0  0  0  0  0  0
   23.5725  -21.0501   -7.8438 C   0  0  2  0  0  0  0  0  0  0  0  0
   24.3001  -21.2838   -9.1190 N   0  0  0  0  0  0  0  0  0  0  0  0
   24.3826  -21.4789   -6.7091 C   0  0  0  0  0  0  0  0  0  0  0  0
   25.3631  -22.2653   -6.7530 O   0  0  0  0  0  0  0  0  0  0  0  0
   24.1092  -21.0121   -5.3995 O   0  0  0  0  0  0  0  0  0  0  0  0
  2  1  1  0
  3  2  1  0
  4  3  1  0
  5  4  1  0
  5  6  1  6
  7  8  2  0
  7  5  1  0
  9  7  1  0
 10  9  1  0
 10 11  1  1
 11 12  1  0
 12 13  2  0
 12 20  1  0
 13 14  1  0
 14 15  1  0
 15 16  2  0
 16 17  1  0
 18 17  2  0
 19 18  1  0
 20 19  2  0
 20 15  1  0
 21 10  1  0
 22 21  2  0
 23 24  1  0
 24 25  1  0
 25 26  1  1
 27 25  1  0
 27 28  1  6
 28 21  1  0
 29 27  1  0
 30 29  2  0
 31 29  1  0
M  END
$$$$
