MWI.pdb
     RDKit          3D

 31 32  0  0  1  0  0  0  0  0999 V2000
   28.5403  -15.9777  -16.5944 C   0  0  0  0  0  0  0  0  0  0  0  0
   28.7160  -17.7168  -17.0513 S   0  0  0  0  0  0  0  0  0  0  0  0
   27.0977  -18.5296  -16.9496 C   0  0  0  0  0  0  0  0  0  0  0  0
   27.1812  -20.0144  -17.2411 C   0  0  0  0  0  0  0  0  0  0  0  0
   28.1241  -20.6997  -16.2627 C   0  0  2  0  0  0  0  0  0  0  0  0
   28.9023  -21.7131  -16.8767 N   0  0  0  0  0  0  0  0  0  0  0  0
   27.3528  -21.2100  -15.0859 C   0  0  0  0  0  0  0  0  0  0  0  0
   26.4187  -22.0189  -15.2121 O   0  0  0  0  0  0  0  0  0  0  0  0
   27.6744  -20.7767  -13.7456 N   0  0  0  0  0  0  0  0  0  0  0  0
   26.9472  -21.2844  -12.6028 C   0  0  1  0  0  0  0  0  0  0  0  0
   27.8021  -21.1356  -11.3355 C   0  0  0  0  0  0  0  0  0  0  0  0
   26.9416  -20.9870  -10.1441 C   0  0  0  0  0  0  0  0  0  0  0  0
   25.5870  -21.1743  -10.0603 C   0  0  0  0  0  0  0  0  0  0  0  0
   25.2317  -20.9278   -8.7801 N   0  0  0  0  0  0  0  0  0  0  0  0
   26.2985  -20.5928   -8.0521 C   0  0  0  0  0  0  0  0  0  0  0  0
   26.4748  -20.2617   -6.7292 C   0  0  0  0  0  0  0  0  0  0  0  0
   27.7354  -19.9535   -6.2142 C   0  0  0  0  0  0  0  0  0  0  0  0
   28.8202  -19.9921   -7.0941 C   0  0  0  0  0  0  0  0  0  0  0  0
   28.6622  -20.3222   -8.4214 C   0  0  0  0  0  0  0  0  0  0  0  0
   27.3841  -20.6235   -8.8901 C   0  0  0  0  0  0  0  0  0  0  0  0
   25.6315  -20.6522  -12.3899 C   0  0  0  0  0  0  0  0  0  0  0  0
   25.6005  -19.4070  -12.2450 O   0  0  0  0  0  0  0  0  0  0  0  0
   23.1859  -19.6759  -16.1706 C   0  0  0  0  0  0  0  0  0  0  0  0
   23.5792  -19.7286  -14.7374 C   0  0  0  0  0  0  0  0  0  0  0  0
   22.6891  -20.5219  -13.8400 C   0  0  2  0  0  0  0  0  0  0  0  0
   21.2608  -20.1746  -14.0980 C   0  0  0  0  0  0  0  0  0  0  0  0
   23.0965  -20.6533  -12.4046 C   0  0  2  0  0  0  0  0  0  0  0  0
   24.4062  -21.3542  -12.3459 N   0  0  0  0  0  0  0  0  0  0  0  0
   22.1376  -21.2893  -11.5080 C   0  0  0  0  0  0  0  0  0  0  0  0
   21.8817  -22.5192  -11.4480 O   0  0  0  0  0  0  0  0  0  0  0  0
   21.3827  -20.5239  -10.5851 O   0  0  0  0  0  0  0  0  0  0  0  0
  2  1  1  0
  3  2  1  0
  4  3  1  0
  5  4  1  0
  5  6  1  6
  7  8  2  0
  7  5  1  0
  9  7  1  0
 10  9  1  0
 10 11  1  1
 11 12  1  0
 12 13  2  0
 12 20  1  0
 13 14  1  0
 14 15  1  0
 15 16  2  0
 16 17  1  0
 18 17  2  0
 19 18  1  0
 20 19  2  0
 20 15  1  0
 21 10  1  0
 22 21  2  0
 23 24  1  0
 24 25  1  0
 25 26  1  1
 27 25  1  0
 27 28  1  6
 28 21  1  0
 29 27  1  0
 30 29  2  0
 31 29  1  0
M  END
$$$$
