MWI.pdb
     RDKit          3D

 31 32  0  0  1  0  0  0  0  0999 V2000
   30.5366  -18.2741  -15.5698 C   0  0  0  0  0  0  0  0  0  0  0  0
   28.8621  -17.5984  -15.6317 S   0  0  0  0  0  0  0  0  0  0  0  0
   27.7129  -18.8937  -16.1718 C   0  0  0  0  0  0  0  0  0  0  0  0
   26.9857  -19.5378  -15.0088 C   0  0  0  0  0  0  0  0  0  0  0  0
   27.9350  -20.4113  -14.2015 C   0  0  2  0  0  0  0  0  0  0  0  0
   28.4417  -21.5018  -14.9522 N   0  0  0  0  0  0  0  0  0  0  0  0
   27.2681  -20.8531  -12.9365 C   0  0  0  0  0  0  0  0  0  0  0  0
   26.5021  -21.8303  -12.9033 O   0  0  0  0  0  0  0  0  0  0  0  0
   27.4978  -20.1518  -11.6945 N   0  0  0  0  0  0  0  0  0  0  0  0
   26.7381  -20.4715  -10.5057 C   0  0  1  0  0  0  0  0  0  0  0  0
   27.3572  -19.7677   -9.2889 C   0  0  0  0  0  0  0  0  0  0  0  0
   26.7261  -20.2405   -8.0399 C   0  0  0  0  0  0  0  0  0  0  0  0
   25.5666  -20.9580   -7.9065 C   0  0  0  0  0  0  0  0  0  0  0  0
   25.3791  -21.1652   -6.5844 N   0  0  0  0  0  0  0  0  0  0  0  0
   26.3656  -20.6112   -5.8770 C   0  0  0  0  0  0  0  0  0  0  0  0
   26.6426  -20.5439   -4.5318 C   0  0  0  0  0  0  0  0  0  0  0  0
   27.7786  -19.8900   -4.0509 C   0  0  0  0  0  0  0  0  0  0  0  0
   28.6309  -19.3011   -4.9885 C   0  0  0  0  0  0  0  0  0  0  0  0
   28.3695  -19.3593   -6.3391 C   0  0  0  0  0  0  0  0  0  0  0  0
   27.2232  -20.0243   -6.7724 C   0  0  0  0  0  0  0  0  0  0  0  0
   25.3035  -20.1388  -10.5935 C   0  0  0  0  0  0  0  0  0  0  0  0
   24.9845  -18.9264  -10.5690 O   0  0  0  0  0  0  0  0  0  0  0  0
   23.1762  -21.3527  -14.8779 C   0  0  0  0  0  0  0  0  0  0  0  0
   23.4631  -20.7737  -13.5385 C   0  0  0  0  0  0  0  0  0  0  0  0
   22.5632  -21.2052  -12.4291 C   0  0  2  0  0  0  0  0  0  0  0  0
   21.1378  -21.1184  -12.8626 C   0  0  0  0  0  0  0  0  0  0  0  0
   22.8752  -20.7034  -11.0527 C   0  0  2  0  0  0  0  0  0  0  0  0
   24.2684  -21.0933  -10.7107 N   0  0  0  0  0  0  0  0  0  0  0  0
   21.9595  -21.0998   -9.9887 C   0  0  0  0  0  0  0  0  0  0  0  0
   22.0588  -22.1264   -9.2691 O   0  0  0  0  0  0  0  0  0  0  0  0
   20.8271  -20.3104   -9.6688 O   0  0  0  0  0  0  0  0  0  0  0  0
  2  1  1  0
  3  2  1  0
  4  3  1  0
  5  4  1  0
  5  6  1  6
  7  8  2  0
  7  5  1  0
  9  7  1  0
 10  9  1  0
 10 11  1  1
 11 12  1  0
 12 13  2  0
 12 20  1  0
 13 14  1  0
 14 15  1  0
 15 16  2  0
 16 17  1  0
 18 17  2  0
 19 18  1  0
 20 19  2  0
 20 15  1  0
 21 10  1  0
 22 21  2  0
 23 24  1  0
 24 25  1  0
 25 26  1  6
 27 25  1  0
 27 28  1  1
 28 21  1  0
 29 27  1  0
 30 29  2  0
 31 29  1  0
M  END
$$$$
