MWI.pdb
     RDKit          3D

 31 32  0  0  1  0  0  0  0  0999 V2000
   28.8017  -20.8117  -20.9654 C   0  0  0  0  0  0  0  0  0  0  0  0
   30.2034  -20.8380  -19.8258 S   0  0  0  0  0  0  0  0  0  0  0  0
   29.7539  -21.7840  -18.3449 C   0  0  0  0  0  0  0  0  0  0  0  0
   29.4565  -20.8882  -17.1593 C   0  0  0  0  0  0  0  0  0  0  0  0
   28.0135  -20.4065  -17.2011 C   0  0  2  0  0  0  0  0  0  0  0  0
   27.7641  -19.5298  -18.2867 N   0  0  0  0  0  0  0  0  0  0  0  0
   27.6413  -19.8006  -15.8841 C   0  0  0  0  0  0  0  0  0  0  0  0
   28.2336  -18.8102  -15.4247 O   0  0  0  0  0  0  0  0  0  0  0  0
   26.5647  -20.3513  -15.0936 N   0  0  0  0  0  0  0  0  0  0  0  0
   26.0856  -19.6723  -13.9096 C   0  0  1  0  0  0  0  0  0  0  0  0
   24.6013  -19.3158  -14.0803 C   0  0  0  0  0  0  0  0  0  0  0  0
   24.4522  -18.0924  -14.8945 C   0  0  0  0  0  0  0  0  0  0  0  0
   25.2066  -16.9502  -14.8365 C   0  0  0  0  0  0  0  0  0  0  0  0
   24.7100  -16.1003  -15.7622 N   0  0  0  0  0  0  0  0  0  0  0  0
   23.6767  -16.6522  -16.4012 C   0  0  0  0  0  0  0  0  0  0  0  0
   22.8476  -16.2198  -17.4094 C   0  0  0  0  0  0  0  0  0  0  0  0
   21.8227  -17.0252  -17.9094 C   0  0  0  0  0  0  0  0  0  0  0  0
   21.6653  -18.2946  -17.3468 C   0  0  0  0  0  0  0  0  0  0  0  0
   22.4866  -18.7441  -16.3373 C   0  0  0  0  0  0  0  0  0  0  0  0
   23.4974  -17.9046  -15.8710 C   0  0  0  0  0  0  0  0  0  0  0  0
   26.2724  -20.4292  -12.6573 C   0  0  0  0  0  0  0  0  0  0  0  0
   26.2538  -21.6811  -12.7254 O   0  0  0  0  0  0  0  0  0  0  0  0
   28.0293  -19.6568   -6.6957 C   0  0  0  0  0  0  0  0  0  0  0  0
   27.3353  -20.4710   -7.7288 C   0  0  0  0  0  0  0  0  0  0  0  0
   27.1963  -19.8443   -9.0759 C   0  0  2  0  0  0  0  0  0  0  0  0
   26.7657  -18.4221   -8.9372 C   0  0  0  0  0  0  0  0  0  0  0  0
   26.5186  -20.6470  -10.1437 C   0  0  2  0  0  0  0  0  0  0  0  0
   26.4780  -19.8384  -11.3905 N   0  0  0  0  0  0  0  0  0  0  0  0
   25.1920  -21.1658   -9.8294 C   0  0  0  0  0  0  0  0  0  0  0  0
   24.0963  -20.6783  -10.2084 O   0  0  0  0  0  0  0  0  0  0  0  0
   25.0321  -22.3245   -9.0299 O   0  0  0  0  0  0  0  0  0  0  0  0
  2  1  1  0
  3  2  1  0
  4  3  1  0
  5  4  1  0
  5  6  1  6
  7  8  2  0
  7  5  1  0
  9  7  1  0
 10  9  1  0
 10 11  1  6
 11 12  1  0
 12 13  2  0
 12 20  1  0
 13 14  1  0
 14 15  1  0
 15 16  2  0
 16 17  1  0
 18 17  2  0
 19 18  1  0
 20 19  2  0
 20 15  1  0
 21 10  1  0
 22 21  2  0
 23 24  1  0
 24 25  1  0
 25 26  1  1
 27 25  1  0
 27 28  1  6
 28 21  1  0
 29 27  1  0
 30 29  2  0
 31 29  1  0
M  END
$$$$
