MWI.pdb
     RDKit          3D

 31 32  0  0  1  0  0  0  0  0999 V2000
   27.3707  -16.2255  -15.4030 C   0  0  0  0  0  0  0  0  0  0  0  0
   28.0783  -17.1814  -16.7631 S   0  0  0  0  0  0  0  0  0  0  0  0
   28.5350  -18.8308  -16.1623 C   0  0  0  0  0  0  0  0  0  0  0  0
   27.5726  -19.3463  -15.1115 C   0  0  0  0  0  0  0  0  0  0  0  0
   28.0931  -20.6371  -14.4960 C   0  0  2  0  0  0  0  0  0  0  0  0
   28.1144  -21.7108  -15.4212 N   0  0  0  0  0  0  0  0  0  0  0  0
   27.3102  -20.9646  -13.2631 C   0  0  0  0  0  0  0  0  0  0  0  0
   26.2738  -21.6479  -13.3041 O   0  0  0  0  0  0  0  0  0  0  0  0
   27.7401  -20.4944  -11.9664 N   0  0  0  0  0  0  0  0  0  0  0  0
   26.9275  -20.7070  -10.7887 C   0  0  1  0  0  0  0  0  0  0  0  0
   27.6247  -20.1028   -9.5607 C   0  0  0  0  0  0  0  0  0  0  0  0
   26.8764  -20.4252   -8.3287 C   0  0  0  0  0  0  0  0  0  0  0  0
   25.6594  -21.0461   -8.2258 C   0  0  0  0  0  0  0  0  0  0  0  0
   25.3676  -21.1295   -6.9091 N   0  0  0  0  0  0  0  0  0  0  0  0
   26.3430  -20.5895   -6.1760 C   0  0  0  0  0  0  0  0  0  0  0  0
   26.5324  -20.4307   -4.8234 C   0  0  0  0  0  0  0  0  0  0  0  0
   27.6795  -19.8205   -4.3122 C   0  0  0  0  0  0  0  0  0  0  0  0
   28.6357  -19.3724   -5.2274 C   0  0  0  0  0  0  0  0  0  0  0  0
   28.4628  -19.5238   -6.5850 C   0  0  0  0  0  0  0  0  0  0  0  0
   27.3014  -20.1403   -7.0486 C   0  0  0  0  0  0  0  0  0  0  0  0
   25.5560  -20.1734  -10.8921 C   0  0  0  0  0  0  0  0  0  0  0  0
   25.4147  -18.9275  -10.8937 O   0  0  0  0  0  0  0  0  0  0  0  0
   23.4530  -19.9110  -15.0895 C   0  0  0  0  0  0  0  0  0  0  0  0
   23.7259  -19.7663  -13.6348 C   0  0  0  0  0  0  0  0  0  0  0  0
   22.7681  -20.4474  -12.7152 C   0  0  2  0  0  0  0  0  0  0  0  0
   21.3645  -20.1616  -13.1343 C   0  0  0  0  0  0  0  0  0  0  0  0
   23.0544  -20.3789  -11.2465 C   0  0  2  0  0  0  0  0  0  0  0  0
   24.3948  -20.9713  -10.9969 N   0  0  0  0  0  0  0  0  0  0  0  0
   22.0614  -20.9727  -10.3581 C   0  0  0  0  0  0  0  0  0  0  0  0
   21.8936  -22.2016  -10.1496 O   0  0  0  0  0  0  0  0  0  0  0  0
   21.1632  -20.1614   -9.6215 O   0  0  0  0  0  0  0  0  0  0  0  0
  2  1  1  0
  3  2  1  0
  4  3  1  0
  5  4  1  0
  5  6  1  6
  7  8  2  0
  7  5  1  0
  9  7  1  0
 10  9  1  0
 10 11  1  1
 11 12  1  0
 12 13  2  0
 12 20  1  0
 13 14  1  0
 14 15  1  0
 15 16  2  0
 16 17  1  0
 18 17  2  0
 19 18  1  0
 20 19  2  0
 20 15  1  0
 21 10  1  0
 22 21  2  0
 23 24  1  0
 24 25  1  0
 25 26  1  1
 27 25  1  0
 27 28  1  6
 28 21  1  0
 29 27  1  0
 30 29  2  0
 31 29  1  0
M  END
$$$$
