LWT.pdb
     RDKit          3D

 30 31  0  0  1  0  0  0  0  0999 V2000
    7.3161  -12.6511   17.2352 C   0  0  0  0  0  0  0  0  0  0  0  0
    7.7629  -14.0513   17.6004 C   0  0  1  0  0  0  0  0  0  0  0  0
    8.1808  -14.7506   16.3461 C   0  0  0  0  0  0  0  0  0  0  0  0
    8.8697  -13.9718   18.6299 C   0  0  0  0  0  0  0  0  0  0  0  0
    9.2426  -15.3331   19.1629 C   0  0  2  0  0  0  0  0  0  0  0  0
    8.1425  -16.2370   18.9047 N   0  0  0  0  0  0  0  0  0  0  0  0
    9.3776  -15.1983   20.6381 C   0  0  0  0  0  0  0  0  0  0  0  0
   10.3045  -14.4816   21.1388 O   0  0  0  0  0  0  0  0  0  0  0  0
    8.5056  -15.8425   21.5482 N   0  0  0  0  0  0  0  0  0  0  0  0
    8.5425  -15.5619   22.9948 C   0  0  1  0  0  0  0  0  0  0  0  0
    7.1408  -15.2852   23.4322 C   0  0  0  0  0  0  0  0  0  0  0  0
    6.9486  -14.9436   24.8335 C   0  0  0  0  0  0  0  0  0  0  0  0
    6.5485  -15.8101   25.8263 C   0  0  0  0  0  0  0  0  0  0  0  0
    6.4757  -15.0880   26.9799 N   0  0  0  0  0  0  0  0  0  0  0  0
    6.8083  -13.8147   26.7660 C   0  0  0  0  0  0  0  0  0  0  0  0
    6.8738  -12.7454   27.6304 C   0  0  0  0  0  0  0  0  0  0  0  0
    7.2583  -11.4912   27.1433 C   0  0  0  0  0  0  0  0  0  0  0  0
    7.5627  -11.3671   25.7963 C   0  0  0  0  0  0  0  0  0  0  0  0
    7.4869  -12.4538   24.9627 C   0  0  0  0  0  0  0  0  0  0  0  0
    7.1066  -13.7111   25.4259 C   0  0  0  0  0  0  0  0  0  0  0  0
    9.1670  -16.7403   23.6338 C   0  0  0  0  0  0  0  0  0  0  0  0
    8.7839  -17.9307   23.3467 O   0  0  0  0  0  0  0  0  0  0  0  0
   12.3399  -18.2106   23.4300 C   0  0  0  0  0  0  0  0  0  0  0  0
   12.1484  -18.0542   24.9041 C   0  0  1  0  0  0  0  0  0  0  0  0
   12.8271  -16.9060   25.3092 O   0  0  0  0  0  0  0  0  0  0  0  0
   10.6949  -17.8484   25.2796 C   0  0  2  0  0  0  0  0  0  0  0  0
   10.2150  -16.6689   24.5903 N   0  0  0  0  0  0  0  0  0  0  0  0
   10.5321  -17.8126   26.7331 C   0  0  0  0  0  0  0  0  0  0  0  0
   10.1446  -16.7373   27.2549 O   0  0  0  0  0  0  0  0  0  0  0  0
   10.7693  -18.8694   27.5974 O   0  0  0  0  0  0  0  0  0  0  0  0
  2  1  1  6
  3  2  1  0
  4  2  1  0
  5  4  1  0
  5  6  1  1
  7  9  1  0
  7  5  1  0
  8  7  2  0
 10  9  1  0
 10 11  1  1
 12 13  2  0
 12 11  1  0
 14 13  1  0
 15 20  2  0
 15 14  1  0
 16 15  1  0
 17 18  1  0
 17 16  2  0
 18 19  2  0
 19 20  1  0
 20 12  1  0
 21 10  1  0
 22 21  2  0
 24 23  1  6
 24 25  1  0
 24 26  1  0
 26 27  1  6
 26 28  1  0
 27 21  1  0
 28 30  1  0
 29 28  2  0
M  END
$$$$
