LWT.pdb
     RDKit          3D

 30 31  0  0  1  0  0  0  0  0999 V2000
    7.4694  -12.0468   19.4191 C   0  0  0  0  0  0  0  0  0  0  0  0
    7.7182  -13.5383   19.5024 C   0  0  1  0  0  0  0  0  0  0  0  0
    8.1379  -14.0184   18.1495 C   0  0  0  0  0  0  0  0  0  0  0  0
    8.7502  -13.8153   20.5745 C   0  0  0  0  0  0  0  0  0  0  0  0
    8.9695  -15.2941   20.7772 C   0  0  2  0  0  0  0  0  0  0  0  0
    7.6879  -15.9590   20.6808 N   0  0  0  0  0  0  0  0  0  0  0  0
    9.4650  -15.4716   22.1685 C   0  0  0  0  0  0  0  0  0  0  0  0
   10.4557  -14.7918   22.5927 O   0  0  0  0  0  0  0  0  0  0  0  0
    8.8789  -16.3834   23.0789 N   0  0  0  0  0  0  0  0  0  0  0  0
    9.4022  -16.5666   24.4447 C   0  0  1  0  0  0  0  0  0  0  0  0
    8.2311  -16.7849   25.3465 C   0  0  0  0  0  0  0  0  0  0  0  0
    7.3528  -15.6456   25.5649 C   0  0  0  0  0  0  0  0  0  0  0  0
    5.9878  -15.6339   25.3816 C   0  0  0  0  0  0  0  0  0  0  0  0
    5.5569  -14.3752   25.6771 N   0  0  0  0  0  0  0  0  0  0  0  0
    6.5769  -13.5951   26.0361 C   0  0  0  0  0  0  0  0  0  0  0  0
    6.6068  -12.2714   26.4130 C   0  0  0  0  0  0  0  0  0  0  0  0
    7.8303  -11.6802   26.7469 C   0  0  0  0  0  0  0  0  0  0  0  0
    8.9797  -12.4534   26.6864 C   0  0  0  0  0  0  0  0  0  0  0  0
    8.9136  -13.7697   26.3065 C   0  0  0  0  0  0  0  0  0  0  0  0
    7.7071  -14.3786   25.9699 C   0  0  0  0  0  0  0  0  0  0  0  0
   10.3513  -17.6989   24.3808 C   0  0  0  0  0  0  0  0  0  0  0  0
    9.9375  -18.9130   24.4122 O   0  0  0  0  0  0  0  0  0  0  0  0
   14.8327  -19.4542   23.2832 C   0  0  0  0  0  0  0  0  0  0  0  0
   13.8637  -18.3240   23.4174 C   0  0  1  0  0  0  0  0  0  0  0  0
   13.4085  -17.9908   22.1427 O   0  0  0  0  0  0  0  0  0  0  0  0
   12.6391  -18.7052   24.2241 C   0  0  2  0  0  0  0  0  0  0  0  0
   11.7610  -17.5551   24.2794 N   0  0  0  0  0  0  0  0  0  0  0  0
   13.0217  -19.2424   25.5301 C   0  0  0  0  0  0  0  0  0  0  0  0
   13.0166  -18.4588   26.5123 O   0  0  0  0  0  0  0  0  0  0  0  0
   13.3939  -20.5524   25.7856 O   0  0  0  0  0  0  0  0  0  0  0  0
  2  1  1  6
  3  2  1  0
  4  2  1  0
  5  4  1  0
  5  6  1  1
  7  9  1  0
  7  5  1  0
  8  7  2  0
 10  9  1  0
 10 11  1  1
 12 13  2  0
 12 11  1  0
 14 13  1  0
 15 20  2  0
 15 14  1  0
 16 15  1  0
 17 18  1  0
 17 16  2  0
 18 19  2  0
 19 20  1  0
 20 12  1  0
 21 10  1  0
 22 21  2  0
 24 23  1  6
 24 25  1  0
 24 26  1  0
 26 27  1  1
 26 28  1  0
 27 21  1  0
 28 30  1  0
 29 28  2  0
M  END
$$$$
