LWT.pdb
     RDKit          3D

 30 31  0  0  1  0  0  0  0  0999 V2000
    7.2271  -12.0123   19.7354 C   0  0  0  0  0  0  0  0  0  0  0  0
    7.6042  -13.4790   19.7482 C   0  0  1  0  0  0  0  0  0  0  0  0
    8.4227  -13.7619   18.5288 C   0  0  0  0  0  0  0  0  0  0  0  0
    8.3324  -13.7981   21.0362 C   0  0  0  0  0  0  0  0  0  0  0  0
    8.7009  -15.2582   21.1287 C   0  0  2  0  0  0  0  0  0  0  0  0
    7.4933  -16.0402   20.9732 N   0  0  0  0  0  0  0  0  0  0  0  0
    9.2124  -15.4893   22.5062 C   0  0  0  0  0  0  0  0  0  0  0  0
   10.1419  -14.7584   22.9808 O   0  0  0  0  0  0  0  0  0  0  0  0
    8.7084  -16.5092   23.3485 N   0  0  0  0  0  0  0  0  0  0  0  0
    9.2125  -16.7087   24.7191 C   0  0  1  0  0  0  0  0  0  0  0  0
    8.0280  -16.7563   25.6285 C   0  0  0  0  0  0  0  0  0  0  0  0
    7.2113  -15.5543   25.7019 C   0  0  0  0  0  0  0  0  0  0  0  0
    5.9182  -15.4298   25.2446 C   0  0  0  0  0  0  0  0  0  0  0  0
    5.5311  -14.1461   25.4888 N   0  0  0  0  0  0  0  0  0  0  0  0
    6.5107  -13.4570   26.0747 C   0  0  0  0  0  0  0  0  0  0  0  0
    6.5614  -12.1470   26.4947 C   0  0  0  0  0  0  0  0  0  0  0  0
    7.7306  -11.6619   27.0912 C   0  0  0  0  0  0  0  0  0  0  0  0
    8.8066  -12.5237   27.2400 C   0  0  0  0  0  0  0  0  0  0  0  0
    8.7219  -13.8235   26.8099 C   0  0  0  0  0  0  0  0  0  0  0  0
    7.5684  -14.3273   26.2137 C   0  0  0  0  0  0  0  0  0  0  0  0
   10.0198  -17.9474   24.6920 C   0  0  0  0  0  0  0  0  0  0  0  0
    9.5603  -19.0266   24.1720 O   0  0  0  0  0  0  0  0  0  0  0  0
   13.1479  -19.0073   23.1836 C   0  0  0  0  0  0  0  0  0  0  0  0
   13.3124  -19.2865   24.6428 C   0  0  1  0  0  0  0  0  0  0  0  0
   14.0323  -18.2341   25.2062 O   0  0  0  0  0  0  0  0  0  0  0  0
   11.9866  -19.3393   25.3743 C   0  0  2  0  0  0  0  0  0  0  0  0
   11.3350  -18.0556   25.2179 N   0  0  0  0  0  0  0  0  0  0  0  0
   12.1736  -19.7620   26.7624 C   0  0  0  0  0  0  0  0  0  0  0  0
   11.9434  -18.9225   27.6685 O   0  0  0  0  0  0  0  0  0  0  0  0
   12.5866  -21.0190   27.1739 O   0  0  0  0  0  0  0  0  0  0  0  0
  2  1  1  1
  3  2  1  0
  4  2  1  0
  5  4  1  0
  5  6  1  1
  7  9  1  0
  7  5  1  0
  8  7  2  0
 10  9  1  0
 10 11  1  1
 12 13  2  0
 12 11  1  0
 14 13  1  0
 15 20  2  0
 15 14  1  0
 16 15  1  0
 17 18  1  0
 17 16  2  0
 18 19  2  0
 19 20  1  0
 20 12  1  0
 21 10  1  0
 22 21  2  0
 24 23  1  6
 24 25  1  0
 24 26  1  0
 26 27  1  1
 26 28  1  0
 27 21  1  0
 28 30  1  0
 29 28  2  0
M  END
$$$$
