LWT.pdb
     RDKit          3D

 30 31  0  0  1  0  0  0  0  0999 V2000
    7.5146  -12.1409   19.0185 C   0  0  0  0  0  0  0  0  0  0  0  0
    7.5057  -13.6185   19.3499 C   0  0  1  0  0  0  0  0  0  0  0  0
    8.0730  -14.3627   18.1832 C   0  0  0  0  0  0  0  0  0  0  0  0
    8.2782  -13.8497   20.6309 C   0  0  0  0  0  0  0  0  0  0  0  0
    8.2927  -15.3058   21.0255 C   0  0  2  0  0  0  0  0  0  0  0  0
    6.9236  -15.7682   21.0994 N   0  0  0  0  0  0  0  0  0  0  0  0
    8.8665  -15.3773   22.3960 C   0  0  0  0  0  0  0  0  0  0  0  0
    9.4320  -14.3593   22.9131 O   0  0  0  0  0  0  0  0  0  0  0  0
    8.8183  -16.5513   23.1854 N   0  0  0  0  0  0  0  0  0  0  0  0
    9.3955  -16.6039   24.5406 C   0  0  1  0  0  0  0  0  0  0  0  0
    8.2800  -16.8974   25.4904 C   0  0  0  0  0  0  0  0  0  0  0  0
    7.3159  -15.8313   25.7160 C   0  0  0  0  0  0  0  0  0  0  0  0
    5.9588  -15.9126   25.4961 C   0  0  0  0  0  0  0  0  0  0  0  0
    5.4300  -14.6974   25.8142 N   0  0  0  0  0  0  0  0  0  0  0  0
    6.3812  -13.8567   26.2220 C   0  0  0  0  0  0  0  0  0  0  0  0
    6.3052  -12.5460   26.6357 C   0  0  0  0  0  0  0  0  0  0  0  0
    7.4736  -11.8781   27.0189 C   0  0  0  0  0  0  0  0  0  0  0  0
    8.6774  -12.5643   26.9685 C   0  0  0  0  0  0  0  0  0  0  0  0
    8.7169  -13.8703   26.5509 C   0  0  0  0  0  0  0  0  0  0  0  0
    7.5667  -14.5544   26.1651 C   0  0  0  0  0  0  0  0  0  0  0  0
   10.4597  -17.6301   24.5027 C   0  0  0  0  0  0  0  0  0  0  0  0
   10.3949  -18.6223   23.6917 O   0  0  0  0  0  0  0  0  0  0  0  0
   14.8900  -19.3123   24.6807 C   0  0  0  0  0  0  0  0  0  0  0  0
   13.8271  -18.2615   24.6636 C   0  0  1  0  0  0  0  0  0  0  0  0
   13.4943  -18.0043   23.3347 O   0  0  0  0  0  0  0  0  0  0  0  0
   12.5525  -18.7174   25.3445 C   0  0  2  0  0  0  0  0  0  0  0  0
   11.6149  -17.6140   25.3292 N   0  0  0  0  0  0  0  0  0  0  0  0
   12.8363  -19.2569   26.6745 C   0  0  0  0  0  0  0  0  0  0  0  0
   12.4999  -18.5700   27.6714 O   0  0  0  0  0  0  0  0  0  0  0  0
   13.4500  -20.4709   26.9382 O   0  0  0  0  0  0  0  0  0  0  0  0
  2  1  1  6
  3  2  1  0
  4  2  1  0
  5  4  1  0
  5  6  1  1
  7  9  1  0
  7  5  1  0
  8  7  2  0
 10  9  1  0
 10 11  1  1
 12 13  2  0
 12 11  1  0
 14 13  1  0
 15 20  2  0
 15 14  1  0
 16 15  1  0
 17 18  1  0
 17 16  2  0
 18 19  2  0
 19 20  1  0
 20 12  1  0
 21 10  1  0
 22 21  2  0
 24 23  1  6
 24 25  1  0
 24 26  1  0
 26 27  1  1
 26 28  1  0
 27 21  1  0
 28 30  1  0
 29 28  2  0
M  END
$$$$
