LWT.pdb
     RDKit          3D

 30 31  0  0  1  0  0  0  0  0999 V2000
    7.3765  -12.2055   19.4743 C   0  0  0  0  0  0  0  0  0  0  0  0
    7.6965  -13.6803   19.6000 C   0  0  1  0  0  0  0  0  0  0  0  0
    8.4948  -14.0890   18.4031 C   0  0  0  0  0  0  0  0  0  0  0  0
    8.4208  -13.9266   20.9061 C   0  0  0  0  0  0  0  0  0  0  0  0
    8.8624  -15.3627   21.0437 C   0  0  2  0  0  0  0  0  0  0  0  0
    7.6863  -16.2043   20.9949 N   0  0  0  0  0  0  0  0  0  0  0  0
    9.4607  -15.5037   22.3982 C   0  0  0  0  0  0  0  0  0  0  0  0
   10.4715  -14.8043   22.7336 O   0  0  0  0  0  0  0  0  0  0  0  0
    8.9540  -16.4009   23.3689 N   0  0  0  0  0  0  0  0  0  0  0  0
    9.5881  -16.5600   24.6900 C   0  0  1  0  0  0  0  0  0  0  0  0
    8.4935  -16.6546   25.7026 C   0  0  0  0  0  0  0  0  0  0  0  0
    7.5243  -15.5695   25.7211 C   0  0  0  0  0  0  0  0  0  0  0  0
    6.2002  -15.6656   25.3549 C   0  0  0  0  0  0  0  0  0  0  0  0
    5.6550  -14.4252   25.5018 N   0  0  0  0  0  0  0  0  0  0  0  0
    6.5647  -13.5546   25.9403 C   0  0  0  0  0  0  0  0  0  0  0  0
    6.4597  -12.2119   26.2253 C   0  0  0  0  0  0  0  0  0  0  0  0
    7.5858  -11.5163   26.6796 C   0  0  0  0  0  0  0  0  0  0  0  0
    8.7780  -12.2083   26.8283 C   0  0  0  0  0  0  0  0  0  0  0  0
    8.8473  -13.5464   26.5350 C   0  0  0  0  0  0  0  0  0  0  0  0
    7.7395  -14.2584   26.0816 C   0  0  0  0  0  0  0  0  0  0  0  0
   10.4498  -17.7584   24.5990 C   0  0  0  0  0  0  0  0  0  0  0  0
    9.9431  -18.9330   24.5005 O   0  0  0  0  0  0  0  0  0  0  0  0
   13.3600  -18.4039   22.2786 C   0  0  0  0  0  0  0  0  0  0  0  0
   13.8152  -18.7570   23.6579 C   0  0  1  0  0  0  0  0  0  0  0  0
   14.5735  -17.6952   24.1484 O   0  0  0  0  0  0  0  0  0  0  0  0
   12.6585  -18.9384   24.6197 C   0  0  2  0  0  0  0  0  0  0  0  0
   11.8699  -17.7239   24.6090 N   0  0  0  0  0  0  0  0  0  0  0  0
   13.1382  -19.3412   25.9419 C   0  0  0  0  0  0  0  0  0  0  0  0
   13.0507  -18.5076   26.8780 O   0  0  0  0  0  0  0  0  0  0  0  0
   13.6870  -20.5732   26.2597 O   0  0  0  0  0  0  0  0  0  0  0  0
  2  1  1  6
  3  2  1  0
  4  2  1  0
  5  4  1  0
  5  6  1  1
  7  9  1  0
  7  5  1  0
  8  7  2  0
 10  9  1  0
 10 11  1  1
 12 13  2  0
 12 11  1  0
 14 13  1  0
 15 20  2  0
 15 14  1  0
 16 15  1  0
 17 18  1  0
 17 16  2  0
 18 19  2  0
 19 20  1  0
 20 12  1  0
 21 10  1  0
 22 21  2  0
 24 23  1  6
 24 25  1  0
 24 26  1  0
 26 27  1  1
 26 28  1  0
 27 21  1  0
 28 30  1  0
 29 28  2  0
M  END
$$$$
