LWT.pdb
     RDKit          3D

 30 31  0  0  1  0  0  0  0  0999 V2000
    7.1567  -12.1215   19.4080 C   0  0  0  0  0  0  0  0  0  0  0  0
    7.3802  -13.6146   19.5276 C   0  0  1  0  0  0  0  0  0  0  0  0
    7.9487  -14.1071   18.2349 C   0  0  0  0  0  0  0  0  0  0  0  0
    8.2789  -13.8935   20.7132 C   0  0  0  0  0  0  0  0  0  0  0  0
    8.5271  -15.3702   20.8974 C   0  0  2  0  0  0  0  0  0  0  0  0
    7.2470  -16.0298   21.0400 N   0  0  0  0  0  0  0  0  0  0  0  0
    9.2607  -15.5291   22.1816 C   0  0  0  0  0  0  0  0  0  0  0  0
   10.3353  -14.8789   22.3960 O   0  0  0  0  0  0  0  0  0  0  0  0
    8.8181  -16.3904   23.2141 N   0  0  0  0  0  0  0  0  0  0  0  0
    9.5175  -16.4794   24.5086 C   0  0  1  0  0  0  0  0  0  0  0  0
    8.4780  -16.6601   25.5666 C   0  0  0  0  0  0  0  0  0  0  0  0
    7.4533  -15.6314   25.6589 C   0  0  0  0  0  0  0  0  0  0  0  0
    6.1121  -15.8046   25.3980 C   0  0  0  0  0  0  0  0  0  0  0  0
    5.5105  -14.5959   25.5846 N   0  0  0  0  0  0  0  0  0  0  0  0
    6.4008  -13.6725   25.9485 C   0  0  0  0  0  0  0  0  0  0  0  0
    6.2424  -12.3361   26.2381 C   0  0  0  0  0  0  0  0  0  0  0  0
    7.3592  -11.5751   26.6011 C   0  0  0  0  0  0  0  0  0  0  0  0
    8.5968  -12.1976   26.6573 C   0  0  0  0  0  0  0  0  0  0  0  0
    8.7189  -13.5316   26.3622 C   0  0  0  0  0  0  0  0  0  0  0  0
    7.6212  -14.3080   25.9987 C   0  0  0  0  0  0  0  0  0  0  0  0
   10.4776  -17.5978   24.3894 C   0  0  0  0  0  0  0  0  0  0  0  0
   10.1112  -18.7402   23.9346 O   0  0  0  0  0  0  0  0  0  0  0  0
   14.9521  -19.4824   24.0220 C   0  0  0  0  0  0  0  0  0  0  0  0
   14.0170  -18.3198   24.1129 C   0  0  1  0  0  0  0  0  0  0  0  0
   13.7113  -17.9080   22.8167 O   0  0  0  0  0  0  0  0  0  0  0  0
   12.7008  -18.6864   24.7681 C   0  0  2  0  0  0  0  0  0  0  0  0
   11.8488  -17.5157   24.7518 N   0  0  0  0  0  0  0  0  0  0  0  0
   12.9215  -19.2604   26.0956 C   0  0  0  0  0  0  0  0  0  0  0  0
   13.3409  -20.4429   26.1624 O   0  0  0  0  0  0  0  0  0  0  0  0
   12.7073  -18.6109   27.3008 O   0  0  0  0  0  0  0  0  0  0  0  0
  2  1  1  6
  3  2  1  0
  4  2  1  0
  5  4  1  0
  5  6  1  1
  7  9  1  0
  7  5  1  0
  8  7  2  0
 10  9  1  0
 10 11  1  1
 12 13  2  0
 12 11  1  0
 14 13  1  0
 15 20  2  0
 15 14  1  0
 16 15  1  0
 17 18  1  0
 17 16  2  0
 18 19  2  0
 19 20  1  0
 20 12  1  0
 21 10  1  0
 22 21  2  0
 24 23  1  6
 24 25  1  0
 24 26  1  0
 26 27  1  1
 26 28  1  0
 27 21  1  0
 28 30  1  0
 29 28  2  0
M  END
$$$$
