LWT.pdb
     RDKit          3D

 30 31  0  0  1  0  0  0  0  0999 V2000
    7.4556  -12.1013   19.5102 C   0  0  0  0  0  0  0  0  0  0  0  0
    7.7195  -13.5906   19.5849 C   0  0  1  0  0  0  0  0  0  0  0  0
    8.4290  -14.0029   18.3345 C   0  0  0  0  0  0  0  0  0  0  0  0
    8.5072  -13.8977   20.8404 C   0  0  0  0  0  0  0  0  0  0  0  0
    8.7670  -15.3758   20.9955 C   0  0  2  0  0  0  0  0  0  0  0  0
    7.4951  -16.0649   20.9601 N   0  0  0  0  0  0  0  0  0  0  0  0
    9.3483  -15.5734   22.3503 C   0  0  0  0  0  0  0  0  0  0  0  0
   10.4118  -14.9606   22.6923 O   0  0  0  0  0  0  0  0  0  0  0  0
    8.7677  -16.4324   23.3141 N   0  0  0  0  0  0  0  0  0  0  0  0
    9.3529  -16.6078   24.6555 C   0  0  1  0  0  0  0  0  0  0  0  0
    8.2231  -16.6720   25.6312 C   0  0  0  0  0  0  0  0  0  0  0  0
    7.3318  -15.5228   25.6759 C   0  0  0  0  0  0  0  0  0  0  0  0
    6.0108  -15.5121   25.2865 C   0  0  0  0  0  0  0  0  0  0  0  0
    5.5510  -14.2426   25.4716 N   0  0  0  0  0  0  0  0  0  0  0  0
    6.5113  -13.4547   25.9563 C   0  0  0  0  0  0  0  0  0  0  0  0
    6.4952  -12.1193   26.2900 C   0  0  0  0  0  0  0  0  0  0  0  0
    7.6588  -11.5217   26.7871 C   0  0  0  0  0  0  0  0  0  0  0  0
    8.7971  -12.3008   26.9277 C   0  0  0  0  0  0  0  0  0  0  0  0
    8.7781  -13.6289   26.5852 C   0  0  0  0  0  0  0  0  0  0  0  0
    7.6315  -14.2442   26.0887 C   0  0  0  0  0  0  0  0  0  0  0  0
   10.1843  -17.8292   24.5930 C   0  0  0  0  0  0  0  0  0  0  0  0
    9.7135  -18.9282   24.1275 O   0  0  0  0  0  0  0  0  0  0  0  0
   13.0140  -18.8025   22.7352 C   0  0  0  0  0  0  0  0  0  0  0  0
   13.4291  -19.0803   24.1440 C   0  0  1  0  0  0  0  0  0  0  0  0
   14.2159  -18.0159   24.5812 O   0  0  0  0  0  0  0  0  0  0  0  0
   12.2480  -19.1577   25.0900 C   0  0  2  0  0  0  0  0  0  0  0  0
   11.5360  -17.8986   25.0246 N   0  0  0  0  0  0  0  0  0  0  0  0
   12.6807  -19.5434   26.4334 C   0  0  0  0  0  0  0  0  0  0  0  0
   12.5801  -18.6907   27.3507 O   0  0  0  0  0  0  0  0  0  0  0  0
   13.1977  -20.7784   26.7906 O   0  0  0  0  0  0  0  0  0  0  0  0
  2  1  1  6
  3  2  1  0
  4  2  1  0
  5  4  1  0
  5  6  1  1
  7  9  1  0
  7  5  1  0
  8  7  2  0
 10  9  1  0
 10 11  1  1
 12 13  2  0
 12 11  1  0
 14 13  1  0
 15 20  2  0
 15 14  1  0
 16 15  1  0
 17 18  1  0
 17 16  2  0
 18 19  2  0
 19 20  1  0
 20 12  1  0
 21 10  1  0
 22 21  2  0
 24 23  1  6
 24 25  1  0
 24 26  1  0
 26 27  1  1
 26 28  1  0
 27 21  1  0
 28 30  1  0
 29 28  2  0
M  END
$$$$
