LWT.pdb
     RDKit          3D

 30 31  0  0  1  0  0  0  0  0999 V2000
    7.1522  -12.1821   19.6338 C   0  0  0  0  0  0  0  0  0  0  0  0
    7.5143  -13.6474   19.7568 C   0  0  1  0  0  0  0  0  0  0  0  0
    8.2595  -14.0499   18.5242 C   0  0  0  0  0  0  0  0  0  0  0  0
    8.3108  -13.8620   21.0259 C   0  0  0  0  0  0  0  0  0  0  0  0
    8.6932  -15.3094   21.2135 C   0  0  2  0  0  0  0  0  0  0  0  0
    7.4784  -16.0912   21.2963 N   0  0  0  0  0  0  0  0  0  0  0  0
    9.3825  -15.4083   22.5279 C   0  0  0  0  0  0  0  0  0  0  0  0
   10.4028  -14.6871   22.7778 O   0  0  0  0  0  0  0  0  0  0  0  0
    8.9551  -16.2874   23.5518 N   0  0  0  0  0  0  0  0  0  0  0  0
    9.6718  -16.3968   24.8351 C   0  0  1  0  0  0  0  0  0  0  0  0
    8.6434  -16.4732   25.9163 C   0  0  0  0  0  0  0  0  0  0  0  0
    7.5808  -15.4800   25.8792 C   0  0  0  0  0  0  0  0  0  0  0  0
    6.2885  -15.6983   25.4558 C   0  0  0  0  0  0  0  0  0  0  0  0
    5.6279  -14.5111   25.5639 N   0  0  0  0  0  0  0  0  0  0  0  0
    6.4348  -13.5585   26.0322 C   0  0  0  0  0  0  0  0  0  0  0  0
    6.1966  -12.2287   26.2967 C   0  0  0  0  0  0  0  0  0  0  0  0
    7.2338  -11.4308   26.7924 C   0  0  0  0  0  0  0  0  0  0  0  0
    8.4756  -12.0110   27.0019 C   0  0  0  0  0  0  0  0  0  0  0  0
    8.6782  -13.3396   26.7275 C   0  0  0  0  0  0  0  0  0  0  0  0
    7.6605  -14.1522   26.2337 C   0  0  0  0  0  0  0  0  0  0  0  0
   10.5435  -17.5865   24.7275 C   0  0  0  0  0  0  0  0  0  0  0  0
   10.0495  -18.7705   24.7084 O   0  0  0  0  0  0  0  0  0  0  0  0
   13.0672  -18.3870   22.1372 C   0  0  0  0  0  0  0  0  0  0  0  0
   13.7469  -18.6091   23.4498 C   0  0  1  0  0  0  0  0  0  0  0  0
   14.5309  -17.4901   23.7259 O   0  0  0  0  0  0  0  0  0  0  0  0
   12.7637  -18.7373   24.5956 C   0  0  2  0  0  0  0  0  0  0  0  0
   11.9601  -17.5334   24.6356 N   0  0  0  0  0  0  0  0  0  0  0  0
   13.4576  -19.0480   25.8455 C   0  0  0  0  0  0  0  0  0  0  0  0
   13.4499  -18.1796   26.7536 O   0  0  0  0  0  0  0  0  0  0  0  0
   14.1309  -20.2270   26.1226 O   0  0  0  0  0  0  0  0  0  0  0  0
  2  1  1  6
  3  2  1  0
  4  2  1  0
  5  4  1  0
  5  6  1  1
  7  9  1  0
  7  5  1  0
  8  7  2  0
 10  9  1  0
 10 11  1  1
 12 13  2  0
 12 11  1  0
 14 13  1  0
 15 20  2  0
 15 14  1  0
 16 15  1  0
 17 18  1  0
 17 16  2  0
 18 19  2  0
 19 20  1  0
 20 12  1  0
 21 10  1  0
 22 21  2  0
 24 23  1  6
 24 25  1  0
 24 26  1  0
 26 27  1  1
 26 28  1  0
 27 21  1  0
 28 30  1  0
 29 28  2  0
M  END
$$$$
