LWT.pdb
     RDKit          3D

 30 31  0  0  1  0  0  0  0  0999 V2000
    7.3162  -12.3426   19.5263 C   0  0  0  0  0  0  0  0  0  0  0  0
    7.8078  -13.7737   19.5865 C   0  0  1  0  0  0  0  0  0  0  0  0
    8.6290  -14.0377   18.3647 C   0  0  0  0  0  0  0  0  0  0  0  0
    8.5768  -13.9859   20.8729 C   0  0  0  0  0  0  0  0  0  0  0  0
    9.0132  -15.4206   21.0387 C   0  0  2  0  0  0  0  0  0  0  0  0
    7.8965  -16.2754   20.6979 N   0  0  0  0  0  0  0  0  0  0  0  0
    9.3078  -15.6194   22.4831 C   0  0  0  0  0  0  0  0  0  0  0  0
   10.1443  -14.8670   23.0810 O   0  0  0  0  0  0  0  0  0  0  0  0
    8.6907  -16.6309   23.2576 N   0  0  0  0  0  0  0  0  0  0  0  0
    8.9888  -16.8069   24.6904 C   0  0  1  0  0  0  0  0  0  0  0  0
    7.6830  -16.8928   25.4114 C   0  0  0  0  0  0  0  0  0  0  0  0
    7.0142  -15.6345   25.7051 C   0  0  0  0  0  0  0  0  0  0  0  0
    5.6843  -15.3571   25.4793 C   0  0  0  0  0  0  0  0  0  0  0  0
    5.4727  -14.0703   25.8753 N   0  0  0  0  0  0  0  0  0  0  0  0
    6.5976  -13.5238   26.3378 C   0  0  0  0  0  0  0  0  0  0  0  0
    6.8466  -12.2649   26.8360 C   0  0  0  0  0  0  0  0  0  0  0  0
    8.1387  -11.9386   27.2628 C   0  0  0  0  0  0  0  0  0  0  0  0
    9.1318  -12.9016   27.1687 C   0  0  0  0  0  0  0  0  0  0  0  0
    8.8488  -14.1465   26.6671 C   0  0  0  0  0  0  0  0  0  0  0  0
    7.5703  -14.4929   26.2366 C   0  0  0  0  0  0  0  0  0  0  0  0
    9.8331  -18.0163   24.7966 C   0  0  0  0  0  0  0  0  0  0  0  0
    9.8530  -18.8949   23.8618 O   0  0  0  0  0  0  0  0  0  0  0  0
   11.7412  -19.1887   23.4232 C   0  0  0  0  0  0  0  0  0  0  0  0
   12.4843  -19.3385   24.7115 C   0  0  1  0  0  0  0  0  0  0  0  0
   13.2391  -18.1839   24.9124 O   0  0  0  0  0  0  0  0  0  0  0  0
   11.5565  -19.4571   25.9036 C   0  0  2  0  0  0  0  0  0  0  0  0
   10.6746  -18.3086   25.9033 N   0  0  0  0  0  0  0  0  0  0  0  0
   12.3170  -19.6405   27.1399 C   0  0  0  0  0  0  0  0  0  0  0  0
   12.3304  -18.6951   27.9674 O   0  0  0  0  0  0  0  0  0  0  0  0
   13.0328  -20.7755   27.4855 O   0  0  0  0  0  0  0  0  0  0  0  0
  2  1  1  6
  3  2  1  0
  4  2  1  0
  5  4  1  0
  5  6  1  1
  7  9  1  0
  7  5  1  0
  8  7  2  0
 10  9  1  0
 10 11  1  1
 12 13  2  0
 12 11  1  0
 14 13  1  0
 15 20  2  0
 15 14  1  0
 16 15  1  0
 17 18  1  0
 17 16  2  0
 18 19  2  0
 19 20  1  0
 20 12  1  0
 21 10  1  0
 22 21  2  0
 24 23  1  6
 24 25  1  0
 24 26  1  0
 26 27  1  1
 26 28  1  0
 27 21  1  0
 28 30  1  0
 29 28  2  0
M  END
$$$$
