LWT.pdb
     RDKit          3D

 30 31  0  0  1  0  0  0  0  0999 V2000
    6.4901  -14.1824   20.1160 C   0  0  0  0  0  0  0  0  0  0  0  0
    7.9167  -13.9021   19.6922 C   0  0  1  0  0  0  0  0  0  0  0  0
    7.9625  -12.5394   19.0776 C   0  0  0  0  0  0  0  0  0  0  0  0
    8.8320  -14.0418   20.8896 C   0  0  0  0  0  0  0  0  0  0  0  0
    9.1365  -15.4863   21.2009 C   0  0  2  0  0  0  0  0  0  0  0  0
    7.9359  -16.2612   20.9725 N   0  0  0  0  0  0  0  0  0  0  0  0
    9.4498  -15.5595   22.6532 C   0  0  0  0  0  0  0  0  0  0  0  0
   10.2229  -14.7012   23.1910 O   0  0  0  0  0  0  0  0  0  0  0  0
    8.9200  -16.5619   23.5006 N   0  0  0  0  0  0  0  0  0  0  0  0
    9.2867  -16.6524   24.9254 C   0  0  1  0  0  0  0  0  0  0  0  0
    8.0170  -16.7017   25.7115 C   0  0  0  0  0  0  0  0  0  0  0  0
    7.2126  -15.4894   25.7309 C   0  0  0  0  0  0  0  0  0  0  0  0
    5.9421  -15.3573   25.2160 C   0  0  0  0  0  0  0  0  0  0  0  0
    5.5604  -14.0655   25.4235 N   0  0  0  0  0  0  0  0  0  0  0  0
    6.5221  -13.3785   26.0408 C   0  0  0  0  0  0  0  0  0  0  0  0
    6.5704  -12.0628   26.4426 C   0  0  0  0  0  0  0  0  0  0  0  0
    7.7186  -11.5818   27.0818 C   0  0  0  0  0  0  0  0  0  0  0  0
    8.7765  -12.4534   27.2904 C   0  0  0  0  0  0  0  0  0  0  0  0
    8.6948  -13.7587   26.8770 C   0  0  0  0  0  0  0  0  0  0  0  0
    7.5621  -14.2587   26.2390 C   0  0  0  0  0  0  0  0  0  0  0  0
   10.1438  -17.8498   25.0617 C   0  0  0  0  0  0  0  0  0  0  0  0
    9.6734  -19.0273   24.8653 O   0  0  0  0  0  0  0  0  0  0  0  0
   14.6050  -19.9240   25.2022 C   0  0  0  0  0  0  0  0  0  0  0  0
   13.7375  -18.7067   25.2058 C   0  0  1  0  0  0  0  0  0  0  0  0
   13.7190  -18.1848   23.9133 O   0  0  0  0  0  0  0  0  0  0  0  0
   12.2990  -19.0230   25.5613 C   0  0  2  0  0  0  0  0  0  0  0  0
   11.5209  -17.8114   25.4082 N   0  0  0  0  0  0  0  0  0  0  0  0
   12.2127  -19.6388   26.8857 C   0  0  0  0  0  0  0  0  0  0  0  0
   11.8994  -18.9045   27.8559 O   0  0  0  0  0  0  0  0  0  0  0  0
   12.4480  -20.9742   27.1710 O   0  0  0  0  0  0  0  0  0  0  0  0
  2  1  1  1
  3  2  1  0
  4  2  1  0
  5  4  1  0
  5  6  1  1
  7  9  1  0
  7  5  1  0
  8  7  2  0
 10  9  1  0
 10 11  1  1
 12 13  2  0
 12 11  1  0
 14 13  1  0
 15 20  2  0
 15 14  1  0
 16 15  1  0
 17 18  1  0
 17 16  2  0
 18 19  2  0
 19 20  1  0
 20 12  1  0
 21 10  1  0
 22 21  2  0
 24 23  1  6
 24 25  1  0
 24 26  1  0
 26 27  1  1
 26 28  1  0
 27 21  1  0
 28 30  1  0
 29 28  2  0
M  END
$$$$
