LWT.pdb
     RDKit          3D

 30 31  0  0  1  0  0  0  0  0999 V2000
    7.0787  -13.9537   18.5264 C   0  0  0  0  0  0  0  0  0  0  0  0
    8.1735  -13.4432   19.4398 C   0  0  1  0  0  0  0  0  0  0  0  0
    8.1597  -11.9483   19.3957 C   0  0  0  0  0  0  0  0  0  0  0  0
    7.9620  -13.9956   20.8331 C   0  0  0  0  0  0  0  0  0  0  0  0
    8.4580  -15.4149   20.9581 C   0  0  2  0  0  0  0  0  0  0  0  0
    7.3103  -16.2842   21.1030 N   0  0  0  0  0  0  0  0  0  0  0  0
    9.2418  -15.4902   22.2201 C   0  0  0  0  0  0  0  0  0  0  0  0
   10.2922  -14.7850   22.3707 O   0  0  0  0  0  0  0  0  0  0  0  0
    8.8747  -16.3286   23.2999 N   0  0  0  0  0  0  0  0  0  0  0  0
    9.6815  -16.4134   24.5305 C   0  0  1  0  0  0  0  0  0  0  0  0
    8.7332  -16.5186   25.6803 C   0  0  0  0  0  0  0  0  0  0  0  0
    7.6645  -15.5329   25.7386 C   0  0  0  0  0  0  0  0  0  0  0  0
    6.3357  -15.7681   25.4630 C   0  0  0  0  0  0  0  0  0  0  0  0
    5.6808  -14.5829   25.6179 N   0  0  0  0  0  0  0  0  0  0  0  0
    6.5259  -13.6156   25.9758 C   0  0  0  0  0  0  0  0  0  0  0  0
    6.3067  -12.2819   26.2372 C   0  0  0  0  0  0  0  0  0  0  0  0
    7.3849  -11.4673   26.6005 C   0  0  0  0  0  0  0  0  0  0  0  0
    8.6469  -12.0353   26.6855 C   0  0  0  0  0  0  0  0  0  0  0  0
    8.8296  -13.3682   26.4181 C   0  0  0  0  0  0  0  0  0  0  0  0
    7.7712  -14.1974   26.0549 C   0  0  0  0  0  0  0  0  0  0  0  0
   10.5794  -17.5764   24.3629 C   0  0  0  0  0  0  0  0  0  0  0  0
   10.2145  -18.7527   24.7227 O   0  0  0  0  0  0  0  0  0  0  0  0
   12.4517  -18.7327   21.2792 C   0  0  0  0  0  0  0  0  0  0  0  0
   13.4325  -18.6883   22.4062 C   0  0  1  0  0  0  0  0  0  0  0  0
   14.1571  -17.5020   22.3028 O   0  0  0  0  0  0  0  0  0  0  0  0
   12.7552  -18.6606   23.7613 C   0  0  2  0  0  0  0  0  0  0  0  0
   11.8840  -17.5047   23.8051 N   0  0  0  0  0  0  0  0  0  0  0  0
   13.7428  -18.7198   24.8390 C   0  0  0  0  0  0  0  0  0  0  0  0
   13.9180  -17.6872   25.5331 O   0  0  0  0  0  0  0  0  0  0  0  0
   14.5121  -19.8243   25.1680 O   0  0  0  0  0  0  0  0  0  0  0  0
  2  1  1  6
  3  2  1  0
  4  2  1  0
  5  4  1  0
  5  6  1  1
  7  9  1  0
  7  5  1  0
  8  7  2  0
 10  9  1  0
 10 11  1  1
 12 13  2  0
 12 11  1  0
 14 13  1  0
 15 20  2  0
 15 14  1  0
 16 15  1  0
 17 18  1  0
 17 16  2  0
 18 19  2  0
 19 20  1  0
 20 12  1  0
 21 10  1  0
 22 21  2  0
 24 23  1  6
 24 25  1  0
 24 26  1  0
 26 27  1  1
 26 28  1  0
 27 21  1  0
 28 30  1  0
 29 28  2  0
M  END
$$$$
