LWT.pdb
     RDKit          3D

 30 31  0  0  1  0  0  0  0  0999 V2000
    7.0821  -12.0018   19.5893 C   0  0  0  0  0  0  0  0  0  0  0  0
    7.3136  -13.4943   19.7005 C   0  0  1  0  0  0  0  0  0  0  0  0
    7.7334  -14.0034   18.3583 C   0  0  0  0  0  0  0  0  0  0  0  0
    8.3379  -13.7635   20.7819 C   0  0  0  0  0  0  0  0  0  0  0  0
    8.5527  -15.2409   20.9997 C   0  0  2  0  0  0  0  0  0  0  0  0
    7.2585  -15.8666   21.1656 N   0  0  0  0  0  0  0  0  0  0  0  0
    9.2908  -15.3866   22.2829 C   0  0  0  0  0  0  0  0  0  0  0  0
   10.2840  -14.6329   22.5456 O   0  0  0  0  0  0  0  0  0  0  0  0
    8.9409  -16.3471   23.2620 N   0  0  0  0  0  0  0  0  0  0  0  0
    9.6852  -16.4773   24.5275 C   0  0  1  0  0  0  0  0  0  0  0  0
    8.6831  -16.6854   25.6161 C   0  0  0  0  0  0  0  0  0  0  0  0
    7.6429  -15.6767   25.7487 C   0  0  0  0  0  0  0  0  0  0  0  0
    6.3153  -15.8406   25.4212 C   0  0  0  0  0  0  0  0  0  0  0  0
    5.6921  -14.6564   25.6791 N   0  0  0  0  0  0  0  0  0  0  0  0
    6.5559  -13.7570   26.1509 C   0  0  0  0  0  0  0  0  0  0  0  0
    6.3698  -12.4495   26.5394 C   0  0  0  0  0  0  0  0  0  0  0  0
    7.4620  -11.7099   27.0065 C   0  0  0  0  0  0  0  0  0  0  0  0
    8.7040  -12.3236   27.0626 C   0  0  0  0  0  0  0  0  0  0  0  0
    8.8540  -13.6285   26.6674 C   0  0  0  0  0  0  0  0  0  0  0  0
    7.7811  -14.3833   26.1993 C   0  0  0  0  0  0  0  0  0  0  0  0
   10.6350  -17.5954   24.3412 C   0  0  0  0  0  0  0  0  0  0  0  0
   10.2616  -18.6998   23.8052 O   0  0  0  0  0  0  0  0  0  0  0  0
   11.4635  -19.1052   22.4310 C   0  0  0  0  0  0  0  0  0  0  0  0
   12.8579  -18.8965   22.9272 C   0  0  1  0  0  0  0  0  0  0  0  0
   13.3684  -17.7530   22.3149 O   0  0  0  0  0  0  0  0  0  0  0  0
   12.9084  -18.6426   24.4201 C   0  0  2  0  0  0  0  0  0  0  0  0
   12.0030  -17.5536   24.7221 N   0  0  0  0  0  0  0  0  0  0  0  0
   14.2855  -18.4309   24.8666 C   0  0  0  0  0  0  0  0  0  0  0  0
   15.0825  -19.3995   24.7935 O   0  0  0  0  0  0  0  0  0  0  0  0
   14.7971  -17.2453   25.3690 O   0  0  0  0  0  0  0  0  0  0  0  0
  2  1  1  6
  3  2  1  0
  4  2  1  0
  5  4  1  0
  5  6  1  1
  7  9  1  0
  7  5  1  0
  8  7  2  0
 10  9  1  0
 10 11  1  1
 12 13  2  0
 12 11  1  0
 14 13  1  0
 15 20  2  0
 15 14  1  0
 16 15  1  0
 17 18  1  0
 17 16  2  0
 18 19  2  0
 19 20  1  0
 20 12  1  0
 21 10  1  0
 22 21  2  0
 24 23  1  6
 24 25  1  0
 24 26  1  0
 26 27  1  6
 26 28  1  0
 27 21  1  0
 28 30  1  0
 29 28  2  0
M  END
$$$$
