PMR.pdb
     RDKit          3D

 27 27  0  0  1  0  0  0  0  0999 V2000
    7.4535  -14.7782   20.2119 N   0  0  0  0  0  0  0  0  0  0  0  0
    7.4427  -14.4750   18.7922 C   0  0  0  0  0  0  0  0  0  0  0  0
    7.9650  -13.0567   18.6968 C   0  0  0  0  0  0  0  0  0  0  0  0
    8.4454  -12.7141   20.1158 C   0  0  0  0  0  0  0  0  0  0  0  0
    8.6437  -14.1031   20.6564 C   0  0  1  0  0  0  0  0  0  0  0  0
    8.8709  -14.1866   22.0973 C   0  0  0  0  0  0  0  0  0  0  0  0
    9.9492  -13.7942   22.5769 O   0  0  0  0  0  0  0  0  0  0  0  0
    6.8145  -10.8107   27.0316 C   0  0  0  0  0  0  0  0  0  0  0  0
    7.2452  -12.5498   26.6984 S   0  0  0  0  0  0  0  0  0  0  0  0
    6.3788  -13.0486   25.1989 C   0  0  0  0  0  0  0  0  0  0  0  0
    6.6289  -14.5295   24.9946 C   0  0  0  0  0  0  0  0  0  0  0  0
    8.0074  -14.7242   24.4064 C   0  0  2  0  0  0  0  0  0  0  0  0
    7.8673  -14.7144   22.9539 N   0  0  0  0  0  0  0  0  0  0  0  0
    8.5047  -16.0454   24.8789 C   0  0  0  0  0  0  0  0  0  0  0  0
    7.6491  -16.9608   25.0760 O   0  0  0  0  0  0  0  0  0  0  0  0
   15.4827  -19.9805   22.3392 N   0  0  0  0  0  0  0  0  0  0  0  0
   14.1411  -19.7756   21.8572 C   0  0  0  0  0  0  0  0  0  0  0  0
   13.8809  -19.8098   20.5954 N   0  0  0  0  0  0  0  0  0  0  0  0
   13.0816  -19.5265   22.7683 N   0  0  0  0  0  0  0  0  0  0  0  0
   13.3301  -19.5776   24.1912 C   0  0  0  0  0  0  0  0  0  0  0  0
   12.0648  -19.3729   24.9568 C   0  0  0  0  0  0  0  0  0  0  0  0
   11.5011  -18.0088   24.7097 C   0  0  0  0  0  0  0  0  0  0  0  0
   10.2426  -17.7085   25.4445 C   0  0  2  0  0  0  0  0  0  0  0  0
    9.8543  -16.3266   25.1136 N   0  0  0  0  0  0  0  0  0  0  0  0
   10.3517  -17.8500   26.9109 C   0  0  0  0  0  0  0  0  0  0  0  0
   10.4660  -19.0576   27.5737 O   0  0  0  0  0  0  0  0  0  0  0  0
   10.3414  -16.8112   27.6200 O   0  0  0  0  0  0  0  0  0  0  0  0
  1  5  1  0
  2  3  1  0
  2  1  1  0
  3  4  1  0
  4  5  1  0
  5  6  1  1
  6  7  2  0
  9  8  1  0
 10  9  1  0
 11 10  1  0
 12 11  1  1
 12 14  1  0
 13  6  1  0
 13 12  1  0
 14 24  1  0
 14 15  2  0
 16 17  1  0
 17 19  1  0
 18 17  2  0
 19 20  1  0
 20 21  1  0
 21 22  1  0
 23 22  1  6
 23 25  1  0
 24 23  1  0
 25 27  2  0
 25 26  1  0
M  END
$$$$
