PMR.pdb
     RDKit          3D

 27 27  0  0  1  0  0  0  0  0999 V2000
    6.9741  -14.6795   19.9031 N   0  0  0  0  0  0  0  0  0  0  0  0
    6.8121  -14.3571   18.4968 C   0  0  0  0  0  0  0  0  0  0  0  0
    7.3793  -12.9602   18.3538 C   0  0  0  0  0  0  0  0  0  0  0  0
    8.0343  -12.6566   19.7103 C   0  0  0  0  0  0  0  0  0  0  0  0
    8.2350  -14.0597   20.2123 C   0  0  1  0  0  0  0  0  0  0  0  0
    8.6234  -14.1718   21.6164 C   0  0  0  0  0  0  0  0  0  0  0  0
    9.8185  -14.0510   21.9388 O   0  0  0  0  0  0  0  0  0  0  0  0
    7.4034  -12.0246   28.4051 C   0  0  0  0  0  0  0  0  0  0  0  0
    7.1820  -12.1865   26.6035 S   0  0  0  0  0  0  0  0  0  0  0  0
    6.8973  -13.9292   26.2435 C   0  0  0  0  0  0  0  0  0  0  0  0
    6.6344  -14.0542   24.7560 C   0  0  0  0  0  0  0  0  0  0  0  0
    7.9399  -14.3162   24.0409 C   0  0  2  0  0  0  0  0  0  0  0  0
    7.6436  -14.4188   22.6157 N   0  0  0  0  0  0  0  0  0  0  0  0
    8.4760  -15.6035   24.5617 C   0  0  0  0  0  0  0  0  0  0  0  0
    7.6965  -16.6041   24.5752 O   0  0  0  0  0  0  0  0  0  0  0  0
   13.9793  -20.2610   23.4588 N   0  0  0  0  0  0  0  0  0  0  0  0
   13.2874  -20.1653   22.1994 C   0  0  0  0  0  0  0  0  0  0  0  0
   13.3278  -21.1331   21.3492 N   0  0  0  0  0  0  0  0  0  0  0  0
   12.5518  -18.9965   21.8719 N   0  0  0  0  0  0  0  0  0  0  0  0
   12.4217  -17.9333   22.8424 C   0  0  0  0  0  0  0  0  0  0  0  0
   11.7444  -18.4253   24.0785 C   0  0  0  0  0  0  0  0  0  0  0  0
   11.5907  -17.3255   25.0818 C   0  0  0  0  0  0  0  0  0  0  0  0
   10.1954  -17.0852   25.5390 C   0  0  2  0  0  0  0  0  0  0  0  0
    9.7831  -15.7650   25.0317 N   0  0  0  0  0  0  0  0  0  0  0  0
   10.0262  -17.1220   27.0060 C   0  0  0  0  0  0  0  0  0  0  0  0
    9.8880  -18.2797   27.7485 O   0  0  0  0  0  0  0  0  0  0  0  0
   10.0043  -16.0350   27.6386 O   0  0  0  0  0  0  0  0  0  0  0  0
  1  5  1  0
  2  3  1  0
  2  1  1  0
  3  4  1  0
  4  5  1  0
  5  6  1  1
  6  7  2  0
  9  8  1  0
 10  9  1  0
 11 10  1  0
 12 11  1  1
 12 14  1  0
 13  6  1  0
 13 12  1  0
 14 24  1  0
 14 15  2  0
 16 17  1  0
 17 19  1  0
 18 17  2  0
 19 20  1  0
 20 21  1  0
 21 22  1  0
 23 22  1  1
 23 25  1  0
 24 23  1  0
 25 27  2  0
 25 26  1  0
M  END
$$$$
