PMR.pdb
     RDKit          3D

 27 27  0  0  1  0  0  0  0  0999 V2000
    7.3167  -15.5073   20.7135 N   0  0  0  0  0  0  0  0  0  0  0  0
    6.9732  -15.2522   19.3262 C   0  0  0  0  0  0  0  0  0  0  0  0
    7.1014  -13.7516   19.1670 C   0  0  0  0  0  0  0  0  0  0  0  0
    7.7316  -13.2652   20.4815 C   0  0  0  0  0  0  0  0  0  0  0  0
    8.3628  -14.5478   20.9476 C   0  0  1  0  0  0  0  0  0  0  0  0
    8.8615  -14.5361   22.3210 C   0  0  0  0  0  0  0  0  0  0  0  0
   10.0844  -14.6101   22.5352 O   0  0  0  0  0  0  0  0  0  0  0  0
    6.9779  -11.4368   27.8428 C   0  0  0  0  0  0  0  0  0  0  0  0
    6.1671  -11.2386   26.2228 S   0  0  0  0  0  0  0  0  0  0  0  0
    7.1292  -12.1669   25.0143 C   0  0  0  0  0  0  0  0  0  0  0  0
    7.2986  -13.5761   25.5462 C   0  0  0  0  0  0  0  0  0  0  0  0
    8.4115  -14.2628   24.7885 C   0  0  2  0  0  0  0  0  0  0  0  0
    7.9574  -14.4416   23.4133 N   0  0  0  0  0  0  0  0  0  0  0  0
    8.6416  -15.5799   25.4430 C   0  0  0  0  0  0  0  0  0  0  0  0
    7.6557  -16.1317   26.0194 O   0  0  0  0  0  0  0  0  0  0  0  0
    9.9729  -22.0275   24.0444 N   0  0  0  0  0  0  0  0  0  0  0  0
    8.5647  -22.2515   23.8424 C   0  0  0  0  0  0  0  0  0  0  0  0
    7.9838  -23.2893   24.3389 N   0  0  0  0  0  0  0  0  0  0  0  0
    7.7931  -21.3314   23.0856 N   0  0  0  0  0  0  0  0  0  0  0  0
    7.8223  -19.9250   23.4174 C   0  0  0  0  0  0  0  0  0  0  0  0
    9.2261  -19.4569   23.6146 C   0  0  0  0  0  0  0  0  0  0  0  0
    9.2638  -18.0040   23.9719 C   0  0  0  0  0  0  0  0  0  0  0  0
    9.9060  -17.6967   25.2783 C   0  0  2  0  0  0  0  0  0  0  0  0
    9.8774  -16.2343   25.4540 N   0  0  0  0  0  0  0  0  0  0  0  0
   11.2978  -18.1779   25.3946 C   0  0  0  0  0  0  0  0  0  0  0  0
   11.6748  -19.3260   26.0658 O   0  0  0  0  0  0  0  0  0  0  0  0
   12.2148  -17.5097   24.8518 O   0  0  0  0  0  0  0  0  0  0  0  0
  1  5  1  0
  2  3  1  0
  2  1  1  0
  3  4  1  0
  4  5  1  0
  5  6  1  1
  6  7  2  0
  9  8  1  0
 10  9  1  0
 11 10  1  0
 12 11  1  1
 12 14  1  0
 13  6  1  0
 13 12  1  0
 14 24  1  0
 14 15  2  0
 16 17  1  0
 17 19  1  0
 18 17  2  0
 19 20  1  0
 20 21  1  0
 21 22  1  0
 23 22  1  6
 23 25  1  0
 24 23  1  0
 25 27  2  0
 25 26  1  0
M  END
$$$$
