PMR.pdb
     RDKit          3D

 27 27  0  0  1  0  0  0  0  0999 V2000
    6.3617  -20.4045   24.2941 N   0  0  0  0  0  0  0  0  0  0  0  0
    5.5473  -21.6056   24.2512 C   0  0  0  0  0  0  0  0  0  0  0  0
    4.1207  -21.1018   24.1838 C   0  0  0  0  0  0  0  0  0  0  0  0
    4.2448  -19.5836   23.9812 C   0  0  0  0  0  0  0  0  0  0  0  0
    5.6389  -19.5175   23.4220 C   0  0  1  0  0  0  0  0  0  0  0  0
    6.2128  -18.1770   23.3301 C   0  0  0  0  0  0  0  0  0  0  0  0
    6.1089  -17.5312   22.2722 O   0  0  0  0  0  0  0  0  0  0  0  0
    7.8649  -11.7263   27.2656 C   0  0  0  0  0  0  0  0  0  0  0  0
    7.3008  -13.4586   27.3101 S   0  0  0  0  0  0  0  0  0  0  0  0
    7.8082  -14.2372   25.7660 C   0  0  0  0  0  0  0  0  0  0  0  0
    7.2947  -15.6632   25.7800 C   0  0  0  0  0  0  0  0  0  0  0  0
    7.4606  -16.2646   24.4034 C   0  0  2  0  0  0  0  0  0  0  0  0
    6.8897  -17.6070   24.4420 N   0  0  0  0  0  0  0  0  0  0  0  0
    8.9212  -16.3212   24.1212 C   0  0  0  0  0  0  0  0  0  0  0  0
    9.6095  -17.1826   24.7482 O   0  0  0  0  0  0  0  0  0  0  0  0
    7.9025  -15.0296   18.6030 N   0  0  0  0  0  0  0  0  0  0  0  0
    8.7831  -13.9539   18.2270 C   0  0  0  0  0  0  0  0  0  0  0  0
    8.3112  -12.8076   17.8743 N   0  0  0  0  0  0  0  0  0  0  0  0
   10.1898  -14.1425   18.2339 N   0  0  0  0  0  0  0  0  0  0  0  0
   10.9325  -13.9683   19.4615 C   0  0  0  0  0  0  0  0  0  0  0  0
   10.4953  -14.9588   20.4894 C   0  0  0  0  0  0  0  0  0  0  0  0
   11.3324  -14.8563   21.7258 C   0  0  0  0  0  0  0  0  0  0  0  0
   10.9533  -15.7925   22.8183 C   0  0  2  0  0  0  0  0  0  0  0  0
    9.5671  -15.4817   23.2083 N   0  0  0  0  0  0  0  0  0  0  0  0
   11.8264  -15.7173   24.0075 C   0  0  0  0  0  0  0  0  0  0  0  0
   13.1114  -16.2230   24.0675 O   0  0  0  0  0  0  0  0  0  0  0  0
   11.3866  -15.1583   25.0449 O   0  0  0  0  0  0  0  0  0  0  0  0
  1  5  1  0
  2  3  1  0
  2  1  1  0
  3  4  1  0
  4  5  1  0
  5  6  1  1
  6  7  2  0
  9  8  1  0
 10  9  1  0
 11 10  1  0
 12 11  1  1
 12 14  1  0
 13  6  1  0
 13 12  1  0
 14 24  1  0
 14 15  2  0
 16 17  1  0
 17 19  1  0
 18 17  2  0
 19 20  1  0
 20 21  1  0
 21 22  1  0
 23 22  1  6
 23 25  1  0
 24 23  1  0
 25 27  2  0
 25 26  1  0
M  END
$$$$
