PMR.pdb
     RDKit          3D

 27 27  0  0  1  0  0  0  0  0999 V2000
    6.8145  -15.1358   20.1820 N   0  0  0  0  0  0  0  0  0  0  0  0
    6.4404  -14.9902   18.7868 C   0  0  0  0  0  0  0  0  0  0  0  0
    7.0751  -13.6858   18.3516 C   0  0  0  0  0  0  0  0  0  0  0  0
    7.9709  -13.2680   19.5282 C   0  0  0  0  0  0  0  0  0  0  0  0
    8.1513  -14.6041   20.1938 C   0  0  1  0  0  0  0  0  0  0  0  0
    8.7628  -14.5643   21.5202 C   0  0  0  0  0  0  0  0  0  0  0  0
   10.0015  -14.5411   21.6295 O   0  0  0  0  0  0  0  0  0  0  0  0
    7.7187  -10.5554   27.4305 C   0  0  0  0  0  0  0  0  0  0  0  0
    6.8205  -12.0670   26.9516 S   0  0  0  0  0  0  0  0  0  0  0  0
    8.0003  -13.1738   26.1573 C   0  0  0  0  0  0  0  0  0  0  0  0
    7.4456  -13.5347   24.7937 C   0  0  0  0  0  0  0  0  0  0  0  0
    8.4960  -14.2921   24.0144 C   0  0  2  0  0  0  0  0  0  0  0  0
    7.9505  -14.5527   22.6862 N   0  0  0  0  0  0  0  0  0  0  0  0
    8.7478  -15.5672   24.7401 C   0  0  0  0  0  0  0  0  0  0  0  0
    7.7911  -16.3957   24.8252 O   0  0  0  0  0  0  0  0  0  0  0  0
   15.3840  -15.4329   23.7906 N   0  0  0  0  0  0  0  0  0  0  0  0
   14.8515  -15.9900   22.5741 C   0  0  0  0  0  0  0  0  0  0  0  0
   15.1921  -15.5140   21.4258 N   0  0  0  0  0  0  0  0  0  0  0  0
   13.9352  -17.0730   22.6217 N   0  0  0  0  0  0  0  0  0  0  0  0
   13.4776  -17.5719   23.8988 C   0  0  0  0  0  0  0  0  0  0  0  0
   12.0292  -17.2691   24.0968 C   0  0  0  0  0  0  0  0  0  0  0  0
   11.5814  -17.6565   25.4713 C   0  0  0  0  0  0  0  0  0  0  0  0
   10.1834  -17.2730   25.8060 C   0  0  2  0  0  0  0  0  0  0  0  0
    9.9740  -15.8958   25.3268 N   0  0  0  0  0  0  0  0  0  0  0  0
    9.8665  -17.3449   27.2470 C   0  0  0  0  0  0  0  0  0  0  0  0
    9.5129  -16.2584   28.0251 O   0  0  0  0  0  0  0  0  0  0  0  0
    9.9170  -18.4628   27.8212 O   0  0  0  0  0  0  0  0  0  0  0  0
  1  5  1  0
  2  3  1  0
  2  1  1  0
  3  4  1  0
  4  5  1  0
  5  6  1  1
  6  7  2  0
  9  8  1  0
 10  9  1  0
 11 10  1  0
 12 11  1  1
 12 14  1  0
 13  6  1  0
 13 12  1  0
 14 24  1  0
 14 15  2  0
 16 17  1  0
 17 19  1  0
 18 17  2  0
 19 20  1  0
 20 21  1  0
 21 22  1  0
 23 22  1  1
 23 25  1  0
 24 23  1  0
 25 27  2  0
 25 26  1  0
M  END
$$$$
