PMR.pdb
     RDKit          3D

 27 27  0  0  1  0  0  0  0  0999 V2000
    6.8623  -14.7663   19.9924 N   0  0  0  0  0  0  0  0  0  0  0  0
    6.5931  -14.6175   18.5736 C   0  0  0  0  0  0  0  0  0  0  0  0
    7.3807  -13.3925   18.1581 C   0  0  0  0  0  0  0  0  0  0  0  0
    8.2380  -13.0373   19.3831 C   0  0  0  0  0  0  0  0  0  0  0  0
    8.2420  -14.3686   20.0819 C   0  0  1  0  0  0  0  0  0  0  0  0
    8.7698  -14.3579   21.4443 C   0  0  0  0  0  0  0  0  0  0  0  0
    9.9920  -14.4875   21.6349 O   0  0  0  0  0  0  0  0  0  0  0  0
    5.4860  -12.0564   27.4110 C   0  0  0  0  0  0  0  0  0  0  0  0
    7.0533  -11.4373   26.7172 S   0  0  0  0  0  0  0  0  0  0  0  0
    7.9429  -12.8484   26.0350 C   0  0  0  0  0  0  0  0  0  0  0  0
    7.4879  -13.0287   24.6005 C   0  0  0  0  0  0  0  0  0  0  0  0
    8.3859  -14.0340   23.9170 C   0  0  2  0  0  0  0  0  0  0  0  0
    7.8947  -14.2012   22.5530 N   0  0  0  0  0  0  0  0  0  0  0  0
    8.2764  -15.3096   24.6766 C   0  0  0  0  0  0  0  0  0  0  0  0
    7.1328  -15.8528   24.7543 O   0  0  0  0  0  0  0  0  0  0  0  0
   12.1935  -20.5770   20.8477 N   0  0  0  0  0  0  0  0  0  0  0  0
   12.7962  -19.3202   21.2101 C   0  0  0  0  0  0  0  0  0  0  0  0
   13.7950  -18.8512   20.5441 N   0  0  0  0  0  0  0  0  0  0  0  0
   12.3006  -18.5787   22.3142 N   0  0  0  0  0  0  0  0  0  0  0  0
   11.4034  -19.2067   23.2574 C   0  0  0  0  0  0  0  0  0  0  0  0
   11.0899  -18.2811   24.3861 C   0  0  0  0  0  0  0  0  0  0  0  0
    9.6152  -18.2125   24.6320 C   0  0  0  0  0  0  0  0  0  0  0  0
    9.2082  -17.3274   25.7566 C   0  0  2  0  0  0  0  0  0  0  0  0
    9.3597  -15.9343   25.3023 N   0  0  0  0  0  0  0  0  0  0  0  0
    9.9885  -17.5276   26.9948 C   0  0  0  0  0  0  0  0  0  0  0  0
    9.9320  -18.6641   27.7797 O   0  0  0  0  0  0  0  0  0  0  0  0
   10.7619  -16.6117   27.3756 O   0  0  0  0  0  0  0  0  0  0  0  0
  1  5  1  0
  2  3  1  0
  2  1  1  0
  3  4  1  0
  4  5  1  0
  5  6  1  1
  6  7  2  0
  9  8  1  0
 10  9  1  0
 11 10  1  0
 12 11  1  1
 12 14  1  0
 13  6  1  0
 13 12  1  0
 14 24  1  0
 14 15  2  0
 16 17  1  0
 17 19  1  0
 18 17  2  0
 19 20  1  0
 20 21  1  0
 21 22  1  0
 23 22  1  6
 23 25  1  0
 24 23  1  0
 25 27  2  0
 25 26  1  0
M  END
$$$$
