PMR.pdb
     RDKit          3D

 27 27  0  0  1  0  0  0  0  0999 V2000
    7.1733  -14.9348   19.6441 N   0  0  0  0  0  0  0  0  0  0  0  0
    6.9136  -14.5879   18.2584 C   0  0  0  0  0  0  0  0  0  0  0  0
    7.1748  -13.0983   18.1786 C   0  0  0  0  0  0  0  0  0  0  0  0
    7.7856  -12.7286   19.5393 C   0  0  0  0  0  0  0  0  0  0  0  0
    8.2854  -14.0808   19.9664 C   0  0  1  0  0  0  0  0  0  0  0  0
    8.7229  -14.1751   21.3573 C   0  0  0  0  0  0  0  0  0  0  0  0
    9.9376  -14.1966   21.6232 O   0  0  0  0  0  0  0  0  0  0  0  0
    6.9110  -10.8869   27.2280 C   0  0  0  0  0  0  0  0  0  0  0  0
    6.0829  -12.4635   26.8411 S   0  0  0  0  0  0  0  0  0  0  0  0
    7.2937  -13.5344   26.0444 C   0  0  0  0  0  0  0  0  0  0  0  0
    6.9737  -13.5678   24.5633 C   0  0  0  0  0  0  0  0  0  0  0  0
    8.1485  -14.1535   23.8141 C   0  0  2  0  0  0  0  0  0  0  0  0
    7.7684  -14.2430   22.4080 N   0  0  0  0  0  0  0  0  0  0  0  0
    8.3996  -15.5076   24.3793 C   0  0  0  0  0  0  0  0  0  0  0  0
    7.4641  -16.3608   24.3030 O   0  0  0  0  0  0  0  0  0  0  0  0
   15.0525  -20.2373   22.2298 N   0  0  0  0  0  0  0  0  0  0  0  0
   14.2168  -21.1753   22.9339 C   0  0  0  0  0  0  0  0  0  0  0  0
   14.4559  -22.4407   22.8814 N   0  0  0  0  0  0  0  0  0  0  0  0
   13.1092  -20.7188   23.6951 N   0  0  0  0  0  0  0  0  0  0  0  0
   12.7997  -19.3076   23.7390 C   0  0  0  0  0  0  0  0  0  0  0  0
   11.5873  -19.0576   24.5734 C   0  0  0  0  0  0  0  0  0  0  0  0
   11.0864  -17.6593   24.3894 C   0  0  0  0  0  0  0  0  0  0  0  0
    9.8766  -17.3175   25.1852 C   0  0  2  0  0  0  0  0  0  0  0  0
    9.6032  -15.8840   24.9837 N   0  0  0  0  0  0  0  0  0  0  0  0
   10.0071  -17.5939   26.6304 C   0  0  0  0  0  0  0  0  0  0  0  0
   10.0409  -18.8598   27.1846 O   0  0  0  0  0  0  0  0  0  0  0  0
   10.0945  -16.6229   27.4252 O   0  0  0  0  0  0  0  0  0  0  0  0
  1  5  1  0
  2  3  1  0
  2  1  1  0
  3  4  1  0
  4  5  1  0
  5  6  1  1
  6  7  2  0
  9  8  1  0
 10  9  1  0
 11 10  1  0
 12 11  1  1
 12 14  1  0
 13  6  1  0
 13 12  1  0
 14 24  1  0
 14 15  2  0
 16 17  1  0
 17 19  1  0
 18 17  2  0
 19 20  1  0
 20 21  1  0
 21 22  1  0
 23 22  1  6
 23 25  1  0
 24 23  1  0
 25 27  2  0
 25 26  1  0
M  END
$$$$
