PMR.pdb
     RDKit          3D

 27 27  0  0  1  0  0  0  0  0999 V2000
    7.0539  -14.7422   20.5149 N   0  0  0  0  0  0  0  0  0  0  0  0
    6.7201  -14.4442   19.1338 C   0  0  0  0  0  0  0  0  0  0  0  0
    7.2776  -13.0568   18.8932 C   0  0  0  0  0  0  0  0  0  0  0  0
    8.1001  -12.7356   20.1509 C   0  0  0  0  0  0  0  0  0  0  0  0
    8.3493  -14.1313   20.6517 C   0  0  1  0  0  0  0  0  0  0  0  0
    8.9093  -14.2218   21.9982 C   0  0  0  0  0  0  0  0  0  0  0  0
   10.1325  -14.0766   22.1700 O   0  0  0  0  0  0  0  0  0  0  0  0
    7.0193  -11.6456   27.8473 C   0  0  0  0  0  0  0  0  0  0  0  0
    6.0505  -11.8485   26.3171 S   0  0  0  0  0  0  0  0  0  0  0  0
    7.1614  -12.4843   25.0486 C   0  0  0  0  0  0  0  0  0  0  0  0
    7.4239  -13.9448   25.3576 C   0  0  0  0  0  0  0  0  0  0  0  0
    8.5548  -14.4416   24.4866 C   0  0  2  0  0  0  0  0  0  0  0  0
    8.0646  -14.4755   23.1125 N   0  0  0  0  0  0  0  0  0  0  0  0
    8.9025  -15.8109   24.9559 C   0  0  0  0  0  0  0  0  0  0  0  0
    7.9888  -16.6905   24.9357 O   0  0  0  0  0  0  0  0  0  0  0  0
   12.1077  -21.4915   22.4343 N   0  0  0  0  0  0  0  0  0  0  0  0
   11.9960  -20.3403   21.5762 C   0  0  0  0  0  0  0  0  0  0  0  0
   11.5201  -20.4502   20.3835 N   0  0  0  0  0  0  0  0  0  0  0  0
   12.4153  -19.0629   22.0310 N   0  0  0  0  0  0  0  0  0  0  0  0
   12.9166  -18.9082   23.3778 C   0  0  0  0  0  0  0  0  0  0  0  0
   11.8200  -19.0892   24.3746 C   0  0  0  0  0  0  0  0  0  0  0  0
   11.7743  -17.9449   25.3380 C   0  0  0  0  0  0  0  0  0  0  0  0
   10.4115  -17.5737   25.8056 C   0  0  2  0  0  0  0  0  0  0  0  0
   10.1733  -16.1740   25.4128 N   0  0  0  0  0  0  0  0  0  0  0  0
   10.2141  -17.7150   27.2627 C   0  0  0  0  0  0  0  0  0  0  0  0
   10.1697  -18.9235   27.9323 O   0  0  0  0  0  0  0  0  0  0  0  0
   10.0754  -16.6752   27.9567 O   0  0  0  0  0  0  0  0  0  0  0  0
  1  5  1  0
  2  3  1  0
  2  1  1  0
  3  4  1  0
  4  5  1  0
  5  6  1  1
  6  7  2  0
  9  8  1  0
 10  9  1  0
 11 10  1  0
 12 11  1  1
 12 14  1  0
 13  6  1  0
 13 12  1  0
 14 24  1  0
 14 15  2  0
 16 17  1  0
 17 19  1  0
 18 17  2  0
 19 20  1  0
 20 21  1  0
 21 22  1  0
 23 22  1  1
 23 25  1  0
 24 23  1  0
 25 27  2  0
 25 26  1  0
M  END
$$$$
