PMR.pdb
     RDKit          3D

 27 27  0  0  1  0  0  0  0  0999 V2000
    7.2627  -15.0956   20.2959 N   0  0  0  0  0  0  0  0  0  0  0  0
    7.1120  -14.8319   18.8763 C   0  0  0  0  0  0  0  0  0  0  0  0
    7.5854  -13.4045   18.6969 C   0  0  0  0  0  0  0  0  0  0  0  0
    8.1863  -13.0117   20.0556 C   0  0  0  0  0  0  0  0  0  0  0  0
    8.4708  -14.3801   20.6099 C   0  0  1  0  0  0  0  0  0  0  0  0
    8.8330  -14.4186   22.0249 C   0  0  0  0  0  0  0  0  0  0  0  0
    9.9991  -14.1604   22.3717 O   0  0  0  0  0  0  0  0  0  0  0  0
    6.3887  -11.3922   27.4191 C   0  0  0  0  0  0  0  0  0  0  0  0
    5.4019  -12.5372   26.4013 S   0  0  0  0  0  0  0  0  0  0  0  0
    6.3973  -12.9897   24.9688 C   0  0  0  0  0  0  0  0  0  0  0  0
    6.8136  -14.4374   25.1372 C   0  0  0  0  0  0  0  0  0  0  0  0
    8.1348  -14.6592   24.4375 C   0  0  2  0  0  0  0  0  0  0  0  0
    7.8609  -14.7502   23.0070 N   0  0  0  0  0  0  0  0  0  0  0  0
    8.6939  -15.9404   24.9495 C   0  0  0  0  0  0  0  0  0  0  0  0
    7.9756  -16.9805   24.8448 O   0  0  0  0  0  0  0  0  0  0  0  0
   15.2626  -17.3410   21.8232 N   0  0  0  0  0  0  0  0  0  0  0  0
   14.3239  -16.3275   22.2303 C   0  0  0  0  0  0  0  0  0  0  0  0
   14.4960  -15.0953   21.8937 N   0  0  0  0  0  0  0  0  0  0  0  0
   13.1931  -16.6710   23.0164 N   0  0  0  0  0  0  0  0  0  0  0  0
   12.7742  -18.0513   23.1087 C   0  0  0  0  0  0  0  0  0  0  0  0
   11.4973  -18.1666   23.8736 C   0  0  0  0  0  0  0  0  0  0  0  0
   11.6718  -17.7012   25.2853 C   0  0  0  0  0  0  0  0  0  0  0  0
   10.4070  -17.3789   25.9995 C   0  0  2  0  0  0  0  0  0  0  0  0
    9.9592  -16.0549   25.5338 N   0  0  0  0  0  0  0  0  0  0  0  0
   10.5318  -17.3651   27.4714 C   0  0  0  0  0  0  0  0  0  0  0  0
   10.8100  -18.4777   28.2431 O   0  0  0  0  0  0  0  0  0  0  0  0
   10.3775  -16.2753   28.0801 O   0  0  0  0  0  0  0  0  0  0  0  0
  1  5  1  0
  2  3  1  0
  2  1  1  0
  3  4  1  0
  4  5  1  0
  5  6  1  1
  6  7  2  0
  9  8  1  0
 10  9  1  0
 11 10  1  0
 12 11  1  1
 12 14  1  0
 13  6  1  0
 13 12  1  0
 14 24  1  0
 14 15  2  0
 16 17  1  0
 17 19  1  0
 18 17  2  0
 19 20  1  0
 20 21  1  0
 21 22  1  0
 23 22  1  6
 23 25  1  0
 24 23  1  0
 25 27  2  0
 25 26  1  0
M  END
$$$$
