HWW.pdb
     RDKit          3D

 39 43  0  0  1  0  0  0  0  0999 V2000
   28.0026  -21.3292  -15.3412 N   0  0  0  0  0  0  0  0  0  0  0  0
   27.1592  -20.3688  -14.6603 C   0  0  1  0  0  0  0  0  0  0  0  0
   26.4004  -19.6426  -15.7484 C   0  0  0  0  0  0  0  0  0  0  0  0
   27.3531  -18.8212  -16.5349 C   0  0  0  0  0  0  0  0  0  0  0  0
   27.9400  -17.6194  -16.1872 C   0  0  0  0  0  0  0  0  0  0  0  0
   28.7393  -17.1907  -17.1791 N   0  0  0  0  0  0  0  0  0  0  0  0
   28.6627  -18.1114  -18.1512 C   0  0  0  0  0  0  0  0  0  0  0  0
   27.8192  -19.1118  -17.7685 N   0  0  0  0  0  0  0  0  0  0  0  0
   26.2740  -20.9969  -13.6600 C   0  0  0  0  0  0  0  0  0  0  0  0
   25.6603  -22.0477  -13.9787 O   0  0  0  0  0  0  0  0  0  0  0  0
   26.0658  -20.4972  -12.3576 N   0  0  0  0  0  0  0  0  0  0  0  0
   25.1671  -21.0699  -11.3711 C   0  0  1  0  0  0  0  0  0  0  0  0
   25.4760  -20.6735   -9.9686 C   0  0  0  0  0  0  0  0  0  0  0  0
   26.8604  -20.9560   -9.5325 C   0  0  0  0  0  0  0  0  0  0  0  0
   27.8784  -21.5745  -10.1991 C   0  0  0  0  0  0  0  0  0  0  0  0
   28.9457  -21.6099   -9.4036 N   0  0  0  0  0  0  0  0  0  0  0  0
   28.6832  -21.0368   -8.2215 C   0  0  0  0  0  0  0  0  0  0  0  0
   29.4463  -20.8326   -7.0865 C   0  0  0  0  0  0  0  0  0  0  0  0
   28.9095  -20.2018   -5.9860 C   0  0  0  0  0  0  0  0  0  0  0  0
   27.6054  -19.7888   -6.0575 C   0  0  0  0  0  0  0  0  0  0  0  0
   26.8302  -19.9880   -7.1891 C   0  0  0  0  0  0  0  0  0  0  0  0
   27.3805  -20.6181   -8.2761 C   0  0  0  0  0  0  0  0  0  0  0  0
   23.8123  -20.4937  -11.7398 C   0  0  0  0  0  0  0  0  0  0  0  0
   23.6927  -19.2300  -11.9123 O   0  0  0  0  0  0  0  0  0  0  0  0
   22.6674  -21.2862  -11.9063 N   0  0  0  0  0  0  0  0  0  0  0  0
   21.3902  -20.6686  -12.2449 C   0  0  1  0  0  0  0  0  0  0  0  0
   21.5174  -19.7848  -13.4329 C   0  0  0  0  0  0  0  0  0  0  0  0
   21.8154  -20.5268  -14.6577 C   0  0  0  0  0  0  0  0  0  0  0  0
   21.3128  -21.8025  -14.9536 C   0  0  0  0  0  0  0  0  0  0  0  0
   21.7964  -22.2380  -16.1196 N   0  0  0  0  0  0  0  0  0  0  0  0
   22.6160  -21.2780  -16.6177 C   0  0  0  0  0  0  0  0  0  0  0  0
   23.3254  -21.2593  -17.7939 C   0  0  0  0  0  0  0  0  0  0  0  0
   24.0846  -20.1453  -18.1027 C   0  0  0  0  0  0  0  0  0  0  0  0
   24.1033  -19.0947  -17.2206 C   0  0  0  0  0  0  0  0  0  0  0  0
   23.3984  -19.1121  -16.0488 C   0  0  0  0  0  0  0  0  0  0  0  0
   22.6289  -20.2295  -15.7246 C   0  0  0  0  0  0  0  0  0  0  0  0
   20.3209  -21.6504  -12.2834 C   0  0  0  0  0  0  0  0  0  0  0  0
   18.9900  -21.2233  -12.4078 O   0  0  0  0  0  0  0  0  0  0  0  0
   20.5103  -22.8782  -12.2106 O   0  0  0  0  0  0  0  0  0  0  0  0
  2  9  1  0
  2  1  1  6
  2  3  1  0
  3  4  1  0
  4  8  1  0
  4  5  2  0
  5  6  1  0
  7  6  1  0
  8  7  2  0
  9 10  2  0
 11 12  1  0
 11  9  1  0
 12 23  1  0
 12 13  1  1
 14 13  1  0
 14 22  1  0
 15 16  1  0
 15 14  2  0
 16 17  1  0
 17 18  2  0
 17 22  1  0
 18 19  1  0
 19 20  2  0
 21 20  1  0
 22 21  2  0
 23 25  1  0
 23 24  2  0
 25 26  1  0
 26 37  1  0
 26 27  1  6
 27 28  1  0
 28 36  1  0
 29 30  1  0
 29 28  2  0
 30 31  1  0
 31 36  2  0
 31 32  1  0
 32 33  2  0
 33 34  1  0
 35 34  2  0
 36 35  1  0
 37 38  1  0
 39 37  2  0
M  END
$$$$
