HWW.pdb
     RDKit          3D

 39 43  0  0  1  0  0  0  0  0999 V2000
   28.8130  -21.1141  -13.3702 N   0  0  0  0  0  0  0  0  0  0  0  0
   27.9225  -20.2957  -12.5738 C   0  0  1  0  0  0  0  0  0  0  0  0
   27.0165  -19.5929  -13.5600 C   0  0  0  0  0  0  0  0  0  0  0  0
   27.8474  -18.7916  -14.4919 C   0  0  0  0  0  0  0  0  0  0  0  0
   28.3447  -19.1569  -15.7284 C   0  0  0  0  0  0  0  0  0  0  0  0
   29.0602  -18.1486  -16.2555 N   0  0  0  0  0  0  0  0  0  0  0  0
   29.0197  -17.1488  -15.3626 C   0  0  0  0  0  0  0  0  0  0  0  0
   28.2815  -17.5303  -14.2817 N   0  0  0  0  0  0  0  0  0  0  0  0
   27.1811  -21.0770  -11.5645 C   0  0  0  0  0  0  0  0  0  0  0  0
   26.9642  -22.2953  -11.7907 O   0  0  0  0  0  0  0  0  0  0  0  0
   26.6941  -20.5487  -10.3508 N   0  0  0  0  0  0  0  0  0  0  0  0
   25.5429  -21.0468   -9.6191 C   0  0  1  0  0  0  0  0  0  0  0  0
   25.6161  -20.8200   -8.1484 C   0  0  0  0  0  0  0  0  0  0  0  0
   26.7939  -20.0491   -7.6955 C   0  0  0  0  0  0  0  0  0  0  0  0
   27.4461  -19.0131   -8.2992 C   0  0  0  0  0  0  0  0  0  0  0  0
   28.4594  -18.6391   -7.5204 N   0  0  0  0  0  0  0  0  0  0  0  0
   28.5146  -19.3879   -6.4110 C   0  0  0  0  0  0  0  0  0  0  0  0
   29.3658  -19.3911   -5.3212 C   0  0  0  0  0  0  0  0  0  0  0  0
   29.1889  -20.2951   -4.2971 C   0  0  0  0  0  0  0  0  0  0  0  0
   28.1491  -21.1811   -4.3978 C   0  0  0  0  0  0  0  0  0  0  0  0
   27.2895  -21.1883   -5.4849 C   0  0  0  0  0  0  0  0  0  0  0  0
   27.4802  -20.2812   -6.4961 C   0  0  0  0  0  0  0  0  0  0  0  0
   24.3863  -20.2317  -10.1680 C   0  0  0  0  0  0  0  0  0  0  0  0
   24.5354  -18.9724  -10.3496 O   0  0  0  0  0  0  0  0  0  0  0  0
   23.1442  -20.7954  -10.4938 N   0  0  0  0  0  0  0  0  0  0  0  0
   22.1016  -19.9742  -11.0987 C   0  0  1  0  0  0  0  0  0  0  0  0
   22.5918  -19.3022  -12.3302 C   0  0  0  0  0  0  0  0  0  0  0  0
   22.9280  -20.2493  -13.3930 C   0  0  0  0  0  0  0  0  0  0  0  0
   22.5743  -21.6067  -13.3860 C   0  0  0  0  0  0  0  0  0  0  0  0
   23.0593  -22.2230  -14.4667 N   0  0  0  0  0  0  0  0  0  0  0  0
   23.7335  -21.3053  -15.2048 C   0  0  0  0  0  0  0  0  0  0  0  0
   24.3862  -21.4578  -16.4039 C   0  0  0  0  0  0  0  0  0  0  0  0
   24.9893  -20.3572  -16.9849 C   0  0  0  0  0  0  0  0  0  0  0  0
   24.9151  -19.1479  -16.3413 C   0  0  0  0  0  0  0  0  0  0  0  0
   24.2665  -18.9947  -15.1470 C   0  0  0  0  0  0  0  0  0  0  0  0
   23.6541  -20.0964  -14.5496 C   0  0  0  0  0  0  0  0  0  0  0  0
   20.8531  -20.7063  -11.2172 C   0  0  0  0  0  0  0  0  0  0  0  0
   19.6744  -20.0203  -11.5477 O   0  0  0  0  0  0  0  0  0  0  0  0
   20.7551  -21.9341  -11.0398 O   0  0  0  0  0  0  0  0  0  0  0  0
  2  9  1  0
  2  1  1  6
  2  3  1  0
  3  4  1  0
  4  8  1  0
  4  5  2  0
  5  6  1  0
  7  6  1  0
  8  7  2  0
  9 10  2  0
 11 12  1  0
 11  9  1  0
 12 23  1  0
 12 13  1  1
 14 13  1  0
 14 22  1  0
 15 16  1  0
 15 14  2  0
 16 17  1  0
 17 18  2  0
 17 22  1  0
 18 19  1  0
 19 20  2  0
 21 20  1  0
 22 21  2  0
 23 25  1  0
 23 24  2  0
 25 26  1  0
 26 37  1  0
 26 27  1  6
 27 28  1  0
 28 36  1  0
 29 30  1  0
 29 28  2  0
 30 31  1  0
 31 36  2  0
 31 32  1  0
 32 33  2  0
 33 34  1  0
 35 34  2  0
 36 35  1  0
 37 38  1  0
 39 37  2  0
M  END
$$$$
