HWW.pdb
     RDKit          3D

 39 43  0  0  1  0  0  0  0  0999 V2000
   27.8544  -22.0151  -15.6011 N   0  0  0  0  0  0  0  0  0  0  0  0
   27.7821  -20.8366  -14.7626 C   0  0  1  0  0  0  0  0  0  0  0  0
   27.1159  -19.7718  -15.6051 C   0  0  0  0  0  0  0  0  0  0  0  0
   28.0669  -19.3183  -16.6495 C   0  0  0  0  0  0  0  0  0  0  0  0
   28.8197  -18.1598  -16.6797 C   0  0  0  0  0  0  0  0  0  0  0  0
   29.5528  -18.1136  -17.8053 N   0  0  0  0  0  0  0  0  0  0  0  0
   29.2698  -19.2332  -18.4872 C   0  0  0  0  0  0  0  0  0  0  0  0
   28.3637  -19.9765  -17.7907 N   0  0  0  0  0  0  0  0  0  0  0  0
   27.0808  -21.0868  -13.4882 C   0  0  0  0  0  0  0  0  0  0  0  0
   25.9647  -21.6660  -13.5221 O   0  0  0  0  0  0  0  0  0  0  0  0
   27.5793  -20.7190  -12.2210 N   0  0  0  0  0  0  0  0  0  0  0  0
   26.9042  -20.9424  -10.9549 C   0  0  1  0  0  0  0  0  0  0  0  0
   27.5757  -20.3015   -9.7896 C   0  0  0  0  0  0  0  0  0  0  0  0
   26.9587  -20.5935   -8.4778 C   0  0  0  0  0  0  0  0  0  0  0  0
   25.8059  -21.2622   -8.1829 C   0  0  0  0  0  0  0  0  0  0  0  0
   25.6481  -21.2715   -6.8607 N   0  0  0  0  0  0  0  0  0  0  0  0
   26.6550  -20.6311   -6.2520 C   0  0  0  0  0  0  0  0  0  0  0  0
   26.9379  -20.3742   -4.9230 C   0  0  0  0  0  0  0  0  0  0  0  0
   28.0703  -19.6734   -4.5710 C   0  0  0  0  0  0  0  0  0  0  0  0
   28.8966  -19.2453   -5.5761 C   0  0  0  0  0  0  0  0  0  0  0  0
   28.6238  -19.4961   -6.9116 C   0  0  0  0  0  0  0  0  0  0  0  0
   27.4916  -20.1952   -7.2446 C   0  0  0  0  0  0  0  0  0  0  0  0
   25.5514  -20.2814  -11.1457 C   0  0  0  0  0  0  0  0  0  0  0  0
   25.4961  -19.0323  -11.4245 O   0  0  0  0  0  0  0  0  0  0  0  0
   24.3401  -20.9791  -11.0332 N   0  0  0  0  0  0  0  0  0  0  0  0
   23.1004  -20.3793  -11.5135 C   0  0  1  0  0  0  0  0  0  0  0  0
   23.2478  -19.8793  -12.9052 C   0  0  0  0  0  0  0  0  0  0  0  0
   22.0254  -19.2563  -13.4124 C   0  0  0  0  0  0  0  0  0  0  0  0
   21.6492  -17.9287  -13.1604 C   0  0  0  0  0  0  0  0  0  0  0  0
   20.4649  -17.6633  -13.7172 N   0  0  0  0  0  0  0  0  0  0  0  0
   20.0349  -18.7882  -14.3427 C   0  0  0  0  0  0  0  0  0  0  0  0
   18.8870  -19.0004  -15.0667 C   0  0  0  0  0  0  0  0  0  0  0  0
   18.6732  -20.2415  -15.6382 C   0  0  0  0  0  0  0  0  0  0  0  0
   19.6176  -21.2207  -15.4612 C   0  0  0  0  0  0  0  0  0  0  0  0
   20.7605  -21.0113  -14.7399 C   0  0  0  0  0  0  0  0  0  0  0  0
   20.9887  -19.7645  -14.1576 C   0  0  0  0  0  0  0  0  0  0  0  0
   21.9605  -21.2412  -11.2555 C   0  0  0  0  0  0  0  0  0  0  0  0
   20.8178  -20.7141  -10.6346 O   0  0  0  0  0  0  0  0  0  0  0  0
   21.9282  -22.4486  -11.5551 O   0  0  0  0  0  0  0  0  0  0  0  0
  2  9  1  0
  2  1  1  6
  2  3  1  0
  3  4  1  0
  4  8  1  0
  4  5  2  0
  5  6  1  0
  7  6  1  0
  8  7  2  0
  9 10  2  0
 11 12  1  0
 11  9  1  0
 12 23  1  0
 12 13  1  1
 14 13  1  0
 14 22  1  0
 15 16  1  0
 15 14  2  0
 16 17  1  0
 17 18  2  0
 17 22  1  0
 18 19  1  0
 19 20  2  0
 21 20  1  0
 22 21  2  0
 23 25  1  0
 23 24  2  0
 25 26  1  0
 26 37  1  0
 26 27  1  6
 27 28  1  0
 28 36  1  0
 29 30  1  0
 29 28  2  0
 30 31  1  0
 31 36  2  0
 31 32  1  0
 32 33  2  0
 33 34  1  0
 35 34  2  0
 36 35  1  0
 37 38  1  0
 39 37  2  0
M  END
$$$$
