HWW.pdb
     RDKit          3D

 39 43  0  0  1  0  0  0  0  0999 V2000
   28.3654  -20.8993  -17.1439 N   0  0  0  0  0  0  0  0  0  0  0  0
   28.1074  -20.1163  -15.9533 C   0  0  1  0  0  0  0  0  0  0  0  0
   27.4191  -18.8567  -16.4298 C   0  0  0  0  0  0  0  0  0  0  0  0
   28.3935  -18.0306  -17.1842 C   0  0  0  0  0  0  0  0  0  0  0  0
   29.7053  -18.3272  -17.5018 C   0  0  0  0  0  0  0  0  0  0  0  0
   30.2556  -17.3120  -18.1897 N   0  0  0  0  0  0  0  0  0  0  0  0
   29.3027  -16.3760  -18.3096 C   0  0  0  0  0  0  0  0  0  0  0  0
   28.1612  -16.8043  -17.6995 N   0  0  0  0  0  0  0  0  0  0  0  0
   27.3239  -20.8557  -14.9443 C   0  0  0  0  0  0  0  0  0  0  0  0
   26.3479  -21.5478  -15.3327 O   0  0  0  0  0  0  0  0  0  0  0  0
   27.5955  -20.8416  -13.5603 N   0  0  0  0  0  0  0  0  0  0  0  0
   26.8634  -21.5877  -12.5523 C   0  0  1  0  0  0  0  0  0  0  0  0
   27.5947  -21.7424  -11.2636 C   0  0  0  0  0  0  0  0  0  0  0  0
   26.9090  -21.1682  -10.0861 C   0  0  0  0  0  0  0  0  0  0  0  0
   25.5931  -20.8517   -9.9083 C   0  0  0  0  0  0  0  0  0  0  0  0
   25.4393  -20.3522   -8.6835 N   0  0  0  0  0  0  0  0  0  0  0  0
   26.6069  -20.3197   -8.0277 C   0  0  0  0  0  0  0  0  0  0  0  0
   26.9606  -19.8966   -6.7596 C   0  0  0  0  0  0  0  0  0  0  0  0
   28.2681  -19.9770   -6.3338 C   0  0  0  0  0  0  0  0  0  0  0  0
   29.1947  -20.4866   -7.2044 C   0  0  0  0  0  0  0  0  0  0  0  0
   28.8529  -20.9136   -8.4779 C   0  0  0  0  0  0  0  0  0  0  0  0
   27.5462  -20.8262   -8.8860 C   0  0  0  0  0  0  0  0  0  0  0  0
   25.6308  -20.7389  -12.2996 C   0  0  0  0  0  0  0  0  0  0  0  0
   25.7717  -19.5110  -11.9627 O   0  0  0  0  0  0  0  0  0  0  0  0
   24.3254  -21.2368  -12.4201 N   0  0  0  0  0  0  0  0  0  0  0  0
   23.1824  -20.3429  -12.2723 C   0  0  1  0  0  0  0  0  0  0  0  0
   23.3008  -19.1643  -13.1697 C   0  0  0  0  0  0  0  0  0  0  0  0
   23.1729  -19.5174  -14.5834 C   0  0  0  0  0  0  0  0  0  0  0  0
   22.5457  -20.6795  -15.0563 C   0  0  0  0  0  0  0  0  0  0  0  0
   22.6264  -20.7471  -16.3875 N   0  0  0  0  0  0  0  0  0  0  0  0
   23.2959  -19.6499  -16.8226 C   0  0  0  0  0  0  0  0  0  0  0  0
   23.6088  -19.2691  -18.1048 C   0  0  0  0  0  0  0  0  0  0  0  0
   24.2863  -18.0803  -18.3059 C   0  0  0  0  0  0  0  0  0  0  0  0
   24.6238  -17.3206  -17.2146 C   0  0  0  0  0  0  0  0  0  0  0  0
   24.3138  -17.6988  -15.9373 C   0  0  0  0  0  0  0  0  0  0  0  0
   23.6311  -18.8956  -15.7199 C   0  0  0  0  0  0  0  0  0  0  0  0
   21.9284  -21.0730  -12.3292 C   0  0  0  0  0  0  0  0  0  0  0  0
   21.9387  -22.4520  -12.5887 O   0  0  0  0  0  0  0  0  0  0  0  0
   20.8150  -20.5437  -12.1594 O   0  0  0  0  0  0  0  0  0  0  0  0
  2  9  1  0
  2  1  1  6
  2  3  1  0
  3  4  1  0
  4  8  1  0
  4  5  2  0
  5  6  1  0
  7  6  1  0
  8  7  2  0
  9 10  2  0
 11 12  1  0
 11  9  1  0
 12 23  1  0
 12 13  1  1
 14 13  1  0
 14 22  1  0
 15 16  1  0
 15 14  2  0
 16 17  1  0
 17 18  2  0
 17 22  1  0
 18 19  1  0
 19 20  2  0
 21 20  1  0
 22 21  2  0
 23 25  1  0
 23 24  2  0
 25 26  1  0
 26 37  1  0
 26 27  1  6
 27 28  1  0
 28 36  1  0
 29 30  1  0
 29 28  2  0
 30 31  1  0
 31 36  2  0
 31 32  1  0
 32 33  2  0
 33 34  1  0
 35 34  2  0
 36 35  1  0
 37 38  1  0
 39 37  2  0
M  END
$$$$
