HWW.pdb
     RDKit          3D

 39 43  0  0  1  0  0  0  0  0999 V2000
   20.7675  -23.9255  -19.1923 N   0  0  0  0  0  0  0  0  0  0  0  0
   19.7134  -23.0033  -19.5604 C   0  0  1  0  0  0  0  0  0  0  0  0
   18.5527  -23.8626  -20.0096 C   0  0  0  0  0  0  0  0  0  0  0  0
   18.9404  -24.5906  -21.2427 C   0  0  0  0  0  0  0  0  0  0  0  0
   18.9465  -24.1293  -22.5453 C   0  0  0  0  0  0  0  0  0  0  0  0
   19.3568  -25.1010  -23.3783 N   0  0  0  0  0  0  0  0  0  0  0  0
   19.6101  -26.1731  -22.6134 C   0  0  0  0  0  0  0  0  0  0  0  0
   19.3595  -25.8727  -21.3073 N   0  0  0  0  0  0  0  0  0  0  0  0
   19.3577  -22.0790  -18.4661 C   0  0  0  0  0  0  0  0  0  0  0  0
   19.4311  -22.4961  -17.2816 O   0  0  0  0  0  0  0  0  0  0  0  0
   18.9373  -20.7461  -18.6565 N   0  0  0  0  0  0  0  0  0  0  0  0
   18.6630  -19.7917  -17.5969 C   0  0  1  0  0  0  0  0  0  0  0  0
   19.1383  -18.4102  -17.8888 C   0  0  0  0  0  0  0  0  0  0  0  0
   18.7399  -17.8814  -19.2110 C   0  0  0  0  0  0  0  0  0  0  0  0
   17.6210  -17.1894  -19.5753 C   0  0  0  0  0  0  0  0  0  0  0  0
   17.6908  -16.9274  -20.8790 N   0  0  0  0  0  0  0  0  0  0  0  0
   18.8187  -17.4195  -21.4084 C   0  0  0  0  0  0  0  0  0  0  0  0
   19.3372  -17.4093  -22.6903 C   0  0  0  0  0  0  0  0  0  0  0  0
   20.5478  -18.0080  -22.9608 C   0  0  0  0  0  0  0  0  0  0  0  0
   21.2117  -18.6072  -21.9232 C   0  0  0  0  0  0  0  0  0  0  0  0
   20.7024  -18.6245  -20.6343 C   0  0  0  0  0  0  0  0  0  0  0  0
   19.4953  -18.0238  -20.3825 C   0  0  0  0  0  0  0  0  0  0  0  0
   17.1476  -19.7655  -17.5184 C   0  0  0  0  0  0  0  0  0  0  0  0
   16.4599  -19.9365  -18.5856 O   0  0  0  0  0  0  0  0  0  0  0  0
   16.4505  -19.5631  -16.3184 N   0  0  0  0  0  0  0  0  0  0  0  0
   14.9924  -19.5952  -16.3024 C   0  0  1  0  0  0  0  0  0  0  0  0
   14.4740  -20.8348  -16.9374 C   0  0  0  0  0  0  0  0  0  0  0  0
   14.8896  -22.0461  -16.2307 C   0  0  0  0  0  0  0  0  0  0  0  0
   15.3322  -22.0749  -14.8999 C   0  0  0  0  0  0  0  0  0  0  0  0
   15.6837  -23.3145  -14.5496 N   0  0  0  0  0  0  0  0  0  0  0  0
   15.4847  -24.1245  -15.6200 C   0  0  0  0  0  0  0  0  0  0  0  0
   15.6835  -25.4784  -15.7397 C   0  0  0  0  0  0  0  0  0  0  0  0
   15.3837  -26.0978  -16.9393 C   0  0  0  0  0  0  0  0  0  0  0  0
   14.8973  -25.3361  -17.9714 C   0  0  0  0  0  0  0  0  0  0  0  0
   14.6998  -23.9879  -17.8542 C   0  0  0  0  0  0  0  0  0  0  0  0
   14.9984  -23.3502  -16.6501 C   0  0  0  0  0  0  0  0  0  0  0  0
   14.4703  -19.2790  -14.9847 C   0  0  0  0  0  0  0  0  0  0  0  0
   15.3585  -19.0315  -13.9268 O   0  0  0  0  0  0  0  0  0  0  0  0
   13.2556  -19.2119  -14.7231 O   0  0  0  0  0  0  0  0  0  0  0  0
  2  9  1  0
  2  1  1  1
  2  3  1  0
  3  4  1  0
  4  8  1  0
  4  5  2  0
  5  6  1  0
  7  6  1  0
  8  7  2  0
  9 10  2  0
 11 12  1  0
 11  9  1  0
 12 23  1  0
 12 13  1  6
 14 13  1  0
 14 22  1  0
 15 16  1  0
 15 14  2  0
 16 17  1  0
 17 18  2  0
 17 22  1  0
 18 19  1  0
 19 20  2  0
 21 20  1  0
 22 21  2  0
 23 25  1  0
 23 24  2  0
 25 26  1  0
 26 37  1  0
 26 27  1  1
 27 28  1  0
 28 36  1  0
 29 30  1  0
 29 28  2  0
 30 31  1  0
 31 36  2  0
 31 32  1  0
 32 33  2  0
 33 34  1  0
 35 34  2  0
 36 35  1  0
 37 38  1  0
 39 37  2  0
M  END
$$$$
