HWW.pdb
     RDKit          3D

 39 43  0  0  1  0  0  0  0  0999 V2000
   28.1917  -21.2102  -16.4636 N   0  0  0  0  0  0  0  0  0  0  0  0
   27.3423  -20.4711  -15.5529 C   0  0  1  0  0  0  0  0  0  0  0  0
   26.6858  -19.3927  -16.3856 C   0  0  0  0  0  0  0  0  0  0  0  0
   27.7346  -18.4876  -16.9163 C   0  0  0  0  0  0  0  0  0  0  0  0
   28.2777  -18.4556  -18.1867 C   0  0  0  0  0  0  0  0  0  0  0  0
   29.2108  -17.4916  -18.2667 N   0  0  0  0  0  0  0  0  0  0  0  0
   29.2624  -16.9137  -17.0576 C   0  0  0  0  0  0  0  0  0  0  0  0
   28.3649  -17.5138  -16.2250 N   0  0  0  0  0  0  0  0  0  0  0  0
   26.3692  -21.3339  -14.8549 C   0  0  0  0  0  0  0  0  0  0  0  0
   25.8374  -22.2772  -15.4951 O   0  0  0  0  0  0  0  0  0  0  0  0
   25.9899  -21.1744  -13.5058 N   0  0  0  0  0  0  0  0  0  0  0  0
   24.9781  -21.9575  -12.8188 C   0  0  1  0  0  0  0  0  0  0  0  0
   25.3915  -22.4282  -11.4671 C   0  0  0  0  0  0  0  0  0  0  0  0
   26.0404  -21.4026  -10.6225 C   0  0  0  0  0  0  0  0  0  0  0  0
   25.4852  -20.4922   -9.7702 C   0  0  0  0  0  0  0  0  0  0  0  0
   26.4626  -19.7667   -9.2301 N   0  0  0  0  0  0  0  0  0  0  0  0
   27.6595  -20.1555   -9.6890 C   0  0  0  0  0  0  0  0  0  0  0  0
   28.9481  -19.7213   -9.4379 C   0  0  0  0  0  0  0  0  0  0  0  0
   30.0216  -20.3138  -10.0655 C   0  0  0  0  0  0  0  0  0  0  0  0
   29.7672  -21.3385  -10.9382 C   0  0  0  0  0  0  0  0  0  0  0  0
   28.4803  -21.7825  -11.1987 C   0  0  0  0  0  0  0  0  0  0  0  0
   27.4227  -21.1810  -10.5652 C   0  0  0  0  0  0  0  0  0  0  0  0
   23.8234  -20.9870  -12.6508 C   0  0  0  0  0  0  0  0  0  0  0  0
   24.0627  -19.7828  -12.2851 O   0  0  0  0  0  0  0  0  0  0  0  0
   22.4874  -21.3457  -12.8812 N   0  0  0  0  0  0  0  0  0  0  0  0
   21.4304  -20.3463  -12.7746 C   0  0  1  0  0  0  0  0  0  0  0  0
   21.7816  -19.1093  -13.5196 C   0  0  0  0  0  0  0  0  0  0  0  0
   21.7911  -19.3079  -14.9688 C   0  0  0  0  0  0  0  0  0  0  0  0
   20.9079  -20.1514  -15.6589 C   0  0  0  0  0  0  0  0  0  0  0  0
   21.1909  -20.1594  -16.9639 N   0  0  0  0  0  0  0  0  0  0  0  0
   22.2490  -19.3346  -17.1679 C   0  0  0  0  0  0  0  0  0  0  0  0
   22.8867  -19.0055  -18.3393 C   0  0  0  0  0  0  0  0  0  0  0  0
   23.9419  -18.1123  -18.3015 C   0  0  0  0  0  0  0  0  0  0  0  0
   24.3165  -17.5848  -17.0918 C   0  0  0  0  0  0  0  0  0  0  0  0
   23.6833  -17.9122  -15.9246 C   0  0  0  0  0  0  0  0  0  0  0  0
   22.6178  -18.8121  -15.9481 C   0  0  0  0  0  0  0  0  0  0  0  0
   20.1274  -20.9214  -13.0579 C   0  0  0  0  0  0  0  0  0  0  0  0
   18.9668  -20.1853  -12.7745 O   0  0  0  0  0  0  0  0  0  0  0  0
   19.9662  -22.0541  -13.5475 O   0  0  0  0  0  0  0  0  0  0  0  0
  2  9  1  0
  2  1  1  6
  2  3  1  0
  3  4  1  0
  4  8  1  0
  4  5  2  0
  5  6  1  0
  7  6  1  0
  8  7  2  0
  9 10  2  0
 11 12  1  0
 11  9  1  0
 12 23  1  0
 12 13  1  1
 14 13  1  0
 14 22  1  0
 15 16  1  0
 15 14  2  0
 16 17  1  0
 17 18  2  0
 17 22  1  0
 18 19  1  0
 19 20  2  0
 21 20  1  0
 22 21  2  0
 23 25  1  0
 23 24  2  0
 25 26  1  0
 26 37  1  0
 26 27  1  6
 27 28  1  0
 28 36  1  0
 29 30  1  0
 29 28  2  0
 30 31  1  0
 31 36  2  0
 31 32  1  0
 32 33  2  0
 33 34  1  0
 35 34  2  0
 36 35  1  0
 37 38  1  0
 39 37  2  0
M  END
$$$$
