HWW.pdb
     RDKit          3D

 39 43  0  0  1  0  0  0  0  0999 V2000
   24.3901  -20.0111  -15.4969 N   0  0  0  0  0  0  0  0  0  0  0  0
   24.7411  -19.6249  -14.1460 C   0  0  1  0  0  0  0  0  0  0  0  0
   23.4410  -19.6004  -13.3737 C   0  0  0  0  0  0  0  0  0  0  0  0
   22.5877  -18.5069  -13.9003 C   0  0  0  0  0  0  0  0  0  0  0  0
   21.3035  -18.5877  -14.4043 C   0  0  0  0  0  0  0  0  0  0  0  0
   20.8797  -17.3713  -14.7878 N   0  0  0  0  0  0  0  0  0  0  0  0
   21.8852  -16.5219  -14.5306 C   0  0  0  0  0  0  0  0  0  0  0  0
   22.9333  -17.2045  -13.9882 N   0  0  0  0  0  0  0  0  0  0  0  0
   25.7532  -20.5148  -13.5442 C   0  0  0  0  0  0  0  0  0  0  0  0
   25.7887  -21.7172  -13.9123 O   0  0  0  0  0  0  0  0  0  0  0  0
   26.6943  -20.1079  -12.5756 N   0  0  0  0  0  0  0  0  0  0  0  0
   27.6874  -20.9669  -11.9555 C   0  0  1  0  0  0  0  0  0  0  0  0
   28.9219  -20.2523  -11.5254 C   0  0  0  0  0  0  0  0  0  0  0  0
   30.0810  -21.1264  -11.2442 C   0  0  0  0  0  0  0  0  0  0  0  0
   30.8009  -21.9227  -12.0873 C   0  0  0  0  0  0  0  0  0  0  0  0
   31.7527  -22.5330  -11.3839 N   0  0  0  0  0  0  0  0  0  0  0  0
   31.7000  -22.1766  -10.0936 C   0  0  0  0  0  0  0  0  0  0  0  0
   32.4541  -22.5304   -8.9898 C   0  0  0  0  0  0  0  0  0  0  0  0
   32.1722  -22.0004   -7.7501 C   0  0  0  0  0  0  0  0  0  0  0  0
   31.1281  -21.1190   -7.6530 C   0  0  0  0  0  0  0  0  0  0  0  0
   30.3646  -20.7569   -8.7517 C   0  0  0  0  0  0  0  0  0  0  0  0
   30.6589  -21.2944   -9.9789 C   0  0  0  0  0  0  0  0  0  0  0  0
   26.9867  -21.4920  -10.7158 C   0  0  0  0  0  0  0  0  0  0  0  0
   27.4311  -22.5478  -10.1425 O   0  0  0  0  0  0  0  0  0  0  0  0
   25.8618  -20.8696  -10.1557 N   0  0  0  0  0  0  0  0  0  0  0  0
   25.2196  -21.4384   -8.9761 C   0  0  1  0  0  0  0  0  0  0  0  0
   26.2243  -21.8452   -7.9593 C   0  0  0  0  0  0  0  0  0  0  0  0
   26.9045  -20.7023   -7.3507 C   0  0  0  0  0  0  0  0  0  0  0  0
   26.8006  -19.3812   -7.8107 C   0  0  0  0  0  0  0  0  0  0  0  0
   27.5697  -18.5690   -7.0814 N   0  0  0  0  0  0  0  0  0  0  0  0
   28.1904  -19.3181   -6.1353 C   0  0  0  0  0  0  0  0  0  0  0  0
   29.0607  -18.9296   -5.1460 C   0  0  0  0  0  0  0  0  0  0  0  0
   29.5528  -19.8820   -4.2723 C   0  0  0  0  0  0  0  0  0  0  0  0
   29.1537  -21.1857   -4.4247 C   0  0  0  0  0  0  0  0  0  0  0  0
   28.2881  -21.5743   -5.4096 C   0  0  0  0  0  0  0  0  0  0  0  0
   27.7845  -20.6241   -6.2982 C   0  0  0  0  0  0  0  0  0  0  0  0
   24.1326  -20.5973   -8.5076 C   0  0  0  0  0  0  0  0  0  0  0  0
   23.7177  -19.5031   -9.2820 O   0  0  0  0  0  0  0  0  0  0  0  0
   23.5283  -20.7859   -7.4362 O   0  0  0  0  0  0  0  0  0  0  0  0
  2  9  1  0
  2  1  1  6
  2  3  1  0
  3  4  1  0
  4  8  1  0
  4  5  2  0
  5  6  1  0
  7  6  1  0
  8  7  2  0
  9 10  2  0
 11 12  1  0
 11  9  1  0
 12 23  1  0
 12 13  1  1
 14 13  1  0
 14 22  1  0
 15 16  1  0
 15 14  2  0
 16 17  1  0
 17 18  2  0
 17 22  1  0
 18 19  1  0
 19 20  2  0
 21 20  1  0
 22 21  2  0
 23 25  1  0
 23 24  2  0
 25 26  1  0
 26 37  1  0
 26 27  1  1
 27 28  1  0
 28 36  1  0
 29 30  1  0
 29 28  2  0
 30 31  1  0
 31 36  2  0
 31 32  1  0
 32 33  2  0
 33 34  1  0
 35 34  2  0
 36 35  1  0
 37 38  1  0
 39 37  2  0
M  END
$$$$
