HWW.pdb
     RDKit          3D

 39 43  0  0  1  0  0  0  0  0999 V2000
   27.4231  -22.0197  -15.8941 N   0  0  0  0  0  0  0  0  0  0  0  0
   26.3521  -21.0817  -15.6289 C   0  0  1  0  0  0  0  0  0  0  0  0
   25.4434  -21.1419  -16.8364 C   0  0  0  0  0  0  0  0  0  0  0  0
   26.1782  -20.6295  -18.0190 C   0  0  0  0  0  0  0  0  0  0  0  0
   26.8252  -21.3495  -19.0052 C   0  0  0  0  0  0  0  0  0  0  0  0
   27.3784  -20.5137  -19.9007 N   0  0  0  0  0  0  0  0  0  0  0  0
   27.0865  -19.2711  -19.4890 C   0  0  0  0  0  0  0  0  0  0  0  0
   26.3536  -19.3299  -18.3408 N   0  0  0  0  0  0  0  0  0  0  0  0
   25.6486  -21.3640  -14.3625 C   0  0  0  0  0  0  0  0  0  0  0  0
   25.6255  -22.5491  -13.9411 O   0  0  0  0  0  0  0  0  0  0  0  0
   24.9937  -20.3883  -13.5824 N   0  0  0  0  0  0  0  0  0  0  0  0
   24.3196  -20.6349  -12.3200 C   0  0  1  0  0  0  0  0  0  0  0  0
   24.8493  -19.8302  -11.1837 C   0  0  0  0  0  0  0  0  0  0  0  0
   26.0238  -20.4146  -10.5014 C   0  0  0  0  0  0  0  0  0  0  0  0
   26.1271  -20.9692   -9.2584 C   0  0  0  0  0  0  0  0  0  0  0  0
   27.3873  -21.3562   -9.0706 N   0  0  0  0  0  0  0  0  0  0  0  0
   28.1395  -21.0812  -10.1444 C   0  0  0  0  0  0  0  0  0  0  0  0
   29.4774  -21.2825  -10.4306 C   0  0  0  0  0  0  0  0  0  0  0  0
   30.0007  -20.8909  -11.6430 C   0  0  0  0  0  0  0  0  0  0  0  0
   29.1550  -20.3011  -12.5449 C   0  0  0  0  0  0  0  0  0  0  0  0
   27.8126  -20.0935  -12.2698 C   0  0  0  0  0  0  0  0  0  0  0  0
   27.3079  -20.4894  -11.0573 C   0  0  0  0  0  0  0  0  0  0  0  0
   22.8896  -20.1998  -12.5837 C   0  0  0  0  0  0  0  0  0  0  0  0
   22.5360  -19.0006  -12.3046 O   0  0  0  0  0  0  0  0  0  0  0  0
   21.9212  -21.0557  -13.1280 N   0  0  0  0  0  0  0  0  0  0  0  0
   20.6006  -20.5431  -13.4753 C   0  0  1  0  0  0  0  0  0  0  0  0
   20.7005  -19.3483  -14.3534 C   0  0  0  0  0  0  0  0  0  0  0  0
   21.3935  -19.6293  -15.6105 C   0  0  0  0  0  0  0  0  0  0  0  0
   21.3886  -20.8741  -16.2571 C   0  0  0  0  0  0  0  0  0  0  0  0
   22.1450  -20.8341  -17.3567 N   0  0  0  0  0  0  0  0  0  0  0  0
   22.6599  -19.5833  -17.4655 C   0  0  0  0  0  0  0  0  0  0  0  0
   23.4777  -19.0567  -18.4354 C   0  0  0  0  0  0  0  0  0  0  0  0
   23.8591  -17.7304  -18.3450 C   0  0  0  0  0  0  0  0  0  0  0  0
   23.4065  -16.9847  -17.2862 C   0  0  0  0  0  0  0  0  0  0  0  0
   22.5930  -17.5077  -16.3192 C   0  0  0  0  0  0  0  0  0  0  0  0
   22.2009  -18.8441  -16.3977 C   0  0  0  0  0  0  0  0  0  0  0  0
   19.7229  -21.6065  -13.9311 C   0  0  0  0  0  0  0  0  0  0  0  0
   20.2415  -22.8936  -14.1396 O   0  0  0  0  0  0  0  0  0  0  0  0
   18.5092  -21.4488  -14.1561 O   0  0  0  0  0  0  0  0  0  0  0  0
  2  9  1  0
  2  1  1  6
  2  3  1  0
  3  4  1  0
  4  8  1  0
  4  5  2  0
  5  6  1  0
  7  6  1  0
  8  7  2  0
  9 10  2  0
 11 12  1  0
 11  9  1  0
 12 23  1  0
 12 13  1  1
 14 13  1  0
 14 22  1  0
 15 16  1  0
 15 14  2  0
 16 17  1  0
 17 18  2  0
 17 22  1  0
 18 19  1  0
 19 20  2  0
 21 20  1  0
 22 21  2  0
 23 25  1  0
 23 24  2  0
 25 26  1  0
 26 37  1  0
 26 27  1  6
 27 28  1  0
 28 36  1  0
 29 30  1  0
 29 28  2  0
 30 31  1  0
 31 36  2  0
 31 32  1  0
 32 33  2  0
 33 34  1  0
 35 34  2  0
 36 35  1  0
 37 38  1  0
 39 37  2  0
M  END
$$$$
