HWW.pdb
     RDKit          3D

 39 43  0  0  1  0  0  0  0  0999 V2000
   25.7353  -22.0263  -18.3199 N   0  0  0  0  0  0  0  0  0  0  0  0
   27.1593  -21.7946  -18.1952 C   0  0  1  0  0  0  0  0  0  0  0  0
   27.5387  -20.9201  -19.3694 C   0  0  0  0  0  0  0  0  0  0  0  0
   27.2029  -21.6302  -20.6279 C   0  0  0  0  0  0  0  0  0  0  0  0
   26.2566  -21.2931  -21.5770 C   0  0  0  0  0  0  0  0  0  0  0  0
   26.2539  -22.1991  -22.5697 N   0  0  0  0  0  0  0  0  0  0  0  0
   27.1906  -23.1064  -22.2564 C   0  0  0  0  0  0  0  0  0  0  0  0
   27.7767  -22.7688  -21.0726 N   0  0  0  0  0  0  0  0  0  0  0  0
   27.5284  -21.2050  -16.8934 C   0  0  0  0  0  0  0  0  0  0  0  0
   28.7190  -20.8389  -16.7173 O   0  0  0  0  0  0  0  0  0  0  0  0
   26.6307  -21.0201  -15.8214 N   0  0  0  0  0  0  0  0  0  0  0  0
   26.9203  -20.2931  -14.5982 C   0  0  1  0  0  0  0  0  0  0  0  0
   26.1615  -19.0188  -14.4574 C   0  0  0  0  0  0  0  0  0  0  0  0
   26.3427  -18.0604  -15.5688 C   0  0  0  0  0  0  0  0  0  0  0  0
   25.4100  -17.4220  -16.3342 C   0  0  0  0  0  0  0  0  0  0  0  0
   26.0423  -16.6569  -17.2219 N   0  0  0  0  0  0  0  0  0  0  0  0
   27.3709  -16.7571  -17.0829 C   0  0  0  0  0  0  0  0  0  0  0  0
   28.4320  -16.1752  -17.7520 C   0  0  0  0  0  0  0  0  0  0  0  0
   29.7298  -16.4652  -17.3932 C   0  0  0  0  0  0  0  0  0  0  0  0
   29.9277  -17.3421  -16.3597 C   0  0  0  0  0  0  0  0  0  0  0  0
   28.8727  -17.9322  -15.6816 C   0  0  0  0  0  0  0  0  0  0  0  0
   27.5864  -17.6325  -16.0520 C   0  0  0  0  0  0  0  0  0  0  0  0
   26.4677  -21.2387  -13.5007 C   0  0  0  0  0  0  0  0  0  0  0  0
   25.6168  -22.1566  -13.7734 O   0  0  0  0  0  0  0  0  0  0  0  0
   26.9424  -21.1595  -12.1834 N   0  0  0  0  0  0  0  0  0  0  0  0
   26.1251  -21.6475  -11.0783 C   0  0  1  0  0  0  0  0  0  0  0  0
   26.9513  -21.9045   -9.8700 C   0  0  0  0  0  0  0  0  0  0  0  0
   26.9773  -20.7655   -8.9526 C   0  0  0  0  0  0  0  0  0  0  0  0
   26.0991  -19.6738   -9.0195 C   0  0  0  0  0  0  0  0  0  0  0  0
   26.3975  -18.7739   -8.0792 N   0  0  0  0  0  0  0  0  0  0  0  0
   27.4612  -19.2393   -7.3768 C   0  0  0  0  0  0  0  0  0  0  0  0
   28.1141  -18.6781   -6.3064 C   0  0  0  0  0  0  0  0  0  0  0  0
   29.1723  -19.3592   -5.7329 C   0  0  0  0  0  0  0  0  0  0  0  0
   29.5347  -20.5751   -6.2549 C   0  0  0  0  0  0  0  0  0  0  0  0
   28.8863  -21.1347   -7.3211 C   0  0  0  0  0  0  0  0  0  0  0  0
   27.8176  -20.4584   -7.9096 C   0  0  0  0  0  0  0  0  0  0  0  0
   24.9445  -20.8234  -10.8887 C   0  0  0  0  0  0  0  0  0  0  0  0
   23.7638  -21.4036  -10.4003 O   0  0  0  0  0  0  0  0  0  0  0  0
   24.9080  -19.6047  -11.1376 O   0  0  0  0  0  0  0  0  0  0  0  0
  2  9  1  0
  2  1  1  1
  2  3  1  0
  3  4  1  0
  4  8  1  0
  4  5  2  0
  5  6  1  0
  7  6  1  0
  8  7  2  0
  9 10  2  0
 11 12  1  0
 11  9  1  0
 12 23  1  0
 12 13  1  6
 14 13  1  0
 14 22  1  0
 15 16  1  0
 15 14  2  0
 16 17  1  0
 17 18  2  0
 17 22  1  0
 18 19  1  0
 19 20  2  0
 21 20  1  0
 22 21  2  0
 23 25  1  0
 23 24  2  0
 25 26  1  0
 26 37  1  0
 26 27  1  1
 27 28  1  0
 28 36  1  0
 29 30  1  0
 29 28  2  0
 30 31  1  0
 31 36  2  0
 31 32  1  0
 32 33  2  0
 33 34  1  0
 35 34  2  0
 36 35  1  0
 37 38  1  0
 39 37  2  0
M  END
$$$$
