HWW.pdb
     RDKit          3D

 39 43  0  0  1  0  0  0  0  0999 V2000
   30.4338  -24.2258  -16.9023 N   0  0  0  0  0  0  0  0  0  0  0  0
   29.0040  -24.0435  -16.7634 C   0  0  1  0  0  0  0  0  0  0  0  0
   28.4790  -25.3351  -16.1775 C   0  0  0  0  0  0  0  0  0  0  0  0
   28.2610  -26.3091  -17.2751 C   0  0  0  0  0  0  0  0  0  0  0  0
   28.3771  -26.1069  -18.6372 C   0  0  0  0  0  0  0  0  0  0  0  0
   28.0872  -27.2399  -19.2995 N   0  0  0  0  0  0  0  0  0  0  0  0
   27.7887  -28.1570  -18.3676 C   0  0  0  0  0  0  0  0  0  0  0  0
   27.8918  -27.5996  -17.1276 N   0  0  0  0  0  0  0  0  0  0  0  0
   28.6570  -22.8593  -15.9535 C   0  0  0  0  0  0  0  0  0  0  0  0
   29.0108  -22.8342  -14.7466 O   0  0  0  0  0  0  0  0  0  0  0  0
   27.9499  -21.7412  -16.4426 N   0  0  0  0  0  0  0  0  0  0  0  0
   27.6028  -20.5621  -15.6694 C   0  0  1  0  0  0  0  0  0  0  0  0
   27.1300  -19.4150  -16.4942 C   0  0  0  0  0  0  0  0  0  0  0  0
   26.6037  -18.2687  -15.7224 C   0  0  0  0  0  0  0  0  0  0  0  0
   27.2672  -17.3380  -14.9762 C   0  0  0  0  0  0  0  0  0  0  0  0
   26.3749  -16.4974  -14.4563 N   0  0  0  0  0  0  0  0  0  0  0  0
   25.1305  -16.8290  -14.8252 C   0  0  0  0  0  0  0  0  0  0  0  0
   23.8915  -16.2800  -14.5502 C   0  0  0  0  0  0  0  0  0  0  0  0
   22.7462  -16.8392  -15.0726 C   0  0  0  0  0  0  0  0  0  0  0  0
   22.8796  -17.9476  -15.8664 C   0  0  0  0  0  0  0  0  0  0  0  0
   24.1156  -18.5074  -16.1490 C   0  0  0  0  0  0  0  0  0  0  0  0
   25.2459  -17.9380  -15.6203 C   0  0  0  0  0  0  0  0  0  0  0  0
   26.4498  -21.0279  -14.7991 C   0  0  0  0  0  0  0  0  0  0  0  0
   25.6381  -21.9100  -15.2507 O   0  0  0  0  0  0  0  0  0  0  0  0
   26.2254  -20.5363  -13.5050 N   0  0  0  0  0  0  0  0  0  0  0  0
   25.1702  -21.1074  -12.6758 C   0  0  1  0  0  0  0  0  0  0  0  0
   25.7365  -21.8990  -11.5528 C   0  0  0  0  0  0  0  0  0  0  0  0
   26.3527  -21.0590  -10.5260 C   0  0  0  0  0  0  0  0  0  0  0  0
   25.6795  -20.0552   -9.8142 C   0  0  0  0  0  0  0  0  0  0  0  0
   26.5148  -19.4317   -8.9796 N   0  0  0  0  0  0  0  0  0  0  0  0
   27.7407  -19.9979   -9.1138 C   0  0  0  0  0  0  0  0  0  0  0  0
   28.9122  -19.7104   -8.4566 C   0  0  0  0  0  0  0  0  0  0  0  0
   30.0449  -20.4481   -8.7491 C   0  0  0  0  0  0  0  0  0  0  0  0
   29.9589  -21.4441   -9.6887 C   0  0  0  0  0  0  0  0  0  0  0  0
   28.7936  -21.7309  -10.3445 C   0  0  0  0  0  0  0  0  0  0  0  0
   27.6437  -20.9944  -10.0597 C   0  0  0  0  0  0  0  0  0  0  0  0
   24.1750  -20.1100  -12.3240 C   0  0  0  0  0  0  0  0  0  0  0  0
   24.4801  -18.7469  -12.4585 O   0  0  0  0  0  0  0  0  0  0  0  0
   23.0395  -20.3902  -11.8989 O   0  0  0  0  0  0  0  0  0  0  0  0
  2  9  1  0
  2  1  1  1
  2  3  1  0
  3  4  1  0
  4  8  1  0
  4  5  2  0
  5  6  1  0
  7  6  1  0
  8  7  2  0
  9 10  2  0
 11 12  1  0
 11  9  1  0
 12 23  1  0
 12 13  1  6
 14 13  1  0
 14 22  1  0
 15 16  1  0
 15 14  2  0
 16 17  1  0
 17 18  2  0
 17 22  1  0
 18 19  1  0
 19 20  2  0
 21 20  1  0
 22 21  2  0
 23 25  1  0
 23 24  2  0
 25 26  1  0
 26 37  1  0
 26 27  1  1
 27 28  1  0
 28 36  1  0
 29 30  1  0
 29 28  2  0
 30 31  1  0
 31 36  2  0
 31 32  1  0
 32 33  2  0
 33 34  1  0
 35 34  2  0
 36 35  1  0
 37 38  1  0
 39 37  2  0
M  END
$$$$
