HWW.pdb
     RDKit          3D

 39 43  0  0  1  0  0  0  0  0999 V2000
   24.6375  -20.2359  -15.2987 N   0  0  0  0  0  0  0  0  0  0  0  0
   25.3038  -21.5157  -15.1744 C   0  0  1  0  0  0  0  0  0  0  0  0
   26.3941  -21.5159  -16.2226 C   0  0  0  0  0  0  0  0  0  0  0  0
   25.7831  -21.2815  -17.5541 C   0  0  0  0  0  0  0  0  0  0  0  0
   24.4428  -21.1975  -17.8802 C   0  0  0  0  0  0  0  0  0  0  0  0
   24.3003  -20.9842  -19.1995 N   0  0  0  0  0  0  0  0  0  0  0  0
   25.5392  -20.9326  -19.7105 C   0  0  0  0  0  0  0  0  0  0  0  0
   26.4527  -21.1127  -18.7145 N   0  0  0  0  0  0  0  0  0  0  0  0
   25.8136  -21.7621  -13.8114 C   0  0  0  0  0  0  0  0  0  0  0  0
   26.5051  -22.7930  -13.6075 O   0  0  0  0  0  0  0  0  0  0  0  0
   25.5784  -20.9139  -12.7093 N   0  0  0  0  0  0  0  0  0  0  0  0
   26.0716  -21.1313  -11.3609 C   0  0  1  0  0  0  0  0  0  0  0  0
   26.8605  -19.9920  -10.8139 C   0  0  0  0  0  0  0  0  0  0  0  0
   28.0945  -20.3773  -10.0961 C   0  0  0  0  0  0  0  0  0  0  0  0
   29.1991  -21.0395  -10.5486 C   0  0  0  0  0  0  0  0  0  0  0  0
   30.0582  -21.1690   -9.5395 N   0  0  0  0  0  0  0  0  0  0  0  0
   29.5714  -20.6174   -8.4200 C   0  0  0  0  0  0  0  0  0  0  0  0
   30.0722  -20.4989   -7.1366 C   0  0  0  0  0  0  0  0  0  0  0  0
   29.3398  -19.8694   -6.1544 C   0  0  0  0  0  0  0  0  0  0  0  0
   28.1100  -19.3705   -6.4935 C   0  0  0  0  0  0  0  0  0  0  0  0
   27.5968  -19.4833   -7.7760 C   0  0  0  0  0  0  0  0  0  0  0  0
   28.3394  -20.1135   -8.7419 C   0  0  0  0  0  0  0  0  0  0  0  0
   24.8075  -21.2739  -10.5331 C   0  0  0  0  0  0  0  0  0  0  0  0
   23.7085  -20.7859  -10.9750 O   0  0  0  0  0  0  0  0  0  0  0  0
   24.7797  -21.9246   -9.2912 N   0  0  0  0  0  0  0  0  0  0  0  0
   23.5510  -21.9551   -8.5059 C   0  0  1  0  0  0  0  0  0  0  0  0
   23.7323  -22.7320   -7.2521 C   0  0  0  0  0  0  0  0  0  0  0  0
   23.9356  -21.8761   -6.0834 C   0  0  0  0  0  0  0  0  0  0  0  0
   22.9029  -21.2485   -5.3713 C   0  0  0  0  0  0  0  0  0  0  0  0
   23.4016  -20.4988   -4.3853 N   0  0  0  0  0  0  0  0  0  0  0  0
   24.7537  -20.6102   -4.4176 C   0  0  0  0  0  0  0  0  0  0  0  0
   25.6967  -20.0421   -3.5960 C   0  0  0  0  0  0  0  0  0  0  0  0
   27.0332  -20.3241   -3.8121 C   0  0  0  0  0  0  0  0  0  0  0  0
   27.3719  -21.1636   -4.8430 C   0  0  0  0  0  0  0  0  0  0  0  0
   26.4344  -21.7293   -5.6624 C   0  0  0  0  0  0  0  0  0  0  0  0
   25.0827  -21.4530   -5.4561 C   0  0  0  0  0  0  0  0  0  0  0  0
   22.9798  -20.6275   -8.3647 C   0  0  0  0  0  0  0  0  0  0  0  0
   21.6048  -20.4851   -8.1234 O   0  0  0  0  0  0  0  0  0  0  0  0
   23.6452  -19.5791   -8.4465 O   0  0  0  0  0  0  0  0  0  0  0  0
  2  9  1  0
  2  1  1  1
  2  3  1  0
  3  4  1  0
  4  8  1  0
  4  5  2  0
  5  6  1  0
  7  6  1  0
  8  7  2  0
  9 10  2  0
 11 12  1  0
 11  9  1  0
 12 23  1  0
 12 13  1  1
 14 13  1  0
 14 22  1  0
 15 16  1  0
 15 14  2  0
 16 17  1  0
 17 18  2  0
 17 22  1  0
 18 19  1  0
 19 20  2  0
 21 20  1  0
 22 21  2  0
 23 25  1  0
 23 24  2  0
 25 26  1  0
 26 37  1  0
 26 27  1  1
 27 28  1  0
 28 36  1  0
 29 30  1  0
 29 28  2  0
 30 31  1  0
 31 36  2  0
 31 32  1  0
 32 33  2  0
 33 34  1  0
 35 34  2  0
 36 35  1  0
 37 38  1  0
 39 37  2  0
M  END
$$$$
