HWW.pdb
     RDKit          3D

 39 43  0  0  1  0  0  0  0  0999 V2000
   27.2677  -24.9239  -15.8986 N   0  0  0  0  0  0  0  0  0  0  0  0
   26.8099  -23.5513  -15.9576 C   0  0  1  0  0  0  0  0  0  0  0  0
   26.1251  -23.4027  -17.2979 C   0  0  0  0  0  0  0  0  0  0  0  0
   27.1076  -22.8973  -18.2880 C   0  0  0  0  0  0  0  0  0  0  0  0
   27.7284  -23.5891  -19.3106 C   0  0  0  0  0  0  0  0  0  0  0  0
   28.5596  -22.7741  -19.9824 N   0  0  0  0  0  0  0  0  0  0  0  0
   28.4697  -21.5728  -19.3932 C   0  0  0  0  0  0  0  0  0  0  0  0
   27.5856  -21.6363  -18.3573 N   0  0  0  0  0  0  0  0  0  0  0  0
   25.9387  -23.1924  -14.8215 C   0  0  0  0  0  0  0  0  0  0  0  0
   25.0504  -24.0091  -14.4662 O   0  0  0  0  0  0  0  0  0  0  0  0
   26.0333  -21.9856  -14.0975 N   0  0  0  0  0  0  0  0  0  0  0  0
   25.2032  -21.6179  -12.9642 C   0  0  1  0  0  0  0  0  0  0  0  0
   25.8116  -20.5868  -12.0775 C   0  0  0  0  0  0  0  0  0  0  0  0
   27.2114  -20.2361  -12.4002 C   0  0  0  0  0  0  0  0  0  0  0  0
   27.7176  -19.5487  -13.4654 C   0  0  0  0  0  0  0  0  0  0  0  0
   29.0413  -19.4826  -13.3364 N   0  0  0  0  0  0  0  0  0  0  0  0
   29.4470  -20.1028  -12.2205 C   0  0  0  0  0  0  0  0  0  0  0  0
   30.6943  -20.3051  -11.6587 C   0  0  0  0  0  0  0  0  0  0  0  0
   30.8252  -20.9972  -10.4750 C   0  0  0  0  0  0  0  0  0  0  0  0
   29.6856  -21.4721   -9.8816 C   0  0  0  0  0  0  0  0  0  0  0  0
   28.4300  -21.2763  -10.4349 C   0  0  0  0  0  0  0  0  0  0  0  0
   28.3177  -20.5852  -11.6144 C   0  0  0  0  0  0  0  0  0  0  0  0
   23.9629  -21.0215  -13.6041 C   0  0  0  0  0  0  0  0  0  0  0  0
   23.9068  -20.9063  -14.8787 O   0  0  0  0  0  0  0  0  0  0  0  0
   22.8569  -20.5854  -12.8603 N   0  0  0  0  0  0  0  0  0  0  0  0
   21.6819  -20.0494  -13.5380 C   0  0  1  0  0  0  0  0  0  0  0  0
   21.2254  -20.9565  -14.6231 C   0  0  0  0  0  0  0  0  0  0  0  0
   20.6835  -22.2161  -14.1138 C   0  0  0  0  0  0  0  0  0  0  0  0
   19.5147  -22.3229  -13.3456 C   0  0  0  0  0  0  0  0  0  0  0  0
   19.3009  -23.5926  -12.9918 N   0  0  0  0  0  0  0  0  0  0  0  0
   20.3040  -24.3460  -13.5090 C   0  0  0  0  0  0  0  0  0  0  0  0
   20.5073  -25.7023  -13.4305 C   0  0  0  0  0  0  0  0  0  0  0  0
   21.6039  -26.2550  -14.0666 C   0  0  0  0  0  0  0  0  0  0  0  0
   22.4535  -25.4269  -14.7554 C   0  0  0  0  0  0  0  0  0  0  0  0
   22.2531  -24.0763  -14.8336 C   0  0  0  0  0  0  0  0  0  0  0  0
   21.1513  -23.5055  -14.1964 C   0  0  0  0  0  0  0  0  0  0  0  0
   20.6710  -19.6222  -12.5871 C   0  0  0  0  0  0  0  0  0  0  0  0
   19.5413  -18.9243  -13.0409 O   0  0  0  0  0  0  0  0  0  0  0  0
   20.7412  -19.8383  -11.3636 O   0  0  0  0  0  0  0  0  0  0  0  0
  2  9  1  0
  2  1  1  1
  2  3  1  0
  3  4  1  0
  4  8  1  0
  4  5  2  0
  5  6  1  0
  7  6  1  0
  8  7  2  0
  9 10  2  0
 11 12  1  0
 11  9  1  0
 12 23  1  0
 12 13  1  1
 14 13  1  0
 14 22  1  0
 15 16  1  0
 15 14  2  0
 16 17  1  0
 17 18  2  0
 17 22  1  0
 18 19  1  0
 19 20  2  0
 21 20  1  0
 22 21  2  0
 23 25  1  0
 23 24  2  0
 25 26  1  0
 26 37  1  0
 26 27  1  6
 27 28  1  0
 28 36  1  0
 29 30  1  0
 29 28  2  0
 30 31  1  0
 31 36  2  0
 31 32  1  0
 32 33  2  0
 33 34  1  0
 35 34  2  0
 36 35  1  0
 37 38  1  0
 39 37  2  0
M  END
$$$$
