HWW.pdb
     RDKit          3D

 39 43  0  0  1  0  0  0  0  0999 V2000
   26.2435  -22.3198  -16.5149 N   0  0  0  0  0  0  0  0  0  0  0  0
   25.7672  -21.4605  -15.4510 C   0  0  1  0  0  0  0  0  0  0  0  0
   24.2599  -21.5840  -15.4655 C   0  0  0  0  0  0  0  0  0  0  0  0
   23.7202  -20.7722  -16.5839 C   0  0  0  0  0  0  0  0  0  0  0  0
   24.2014  -19.5789  -17.0880 C   0  0  0  0  0  0  0  0  0  0  0  0
   23.4240  -19.1573  -18.1001 N   0  0  0  0  0  0  0  0  0  0  0  0
   22.4553  -20.0740  -18.2403 C   0  0  0  0  0  0  0  0  0  0  0  0
   22.6264  -21.0649  -17.3196 N   0  0  0  0  0  0  0  0  0  0  0  0
   26.3609  -21.7934  -14.1414 C   0  0  0  0  0  0  0  0  0  0  0  0
   26.2449  -22.9702  -13.7125 O   0  0  0  0  0  0  0  0  0  0  0  0
   27.0576  -20.8754  -13.3281 N   0  0  0  0  0  0  0  0  0  0  0  0
   27.6468  -21.1762  -12.0354 C   0  0  1  0  0  0  0  0  0  0  0  0
   28.8672  -20.3795  -11.7263 C   0  0  0  0  0  0  0  0  0  0  0  0
   30.1159  -21.1656  -11.6309 C   0  0  0  0  0  0  0  0  0  0  0  0
   30.8587  -21.7507  -12.6154 C   0  0  0  0  0  0  0  0  0  0  0  0
   31.9004  -22.3613  -12.0540 N   0  0  0  0  0  0  0  0  0  0  0  0
   31.8865  -22.2093  -10.7231 C   0  0  0  0  0  0  0  0  0  0  0  0
   32.7301  -22.6473   -9.7188 C   0  0  0  0  0  0  0  0  0  0  0  0
   32.4695  -22.3399   -8.4017 C   0  0  0  0  0  0  0  0  0  0  0  0
   31.3553  -21.5918   -8.1272 C   0  0  0  0  0  0  0  0  0  0  0  0
   30.5019  -21.1472   -9.1248 C   0  0  0  0  0  0  0  0  0  0  0  0
   30.7762  -21.4628  -10.4312 C   0  0  0  0  0  0  0  0  0  0  0  0
   26.5634  -20.7879  -11.0459 C   0  0  0  0  0  0  0  0  0  0  0  0
   25.7943  -19.7987  -11.3123 O   0  0  0  0  0  0  0  0  0  0  0  0
   26.3562  -21.4685   -9.8374 N   0  0  0  0  0  0  0  0  0  0  0  0
   25.3346  -21.0102   -8.9028 C   0  0  1  0  0  0  0  0  0  0  0  0
   25.7338  -21.2749   -7.4960 C   0  0  0  0  0  0  0  0  0  0  0  0
   26.5745  -20.2149   -6.9399 C   0  0  0  0  0  0  0  0  0  0  0  0
   26.6731  -18.9206   -7.4716 C   0  0  0  0  0  0  0  0  0  0  0  0
   27.5511  -18.1938   -6.7760 N   0  0  0  0  0  0  0  0  0  0  0  0
   28.0464  -18.9740   -5.7823 C   0  0  0  0  0  0  0  0  0  0  0  0
   28.9593  -18.6663   -4.8030 C   0  0  0  0  0  0  0  0  0  0  0  0
   29.2972  -19.6320   -3.8725 C   0  0  0  0  0  0  0  0  0  0  0  0
   28.7077  -20.8676   -3.9605 C   0  0  0  0  0  0  0  0  0  0  0  0
   27.7995  -21.1759   -4.9354 C   0  0  0  0  0  0  0  0  0  0  0  0
   27.4498  -20.2115   -5.8807 C   0  0  0  0  0  0  0  0  0  0  0  0
   24.9072  -19.6562   -9.2077 C   0  0  0  0  0  0  0  0  0  0  0  0
   25.7865  -18.7816   -9.8643 O   0  0  0  0  0  0  0  0  0  0  0  0
   23.7837  -19.2068   -8.9174 O   0  0  0  0  0  0  0  0  0  0  0  0
  2  9  1  0
  2  1  1  6
  2  3  1  0
  3  4  1  0
  4  8  1  0
  4  5  2  0
  5  6  1  0
  7  6  1  0
  8  7  2  0
  9 10  2  0
 11 12  1  0
 11  9  1  0
 12 23  1  0
 12 13  1  1
 14 13  1  0
 14 22  1  0
 15 16  1  0
 15 14  2  0
 16 17  1  0
 17 18  2  0
 17 22  1  0
 18 19  1  0
 19 20  2  0
 21 20  1  0
 22 21  2  0
 23 25  1  0
 23 24  2  0
 25 26  1  0
 26 37  1  0
 26 27  1  1
 27 28  1  0
 28 36  1  0
 29 30  1  0
 29 28  2  0
 30 31  1  0
 31 36  2  0
 31 32  1  0
 32 33  2  0
 33 34  1  0
 35 34  2  0
 36 35  1  0
 37 38  1  0
 39 37  2  0
M  END
$$$$
