REH.pdb
     RDKit          3D

 31 31  0  0  1  0  0  0  0  0999 V2000
    7.5735  -20.0813   14.1228 N   0  0  0  0  0  0  0  0  0  0  0  0
    7.3030  -18.7191   14.4813 C   0  0  0  0  0  0  0  0  0  0  0  0
    7.0021  -17.8800   13.5550 N   0  0  0  0  0  0  0  0  0  0  0  0
    7.3542  -18.2612   15.8143 N   0  0  0  0  0  0  0  0  0  0  0  0
    7.0558  -16.9088   16.1597 C   0  0  0  0  0  0  0  0  0  0  0  0
    8.2500  -16.0672   16.4984 C   0  0  0  0  0  0  0  0  0  0  0  0
    7.9238  -14.6428   16.8280 C   0  0  0  0  0  0  0  0  0  0  0  0
    9.1990  -13.9102   17.1842 C   0  0  2  0  0  0  0  0  0  0  0  0
   10.0133  -13.8756   15.9585 N   0  0  0  0  0  0  0  0  0  0  0  0
   10.0115  -14.6427   18.1876 C   0  0  0  0  0  0  0  0  0  0  0  0
    9.6269  -15.7007   18.7616 O   0  0  0  0  0  0  0  0  0  0  0  0
    6.8276  -18.1952   12.5802 N   0  0  0  0  0  0  0  0  0  0  0  0
   11.3099  -14.1466   18.5453 C   0  0  1  0  0  0  0  0  0  0  0  0
   12.1592  -14.7664   19.5020 C   0  0  0  0  0  0  0  0  0  0  0  0
   13.5984  -14.4240   19.4989 C   0  0  0  0  0  0  0  0  0  0  0  0
   14.5163  -15.1361   20.4020 C   0  0  0  0  0  0  0  0  0  0  0  0
   15.9293  -14.8229   20.3542 O   0  0  0  0  0  0  0  0  0  0  0  0
   16.3955  -13.9463   19.6045 C   0  0  0  0  0  0  0  0  0  0  0  0
   11.5916  -14.5531   20.8516 O   0  0  0  0  0  0  0  0  0  0  0  0
   11.5275  -13.4167   21.3845 O   0  0  0  0  0  0  0  0  0  0  0  0
   16.8141  -15.5130   21.1658 N   0  0  0  0  0  0  0  0  0  0  0  0
   11.0920  -15.6581   21.5971 C   0  0  2  0  0  0  0  0  0  0  0  0
   10.5833  -15.4769   22.9659 C   0  0  0  0  0  0  0  0  0  0  0  0
    9.2566  -16.2172   23.0374 C   0  0  0  0  0  0  0  0  0  0  0  0
    8.2866  -15.5279   22.1739 C   0  0  0  0  0  0  0  0  0  0  0  0
    8.1751  -14.1421   22.0577 N   0  0  0  0  0  0  0  0  0  0  0  0
    7.1982  -13.8413   21.1946 C   0  0  0  0  0  0  0  0  0  0  0  0
    6.6852  -14.9971   20.7587 N   0  0  0  0  0  0  0  0  0  0  0  0
    7.3541  -16.0116   21.3604 C   0  0  0  0  0  0  0  0  0  0  0  0
   11.5292  -16.1437   23.8803 O   0  0  0  0  0  0  0  0  0  0  0  0
   11.3018  -16.0568   25.2576 O   0  0  0  0  0  0  0  0  0  0  0  0
  1  2  1  0
  2  3  2  0
  4  5  1  0
  4  2  1  0
  6  5  1  0
  7  6  1  0
  8  7  1  0
  8  9  1  6
 10  8  1  0
 10 11  2  0
 12 10  1  0
 13 12  1  0
 13 14  1  1
 14 15  1  0
 15 16  1  0
 16 20  1  0
 16 17  2  0
 18 13  1  0
 19 18  2  0
 21 18  1  0
 22 29  1  0
 22 21  1  0
 22 23  1  6
 24 23  1  0
 25 24  2  0
 26 27  1  0
 26 25  1  0
 27 28  2  0
 28 24  1  0
 29 30  1  0
 31 29  2  0
M  END
$$$$
