REH.pdb
     RDKit          3D

 31 31  0  0  1  0  0  0  0  0999 V2000
    6.0876  -14.1703   18.6411 N   0  0  0  0  0  0  0  0  0  0  0  0
    6.0719  -13.6332   17.3112 C   0  0  0  0  0  0  0  0  0  0  0  0
    5.1678  -12.7748   16.9976 N   0  0  0  0  0  0  0  0  0  0  0  0
    7.0121  -14.0103   16.3299 N   0  0  0  0  0  0  0  0  0  0  0  0
    8.1481  -14.8157   16.6430 C   0  0  0  0  0  0  0  0  0  0  0  0
    8.7784  -14.5258   17.9725 C   0  0  0  0  0  0  0  0  0  0  0  0
   10.0387  -13.7200   17.8919 C   0  0  0  0  0  0  0  0  0  0  0  0
   11.2295  -14.6458   18.0132 C   0  0  2  0  0  0  0  0  0  0  0  0
   10.9847  -15.7599   17.0829 N   0  0  0  0  0  0  0  0  0  0  0  0
   11.3338  -15.2607   19.3602 C   0  0  0  0  0  0  0  0  0  0  0  0
   11.3788  -14.5934   20.4323 O   0  0  0  0  0  0  0  0  0  0  0  0
    5.1246  -12.3638   16.0440 N   0  0  0  0  0  0  0  0  0  0  0  0
   11.3878  -16.6896   19.4835 C   0  0  1  0  0  0  0  0  0  0  0  0
   11.5347  -17.3733   20.7211 C   0  0  0  0  0  0  0  0  0  0  0  0
   10.9694  -18.7343   20.8502 C   0  0  0  0  0  0  0  0  0  0  0  0
   11.2891  -19.7526   19.8373 C   0  0  0  0  0  0  0  0  0  0  0  0
   10.7159  -21.0758   19.9691 O   0  0  0  0  0  0  0  0  0  0  0  0
    9.7020  -21.3008   20.6541 C   0  0  0  0  0  0  0  0  0  0  0  0
   12.9669  -17.3834   21.0924 O   0  0  0  0  0  0  0  0  0  0  0  0
   13.8352  -17.9882   20.4145 O   0  0  0  0  0  0  0  0  0  0  0  0
   11.3023  -22.1471   19.3161 N   0  0  0  0  0  0  0  0  0  0  0  0
   13.4061  -16.6907   22.2558 C   0  0  1  0  0  0  0  0  0  0  0  0
   14.8165  -16.7347   22.6731 C   0  0  0  0  0  0  0  0  0  0  0  0
   15.3578  -15.3212   22.5229 C   0  0  0  0  0  0  0  0  0  0  0  0
   15.7014  -15.0970   21.1110 C   0  0  0  0  0  0  0  0  0  0  0  0
   14.8306  -14.5654   20.1594 N   0  0  0  0  0  0  0  0  0  0  0  0
   15.4497  -14.4928   18.9756 C   0  0  0  0  0  0  0  0  0  0  0  0
   16.6898  -14.9633   19.1479 N   0  0  0  0  0  0  0  0  0  0  0  0
   16.8291  -15.3262   20.4469 C   0  0  0  0  0  0  0  0  0  0  0  0
   14.8425  -17.0847   24.1056 O   0  0  0  0  0  0  0  0  0  0  0  0
   16.0819  -17.2010   24.7433 O   0  0  0  0  0  0  0  0  0  0  0  0
  1  2  1  0
  2  3  2  0
  4  5  1  0
  4  2  1  0
  6  5  1  0
  7  6  1  0
  8  7  1  0
  8  9  1  6
 10  8  1  0
 10 11  2  0
 12 10  1  0
 13 12  1  0
 13 14  1  1
 14 15  1  0
 15 16  1  0
 16 20  1  0
 16 17  2  0
 18 13  1  0
 19 18  2  0
 21 18  1  0
 22 29  1  0
 22 21  1  0
 22 23  1  1
 24 23  1  0
 25 24  2  0
 26 27  1  0
 26 25  1  0
 27 28  2  0
 28 24  1  0
 29 30  1  0
 31 29  2  0
M  END
$$$$
