REH.pdb
     RDKit          3D

 31 31  0  0  1  0  0  0  0  0999 V2000
    7.9016  -11.6529   19.1027 N   0  0  0  0  0  0  0  0  0  0  0  0
    8.0558  -12.8114   18.2711 C   0  0  0  0  0  0  0  0  0  0  0  0
    7.9658  -12.6782   16.9957 N   0  0  0  0  0  0  0  0  0  0  0  0
    8.3030  -14.0960   18.7984 N   0  0  0  0  0  0  0  0  0  0  0  0
    8.5332  -15.2257   17.9569 C   0  0  0  0  0  0  0  0  0  0  0  0
    8.6379  -16.5367   18.6776 C   0  0  0  0  0  0  0  0  0  0  0  0
    8.8286  -17.7188   17.7773 C   0  0  0  0  0  0  0  0  0  0  0  0
    8.8784  -18.9784   18.6142 C   0  0  2  0  0  0  0  0  0  0  0  0
    7.5149  -19.1896   19.1269 N   0  0  0  0  0  0  0  0  0  0  0  0
    9.7411  -18.8282   19.8128 C   0  0  0  0  0  0  0  0  0  0  0  0
    9.3485  -18.3107   20.8968 O   0  0  0  0  0  0  0  0  0  0  0  0
    8.0779  -13.4933   16.3608 N   0  0  0  0  0  0  0  0  0  0  0  0
   11.1002  -19.2871   19.7686 C   0  0  2  0  0  0  0  0  0  0  0  0
   11.9738  -19.2863   20.8899 C   0  0  0  0  0  0  0  0  0  0  0  0
   12.8055  -20.4838   21.1409 C   0  0  0  0  0  0  0  0  0  0  0  0
   13.9973  -20.7269   20.3128 C   0  0  0  0  0  0  0  0  0  0  0  0
   14.2529  -22.0679   19.8297 O   0  0  0  0  0  0  0  0  0  0  0  0
   13.7251  -22.5193   18.7974 C   0  0  0  0  0  0  0  0  0  0  0  0
   12.8293  -18.0809   20.8262 O   0  0  0  0  0  0  0  0  0  0  0  0
   13.9415  -18.0732   20.2410 O   0  0  0  0  0  0  0  0  0  0  0  0
   15.1147  -22.8973   20.5276 N   0  0  0  0  0  0  0  0  0  0  0  0
   12.4019  -16.8707   21.4419 C   0  0  2  0  0  0  0  0  0  0  0  0
   12.8829  -16.4941   22.7806 C   0  0  0  0  0  0  0  0  0  0  0  0
   12.1774  -17.4101   23.7688 C   0  0  0  0  0  0  0  0  0  0  0  0
   10.8543  -16.8449   24.0716 C   0  0  0  0  0  0  0  0  0  0  0  0
   10.3132  -15.7194   23.4496 N   0  0  0  0  0  0  0  0  0  0  0  0
    9.0991  -15.4688   23.9526 C   0  0  0  0  0  0  0  0  0  0  0  0
    8.8530  -16.4035   24.8772 N   0  0  0  0  0  0  0  0  0  0  0  0
    9.9253  -17.2312   24.9393 C   0  0  0  0  0  0  0  0  0  0  0  0
   14.3266  -16.7919   22.8311 O   0  0  0  0  0  0  0  0  0  0  0  0
   15.0959  -16.2039   23.8404 O   0  0  0  0  0  0  0  0  0  0  0  0
  1  2  1  0
  2  3  2  0
  4  5  1  0
  4  2  1  0
  6  5  1  0
  7  6  1  0
  8  7  1  0
  8  9  1  1
 10  8  1  0
 10 11  2  0
 12 10  1  0
 13 12  1  0
 13 14  1  6
 14 15  1  0
 15 16  1  0
 16 20  1  0
 16 17  2  0
 18 13  1  0
 19 18  2  0
 21 18  1  0
 22 29  1  0
 22 21  1  0
 22 23  1  6
 24 23  1  0
 25 24  2  0
 26 27  1  0
 26 25  1  0
 27 28  2  0
 28 24  1  0
 29 30  1  0
 31 29  2  0
M  END
$$$$
