REH.pdb
     RDKit          3D

 31 31  0  0  1  0  0  0  0  0999 V2000
    5.7810  -15.1453   13.5328 N   0  0  0  0  0  0  0  0  0  0  0  0
    6.5979  -14.0930   14.0644 C   0  0  0  0  0  0  0  0  0  0  0  0
    6.3841  -12.8849   13.6802 N   0  0  0  0  0  0  0  0  0  0  0  0
    7.6306  -14.3311   14.9950 N   0  0  0  0  0  0  0  0  0  0  0  0
    7.8893  -15.6335   15.5185 C   0  0  0  0  0  0  0  0  0  0  0  0
    9.0283  -15.7063   16.4915 C   0  0  0  0  0  0  0  0  0  0  0  0
   10.0767  -14.6555   16.2893 C   0  0  0  0  0  0  0  0  0  0  0  0
   11.3939  -15.3239   15.9613 C   0  0  2  0  0  0  0  0  0  0  0  0
   11.0599  -16.6237   15.3566 N   0  0  0  0  0  0  0  0  0  0  0  0
   12.1882  -15.6364   17.1757 C   0  0  0  0  0  0  0  0  0  0  0  0
   12.2251  -16.7799   17.7124 O   0  0  0  0  0  0  0  0  0  0  0  0
    7.0166  -12.1108   13.9641 N   0  0  0  0  0  0  0  0  0  0  0  0
   12.9678  -14.6037   17.7967 C   0  0  2  0  0  0  0  0  0  0  0  0
   13.8290  -14.8198   18.9068 C   0  0  0  0  0  0  0  0  0  0  0  0
   15.0810  -14.0367   18.9952 C   0  0  0  0  0  0  0  0  0  0  0  0
   16.3092  -14.5584   18.3751 C   0  0  0  0  0  0  0  0  0  0  0  0
   17.2907  -13.6217   17.8689 O   0  0  0  0  0  0  0  0  0  0  0  0
   17.5878  -13.5501   16.6628 C   0  0  0  0  0  0  0  0  0  0  0  0
   13.0470  -14.6654   20.1532 O   0  0  0  0  0  0  0  0  0  0  0  0
   12.0402  -13.9172   20.2295 O   0  0  0  0  0  0  0  0  0  0  0  0
   17.9360  -12.7628   18.7428 N   0  0  0  0  0  0  0  0  0  0  0  0
   13.4263  -15.3789   21.3251 C   0  0  2  0  0  0  0  0  0  0  0  0
   12.4138  -16.0187   22.1801 C   0  0  0  0  0  0  0  0  0  0  0  0
   11.7434  -17.0889   21.3323 C   0  0  0  0  0  0  0  0  0  0  0  0
   10.7977  -17.8334   22.1767 C   0  0  0  0  0  0  0  0  0  0  0  0
   10.5323  -17.5416   23.5149 N   0  0  0  0  0  0  0  0  0  0  0  0
    9.6284  -18.4050   23.9917 C   0  0  0  0  0  0  0  0  0  0  0  0
    9.3116  -19.2378   22.9941 N   0  0  0  0  0  0  0  0  0  0  0  0
   10.0277  -18.8801   21.8996 C   0  0  0  0  0  0  0  0  0  0  0  0
   13.1272  -16.6891   23.2833 O   0  0  0  0  0  0  0  0  0  0  0  0
   14.4556  -17.0777   23.0821 O   0  0  0  0  0  0  0  0  0  0  0  0
  1  2  1  0
  2  3  2  0
  4  5  1  0
  4  2  1  0
  6  5  1  0
  7  6  1  0
  8  7  1  0
  8  9  1  1
 10  8  1  0
 10 11  2  0
 12 10  1  0
 13 12  1  0
 13 14  1  6
 14 15  1  0
 15 16  1  0
 16 20  1  0
 16 17  2  0
 18 13  1  0
 19 18  2  0
 21 18  1  0
 22 29  1  0
 22 21  1  0
 22 23  1  6
 24 23  1  0
 25 24  2  0
 26 27  1  0
 26 25  1  0
 27 28  2  0
 28 24  1  0
 29 30  1  0
 31 29  2  0
M  END
$$$$
