REH.pdb
     RDKit          3D

 31 31  0  0  1  0  0  0  0  0999 V2000
   10.4048  -13.4226   19.2428 N   0  0  0  0  0  0  0  0  0  0  0  0
    9.3337  -12.5677   18.8192 C   0  0  0  0  0  0  0  0  0  0  0  0
    9.4544  -11.2970   18.9721 N   0  0  0  0  0  0  0  0  0  0  0  0
    8.1488  -13.0670   18.2398 N   0  0  0  0  0  0  0  0  0  0  0  0
    7.6127  -14.3409   18.5965 C   0  0  0  0  0  0  0  0  0  0  0  0
    7.6484  -14.6507   20.0634 C   0  0  0  0  0  0  0  0  0  0  0  0
    7.1119  -16.0035   20.4185 C   0  0  0  0  0  0  0  0  0  0  0  0
    8.1515  -17.0528   20.0899 C   0  0  2  0  0  0  0  0  0  0  0  0
    7.4152  -18.3039   19.8468 N   0  0  0  0  0  0  0  0  0  0  0  0
    9.0551  -17.3325   21.2339 C   0  0  0  0  0  0  0  0  0  0  0  0
    8.7099  -17.9973   22.2516 O   0  0  0  0  0  0  0  0  0  0  0  0
    8.6904  -10.6478   18.6984 N   0  0  0  0  0  0  0  0  0  0  0  0
   10.4007  -16.8339   21.2112 C   0  0  2  0  0  0  0  0  0  0  0  0
   11.3367  -17.0309   22.2628 C   0  0  0  0  0  0  0  0  0  0  0  0
   12.7244  -16.5539   22.0748 C   0  0  0  0  0  0  0  0  0  0  0  0
   13.7292  -16.8137   23.1179 C   0  0  0  0  0  0  0  0  0  0  0  0
   15.1058  -16.4364   22.8739 O   0  0  0  0  0  0  0  0  0  0  0  0
   15.5445  -15.3012   23.1325 C   0  0  0  0  0  0  0  0  0  0  0  0
   10.7744  -16.4711   23.5116 O   0  0  0  0  0  0  0  0  0  0  0  0
   10.7062  -15.2346   23.7257 O   0  0  0  0  0  0  0  0  0  0  0  0
   15.9857  -17.3586   22.3326 N   0  0  0  0  0  0  0  0  0  0  0  0
   10.2852  -17.3420   24.5258 C   0  0  1  0  0  0  0  0  0  0  0  0
    9.9486  -16.8291   25.8633 C   0  0  0  0  0  0  0  0  0  0  0  0
    8.4679  -17.1059   26.0742 C   0  0  0  0  0  0  0  0  0  0  0  0
    7.6950  -16.2492   25.1630 C   0  0  0  0  0  0  0  0  0  0  0  0
    7.7426  -14.8549   25.1565 N   0  0  0  0  0  0  0  0  0  0  0  0
    6.9230  -14.3823   24.2106 C   0  0  0  0  0  0  0  0  0  0  0  0
    6.3555  -15.4372   23.6153 N   0  0  0  0  0  0  0  0  0  0  0  0
    6.8322  -16.5627   24.2025 C   0  0  0  0  0  0  0  0  0  0  0  0
   10.7074  -17.6258   26.8456 O   0  0  0  0  0  0  0  0  0  0  0  0
   10.5475  -17.3397   28.2053 O   0  0  0  0  0  0  0  0  0  0  0  0
  1  2  1  0
  2  3  2  0
  4  5  1  0
  4  2  1  0
  6  5  1  0
  7  6  1  0
  8  7  1  0
  8  9  1  1
 10  8  1  0
 10 11  2  0
 12 10  1  0
 13 12  1  0
 13 14  1  6
 14 15  1  0
 15 16  1  0
 16 20  1  0
 16 17  2  0
 18 13  1  0
 19 18  2  0
 21 18  1  0
 22 29  1  0
 22 21  1  0
 22 23  1  1
 24 23  1  0
 25 24  2  0
 26 27  1  0
 26 25  1  0
 27 28  2  0
 28 24  1  0
 29 30  1  0
 31 29  2  0
M  END
$$$$
