REH.pdb
     RDKit          3D

 31 31  0  0  1  0  0  0  0  0999 V2000
    8.8799  -11.3260   19.1858 N   0  0  0  0  0  0  0  0  0  0  0  0
    9.2566  -12.6514   18.7874 C   0  0  0  0  0  0  0  0  0  0  0  0
   10.4371  -12.8481   18.3180 N   0  0  0  0  0  0  0  0  0  0  0  0
    8.3805  -13.7520   18.8899 N   0  0  0  0  0  0  0  0  0  0  0  0
    7.0901  -13.6362   19.4889 C   0  0  0  0  0  0  0  0  0  0  0  0
    6.3121  -14.9162   19.5609 C   0  0  0  0  0  0  0  0  0  0  0  0
    6.0425  -15.3933   20.9551 C   0  0  0  0  0  0  0  0  0  0  0  0
    7.3576  -15.6884   21.6428 C   0  0  2  0  0  0  0  0  0  0  0  0
    7.8730  -16.9272   21.0375 N   0  0  0  0  0  0  0  0  0  0  0  0
    7.1871  -15.9860   23.0871 C   0  0  0  0  0  0  0  0  0  0  0  0
    6.7592  -15.1461   23.9286 O   0  0  0  0  0  0  0  0  0  0  0  0
   10.7475  -13.7951   18.0232 N   0  0  0  0  0  0  0  0  0  0  0  0
    7.5176  -17.2911   23.5845 C   0  0  2  0  0  0  0  0  0  0  0  0
    7.4052  -17.6707   24.9498 C   0  0  0  0  0  0  0  0  0  0  0  0
    7.3925  -19.1113   25.2859 C   0  0  0  0  0  0  0  0  0  0  0  0
    7.2026  -19.5293   26.6839 C   0  0  0  0  0  0  0  0  0  0  0  0
    7.1483  -20.9434   26.9911 O   0  0  0  0  0  0  0  0  0  0  0  0
    6.8299  -21.7999   26.1467 C   0  0  0  0  0  0  0  0  0  0  0  0
    8.4598  -16.9801   25.7244 O   0  0  0  0  0  0  0  0  0  0  0  0
    9.6780  -17.0606   25.4260 O   0  0  0  0  0  0  0  0  0  0  0  0
    7.4586  -21.3820   28.2675 N   0  0  0  0  0  0  0  0  0  0  0  0
    8.1106  -16.1882   26.8545 C   0  0  2  0  0  0  0  0  0  0  0  0
    9.1499  -15.6011   27.7151 C   0  0  0  0  0  0  0  0  0  0  0  0
    8.5631  -14.3228   28.2938 C   0  0  0  0  0  0  0  0  0  0  0  0
    8.3199  -13.3774   27.1943 C   0  0  0  0  0  0  0  0  0  0  0  0
    8.7159  -13.5821   25.8723 N   0  0  0  0  0  0  0  0  0  0  0  0
    8.3446  -12.5360   25.1256 C   0  0  0  0  0  0  0  0  0  0  0  0
    7.7235  -11.6718   25.9358 N   0  0  0  0  0  0  0  0  0  0  0  0
    7.7156  -12.1941   27.1871 C   0  0  0  0  0  0  0  0  0  0  0  0
    9.3852  -16.5410   28.8272 O   0  0  0  0  0  0  0  0  0  0  0  0
   10.5000  -16.3407   29.6476 O   0  0  0  0  0  0  0  0  0  0  0  0
  1  2  1  0
  2  3  2  0
  4  5  1  0
  4  2  1  0
  6  5  1  0
  7  6  1  0
  8  7  1  0
  8  9  1  6
 10  8  1  0
 10 11  2  0
 12 10  1  0
 13 12  1  0
 13 14  1  6
 14 15  1  0
 15 16  1  0
 16 20  1  0
 16 17  2  0
 18 13  1  0
 19 18  2  0
 21 18  1  0
 22 29  1  0
 22 21  1  0
 22 23  1  6
 24 23  1  0
 25 24  2  0
 26 27  1  0
 26 25  1  0
 27 28  2  0
 28 24  1  0
 29 30  1  0
 31 29  2  0
M  END
$$$$
