REH.pdb
     RDKit          3D

 31 31  0  0  1  0  0  0  0  0999 V2000
    9.7287  -14.4640   16.1329 N   0  0  0  0  0  0  0  0  0  0  0  0
    8.4690  -14.1912   15.5036 C   0  0  0  0  0  0  0  0  0  0  0  0
    8.3266  -14.4594   14.2544 N   0  0  0  0  0  0  0  0  0  0  0  0
    7.3760  -13.6382   16.2026 N   0  0  0  0  0  0  0  0  0  0  0  0
    7.4827  -13.2233   17.5642 C   0  0  0  0  0  0  0  0  0  0  0  0
    7.6071  -14.3418   18.5554 C   0  0  0  0  0  0  0  0  0  0  0  0
    7.5196  -13.9069   19.9863 C   0  0  0  0  0  0  0  0  0  0  0  0
    8.8359  -14.1942   20.6749 C   0  0  2  0  0  0  0  0  0  0  0  0
    9.6624  -14.9253   19.7007 N   0  0  0  0  0  0  0  0  0  0  0  0
    8.6805  -15.1056   21.8362 C   0  0  0  0  0  0  0  0  0  0  0  0
    7.7660  -14.9879   22.7003 O   0  0  0  0  0  0  0  0  0  0  0  0
    7.4679  -14.1812   13.7394 N   0  0  0  0  0  0  0  0  0  0  0  0
    9.6040  -16.1898   22.0134 C   0  0  1  0  0  0  0  0  0  0  0  0
    9.5832  -17.0747   23.1257 C   0  0  0  0  0  0  0  0  0  0  0  0
   10.3899  -18.3132   23.0610 C   0  0  0  0  0  0  0  0  0  0  0  0
   10.3619  -19.2579   24.1888 C   0  0  0  0  0  0  0  0  0  0  0  0
   11.1504  -20.4697   24.1072 O   0  0  0  0  0  0  0  0  0  0  0  0
   12.2928  -20.4930   23.6148 C   0  0  0  0  0  0  0  0  0  0  0  0
    9.9242  -16.3125   24.3470 O   0  0  0  0  0  0  0  0  0  0  0  0
   10.9952  -15.6649   24.4609 O   0  0  0  0  0  0  0  0  0  0  0  0
   10.6330  -21.6602   24.5897 N   0  0  0  0  0  0  0  0  0  0  0  0
    9.0244  -16.2942   25.4499 C   0  0  2  0  0  0  0  0  0  0  0  0
    9.4004  -15.6540   26.7203 C   0  0  0  0  0  0  0  0  0  0  0  0
    8.1037  -15.3650   27.4611 C   0  0  0  0  0  0  0  0  0  0  0  0
    7.5018  -14.1475   26.8978 C   0  0  0  0  0  0  0  0  0  0  0  0
    8.1173  -13.3236   25.9552 N   0  0  0  0  0  0  0  0  0  0  0  0
    7.3062  -12.3035   25.6531 C   0  0  0  0  0  0  0  0  0  0  0  0
    6.1920  -12.4557   26.3773 N   0  0  0  0  0  0  0  0  0  0  0  0
    6.3239  -13.5775   27.1276 C   0  0  0  0  0  0  0  0  0  0  0  0
   10.1644  -16.6427   27.5039 O   0  0  0  0  0  0  0  0  0  0  0  0
   10.6996  -16.2509   28.7353 O   0  0  0  0  0  0  0  0  0  0  0  0
  1  2  1  0
  2  3  2  0
  4  5  1  0
  4  2  1  0
  6  5  1  0
  7  6  1  0
  8  7  1  0
  8  9  1  6
 10  8  1  0
 10 11  2  0
 12 10  1  0
 13 12  1  0
 13 14  1  1
 14 15  1  0
 15 16  1  0
 16 20  1  0
 16 17  2  0
 18 13  1  0
 19 18  2  0
 21 18  1  0
 22 29  1  0
 22 21  1  0
 22 23  1  6
 24 23  1  0
 25 24  2  0
 26 27  1  0
 26 25  1  0
 27 28  2  0
 28 24  1  0
 29 30  1  0
 31 29  2  0
M  END
$$$$
