REH.pdb
     RDKit          3D

 31 31  0  0  1  0  0  0  0  0999 V2000
    8.9270  -16.1543   17.1944 N   0  0  0  0  0  0  0  0  0  0  0  0
    7.9613  -15.5582   16.3173 C   0  0  0  0  0  0  0  0  0  0  0  0
    7.3233  -16.3094   15.4918 N   0  0  0  0  0  0  0  0  0  0  0  0
    7.6824  -14.1757   16.3237 N   0  0  0  0  0  0  0  0  0  0  0  0
    8.3635  -13.2724   17.1941 C   0  0  0  0  0  0  0  0  0  0  0  0
    7.6105  -12.9092   18.4391 C   0  0  0  0  0  0  0  0  0  0  0  0
    7.4540  -14.0366   19.4131 C   0  0  0  0  0  0  0  0  0  0  0  0
    8.1061  -13.6553   20.7242 C   0  0  2  0  0  0  0  0  0  0  0  0
    9.4584  -13.1788   20.3914 N   0  0  0  0  0  0  0  0  0  0  0  0
    8.2992  -14.8223   21.6210 C   0  0  0  0  0  0  0  0  0  0  0  0
    7.3479  -15.5105   22.0882 O   0  0  0  0  0  0  0  0  0  0  0  0
    6.5804  -15.9223   14.8766 N   0  0  0  0  0  0  0  0  0  0  0  0
    9.6279  -15.2149   21.9953 C   0  0  1  0  0  0  0  0  0  0  0  0
    9.9230  -16.3563   22.7896 C   0  0  0  0  0  0  0  0  0  0  0  0
   11.2171  -17.0442   22.5885 C   0  0  0  0  0  0  0  0  0  0  0  0
   11.5061  -18.2800   23.3332 C   0  0  0  0  0  0  0  0  0  0  0  0
   12.7906  -18.9234   23.1511 O   0  0  0  0  0  0  0  0  0  0  0  0
   13.1531  -19.8988   23.8330 C   0  0  0  0  0  0  0  0  0  0  0  0
    9.7562  -15.9997   24.2158 O   0  0  0  0  0  0  0  0  0  0  0  0
   10.2791  -14.9743   24.7204 O   0  0  0  0  0  0  0  0  0  0  0  0
   13.6651  -18.4517   22.1865 N   0  0  0  0  0  0  0  0  0  0  0  0
    8.9798  -16.8309   25.0718 C   0  0  1  0  0  0  0  0  0  0  0  0
    8.8825  -16.5487   26.5128 C   0  0  0  0  0  0  0  0  0  0  0  0
    7.4509  -16.1054   26.7725 C   0  0  0  0  0  0  0  0  0  0  0  0
    7.3710  -14.6478   26.5970 C   0  0  0  0  0  0  0  0  0  0  0  0
    6.5653  -14.0070   25.6554 N   0  0  0  0  0  0  0  0  0  0  0  0
    6.7252  -12.6825   25.7552 C   0  0  0  0  0  0  0  0  0  0  0  0
    7.6100  -12.4631   26.7339 N   0  0  0  0  0  0  0  0  0  0  0  0
    7.9936  -13.6630   27.2356 C   0  0  0  0  0  0  0  0  0  0  0  0
    9.1048  -17.8196   27.2276 O   0  0  0  0  0  0  0  0  0  0  0  0
    9.1067  -17.8087   28.6262 O   0  0  0  0  0  0  0  0  0  0  0  0
  1  2  1  0
  2  3  2  0
  4  5  1  0
  4  2  1  0
  6  5  1  0
  7  6  1  0
  8  7  1  0
  8  9  1  6
 10  8  1  0
 10 11  2  0
 12 10  1  0
 13 12  1  0
 13 14  1  1
 14 15  1  0
 15 16  1  0
 16 20  1  0
 16 17  2  0
 18 13  1  0
 19 18  2  0
 21 18  1  0
 22 29  1  0
 22 21  1  0
 22 23  1  1
 24 23  1  0
 25 24  2  0
 26 27  1  0
 26 25  1  0
 27 28  2  0
 28 24  1  0
 29 30  1  0
 31 29  2  0
M  END
$$$$
