REH.pdb
     RDKit          3D

 31 31  0  0  1  0  0  0  0  0999 V2000
    8.0327  -15.0093   15.8723 N   0  0  0  0  0  0  0  0  0  0  0  0
    7.7617  -13.6127   16.0546 C   0  0  0  0  0  0  0  0  0  0  0  0
    7.0353  -13.0015   15.1877 N   0  0  0  0  0  0  0  0  0  0  0  0
    8.2621  -12.8798   17.1509 N   0  0  0  0  0  0  0  0  0  0  0  0
    7.7941  -13.0982   18.4815 C   0  0  0  0  0  0  0  0  0  0  0  0
    7.5303  -14.5331   18.8287 C   0  0  0  0  0  0  0  0  0  0  0  0
    8.7564  -15.3933   18.8583 C   0  0  0  0  0  0  0  0  0  0  0  0
    9.5387  -15.1008   20.1201 C   0  0  2  0  0  0  0  0  0  0  0  0
   10.9216  -15.5327   19.8598 N   0  0  0  0  0  0  0  0  0  0  0  0
    9.0742  -15.9097   21.2747 C   0  0  0  0  0  0  0  0  0  0  0  0
    7.9158  -15.8194   21.7713 O   0  0  0  0  0  0  0  0  0  0  0  0
    6.8200  -11.9894   15.2846 N   0  0  0  0  0  0  0  0  0  0  0  0
    9.9674  -16.8554   21.8812 C   0  0  1  0  0  0  0  0  0  0  0  0
    9.5881  -17.7521   22.9169 C   0  0  0  0  0  0  0  0  0  0  0  0
   10.1397  -19.1248   22.9029 C   0  0  0  0  0  0  0  0  0  0  0  0
    9.9832  -19.9581   21.7003 C   0  0  0  0  0  0  0  0  0  0  0  0
   10.5696  -21.2821   21.6843 O   0  0  0  0  0  0  0  0  0  0  0  0
   11.7759  -21.4770   21.4505 C   0  0  0  0  0  0  0  0  0  0  0  0
    9.8580  -17.1122   24.2233 O   0  0  0  0  0  0  0  0  0  0  0  0
   10.8980  -16.4422   24.4442 O   0  0  0  0  0  0  0  0  0  0  0  0
    9.7758  -22.3885   21.9363 N   0  0  0  0  0  0  0  0  0  0  0  0
    8.9221  -17.2436   25.2878 C   0  0  2  0  0  0  0  0  0  0  0  0
    9.2143  -16.6952   26.6217 C   0  0  0  0  0  0  0  0  0  0  0  0
    7.8836  -16.2500   27.2088 C   0  0  0  0  0  0  0  0  0  0  0  0
    7.5286  -14.9449   26.6324 C   0  0  0  0  0  0  0  0  0  0  0  0
    8.4474  -14.0333   26.1117 N   0  0  0  0  0  0  0  0  0  0  0  0
    7.8017  -12.9484   25.6692 C   0  0  0  0  0  0  0  0  0  0  0  0
    6.4979  -13.1446   25.8939 N   0  0  0  0  0  0  0  0  0  0  0  0
    6.3462  -14.3587   26.4784 C   0  0  0  0  0  0  0  0  0  0  0  0
    9.7328  -17.8003   27.4496 O   0  0  0  0  0  0  0  0  0  0  0  0
   10.1205  -17.5255   28.7650 O   0  0  0  0  0  0  0  0  0  0  0  0
  1  2  1  0
  2  3  2  0
  4  5  1  0
  4  2  1  0
  6  5  1  0
  7  6  1  0
  8  7  1  0
  8  9  1  6
 10  8  1  0
 10 11  2  0
 12 10  1  0
 13 12  1  0
 13 14  1  1
 14 15  1  0
 15 16  1  0
 16 20  1  0
 16 17  2  0
 18 13  1  0
 19 18  2  0
 21 18  1  0
 22 29  1  0
 22 21  1  0
 22 23  1  6
 24 23  1  0
 25 24  2  0
 26 27  1  0
 26 25  1  0
 27 28  2  0
 28 24  1  0
 29 30  1  0
 31 29  2  0
M  END
$$$$
