REH.pdb
     RDKit          3D

 31 31  0  0  1  0  0  0  0  0999 V2000
    9.1145  -13.1008   17.6707 N   0  0  0  0  0  0  0  0  0  0  0  0
    8.6703  -12.6118   18.9438 C   0  0  0  0  0  0  0  0  0  0  0  0
    8.6627  -11.3437   19.1550 N   0  0  0  0  0  0  0  0  0  0  0  0
    8.2400  -13.4694   19.9776 N   0  0  0  0  0  0  0  0  0  0  0  0
    7.0906  -14.3039   19.8366 C   0  0  0  0  0  0  0  0  0  0  0  0
    7.2611  -15.7026   20.3499 C   0  0  0  0  0  0  0  0  0  0  0  0
    7.5323  -15.7882   21.8207 C   0  0  0  0  0  0  0  0  0  0  0  0
    7.7107  -17.2395   22.2098 C   0  0  2  0  0  0  0  0  0  0  0  0
    6.4012  -17.8839   22.0185 N   0  0  0  0  0  0  0  0  0  0  0  0
    8.0346  -17.4042   23.6491 C   0  0  0  0  0  0  0  0  0  0  0  0
    7.1686  -17.3743   24.5688 O   0  0  0  0  0  0  0  0  0  0  0  0
    8.4033  -10.9550   20.0833 N   0  0  0  0  0  0  0  0  0  0  0  0
    9.3975  -17.6108   24.0486 C   0  0  2  0  0  0  0  0  0  0  0  0
    9.8191  -17.7182   25.4019 C   0  0  0  0  0  0  0  0  0  0  0  0
   11.0020  -18.5509   25.7116 C   0  0  0  0  0  0  0  0  0  0  0  0
   11.0643  -19.9360   25.2189 C   0  0  0  0  0  0  0  0  0  0  0  0
   12.2740  -20.7023   25.4340 O   0  0  0  0  0  0  0  0  0  0  0  0
   12.9965  -21.0891   24.4979 C   0  0  0  0  0  0  0  0  0  0  0  0
   10.0003  -16.3574   25.9536 O   0  0  0  0  0  0  0  0  0  0  0  0
   10.6459  -15.4648   25.3488 O   0  0  0  0  0  0  0  0  0  0  0  0
   12.6609  -21.0286   26.7230 N   0  0  0  0  0  0  0  0  0  0  0  0
    9.4331  -16.0185   27.2145 C   0  0  1  0  0  0  0  0  0  0  0  0
    9.7275  -14.7251   27.8514 C   0  0  0  0  0  0  0  0  0  0  0  0
    8.3884  -14.0452   28.0922 C   0  0  0  0  0  0  0  0  0  0  0  0
    7.8386  -13.6178   26.7974 C   0  0  0  0  0  0  0  0  0  0  0  0
    6.5672  -13.0719   26.6187 N   0  0  0  0  0  0  0  0  0  0  0  0
    6.3767  -12.7922   25.3244 C   0  0  0  0  0  0  0  0  0  0  0  0
    7.4915  -13.1450   24.6749 N   0  0  0  0  0  0  0  0  0  0  0  0
    8.3695  -13.6441   25.5797 C   0  0  0  0  0  0  0  0  0  0  0  0
   10.3394  -15.0081   29.1633 O   0  0  0  0  0  0  0  0  0  0  0  0
   10.7519  -13.9314   29.9550 O   0  0  0  0  0  0  0  0  0  0  0  0
  1  2  1  0
  2  3  2  0
  4  5  1  0
  4  2  1  0
  6  5  1  0
  7  6  1  0
  8  7  1  0
  8  9  1  1
 10  8  1  0
 10 11  2  0
 12 10  1  0
 13 12  1  0
 13 14  1  6
 14 15  1  0
 15 16  1  0
 16 20  1  0
 16 17  2  0
 18 13  1  0
 19 18  2  0
 21 18  1  0
 22 29  1  0
 22 21  1  0
 22 23  1  1
 24 23  1  0
 25 24  2  0
 26 27  1  0
 26 25  1  0
 27 28  2  0
 28 24  1  0
 29 30  1  0
 31 29  2  0
M  END
$$$$
