REH.pdb
     RDKit          3D

 31 31  0  0  1  0  0  0  0  0999 V2000
    7.6077  -12.1934   16.8927 N   0  0  0  0  0  0  0  0  0  0  0  0
    7.8359  -13.5545   16.5022 C   0  0  0  0  0  0  0  0  0  0  0  0
    7.4971  -13.9277   15.3196 N   0  0  0  0  0  0  0  0  0  0  0  0
    8.4191  -14.5040   17.3669 N   0  0  0  0  0  0  0  0  0  0  0  0
    8.9103  -14.1470   18.6587 C   0  0  0  0  0  0  0  0  0  0  0  0
    7.8499  -13.8186   19.6670 C   0  0  0  0  0  0  0  0  0  0  0  0
    7.3947  -14.9896   20.4829 C   0  0  0  0  0  0  0  0  0  0  0  0
    8.5384  -15.9696   20.6277 C   0  0  2  0  0  0  0  0  0  0  0  0
    8.2047  -17.1246   19.7784 N   0  0  0  0  0  0  0  0  0  0  0  0
    8.6548  -16.5042   22.0077 C   0  0  0  0  0  0  0  0  0  0  0  0
    7.6661  -16.8871   22.6952 O   0  0  0  0  0  0  0  0  0  0  0  0
    7.7148  -14.8835   14.9745 N   0  0  0  0  0  0  0  0  0  0  0  0
    9.9484  -16.6042   22.6211 C   0  0  1  0  0  0  0  0  0  0  0  0
   10.1779  -17.1895   23.8960 C   0  0  0  0  0  0  0  0  0  0  0  0
   10.9379  -18.4567   23.9674 C   0  0  0  0  0  0  0  0  0  0  0  0
   11.2006  -19.0732   25.2774 C   0  0  0  0  0  0  0  0  0  0  0  0
   11.9978  -20.2807   25.3362 O   0  0  0  0  0  0  0  0  0  0  0  0
   12.0081  -21.0281   26.3308 C   0  0  0  0  0  0  0  0  0  0  0  0
   10.7977  -16.1777   24.7799 O   0  0  0  0  0  0  0  0  0  0  0  0
   12.0188  -16.1982   25.0761 O   0  0  0  0  0  0  0  0  0  0  0  0
   12.7867  -20.6368   24.2551 N   0  0  0  0  0  0  0  0  0  0  0  0
   10.0052  -15.1306   25.3293 C   0  0  2  0  0  0  0  0  0  0  0  0
    9.6613  -15.1156   26.7600 C   0  0  0  0  0  0  0  0  0  0  0  0
    8.1524  -15.2867   26.8454 C   0  0  0  0  0  0  0  0  0  0  0  0
    7.5140  -14.0075   26.5022 C   0  0  0  0  0  0  0  0  0  0  0  0
    8.2046  -12.8270   26.2272 N   0  0  0  0  0  0  0  0  0  0  0  0
    7.3325  -11.8501   25.9537 C   0  0  0  0  0  0  0  0  0  0  0  0
    6.1064  -12.3765   26.0472 N   0  0  0  0  0  0  0  0  0  0  0  0
    6.2309  -13.6850   26.3805 C   0  0  0  0  0  0  0  0  0  0  0  0
   10.2915  -16.2972   27.3781 O   0  0  0  0  0  0  0  0  0  0  0  0
   10.4887  -16.3024   28.7628 O   0  0  0  0  0  0  0  0  0  0  0  0
  1  2  1  0
  2  3  2  0
  4  5  1  0
  4  2  1  0
  6  5  1  0
  7  6  1  0
  8  7  1  0
  8  9  1  6
 10  8  1  0
 10 11  2  0
 12 10  1  0
 13 12  1  0
 13 14  1  1
 14 15  1  0
 15 16  1  0
 16 20  1  0
 16 17  2  0
 18 13  1  0
 19 18  2  0
 21 18  1  0
 22 29  1  0
 22 21  1  0
 22 23  1  6
 24 23  1  0
 25 24  2  0
 26 27  1  0
 26 25  1  0
 27 28  2  0
 28 24  1  0
 29 30  1  0
 31 29  2  0
M  END
$$$$
