REH.pdb
     RDKit          3D

 31 31  0  0  1  0  0  0  0  0999 V2000
   10.7298  -12.7889   18.8409 N   0  0  0  0  0  0  0  0  0  0  0  0
    9.3610  -12.3979   19.0164 C   0  0  0  0  0  0  0  0  0  0  0  0
    9.1032  -11.2684   19.5736 N   0  0  0  0  0  0  0  0  0  0  0  0
    8.2822  -13.2058   18.6010 N   0  0  0  0  0  0  0  0  0  0  0  0
    7.3567  -13.7662   19.5320 C   0  0  0  0  0  0  0  0  0  0  0  0
    7.6463  -15.1818   19.9333 C   0  0  0  0  0  0  0  0  0  0  0  0
    8.1176  -16.0543   18.8104 C   0  0  0  0  0  0  0  0  0  0  0  0
    8.1898  -17.4873   19.2907 C   0  0  2  0  0  0  0  0  0  0  0  0
    6.7989  -17.9376   19.4622 N   0  0  0  0  0  0  0  0  0  0  0  0
    8.8196  -17.6048   20.6297 C   0  0  0  0  0  0  0  0  0  0  0  0
    8.1729  -17.8466   21.6881 O   0  0  0  0  0  0  0  0  0  0  0  0
    8.1300  -11.0009   19.8213 N   0  0  0  0  0  0  0  0  0  0  0  0
   10.2393  -17.4402   20.7609 C   0  0  2  0  0  0  0  0  0  0  0  0
   10.9924  -17.9107   21.8709 C   0  0  0  0  0  0  0  0  0  0  0  0
   12.4473  -18.1197   21.7026 C   0  0  0  0  0  0  0  0  0  0  0  0
   13.2327  -18.6854   22.8109 C   0  0  0  0  0  0  0  0  0  0  0  0
   14.6574  -18.8750   22.6345 O   0  0  0  0  0  0  0  0  0  0  0  0
   15.5034  -18.1927   23.2400 C   0  0  0  0  0  0  0  0  0  0  0  0
   10.7396  -17.0239   23.0280 O   0  0  0  0  0  0  0  0  0  0  0  0
   11.0659  -15.8103   23.0317 O   0  0  0  0  0  0  0  0  0  0  0  0
   15.1188  -19.8476   21.7632 N   0  0  0  0  0  0  0  0  0  0  0  0
   10.1046  -17.5377   24.1938 C   0  0  1  0  0  0  0  0  0  0  0  0
   10.0641  -16.7540   25.4387 C   0  0  0  0  0  0  0  0  0  0  0  0
    8.5964  -16.5996   25.8067 C   0  0  0  0  0  0  0  0  0  0  0  0
    8.0547  -15.4304   25.0987 C   0  0  0  0  0  0  0  0  0  0  0  0
    8.7776  -14.6434   24.2019 N   0  0  0  0  0  0  0  0  0  0  0  0
    7.9967  -13.6624   23.7353 C   0  0  0  0  0  0  0  0  0  0  0  0
    6.7974  -13.8036   24.3105 N   0  0  0  0  0  0  0  0  0  0  0  0
    6.8464  -14.8791   25.1348 C   0  0  0  0  0  0  0  0  0  0  0  0
   10.7168  -17.5587   26.4884 O   0  0  0  0  0  0  0  0  0  0  0  0
   10.7835  -17.0388   27.7851 O   0  0  0  0  0  0  0  0  0  0  0  0
  1  2  1  0
  2  3  2  0
  4  5  1  0
  4  2  1  0
  6  5  1  0
  7  6  1  0
  8  7  1  0
  8  9  1  1
 10  8  1  0
 10 11  2  0
 12 10  1  0
 13 12  1  0
 13 14  1  6
 14 15  1  0
 15 16  1  0
 16 20  1  0
 16 17  2  0
 18 13  1  0
 19 18  2  0
 21 18  1  0
 22 29  1  0
 22 21  1  0
 22 23  1  1
 24 23  1  0
 25 24  2  0
 26 27  1  0
 26 25  1  0
 27 28  2  0
 28 24  1  0
 29 30  1  0
 31 29  2  0
M  END
$$$$
