REH.pdb
     RDKit          3D

 31 31  0  0  1  0  0  0  0  0999 V2000
    9.8286  -13.2467   19.2072 N   0  0  0  0  0  0  0  0  0  0  0  0
    8.5039  -13.2544   18.6573 C   0  0  0  0  0  0  0  0  0  0  0  0
    8.2902  -12.6538   17.5409 N   0  0  0  0  0  0  0  0  0  0  0  0
    7.4219  -13.8966   19.2944 N   0  0  0  0  0  0  0  0  0  0  0  0
    7.5059  -14.3581   20.6425 C   0  0  0  0  0  0  0  0  0  0  0  0
    7.8893  -15.8002   20.7918 C   0  0  0  0  0  0  0  0  0  0  0  0
    8.8702  -16.2840   19.7681 C   0  0  0  0  0  0  0  0  0  0  0  0
    9.2610  -17.7102   20.0887 C   0  0  2  0  0  0  0  0  0  0  0  0
    8.0038  -18.4632   20.2274 N   0  0  0  0  0  0  0  0  0  0  0  0
    9.9482  -17.8281   21.3991 C   0  0  0  0  0  0  0  0  0  0  0  0
    9.4891  -18.4899   22.3728 O   0  0  0  0  0  0  0  0  0  0  0  0
    7.3318  -12.5777   17.1463 N   0  0  0  0  0  0  0  0  0  0  0  0
   11.2052  -17.1655   21.6012 C   0  0  2  0  0  0  0  0  0  0  0  0
   12.0532  -17.3980   22.7181 C   0  0  0  0  0  0  0  0  0  0  0  0
   13.4162  -16.8231   22.7047 C   0  0  0  0  0  0  0  0  0  0  0  0
   14.3379  -17.1136   23.8144 C   0  0  0  0  0  0  0  0  0  0  0  0
   15.6824  -16.5779   23.7668 O   0  0  0  0  0  0  0  0  0  0  0  0
   16.2144  -16.0175   24.7419 C   0  0  0  0  0  0  0  0  0  0  0  0
   11.3429  -16.9864   23.9490 O   0  0  0  0  0  0  0  0  0  0  0  0
   10.8606  -15.8354   24.0965 O   0  0  0  0  0  0  0  0  0  0  0  0
   16.4231  -16.6823   22.6014 N   0  0  0  0  0  0  0  0  0  0  0  0
   11.1851  -17.9080   25.0224 C   0  0  1  0  0  0  0  0  0  0  0  0
   10.5525  -17.4949   26.2851 C   0  0  0  0  0  0  0  0  0  0  0  0
    9.1185  -17.9999   26.2376 C   0  0  0  0  0  0  0  0  0  0  0  0
    8.2905  -16.9999   25.5477 C   0  0  0  0  0  0  0  0  0  0  0  0
    8.7637  -15.7821   25.0583 N   0  0  0  0  0  0  0  0  0  0  0  0
    7.7593  -15.1069   24.4882 C   0  0  0  0  0  0  0  0  0  0  0  0
    6.6606  -15.8612   24.6013 N   0  0  0  0  0  0  0  0  0  0  0  0
    6.9967  -17.0060   25.2457 C   0  0  0  0  0  0  0  0  0  0  0  0
   11.2492  -18.1977   27.3787 O   0  0  0  0  0  0  0  0  0  0  0  0
   10.8426  -17.9561   28.6949 O   0  0  0  0  0  0  0  0  0  0  0  0
  1  2  1  0
  2  3  2  0
  4  5  1  0
  4  2  1  0
  6  5  1  0
  7  6  1  0
  8  7  1  0
  8  9  1  1
 10  8  1  0
 10 11  2  0
 12 10  1  0
 13 12  1  0
 13 14  1  6
 14 15  1  0
 15 16  1  0
 16 20  1  0
 16 17  2  0
 18 13  1  0
 19 18  2  0
 21 18  1  0
 22 29  1  0
 22 21  1  0
 22 23  1  1
 24 23  1  0
 25 24  2  0
 26 27  1  0
 26 25  1  0
 27 28  2  0
 28 24  1  0
 29 30  1  0
 31 29  2  0
M  END
$$$$
