REH.pdb
     RDKit          3D

 31 31  0  0  1  0  0  0  0  0999 V2000
    8.3914  -11.9518   18.2554 N   0  0  0  0  0  0  0  0  0  0  0  0
    8.8035  -13.1637   18.9026 C   0  0  0  0  0  0  0  0  0  0  0  0
    9.7810  -13.8337   18.4043 N   0  0  0  0  0  0  0  0  0  0  0  0
    8.1769  -13.6521   20.0679 N   0  0  0  0  0  0  0  0  0  0  0  0
    6.8206  -14.0971   20.0657 C   0  0  0  0  0  0  0  0  0  0  0  0
    6.6175  -15.5004   20.5538 C   0  0  0  0  0  0  0  0  0  0  0  0
    6.9711  -15.7066   21.9948 C   0  0  0  0  0  0  0  0  0  0  0  0
    6.7498  -17.1587   22.3584 C   0  0  2  0  0  0  0  0  0  0  0  0
    5.3343  -17.4459   22.0747 N   0  0  0  0  0  0  0  0  0  0  0  0
    6.9298  -17.4128   23.8098 C   0  0  0  0  0  0  0  0  0  0  0  0
    6.0419  -17.1751   24.6769 O   0  0  0  0  0  0  0  0  0  0  0  0
   10.1625  -14.6695   18.8900 N   0  0  0  0  0  0  0  0  0  0  0  0
    8.1695  -17.9586   24.2842 C   0  0  2  0  0  0  0  0  0  0  0  0
    8.5140  -18.0648   25.6593 C   0  0  0  0  0  0  0  0  0  0  0  0
    8.6448  -19.4126   26.2549 C   0  0  0  0  0  0  0  0  0  0  0  0
    9.0198  -19.5473   27.6714 C   0  0  0  0  0  0  0  0  0  0  0  0
    9.2823  -20.8681   28.2040 O   0  0  0  0  0  0  0  0  0  0  0  0
    9.4055  -21.0859   29.4227 C   0  0  0  0  0  0  0  0  0  0  0  0
    9.7458  -17.2824   25.9033 O   0  0  0  0  0  0  0  0  0  0  0  0
   10.8811  -17.8165   25.9742 O   0  0  0  0  0  0  0  0  0  0  0  0
    9.4045  -21.9450   27.3420 N   0  0  0  0  0  0  0  0  0  0  0  0
    9.6720  -15.8703   26.0676 C   0  0  2  0  0  0  0  0  0  0  0  0
    9.9168  -15.2493   27.3790 C   0  0  0  0  0  0  0  0  0  0  0  0
    8.5656  -15.1471   28.0699 C   0  0  0  0  0  0  0  0  0  0  0  0
    7.7630  -14.1240   27.3837 C   0  0  0  0  0  0  0  0  0  0  0  0
    8.1993  -13.3796   26.2875 N   0  0  0  0  0  0  0  0  0  0  0  0
    7.2331  -12.5377   25.9035 C   0  0  0  0  0  0  0  0  0  0  0  0
    6.1945  -12.7260   26.7251 N   0  0  0  0  0  0  0  0  0  0  0  0
    6.5292  -13.6903   27.6177 C   0  0  0  0  0  0  0  0  0  0  0  0
   10.7593  -16.1771   28.1567 O   0  0  0  0  0  0  0  0  0  0  0  0
   11.1517  -17.3813   27.5632 O   0  0  0  0  0  0  0  0  0  0  0  0
  1  2  1  0
  2  3  2  0
  4  5  1  0
  4  2  1  0
  6  5  1  0
  7  6  1  0
  8  7  1  0
  8  9  1  1
 10  8  1  0
 10 11  2  0
 12 10  1  0
 13 12  1  0
 13 14  1  6
 14 15  1  0
 15 16  1  0
 16 20  1  0
 16 17  2  0
 18 13  1  0
 19 18  2  0
 21 18  1  0
 22 29  1  0
 22 21  1  0
 22 23  1  6
 24 23  1  0
 25 24  2  0
 26 27  1  0
 26 25  1  0
 27 28  2  0
 28 24  1  0
 29 30  1  0
 31 29  2  0
M  END
$$$$
