TFA.pdb
     RDKit          3D

 24 24  0  0  1  0  0  0  0  0999 V2000
   19.1237  -12.4900  -18.6951 C   0  0  0  0  0  0  0  0  0  0  0  0
   18.8953  -11.3116  -17.7734 C   0  0  1  0  0  0  0  0  0  0  0  0
   17.7497  -11.5861  -17.0077 O   0  0  0  0  0  0  0  0  0  0  0  0
   20.0707  -11.2405  -16.8260 C   0  0  2  0  0  0  0  0  0  0  0  0
   20.2113  -12.4599  -16.0688 N   0  0  0  0  0  0  0  0  0  0  0  0
   20.0162  -10.0933  -15.9209 C   0  0  0  0  0  0  0  0  0  0  0  0
   19.3386  -10.0646  -14.8571 O   0  0  0  0  0  0  0  0  0  0  0  0
   20.7686   -8.9308  -16.2471 N   0  0  0  0  0  0  0  0  0  0  0  0
   20.7349   -7.7146  -15.4948 C   0  0  1  0  0  0  0  0  0  0  0  0
   22.1593   -7.2069  -15.3611 C   0  0  0  0  0  0  0  0  0  0  0  0
   22.2422   -5.8362  -14.8576 C   0  0  0  0  0  0  0  0  0  0  0  0
   21.8479   -5.5282  -13.5760 C   0  0  0  0  0  0  0  0  0  0  0  0
   21.9392   -4.2254  -13.1363 C   0  0  0  0  0  0  0  0  0  0  0  0
   22.4154   -3.2148  -13.9436 C   0  0  0  0  0  0  0  0  0  0  0  0
   22.8126   -3.5237  -15.2341 C   0  0  0  0  0  0  0  0  0  0  0  0
   22.7190   -4.8359  -15.6723 C   0  0  0  0  0  0  0  0  0  0  0  0
   19.8884   -6.6685  -16.0689 C   0  0  0  0  0  0  0  0  0  0  0  0
   20.0645   -6.3901  -17.2926 O   0  0  0  0  0  0  0  0  0  0  0  0
   16.5885   -5.2929  -15.8229 C   0  0  0  0  0  0  0  0  0  0  0  0
   18.0674   -5.0193  -16.0250 C   0  0  2  0  0  0  0  0  0  0  0  0
   18.8954   -5.9595  -15.3386 N   0  0  0  0  0  0  0  0  0  0  0  0
   18.3960   -3.6611  -15.5682 C   0  0  0  0  0  0  0  0  0  0  0  0
   18.5057   -2.7294  -16.3980 O   0  0  0  0  0  0  0  0  0  0  0  0
   18.5861   -3.4091  -14.2075 O   0  0  0  0  0  0  0  0  0  0  0  0
  2  1  1  6
  3  2  1  0
  4  6  1  0
  4  2  1  0
  4  5  1  1
  6  8  1  0
  7  6  2  0
  8  9  1  0
  9 10  1  6
 10 11  1  0
 11 16  2  0
 11 12  1  0
 12 13  2  0
 13 14  1  0
 15 14  2  0
 16 15  1  0
 17  9  1  0
 18 17  2  0
 20 19  1  1
 20 21  1  0
 21 17  1  0
 22 24  1  0
 22 20  1  0
 23 22  2  0
M  END
$$$$
