TFA.pdb
     RDKit          3D

 24 24  0  0  1  0  0  0  0  0999 V2000
   26.0610  -32.6086  -18.7711 C   0  0  0  0  0  0  0  0  0  0  0  0
   27.3069  -32.8937  -17.9606 C   0  0  1  0  0  0  0  0  0  0  0  0
   28.2419  -33.4995  -18.8167 O   0  0  0  0  0  0  0  0  0  0  0  0
   27.8808  -31.5648  -17.5259 C   0  0  2  0  0  0  0  0  0  0  0  0
   29.0902  -31.7387  -16.7597 N   0  0  0  0  0  0  0  0  0  0  0  0
   26.9308  -30.7401  -16.7805 C   0  0  0  0  0  0  0  0  0  0  0  0
   26.9182  -30.6389  -15.5231 O   0  0  0  0  0  0  0  0  0  0  0  0
   25.9547  -30.0004  -17.5046 N   0  0  0  0  0  0  0  0  0  0  0  0
   25.0660  -29.0485  -16.9129 C   0  0  1  0  0  0  0  0  0  0  0  0
   25.1826  -27.7512  -17.6926 C   0  0  0  0  0  0  0  0  0  0  0  0
   26.3536  -26.9559  -17.3246 C   0  0  0  0  0  0  0  0  0  0  0  0
   26.2325  -25.8529  -16.5113 C   0  0  0  0  0  0  0  0  0  0  0  0
   27.3578  -25.1267  -16.1867 C   0  0  0  0  0  0  0  0  0  0  0  0
   28.6082  -25.4716  -16.6531 C   0  0  0  0  0  0  0  0  0  0  0  0
   28.7312  -26.5818  -17.4720 C   0  0  0  0  0  0  0  0  0  0  0  0
   27.5963  -27.3095  -17.7961 C   0  0  0  0  0  0  0  0  0  0  0  0
   23.6666  -29.4725  -16.8641 C   0  0  0  0  0  0  0  0  0  0  0  0
   23.1974  -30.0352  -17.8981 O   0  0  0  0  0  0  0  0  0  0  0  0
   20.9008  -29.9921  -14.3855 C   0  0  0  0  0  0  0  0  0  0  0  0
   21.4928  -29.8182  -15.7720 C   0  0  2  0  0  0  0  0  0  0  0  0
   22.8195  -29.2897  -15.7367 N   0  0  0  0  0  0  0  0  0  0  0  0
   20.6399  -28.9317  -16.5770 C   0  0  0  0  0  0  0  0  0  0  0  0
   20.9833  -27.7442  -16.7787 O   0  0  0  0  0  0  0  0  0  0  0  0
   19.4455  -29.4137  -17.1174 O   0  0  0  0  0  0  0  0  0  0  0  0
  2  1  1  6
  3  2  1  0
  4  6  1  0
  4  2  1  0
  4  5  1  1
  6  8  1  0
  7  6  2  0
  8  9  1  0
  9 10  1  6
 10 11  1  0
 11 16  2  0
 11 12  1  0
 12 13  2  0
 13 14  1  0
 15 14  2  0
 16 15  1  0
 17  9  1  0
 18 17  2  0
 20 19  1  1
 20 21  1  0
 21 17  1  0
 22 24  1  0
 22 20  1  0
 23 22  2  0
M  END
$$$$
