TFA.pdb
     RDKit          3D

 24 24  0  0  1  0  0  0  0  0999 V2000
   43.8925  -10.1236   -4.6329 C   0  0  0  0  0  0  0  0  0  0  0  0
   43.0768   -9.4740   -5.7299 C   0  0  1  0  0  0  0  0  0  0  0  0
   43.9712   -8.8249   -6.5974 O   0  0  0  0  0  0  0  0  0  0  0  0
   42.4042  -10.5788   -6.5116 C   0  0  2  0  0  0  0  0  0  0  0  0
   43.3699  -11.4977   -7.0621 N   0  0  0  0  0  0  0  0  0  0  0  0
   41.5234  -10.0859   -7.5697 C   0  0  0  0  0  0  0  0  0  0  0  0
   41.7364  -10.2544   -8.8016 O   0  0  0  0  0  0  0  0  0  0  0  0
   40.3500   -9.3703   -7.2021 N   0  0  0  0  0  0  0  0  0  0  0  0
   39.3765   -8.8907   -8.1339 C   0  0  1  0  0  0  0  0  0  0  0  0
   38.0022   -9.2707   -7.6127 C   0  0  0  0  0  0  0  0  0  0  0  0
   37.6096  -10.6378   -7.9534 C   0  0  0  0  0  0  0  0  0  0  0  0
   37.4558  -11.0236   -9.2650 C   0  0  0  0  0  0  0  0  0  0  0  0
   37.0836  -12.3199   -9.5481 C   0  0  0  0  0  0  0  0  0  0  0  0
   36.8591  -13.2480   -8.5541 C   0  0  0  0  0  0  0  0  0  0  0  0
   37.0136  -12.8606   -7.2333 C   0  0  0  0  0  0  0  0  0  0  0  0
   37.3882  -11.5553   -6.9530 C   0  0  0  0  0  0  0  0  0  0  0  0
   39.4307   -7.4499   -8.3817 C   0  0  0  0  0  0  0  0  0  0  0  0
   39.5927   -6.6967   -7.3755 O   0  0  0  0  0  0  0  0  0  0  0  0
   39.7667   -5.0218  -11.2246 C   0  0  0  0  0  0  0  0  0  0  0  0
   39.4538   -5.4443   -9.8011 C   0  0  2  0  0  0  0  0  0  0  0  0
   39.3134   -6.8598   -9.6701 N   0  0  0  0  0  0  0  0  0  0  0  0
   38.2199   -4.7909   -9.3408 C   0  0  0  0  0  0  0  0  0  0  0  0
   37.1378   -5.4217   -9.3423 O   0  0  0  0  0  0  0  0  0  0  0  0
   38.2539   -3.4655   -8.9013 O   0  0  0  0  0  0  0  0  0  0  0  0
  2  1  1  1
  3  2  1  0
  4  6  1  0
  4  2  1  0
  4  5  1  6
  6  8  1  0
  7  6  2  0
  8  9  1  0
  9 10  1  1
 10 11  1  0
 11 16  2  0
 11 12  1  0
 12 13  2  0
 13 14  1  0
 15 14  2  0
 16 15  1  0
 17  9  1  0
 18 17  2  0
 20 19  1  6
 20 21  1  0
 21 17  1  0
 22 24  1  0
 22 20  1  0
 23 22  2  0
M  END
$$$$
