TFA.pdb
     RDKit          3D

 24 24  0  0  1  0  0  0  0  0999 V2000
   23.3242  -37.7898  -10.5145 C   0  0  0  0  0  0  0  0  0  0  0  0
   24.3951  -38.5526  -11.2640 C   0  0  1  0  0  0  0  0  0  0  0  0
   23.9261  -38.7718  -12.5701 O   0  0  0  0  0  0  0  0  0  0  0  0
   25.6089  -37.6572  -11.3597 C   0  0  2  0  0  0  0  0  0  0  0  0
   26.6586  -38.2738  -12.1329 N   0  0  0  0  0  0  0  0  0  0  0  0
   26.1259  -37.2416  -10.0565 C   0  0  0  0  0  0  0  0  0  0  0  0
   26.9356  -37.9216   -9.3684 O   0  0  0  0  0  0  0  0  0  0  0  0
   25.6981  -35.9958   -9.5187 N   0  0  0  0  0  0  0  0  0  0  0  0
   26.0095  -35.5413   -8.1987 C   0  0  1  0  0  0  0  0  0  0  0  0
   26.2923  -34.0515   -8.2709 C   0  0  0  0  0  0  0  0  0  0  0  0
   26.6479  -33.4647   -6.9792 C   0  0  0  0  0  0  0  0  0  0  0  0
   27.8380  -33.7773   -6.3638 C   0  0  0  0  0  0  0  0  0  0  0  0
   28.1388  -33.2060   -5.1463 C   0  0  0  0  0  0  0  0  0  0  0  0
   27.2811  -32.3264   -4.5214 C   0  0  0  0  0  0  0  0  0  0  0  0
   26.0827  -32.0111   -5.1402 C   0  0  0  0  0  0  0  0  0  0  0  0
   25.7841  -32.5882   -6.3650 C   0  0  0  0  0  0  0  0  0  0  0  0
   24.9667  -35.7994   -7.2055 C   0  0  0  0  0  0  0  0  0  0  0  0
   23.7926  -35.4147   -7.4876 O   0  0  0  0  0  0  0  0  0  0  0  0
   24.0812  -38.0088   -4.4381 C   0  0  0  0  0  0  0  0  0  0  0  0
   24.1053  -36.6233   -5.0568 C   0  0  2  0  0  0  0  0  0  0  0  0
   25.1971  -36.4482   -5.9613 N   0  0  0  0  0  0  0  0  0  0  0  0
   24.1816  -35.6015   -4.0025 C   0  0  0  0  0  0  0  0  0  0  0  0
   25.1720  -35.5629   -3.2368 O   0  0  0  0  0  0  0  0  0  0  0  0
   23.1490  -34.6727   -3.8545 O   0  0  0  0  0  0  0  0  0  0  0  0
  2  1  1  1
  3  2  1  0
  4  6  1  0
  4  2  1  0
  4  5  1  1
  6  8  1  0
  7  6  2  0
  8  9  1  0
  9 10  1  6
 10 11  1  0
 11 16  2  0
 11 12  1  0
 12 13  2  0
 13 14  1  0
 15 14  2  0
 16 15  1  0
 17  9  1  0
 18 17  2  0
 20 19  1  1
 20 21  1  0
 21 17  1  0
 22 24  1  0
 22 20  1  0
 23 22  2  0
M  END
$$$$
