TFA.pdb
     RDKit          3D

 24 24  0  0  1  0  0  0  0  0999 V2000
   21.6004   -7.4154  -21.5277 C   0  0  0  0  0  0  0  0  0  0  0  0
   21.0164   -8.8038  -21.6752 C   0  0  1  0  0  0  0  0  0  0  0  0
   21.4866   -9.3366  -22.8873 O   0  0  0  0  0  0  0  0  0  0  0  0
   21.5746   -9.6533  -20.5567 C   0  0  2  0  0  0  0  0  0  0  0  0
   21.2737  -11.0497  -20.7555 N   0  0  0  0  0  0  0  0  0  0  0  0
   21.1285   -9.2296  -19.2301 C   0  0  0  0  0  0  0  0  0  0  0  0
   20.0642   -9.6277  -18.6823 O   0  0  0  0  0  0  0  0  0  0  0  0
   21.9346   -8.3121  -18.5004 N   0  0  0  0  0  0  0  0  0  0  0  0
   21.5663   -7.7455  -17.2396 C   0  0  1  0  0  0  0  0  0  0  0  0
   22.7663   -7.8409  -16.3148 C   0  0  0  0  0  0  0  0  0  0  0  0
   22.4990   -7.3479  -14.9640 C   0  0  0  0  0  0  0  0  0  0  0  0
   22.0871   -8.2024  -13.9676 C   0  0  0  0  0  0  0  0  0  0  0  0
   21.8434   -7.7020  -12.7070 C   0  0  0  0  0  0  0  0  0  0  0  0
   21.9998   -6.3651  -12.4101 C   0  0  0  0  0  0  0  0  0  0  0  0
   22.4145   -5.5039  -13.4125 C   0  0  0  0  0  0  0  0  0  0  0  0
   22.6585   -6.0117  -14.6794 C   0  0  0  0  0  0  0  0  0  0  0  0
   21.1034   -6.3594  -17.3085 C   0  0  0  0  0  0  0  0  0  0  0  0
   21.8408   -5.5344  -17.9264 O   0  0  0  0  0  0  0  0  0  0  0  0
   18.1811   -4.3625  -17.5802 C   0  0  0  0  0  0  0  0  0  0  0  0
   19.5224   -4.5256  -16.8894 C   0  0  2  0  0  0  0  0  0  0  0  0
   19.8904   -5.8966  -16.7285 N   0  0  0  0  0  0  0  0  0  0  0  0
   19.4935   -3.8744  -15.5717 C   0  0  0  0  0  0  0  0  0  0  0  0
   19.9564   -2.7190  -15.4326 O   0  0  0  0  0  0  0  0  0  0  0  0
   18.9494   -4.5446  -14.4735 O   0  0  0  0  0  0  0  0  0  0  0  0
  2  1  1  1
  3  2  1  0
  4  6  1  0
  4  2  1  0
  4  5  1  6
  6  8  1  0
  7  6  2  0
  8  9  1  0
  9 10  1  1
 10 11  1  0
 11 16  2  0
 11 12  1  0
 12 13  2  0
 13 14  1  0
 15 14  2  0
 16 15  1  0
 17  9  1  0
 18 17  2  0
 20 19  1  1
 20 21  1  0
 21 17  1  0
 22 24  1  0
 22 20  1  0
 23 22  2  0
M  END
$$$$
