TFA.pdb
     RDKit          3D

 24 24  0  0  1  0  0  0  0  0999 V2000
   25.2919  -36.5981   -8.7178 C   0  0  0  0  0  0  0  0  0  0  0  0
   25.2114  -36.4047   -7.2190 C   0  0  1  0  0  0  0  0  0  0  0  0
   24.7254  -37.5993   -6.6614 O   0  0  0  0  0  0  0  0  0  0  0  0
   26.6202  -36.2040   -6.7098 C   0  0  2  0  0  0  0  0  0  0  0  0
   27.4514  -37.3474   -6.9956 N   0  0  0  0  0  0  0  0  0  0  0  0
   26.6805  -35.8858   -5.2838 C   0  0  0  0  0  0  0  0  0  0  0  0
   26.9644  -36.7239   -4.3846 O   0  0  0  0  0  0  0  0  0  0  0  0
   26.4045  -34.5529   -4.8701 N   0  0  0  0  0  0  0  0  0  0  0  0
   26.3700  -34.1262   -3.5052 C   0  0  1  0  0  0  0  0  0  0  0  0
   26.5680  -32.6213   -3.4799 C   0  0  0  0  0  0  0  0  0  0  0  0
   26.4025  -32.0362   -2.1497 C   0  0  0  0  0  0  0  0  0  0  0  0
   27.2517  -32.3689   -1.1197 C   0  0  0  0  0  0  0  0  0  0  0  0
   27.0644  -31.7986    0.1207 C   0  0  0  0  0  0  0  0  0  0  0  0
   26.0479  -30.9003    0.3645 C   0  0  0  0  0  0  0  0  0  0  0  0
   25.1923  -30.5646   -0.6717 C   0  0  0  0  0  0  0  0  0  0  0  0
   25.3844  -31.1409   -1.9181 C   0  0  0  0  0  0  0  0  0  0  0  0
   25.1425  -34.4759   -2.7902 C   0  0  0  0  0  0  0  0  0  0  0  0
   24.0445  -34.1731   -3.3457 O   0  0  0  0  0  0  0  0  0  0  0  0
   23.8397  -36.8897   -0.4031 C   0  0  0  0  0  0  0  0  0  0  0  0
   23.8570  -35.4740   -0.9493 C   0  0  2  0  0  0  0  0  0  0  0  0
   25.1169  -35.1267   -1.5261 N   0  0  0  0  0  0  0  0  0  0  0  0
   23.5337  -34.5173    0.1192 C   0  0  0  0  0  0  0  0  0  0  0  0
   22.3438  -34.3500    0.4726 O   0  0  0  0  0  0  0  0  0  0  0  0
   24.5541  -33.7940    0.7409 O   0  0  0  0  0  0  0  0  0  0  0  0
  2  1  1  6
  3  2  1  0
  4  6  1  0
  4  2  1  0
  4  5  1  1
  6  8  1  0
  7  6  2  0
  8  9  1  0
  9 10  1  6
 10 11  1  0
 11 16  2  0
 11 12  1  0
 12 13  2  0
 13 14  1  0
 15 14  2  0
 16 15  1  0
 17  9  1  0
 18 17  2  0
 20 19  1  1
 20 21  1  0
 21 17  1  0
 22 24  1  0
 22 20  1  0
 23 22  2  0
M  END
$$$$
