TFA.pdb
     RDKit          3D

 24 24  0  0  1  0  0  0  0  0999 V2000
   19.2031   -6.3946  -21.5157 C   0  0  0  0  0  0  0  0  0  0  0  0
   18.9402   -7.8741  -21.6967 C   0  0  1  0  0  0  0  0  0  0  0  0
   19.1492   -8.1807  -23.0518 O   0  0  0  0  0  0  0  0  0  0  0  0
   19.9797   -8.6223  -20.8943 C   0  0  2  0  0  0  0  0  0  0  0  0
   19.9748  -10.0299  -21.2085 N   0  0  0  0  0  0  0  0  0  0  0  0
   19.8444   -8.4317  -19.4508 C   0  0  0  0  0  0  0  0  0  0  0  0
   19.0000   -9.0362  -18.7347 O   0  0  0  0  0  0  0  0  0  0  0  0
   20.7119   -7.5107  -18.8002 N   0  0  0  0  0  0  0  0  0  0  0  0
   20.6087   -7.1470  -17.4206 C   0  0  1  0  0  0  0  0  0  0  0  0
   21.9734   -7.3359  -16.7830 C   0  0  0  0  0  0  0  0  0  0  0  0
   21.9804   -7.0871  -15.3418 C   0  0  0  0  0  0  0  0  0  0  0  0
   22.2682   -5.8385  -14.8408 C   0  0  0  0  0  0  0  0  0  0  0  0
   22.2667   -5.6415  -13.4769 C   0  0  0  0  0  0  0  0  0  0  0  0
   21.9845   -6.6608  -12.5931 C   0  0  0  0  0  0  0  0  0  0  0  0
   21.6947   -7.9182  -13.0963 C   0  0  0  0  0  0  0  0  0  0  0  0
   21.6973   -8.1119  -14.4693 C   0  0  0  0  0  0  0  0  0  0  0  0
   20.1375   -5.7820  -17.1858 C   0  0  0  0  0  0  0  0  0  0  0  0
   20.7972   -4.8430  -17.7235 O   0  0  0  0  0  0  0  0  0  0  0  0
   17.0841   -3.9422  -16.2026 C   0  0  0  0  0  0  0  0  0  0  0  0
   18.5913   -4.0932  -16.2941 C   0  0  2  0  0  0  0  0  0  0  0  0
   18.9977   -5.4587  -16.3995 N   0  0  0  0  0  0  0  0  0  0  0  0
   19.2313   -3.4873  -15.1174 C   0  0  0  0  0  0  0  0  0  0  0  0
   19.6618   -2.3124  -15.1728 O   0  0  0  0  0  0  0  0  0  0  0  0
   19.3595   -4.2221  -13.9365 O   0  0  0  0  0  0  0  0  0  0  0  0
  2  1  1  6
  3  2  1  0
  4  6  1  0
  4  2  1  0
  4  5  1  1
  6  8  1  0
  7  6  2  0
  8  9  1  0
  9 10  1  6
 10 11  1  0
 11 16  2  0
 11 12  1  0
 12 13  2  0
 13 14  1  0
 15 14  2  0
 16 15  1  0
 17  9  1  0
 18 17  2  0
 20 19  1  1
 20 21  1  0
 21 17  1  0
 22 24  1  0
 22 20  1  0
 23 22  2  0
M  END
$$$$
