TFA.pdb
     RDKit          3D

 24 24  0  0  1  0  0  0  0  0999 V2000
   24.6356  -11.4828  -15.3767 C   0  0  0  0  0  0  0  0  0  0  0  0
   24.0777  -12.1958  -16.5895 C   0  0  1  0  0  0  0  0  0  0  0  0
   24.6203  -13.4916  -16.6082 O   0  0  0  0  0  0  0  0  0  0  0  0
   22.5852  -12.3292  -16.3920 C   0  0  2  0  0  0  0  0  0  0  0  0
   21.9986  -13.1981  -17.3825 N   0  0  0  0  0  0  0  0  0  0  0  0
   21.8862  -11.0449  -16.3766 C   0  0  0  0  0  0  0  0  0  0  0  0
   21.5723  -10.3991  -17.4138 O   0  0  0  0  0  0  0  0  0  0  0  0
   21.5317  -10.4764  -15.1215 N   0  0  0  0  0  0  0  0  0  0  0  0
   20.7916   -9.2618  -14.9700 C   0  0  1  0  0  0  0  0  0  0  0  0
   19.6155   -9.5413  -14.0516 C   0  0  0  0  0  0  0  0  0  0  0  0
   18.4996  -10.2066  -14.7234 C   0  0  0  0  0  0  0  0  0  0  0  0
   17.6376   -9.5008  -15.5307 C   0  0  0  0  0  0  0  0  0  0  0  0
   16.5964  -10.1608  -16.1466 C   0  0  0  0  0  0  0  0  0  0  0  0
   16.3893  -11.5132  -15.9790 C   0  0  0  0  0  0  0  0  0  0  0  0
   17.2564  -12.2247  -15.1664 C   0  0  0  0  0  0  0  0  0  0  0  0
   18.3026  -11.5565  -14.5488 C   0  0  0  0  0  0  0  0  0  0  0  0
   21.5694   -8.1373  -14.4496 C   0  0  0  0  0  0  0  0  0  0  0  0
   22.2345   -8.3367  -13.3895 O   0  0  0  0  0  0  0  0  0  0  0  0
   22.8105   -4.7606  -15.5025 C   0  0  0  0  0  0  0  0  0  0  0  0
   22.4714   -5.8523  -14.5045 C   0  0  2  0  0  0  0  0  0  0  0  0
   21.6178   -6.8540  -15.0602 N   0  0  0  0  0  0  0  0  0  0  0  0
   21.8256   -5.2693  -13.3194 C   0  0  0  0  0  0  0  0  0  0  0  0
   20.5970   -5.4264  -13.1334 O   0  0  0  0  0  0  0  0  0  0  0  0
   22.5825   -4.5396  -12.3998 O   0  0  0  0  0  0  0  0  0  0  0  0
  2  1  1  1
  3  2  1  0
  4  6  1  0
  4  2  1  0
  4  5  1  6
  6  8  1  0
  7  6  2  0
  8  9  1  0
  9 10  1  1
 10 11  1  0
 11 16  2  0
 11 12  1  0
 12 13  2  0
 13 14  1  0
 15 14  2  0
 16 15  1  0
 17  9  1  0
 18 17  2  0
 20 19  1  6
 20 21  1  0
 21 17  1  0
 22 24  1  0
 22 20  1  0
 23 22  2  0
M  END
$$$$
