TFA.pdb
     RDKit          3D

 24 24  0  0  1  0  0  0  0  0999 V2000
   24.2454  -26.3881  -16.0409 C   0  0  0  0  0  0  0  0  0  0  0  0
   25.2205  -26.8746  -17.0911 C   0  0  1  0  0  0  0  0  0  0  0  0
   24.7645  -26.4179  -18.3391 O   0  0  0  0  0  0  0  0  0  0  0  0
   26.5502  -26.2092  -16.8201 C   0  0  2  0  0  0  0  0  0  0  0  0
   26.4607  -24.7766  -16.9610 N   0  0  0  0  0  0  0  0  0  0  0  0
   27.6364  -26.7264  -17.6514 C   0  0  0  0  0  0  0  0  0  0  0  0
   28.0836  -26.1396  -18.6746 O   0  0  0  0  0  0  0  0  0  0  0  0
   28.2355  -27.9671  -17.2963 N   0  0  0  0  0  0  0  0  0  0  0  0
   29.3742  -28.5274  -17.9562 C   0  0  1  0  0  0  0  0  0  0  0  0
   30.4211  -28.8378  -16.9016 C   0  0  0  0  0  0  0  0  0  0  0  0
   31.2344  -27.6796  -16.5323 C   0  0  0  0  0  0  0  0  0  0  0  0
   30.9139  -26.9102  -15.4377 C   0  0  0  0  0  0  0  0  0  0  0  0
   31.7026  -25.8255  -15.1208 C   0  0  0  0  0  0  0  0  0  0  0  0
   32.8087  -25.4844  -15.8691 C   0  0  0  0  0  0  0  0  0  0  0  0
   33.1322  -26.2583  -16.9713 C   0  0  0  0  0  0  0  0  0  0  0  0
   32.3359  -27.3487  -17.2866 C   0  0  0  0  0  0  0  0  0  0  0  0
   29.0911  -29.7291  -18.7412 C   0  0  0  0  0  0  0  0  0  0  0  0
   28.0941  -30.4274  -18.3886 O   0  0  0  0  0  0  0  0  0  0  0  0
   27.8270  -31.3475  -20.5064 C   0  0  0  0  0  0  0  0  0  0  0  0
   29.2891  -31.0625  -20.7956 C   0  0  2  0  0  0  0  0  0  0  0  0
   29.8625  -30.1478  -19.8599 N   0  0  0  0  0  0  0  0  0  0  0  0
   29.4384  -30.5217  -22.1545 C   0  0  0  0  0  0  0  0  0  0  0  0
   29.2490  -29.3023  -22.3688 O   0  0  0  0  0  0  0  0  0  0  0  0
   29.7916  -31.3682  -23.2079 O   0  0  0  0  0  0  0  0  0  0  0  0
  2  1  1  1
  3  2  1  0
  4  6  1  0
  4  2  1  0
  4  5  1  6
  6  8  1  0
  7  6  2  0
  8  9  1  0
  9 10  1  1
 10 11  1  0
 11 16  2  0
 11 12  1  0
 12 13  2  0
 13 14  1  0
 15 14  2  0
 16 15  1  0
 17  9  1  0
 18 17  2  0
 20 19  1  1
 20 21  1  0
 21 17  1  0
 22 24  1  0
 22 20  1  0
 23 22  2  0
M  END
$$$$
