TFA.pdb
     RDKit          3D

 24 24  0  0  1  0  0  0  0  0999 V2000
   23.5906  -19.9937  -11.8736 C   0  0  0  0  0  0  0  0  0  0  0  0
   24.4042  -20.8816  -12.7902 C   0  0  1  0  0  0  0  0  0  0  0  0
   24.2775  -20.3760  -14.0949 O   0  0  0  0  0  0  0  0  0  0  0  0
   25.8543  -20.7445  -12.3870 C   0  0  2  0  0  0  0  0  0  0  0  0
   26.7230  -21.4499  -13.2968 N   0  0  0  0  0  0  0  0  0  0  0  0
   26.1161  -21.1717  -11.0132 C   0  0  0  0  0  0  0  0  0  0  0  0
   26.2017  -22.3776  -10.6528 O   0  0  0  0  0  0  0  0  0  0  0  0
   26.2868  -20.1770  -10.0104 N   0  0  0  0  0  0  0  0  0  0  0  0
   26.5165  -20.4615   -8.6275 C   0  0  1  0  0  0  0  0  0  0  0  0
   27.2648  -19.2859   -8.0254 C   0  0  0  0  0  0  0  0  0  0  0  0
   27.7980  -19.5589   -6.6912 C   0  0  0  0  0  0  0  0  0  0  0  0
   28.7696  -20.5139   -6.4993 C   0  0  0  0  0  0  0  0  0  0  0  0
   29.2475  -20.7448   -5.2276 C   0  0  0  0  0  0  0  0  0  0  0  0
   28.7809  -20.0460   -4.1350 C   0  0  0  0  0  0  0  0  0  0  0  0
   27.8028  -19.0843   -4.3270 C   0  0  0  0  0  0  0  0  0  0  0  0
   27.3248  -18.8552   -5.6082 C   0  0  0  0  0  0  0  0  0  0  0  0
   25.3043  -20.7260   -7.8522 C   0  0  0  0  0  0  0  0  0  0  0  0
   24.3431  -19.9113   -7.9875 O   0  0  0  0  0  0  0  0  0  0  0  0
   23.7107  -23.5257   -5.9430 C   0  0  0  0  0  0  0  0  0  0  0  0
   23.8681  -22.0852   -6.3935 C   0  0  2  0  0  0  0  0  0  0  0  0
   25.1502  -21.8304   -6.9698 N   0  0  0  0  0  0  0  0  0  0  0  0
   23.6589  -21.1758   -5.2574 C   0  0  0  0  0  0  0  0  0  0  0  0
   22.5040  -20.9830   -4.8126 O   0  0  0  0  0  0  0  0  0  0  0  0
   24.7487  -20.5261   -4.6733 O   0  0  0  0  0  0  0  0  0  0  0  0
  2  1  1  1
  3  2  1  0
  4  6  1  0
  4  2  1  0
  4  5  1  6
  6  8  1  0
  7  6  2  0
  8  9  1  0
  9 10  1  1
 10 11  1  0
 11 16  2  0
 11 12  1  0
 12 13  2  0
 13 14  1  0
 15 14  2  0
 16 15  1  0
 17  9  1  0
 18 17  2  0
 20 19  1  1
 20 21  1  0
 21 17  1  0
 22 24  1  0
 22 20  1  0
 23 22  2  0
M  END
$$$$
