TFA.pdb
     RDKit          3D

 24 24  0  0  1  0  0  0  0  0999 V2000
   17.1875   -9.8406  -18.7260 C   0  0  0  0  0  0  0  0  0  0  0  0
   17.5141  -11.1323  -18.0082 C   0  0  1  0  0  0  0  0  0  0  0  0
   17.5737  -12.1519  -18.9730 O   0  0  0  0  0  0  0  0  0  0  0  0
   18.8959  -10.9856  -17.4139 C   0  0  2  0  0  0  0  0  0  0  0  0
   19.3666  -12.2319  -16.8614 N   0  0  0  0  0  0  0  0  0  0  0  0
   18.9843   -9.9277  -16.4082 C   0  0  0  0  0  0  0  0  0  0  0  0
   18.5093  -10.0194  -15.2431 O   0  0  0  0  0  0  0  0  0  0  0  0
   19.6439   -8.7145  -16.7505 N   0  0  0  0  0  0  0  0  0  0  0  0
   19.7713   -7.5936  -15.8712 C   0  0  1  0  0  0  0  0  0  0  0  0
   21.2508   -7.3525  -15.6311 C   0  0  0  0  0  0  0  0  0  0  0  0
   21.8797   -8.3809  -14.8028 C   0  0  0  0  0  0  0  0  0  0  0  0
   22.8350   -9.2226  -15.3240 C   0  0  0  0  0  0  0  0  0  0  0  0
   23.4051  -10.1807  -14.5139 C   0  0  0  0  0  0  0  0  0  0  0  0
   23.0471  -10.3239  -13.1906 C   0  0  0  0  0  0  0  0  0  0  0  0
   22.0854   -9.4770  -12.6649 C   0  0  0  0  0  0  0  0  0  0  0  0
   21.5146   -8.5145  -13.4835 C   0  0  0  0  0  0  0  0  0  0  0  0
   19.1424   -6.3654  -16.3574 C   0  0  0  0  0  0  0  0  0  0  0  0
   19.4442   -5.9866  -17.5285 O   0  0  0  0  0  0  0  0  0  0  0  0
   16.2648   -4.1215  -15.6785 C   0  0  0  0  0  0  0  0  0  0  0  0
   17.6683   -4.4075  -16.1796 C   0  0  2  0  0  0  0  0  0  0  0  0
   18.2257   -5.5874  -15.5982 N   0  0  0  0  0  0  0  0  0  0  0  0
   18.5484   -3.2650  -15.8939 C   0  0  0  0  0  0  0  0  0  0  0  0
   19.5567   -3.4164  -15.1664 O   0  0  0  0  0  0  0  0  0  0  0  0
   18.2602   -2.0096  -16.4341 O   0  0  0  0  0  0  0  0  0  0  0  0
  2  1  1  6
  3  2  1  0
  4  6  1  0
  4  2  1  0
  4  5  1  1
  6  8  1  0
  7  6  2  0
  8  9  1  0
  9 10  1  6
 10 11  1  0
 11 16  2  0
 11 12  1  0
 12 13  2  0
 13 14  1  0
 15 14  2  0
 16 15  1  0
 17  9  1  0
 18 17  2  0
 20 19  1  1
 20 21  1  0
 21 17  1  0
 22 24  1  0
 22 20  1  0
 23 22  2  0
M  END
$$$$
