FEP.pdb
     RDKit          3D

 28 29  0  0  1  0  0  0  0  0999 V2000
   25.9676  -18.6205   -7.8681 N   0  0  0  0  0  0  0  0  0  0  0  0
   26.6539  -19.6799   -8.5382 C   0  0  1  0  0  0  0  0  0  0  0  0
   26.8622  -20.8609   -7.6455 C   0  0  0  0  0  0  0  0  0  0  0  0
   27.7709  -20.4748   -6.5525 C   0  0  0  0  0  0  0  0  0  0  0  0
   27.2999  -20.2029   -5.2869 C   0  0  0  0  0  0  0  0  0  0  0  0
   28.1602  -19.8380   -4.2593 C   0  0  0  0  0  0  0  0  0  0  0  0
   29.5119  -19.7407   -4.4904 C   0  0  0  0  0  0  0  0  0  0  0  0
   29.9985  -20.0090   -5.7492 C   0  0  0  0  0  0  0  0  0  0  0  0
   29.1230  -20.3744   -6.7716 C   0  0  0  0  0  0  0  0  0  0  0  0
   26.0395  -20.0279   -9.8449 C   0  0  0  0  0  0  0  0  0  0  0  0
   24.7930  -19.9226   -9.9646 O   0  0  0  0  0  0  0  0  0  0  0  0
   26.7953  -20.4707  -10.9539 N   0  0  0  0  0  0  0  0  0  0  0  0
   26.2166  -20.5172  -12.2850 C   0  0  1  0  0  0  0  0  0  0  0  0
   27.2537  -21.0123  -13.2473 C   0  0  0  0  0  0  0  0  0  0  0  0
   26.8771  -21.2345  -14.6484 C   0  0  0  0  0  0  0  0  0  0  0  0
   27.8503  -21.7109  -15.6048 C   0  0  0  0  0  0  0  0  0  0  0  0
   28.9856  -22.1017  -15.2842 O   0  0  0  0  0  0  0  0  0  0  0  0
   24.9702  -21.2639  -12.3132 C   0  0  0  0  0  0  0  0  0  0  0  0
   24.8725  -22.2697  -11.5231 O   0  0  0  0  0  0  0  0  0  0  0  0
   27.5053  -21.7357  -16.9502 O   0  0  0  0  0  0  0  0  0  0  0  0
   23.8533  -20.9815  -13.1316 N   0  0  0  0  0  0  0  0  0  0  0  0
   23.8029  -19.9029  -14.1551 C   0  0  0  0  0  0  0  0  0  0  0  0
   22.3704  -19.5206  -14.3131 C   0  0  0  0  0  0  0  0  0  0  0  0
   21.6178  -20.3401  -13.2600 C   0  0  0  0  0  0  0  0  0  0  0  0
   22.5393  -21.5681  -13.2174 C   0  0  1  0  0  0  0  0  0  0  0  0
   22.3182  -22.2856  -14.5156 C   0  0  0  0  0  0  0  0  0  0  0  0
   23.1173  -22.1320  -15.4557 O   0  0  0  0  0  0  0  0  0  0  0  0
   21.2330  -23.1227  -14.6895 O   0  0  0  0  0  0  0  0  0  0  0  0
  2  1  1  1
  2  3  1  0
  3  4  1  0
  4  9  1  0
  5  4  2  0
  5  6  1  0
  6  7  2  0
  7  8  1  0
  9  8  2  0
 10 12  1  0
 10  2  1  0
 11 10  2  0
 13 12  1  0
 13 14  1  6
 14 15  1  0
 15 16  1  0
 16 17  2  0
 18 13  1  0
 19 18  2  0
 20 16  1  0
 21 18  1  0
 21 25  1  0
 22 23  1  0
 22 21  1  0
 23 24  1  0
 25 24  1  0
 26 28  1  0
 25 26  1  6
 27 26  2  0
M  END
$$$$
