FEP.pdb
     RDKit          3D

 28 29  0  0  1  0  0  0  0  0999 V2000
   22.1318  -19.7729  -17.8015 N   0  0  0  0  0  0  0  0  0  0  0  0
   22.4501  -18.9322  -16.6906 C   0  0  1  0  0  0  0  0  0  0  0  0
   21.2496  -18.6460  -15.8468 C   0  0  0  0  0  0  0  0  0  0  0  0
   20.3587  -17.7334  -16.5836 C   0  0  0  0  0  0  0  0  0  0  0  0
   19.1478  -18.1581  -17.0845 C   0  0  0  0  0  0  0  0  0  0  0  0
   18.3112  -17.2944  -17.7798 C   0  0  0  0  0  0  0  0  0  0  0  0
   18.6815  -15.9861  -17.9823 C   0  0  0  0  0  0  0  0  0  0  0  0
   19.8880  -15.5460  -17.4882 C   0  0  0  0  0  0  0  0  0  0  0  0
   20.7181  -16.4243  -16.7918 C   0  0  0  0  0  0  0  0  0  0  0  0
   23.6159  -19.4234  -15.9124 C   0  0  0  0  0  0  0  0  0  0  0  0
   23.6954  -20.6538  -15.6699 O   0  0  0  0  0  0  0  0  0  0  0  0
   24.6347  -18.5680  -15.4354 N   0  0  0  0  0  0  0  0  0  0  0  0
   25.6185  -19.0365  -14.4754 C   0  0  1  0  0  0  0  0  0  0  0  0
   26.6888  -17.9970  -14.3317 C   0  0  0  0  0  0  0  0  0  0  0  0
   27.8105  -17.9939  -15.2783 C   0  0  0  0  0  0  0  0  0  0  0  0
   27.5750  -17.8502  -16.6971 C   0  0  0  0  0  0  0  0  0  0  0  0
   27.9398  -18.6907  -17.5366 O   0  0  0  0  0  0  0  0  0  0  0  0
   25.0075  -19.4424  -13.2208 C   0  0  0  0  0  0  0  0  0  0  0  0
   23.8407  -18.9771  -12.9605 O   0  0  0  0  0  0  0  0  0  0  0  0
   26.9083  -16.7189  -17.1503 O   0  0  0  0  0  0  0  0  0  0  0  0
   25.5814  -20.3061  -12.2607 N   0  0  0  0  0  0  0  0  0  0  0  0
   26.9768  -20.8201  -12.3090 C   0  0  0  0  0  0  0  0  0  0  0  0
   26.9894  -22.1125  -11.5654 C   0  0  0  0  0  0  0  0  0  0  0  0
   25.5274  -22.3737  -11.1897 C   0  0  0  0  0  0  0  0  0  0  0  0
   25.0543  -20.9177  -11.0666 C   0  0  1  0  0  0  0  0  0  0  0  0
   25.6987  -20.3863   -9.8210 C   0  0  0  0  0  0  0  0  0  0  0  0
   26.7267  -19.6913   -9.8998 O   0  0  0  0  0  0  0  0  0  0  0  0
   25.1672  -20.6564   -8.5747 O   0  0  0  0  0  0  0  0  0  0  0  0
  2  1  1  6
  2  3  1  0
  3  4  1  0
  4  9  1  0
  5  4  2  0
  5  6  1  0
  6  7  2  0
  7  8  1  0
  9  8  2  0
 10 12  1  0
 10  2  1  0
 11 10  2  0
 13 12  1  0
 13 14  1  1
 14 15  1  0
 15 16  1  0
 16 17  2  0
 18 13  1  0
 19 18  2  0
 20 16  1  0
 21 18  1  0
 21 25  1  0
 22 23  1  0
 22 21  1  0
 23 24  1  0
 25 24  1  0
 26 28  1  0
 25 26  1  1
 27 26  2  0
M  END
$$$$
