FEP.pdb
     RDKit          3D

 28 29  0  0  1  0  0  0  0  0999 V2000
   25.2769  -14.9750  -16.6234 N   0  0  0  0  0  0  0  0  0  0  0  0
   26.0176  -15.9964  -15.9522 C   0  0  1  0  0  0  0  0  0  0  0  0
   27.2000  -15.4407  -15.2255 C   0  0  0  0  0  0  0  0  0  0  0  0
   28.2593  -15.1395  -16.2035 C   0  0  0  0  0  0  0  0  0  0  0  0
   28.9731  -16.1415  -16.8232 C   0  0  0  0  0  0  0  0  0  0  0  0
   29.9721  -15.8530  -17.7441 C   0  0  0  0  0  0  0  0  0  0  0  0
   30.2690  -14.5475  -18.0563 C   0  0  0  0  0  0  0  0  0  0  0  0
   29.5652  -13.5347  -17.4461 C   0  0  0  0  0  0  0  0  0  0  0  0
   28.5646  -13.8392  -16.5233 C   0  0  0  0  0  0  0  0  0  0  0  0
   25.1612  -16.8681  -15.1080 C   0  0  0  0  0  0  0  0  0  0  0  0
   24.4452  -16.3282  -14.2277 O   0  0  0  0  0  0  0  0  0  0  0  0
   25.1187  -18.2732  -15.2530 N   0  0  0  0  0  0  0  0  0  0  0  0
   24.3478  -19.0982  -14.3398 C   0  0  1  0  0  0  0  0  0  0  0  0
   23.0090  -19.3788  -14.9526 C   0  0  0  0  0  0  0  0  0  0  0  0
   22.0795  -20.2745  -14.2541 C   0  0  0  0  0  0  0  0  0  0  0  0
   20.8281  -20.6587  -14.8668 C   0  0  0  0  0  0  0  0  0  0  0  0
   20.6998  -21.6702  -15.5773 O   0  0  0  0  0  0  0  0  0  0  0  0
   25.0772  -20.2858  -13.9280 C   0  0  0  0  0  0  0  0  0  0  0  0
   25.9047  -20.7861  -14.7710 O   0  0  0  0  0  0  0  0  0  0  0  0
   19.7102  -19.8619  -14.6544 O   0  0  0  0  0  0  0  0  0  0  0  0
   24.9596  -20.9397  -12.6808 N   0  0  0  0  0  0  0  0  0  0  0  0
   24.0214  -20.5385  -11.5980 C   0  0  0  0  0  0  0  0  0  0  0  0
   24.6170  -21.0039  -10.3127 C   0  0  0  0  0  0  0  0  0  0  0  0
   25.9837  -21.5838  -10.6904 C   0  0  0  0  0  0  0  0  0  0  0  0
   25.6475  -22.0696  -12.1081 C   0  0  1  0  0  0  0  0  0  0  0  0
   24.7464  -23.2547  -11.9271 C   0  0  0  0  0  0  0  0  0  0  0  0
   25.2260  -24.3608  -11.6232 O   0  0  0  0  0  0  0  0  0  0  0  0
   23.3796  -23.1406  -12.0932 O   0  0  0  0  0  0  0  0  0  0  0  0
  2  1  1  1
  2  3  1  0
  3  4  1  0
  4  9  1  0
  5  4  2  0
  5  6  1  0
  6  7  2  0
  7  8  1  0
  9  8  2  0
 10 12  1  0
 10  2  1  0
 11 10  2  0
 13 12  1  0
 13 14  1  6
 14 15  1  0
 15 16  1  0
 16 17  2  0
 18 13  1  0
 19 18  2  0
 20 16  1  0
 21 18  1  0
 21 25  1  0
 22 23  1  0
 22 21  1  0
 23 24  1  0
 25 24  1  0
 26 28  1  0
 25 26  1  1
 27 26  2  0
M  END
$$$$
