FEP.pdb
     RDKit          3D

 28 29  0  0  1  0  0  0  0  0999 V2000
   24.1542  -12.6737  -17.5485 N   0  0  0  0  0  0  0  0  0  0  0  0
   23.3857  -12.2557  -16.4185 C   0  0  1  0  0  0  0  0  0  0  0  0
   24.0710  -12.5771  -15.1293 C   0  0  0  0  0  0  0  0  0  0  0  0
   24.3272  -14.0266  -15.0767 C   0  0  0  0  0  0  0  0  0  0  0  0
   25.6087  -14.5317  -15.0785 C   0  0  0  0  0  0  0  0  0  0  0  0
   25.8457  -15.8995  -15.0300 C   0  0  0  0  0  0  0  0  0  0  0  0
   24.7933  -16.7826  -14.9789 C   0  0  0  0  0  0  0  0  0  0  0  0
   23.5069  -16.2941  -14.9764 C   0  0  0  0  0  0  0  0  0  0  0  0
   23.2838  -14.9182  -15.0253 C   0  0  0  0  0  0  0  0  0  0  0  0
   22.9419  -10.8417  -16.5154 C   0  0  0  0  0  0  0  0  0  0  0  0
   23.7741   -9.9802  -16.8953 O   0  0  0  0  0  0  0  0  0  0  0  0
   21.6284  -10.4270  -16.1992 N   0  0  0  0  0  0  0  0  0  0  0  0
   21.2007   -9.0571  -16.4219 C   0  0  1  0  0  0  0  0  0  0  0  0
   19.7443   -9.0556  -16.7765 C   0  0  0  0  0  0  0  0  0  0  0  0
   18.7721   -9.5545  -15.7967 C   0  0  0  0  0  0  0  0  0  0  0  0
   17.3670   -9.2440  -15.9312 C   0  0  0  0  0  0  0  0  0  0  0  0
   16.5713   -9.9518  -16.5717 O   0  0  0  0  0  0  0  0  0  0  0  0
   21.5455   -8.1893  -15.3084 C   0  0  0  0  0  0  0  0  0  0  0  0
   21.7076   -8.7433  -14.1628 O   0  0  0  0  0  0  0  0  0  0  0  0
   16.8760   -8.0991  -15.3164 O   0  0  0  0  0  0  0  0  0  0  0  0
   21.7207   -6.7885  -15.3728 N   0  0  0  0  0  0  0  0  0  0  0  0
   21.5587   -5.9693  -16.6042 C   0  0  0  0  0  0  0  0  0  0  0  0
   22.4088   -4.7562  -16.4337 C   0  0  0  0  0  0  0  0  0  0  0  0
   23.1504   -4.9685  -15.1102 C   0  0  0  0  0  0  0  0  0  0  0  0
   22.0917   -5.8097  -14.3817 C   0  0  1  0  0  0  0  0  0  0  0  0
   20.9710   -4.8648  -14.0652 C   0  0  0  0  0  0  0  0  0  0  0  0
   21.0875   -4.0512  -13.1322 O   0  0  0  0  0  0  0  0  0  0  0  0
   19.7994   -4.8807  -14.7971 O   0  0  0  0  0  0  0  0  0  0  0  0
  2  1  1  6
  2  3  1  0
  3  4  1  0
  4  9  1  0
  5  4  2  0
  5  6  1  0
  6  7  2  0
  7  8  1  0
  9  8  2  0
 10 12  1  0
 10  2  1  0
 11 10  2  0
 13 12  1  0
 13 14  1  1
 14 15  1  0
 15 16  1  0
 16 17  2  0
 18 13  1  0
 19 18  2  0
 20 16  1  0
 21 18  1  0
 21 25  1  0
 22 23  1  0
 22 21  1  0
 23 24  1  0
 25 24  1  0
 26 28  1  0
 25 26  1  6
 27 26  2  0
M  END
$$$$
