FEP.pdb
     RDKit          3D

 28 29  0  0  1  0  0  0  0  0999 V2000
   24.3814  -16.3183  -16.2365 N   0  0  0  0  0  0  0  0  0  0  0  0
   25.4958  -17.1035  -15.8078 C   0  0  1  0  0  0  0  0  0  0  0  0
   26.5490  -16.2664  -15.1558 C   0  0  0  0  0  0  0  0  0  0  0  0
   27.4318  -15.7173  -16.1991 C   0  0  0  0  0  0  0  0  0  0  0  0
   27.3058  -14.4176  -16.6380 C   0  0  0  0  0  0  0  0  0  0  0  0
   28.1397  -13.9042  -17.6230 C   0  0  0  0  0  0  0  0  0  0  0  0
   29.1161  -14.6933  -18.1832 C   0  0  0  0  0  0  0  0  0  0  0  0
   29.2551  -15.9939  -17.7559 C   0  0  0  0  0  0  0  0  0  0  0  0
   28.4107  -16.4962  -16.7659 C   0  0  0  0  0  0  0  0  0  0  0  0
   25.0925  -18.2818  -14.9986 C   0  0  0  0  0  0  0  0  0  0  0  0
   24.2614  -18.1123  -14.0715 O   0  0  0  0  0  0  0  0  0  0  0  0
   25.6026  -19.5798  -15.2271 N   0  0  0  0  0  0  0  0  0  0  0  0
   25.4290  -20.6369  -14.2466 C   0  0  1  0  0  0  0  0  0  0  0  0
   25.8141  -21.9444  -14.8702 C   0  0  0  0  0  0  0  0  0  0  0  0
   25.7090  -23.1722  -14.0729 C   0  0  0  0  0  0  0  0  0  0  0  0
   24.8854  -24.2720  -14.5214 C   0  0  0  0  0  0  0  0  0  0  0  0
   25.3496  -25.3105  -15.0220 O   0  0  0  0  0  0  0  0  0  0  0  0
   26.1160  -20.3440  -13.0000 C   0  0  0  0  0  0  0  0  0  0  0  0
   27.1872  -19.6421  -13.0729 O   0  0  0  0  0  0  0  0  0  0  0  0
   23.5065  -24.1688  -14.3887 O   0  0  0  0  0  0  0  0  0  0  0  0
   25.7099  -20.7609  -11.7122 N   0  0  0  0  0  0  0  0  0  0  0  0
   24.5143  -21.6004  -11.4303 C   0  0  0  0  0  0  0  0  0  0  0  0
   24.0816  -21.2864  -10.0384 C   0  0  0  0  0  0  0  0  0  0  0  0
   25.0043  -20.1539   -9.5770 C   0  0  0  0  0  0  0  0  0  0  0  0
   26.2501  -20.5188  -10.3979 C   0  0  1  0  0  0  0  0  0  0  0  0
   26.7997  -21.7640   -9.7683 C   0  0  0  0  0  0  0  0  0  0  0  0
   27.5037  -21.6864   -8.7464 O   0  0  0  0  0  0  0  0  0  0  0  0
   26.5365  -23.0087  -10.3069 O   0  0  0  0  0  0  0  0  0  0  0  0
  2  1  1  1
  2  3  1  0
  3  4  1  0
  4  9  1  0
  5  4  2  0
  5  6  1  0
  6  7  2  0
  7  8  1  0
  9  8  2  0
 10 12  1  0
 10  2  1  0
 11 10  2  0
 13 12  1  0
 13 14  1  6
 14 15  1  0
 15 16  1  0
 16 17  2  0
 18 13  1  0
 19 18  2  0
 20 16  1  0
 21 18  1  0
 21 25  1  0
 22 23  1  0
 22 21  1  0
 23 24  1  0
 25 24  1  0
 26 28  1  0
 25 26  1  1
 27 26  2  0
M  END
$$$$
