FEP.pdb
     RDKit          3D

 28 29  0  0  1  0  0  0  0  0999 V2000
   23.3587  -15.5279  -17.1128 N   0  0  0  0  0  0  0  0  0  0  0  0
   23.4806  -16.9353  -17.3285 C   0  0  1  0  0  0  0  0  0  0  0  0
   24.6551  -17.2667  -18.1921 C   0  0  0  0  0  0  0  0  0  0  0  0
   24.3305  -16.9221  -19.5869 C   0  0  0  0  0  0  0  0  0  0  0  0
   23.4145  -17.6501  -20.3138 C   0  0  0  0  0  0  0  0  0  0  0  0
   23.1123  -17.3224  -21.6293 C   0  0  0  0  0  0  0  0  0  0  0  0
   23.7293  -16.2537  -22.2353 C   0  0  0  0  0  0  0  0  0  0  0  0
   24.6469  -15.5162  -21.5228 C   0  0  0  0  0  0  0  0  0  0  0  0
   24.9405  -15.8567  -20.2025 C   0  0  0  0  0  0  0  0  0  0  0  0
   23.4356  -17.7171  -16.0665 C   0  0  0  0  0  0  0  0  0  0  0  0
   24.0936  -17.2978  -15.0815 O   0  0  0  0  0  0  0  0  0  0  0  0
   22.6871  -18.9079  -15.9285 N   0  0  0  0  0  0  0  0  0  0  0  0
   22.7099  -19.6686  -14.6917 C   0  0  1  0  0  0  0  0  0  0  0  0
   21.3038  -20.0303  -14.3191 C   0  0  0  0  0  0  0  0  0  0  0  0
   21.0765  -20.9176  -13.1723 C   0  0  0  0  0  0  0  0  0  0  0  0
   19.7382  -21.3316  -12.8167 C   0  0  0  0  0  0  0  0  0  0  0  0
   18.9859  -21.9445  -13.5930 O   0  0  0  0  0  0  0  0  0  0  0  0
   23.6190  -20.8001  -14.7628 C   0  0  0  0  0  0  0  0  0  0  0  0
   23.9310  -21.2277  -15.9314 O   0  0  0  0  0  0  0  0  0  0  0  0
   19.2641  -21.0324  -11.5457 O   0  0  0  0  0  0  0  0  0  0  0  0
   24.1934  -21.4723  -13.6604 N   0  0  0  0  0  0  0  0  0  0  0  0
   23.8756  -21.1890  -12.2349 C   0  0  0  0  0  0  0  0  0  0  0  0
   25.0679  -21.5926  -11.4356 C   0  0  0  0  0  0  0  0  0  0  0  0
   26.1205  -22.0095  -12.4675 C   0  0  0  0  0  0  0  0  0  0  0  0
   25.1789  -22.5203  -13.5682 C   0  0  1  0  0  0  0  0  0  0  0  0
   24.6020  -23.8019  -13.0452 C   0  0  0  0  0  0  0  0  0  0  0  0
   23.4639  -23.8137  -12.5445 O   0  0  0  0  0  0  0  0  0  0  0  0
   25.3173  -24.9821  -13.1092 O   0  0  0  0  0  0  0  0  0  0  0  0
  2  1  1  1
  2  3  1  0
  3  4  1  0
  4  9  1  0
  5  4  2  0
  5  6  1  0
  6  7  2  0
  7  8  1  0
  9  8  2  0
 10 12  1  0
 10  2  1  0
 11 10  2  0
 13 12  1  0
 13 14  1  6
 14 15  1  0
 15 16  1  0
 16 17  2  0
 18 13  1  0
 19 18  2  0
 20 16  1  0
 21 18  1  0
 21 25  1  0
 22 23  1  0
 22 21  1  0
 23 24  1  0
 25 24  1  0
 26 28  1  0
 25 26  1  1
 27 26  2  0
M  END
$$$$
