FEP.pdb
     RDKit          3D

 28 29  0  0  1  0  0  0  0  0999 V2000
   24.8166  -20.2150   -7.7575 N   0  0  0  0  0  0  0  0  0  0  0  0
   26.0418  -20.1040   -8.4847 C   0  0  1  0  0  0  0  0  0  0  0  0
   27.0828  -21.0449   -7.9688 C   0  0  0  0  0  0  0  0  0  0  0  0
   27.7628  -20.4178   -6.8226 C   0  0  0  0  0  0  0  0  0  0  0  0
   28.8157  -19.5472   -6.9985 C   0  0  0  0  0  0  0  0  0  0  0  0
   29.4550  -18.9590   -5.9147 C   0  0  0  0  0  0  0  0  0  0  0  0
   29.0431  -19.2388   -4.6332 C   0  0  0  0  0  0  0  0  0  0  0  0
   27.9927  -20.1065   -4.4404 C   0  0  0  0  0  0  0  0  0  0  0  0
   27.3600  -20.6898   -5.5380 C   0  0  0  0  0  0  0  0  0  0  0  0
   25.8481  -20.1855   -9.9549 C   0  0  0  0  0  0  0  0  0  0  0  0
   24.7374  -20.5818  -10.3890 O   0  0  0  0  0  0  0  0  0  0  0  0
   26.8567  -19.8376  -10.8817 N   0  0  0  0  0  0  0  0  0  0  0  0
   26.5369  -19.5714  -12.2730 C   0  0  1  0  0  0  0  0  0  0  0  0
   27.7613  -19.0462  -12.9599 C   0  0  0  0  0  0  0  0  0  0  0  0
   27.6872  -18.7049  -14.3854 C   0  0  0  0  0  0  0  0  0  0  0  0
   27.6704  -19.7435  -15.3904 C   0  0  0  0  0  0  0  0  0  0  0  0
   26.8484  -19.7767  -16.3218 O   0  0  0  0  0  0  0  0  0  0  0  0
   25.9333  -20.7216  -12.9246 C   0  0  0  0  0  0  0  0  0  0  0  0
   26.4391  -21.8722  -12.6677 O   0  0  0  0  0  0  0  0  0  0  0  0
   28.6174  -20.7572  -15.3165 O   0  0  0  0  0  0  0  0  0  0  0  0
   24.8367  -20.6886  -13.8155 N   0  0  0  0  0  0  0  0  0  0  0  0
   24.2126  -19.4468  -14.3465 C   0  0  0  0  0  0  0  0  0  0  0  0
   22.7980  -19.7801  -14.6801 C   0  0  0  0  0  0  0  0  0  0  0  0
   22.6056  -21.2264  -14.2132 C   0  0  0  0  0  0  0  0  0  0  0  0
   24.0422  -21.7304  -14.4165 C   0  0  1  0  0  0  0  0  0  0  0  0
   24.2367  -21.8119  -15.9013 C   0  0  0  0  0  0  0  0  0  0  0  0
   24.9626  -20.9850  -16.4803 O   0  0  0  0  0  0  0  0  0  0  0  0
   23.6187  -22.7976  -16.6463 O   0  0  0  0  0  0  0  0  0  0  0  0
  2  1  1  1
  2  3  1  0
  3  4  1  0
  4  9  1  0
  5  4  2  0
  5  6  1  0
  6  7  2  0
  7  8  1  0
  9  8  2  0
 10 12  1  0
 10  2  1  0
 11 10  2  0
 13 12  1  0
 13 14  1  6
 14 15  1  0
 15 16  1  0
 16 17  2  0
 18 13  1  0
 19 18  2  0
 20 16  1  0
 21 18  1  0
 21 25  1  0
 22 23  1  0
 22 21  1  0
 23 24  1  0
 25 24  1  0
 26 28  1  0
 25 26  1  6
 27 26  2  0
M  END
$$$$
