FEP.pdb
     RDKit          3D

 28 29  0  0  1  0  0  0  0  0999 V2000
   25.3317  -10.5914  -15.7857 N   0  0  0  0  0  0  0  0  0  0  0  0
   24.2021  -10.0639  -16.4844 C   0  0  1  0  0  0  0  0  0  0  0  0
   23.0208  -10.9765  -16.4027 C   0  0  0  0  0  0  0  0  0  0  0  0
   23.2593  -12.1402  -17.2735 C   0  0  0  0  0  0  0  0  0  0  0  0
   23.2648  -12.0233  -18.6460 C   0  0  0  0  0  0  0  0  0  0  0  0
   23.4890  -13.1235  -19.4635 C   0  0  0  0  0  0  0  0  0  0  0  0
   23.7117  -14.3623  -18.9105 C   0  0  0  0  0  0  0  0  0  0  0  0
   23.7094  -14.4962  -17.5411 C   0  0  0  0  0  0  0  0  0  0  0  0
   23.4830  -13.3826  -16.7324 C   0  0  0  0  0  0  0  0  0  0  0  0
   23.8933   -8.6619  -16.1038 C   0  0  0  0  0  0  0  0  0  0  0  0
   23.8502   -8.3713  -14.8821 O   0  0  0  0  0  0  0  0  0  0  0  0
   23.6466   -7.6459  -17.0547 N   0  0  0  0  0  0  0  0  0  0  0  0
   23.2529   -6.3109  -16.6404 C   0  0  1  0  0  0  0  0  0  0  0  0
   23.7559   -5.3224  -17.6486 C   0  0  0  0  0  0  0  0  0  0  0  0
   25.1717   -4.9366  -17.6230 C   0  0  0  0  0  0  0  0  0  0  0  0
   25.7377   -4.2932  -16.4591 C   0  0  0  0  0  0  0  0  0  0  0  0
   26.7014   -4.7565  -15.8258 O   0  0  0  0  0  0  0  0  0  0  0  0
   21.8272   -6.2197  -16.3740 C   0  0  0  0  0  0  0  0  0  0  0  0
   21.0570   -7.0053  -17.0338 O   0  0  0  0  0  0  0  0  0  0  0  0
   25.1812   -3.0978  -16.0222 O   0  0  0  0  0  0  0  0  0  0  0  0
   21.2108   -5.3446  -15.4512 N   0  0  0  0  0  0  0  0  0  0  0  0
   21.9277   -4.3196  -14.6457 C   0  0  0  0  0  0  0  0  0  0  0  0
   21.1161   -4.0877  -13.4165 C   0  0  0  0  0  0  0  0  0  0  0  0
   19.9697   -5.1007  -13.4954 C   0  0  0  0  0  0  0  0  0  0  0  0
   19.8428   -5.1912  -15.0234 C   0  0  1  0  0  0  0  0  0  0  0  0
   19.2519   -3.8835  -15.4590 C   0  0  0  0  0  0  0  0  0  0  0  0
   19.9786   -3.0082  -15.9607 O   0  0  0  0  0  0  0  0  0  0  0  0
   17.9019   -3.6293  -15.3123 O   0  0  0  0  0  0  0  0  0  0  0  0
  2  1  1  1
  2  3  1  0
  3  4  1  0
  4  9  1  0
  5  4  2  0
  5  6  1  0
  6  7  2  0
  7  8  1  0
  9  8  2  0
 10 12  1  0
 10  2  1  0
 11 10  2  0
 13 12  1  0
 13 14  1  6
 14 15  1  0
 15 16  1  0
 16 17  2  0
 18 13  1  0
 19 18  2  0
 20 16  1  0
 21 18  1  0
 21 25  1  0
 22 23  1  0
 22 21  1  0
 23 24  1  0
 25 24  1  0
 26 28  1  0
 25 26  1  6
 27 26  2  0
M  END
$$$$
