FEP.pdb
     RDKit          3D

 28 29  0  0  1  0  0  0  0  0999 V2000
   16.6981  -25.8785   -3.6895 N   0  0  0  0  0  0  0  0  0  0  0  0
   16.2387  -26.2139   -2.3785 C   0  0  1  0  0  0  0  0  0  0  0  0
   16.9957  -27.3664   -1.8009 C   0  0  0  0  0  0  0  0  0  0  0  0
   16.7551  -28.5571   -2.6338 C   0  0  0  0  0  0  0  0  0  0  0  0
   17.7207  -29.0471   -3.4853 C   0  0  0  0  0  0  0  0  0  0  0  0
   17.4892  -30.1696   -4.2699 C   0  0  0  0  0  0  0  0  0  0  0  0
   16.2786  -30.8182   -4.2095 C   0  0  0  0  0  0  0  0  0  0  0  0
   15.3033  -30.3414   -3.3640 C   0  0  0  0  0  0  0  0  0  0  0  0
   15.5497  -29.2132   -2.5818 C   0  0  0  0  0  0  0  0  0  0  0  0
   16.1715  -25.0379   -1.4738 C   0  0  0  0  0  0  0  0  0  0  0  0
   17.1966  -24.3219   -1.3495 O   0  0  0  0  0  0  0  0  0  0  0  0
   15.0078  -24.6928   -0.7499 N   0  0  0  0  0  0  0  0  0  0  0  0
   14.9932  -23.5493    0.1451 C   0  0  1  0  0  0  0  0  0  0  0  0
   13.5795  -23.0778    0.3061 C   0  0  0  0  0  0  0  0  0  0  0  0
   13.0843  -22.0022   -0.5611 C   0  0  0  0  0  0  0  0  0  0  0  0
   11.7039  -21.5794   -0.4929 C   0  0  0  0  0  0  0  0  0  0  0  0
   10.9541  -21.8528    0.4597 O   0  0  0  0  0  0  0  0  0  0  0  0
   15.6768  -23.8268    1.3972 C   0  0  0  0  0  0  0  0  0  0  0  0
   15.8785  -25.0586    1.6935 O   0  0  0  0  0  0  0  0  0  0  0  0
   11.1843  -20.8301   -1.5408 O   0  0  0  0  0  0  0  0  0  0  0  0
   16.1423  -22.8619    2.3189 N   0  0  0  0  0  0  0  0  0  0  0  0
   15.9674  -21.3921    2.1687 C   0  0  0  0  0  0  0  0  0  0  0  0
   17.0789  -20.7434    2.9217 C   0  0  0  0  0  0  0  0  0  0  0  0
   17.9593  -21.8975    3.4112 C   0  0  0  0  0  0  0  0  0  0  0  0
   16.8737  -22.9742    3.5559 C   0  0  1  0  0  0  0  0  0  0  0  0
   16.0535  -22.5656    4.7431 C   0  0  0  0  0  0  0  0  0  0  0  0
   14.9540  -22.0088    4.5782 O   0  0  0  0  0  0  0  0  0  0  0  0
   16.5000  -22.7977    6.0296 O   0  0  0  0  0  0  0  0  0  0  0  0
  2  1  1  6
  2  3  1  0
  3  4  1  0
  4  9  1  0
  5  4  2  0
  5  6  1  0
  6  7  2  0
  7  8  1  0
  9  8  2  0
 10 12  1  0
 10  2  1  0
 11 10  2  0
 13 12  1  0
 13 14  1  1
 14 15  1  0
 15 16  1  0
 16 17  2  0
 18 13  1  0
 19 18  2  0
 20 16  1  0
 21 18  1  0
 21 25  1  0
 22 23  1  0
 22 21  1  0
 23 24  1  0
 25 24  1  0
 26 28  1  0
 25 26  1  1
 27 26  2  0
M  END
$$$$
