LFN.pdb
     RDKit          3D

 28 28  0  0  1  0  0  0  0  0999 V2000
   29.3376  -22.1206  -19.8992 C   0  0  0  0  0  0  0  0  0  0  0  0
   30.0076  -22.4866  -18.6141 C   0  0  2  0  0  0  0  0  0  0  0  0
   31.1520  -23.4322  -18.9040 C   0  0  0  0  0  0  0  0  0  0  0  0
   29.0275  -23.0896  -17.6119 C   0  0  0  0  0  0  0  0  0  0  0  0
   27.9918  -22.0328  -17.3297 C   0  0  2  0  0  0  0  0  0  0  0  0
   28.6086  -20.7315  -17.4665 N   0  0  0  0  0  0  0  0  0  0  0  0
   27.3579  -22.1539  -16.0237 C   0  0  0  0  0  0  0  0  0  0  0  0
   26.8263  -23.2431  -15.7061 O   0  0  0  0  0  0  0  0  0  0  0  0
   27.2908  -21.1124  -15.0557 N   0  0  0  0  0  0  0  0  0  0  0  0
   26.5475  -21.1485  -13.8449 C   0  0  1  0  0  0  0  0  0  0  0  0
   27.0177  -20.1929  -12.7886 C   0  0  0  0  0  0  0  0  0  0  0  0
   26.2541  -20.3707  -11.5408 C   0  0  0  0  0  0  0  0  0  0  0  0
   25.1183  -19.6513  -11.2757 C   0  0  0  0  0  0  0  0  0  0  0  0
   24.4096  -19.8309  -10.0928 C   0  0  0  0  0  0  0  0  0  0  0  0
   24.8590  -20.7436   -9.1807 C   0  0  0  0  0  0  0  0  0  0  0  0
   25.9980  -21.4836   -9.4164 C   0  0  0  0  0  0  0  0  0  0  0  0
   26.6904  -21.2811  -10.6158 C   0  0  0  0  0  0  0  0  0  0  0  0
   25.1197  -20.8526  -14.1249 C   0  0  0  0  0  0  0  0  0  0  0  0
   24.7932  -19.8373  -14.7966 O   0  0  0  0  0  0  0  0  0  0  0  0
   20.0889  -21.4049  -15.0729 N   0  0  0  0  0  0  0  0  0  0  0  0
   20.6474  -22.6631  -14.6628 C   0  0  0  0  0  0  0  0  0  0  0  0
   19.9156  -23.6602  -14.5331 O   0  0  0  0  0  0  0  0  0  0  0  0
   22.0789  -22.7029  -14.4149 C   0  0  0  0  0  0  0  0  0  0  0  0
   22.6444  -21.4044  -13.9605 C   0  0  2  0  0  0  0  0  0  0  0  0
   24.0755  -21.6808  -13.6600 N   0  0  0  0  0  0  0  0  0  0  0  0
   22.0137  -20.8390  -12.7424 C   0  0  0  0  0  0  0  0  0  0  0  0
   22.2218  -21.5170  -11.5364 O   0  0  0  0  0  0  0  0  0  0  0  0
   21.3212  -19.8090  -12.7441 O   0  0  0  0  0  0  0  0  0  0  0  0
  2  1  1  6
  3  2  1  0
  4  2  1  0
  5  4  1  0
  5  6  1  1
  7  8  2  0
  7  5  1  0
  9  7  1  0
 10  9  1  0
 10 11  1  1
 11 12  1  0
 12 17  2  0
 12 13  1  0
 13 14  2  0
 14 15  1  0
 16 15  2  0
 17 16  1  0
 18 10  1  0
 19 18  2  0
 21 22  2  0
 21 20  1  0
 23 21  1  0
 24 23  1  1
 24 25  1  0
 25 18  1  0
 26 24  1  0
 27 26  1  0
 28 26  2  0
M  END
$$$$
