LFN.pdb
     RDKit          3D

 28 28  0  0  1  0  0  0  0  0999 V2000
   25.6457  -11.6899  -15.3783 C   0  0  0  0  0  0  0  0  0  0  0  0
   25.7930  -11.6702  -16.8656 C   0  0  2  0  0  0  0  0  0  0  0  0
   27.1763  -11.1710  -17.2196 C   0  0  0  0  0  0  0  0  0  0  0  0
   24.7097  -10.8293  -17.5347 C   0  0  0  0  0  0  0  0  0  0  0  0
   23.3863  -11.3948  -17.0900 C   0  0  2  0  0  0  0  0  0  0  0  0
   23.1669  -12.6515  -17.7721 N   0  0  0  0  0  0  0  0  0  0  0  0
   22.2550  -10.5024  -17.3043 C   0  0  0  0  0  0  0  0  0  0  0  0
   21.9205  -10.2180  -18.4778 O   0  0  0  0  0  0  0  0  0  0  0  0
   21.4798   -9.9129  -16.2662 N   0  0  0  0  0  0  0  0  0  0  0  0
   20.4263   -8.9756  -16.4443 C   0  0  1  0  0  0  0  0  0  0  0  0
   19.0592   -9.4933  -16.1079 C   0  0  0  0  0  0  0  0  0  0  0  0
   18.5243  -10.3183  -17.2056 C   0  0  0  0  0  0  0  0  0  0  0  0
   18.7249  -11.6727  -17.2603 C   0  0  0  0  0  0  0  0  0  0  0  0
   18.2135  -12.4367  -18.3037 C   0  0  0  0  0  0  0  0  0  0  0  0
   17.4980  -11.8197  -19.2907 C   0  0  0  0  0  0  0  0  0  0  0  0
   17.2781  -10.4590  -19.2657 C   0  0  0  0  0  0  0  0  0  0  0  0
   17.8050   -9.7161  -18.2030 C   0  0  0  0  0  0  0  0  0  0  0  0
   20.6780   -7.7748  -15.6079 C   0  0  0  0  0  0  0  0  0  0  0  0
   21.3144   -7.8681  -14.5239 O   0  0  0  0  0  0  0  0  0  0  0  0
   22.3236   -3.9689  -12.9350 N   0  0  0  0  0  0  0  0  0  0  0  0
   22.4984   -4.0605  -14.3578 C   0  0  0  0  0  0  0  0  0  0  0  0
   23.0588   -3.1410  -14.9801 O   0  0  0  0  0  0  0  0  0  0  0  0
   21.9960   -5.2576  -15.0111 C   0  0  0  0  0  0  0  0  0  0  0  0
   20.5176   -5.2762  -15.1726 C   0  0  2  0  0  0  0  0  0  0  0  0
   20.2241   -6.4912  -15.9803 N   0  0  0  0  0  0  0  0  0  0  0  0
   19.9501   -4.1005  -15.8776 C   0  0  0  0  0  0  0  0  0  0  0  0
   19.6538   -2.9702  -15.1081 O   0  0  0  0  0  0  0  0  0  0  0  0
   19.7296   -4.0740  -17.0987 O   0  0  0  0  0  0  0  0  0  0  0  0
  2  1  1  1
  3  2  1  0
  4  2  1  0
  5  4  1  0
  5  6  1  6
  7  8  2  0
  7  5  1  0
  9  7  1  0
 10  9  1  0
 10 11  1  1
 11 12  1  0
 12 17  2  0
 12 13  1  0
 13 14  2  0
 14 15  1  0
 16 15  2  0
 17 16  1  0
 18 10  1  0
 19 18  2  0
 21 22  2  0
 21 20  1  0
 23 21  1  0
 24 23  1  6
 24 25  1  0
 25 18  1  0
 26 24  1  0
 27 26  1  0
 28 26  2  0
M  END
$$$$
