LFN.pdb
     RDKit          3D

 28 28  0  0  1  0  0  0  0  0999 V2000
   26.1133  -17.1679  -18.6114 C   0  0  0  0  0  0  0  0  0  0  0  0
   27.3674  -17.6721  -17.9731 C   0  0  2  0  0  0  0  0  0  0  0  0
   28.3922  -17.9538  -19.0494 C   0  0  0  0  0  0  0  0  0  0  0  0
   27.1123  -18.9052  -17.1111 C   0  0  0  0  0  0  0  0  0  0  0  0
   26.1585  -18.4837  -16.0241 C   0  0  2  0  0  0  0  0  0  0  0  0
   26.7236  -17.3497  -15.3260 N   0  0  0  0  0  0  0  0  0  0  0  0
   25.8273  -19.5417  -15.0790 C   0  0  0  0  0  0  0  0  0  0  0  0
   25.5817  -20.6901  -15.5157 O   0  0  0  0  0  0  0  0  0  0  0  0
   25.7580  -19.3747  -13.6672 N   0  0  0  0  0  0  0  0  0  0  0  0
   25.4840  -20.3990  -12.7207 C   0  0  1  0  0  0  0  0  0  0  0  0
   26.1587  -20.2258  -11.3922 C   0  0  0  0  0  0  0  0  0  0  0  0
   27.5966  -20.5334  -11.4884 C   0  0  0  0  0  0  0  0  0  0  0  0
   28.4726  -19.7116  -12.1482 C   0  0  0  0  0  0  0  0  0  0  0  0
   29.8267  -20.0169  -12.2301 C   0  0  0  0  0  0  0  0  0  0  0  0
   30.2874  -21.1597  -11.6396 C   0  0  0  0  0  0  0  0  0  0  0  0
   29.4330  -22.0080  -10.9683 C   0  0  0  0  0  0  0  0  0  0  0  0
   28.0752  -21.6746  -10.9024 C   0  0  0  0  0  0  0  0  0  0  0  0
   24.0208  -20.4814  -12.4819 C   0  0  0  0  0  0  0  0  0  0  0  0
   23.4809  -19.8117  -11.5607 O   0  0  0  0  0  0  0  0  0  0  0  0
   19.0762  -19.7791  -12.3147 N   0  0  0  0  0  0  0  0  0  0  0  0
   19.8519  -19.7010  -13.5212 C   0  0  0  0  0  0  0  0  0  0  0  0
   19.2935  -19.4882  -14.6117 O   0  0  0  0  0  0  0  0  0  0  0  0
   21.2888  -19.8803  -13.3972 C   0  0  0  0  0  0  0  0  0  0  0  0
   21.6957  -21.2840  -13.1209 C   0  0  2  0  0  0  0  0  0  0  0  0
   23.1771  -21.3007  -13.2625 N   0  0  0  0  0  0  0  0  0  0  0  0
   21.1282  -22.2942  -14.0477 C   0  0  0  0  0  0  0  0  0  0  0  0
   19.8128  -22.7114  -13.8174 O   0  0  0  0  0  0  0  0  0  0  0  0
   21.7567  -22.7782  -15.0023 O   0  0  0  0  0  0  0  0  0  0  0  0
  2  1  1  6
  3  2  1  0
  4  2  1  0
  5  4  1  0
  5  6  1  1
  7  8  2  0
  7  5  1  0
  9  7  1  0
 10  9  1  0
 10 11  1  1
 11 12  1  0
 12 17  2  0
 12 13  1  0
 13 14  2  0
 14 15  1  0
 16 15  2  0
 17 16  1  0
 18 10  1  0
 19 18  2  0
 21 22  2  0
 21 20  1  0
 23 21  1  0
 24 23  1  6
 24 25  1  0
 25 18  1  0
 26 24  1  0
 27 26  1  0
 28 26  2  0
M  END
$$$$
