LFN.pdb
     RDKit          3D

 28 28  0  0  1  0  0  0  0  0999 V2000
   24.6756  -23.5368  -19.2356 C   0  0  0  0  0  0  0  0  0  0  0  0
   25.0465  -24.8308  -18.5857 C   0  0  2  0  0  0  0  0  0  0  0  0
   24.5629  -25.9750  -19.4489 C   0  0  0  0  0  0  0  0  0  0  0  0
   24.4966  -24.9338  -17.1660 C   0  0  0  0  0  0  0  0  0  0  0  0
   25.0686  -23.7729  -16.3950 C   0  0  2  0  0  0  0  0  0  0  0  0
   26.4130  -24.1095  -15.9805 N   0  0  0  0  0  0  0  0  0  0  0  0
   24.2724  -23.3732  -15.2424 C   0  0  0  0  0  0  0  0  0  0  0  0
   24.0181  -24.2224  -14.3569 O   0  0  0  0  0  0  0  0  0  0  0  0
   23.7471  -22.0668  -15.0340 N   0  0  0  0  0  0  0  0  0  0  0  0
   22.9418  -21.6592  -13.9361 C   0  0  1  0  0  0  0  0  0  0  0  0
   23.0064  -20.1949  -13.6171 C   0  0  0  0  0  0  0  0  0  0  0  0
   22.2413  -19.8883  -12.3956 C   0  0  0  0  0  0  0  0  0  0  0  0
   21.0269  -19.2547  -12.4391 C   0  0  0  0  0  0  0  0  0  0  0  0
   20.3179  -18.9723  -11.2767 C   0  0  0  0  0  0  0  0  0  0  0  0
   20.8469  -19.3358  -10.0705 C   0  0  0  0  0  0  0  0  0  0  0  0
   22.0661  -19.9744   -9.9916 C   0  0  0  0  0  0  0  0  0  0  0  0
   22.7568  -20.2456  -11.1784 C   0  0  0  0  0  0  0  0  0  0  0  0
   21.5225  -22.0064  -14.2001 C   0  0  0  0  0  0  0  0  0  0  0  0
   21.0179  -21.8256  -15.3409 O   0  0  0  0  0  0  0  0  0  0  0  0
   16.9915  -25.0735  -11.3783 N   0  0  0  0  0  0  0  0  0  0  0  0
   17.4472  -24.1583  -12.3872 C   0  0  0  0  0  0  0  0  0  0  0  0
   16.6571  -23.7303  -13.2469 O   0  0  0  0  0  0  0  0  0  0  0  0
   18.8475  -23.7714  -12.3465 C   0  0  0  0  0  0  0  0  0  0  0  0
   19.2486  -22.8572  -13.4491 C   0  0  2  0  0  0  0  0  0  0  0  0
   20.6831  -22.5471  -13.2024 N   0  0  0  0  0  0  0  0  0  0  0  0
   18.4990  -21.5781  -13.5056 C   0  0  0  0  0  0  0  0  0  0  0  0
   18.4572  -20.8048  -12.3403 O   0  0  0  0  0  0  0  0  0  0  0  0
   17.9166  -21.1691  -14.5225 O   0  0  0  0  0  0  0  0  0  0  0  0
  2  1  1  6
  3  2  1  0
  4  2  1  0
  5  4  1  0
  5  6  1  1
  7  8  2  0
  7  5  1  0
  9  7  1  0
 10  9  1  0
 10 11  1  6
 11 12  1  0
 12 17  2  0
 12 13  1  0
 13 14  2  0
 14 15  1  0
 16 15  2  0
 17 16  1  0
 18 10  1  0
 19 18  2  0
 21 22  2  0
 21 20  1  0
 23 21  1  0
 24 23  1  1
 24 25  1  0
 25 18  1  0
 26 24  1  0
 27 26  1  0
 28 26  2  0
M  END
$$$$
