LFN.pdb
     RDKit          3D

 28 28  0  0  1  0  0  0  0  0999 V2000
   18.9872  -34.9332  -10.1353 C   0  0  0  0  0  0  0  0  0  0  0  0
   19.7190  -36.1980  -10.4503 C   0  0  2  0  0  0  0  0  0  0  0  0
   18.7908  -37.3733  -10.2376 C   0  0  0  0  0  0  0  0  0  0  0  0
   20.9943  -36.3394   -9.6244 C   0  0  0  0  0  0  0  0  0  0  0  0
   21.7979  -35.0856   -9.8508 C   0  0  2  0  0  0  0  0  0  0  0  0
   22.3998  -35.1519  -11.1644 N   0  0  0  0  0  0  0  0  0  0  0  0
   22.8197  -34.8426   -8.8413 C   0  0  0  0  0  0  0  0  0  0  0  0
   23.9012  -35.4716   -8.9093 O   0  0  0  0  0  0  0  0  0  0  0  0
   22.6879  -33.9282   -7.7584 N   0  0  0  0  0  0  0  0  0  0  0  0
   23.6674  -33.6735   -6.7606 C   0  0  1  0  0  0  0  0  0  0  0  0
   24.3030  -32.3168   -6.8338 C   0  0  0  0  0  0  0  0  0  0  0  0
   25.1357  -32.1904   -8.0430 C   0  0  0  0  0  0  0  0  0  0  0  0
   24.7117  -31.4994   -9.1478 C   0  0  0  0  0  0  0  0  0  0  0  0
   25.5099  -31.3902  -10.2812 C   0  0  0  0  0  0  0  0  0  0  0  0
   26.7398  -31.9853  -10.2880 C   0  0  0  0  0  0  0  0  0  0  0  0
   27.1964  -32.6877   -9.1933 C   0  0  0  0  0  0  0  0  0  0  0  0
   26.3710  -32.7806   -8.0668 C   0  0  0  0  0  0  0  0  0  0  0  0
   23.0600  -33.8208   -5.4137 C   0  0  0  0  0  0  0  0  0  0  0  0
   21.8969  -33.3936   -5.1828 O   0  0  0  0  0  0  0  0  0  0  0  0
   21.1426  -34.7131   -1.1528 N   0  0  0  0  0  0  0  0  0  0  0  0
   20.9277  -35.5844   -2.2744 C   0  0  0  0  0  0  0  0  0  0  0  0
   19.9245  -36.3183   -2.3136 O   0  0  0  0  0  0  0  0  0  0  0  0
   21.9235  -35.5596   -3.3326 C   0  0  0  0  0  0  0  0  0  0  0  0
   23.0984  -34.6993   -3.0294 C   0  0  2  0  0  0  0  0  0  0  0  0
   23.7447  -34.4364   -4.3439 N   0  0  0  0  0  0  0  0  0  0  0  0
   24.1066  -35.3114   -2.1293 C   0  0  0  0  0  0  0  0  0  0  0  0
   24.0434  -34.9787   -0.7718 O   0  0  0  0  0  0  0  0  0  0  0  0
   24.9893  -36.0922   -2.5189 O   0  0  0  0  0  0  0  0  0  0  0  0
  2  1  1  1
  3  2  1  0
  4  2  1  0
  5  4  1  0
  5  6  1  6
  7  8  2  0
  7  5  1  0
  9  7  1  0
 10  9  1  0
 10 11  1  6
 11 12  1  0
 12 17  2  0
 12 13  1  0
 13 14  2  0
 14 15  1  0
 16 15  2  0
 17 16  1  0
 18 10  1  0
 19 18  2  0
 21 22  2  0
 21 20  1  0
 23 21  1  0
 24 23  1  6
 24 25  1  0
 25 18  1  0
 26 24  1  0
 27 26  1  0
 28 26  2  0
M  END
$$$$
