LFN.pdb
     RDKit          3D

 28 28  0  0  1  0  0  0  0  0999 V2000
   25.5880  -19.6133  -19.3548 C   0  0  0  0  0  0  0  0  0  0  0  0
   25.8437  -21.0025  -19.8438 C   0  0  2  0  0  0  0  0  0  0  0  0
   25.0626  -21.2302  -21.1190 C   0  0  0  0  0  0  0  0  0  0  0  0
   25.5033  -22.0502  -18.7880 C   0  0  0  0  0  0  0  0  0  0  0  0
   26.5396  -21.9232  -17.7022 C   0  0  2  0  0  0  0  0  0  0  0  0
   27.5893  -22.8875  -17.9487 N   0  0  0  0  0  0  0  0  0  0  0  0
   26.0129  -22.0872  -16.3539 C   0  0  0  0  0  0  0  0  0  0  0  0
   25.5582  -23.2035  -16.0119 O   0  0  0  0  0  0  0  0  0  0  0  0
   25.9710  -21.0597  -15.3697 N   0  0  0  0  0  0  0  0  0  0  0  0
   25.3482  -21.1529  -14.0956 C   0  0  1  0  0  0  0  0  0  0  0  0
   25.9469  -20.2758  -13.0362 C   0  0  0  0  0  0  0  0  0  0  0  0
   25.2985  -20.5071  -11.7333 C   0  0  0  0  0  0  0  0  0  0  0  0
   24.0997  -19.9293  -11.4059 C   0  0  0  0  0  0  0  0  0  0  0  0
   23.5015  -20.1577  -10.1715 C   0  0  0  0  0  0  0  0  0  0  0  0
   24.1253  -20.9747   -9.2715 C   0  0  0  0  0  0  0  0  0  0  0  0
   25.3318  -21.5714   -9.5692 C   0  0  0  0  0  0  0  0  0  0  0  0
   25.9099  -21.3231  -10.8195 C   0  0  0  0  0  0  0  0  0  0  0  0
   23.9093  -20.8065  -14.2152 C   0  0  0  0  0  0  0  0  0  0  0  0
   23.5506  -19.7300  -14.7639 O   0  0  0  0  0  0  0  0  0  0  0  0
   18.8312  -20.9117  -14.4421 N   0  0  0  0  0  0  0  0  0  0  0  0
   19.5348  -21.8336  -15.2897 C   0  0  0  0  0  0  0  0  0  0  0  0
   18.9268  -22.4560  -16.1783 O   0  0  0  0  0  0  0  0  0  0  0  0
   20.9603  -21.9929  -15.0554 C   0  0  0  0  0  0  0  0  0  0  0  0
   21.4468  -21.3031  -13.8307 C   0  0  2  0  0  0  0  0  0  0  0  0
   22.8898  -21.6524  -13.7280 N   0  0  0  0  0  0  0  0  0  0  0  0
   20.7774  -21.7153  -12.5725 C   0  0  0  0  0  0  0  0  0  0  0  0
   21.0301  -23.0089  -12.1032 O   0  0  0  0  0  0  0  0  0  0  0  0
   20.0158  -20.9774  -11.9275 O   0  0  0  0  0  0  0  0  0  0  0  0
  2  1  1  1
  3  2  1  0
  4  2  1  0
  5  4  1  0
  5  6  1  6
  7  8  2  0
  7  5  1  0
  9  7  1  0
 10  9  1  0
 10 11  1  1
 11 12  1  0
 12 17  2  0
 12 13  1  0
 13 14  2  0
 14 15  1  0
 16 15  2  0
 17 16  1  0
 18 10  1  0
 19 18  2  0
 21 22  2  0
 21 20  1  0
 23 21  1  0
 24 23  1  6
 24 25  1  0
 25 18  1  0
 26 24  1  0
 27 26  1  0
 28 26  2  0
M  END
$$$$
