LFN.pdb
     RDKit          3D

 28 28  0  0  1  0  0  0  0  0999 V2000
   28.3553  -20.3437  -19.8160 C   0  0  0  0  0  0  0  0  0  0  0  0
   27.7014  -21.6839  -19.9196 C   0  0  2  0  0  0  0  0  0  0  0  0
   27.0731  -21.8238  -21.2884 C   0  0  0  0  0  0  0  0  0  0  0  0
   26.6762  -21.9051  -18.8113 C   0  0  0  0  0  0  0  0  0  0  0  0
   27.3998  -21.7036  -17.5056 C   0  0  2  0  0  0  0  0  0  0  0  0
   28.1602  -22.8977  -17.2083 N   0  0  0  0  0  0  0  0  0  0  0  0
   26.5282  -21.3711  -16.3867 C   0  0  0  0  0  0  0  0  0  0  0  0
   25.8377  -22.2774  -15.8655 O   0  0  0  0  0  0  0  0  0  0  0  0
   26.3930  -20.0709  -15.8233 N   0  0  0  0  0  0  0  0  0  0  0  0
   25.5528  -19.7204  -14.7319 C   0  0  1  0  0  0  0  0  0  0  0  0
   26.2150  -18.8983  -13.6661 C   0  0  0  0  0  0  0  0  0  0  0  0
   27.1066  -19.7298  -12.8383 C   0  0  0  0  0  0  0  0  0  0  0  0
   28.4286  -19.9103  -13.1507 C   0  0  0  0  0  0  0  0  0  0  0  0
   29.2564  -20.6988  -12.3589 C   0  0  0  0  0  0  0  0  0  0  0  0
   28.7363  -21.3028  -11.2492 C   0  0  0  0  0  0  0  0  0  0  0  0
   27.4107  -21.1418  -10.9067 C   0  0  0  0  0  0  0  0  0  0  0  0
   26.6018  -20.3424  -11.7226 C   0  0  0  0  0  0  0  0  0  0  0  0
   24.3771  -18.9617  -15.2287 C   0  0  0  0  0  0  0  0  0  0  0  0
   24.4022  -18.4046  -16.3590 O   0  0  0  0  0  0  0  0  0  0  0  0
   20.7304  -18.0757  -17.4446 N   0  0  0  0  0  0  0  0  0  0  0  0
   21.3849  -19.3542  -17.4607 C   0  0  0  0  0  0  0  0  0  0  0  0
   21.4678  -20.0016  -18.5193 O   0  0  0  0  0  0  0  0  0  0  0  0
   21.9303  -19.8348  -16.2023 C   0  0  0  0  0  0  0  0  0  0  0  0
   21.8419  -18.8461  -15.0946 C   0  0  2  0  0  0  0  0  0  0  0  0
   23.1933  -18.8299  -14.4714 N   0  0  0  0  0  0  0  0  0  0  0  0
   20.8481  -19.1722  -14.0424 C   0  0  0  0  0  0  0  0  0  0  0  0
   19.5330  -18.7387  -14.2430 O   0  0  0  0  0  0  0  0  0  0  0  0
   21.1251  -19.8015  -13.0091 O   0  0  0  0  0  0  0  0  0  0  0  0
  2  1  1  6
  3  2  1  0
  4  2  1  0
  5  4  1  0
  5  6  1  1
  7  8  2  0
  7  5  1  0
  9  7  1  0
 10  9  1  0
 10 11  1  1
 11 12  1  0
 12 17  2  0
 12 13  1  0
 13 14  2  0
 14 15  1  0
 16 15  2  0
 17 16  1  0
 18 10  1  0
 19 18  2  0
 21 22  2  0
 21 20  1  0
 23 21  1  0
 24 23  1  6
 24 25  1  0
 25 18  1  0
 26 24  1  0
 27 26  1  0
 28 26  2  0
M  END
$$$$
