LFN.pdb
     RDKit          3D

 28 28  0  0  1  0  0  0  0  0999 V2000
   42.9104   -3.2472   -6.0273 C   0  0  0  0  0  0  0  0  0  0  0  0
   42.2751   -3.2326   -4.6743 C   0  0  2  0  0  0  0  0  0  0  0  0
   43.2422   -2.6297   -3.6796 C   0  0  0  0  0  0  0  0  0  0  0  0
   41.8261   -4.6249   -4.2404 C   0  0  0  0  0  0  0  0  0  0  0  0
   40.9324   -5.1516   -5.3326 C   0  0  2  0  0  0  0  0  0  0  0  0
   39.6044   -4.6092   -5.1463 N   0  0  0  0  0  0  0  0  0  0  0  0
   40.8758   -6.6054   -5.4067 C   0  0  0  0  0  0  0  0  0  0  0  0
   40.3367   -7.2400   -4.4704 O   0  0  0  0  0  0  0  0  0  0  0  0
   41.3944   -7.3829   -6.4803 N   0  0  0  0  0  0  0  0  0  0  0  0
   41.3542   -8.8004   -6.5763 C   0  0  1  0  0  0  0  0  0  0  0  0
   40.3737   -9.3362   -7.5771 C   0  0  0  0  0  0  0  0  0  0  0  0
   38.9926   -9.2141   -7.0779 C   0  0  0  0  0  0  0  0  0  0  0  0
   38.4953  -10.0438   -6.1072 C   0  0  0  0  0  0  0  0  0  0  0  0
   37.1891   -9.9155   -5.6475 C   0  0  0  0  0  0  0  0  0  0  0  0
   36.3906   -8.9418   -6.1775 C   0  0  0  0  0  0  0  0  0  0  0  0
   36.8597   -8.0907   -7.1552 C   0  0  0  0  0  0  0  0  0  0  0  0
   38.1786   -8.2437   -7.5981 C   0  0  0  0  0  0  0  0  0  0  0  0
   42.6996   -9.3163   -6.9344 C   0  0  0  0  0  0  0  0  0  0  0  0
   43.4317   -8.6922   -7.7488 O   0  0  0  0  0  0  0  0  0  0  0  0
   47.2851  -12.2935   -5.5301 N   0  0  0  0  0  0  0  0  0  0  0  0
   46.0656  -12.8522   -6.0437 C   0  0  0  0  0  0  0  0  0  0  0  0
   46.0867  -13.9164   -6.6868 O   0  0  0  0  0  0  0  0  0  0  0  0
   44.8381  -12.1217   -5.7757 C   0  0  0  0  0  0  0  0  0  0  0  0
   44.5529  -11.0468   -6.7633 C   0  0  2  0  0  0  0  0  0  0  0  0
   43.2157  -10.5114   -6.3889 N   0  0  0  0  0  0  0  0  0  0  0  0
   44.4959  -11.4944   -8.1767 C   0  0  0  0  0  0  0  0  0  0  0  0
   43.3148  -12.1058   -8.6108 O   0  0  0  0  0  0  0  0  0  0  0  0
   45.4328  -11.3538   -8.9786 O   0  0  0  0  0  0  0  0  0  0  0  0
  2  1  1  6
  3  2  1  0
  4  2  1  0
  5  4  1  0
  5  6  1  1
  7  8  2  0
  7  5  1  0
  9  7  1  0
 10  9  1  0
 10 11  1  6
 11 12  1  0
 12 17  2  0
 12 13  1  0
 13 14  2  0
 14 15  1  0
 16 15  2  0
 17 16  1  0
 18 10  1  0
 19 18  2  0
 21 22  2  0
 21 20  1  0
 23 21  1  0
 24 23  1  1
 24 25  1  0
 25 18  1  0
 26 24  1  0
 27 26  1  0
 28 26  2  0
M  END
$$$$
