LFN.pdb
     RDKit          3D

 28 28  0  0  1  0  0  0  0  0999 V2000
   25.7999  -21.4410  -15.4589 C   0  0  0  0  0  0  0  0  0  0  0  0
   27.1249  -20.9780  -14.9448 C   0  0  2  0  0  0  0  0  0  0  0  0
   28.2120  -21.4431  -15.8881 C   0  0  0  0  0  0  0  0  0  0  0  0
   27.3824  -21.4576  -13.5192 C   0  0  0  0  0  0  0  0  0  0  0  0
   26.2692  -20.9040  -12.6686 C   0  0  2  0  0  0  0  0  0  0  0  0
   26.1321  -19.4912  -12.9471 N   0  0  0  0  0  0  0  0  0  0  0  0
   26.4484  -21.1195  -11.2390 C   0  0  0  0  0  0  0  0  0  0  0  0
   26.5336  -22.2930  -10.8085 O   0  0  0  0  0  0  0  0  0  0  0  0
   26.5369  -20.0825  -10.2680 N   0  0  0  0  0  0  0  0  0  0  0  0
   26.7787  -20.2618   -8.8790 C   0  0  1  0  0  0  0  0  0  0  0  0
   27.6726  -19.2302   -8.2570 C   0  0  0  0  0  0  0  0  0  0  0  0
   27.9562  -19.5599   -6.8490 C   0  0  0  0  0  0  0  0  0  0  0  0
   27.2613  -18.9887   -5.8152 C   0  0  0  0  0  0  0  0  0  0  0  0
   27.5419  -19.3105   -4.4918 C   0  0  0  0  0  0  0  0  0  0  0  0
   28.5306  -20.2143   -4.2227 C   0  0  0  0  0  0  0  0  0  0  0  0
   29.2486  -20.8072   -5.2393 C   0  0  0  0  0  0  0  0  0  0  0  0
   28.9438  -20.4637   -6.5615 C   0  0  0  0  0  0  0  0  0  0  0  0
   25.4900  -20.2532   -8.1414 C   0  0  0  0  0  0  0  0  0  0  0  0
   24.6464  -19.3363   -8.3318 O   0  0  0  0  0  0  0  0  0  0  0  0
   21.4161  -21.6986   -5.3844 N   0  0  0  0  0  0  0  0  0  0  0  0
   21.7604  -22.5589   -6.4819 C   0  0  0  0  0  0  0  0  0  0  0  0
   20.9584  -23.4246   -6.8742 O   0  0  0  0  0  0  0  0  0  0  0  0
   23.0654  -22.3646   -7.0914 C   0  0  0  0  0  0  0  0  0  0  0  0
   23.8546  -21.2627   -6.4786 C   0  0  2  0  0  0  0  0  0  0  0  0
   25.1528  -21.2552   -7.2063 N   0  0  0  0  0  0  0  0  0  0  0  0
   24.1337  -21.4231   -5.0303 C   0  0  0  0  0  0  0  0  0  0  0  0
   25.3615  -21.9893   -4.6706 O   0  0  0  0  0  0  0  0  0  0  0  0
   23.3409  -21.0838   -4.1377 O   0  0  0  0  0  0  0  0  0  0  0  0
  2  1  1  6
  3  2  1  0
  4  2  1  0
  5  4  1  0
  5  6  1  1
  7  8  2  0
  7  5  1  0
  9  7  1  0
 10  9  1  0
 10 11  1  1
 11 12  1  0
 12 17  2  0
 12 13  1  0
 13 14  2  0
 14 15  1  0
 16 15  2  0
 17 16  1  0
 18 10  1  0
 19 18  2  0
 21 22  2  0
 21 20  1  0
 23 21  1  0
 24 23  1  6
 24 25  1  0
 25 18  1  0
 26 24  1  0
 27 26  1  0
 28 26  2  0
M  END
$$$$
