LFN.pdb
     RDKit          3D

 28 28  0  0  1  0  0  0  0  0999 V2000
   23.8605  -13.9170  -21.8240 C   0  0  0  0  0  0  0  0  0  0  0  0
   23.5089  -14.3644  -20.4418 C   0  0  2  0  0  0  0  0  0  0  0  0
   22.3478  -15.3312  -20.5145 C   0  0  0  0  0  0  0  0  0  0  0  0
   23.1956  -13.1865  -19.5237 C   0  0  0  0  0  0  0  0  0  0  0  0
   24.4137  -12.3003  -19.5256 C   0  0  2  0  0  0  0  0  0  0  0  0
   25.5202  -13.0325  -18.9494 N   0  0  0  0  0  0  0  0  0  0  0  0
   24.2306  -11.0347  -18.8277 C   0  0  0  0  0  0  0  0  0  0  0  0
   23.1755  -10.3856  -19.0155 O   0  0  0  0  0  0  0  0  0  0  0  0
   25.1735  -10.4611  -17.9289 N   0  0  0  0  0  0  0  0  0  0  0  0
   25.0271   -9.2219  -17.2485 C   0  0  1  0  0  0  0  0  0  0  0  0
   25.9456   -9.0340  -16.0775 C   0  0  0  0  0  0  0  0  0  0  0  0
   27.3190   -9.4484  -16.4144 C   0  0  0  0  0  0  0  0  0  0  0  0
   28.2023   -8.6018  -17.0315 C   0  0  0  0  0  0  0  0  0  0  0  0
   29.4950   -9.0089  -17.3430 C   0  0  0  0  0  0  0  0  0  0  0  0
   29.8866  -10.2787  -17.0254 C   0  0  0  0  0  0  0  0  0  0  0  0
   29.0229  -11.1555  -16.4044 C   0  0  0  0  0  0  0  0  0  0  0  0
   27.7281  -10.7176  -16.1032 C   0  0  0  0  0  0  0  0  0  0  0  0
   25.2587   -8.1011  -18.1944 C   0  0  0  0  0  0  0  0  0  0  0  0
   26.0104   -8.2492  -19.1951 O   0  0  0  0  0  0  0  0  0  0  0  0
   25.4477   -4.5900  -21.3879 N   0  0  0  0  0  0  0  0  0  0  0  0
   24.5797   -5.7275  -21.5149 C   0  0  0  0  0  0  0  0  0  0  0  0
   24.2273   -6.1235  -22.6399 O   0  0  0  0  0  0  0  0  0  0  0  0
   24.1485   -6.3719  -20.2857 C   0  0  0  0  0  0  0  0  0  0  0  0
   24.7316   -5.7695  -19.0571 C   0  0  2  0  0  0  0  0  0  0  0  0
   24.6577   -6.8357  -18.0214 N   0  0  0  0  0  0  0  0  0  0  0  0
   24.0167   -4.5740  -18.5462 C   0  0  0  0  0  0  0  0  0  0  0  0
   24.6524   -3.3356  -18.6859 O   0  0  0  0  0  0  0  0  0  0  0  0
   22.8987   -4.6214  -18.0092 O   0  0  0  0  0  0  0  0  0  0  0  0
  2  1  1  6
  3  2  1  0
  4  2  1  0
  5  4  1  0
  5  6  1  1
  7  8  2  0
  7  5  1  0
  9  7  1  0
 10  9  1  0
 10 11  1  1
 11 12  1  0
 12 17  2  0
 12 13  1  0
 13 14  2  0
 14 15  1  0
 16 15  2  0
 17 16  1  0
 18 10  1  0
 19 18  2  0
 21 22  2  0
 21 20  1  0
 23 21  1  0
 24 23  1  6
 24 25  1  0
 25 18  1  0
 26 24  1  0
 27 26  1  0
 28 26  2  0
M  END
$$$$
