LFN.pdb
     RDKit          3D

 28 28  0  0  1  0  0  0  0  0999 V2000
   18.1079  -13.9569  -20.0500 C   0  0  0  0  0  0  0  0  0  0  0  0
   18.5855  -14.6680  -18.8251 C   0  0  2  0  0  0  0  0  0  0  0  0
   17.6734  -15.8421  -18.5466 C   0  0  0  0  0  0  0  0  0  0  0  0
   18.6735  -13.7339  -17.6216 C   0  0  0  0  0  0  0  0  0  0  0  0
   19.5689  -12.5917  -18.0248 C   0  0  2  0  0  0  0  0  0  0  0  0
   20.8915  -13.1123  -18.2932 N   0  0  0  0  0  0  0  0  0  0  0  0
   19.6413  -11.5168  -17.0441 C   0  0  0  0  0  0  0  0  0  0  0  0
   18.5955  -11.1669  -16.4494 O   0  0  0  0  0  0  0  0  0  0  0  0
   20.8299  -10.8146  -16.6976 N   0  0  0  0  0  0  0  0  0  0  0  0
   20.9164   -9.7195  -15.7958 C   0  0  1  0  0  0  0  0  0  0  0  0
   22.2871   -9.4670  -15.2413 C   0  0  0  0  0  0  0  0  0  0  0  0
   22.2732   -8.3332  -14.3001 C   0  0  0  0  0  0  0  0  0  0  0  0
   22.6087   -7.0626  -14.6886 C   0  0  0  0  0  0  0  0  0  0  0  0
   22.5909   -6.0037  -13.7874 C   0  0  0  0  0  0  0  0  0  0  0  0
   22.2313   -6.2404  -12.4907 C   0  0  0  0  0  0  0  0  0  0  0  0
   21.8882   -7.5066  -12.0672 C   0  0  0  0  0  0  0  0  0  0  0  0
   21.9153   -8.5527  -12.9968 C   0  0  0  0  0  0  0  0  0  0  0  0
   20.4617   -8.4778  -16.4712 C   0  0  0  0  0  0  0  0  0  0  0  0
   20.9214   -8.1541  -17.5992 O   0  0  0  0  0  0  0  0  0  0  0  0
   15.6550   -6.2441  -18.2389 N   0  0  0  0  0  0  0  0  0  0  0  0
   17.0483   -6.0206  -17.9702 C   0  0  0  0  0  0  0  0  0  0  0  0
   17.7552   -5.4140  -18.7940 O   0  0  0  0  0  0  0  0  0  0  0  0
   17.5703   -6.5307  -16.7134 C   0  0  0  0  0  0  0  0  0  0  0  0
   19.0421   -6.3721  -16.5677 C   0  0  2  0  0  0  0  0  0  0  0  0
   19.5078   -7.6136  -15.8919 N   0  0  0  0  0  0  0  0  0  0  0  0
   19.4684   -5.2094  -15.7506 C   0  0  0  0  0  0  0  0  0  0  0  0
   20.3007   -4.2648  -16.3608 O   0  0  0  0  0  0  0  0  0  0  0  0
   19.1263   -5.0391  -14.5697 O   0  0  0  0  0  0  0  0  0  0  0  0
  2  1  1  6
  3  2  1  0
  4  2  1  0
  5  4  1  0
  5  6  1  1
  7  8  2  0
  7  5  1  0
  9  7  1  0
 10  9  1  0
 10 11  1  6
 11 12  1  0
 12 17  2  0
 12 13  1  0
 13 14  2  0
 14 15  1  0
 16 15  2  0
 17 16  1  0
 18 10  1  0
 19 18  2  0
 21 22  2  0
 21 20  1  0
 23 21  1  0
 24 23  1  1
 24 25  1  0
 25 18  1  0
 26 24  1  0
 27 26  1  0
 28 26  2  0
M  END
$$$$
