LFE.pdb
     RDKit          3D

 29 29  0  0  1  0  0  0  0  0999 V2000
   27.8880  -20.4932  -19.4240 C   0  0  0  0  0  0  0  0  0  0  0  0
   26.9819  -21.7057  -19.4764 C   0  0  2  0  0  0  0  0  0  0  0  0
   26.0753  -21.5817  -20.6560 C   0  0  0  0  0  0  0  0  0  0  0  0
   26.2489  -21.7683  -18.1565 C   0  0  0  0  0  0  0  0  0  0  0  0
   27.1316  -22.3165  -17.0472 C   0  0  2  0  0  0  0  0  0  0  0  0
   27.5376  -23.6669  -17.3217 N   0  0  0  0  0  0  0  0  0  0  0  0
   26.3574  -22.2287  -15.7929 C   0  0  0  0  0  0  0  0  0  0  0  0
   25.2576  -22.8157  -15.7234 O   0  0  0  0  0  0  0  0  0  0  0  0
   26.8239  -21.5048  -14.6805 N   0  0  0  0  0  0  0  0  0  0  0  0
   26.0306  -21.3989  -13.5045 C   0  0  1  0  0  0  0  0  0  0  0  0
   26.8807  -20.7521  -12.4223 C   0  0  0  0  0  0  0  0  0  0  0  0
   26.1530  -20.6474  -11.1461 C   0  0  0  0  0  0  0  0  0  0  0  0
   25.9367  -21.7470  -10.3413 C   0  0  0  0  0  0  0  0  0  0  0  0
   25.2464  -21.6282   -9.1379 C   0  0  0  0  0  0  0  0  0  0  0  0
   24.7708  -20.4149   -8.7345 C   0  0  0  0  0  0  0  0  0  0  0  0
   24.9738  -19.3037   -9.5196 C   0  0  0  0  0  0  0  0  0  0  0  0
   25.6589  -19.4361  -10.7083 C   0  0  0  0  0  0  0  0  0  0  0  0
   24.8363  -20.5137  -13.6867 C   0  0  0  0  0  0  0  0  0  0  0  0
   24.9439  -19.3780  -14.2143 O   0  0  0  0  0  0  0  0  0  0  0  0
   23.5858  -20.9703  -13.2581 N   0  0  0  0  0  0  0  0  0  0  0  0
   22.3629  -20.1430  -13.3858 C   0  0  1  0  0  0  0  0  0  0  0  0
   21.6990  -20.4219  -14.6974 C   0  0  0  0  0  0  0  0  0  0  0  0
   20.4090  -19.7044  -14.8484 C   0  0  0  0  0  0  0  0  0  0  0  0
   19.7114  -20.0638  -16.1215 C   0  0  0  0  0  0  0  0  0  0  0  0
   18.4814  -20.2327  -16.2186 O   0  0  0  0  0  0  0  0  0  0  0  0
   21.4553  -20.4548  -12.2708 C   0  0  0  0  0  0  0  0  0  0  0  0
   20.6127  -19.4342  -11.8059 O   0  0  0  0  0  0  0  0  0  0  0  0
   20.5001  -20.2126  -17.2473 O   0  0  0  0  0  0  0  0  0  0  0  0
   21.3667  -21.5431  -11.7015 O   0  0  0  0  0  0  0  0  0  0  0  0
  2  4  1  0
  2  1  1  1
  3  2  1  0
  5  6  1  6
  5  4  1  0
  7  8  2  0
  7  5  1  0
  9  7  1  0
 10  9  1  0
 10 11  1  1
 12 17  2  0
 12 11  1  0
 13 12  1  0
 14 15  1  0
 14 13  2  0
 15 16  2  0
 16 17  1  0
 18 10  1  0
 18 20  1  0
 19 18  2  0
 21 20  1  0
 21 26  1  0
 21 22  1  6
 23 22  1  0
 24 23  1  0
 24 25  2  0
 26 29  2  0
 26 27  1  0
 28 24  1  0
M  END
$$$$
