LFE.pdb
     RDKit          3D

 29 29  0  0  1  0  0  0  0  0999 V2000
   18.5538  -10.9457  -20.1378 C   0  0  0  0  0  0  0  0  0  0  0  0
   19.8667  -11.5506  -19.6859 C   0  0  2  0  0  0  0  0  0  0  0  0
   19.7395  -13.0381  -19.6854 C   0  0  0  0  0  0  0  0  0  0  0  0
   20.1760  -10.9714  -18.3249 C   0  0  0  0  0  0  0  0  0  0  0  0
   21.6396  -11.1504  -17.9557 C   0  0  2  0  0  0  0  0  0  0  0  0
   21.8774  -12.4423  -17.3743 N   0  0  0  0  0  0  0  0  0  0  0  0
   21.9871  -10.0631  -17.0190 C   0  0  0  0  0  0  0  0  0  0  0  0
   21.6714  -10.1820  -15.8168 O   0  0  0  0  0  0  0  0  0  0  0  0
   22.6606   -8.9033  -17.4434 N   0  0  0  0  0  0  0  0  0  0  0  0
   22.9877   -7.8780  -16.5131 C   0  0  1  0  0  0  0  0  0  0  0  0
   24.4815   -7.6125  -16.6143 C   0  0  0  0  0  0  0  0  0  0  0  0
   25.2732   -8.7934  -16.2297 C   0  0  0  0  0  0  0  0  0  0  0  0
   25.5424   -9.0885  -14.9091 C   0  0  0  0  0  0  0  0  0  0  0  0
   26.2928  -10.2098  -14.5652 C   0  0  0  0  0  0  0  0  0  0  0  0
   26.7761  -11.0383  -15.5352 C   0  0  0  0  0  0  0  0  0  0  0  0
   26.5211  -10.7653  -16.8592 C   0  0  0  0  0  0  0  0  0  0  0  0
   25.7768   -9.6518  -17.1850 C   0  0  0  0  0  0  0  0  0  0  0  0
   22.3078   -6.5786  -16.8173 C   0  0  0  0  0  0  0  0  0  0  0  0
   22.2967   -6.1085  -17.9828 O   0  0  0  0  0  0  0  0  0  0  0  0
   21.6784   -5.8865  -15.7777 N   0  0  0  0  0  0  0  0  0  0  0  0
   20.9776   -4.6003  -16.0033 C   0  0  1  0  0  0  0  0  0  0  0  0
   19.5934   -4.6734  -15.4401 C   0  0  0  0  0  0  0  0  0  0  0  0
   18.7954   -3.4556  -15.7259 C   0  0  0  0  0  0  0  0  0  0  0  0
   17.4065   -3.5524  -15.1798 C   0  0  0  0  0  0  0  0  0  0  0  0
   16.4702   -4.1371  -15.7562 O   0  0  0  0  0  0  0  0  0  0  0  0
   21.7409   -3.5198  -15.3594 C   0  0  0  0  0  0  0  0  0  0  0  0
   21.7637   -2.2671  -15.9902 O   0  0  0  0  0  0  0  0  0  0  0  0
   17.1703   -2.9484  -13.9589 O   0  0  0  0  0  0  0  0  0  0  0  0
   22.3690   -3.6161  -14.3048 O   0  0  0  0  0  0  0  0  0  0  0  0
  2  4  1  0
  2  1  1  1
  3  2  1  0
  5  6  1  1
  5  4  1  0
  7  8  2  0
  7  5  1  0
  9  7  1  0
 10  9  1  0
 10 11  1  6
 12 17  2  0
 12 11  1  0
 13 12  1  0
 14 15  1  0
 14 13  2  0
 15 16  2  0
 16 17  1  0
 18 10  1  0
 18 20  1  0
 19 18  2  0
 21 20  1  0
 21 26  1  0
 21 22  1  1
 23 22  1  0
 24 23  1  0
 24 25  2  0
 26 29  2  0
 26 27  1  0
 28 24  1  0
M  END
$$$$
