LFE.pdb
     RDKit          3D

 29 29  0  0  1  0  0  0  0  0999 V2000
   12.2378  -14.9997    6.0908 C   0  0  0  0  0  0  0  0  0  0  0  0
   12.2093  -16.4522    6.5193 C   0  0  2  0  0  0  0  0  0  0  0  0
   12.1972  -16.5166    8.0107 C   0  0  0  0  0  0  0  0  0  0  0  0
   13.4125  -17.1214    5.8965 C   0  0  0  0  0  0  0  0  0  0  0  0
   13.3743  -17.0499    4.3787 C   0  0  2  0  0  0  0  0  0  0  0  0
   12.3285  -17.8761    3.8429 N   0  0  0  0  0  0  0  0  0  0  0  0
   14.7021  -17.4733    3.8907 C   0  0  0  0  0  0  0  0  0  0  0  0
   14.9013  -18.6853    3.6662 O   0  0  0  0  0  0  0  0  0  0  0  0
   15.7427  -16.5519    3.6734 N   0  0  0  0  0  0  0  0  0  0  0  0
   17.0339  -17.0015    3.2804 C   0  0  1  0  0  0  0  0  0  0  0  0
   17.6687  -15.9151    2.4266 C   0  0  0  0  0  0  0  0  0  0  0  0
   18.9726  -16.3369    1.8870 C   0  0  0  0  0  0  0  0  0  0  0  0
   20.1469  -15.7130    2.2550 C   0  0  0  0  0  0  0  0  0  0  0  0
   21.3703  -16.1262    1.7340 C   0  0  0  0  0  0  0  0  0  0  0  0
   21.4260  -17.1605    0.8464 C   0  0  0  0  0  0  0  0  0  0  0  0
   20.2688  -17.7986    0.4640 C   0  0  0  0  0  0  0  0  0  0  0  0
   19.0648  -17.3790    0.9878 C   0  0  0  0  0  0  0  0  0  0  0  0
   17.9539  -17.2145    4.4428 C   0  0  0  0  0  0  0  0  0  0  0  0
   18.2802  -16.2627    5.1960 O   0  0  0  0  0  0  0  0  0  0  0  0
   18.4516  -18.4993    4.6833 N   0  0  0  0  0  0  0  0  0  0  0  0
   19.2117  -18.8284    5.9122 C   0  0  1  0  0  0  0  0  0  0  0  0
   18.3648  -18.5626    7.1166 C   0  0  0  0  0  0  0  0  0  0  0  0
   19.0369  -18.9447    8.3830 C   0  0  0  0  0  0  0  0  0  0  0  0
   18.1914  -18.6476    9.5803 C   0  0  0  0  0  0  0  0  0  0  0  0
   17.0183  -18.2343    9.5198 O   0  0  0  0  0  0  0  0  0  0  0  0
   19.6109  -20.2436    5.8635 C   0  0  0  0  0  0  0  0  0  0  0  0
   20.4376  -20.7274    6.8884 O   0  0  0  0  0  0  0  0  0  0  0  0
   18.7680  -18.8515   10.8202 O   0  0  0  0  0  0  0  0  0  0  0  0
   19.2817  -21.0517    4.9948 O   0  0  0  0  0  0  0  0  0  0  0  0
  2  4  1  0
  2  1  1  1
  3  2  1  0
  5  6  1  6
  5  4  1  0
  7  8  2  0
  7  5  1  0
  9  7  1  0
 10  9  1  0
 10 11  1  6
 12 17  2  0
 12 11  1  0
 13 12  1  0
 14 15  1  0
 14 13  2  0
 15 16  2  0
 16 17  1  0
 18 10  1  0
 18 20  1  0
 19 18  2  0
 21 20  1  0
 21 26  1  0
 21 22  1  1
 23 22  1  0
 24 23  1  0
 24 25  2  0
 26 29  2  0
 26 27  1  0
 28 24  1  0
M  END
$$$$
