LFE.pdb
     RDKit          3D

 29 29  0  0  1  0  0  0  0  0999 V2000
   21.1796  -11.8456  -21.6888 C   0  0  0  0  0  0  0  0  0  0  0  0
   19.7554  -12.1634  -21.2831 C   0  0  2  0  0  0  0  0  0  0  0  0
   18.8252  -11.6210  -22.3172 C   0  0  0  0  0  0  0  0  0  0  0  0
   19.5430  -11.5695  -19.9100 C   0  0  0  0  0  0  0  0  0  0  0  0
   20.5418  -12.1120  -18.9008 C   0  0  2  0  0  0  0  0  0  0  0  0
   20.3153  -13.5063  -18.6393 N   0  0  0  0  0  0  0  0  0  0  0  0
   20.4028  -11.3019  -17.6740 C   0  0  0  0  0  0  0  0  0  0  0  0
   19.3917  -11.4625  -16.9594 O   0  0  0  0  0  0  0  0  0  0  0  0
   21.3745  -10.3592  -17.2918 N   0  0  0  0  0  0  0  0  0  0  0  0
   21.1330   -9.4751  -16.2038 C   0  0  1  0  0  0  0  0  0  0  0  0
   22.4738   -9.1262  -15.5769 C   0  0  0  0  0  0  0  0  0  0  0  0
   22.3162   -8.2510  -14.4028 C   0  0  0  0  0  0  0  0  0  0  0  0
   22.4563   -6.8815  -14.4940 C   0  0  0  0  0  0  0  0  0  0  0  0
   22.3036   -6.0705  -13.3725 C   0  0  0  0  0  0  0  0  0  0  0  0
   22.0114   -6.6217  -12.1594 C   0  0  0  0  0  0  0  0  0  0  0  0
   21.8669   -7.9848  -12.0430 C   0  0  0  0  0  0  0  0  0  0  0  0
   22.0208   -8.7754  -13.1615 C   0  0  0  0  0  0  0  0  0  0  0  0
   20.5194   -8.1783  -16.6338 C   0  0  0  0  0  0  0  0  0  0  0  0
   20.9537   -7.5544  -17.6347 O   0  0  0  0  0  0  0  0  0  0  0  0
   19.4454   -7.6637  -15.9005 N   0  0  0  0  0  0  0  0  0  0  0  0
   18.7940   -6.3816  -16.2586 C   0  0  1  0  0  0  0  0  0  0  0  0
   17.4002   -6.6396  -16.7375 C   0  0  0  0  0  0  0  0  0  0  0  0
   16.6307   -5.3897  -16.9555 C   0  0  0  0  0  0  0  0  0  0  0  0
   16.6124   -4.9844  -18.3949 C   0  0  0  0  0  0  0  0  0  0  0  0
   15.8445   -4.1255  -18.8674 O   0  0  0  0  0  0  0  0  0  0  0  0
   18.7804   -5.5051  -15.0771 C   0  0  0  0  0  0  0  0  0  0  0  0
   19.0367   -4.1396  -15.2705 O   0  0  0  0  0  0  0  0  0  0  0  0
   17.5118   -5.6150  -19.2345 O   0  0  0  0  0  0  0  0  0  0  0  0
   18.5619   -5.8652  -13.9201 O   0  0  0  0  0  0  0  0  0  0  0  0
  2  4  1  0
  2  1  1  6
  3  2  1  0
  5  6  1  1
  5  4  1  0
  7  8  2  0
  7  5  1  0
  9  7  1  0
 10  9  1  0
 10 11  1  6
 12 17  2  0
 12 11  1  0
 13 12  1  0
 14 15  1  0
 14 13  2  0
 15 16  2  0
 16 17  1  0
 18 10  1  0
 18 20  1  0
 19 18  2  0
 21 20  1  0
 21 26  1  0
 21 22  1  1
 23 22  1  0
 24 23  1  0
 24 25  2  0
 26 29  2  0
 26 27  1  0
 28 24  1  0
M  END
$$$$
