LFE.pdb
     RDKit          3D

 29 29  0  0  1  0  0  0  0  0999 V2000
   27.2414  -20.9372  -16.1299 C   0  0  0  0  0  0  0  0  0  0  0  0
   28.3736  -21.6549  -15.4248 C   0  0  2  0  0  0  0  0  0  0  0  0
   28.7638  -22.8507  -16.2289 C   0  0  0  0  0  0  0  0  0  0  0  0
   27.8853  -21.9952  -14.0359 C   0  0  0  0  0  0  0  0  0  0  0  0
   27.5592  -20.7474  -13.2316 C   0  0  2  0  0  0  0  0  0  0  0  0
   28.5583  -19.7316  -13.4152 N   0  0  0  0  0  0  0  0  0  0  0  0
   27.4578  -21.1571  -11.8166 C   0  0  0  0  0  0  0  0  0  0  0  0
   26.7843  -22.1690  -11.5310 O   0  0  0  0  0  0  0  0  0  0  0  0
   28.0965  -20.4412  -10.7879 N   0  0  0  0  0  0  0  0  0  0  0  0
   27.7375  -20.6572   -9.4284 C   0  0  1  0  0  0  0  0  0  0  0  0
   28.7924  -19.9969   -8.5545 C   0  0  0  0  0  0  0  0  0  0  0  0
   28.4294  -20.0476   -7.1280 C   0  0  0  0  0  0  0  0  0  0  0  0
   28.8831  -21.0525   -6.2986 C   0  0  0  0  0  0  0  0  0  0  0  0
   28.5290  -21.0835   -4.9523 C   0  0  0  0  0  0  0  0  0  0  0  0
   27.7232  -20.1144   -4.4304 C   0  0  0  0  0  0  0  0  0  0  0  0
   27.2581  -19.1019   -5.2372 C   0  0  0  0  0  0  0  0  0  0  0  0
   27.6167  -19.0839   -6.5680 C   0  0  0  0  0  0  0  0  0  0  0  0
   26.4313  -20.0215   -9.0640 C   0  0  0  0  0  0  0  0  0  0  0  0
   26.1957  -18.8178   -9.3383 O   0  0  0  0  0  0  0  0  0  0  0  0
   25.4657  -20.7914   -8.4077 N   0  0  0  0  0  0  0  0  0  0  0  0
   24.0157  -20.5223   -8.5542 C   0  0  1  0  0  0  0  0  0  0  0  0
   23.5844  -20.8267   -9.9542 C   0  0  0  0  0  0  0  0  0  0  0  0
   22.1200  -20.6827  -10.1447 C   0  0  0  0  0  0  0  0  0  0  0  0
   21.7793  -20.1392  -11.4957 C   0  0  0  0  0  0  0  0  0  0  0  0
   22.4234  -20.3916  -12.5312 O   0  0  0  0  0  0  0  0  0  0  0  0
   23.2748  -21.3541   -7.5931 C   0  0  0  0  0  0  0  0  0  0  0  0
   21.9100  -21.0867   -7.4099 O   0  0  0  0  0  0  0  0  0  0  0  0
   20.6778  -19.3076  -11.5765 O   0  0  0  0  0  0  0  0  0  0  0  0
   23.7493  -22.2744   -6.9268 O   0  0  0  0  0  0  0  0  0  0  0  0
  2  4  1  0
  2  1  1  6
  3  2  1  0
  5  6  1  1
  5  4  1  0
  7  8  2  0
  7  5  1  0
  9  7  1  0
 10  9  1  0
 10 11  1  1
 12 17  2  0
 12 11  1  0
 13 12  1  0
 14 15  1  0
 14 13  2  0
 15 16  2  0
 16 17  1  0
 18 10  1  0
 18 20  1  0
 19 18  2  0
 21 20  1  0
 21 26  1  0
 21 22  1  6
 23 22  1  0
 24 23  1  0
 24 25  2  0
 26 29  2  0
 26 27  1  0
 28 24  1  0
M  END
$$$$
