LFE.pdb
     RDKit          3D

 29 29  0  0  1  0  0  0  0  0999 V2000
   28.2987  -20.8279   -7.4565 C   0  0  0  0  0  0  0  0  0  0  0  0
   26.8921  -20.3273   -7.2021 C   0  0  2  0  0  0  0  0  0  0  0  0
   26.3310  -21.0419   -6.0175 C   0  0  0  0  0  0  0  0  0  0  0  0
   26.1047  -20.5541   -8.4718 C   0  0  0  0  0  0  0  0  0  0  0  0
   26.7600  -19.8841   -9.6684 C   0  0  2  0  0  0  0  0  0  0  0  0
   27.0503  -18.5031   -9.3998 N   0  0  0  0  0  0  0  0  0  0  0  0
   25.8336  -20.0304  -10.8090 C   0  0  0  0  0  0  0  0  0  0  0  0
   24.8101  -19.3163  -10.8469 O   0  0  0  0  0  0  0  0  0  0  0  0
   26.0729  -20.9481  -11.8479 N   0  0  0  0  0  0  0  0  0  0  0  0
   25.3105  -20.8941  -13.0477 C   0  0  1  0  0  0  0  0  0  0  0  0
   26.1697  -21.4467  -14.1742 C   0  0  0  0  0  0  0  0  0  0  0  0
   27.0354  -20.4090  -14.7599 C   0  0  0  0  0  0  0  0  0  0  0  0
   26.5133  -19.2853  -15.3668 C   0  0  0  0  0  0  0  0  0  0  0  0
   27.3481  -18.3151  -15.9150 C   0  0  0  0  0  0  0  0  0  0  0  0
   28.7031  -18.4623  -15.8597 C   0  0  0  0  0  0  0  0  0  0  0  0
   29.2478  -19.5740  -15.2598 C   0  0  0  0  0  0  0  0  0  0  0  0
   28.4094  -20.5264  -14.7213 C   0  0  0  0  0  0  0  0  0  0  0  0
   24.0831  -21.7508  -12.9957 C   0  0  0  0  0  0  0  0  0  0  0  0
   24.0877  -22.8568  -12.3987 O   0  0  0  0  0  0  0  0  0  0  0  0
   22.9186  -21.3009  -13.6262 N   0  0  0  0  0  0  0  0  0  0  0  0
   21.6206  -21.9977  -13.4655 C   0  0  1  0  0  0  0  0  0  0  0  0
   20.5852  -21.0320  -12.9817 C   0  0  0  0  0  0  0  0  0  0  0  0
   19.2596  -21.6681  -12.7827 C   0  0  0  0  0  0  0  0  0  0  0  0
   18.2401  -20.6973  -12.2779 C   0  0  0  0  0  0  0  0  0  0  0  0
   18.4632  -19.4865  -12.0910 O   0  0  0  0  0  0  0  0  0  0  0  0
   21.2239  -22.5754  -14.7591 C   0  0  0  0  0  0  0  0  0  0  0  0
   21.8633  -22.0997  -15.9135 O   0  0  0  0  0  0  0  0  0  0  0  0
   16.9793  -21.1967  -12.0088 O   0  0  0  0  0  0  0  0  0  0  0  0
   20.3715  -23.4487  -14.9227 O   0  0  0  0  0  0  0  0  0  0  0  0
  2  4  1  0
  2  1  1  6
  3  2  1  0
  5  6  1  1
  5  4  1  0
  7  8  2  0
  7  5  1  0
  9  7  1  0
 10  9  1  0
 10 11  1  6
 12 17  2  0
 12 11  1  0
 13 12  1  0
 14 15  1  0
 14 13  2  0
 15 16  2  0
 16 17  1  0
 18 10  1  0
 18 20  1  0
 19 18  2  0
 21 20  1  0
 21 26  1  0
 21 22  1  6
 23 22  1  0
 24 23  1  0
 24 25  2  0
 26 29  2  0
 26 27  1  0
 28 24  1  0
M  END
$$$$
