LFE.pdb
     RDKit          3D

 29 29  0  0  1  0  0  0  0  0999 V2000
   25.5234  -31.8053   -7.3769 C   0  0  0  0  0  0  0  0  0  0  0  0
   25.3296  -33.2686   -7.7163 C   0  0  2  0  0  0  0  0  0  0  0  0
   24.0075  -33.7171   -7.1876 C   0  0  0  0  0  0  0  0  0  0  0  0
   26.5011  -34.0190   -7.1264 C   0  0  0  0  0  0  0  0  0  0  0  0
   27.8294  -33.4577   -7.6066 C   0  0  2  0  0  0  0  0  0  0  0  0
   27.9947  -33.6446   -9.0213 N   0  0  0  0  0  0  0  0  0  0  0  0
   28.8916  -34.1423   -6.8426 C   0  0  0  0  0  0  0  0  0  0  0  0
   29.3504  -35.2170   -7.2824 O   0  0  0  0  0  0  0  0  0  0  0  0
   29.3970  -33.6180   -5.6390 N   0  0  0  0  0  0  0  0  0  0  0  0
   30.4556  -34.2765   -4.9538 C   0  0  1  0  0  0  0  0  0  0  0  0
   31.5433  -33.2509   -4.6757 C   0  0  0  0  0  0  0  0  0  0  0  0
   32.4563  -33.0990   -5.8214 C   0  0  0  0  0  0  0  0  0  0  0  0
   32.3226  -32.0644   -6.7243 C   0  0  0  0  0  0  0  0  0  0  0  0
   33.1957  -31.9374   -7.8014 C   0  0  0  0  0  0  0  0  0  0  0  0
   34.2027  -32.8400   -7.9809 C   0  0  0  0  0  0  0  0  0  0  0  0
   34.3566  -33.8804   -7.0942 C   0  0  0  0  0  0  0  0  0  0  0  0
   33.4849  -33.9937   -6.0325 C   0  0  0  0  0  0  0  0  0  0  0  0
   30.0375  -34.8182   -3.6216 C   0  0  0  0  0  0  0  0  0  0  0  0
   29.1402  -34.2561   -2.9444 O   0  0  0  0  0  0  0  0  0  0  0  0
   30.6641  -35.9696   -3.1341 N   0  0  0  0  0  0  0  0  0  0  0  0
   30.2856  -36.5791   -1.8374 C   0  0  1  0  0  0  0  0  0  0  0  0
   30.8048  -37.9806   -1.7672 C   0  0  0  0  0  0  0  0  0  0  0  0
   30.5271  -38.6278   -0.4612 C   0  0  0  0  0  0  0  0  0  0  0  0
   29.4131  -39.6215   -0.5517 C   0  0  0  0  0  0  0  0  0  0  0  0
   28.7709  -39.8557   -1.5926 O   0  0  0  0  0  0  0  0  0  0  0  0
   30.8433  -35.7663   -0.7453 C   0  0  0  0  0  0  0  0  0  0  0  0
   31.8226  -34.8157   -1.0694 O   0  0  0  0  0  0  0  0  0  0  0  0
   29.0937  -40.3109    0.6034 O   0  0  0  0  0  0  0  0  0  0  0  0
   30.5250  -35.8453    0.4415 O   0  0  0  0  0  0  0  0  0  0  0  0
  2  4  1  0
  2  1  1  1
  3  2  1  0
  5  6  1  6
  5  4  1  0
  7  8  2  0
  7  5  1  0
  9  7  1  0
 10  9  1  0
 10 11  1  1
 12 17  2  0
 12 11  1  0
 13 12  1  0
 14 15  1  0
 14 13  2  0
 15 16  2  0
 16 17  1  0
 18 10  1  0
 18 20  1  0
 19 18  2  0
 21 20  1  0
 21 26  1  0
 21 22  1  6
 23 22  1  0
 24 23  1  0
 24 25  2  0
 26 29  2  0
 26 27  1  0
 28 24  1  0
M  END
$$$$
