LFE.pdb
     RDKit          3D

 29 29  0  0  1  0  0  0  0  0999 V2000
   27.9622  -21.0627  -19.4175 C   0  0  0  0  0  0  0  0  0  0  0  0
   28.5201  -21.9529  -18.3265 C   0  0  2  0  0  0  0  0  0  0  0  0
   29.1560  -23.1483  -18.9553 C   0  0  0  0  0  0  0  0  0  0  0  0
   27.3730  -22.2951  -17.4042 C   0  0  0  0  0  0  0  0  0  0  0  0
   26.7938  -21.0559  -16.7415 C   0  0  2  0  0  0  0  0  0  0  0  0
   27.7471  -19.9814  -16.7194 N   0  0  0  0  0  0  0  0  0  0  0  0
   26.3847  -21.4445  -15.3769 C   0  0  0  0  0  0  0  0  0  0  0  0
   25.6876  -22.4695  -15.2278 O   0  0  0  0  0  0  0  0  0  0  0  0
   26.7578  -20.6941  -14.2470 N   0  0  0  0  0  0  0  0  0  0  0  0
   26.1297  -20.9209  -12.9910 C   0  0  1  0  0  0  0  0  0  0  0  0
   27.0121  -20.3171  -11.9098 C   0  0  0  0  0  0  0  0  0  0  0  0
   26.3967  -20.4301  -10.5765 C   0  0  0  0  0  0  0  0  0  0  0  0
   26.0361  -19.3162   -9.8464 C   0  0  0  0  0  0  0  0  0  0  0  0
   25.4554  -19.4433   -8.5873 C   0  0  0  0  0  0  0  0  0  0  0  0
   25.2330  -20.6789   -8.0537 C   0  0  0  0  0  0  0  0  0  0  0  0
   25.5838  -21.8046   -8.7623 C   0  0  0  0  0  0  0  0  0  0  0  0
   26.1579  -21.6638  -10.0075 C   0  0  0  0  0  0  0  0  0  0  0  0
   24.7992  -20.2428  -12.8755 C   0  0  0  0  0  0  0  0  0  0  0  0
   24.6315  -19.0671  -13.2868 O   0  0  0  0  0  0  0  0  0  0  0  0
   23.7336  -20.9408  -12.2983 N   0  0  0  0  0  0  0  0  0  0  0  0
   22.3438  -20.4285  -12.3445 C   0  0  1  0  0  0  0  0  0  0  0  0
   21.6806  -20.8797  -13.6075 C   0  0  0  0  0  0  0  0  0  0  0  0
   20.7188  -19.8810  -14.1358 C   0  0  0  0  0  0  0  0  0  0  0  0
   19.5307  -20.5274  -14.7739 C   0  0  0  0  0  0  0  0  0  0  0  0
   19.5301  -21.6844  -15.2344 O   0  0  0  0  0  0  0  0  0  0  0  0
   21.6108  -20.9260  -11.1699 C   0  0  0  0  0  0  0  0  0  0  0  0
   20.4768  -20.2127  -10.7539 O   0  0  0  0  0  0  0  0  0  0  0  0
   18.3725  -19.7758  -14.8462 O   0  0  0  0  0  0  0  0  0  0  0  0
   21.9056  -21.9233  -10.5107 O   0  0  0  0  0  0  0  0  0  0  0  0
  2  4  1  0
  2  1  1  6
  3  2  1  0
  5  6  1  1
  5  4  1  0
  7  8  2  0
  7  5  1  0
  9  7  1  0
 10  9  1  0
 10 11  1  1
 12 17  2  0
 12 11  1  0
 13 12  1  0
 14 15  1  0
 14 13  2  0
 15 16  2  0
 16 17  1  0
 18 10  1  0
 18 20  1  0
 19 18  2  0
 21 20  1  0
 21 26  1  0
 21 22  1  6
 23 22  1  0
 24 23  1  0
 24 25  2  0
 26 29  2  0
 26 27  1  0
 28 24  1  0
M  END
$$$$
