LFE.pdb
     RDKit          3D

 29 29  0  0  1  0  0  0  0  0999 V2000
   27.3416  -20.6600   -4.2023 C   0  0  0  0  0  0  0  0  0  0  0  0
   28.2956  -19.6899   -4.8677 C   0  0  2  0  0  0  0  0  0  0  0  0
   28.5096  -18.5230   -3.9614 C   0  0  0  0  0  0  0  0  0  0  0  0
   27.6887  -19.3154   -6.2000 C   0  0  0  0  0  0  0  0  0  0  0  0
   27.4642  -20.5345   -7.0796 C   0  0  2  0  0  0  0  0  0  0  0  0
   28.6997  -21.2122   -7.3583 N   0  0  0  0  0  0  0  0  0  0  0  0
   26.8147  -20.0620   -8.3187 C   0  0  0  0  0  0  0  0  0  0  0  0
   27.1148  -18.9339   -8.7618 O   0  0  0  0  0  0  0  0  0  0  0  0
   25.8719  -20.8453   -9.0090 N   0  0  0  0  0  0  0  0  0  0  0  0
   25.7582  -20.7566  -10.4242 C   0  0  1  0  0  0  0  0  0  0  0  0
   26.4079  -21.9932  -11.0251 C   0  0  0  0  0  0  0  0  0  0  0  0
   26.5103  -21.8983  -12.4913 C   0  0  0  0  0  0  0  0  0  0  0  0
   25.6848  -22.6239  -13.3253 C   0  0  0  0  0  0  0  0  0  0  0  0
   25.7968  -22.5209  -14.7094 C   0  0  0  0  0  0  0  0  0  0  0  0
   26.7304  -21.6956  -15.2645 C   0  0  0  0  0  0  0  0  0  0  0  0
   27.5651  -20.9618  -14.4539 C   0  0  0  0  0  0  0  0  0  0  0  0
   27.4430  -21.0737  -13.0855 C   0  0  0  0  0  0  0  0  0  0  0  0
   24.3362  -20.7578  -10.8943 C   0  0  0  0  0  0  0  0  0  0  0  0
   23.4760  -21.5023  -10.3601 O   0  0  0  0  0  0  0  0  0  0  0  0
   23.9723  -19.9114  -11.9466 N   0  0  0  0  0  0  0  0  0  0  0  0
   22.5962  -19.8904  -12.4960 C   0  0  1  0  0  0  0  0  0  0  0  0
   22.5458  -19.0017  -13.6987 C   0  0  0  0  0  0  0  0  0  0  0  0
   21.2120  -18.9951  -14.3485 C   0  0  0  0  0  0  0  0  0  0  0  0
   21.1496  -18.0366  -15.4949 C   0  0  0  0  0  0  0  0  0  0  0  0
   22.1501  -17.5191  -16.0259 O   0  0  0  0  0  0  0  0  0  0  0  0
   22.2012  -21.2624  -12.8508 C   0  0  0  0  0  0  0  0  0  0  0  0
   20.8850  -21.6590  -12.5714 O   0  0  0  0  0  0  0  0  0  0  0  0
   19.8938  -17.7199  -15.9786 O   0  0  0  0  0  0  0  0  0  0  0  0
   22.9294  -22.1045  -13.3768 O   0  0  0  0  0  0  0  0  0  0  0  0
  2  4  1  0
  2  1  1  1
  3  2  1  0
  5  6  1  6
  5  4  1  0
  7  8  2  0
  7  5  1  0
  9  7  1  0
 10  9  1  0
 10 11  1  6
 12 17  2  0
 12 11  1  0
 13 12  1  0
 14 15  1  0
 14 13  2  0
 15 16  2  0
 16 17  1  0
 18 10  1  0
 18 20  1  0
 19 18  2  0
 21 20  1  0
 21 26  1  0
 21 22  1  6
 23 22  1  0
 24 23  1  0
 24 25  2  0
 26 29  2  0
 26 27  1  0
 28 24  1  0
M  END
$$$$
