LFE.pdb
     RDKit          3D

 29 29  0  0  1  0  0  0  0  0999 V2000
   28.3450  -21.5940  -19.0755 C   0  0  0  0  0  0  0  0  0  0  0  0
   27.0514  -22.3645  -19.2394 C   0  0  2  0  0  0  0  0  0  0  0  0
   26.2740  -21.7707  -20.3672 C   0  0  0  0  0  0  0  0  0  0  0  0
   26.3299  -22.3061  -17.9130 C   0  0  0  0  0  0  0  0  0  0  0  0
   27.1447  -22.9442  -16.7997 C   0  0  2  0  0  0  0  0  0  0  0  0
   27.3358  -24.3489  -17.0315 N   0  0  0  0  0  0  0  0  0  0  0  0
   26.4211  -22.6977  -15.5363 C   0  0  0  0  0  0  0  0  0  0  0  0
   25.3884  -23.3574  -15.2970 O   0  0  0  0  0  0  0  0  0  0  0  0
   26.8626  -21.7445  -14.6007 N   0  0  0  0  0  0  0  0  0  0  0  0
   26.1429  -21.5333  -13.3919 C   0  0  1  0  0  0  0  0  0  0  0  0
   27.0393  -20.7533  -12.4430 C   0  0  0  0  0  0  0  0  0  0  0  0
   26.3994  -20.5481  -11.1323 C   0  0  0  0  0  0  0  0  0  0  0  0
   25.8508  -19.3338  -10.7743 C   0  0  0  0  0  0  0  0  0  0  0  0
   25.2500  -19.1591   -9.5305 C   0  0  0  0  0  0  0  0  0  0  0  0
   25.1947  -20.1926   -8.6418 C   0  0  0  0  0  0  0  0  0  0  0  0
   25.7347  -21.4130   -8.9756 C   0  0  0  0  0  0  0  0  0  0  0  0
   26.3263  -21.5716  -10.2104 C   0  0  0  0  0  0  0  0  0  0  0  0
   24.9118  -20.7027  -13.5859 C   0  0  0  0  0  0  0  0  0  0  0  0
   24.9454  -19.6367  -14.2507 O   0  0  0  0  0  0  0  0  0  0  0  0
   23.7106  -21.1319  -13.0122 N   0  0  0  0  0  0  0  0  0  0  0  0
   22.4442  -20.3836  -13.1924 C   0  0  1  0  0  0  0  0  0  0  0  0
   22.0585  -20.3839  -14.6381 C   0  0  0  0  0  0  0  0  0  0  0  0
   20.7738  -19.6843  -14.8865 C   0  0  0  0  0  0  0  0  0  0  0  0
   20.8580  -18.7510  -16.0522 C   0  0  0  0  0  0  0  0  0  0  0  0
   21.6373  -18.9027  -17.0116 O   0  0  0  0  0  0  0  0  0  0  0  0
   21.3947  -21.0155  -12.3777 C   0  0  0  0  0  0  0  0  0  0  0  0
   20.2690  -20.2465  -12.0471 O   0  0  0  0  0  0  0  0  0  0  0  0
   20.0093  -17.6597  -16.0431 O   0  0  0  0  0  0  0  0  0  0  0  0
   21.4146  -22.1716  -11.9545 O   0  0  0  0  0  0  0  0  0  0  0  0
  2  4  1  0
  2  1  1  1
  3  2  1  0
  5  6  1  6
  5  4  1  0
  7  8  2  0
  7  5  1  0
  9  7  1  0
 10  9  1  0
 10 11  1  1
 12 17  2  0
 12 11  1  0
 13 12  1  0
 14 15  1  0
 14 13  2  0
 15 16  2  0
 16 17  1  0
 18 10  1  0
 18 20  1  0
 19 18  2  0
 21 20  1  0
 21 26  1  0
 21 22  1  6
 23 22  1  0
 24 23  1  0
 24 25  2  0
 26 29  2  0
 26 27  1  0
 28 24  1  0
M  END
$$$$
