LFE.pdb
     RDKit          3D

 29 29  0  0  1  0  0  0  0  0999 V2000
   28.2780  -18.7537  -16.7802 C   0  0  0  0  0  0  0  0  0  0  0  0
   29.0811  -19.8752  -16.1549 C   0  0  2  0  0  0  0  0  0  0  0  0
   29.6365  -20.7364  -17.2406 C   0  0  0  0  0  0  0  0  0  0  0  0
   28.1555  -20.6120  -15.2147 C   0  0  0  0  0  0  0  0  0  0  0  0
   27.5855  -19.6910  -14.1484 C   0  0  2  0  0  0  0  0  0  0  0  0
   28.6252  -19.1370  -13.3264 N   0  0  0  0  0  0  0  0  0  0  0  0
   26.6320  -20.4881  -13.3510 C   0  0  0  0  0  0  0  0  0  0  0  0
   26.2601  -21.5959  -13.7906 O   0  0  0  0  0  0  0  0  0  0  0  0
   26.1347  -20.0343  -12.1158 N   0  0  0  0  0  0  0  0  0  0  0  0
   25.1453  -20.7815  -11.4182 C   0  0  1  0  0  0  0  0  0  0  0  0
   25.0757  -20.2523   -9.9943 C   0  0  0  0  0  0  0  0  0  0  0  0
   26.3593  -20.4105   -9.2897 C   0  0  0  0  0  0  0  0  0  0  0  0
   26.7678  -19.5219   -8.3165 C   0  0  0  0  0  0  0  0  0  0  0  0
   27.9850  -19.6882   -7.6612 C   0  0  0  0  0  0  0  0  0  0  0  0
   28.7968  -20.7390   -7.9739 C   0  0  0  0  0  0  0  0  0  0  0  0
   28.4116  -21.6385   -8.9408 C   0  0  0  0  0  0  0  0  0  0  0  0
   27.2039  -21.4615   -9.5813 C   0  0  0  0  0  0  0  0  0  0  0  0
   23.7743  -20.6134  -11.9971 C   0  0  0  0  0  0  0  0  0  0  0  0
   23.3933  -19.5062  -12.4539 O   0  0  0  0  0  0  0  0  0  0  0  0
   22.9130  -21.7150  -12.0238 N   0  0  0  0  0  0  0  0  0  0  0  0
   21.5523  -21.6326  -12.6050 C   0  0  1  0  0  0  0  0  0  0  0  0
   21.0100  -23.0106  -12.8189 C   0  0  0  0  0  0  0  0  0  0  0  0
   19.6352  -23.0030  -13.3770 C   0  0  0  0  0  0  0  0  0  0  0  0
   19.6328  -23.1192  -14.8680 C   0  0  0  0  0  0  0  0  0  0  0  0
   20.4840  -23.7536  -15.5190 O   0  0  0  0  0  0  0  0  0  0  0  0
   20.6861  -20.8729  -11.6901 C   0  0  0  0  0  0  0  0  0  0  0  0
   19.4310  -20.4632  -12.1640 O   0  0  0  0  0  0  0  0  0  0  0  0
   18.6138  -22.4749  -15.5446 O   0  0  0  0  0  0  0  0  0  0  0  0
   20.9658  -20.5601  -10.5325 O   0  0  0  0  0  0  0  0  0  0  0  0
  2  4  1  0
  2  1  1  6
  3  2  1  0
  5  6  1  1
  5  4  1  0
  7  8  2  0
  7  5  1  0
  9  7  1  0
 10  9  1  0
 10 11  1  1
 12 17  2  0
 12 11  1  0
 13 12  1  0
 14 15  1  0
 14 13  2  0
 15 16  2  0
 16 17  1  0
 18 10  1  0
 18 20  1  0
 19 18  2  0
 21 20  1  0
 21 26  1  0
 21 22  1  1
 23 22  1  0
 24 23  1  0
 24 25  2  0
 26 29  2  0
 26 27  1  0
 28 24  1  0
M  END
$$$$
