LFE.pdb
     RDKit          3D

 29 29  0  0  1  0  0  0  0  0999 V2000
   29.1562  -26.8313  -19.5299 C   0  0  0  0  0  0  0  0  0  0  0  0
   29.5517  -28.0224  -20.3777 C   0  0  2  0  0  0  0  0  0  0  0  0
   29.2784  -27.7081  -21.8114 C   0  0  0  0  0  0  0  0  0  0  0  0
   28.7740  -29.2109  -19.8620 C   0  0  0  0  0  0  0  0  0  0  0  0
   29.1044  -29.5133  -18.4096 C   0  0  2  0  0  0  0  0  0  0  0  0
   30.4596  -29.9678  -18.2658 N   0  0  0  0  0  0  0  0  0  0  0  0
   28.1402  -30.5320  -17.9481 C   0  0  0  0  0  0  0  0  0  0  0  0
   28.0352  -31.5958  -18.5933 O   0  0  0  0  0  0  0  0  0  0  0  0
   27.3413  -30.3363  -16.8069 N   0  0  0  0  0  0  0  0  0  0  0  0
   26.4463  -31.3521  -16.3701 C   0  0  1  0  0  0  0  0  0  0  0  0
   27.0208  -31.9707  -15.1053 C   0  0  0  0  0  0  0  0  0  0  0  0
   28.0524  -32.9769  -15.4097 C   0  0  0  0  0  0  0  0  0  0  0  0
   27.7283  -34.2911  -15.6770 C   0  0  0  0  0  0  0  0  0  0  0  0
   28.7179  -35.2281  -15.9626 C   0  0  0  0  0  0  0  0  0  0  0  0
   30.0307  -34.8580  -15.9825 C   0  0  0  0  0  0  0  0  0  0  0  0
   30.3790  -33.5535  -15.7192 C   0  0  0  0  0  0  0  0  0  0  0  0
   29.3889  -32.6366  -15.4380 C   0  0  0  0  0  0  0  0  0  0  0  0
   25.0963  -30.8184  -16.0017 C   0  0  0  0  0  0  0  0  0  0  0  0
   24.9764  -29.7706  -15.3180 O   0  0  0  0  0  0  0  0  0  0  0  0
   23.9576  -31.5070  -16.4321 N   0  0  0  0  0  0  0  0  0  0  0  0
   22.5899  -30.9930  -16.1845 C   0  0  1  0  0  0  0  0  0  0  0  0
   21.7625  -31.1417  -17.4221 C   0  0  0  0  0  0  0  0  0  0  0  0
   20.4008  -30.5720  -17.2707 C   0  0  0  0  0  0  0  0  0  0  0  0
   19.5863  -30.7232  -18.5158 C   0  0  0  0  0  0  0  0  0  0  0  0
   20.0499  -30.6290  -19.6677 O   0  0  0  0  0  0  0  0  0  0  0  0
   21.9910  -31.7430  -15.0695 C   0  0  0  0  0  0  0  0  0  0  0  0
   21.1581  -31.0454  -14.1822 O   0  0  0  0  0  0  0  0  0  0  0  0
   18.2380  -30.9832  -18.3543 O   0  0  0  0  0  0  0  0  0  0  0  0
   22.1564  -32.9417  -14.8413 O   0  0  0  0  0  0  0  0  0  0  0  0
  2  4  1  0
  2  1  1  1
  3  2  1  0
  5  6  1  6
  5  4  1  0
  7  8  2  0
  7  5  1  0
  9  7  1  0
 10  9  1  0
 10 11  1  1
 12 17  2  0
 12 11  1  0
 13 12  1  0
 14 15  1  0
 14 13  2  0
 15 16  2  0
 16 17  1  0
 18 10  1  0
 18 20  1  0
 19 18  2  0
 21 20  1  0
 21 26  1  0
 21 22  1  6
 23 22  1  0
 24 23  1  0
 24 25  2  0
 26 29  2  0
 26 27  1  0
 28 24  1  0
M  END
$$$$
