LFE.pdb
     RDKit          3D

 29 29  0  0  1  0  0  0  0  0999 V2000
   27.9645  -21.8049  -19.5842 C   0  0  0  0  0  0  0  0  0  0  0  0
   28.8674  -22.3291  -18.4870 C   0  0  2  0  0  0  0  0  0  0  0  0
   29.5862  -23.5379  -18.9880 C   0  0  0  0  0  0  0  0  0  0  0  0
   27.9921  -22.6026  -17.2859 C   0  0  0  0  0  0  0  0  0  0  0  0
   27.2847  -21.3457  -16.8063 C   0  0  2  0  0  0  0  0  0  0  0  0
   28.1722  -20.2161  -16.8020 N   0  0  0  0  0  0  0  0  0  0  0  0
   26.7640  -21.6299  -15.4540 C   0  0  0  0  0  0  0  0  0  0  0  0
   26.0913  -22.6664  -15.2749 O   0  0  0  0  0  0  0  0  0  0  0  0
   27.0048  -20.7682  -14.3685 N   0  0  0  0  0  0  0  0  0  0  0  0
   26.3277  -20.9591  -13.1321 C   0  0  1  0  0  0  0  0  0  0  0  0
   27.1067  -20.2239  -12.0528 C   0  0  0  0  0  0  0  0  0  0  0  0
   26.4300  -20.2952  -10.7465 C   0  0  0  0  0  0  0  0  0  0  0  0
   26.5136  -21.4155   -9.9457 C   0  0  0  0  0  0  0  0  0  0  0  0
   25.8667  -21.4641   -8.7136 C   0  0  0  0  0  0  0  0  0  0  0  0
   25.1360  -20.3979   -8.2776 C   0  0  0  0  0  0  0  0  0  0  0  0
   25.0376  -19.2694   -9.0582 C   0  0  0  0  0  0  0  0  0  0  0  0
   25.6832  -19.2352  -10.2755 C   0  0  0  0  0  0  0  0  0  0  0  0
   24.9489  -20.3744  -13.1280 C   0  0  0  0  0  0  0  0  0  0  0  0
   24.7492  -19.1790  -13.4608 O   0  0  0  0  0  0  0  0  0  0  0  0
   23.8738  -21.1830  -12.7452 N   0  0  0  0  0  0  0  0  0  0  0  0
   22.4714  -20.7097  -12.8189 C   0  0  1  0  0  0  0  0  0  0  0  0
   21.6650  -21.6481  -13.6600 C   0  0  0  0  0  0  0  0  0  0  0  0
   20.2408  -21.2441  -13.7613 C   0  0  0  0  0  0  0  0  0  0  0  0
   19.4681  -22.1335  -14.6824 C   0  0  0  0  0  0  0  0  0  0  0  0
   19.9411  -23.1444  -15.2348 O   0  0  0  0  0  0  0  0  0  0  0  0
   21.9199  -20.6328  -11.4571 C   0  0  0  0  0  0  0  0  0  0  0  0
   20.9006  -19.7003  -11.2140 O   0  0  0  0  0  0  0  0  0  0  0  0
   18.1494  -21.7935  -14.9210 O   0  0  0  0  0  0  0  0  0  0  0  0
   22.2759  -21.3206  -10.4998 O   0  0  0  0  0  0  0  0  0  0  0  0
  2  4  1  0
  2  1  1  6
  3  2  1  0
  5  6  1  1
  5  4  1  0
  7  8  2  0
  7  5  1  0
  9  7  1  0
 10  9  1  0
 10 11  1  1
 12 17  2  0
 12 11  1  0
 13 12  1  0
 14 15  1  0
 14 13  2  0
 15 16  2  0
 16 17  1  0
 18 10  1  0
 18 20  1  0
 19 18  2  0
 21 20  1  0
 21 26  1  0
 21 22  1  6
 23 22  1  0
 24 23  1  0
 24 25  2  0
 26 29  2  0
 26 27  1  0
 28 24  1  0
M  END
$$$$
