LFE.pdb
     RDKit          3D

 29 29  0  0  1  0  0  0  0  0999 V2000
   19.2356  -12.4715  -20.9682 C   0  0  0  0  0  0  0  0  0  0  0  0
   17.7918  -12.2086  -20.5935 C   0  0  2  0  0  0  0  0  0  0  0  0
   17.0611  -11.7156  -21.7983 C   0  0  0  0  0  0  0  0  0  0  0  0
   17.8039  -11.2213  -19.4496 C   0  0  0  0  0  0  0  0  0  0  0  0
   18.5692  -11.7572  -18.2506 C   0  0  2  0  0  0  0  0  0  0  0  0
   17.8690  -12.8462  -17.6282 N   0  0  0  0  0  0  0  0  0  0  0  0
   18.7565  -10.6296  -17.3159 C   0  0  0  0  0  0  0  0  0  0  0  0
   17.7827  -10.2451  -16.6355 O   0  0  0  0  0  0  0  0  0  0  0  0
   19.9965   -9.9808  -17.1728 N   0  0  0  0  0  0  0  0  0  0  0  0
   20.1184   -8.8334  -16.3407 C   0  0  1  0  0  0  0  0  0  0  0  0
   21.4935   -8.8686  -15.6925 C   0  0  0  0  0  0  0  0  0  0  0  0
   21.7201   -7.6971  -14.8290 C   0  0  0  0  0  0  0  0  0  0  0  0
   22.3370   -6.5564  -15.3000 C   0  0  0  0  0  0  0  0  0  0  0  0
   22.5425   -5.4588  -14.4682 C   0  0  0  0  0  0  0  0  0  0  0  0
   22.1342   -5.4955  -13.1671 C   0  0  0  0  0  0  0  0  0  0  0  0
   21.5168   -6.6217  -12.6741 C   0  0  0  0  0  0  0  0  0  0  0  0
   21.3199   -7.7007  -13.5089 C   0  0  0  0  0  0  0  0  0  0  0  0
   20.0475   -7.5490  -17.1077 C   0  0  0  0  0  0  0  0  0  0  0  0
   20.7243   -7.3782  -18.1529 O   0  0  0  0  0  0  0  0  0  0  0  0
   19.2099   -6.5302  -16.6423 N   0  0  0  0  0  0  0  0  0  0  0  0
   19.1171   -5.2181  -17.3251 C   0  0  1  0  0  0  0  0  0  0  0  0
   17.8165   -5.1210  -18.0584 C   0  0  0  0  0  0  0  0  0  0  0  0
   17.6941   -3.8660  -18.8404 C   0  0  0  0  0  0  0  0  0  0  0  0
   16.3440   -3.7237  -19.4677 C   0  0  0  0  0  0  0  0  0  0  0  0
   15.3995   -4.5122  -19.2754 O   0  0  0  0  0  0  0  0  0  0  0  0
   19.2256   -4.1476  -16.3218 C   0  0  0  0  0  0  0  0  0  0  0  0
   19.6524   -2.8835  -16.7551 O   0  0  0  0  0  0  0  0  0  0  0  0
   16.1554   -2.6433  -20.3094 O   0  0  0  0  0  0  0  0  0  0  0  0
   18.9731   -4.2614  -15.1221 O   0  0  0  0  0  0  0  0  0  0  0  0
  2  4  1  0
  2  1  1  6
  3  2  1  0
  5  6  1  1
  5  4  1  0
  7  8  2  0
  7  5  1  0
  9  7  1  0
 10  9  1  0
 10 11  1  6
 12 17  2  0
 12 11  1  0
 13 12  1  0
 14 15  1  0
 14 13  2  0
 15 16  2  0
 16 17  1  0
 18 10  1  0
 18 20  1  0
 19 18  2  0
 21 20  1  0
 21 26  1  0
 21 22  1  1
 23 22  1  0
 24 23  1  0
 24 25  2  0
 26 29  2  0
 26 27  1  0
 28 24  1  0
M  END
$$$$
