YPH.pdb
     RDKit          3D

 30 32  0  0  1  0  0  0  0  0999 V2000
    8.1398  -11.3979   23.1456 O   0  0  0  0  0  0  0  0  0  0  0  0
    7.7446  -12.5768   22.4818 C   0  0  0  0  0  0  0  0  0  0  0  0
    7.8681  -13.8050   23.0915 C   0  0  0  0  0  0  0  0  0  0  0  0
    7.4811  -14.9652   22.4427 C   0  0  0  0  0  0  0  0  0  0  0  0
    6.9588  -14.9512   21.1696 C   0  0  0  0  0  0  0  0  0  0  0  0
    6.5317  -16.1365   20.4430 C   0  0  0  0  0  0  0  0  0  0  0  0
    7.4679  -16.6030   19.3517 C   0  0  2  0  0  0  0  0  0  0  0  0
    6.9641  -17.8377   18.8058 N   0  0  0  0  0  0  0  0  0  0  0  0
    8.8823  -16.5591   19.6776 C   0  0  0  0  0  0  0  0  0  0  0  0
    9.2138  -17.3834   20.6383 O   0  0  0  0  0  0  0  0  0  0  0  0
    6.8517  -13.6910   20.5913 C   0  0  0  0  0  0  0  0  0  0  0  0
    7.2267  -12.5271   21.2096 C   0  0  0  0  0  0  0  0  0  0  0  0
    9.9321  -15.8174   19.1607 N   0  0  0  0  0  0  0  0  0  0  0  0
    9.9416  -15.3860   17.7099 C   0  0  0  0  0  0  0  0  0  0  0  0
   10.0691  -13.8725   17.9768 C   0  0  0  0  0  0  0  0  0  0  0  0
   10.8428  -13.7689   19.3161 C   0  0  0  0  0  0  0  0  0  0  0  0
   11.1712  -15.2407   19.5405 C   0  0  1  0  0  0  0  0  0  0  0  0
   11.8978  -15.6016   20.7012 C   0  0  0  0  0  0  0  0  0  0  0  0
   11.2315  -15.8930   21.7588 O   0  0  0  0  0  0  0  0  0  0  0  0
   13.2996  -15.6808   20.8637 N   0  0  0  0  0  0  0  0  0  0  0  0
   13.9187  -16.0779   22.1253 C   0  0  1  0  0  0  0  0  0  0  0  0
   13.6384  -17.5002   22.4849 C   0  0  0  0  0  0  0  0  0  0  0  0
   12.4396  -17.6264   23.3536 C   0  0  0  0  0  0  0  0  0  0  0  0
   11.6159  -16.6114   23.8018 C   0  0  0  0  0  0  0  0  0  0  0  0
   10.6337  -17.1106   24.5672 N   0  0  0  0  0  0  0  0  0  0  0  0
   10.8144  -18.4462   24.6193 C   0  0  0  0  0  0  0  0  0  0  0  0
   11.9041  -18.7533   23.8865 N   0  0  0  0  0  0  0  0  0  0  0  0
   15.4053  -15.9703   21.9117 C   0  0  0  0  0  0  0  0  0  0  0  0
   16.1296  -16.1089   22.9235 O   0  0  0  0  0  0  0  0  0  0  0  0
   15.9673  -15.7326   20.6796 O   0  0  0  0  0  0  0  0  0  0  0  0
  2  1  1  0
  3  2  2  0
  4  3  1  0
  5  4  2  0
  5 11  1  0
  6  5  1  0
  7  6  1  0
  7  8  1  1
  9 10  2  0
  9  7  1  0
 11 12  2  0
 12  2  1  0
 13  9  1  0
 14 13  1  0
 15 14  1  0
 16 15  1  0
 16 17  1  0
 17 13  1  0
 17 18  1  1
 19 18  2  0
 20 18  1  0
 21 28  1  0
 21 20  1  0
 21 22  1  6
 23 22  1  0
 24 23  2  0
 25 24  1  0
 26 25  1  0
 26 27  2  0
 27 23  1  0
 28 30  1  0
 29 28  2  0
M  END
$$$$
