YPH.pdb
     RDKit          3D

 30 32  0  0  1  0  0  0  0  0999 V2000
    7.9826  -18.0750   27.2790 O   0  0  0  0  0  0  0  0  0  0  0  0
    7.3045  -17.8457   26.0648 C   0  0  0  0  0  0  0  0  0  0  0  0
    7.2760  -16.5910   25.4988 C   0  0  0  0  0  0  0  0  0  0  0  0
    6.6109  -16.3617   24.3063 C   0  0  0  0  0  0  0  0  0  0  0  0
    5.9517  -17.3643   23.6327 C   0  0  0  0  0  0  0  0  0  0  0  0
    5.2421  -17.1821   22.3762 C   0  0  0  0  0  0  0  0  0  0  0  0
    5.9992  -17.5976   21.1355 C   0  0  2  0  0  0  0  0  0  0  0  0
    5.7301  -18.9886   20.8729 N   0  0  0  0  0  0  0  0  0  0  0  0
    7.3875  -17.1760   21.0773 C   0  0  0  0  0  0  0  0  0  0  0  0
    8.2302  -18.1513   21.3027 O   0  0  0  0  0  0  0  0  0  0  0  0
    6.0054  -18.6148   24.2390 C   0  0  0  0  0  0  0  0  0  0  0  0
    6.6556  -18.8701   25.4178 C   0  0  0  0  0  0  0  0  0  0  0  0
    7.9754  -15.9470   20.8252 N   0  0  0  0  0  0  0  0  0  0  0  0
    7.5038  -15.0779   19.6792 C   0  0  0  0  0  0  0  0  0  0  0  0
    7.1698  -13.8340   20.5272 C   0  0  0  0  0  0  0  0  0  0  0  0
    8.1493  -13.8961   21.7271 C   0  0  0  0  0  0  0  0  0  0  0  0
    8.9985  -15.0907   21.3071 C   0  0  1  0  0  0  0  0  0  0  0  0
   10.0510  -15.5048   22.1594 C   0  0  0  0  0  0  0  0  0  0  0  0
    9.8088  -15.5800   23.4176 O   0  0  0  0  0  0  0  0  0  0  0  0
   11.3751  -15.8505   21.8061 N   0  0  0  0  0  0  0  0  0  0  0  0
   12.2784  -16.5296   22.7309 C   0  0  1  0  0  0  0  0  0  0  0  0
   11.8003  -17.8926   23.1109 C   0  0  0  0  0  0  0  0  0  0  0  0
   11.3656  -17.9518   24.5305 C   0  0  0  0  0  0  0  0  0  0  0  0
   11.3492  -16.9186   25.4482 C   0  0  0  0  0  0  0  0  0  0  0  0
   10.8918  -17.3529   26.6322 N   0  0  0  0  0  0  0  0  0  0  0  0
   10.6103  -18.6642   26.4893 C   0  0  0  0  0  0  0  0  0  0  0  0
   10.8973  -19.0215   25.2211 N   0  0  0  0  0  0  0  0  0  0  0  0
   13.5734  -16.7173   21.9859 C   0  0  0  0  0  0  0  0  0  0  0  0
   13.4897  -17.1522   20.8148 O   0  0  0  0  0  0  0  0  0  0  0  0
   14.8003  -16.4338   22.5380 O   0  0  0  0  0  0  0  0  0  0  0  0
  2  1  1  0
  3  2  2  0
  4  3  1  0
  5  4  2  0
  5 11  1  0
  6  5  1  0
  7  6  1  0
  7  8  1  1
  9 10  2  0
  9  7  1  0
 11 12  2  0
 12  2  1  0
 13  9  1  0
 14 13  1  0
 15 14  1  0
 16 15  1  0
 16 17  1  0
 17 13  1  0
 17 18  1  1
 19 18  2  0
 20 18  1  0
 21 28  1  0
 21 20  1  0
 21 22  1  6
 23 22  1  0
 24 23  2  0
 25 24  1  0
 26 25  1  0
 26 27  2  0
 27 23  1  0
 28 30  1  0
 29 28  2  0
M  END
$$$$
