YPH.pdb
     RDKit          3D

 30 32  0  0  1  0  0  0  0  0999 V2000
   11.8706  -15.3349   32.0428 O   0  0  0  0  0  0  0  0  0  0  0  0
   11.2517  -15.4733   30.7840 C   0  0  0  0  0  0  0  0  0  0  0  0
   11.1643  -16.7037   30.1723 C   0  0  0  0  0  0  0  0  0  0  0  0
   10.5572  -16.8436   28.9359 C   0  0  0  0  0  0  0  0  0  0  0  0
   10.0158  -15.7728   28.2621 C   0  0  0  0  0  0  0  0  0  0  0  0
    9.3628  -15.8621   26.9655 C   0  0  0  0  0  0  0  0  0  0  0  0
    7.9012  -16.2465   26.9985 C   0  0  2  0  0  0  0  0  0  0  0  0
    7.7746  -17.5313   27.6385 N   0  0  0  0  0  0  0  0  0  0  0  0
    7.1751  -16.0591   25.7550 C   0  0  0  0  0  0  0  0  0  0  0  0
    6.8174  -17.1860   25.1944 O   0  0  0  0  0  0  0  0  0  0  0  0
   10.1258  -14.5499   28.9151 C   0  0  0  0  0  0  0  0  0  0  0  0
   10.7210  -14.3824   30.1380 C   0  0  0  0  0  0  0  0  0  0  0  0
    6.7927  -14.9201   25.0651 N   0  0  0  0  0  0  0  0  0  0  0  0
    5.5198  -14.1831   25.4224 C   0  0  0  0  0  0  0  0  0  0  0  0
    6.1783  -12.8154   25.6941 C   0  0  0  0  0  0  0  0  0  0  0  0
    7.4234  -12.7834   24.7712 C   0  0  0  0  0  0  0  0  0  0  0  0
    7.2079  -14.0806   23.9998 C   0  0  1  0  0  0  0  0  0  0  0  0
    8.1590  -14.4486   23.0171 C   0  0  0  0  0  0  0  0  0  0  0  0
    9.3592  -14.0144   23.1526 O   0  0  0  0  0  0  0  0  0  0  0  0
    7.9617  -15.2468   21.8675 N   0  0  0  0  0  0  0  0  0  0  0  0
    9.0392  -15.5422   20.9272 C   0  0  1  0  0  0  0  0  0  0  0  0
    9.5819  -14.3179   20.2658 C   0  0  0  0  0  0  0  0  0  0  0  0
    8.6101  -13.7274   19.3096 C   0  0  0  0  0  0  0  0  0  0  0  0
    8.5548  -12.4191   18.8679 C   0  0  0  0  0  0  0  0  0  0  0  0
    7.5383  -12.2593   18.0071 N   0  0  0  0  0  0  0  0  0  0  0  0
    6.9317  -13.4579   17.8864 C   0  0  0  0  0  0  0  0  0  0  0  0
    7.5806  -14.3402   18.6731 N   0  0  0  0  0  0  0  0  0  0  0  0
   10.1599  -16.1240   21.7473 C   0  0  0  0  0  0  0  0  0  0  0  0
   10.7724  -17.0968   21.2515 O   0  0  0  0  0  0  0  0  0  0  0  0
   10.5150  -15.6325   22.9814 O   0  0  0  0  0  0  0  0  0  0  0  0
  2  1  1  0
  3  2  2  0
  4  3  1  0
  5  4  2  0
  5 11  1  0
  6  5  1  0
  7  6  1  0
  7  8  1  6
  9 10  2  0
  9  7  1  0
 11 12  2  0
 12  2  1  0
 13  9  1  0
 14 13  1  0
 15 14  1  0
 16 15  1  0
 16 17  1  0
 17 13  1  0
 17 18  1  1
 19 18  2  0
 20 18  1  0
 21 28  1  0
 21 20  1  0
 21 22  1  1
 23 22  1  0
 24 23  2  0
 25 24  1  0
 26 25  1  0
 26 27  2  0
 27 23  1  0
 28 30  1  0
 29 28  2  0
M  END
$$$$
