YPH.pdb
     RDKit          3D

 30 32  0  0  1  0  0  0  0  0999 V2000
    7.5206  -14.5308   10.2586 O   0  0  0  0  0  0  0  0  0  0  0  0
    7.7101  -14.8985   11.6061 C   0  0  0  0  0  0  0  0  0  0  0  0
    8.4514  -16.0107   11.9363 C   0  0  0  0  0  0  0  0  0  0  0  0
    8.6397  -16.3751   13.2586 C   0  0  0  0  0  0  0  0  0  0  0  0
    8.1021  -15.6531   14.2994 C   0  0  0  0  0  0  0  0  0  0  0  0
    8.2715  -15.9861   15.7051 C   0  0  0  0  0  0  0  0  0  0  0  0
    9.3950  -15.2646   16.4136 C   0  0  2  0  0  0  0  0  0  0  0  0
   10.6225  -15.5022   15.6972 N   0  0  0  0  0  0  0  0  0  0  0  0
    9.4352  -15.4293   17.8558 C   0  0  0  0  0  0  0  0  0  0  0  0
    9.8550  -16.6121   18.2261 O   0  0  0  0  0  0  0  0  0  0  0  0
    7.3612  -14.5385   13.9216 C   0  0  0  0  0  0  0  0  0  0  0  0
    7.1586  -14.1547   12.6218 C   0  0  0  0  0  0  0  0  0  0  0  0
    9.1192  -14.5728   18.8979 N   0  0  0  0  0  0  0  0  0  0  0  0
    9.1817  -13.0711   18.7186 C   0  0  0  0  0  0  0  0  0  0  0  0
    7.7187  -12.7852   19.1133 C   0  0  0  0  0  0  0  0  0  0  0  0
    7.3503  -13.9097   20.1149 C   0  0  0  0  0  0  0  0  0  0  0  0
    8.7089  -14.5870   20.2556 C   0  0  1  0  0  0  0  0  0  0  0  0
    8.8187  -15.7100   21.1114 C   0  0  0  0  0  0  0  0  0  0  0  0
    8.6906  -15.5163   22.3738 O   0  0  0  0  0  0  0  0  0  0  0  0
    9.0650  -17.0560   20.7574 N   0  0  0  0  0  0  0  0  0  0  0  0
   10.2045  -17.8053   21.2796 C   0  0  1  0  0  0  0  0  0  0  0  0
   11.4986  -17.0771   21.1187 C   0  0  0  0  0  0  0  0  0  0  0  0
   12.6549  -17.8965   21.5648 C   0  0  0  0  0  0  0  0  0  0  0  0
   12.6219  -19.1450   22.1563 C   0  0  0  0  0  0  0  0  0  0  0  0
   13.8667  -19.5701   22.4198 N   0  0  0  0  0  0  0  0  0  0  0  0
   14.7101  -18.6038   22.0023 C   0  0  0  0  0  0  0  0  0  0  0  0
   13.9758  -17.5966   21.4876 N   0  0  0  0  0  0  0  0  0  0  0  0
    9.9678  -17.9452   22.7600 C   0  0  0  0  0  0  0  0  0  0  0  0
   10.7539  -18.6916   23.3865 O   0  0  0  0  0  0  0  0  0  0  0  0
    8.9481  -17.2983   23.4175 O   0  0  0  0  0  0  0  0  0  0  0  0
  2  1  1  0
  3  2  2  0
  4  3  1  0
  5  4  2  0
  5 11  1  0
  6  5  1  0
  7  6  1  0
  7  8  1  6
  9 10  2  0
  9  7  1  0
 11 12  2  0
 12  2  1  0
 13  9  1  0
 14 13  1  0
 15 14  1  0
 16 15  1  0
 16 17  1  0
 17 13  1  0
 17 18  1  6
 19 18  2  0
 20 18  1  0
 21 28  1  0
 21 20  1  0
 21 22  1  1
 23 22  1  0
 24 23  2  0
 25 24  1  0
 26 25  1  0
 26 27  2  0
 27 23  1  0
 28 30  1  0
 29 28  2  0
M  END
$$$$
