YPH.pdb
     RDKit          3D

 30 32  0  0  1  0  0  0  0  0999 V2000
    6.8701  -12.0105   27.2380 O   0  0  0  0  0  0  0  0  0  0  0  0
    6.8125  -12.8858   26.1347 C   0  0  0  0  0  0  0  0  0  0  0  0
    6.3877  -14.1865   26.2875 C   0  0  0  0  0  0  0  0  0  0  0  0
    6.3298  -15.0493   25.2063 C   0  0  0  0  0  0  0  0  0  0  0  0
    6.6893  -14.6562   23.9375 C   0  0  0  0  0  0  0  0  0  0  0  0
    6.6436  -15.5170   22.7660 C   0  0  0  0  0  0  0  0  0  0  0  0
    7.9525  -16.1728   22.3893 C   0  0  2  0  0  0  0  0  0  0  0  0
    7.7496  -16.9629   21.2015 N   0  0  0  0  0  0  0  0  0  0  0  0
    8.6754  -16.8023   23.4800 C   0  0  0  0  0  0  0  0  0  0  0  0
    8.1039  -17.8981   23.9100 O   0  0  0  0  0  0  0  0  0  0  0  0
    7.1119  -13.3358   23.8280 C   0  0  0  0  0  0  0  0  0  0  0  0
    7.1793  -12.4606   24.8802 C   0  0  0  0  0  0  0  0  0  0  0  0
    9.8469  -16.4621   24.1367 N   0  0  0  0  0  0  0  0  0  0  0  0
   11.0306  -15.9007   23.3785 C   0  0  0  0  0  0  0  0  0  0  0  0
   11.1529  -14.5926   24.1858 C   0  0  0  0  0  0  0  0  0  0  0  0
   10.6310  -14.9488   25.6014 C   0  0  0  0  0  0  0  0  0  0  0  0
   10.4254  -16.4500   25.4318 C   0  0  1  0  0  0  0  0  0  0  0  0
    9.9346  -17.1935   26.5327 C   0  0  0  0  0  0  0  0  0  0  0  0
    9.6115  -16.5491   27.5947 O   0  0  0  0  0  0  0  0  0  0  0  0
    9.7526  -18.5918   26.6297 N   0  0  0  0  0  0  0  0  0  0  0  0
    9.1544  -19.2222   27.8032 C   0  0  1  0  0  0  0  0  0  0  0  0
    7.6646  -19.2938   27.7255 C   0  0  0  0  0  0  0  0  0  0  0  0
    7.2005  -19.7498   26.3898 C   0  0  0  0  0  0  0  0  0  0  0  0
    7.9695  -19.9702   25.2630 C   0  0  0  0  0  0  0  0  0  0  0  0
    7.1983  -20.3772   24.2434 N   0  0  0  0  0  0  0  0  0  0  0  0
    5.9306  -20.4227   24.7016 C   0  0  0  0  0  0  0  0  0  0  0  0
    5.9360  -20.0438   25.9958 N   0  0  0  0  0  0  0  0  0  0  0  0
    9.6560  -20.6419   27.8145 C   0  0  0  0  0  0  0  0  0  0  0  0
    9.2859  -21.3609   28.7703 O   0  0  0  0  0  0  0  0  0  0  0  0
   10.4796  -21.1505   26.8380 O   0  0  0  0  0  0  0  0  0  0  0  0
  2  1  1  0
  3  2  2  0
  4  3  1  0
  5  4  2  0
  5 11  1  0
  6  5  1  0
  7  6  1  0
  7  8  1  6
  9 10  2  0
  9  7  1  0
 11 12  2  0
 12  2  1  0
 13  9  1  0
 14 13  1  0
 15 14  1  0
 16 15  1  0
 16 17  1  0
 17 13  1  0
 17 18  1  1
 19 18  2  0
 20 18  1  0
 21 28  1  0
 21 20  1  0
 21 22  1  6
 23 22  1  0
 24 23  2  0
 25 24  1  0
 26 25  1  0
 26 27  2  0
 27 23  1  0
 28 30  1  0
 29 28  2  0
M  END
$$$$
