YPH.pdb
     RDKit          3D

 30 32  0  0  1  0  0  0  0  0999 V2000
    6.7484  -11.9438   17.3157 O   0  0  0  0  0  0  0  0  0  0  0  0
    7.8517  -12.6460   17.8413 C   0  0  0  0  0  0  0  0  0  0  0  0
    8.3356  -12.3609   19.0984 C   0  0  0  0  0  0  0  0  0  0  0  0
    9.4191  -13.0484   19.6181 C   0  0  0  0  0  0  0  0  0  0  0  0
   10.0611  -14.0409   18.9136 C   0  0  0  0  0  0  0  0  0  0  0  0
   11.1989  -14.7981   19.4111 C   0  0  0  0  0  0  0  0  0  0  0  0
   10.8577  -16.0373   20.2068 C   0  0  2  0  0  0  0  0  0  0  0  0
   10.3090  -17.0252   19.3128 N   0  0  0  0  0  0  0  0  0  0  0  0
   10.1418  -15.8076   21.4491 C   0  0  0  0  0  0  0  0  0  0  0  0
   10.9149  -15.3857   22.4169 O   0  0  0  0  0  0  0  0  0  0  0  0
    9.5406  -14.2964   17.6496 C   0  0  0  0  0  0  0  0  0  0  0  0
    8.4703  -13.6320   17.1104 C   0  0  0  0  0  0  0  0  0  0  0  0
    8.8065  -15.9471   21.7913 N   0  0  0  0  0  0  0  0  0  0  0  0
    7.7132  -15.7396   20.7653 C   0  0  0  0  0  0  0  0  0  0  0  0
    7.0603  -17.1280   20.9201 C   0  0  0  0  0  0  0  0  0  0  0  0
    7.3321  -17.5333   22.3915 C   0  0  0  0  0  0  0  0  0  0  0  0
    7.9745  -16.2475   22.9002 C   0  0  1  0  0  0  0  0  0  0  0  0
    8.3934  -16.1902   24.2518 C   0  0  0  0  0  0  0  0  0  0  0  0
    7.7413  -15.4246   25.0493 O   0  0  0  0  0  0  0  0  0  0  0  0
    9.4687  -16.8753   24.8618 N   0  0  0  0  0  0  0  0  0  0  0  0
   10.0985  -16.4032   26.0918 C   0  0  1  0  0  0  0  0  0  0  0  0
    9.2483  -15.4302   26.8408 C   0  0  0  0  0  0  0  0  0  0  0  0
    9.8413  -15.0729   28.1554 C   0  0  0  0  0  0  0  0  0  0  0  0
   10.9510  -15.6350   28.7574 C   0  0  0  0  0  0  0  0  0  0  0  0
   11.1847  -15.0522   29.9429 N   0  0  0  0  0  0  0  0  0  0  0  0
   10.2319  -14.1132   30.1154 C   0  0  0  0  0  0  0  0  0  0  0  0
    9.4241  -14.1287   29.0357 N   0  0  0  0  0  0  0  0  0  0  0  0
   10.2497  -17.6143   26.9736 C   0  0  0  0  0  0  0  0  0  0  0  0
   10.8701  -17.4523   28.0490 O   0  0  0  0  0  0  0  0  0  0  0  0
    9.7425  -18.8482   26.6408 O   0  0  0  0  0  0  0  0  0  0  0  0
  2  1  1  0
  3  2  2  0
  4  3  1  0
  5  4  2  0
  5 11  1  0
  6  5  1  0
  7  6  1  0
  7  8  1  6
  9 10  2  0
  9  7  1  0
 11 12  2  0
 12  2  1  0
 13  9  1  0
 14 13  1  0
 15 14  1  0
 16 15  1  0
 16 17  1  0
 17 13  1  0
 17 18  1  1
 19 18  2  0
 20 18  1  0
 21 28  1  0
 21 20  1  0
 21 22  1  1
 23 22  1  0
 24 23  2  0
 25 24  1  0
 26 25  1  0
 26 27  2  0
 27 23  1  0
 28 30  1  0
 29 28  2  0
M  END
$$$$
