YPH.pdb
     RDKit          3D

 30 32  0  0  1  0  0  0  0  0999 V2000
    7.7571  -11.6294   27.0135 O   0  0  0  0  0  0  0  0  0  0  0  0
    7.0856  -12.7089   26.4049 C   0  0  0  0  0  0  0  0  0  0  0  0
    7.5497  -13.9976   26.5449 C   0  0  0  0  0  0  0  0  0  0  0  0
    6.8929  -15.0605   25.9486 C   0  0  0  0  0  0  0  0  0  0  0  0
    5.7554  -14.8864   25.1941 C   0  0  0  0  0  0  0  0  0  0  0  0
    5.0227  -15.9651   24.5500 C   0  0  0  0  0  0  0  0  0  0  0  0
    5.3512  -16.1948   23.0924 C   0  0  2  0  0  0  0  0  0  0  0  0
    4.4798  -17.2203   22.5773 N   0  0  0  0  0  0  0  0  0  0  0  0
    6.7640  -16.3169   22.7795 C   0  0  0  0  0  0  0  0  0  0  0  0
    7.3261  -17.3569   23.3405 O   0  0  0  0  0  0  0  0  0  0  0  0
    5.3216  -13.5701   25.0786 C   0  0  0  0  0  0  0  0  0  0  0  0
    5.9514  -12.4996   25.6574 C   0  0  0  0  0  0  0  0  0  0  0  0
    7.6133  -15.5465   22.0020 N   0  0  0  0  0  0  0  0  0  0  0  0
    7.2100  -15.1033   20.6120 C   0  0  0  0  0  0  0  0  0  0  0  0
    7.3758  -13.5894   20.8546 C   0  0  0  0  0  0  0  0  0  0  0  0
    8.4893  -13.4784   21.9274 C   0  0  0  0  0  0  0  0  0  0  0  0
    8.8971  -14.9439   22.0306 C   0  0  1  0  0  0  0  0  0  0  0  0
    9.9250  -15.2970   22.9384 C   0  0  0  0  0  0  0  0  0  0  0  0
    9.6961  -15.1438   24.1921 O   0  0  0  0  0  0  0  0  0  0  0  0
   11.2115  -15.8038   22.6457 N   0  0  0  0  0  0  0  0  0  0  0  0
   12.0445  -16.4515   23.6553 C   0  0  1  0  0  0  0  0  0  0  0  0
   11.3967  -17.6571   24.2534 C   0  0  0  0  0  0  0  0  0  0  0  0
   12.3187  -18.3899   25.1592 C   0  0  0  0  0  0  0  0  0  0  0  0
   13.5911  -18.0146   25.5461 C   0  0  0  0  0  0  0  0  0  0  0  0
   14.1172  -18.9309   26.3728 N   0  0  0  0  0  0  0  0  0  0  0  0
   13.1928  -19.9011   26.5257 C   0  0  0  0  0  0  0  0  0  0  0  0
   12.1101  -19.5714   25.7925 N   0  0  0  0  0  0  0  0  0  0  0  0
   13.2744  -16.9342   22.9333 C   0  0  0  0  0  0  0  0  0  0  0  0
   14.1533  -17.4899   23.6307 O   0  0  0  0  0  0  0  0  0  0  0  0
   13.4508  -16.7861   21.5778 O   0  0  0  0  0  0  0  0  0  0  0  0
  2  1  1  0
  3  2  2  0
  4  3  1  0
  5  4  2  0
  5 11  1  0
  6  5  1  0
  7  6  1  0
  7  8  1  1
  9 10  2  0
  9  7  1  0
 11 12  2  0
 12  2  1  0
 13  9  1  0
 14 13  1  0
 15 14  1  0
 16 15  1  0
 16 17  1  0
 17 13  1  0
 17 18  1  1
 19 18  2  0
 20 18  1  0
 21 28  1  0
 21 20  1  0
 21 22  1  6
 23 22  1  0
 24 23  2  0
 25 24  1  0
 26 25  1  0
 26 27  2  0
 27 23  1  0
 28 30  1  0
 29 28  2  0
M  END
$$$$
