YPH.pdb
     RDKit          3D

 30 32  0  0  1  0  0  0  0  0999 V2000
    8.4886  -12.1724   27.6129 O   0  0  0  0  0  0  0  0  0  0  0  0
    7.7866  -13.2456   27.0281 C   0  0  0  0  0  0  0  0  0  0  0  0
    6.5598  -13.0468   26.4355 C   0  0  0  0  0  0  0  0  0  0  0  0
    5.8672  -14.0985   25.8601 C   0  0  0  0  0  0  0  0  0  0  0  0
    6.3632  -15.3820   25.8504 C   0  0  0  0  0  0  0  0  0  0  0  0
    5.6825  -16.5222   25.2570 C   0  0  0  0  0  0  0  0  0  0  0  0
    5.8097  -16.6465   23.7558 C   0  0  2  0  0  0  0  0  0  0  0  0
    4.8918  -17.6573   23.2954 N   0  0  0  0  0  0  0  0  0  0  0  0
    7.1672  -16.7117   23.2446 C   0  0  0  0  0  0  0  0  0  0  0  0
    7.7717  -17.8354   23.5349 O   0  0  0  0  0  0  0  0  0  0  0  0
    7.6038  -15.5381   26.4591 C   0  0  0  0  0  0  0  0  0  0  0  0
    8.3110  -14.5161   27.0360 C   0  0  0  0  0  0  0  0  0  0  0  0
    7.9279  -15.8156   22.5112 N   0  0  0  0  0  0  0  0  0  0  0  0
    7.2860  -14.9032   21.4882 C   0  0  0  0  0  0  0  0  0  0  0  0
    7.7826  -13.5770   22.0986 C   0  0  0  0  0  0  0  0  0  0  0  0
    9.1253  -13.9341   22.7862 C   0  0  0  0  0  0  0  0  0  0  0  0
    9.2682  -15.3845   22.3387 C   0  0  1  0  0  0  0  0  0  0  0  0
   10.4035  -16.1151   22.7666 C   0  0  0  0  0  0  0  0  0  0  0  0
   10.5680  -16.2819   24.0285 O   0  0  0  0  0  0  0  0  0  0  0  0
   11.4163  -16.6980   21.9716 N   0  0  0  0  0  0  0  0  0  0  0  0
   12.4861  -17.5119   22.5425 C   0  0  1  0  0  0  0  0  0  0  0  0
   13.4013  -18.0749   21.5051 C   0  0  0  0  0  0  0  0  0  0  0  0
   14.5191  -18.8439   22.1105 C   0  0  0  0  0  0  0  0  0  0  0  0
   15.1397  -18.6109   23.3231 C   0  0  0  0  0  0  0  0  0  0  0  0
   16.1089  -19.5145   23.5330 N   0  0  0  0  0  0  0  0  0  0  0  0
   16.1219  -20.3348   22.4624 C   0  0  0  0  0  0  0  0  0  0  0  0
   15.1621  -19.9273   21.6072 N   0  0  0  0  0  0  0  0  0  0  0  0
   13.3122  -16.5798   23.3886 C   0  0  0  0  0  0  0  0  0  0  0  0
   13.7823  -17.0515   24.4488 O   0  0  0  0  0  0  0  0  0  0  0  0
   13.5547  -15.2721   23.0399 O   0  0  0  0  0  0  0  0  0  0  0  0
  2  1  1  0
  3  2  2  0
  4  3  1  0
  5  4  2  0
  5 11  1  0
  6  5  1  0
  7  6  1  0
  7  8  1  1
  9 10  2  0
  9  7  1  0
 11 12  2  0
 12  2  1  0
 13  9  1  0
 14 13  1  0
 15 14  1  0
 16 15  1  0
 16 17  1  0
 17 13  1  0
 17 18  1  1
 19 18  2  0
 20 18  1  0
 21 28  1  0
 21 20  1  0
 21 22  1  6
 23 22  1  0
 24 23  2  0
 25 24  1  0
 26 25  1  0
 26 27  2  0
 27 23  1  0
 28 30  1  0
 29 28  2  0
M  END
$$$$
