YPH.pdb
     RDKit          3D

 30 32  0  0  1  0  0  0  0  0999 V2000
    8.5471  -13.5095   12.9465 O   0  0  0  0  0  0  0  0  0  0  0  0
    8.6848  -13.9109   14.2906 C   0  0  0  0  0  0  0  0  0  0  0  0
    9.2142  -15.1414   14.6087 C   0  0  0  0  0  0  0  0  0  0  0  0
    9.3511  -15.5392   15.9277 C   0  0  0  0  0  0  0  0  0  0  0  0
    8.9698  -14.7348   16.9770 C   0  0  0  0  0  0  0  0  0  0  0  0
    9.0950  -15.0986   18.3797 C   0  0  0  0  0  0  0  0  0  0  0  0
   10.1519  -14.3457   19.1551 C   0  0  2  0  0  0  0  0  0  0  0  0
   11.3982  -14.4251   18.4362 N   0  0  0  0  0  0  0  0  0  0  0  0
   10.1985  -14.6196   20.5804 C   0  0  0  0  0  0  0  0  0  0  0  0
   11.3563  -15.0832   20.9765 O   0  0  0  0  0  0  0  0  0  0  0  0
    8.4406  -13.5018   16.6114 C   0  0  0  0  0  0  0  0  0  0  0  0
    8.2936  -13.0824   15.3152 C   0  0  0  0  0  0  0  0  0  0  0  0
    9.2553  -14.4771   21.5851 N   0  0  0  0  0  0  0  0  0  0  0  0
    8.3488  -13.2661   21.6370 C   0  0  0  0  0  0  0  0  0  0  0  0
    7.0164  -14.0419   21.6095 C   0  0  0  0  0  0  0  0  0  0  0  0
    7.3313  -15.3971   22.2933 C   0  0  0  0  0  0  0  0  0  0  0  0
    8.7643  -15.1341   22.7424 C   0  0  1  0  0  0  0  0  0  0  0  0
    9.4553  -16.1600   23.4321 C   0  0  0  0  0  0  0  0  0  0  0  0
   10.6019  -16.5186   22.9803 O   0  0  0  0  0  0  0  0  0  0  0  0
    9.0409  -16.8711   24.5811 N   0  0  0  0  0  0  0  0  0  0  0  0
    9.5675  -16.5806   25.9119 C   0  0  1  0  0  0  0  0  0  0  0  0
    9.3010  -15.1764   26.3458 C   0  0  0  0  0  0  0  0  0  0  0  0
    9.8536  -14.8994   27.6969 C   0  0  0  0  0  0  0  0  0  0  0  0
   10.6000  -15.7498   28.4902 C   0  0  0  0  0  0  0  0  0  0  0  0
   10.9208  -15.1490   29.6460 N   0  0  0  0  0  0  0  0  0  0  0  0
   10.3865  -13.9112   29.6086 C   0  0  0  0  0  0  0  0  0  0  0  0
    9.7439  -13.7645   28.4321 N   0  0  0  0  0  0  0  0  0  0  0  0
    8.8174  -17.4767   26.8614 C   0  0  0  0  0  0  0  0  0  0  0  0
    7.5701  -17.4911   26.7532 O   0  0  0  0  0  0  0  0  0  0  0  0
    9.4437  -18.2511   27.8093 O   0  0  0  0  0  0  0  0  0  0  0  0
  2  1  1  0
  3  2  2  0
  4  3  1  0
  5  4  2  0
  5 11  1  0
  6  5  1  0
  7  6  1  0
  7  8  1  6
  9 10  2  0
  9  7  1  0
 11 12  2  0
 12  2  1  0
 13  9  1  0
 14 13  1  0
 15 14  1  0
 16 15  1  0
 16 17  1  0
 17 13  1  0
 17 18  1  6
 19 18  2  0
 20 18  1  0
 21 28  1  0
 21 20  1  0
 21 22  1  1
 23 22  1  0
 24 23  2  0
 25 24  1  0
 26 25  1  0
 26 27  2  0
 27 23  1  0
 28 30  1  0
 29 28  2  0
M  END
$$$$
