YPH.pdb
     RDKit          3D

 30 32  0  0  1  0  0  0  0  0999 V2000
    6.0627  -10.7433   29.0767 O   0  0  0  0  0  0  0  0  0  0  0  0
    6.1748  -11.7097   28.0568 C   0  0  0  0  0  0  0  0  0  0  0  0
    7.3482  -12.4052   27.8699 C   0  0  0  0  0  0  0  0  0  0  0  0
    7.4622  -13.3551   26.8692 C   0  0  0  0  0  0  0  0  0  0  0  0
    6.4208  -13.6502   26.0194 C   0  0  0  0  0  0  0  0  0  0  0  0
    6.4827  -14.6403   24.9558 C   0  0  0  0  0  0  0  0  0  0  0  0
    7.5312  -14.3915   23.8957 C   0  0  2  0  0  0  0  0  0  0  0  0
    7.5789  -12.9792   23.6140 N   0  0  0  0  0  0  0  0  0  0  0  0
    7.4930  -15.2870   22.7532 C   0  0  0  0  0  0  0  0  0  0  0  0
    6.9857  -16.4595   23.0366 O   0  0  0  0  0  0  0  0  0  0  0  0
    5.2553  -12.9252   26.2430 C   0  0  0  0  0  0  0  0  0  0  0  0
    5.1145  -11.9799   27.2249 C   0  0  0  0  0  0  0  0  0  0  0  0
    7.8857  -15.1275   21.4343 N   0  0  0  0  0  0  0  0  0  0  0  0
    7.0081  -14.3938   20.4430 C   0  0  0  0  0  0  0  0  0  0  0  0
    8.0515  -13.3346   20.0338 C   0  0  0  0  0  0  0  0  0  0  0  0
    9.4216  -14.0387   20.2073 C   0  0  0  0  0  0  0  0  0  0  0  0
    8.9481  -15.4468   20.5502 C   0  0  1  0  0  0  0  0  0  0  0  0
    9.9212  -16.4453   20.7987 C   0  0  0  0  0  0  0  0  0  0  0  0
    9.8335  -17.1079   21.8945 O   0  0  0  0  0  0  0  0  0  0  0  0
   11.0144  -16.8200   19.9850 N   0  0  0  0  0  0  0  0  0  0  0  0
   11.9090  -17.9194   20.3362 C   0  0  1  0  0  0  0  0  0  0  0  0
   11.2031  -19.2322   20.4310 C   0  0  0  0  0  0  0  0  0  0  0  0
   12.0967  -20.3070   20.9349 C   0  0  0  0  0  0  0  0  0  0  0  0
   13.1549  -20.1768   21.8141 C   0  0  0  0  0  0  0  0  0  0  0  0
   13.7277  -21.3696   22.0354 N   0  0  0  0  0  0  0  0  0  0  0  0
   13.0470  -22.2757   21.3041 C   0  0  0  0  0  0  0  0  0  0  0  0
   12.0646  -21.6314   20.6421 N   0  0  0  0  0  0  0  0  0  0  0  0
   12.8906  -18.0367   19.2005 C   0  0  0  0  0  0  0  0  0  0  0  0
   14.1009  -17.8935   19.4870 O   0  0  0  0  0  0  0  0  0  0  0  0
   12.5062  -18.2878   17.9044 O   0  0  0  0  0  0  0  0  0  0  0  0
  2  1  1  0
  3  2  2  0
  4  3  1  0
  5  4  2  0
  5 11  1  0
  6  5  1  0
  7  6  1  0
  7  8  1  6
  9 10  2  0
  9  7  1  0
 11 12  2  0
 12  2  1  0
 13  9  1  0
 14 13  1  0
 15 14  1  0
 16 15  1  0
 16 17  1  0
 17 13  1  0
 17 18  1  1
 19 18  2  0
 20 18  1  0
 21 28  1  0
 21 20  1  0
 21 22  1  6
 23 22  1  0
 24 23  2  0
 25 24  1  0
 26 25  1  0
 26 27  2  0
 27 23  1  0
 28 30  1  0
 29 28  2  0
M  END
$$$$
