YPH.pdb
     RDKit          3D

 30 32  0  0  1  0  0  0  0  0999 V2000
   11.3700  -14.9261   29.5064 O   0  0  0  0  0  0  0  0  0  0  0  0
   10.3577  -14.8054   28.5330 C   0  0  0  0  0  0  0  0  0  0  0  0
    9.0698  -14.4764   28.8916 C   0  0  0  0  0  0  0  0  0  0  0  0
    8.0729  -14.3569   27.9384 C   0  0  0  0  0  0  0  0  0  0  0  0
    8.3145  -14.5582   26.5987 C   0  0  0  0  0  0  0  0  0  0  0  0
    7.3084  -14.4414   25.5550 C   0  0  0  0  0  0  0  0  0  0  0  0
    6.7890  -15.7493   25.0029 C   0  0  2  0  0  0  0  0  0  0  0  0
    6.5461  -16.6512   26.1001 N   0  0  0  0  0  0  0  0  0  0  0  0
    7.5159  -16.2825   23.8645 C   0  0  0  0  0  0  0  0  0  0  0  0
    8.0067  -17.4759   24.0818 O   0  0  0  0  0  0  0  0  0  0  0  0
    9.6275  -14.8885   26.2807 C   0  0  0  0  0  0  0  0  0  0  0  0
   10.6335  -15.0135   27.2027 C   0  0  0  0  0  0  0  0  0  0  0  0
    7.7774  -15.7674   22.6053 N   0  0  0  0  0  0  0  0  0  0  0  0
    6.6502  -15.3926   21.6671 C   0  0  0  0  0  0  0  0  0  0  0  0
    7.0688  -13.9219   21.4673 C   0  0  0  0  0  0  0  0  0  0  0  0
    8.6103  -13.9217   21.6310 C   0  0  0  0  0  0  0  0  0  0  0  0
    8.8583  -15.4209   21.7546 C   0  0  1  0  0  0  0  0  0  0  0  0
   10.1888  -15.8737   21.9290 C   0  0  0  0  0  0  0  0  0  0  0  0
   11.0920  -14.9971   22.1805 O   0  0  0  0  0  0  0  0  0  0  0  0
   10.6765  -17.1982   21.8547 N   0  0  0  0  0  0  0  0  0  0  0  0
   12.0867  -17.5236   22.0498 C   0  0  1  0  0  0  0  0  0  0  0  0
   12.2990  -18.9329   22.4965 C   0  0  0  0  0  0  0  0  0  0  0  0
   11.8244  -19.1509   23.8875 C   0  0  0  0  0  0  0  0  0  0  0  0
   11.5282  -18.1894   24.8349 C   0  0  0  0  0  0  0  0  0  0  0  0
   11.1287  -18.7673   25.9778 N   0  0  0  0  0  0  0  0  0  0  0  0
   11.1635  -20.1009   25.7785 C   0  0  0  0  0  0  0  0  0  0  0  0
   11.5833  -20.3281   24.5173 N   0  0  0  0  0  0  0  0  0  0  0  0
   12.7345  -17.3962   20.6966 C   0  0  0  0  0  0  0  0  0  0  0  0
   11.9687  -17.2248   19.7210 O   0  0  0  0  0  0  0  0  0  0  0  0
   14.0954  -17.4609   20.5113 O   0  0  0  0  0  0  0  0  0  0  0  0
  2  1  1  0
  3  2  2  0
  4  3  1  0
  5  4  2  0
  5 11  1  0
  6  5  1  0
  7  6  1  0
  7  8  1  1
  9 10  2  0
  9  7  1  0
 11 12  2  0
 12  2  1  0
 13  9  1  0
 14 13  1  0
 15 14  1  0
 16 15  1  0
 16 17  1  0
 17 13  1  0
 17 18  1  1
 19 18  2  0
 20 18  1  0
 21 28  1  0
 21 20  1  0
 21 22  1  6
 23 22  1  0
 24 23  2  0
 25 24  1  0
 26 25  1  0
 26 27  2  0
 27 23  1  0
 28 30  1  0
 29 28  2  0
M  END
$$$$
