YPH.pdb
     RDKit          3D

 30 32  0  0  1  0  0  0  0  0999 V2000
    7.5023  -15.5311   26.7060 O   0  0  0  0  0  0  0  0  0  0  0  0
    6.9509  -15.6497   25.4143 C   0  0  0  0  0  0  0  0  0  0  0  0
    6.9885  -14.5939   24.5314 C   0  0  0  0  0  0  0  0  0  0  0  0
    6.4480  -14.7065   23.2619 C   0  0  0  0  0  0  0  0  0  0  0  0
    5.8522  -15.8661   22.8214 C   0  0  0  0  0  0  0  0  0  0  0  0
    5.2734  -16.0421   21.4987 C   0  0  0  0  0  0  0  0  0  0  0  0
    6.0895  -16.8757   20.5373 C   0  0  2  0  0  0  0  0  0  0  0  0
    5.5782  -18.2228   20.5431 N   0  0  0  0  0  0  0  0  0  0  0  0
    7.5297  -16.7206   20.6391 C   0  0  0  0  0  0  0  0  0  0  0  0
    8.1327  -17.7977   21.0736 O   0  0  0  0  0  0  0  0  0  0  0  0
    5.8357  -16.9065   23.7440 C   0  0  0  0  0  0  0  0  0  0  0  0
    6.3626  -16.8230   25.0062 C   0  0  0  0  0  0  0  0  0  0  0  0
    8.3716  -15.6564   20.3595 N   0  0  0  0  0  0  0  0  0  0  0  0
    8.0890  -14.7222   19.2026 C   0  0  0  0  0  0  0  0  0  0  0  0
    8.0496  -13.4223   20.0312 C   0  0  0  0  0  0  0  0  0  0  0  0
    9.0068  -13.6813   21.2228 C   0  0  0  0  0  0  0  0  0  0  0  0
    9.5650  -15.0406   20.8164 C   0  0  1  0  0  0  0  0  0  0  0  0
   10.5109  -15.6642   21.6660 C   0  0  0  0  0  0  0  0  0  0  0  0
   10.1682  -15.8869   22.8828 O   0  0  0  0  0  0  0  0  0  0  0  0
   11.8241  -16.0818   21.3519 N   0  0  0  0  0  0  0  0  0  0  0  0
   12.6295  -16.8833   22.2692 C   0  0  1  0  0  0  0  0  0  0  0  0
   13.0157  -18.2069   21.6950 C   0  0  0  0  0  0  0  0  0  0  0  0
   13.7804  -19.0308   22.6665 C   0  0  0  0  0  0  0  0  0  0  0  0
   13.9456  -18.7985   24.0187 C   0  0  0  0  0  0  0  0  0  0  0  0
   14.7019  -19.7604   24.5689 N   0  0  0  0  0  0  0  0  0  0  0  0
   15.0298  -20.6178   23.5807 C   0  0  0  0  0  0  0  0  0  0  0  0
   14.4725  -20.1746   22.4355 N   0  0  0  0  0  0  0  0  0  0  0  0
   13.9066  -16.1148   22.4824 C   0  0  0  0  0  0  0  0  0  0  0  0
   14.3267  -15.4434   21.5128 O   0  0  0  0  0  0  0  0  0  0  0  0
   14.5980  -16.1306   23.6708 O   0  0  0  0  0  0  0  0  0  0  0  0
  2  1  1  0
  3  2  2  0
  4  3  1  0
  5  4  2  0
  5 11  1  0
  6  5  1  0
  7  6  1  0
  7  8  1  1
  9 10  2  0
  9  7  1  0
 11 12  2  0
 12  2  1  0
 13  9  1  0
 14 13  1  0
 15 14  1  0
 16 15  1  0
 16 17  1  0
 17 13  1  0
 17 18  1  1
 19 18  2  0
 20 18  1  0
 21 28  1  0
 21 20  1  0
 21 22  1  6
 23 22  1  0
 24 23  2  0
 25 24  1  0
 26 25  1  0
 26 27  2  0
 27 23  1  0
 28 30  1  0
 29 28  2  0
M  END
$$$$
