YPH.pdb
     RDKit          3D

 30 32  0  0  1  0  0  0  0  0999 V2000
    7.1804  -13.7751   14.0177 O   0  0  0  0  0  0  0  0  0  0  0  0
    7.4538  -14.1336   15.3532 C   0  0  0  0  0  0  0  0  0  0  0  0
    7.4641  -13.1845   16.3505 C   0  0  0  0  0  0  0  0  0  0  0  0
    7.7322  -13.5327   17.6633 C   0  0  0  0  0  0  0  0  0  0  0  0
    7.9990  -14.8304   18.0354 C   0  0  0  0  0  0  0  0  0  0  0  0
    8.2819  -15.2536   19.3979 C   0  0  0  0  0  0  0  0  0  0  0  0
    9.6554  -14.8958   19.9181 C   0  0  2  0  0  0  0  0  0  0  0  0
   10.6382  -15.2920   18.9416 N   0  0  0  0  0  0  0  0  0  0  0  0
    9.9183  -15.2619   21.2985 C   0  0  0  0  0  0  0  0  0  0  0  0
   10.7437  -16.2707   21.4140 O   0  0  0  0  0  0  0  0  0  0  0  0
    7.9786  -15.7561   16.9978 C   0  0  0  0  0  0  0  0  0  0  0  0
    7.7166  -15.4398   15.6905 C   0  0  0  0  0  0  0  0  0  0  0  0
    9.4647  -14.7421   22.5000 N   0  0  0  0  0  0  0  0  0  0  0  0
    9.2888  -13.2504   22.6869 C   0  0  0  0  0  0  0  0  0  0  0  0
    7.7969  -13.2959   23.0743 C   0  0  0  0  0  0  0  0  0  0  0  0
    7.6065  -14.6722   23.7619 C   0  0  0  0  0  0  0  0  0  0  0  0
    9.0548  -15.1476   23.7960 C   0  0  1  0  0  0  0  0  0  0  0  0
    9.3371  -16.4141   24.3632 C   0  0  0  0  0  0  0  0  0  0  0  0
    8.4899  -17.3590   24.1713 O   0  0  0  0  0  0  0  0  0  0  0  0
   10.4544  -16.7917   25.1423 N   0  0  0  0  0  0  0  0  0  0  0  0
   10.6595  -18.1630   25.6007 C   0  0  1  0  0  0  0  0  0  0  0  0
   12.0949  -18.5748   25.5699 C   0  0  0  0  0  0  0  0  0  0  0  0
   12.6102  -18.6854   24.1807 C   0  0  0  0  0  0  0  0  0  0  0  0
   11.8754  -18.6990   23.0104 C   0  0  0  0  0  0  0  0  0  0  0  0
   12.6888  -18.8122   21.9495 N   0  0  0  0  0  0  0  0  0  0  0  0
   13.9499  -18.8723   22.4242 C   0  0  0  0  0  0  0  0  0  0  0  0
   13.8983  -18.7955   23.7695 N   0  0  0  0  0  0  0  0  0  0  0  0
   10.2331  -18.1876   27.0446 C   0  0  0  0  0  0  0  0  0  0  0  0
    9.9380  -17.0864   27.5620 O   0  0  0  0  0  0  0  0  0  0  0  0
   10.1619  -19.3457   27.7824 O   0  0  0  0  0  0  0  0  0  0  0  0
  2  1  1  0
  3  2  2  0
  4  3  1  0
  5  4  2  0
  5 11  1  0
  6  5  1  0
  7  6  1  0
  7  8  1  6
  9 10  2  0
  9  7  1  0
 11 12  2  0
 12  2  1  0
 13  9  1  0
 14 13  1  0
 15 14  1  0
 16 15  1  0
 16 17  1  0
 17 13  1  0
 17 18  1  6
 19 18  2  0
 20 18  1  0
 21 28  1  0
 21 20  1  0
 21 22  1  1
 23 22  1  0
 24 23  2  0
 25 24  1  0
 26 25  1  0
 26 27  2  0
 27 23  1  0
 28 30  1  0
 29 28  2  0
M  END
$$$$
