EQT.pdb
     RDKit          3D

 26 25  0  0  1  0  0  0  0  0999 V2000
   20.9583  -14.7411  -16.6314 N   0  0  0  0  0  0  0  0  0  0  0  0
   20.9253  -13.4547  -17.3639 C   0  0  1  0  0  0  0  0  0  0  0  0
   19.6276  -13.4577  -18.0968 C   0  0  0  0  0  0  0  0  0  0  0  0
   18.5351  -14.2859  -17.5128 C   0  0  0  0  0  0  0  0  0  0  0  0
   17.2378  -13.6339  -17.9313 C   0  0  0  0  0  0  0  0  0  0  0  0
   16.7909  -13.7119  -19.1036 O   0  0  0  0  0  0  0  0  0  0  0  0
   21.1156  -12.3897  -16.3875 C   0  0  0  0  0  0  0  0  0  0  0  0
   20.7472  -12.5572  -15.1734 O   0  0  0  0  0  0  0  0  0  0  0  0
   16.4759  -12.9106  -17.0199 O   0  0  0  0  0  0  0  0  0  0  0  0
   25.9019   -9.2204  -15.4405 N   0  0  0  0  0  0  0  0  0  0  0  0
   25.4787  -10.3880  -14.7520 C   0  0  0  0  0  0  0  0  0  0  0  0
   26.3365  -11.0572  -14.1272 O   0  0  0  0  0  0  0  0  0  0  0  0
   24.0524  -10.7822  -14.7879 C   0  0  0  0  0  0  0  0  0  0  0  0
   23.2921   -9.7211  -15.5581 C   0  0  0  0  0  0  0  0  0  0  0  0
   21.8054  -10.0867  -15.6393 C   0  0  2  0  0  0  0  0  0  0  0  0
   21.6983  -11.1153  -16.6445 N   0  0  0  0  0  0  0  0  0  0  0  0
   21.1064   -8.8719  -16.1106 C   0  0  0  0  0  0  0  0  0  0  0  0
   21.3772   -8.4258  -17.2504 O   0  0  0  0  0  0  0  0  0  0  0  0
   17.3986   -8.2681  -16.3531 C   0  0  0  0  0  0  0  0  0  0  0  0
   17.9913   -7.1972  -15.4971 C   0  0  1  0  0  0  0  0  0  0  0  0
   17.8008   -7.4030  -14.1438 O   0  0  0  0  0  0  0  0  0  0  0  0
   19.4630   -7.0584  -15.8612 C   0  0  2  0  0  0  0  0  0  0  0  0
   20.1417   -8.1936  -15.3211 N   0  0  0  0  0  0  0  0  0  0  0  0
   20.0108   -5.7752  -15.3774 C   0  0  0  0  0  0  0  0  0  0  0  0
   20.9712   -5.7453  -14.5679 O   0  0  0  0  0  0  0  0  0  0  0  0
   19.4888   -4.5619  -15.7960 O   0  0  0  0  0  0  0  0  0  0  0  0
  2  1  1  1
  2  7  1  0
  3  2  1  0
  4  3  1  0
  5  6  2  0
  5  4  1  0
  7 16  1  0
  8  7  2  0
  9  5  1  0
 10 11  1  0
 11 12  2  0
 11 13  1  0
 13 14  1  0
 15 14  1  6
 16 15  1  0
 17 18  2  0
 17 15  1  0
 20 19  1  6
 20 22  1  0
 21 20  1  0
 22 24  1  0
 22 23  1  1
 23 17  1  0
 24 26  1  0
 25 24  2  0
M  END
$$$$
