EQT.pdb
     RDKit          3D

 26 25  0  0  1  0  0  0  0  0999 V2000
   21.5043  -13.7357  -16.7091 N   0  0  0  0  0  0  0  0  0  0  0  0
   20.9269  -12.3727  -16.7434 C   0  0  1  0  0  0  0  0  0  0  0  0
   19.4927  -12.5485  -16.3783 C   0  0  0  0  0  0  0  0  0  0  0  0
   18.6413  -13.2805  -17.3580 C   0  0  0  0  0  0  0  0  0  0  0  0
   17.2549  -13.3338  -16.7593 C   0  0  0  0  0  0  0  0  0  0  0  0
   16.9322  -14.1701  -15.8781 O   0  0  0  0  0  0  0  0  0  0  0  0
   21.7240  -11.5367  -15.8549 C   0  0  0  0  0  0  0  0  0  0  0  0
   21.7859  -11.8038  -14.6048 O   0  0  0  0  0  0  0  0  0  0  0  0
   16.2665  -12.4446  -17.1675 O   0  0  0  0  0  0  0  0  0  0  0  0
   27.2336  -10.1115  -16.5377 N   0  0  0  0  0  0  0  0  0  0  0  0
   26.6567  -11.2053  -15.8398 C   0  0  0  0  0  0  0  0  0  0  0  0
   27.3713  -12.2102  -15.6082 O   0  0  0  0  0  0  0  0  0  0  0  0
   25.2428  -11.1338  -15.4077 C   0  0  0  0  0  0  0  0  0  0  0  0
   24.7203   -9.7506  -15.7407 C   0  0  0  0  0  0  0  0  0  0  0  0
   23.2566   -9.6165  -15.3044 C   0  0  2  0  0  0  0  0  0  0  0  0
   22.4848  -10.3957  -16.2408 N   0  0  0  0  0  0  0  0  0  0  0  0
   22.9090   -8.1875  -15.4583 C   0  0  0  0  0  0  0  0  0  0  0  0
   23.0416   -7.6538  -16.5848 O   0  0  0  0  0  0  0  0  0  0  0  0
   19.9499   -6.7303  -15.6466 C   0  0  0  0  0  0  0  0  0  0  0  0
   20.5366   -5.9702  -14.5026 C   0  0  1  0  0  0  0  0  0  0  0  0
   20.0782   -6.3890  -13.2679 O   0  0  0  0  0  0  0  0  0  0  0  0
   22.0534   -6.0417  -14.6129 C   0  0  2  0  0  0  0  0  0  0  0  0
   22.4314   -7.3994  -14.3791 N   0  0  0  0  0  0  0  0  0  0  0  0
   22.6986   -5.0950  -13.6811 C   0  0  0  0  0  0  0  0  0  0  0  0
   23.3889   -5.5060  -12.7153 O   0  0  0  0  0  0  0  0  0  0  0  0
   22.5676   -3.7243  -13.8363 O   0  0  0  0  0  0  0  0  0  0  0  0
  2  1  1  1
  2  7  1  0
  3  2  1  0
  4  3  1  0
  5  6  2  0
  5  4  1  0
  7 16  1  0
  8  7  2  0
  9  5  1  0
 10 11  1  0
 11 12  2  0
 11 13  1  0
 13 14  1  0
 15 14  1  6
 16 15  1  0
 17 18  2  0
 17 15  1  0
 20 19  1  6
 20 22  1  0
 21 20  1  0
 22 24  1  0
 22 23  1  1
 23 17  1  0
 24 26  1  0
 25 24  2  0
M  END
$$$$
