EQT.pdb
     RDKit          3D

 26 25  0  0  1  0  0  0  0  0999 V2000
   19.0478  -10.5819  -14.2940 N   0  0  0  0  0  0  0  0  0  0  0  0
   18.4616   -9.4749  -15.0834 C   0  0  1  0  0  0  0  0  0  0  0  0
   18.0616  -10.0912  -16.3801 C   0  0  0  0  0  0  0  0  0  0  0  0
   17.1535  -11.2702  -16.3047 C   0  0  0  0  0  0  0  0  0  0  0  0
   16.1551  -11.1099  -17.4275 C   0  0  0  0  0  0  0  0  0  0  0  0
   14.9331  -11.3679  -17.2858 O   0  0  0  0  0  0  0  0  0  0  0  0
   17.3913   -8.8881  -14.2873 C   0  0  0  0  0  0  0  0  0  0  0  0
   16.7315   -7.8871  -14.7354 O   0  0  0  0  0  0  0  0  0  0  0  0
   16.5572  -10.6631  -18.6818 O   0  0  0  0  0  0  0  0  0  0  0  0
   13.9154  -11.7657  -10.1668 N   0  0  0  0  0  0  0  0  0  0  0  0
   13.2921  -10.4900  -10.1457 C   0  0  0  0  0  0  0  0  0  0  0  0
   12.1907  -10.3727   -9.5565 O   0  0  0  0  0  0  0  0  0  0  0  0
   13.9497   -9.3432  -10.8116 C   0  0  0  0  0  0  0  0  0  0  0  0
   15.1967   -9.8554  -11.5042 C   0  0  0  0  0  0  0  0  0  0  0  0
   15.8737   -8.7230  -12.2851 C   0  0  2  0  0  0  0  0  0  0  0  0
   16.9721   -9.3268  -12.9983 N   0  0  0  0  0  0  0  0  0  0  0  0
   16.4075   -7.7855  -11.2738 C   0  0  0  0  0  0  0  0  0  0  0  0
   17.5181   -8.0351  -10.7487 O   0  0  0  0  0  0  0  0  0  0  0  0
   16.1548   -3.4309   -9.0813 C   0  0  0  0  0  0  0  0  0  0  0  0
   15.5537   -4.3907  -10.0551 C   0  0  1  0  0  0  0  0  0  0  0  0
   15.4822   -3.8977  -11.3442 O   0  0  0  0  0  0  0  0  0  0  0  0
   16.3316   -5.6971   -9.9760 C   0  0  2  0  0  0  0  0  0  0  0  0
   15.7097   -6.6154  -10.8766 N   0  0  0  0  0  0  0  0  0  0  0  0
   16.3870   -6.1988   -8.5882 C   0  0  0  0  0  0  0  0  0  0  0  0
   15.4681   -6.9179   -8.1225 O   0  0  0  0  0  0  0  0  0  0  0  0
   17.4493   -5.8966   -7.7516 O   0  0  0  0  0  0  0  0  0  0  0  0
  2  1  1  1
  2  7  1  0
  3  2  1  0
  4  3  1  0
  5  6  2  0
  5  4  1  0
  7 16  1  0
  8  7  2  0
  9  5  1  0
 10 11  1  0
 11 12  2  0
 11 13  1  0
 13 14  1  0
 15 14  1  1
 16 15  1  0
 17 18  2  0
 17 15  1  0
 20 19  1  1
 20 22  1  0
 21 20  1  0
 22 24  1  0
 22 23  1  6
 23 17  1  0
 24 26  1  0
 25 24  2  0
M  END
$$$$
