EQT.pdb
     RDKit          3D

 26 25  0  0  1  0  0  0  0  0999 V2000
   17.9127  -14.2653  -16.2643 N   0  0  0  0  0  0  0  0  0  0  0  0
   17.4170  -13.0047  -16.8624 C   0  0  1  0  0  0  0  0  0  0  0  0
   16.1842  -12.6686  -16.0953 C   0  0  0  0  0  0  0  0  0  0  0  0
   15.0073  -13.5585  -16.3035 C   0  0  0  0  0  0  0  0  0  0  0  0
   15.1350  -14.6750  -15.2934 C   0  0  0  0  0  0  0  0  0  0  0  0
   15.6704  -15.7779  -15.5708 O   0  0  0  0  0  0  0  0  0  0  0  0
   18.5027  -12.0345  -16.8018 C   0  0  0  0  0  0  0  0  0  0  0  0
   19.4584  -12.1906  -15.9649 O   0  0  0  0  0  0  0  0  0  0  0  0
   14.6569  -14.5222  -13.9963 O   0  0  0  0  0  0  0  0  0  0  0  0
   20.8993   -9.2507  -21.4836 N   0  0  0  0  0  0  0  0  0  0  0  0
   21.5755   -8.4782  -20.5027 C   0  0  0  0  0  0  0  0  0  0  0  0
   22.5555   -7.7818  -20.8617 O   0  0  0  0  0  0  0  0  0  0  0  0
   21.1129   -8.5130  -19.0971 C   0  0  0  0  0  0  0  0  0  0  0  0
   19.9268   -9.4531  -19.0171 C   0  0  0  0  0  0  0  0  0  0  0  0
   19.8031  -10.0331  -17.6033 C   0  0  2  0  0  0  0  0  0  0  0  0
   18.6289  -10.8704  -17.6133 N   0  0  0  0  0  0  0  0  0  0  0  0
   19.5720   -8.8825  -16.7036 C   0  0  0  0  0  0  0  0  0  0  0  0
   18.5294   -8.2025  -16.8519 O   0  0  0  0  0  0  0  0  0  0  0  0
   19.1912   -8.6297  -13.0925 C   0  0  0  0  0  0  0  0  0  0  0  0
   20.3569   -7.7600  -13.4321 C   0  0  1  0  0  0  0  0  0  0  0  0
   21.5793   -8.3376  -13.1453 O   0  0  0  0  0  0  0  0  0  0  0  0
   20.2362   -7.3538  -14.8944 C   0  0  2  0  0  0  0  0  0  0  0  0
   20.4859   -8.5206  -15.6800 N   0  0  0  0  0  0  0  0  0  0  0  0
   21.1500   -6.2382  -15.2126 C   0  0  0  0  0  0  0  0  0  0  0  0
   22.0869   -6.3835  -16.0370 O   0  0  0  0  0  0  0  0  0  0  0  0
   21.0091   -4.9951  -14.6169 O   0  0  0  0  0  0  0  0  0  0  0  0
  2  1  1  1
  2  7  1  0
  3  2  1  0
  4  3  1  0
  5  6  2  0
  5  4  1  0
  7 16  1  0
  8  7  2  0
  9  5  1  0
 10 11  1  0
 11 12  2  0
 11 13  1  0
 13 14  1  0
 15 14  1  6
 16 15  1  0
 17 18  2  0
 17 15  1  0
 20 19  1  6
 20 22  1  0
 21 20  1  0
 22 24  1  0
 22 23  1  6
 23 17  1  0
 24 26  1  0
 25 24  2  0
M  END
$$$$
