EQT.pdb
     RDKit          3D

 26 25  0  0  1  0  0  0  0  0999 V2000
   18.3019  -11.5401  -16.0605 N   0  0  0  0  0  0  0  0  0  0  0  0
   18.5849  -10.2239  -16.6770 C   0  0  1  0  0  0  0  0  0  0  0  0
   17.2474   -9.6151  -16.9253 C   0  0  0  0  0  0  0  0  0  0  0  0
   16.4002  -10.2695  -17.9618 C   0  0  0  0  0  0  0  0  0  0  0  0
   15.1448   -9.4359  -18.0726 C   0  0  0  0  0  0  0  0  0  0  0  0
   15.1471   -8.2725  -18.5485 O   0  0  0  0  0  0  0  0  0  0  0  0
   19.4696   -9.4985  -15.7743 C   0  0  0  0  0  0  0  0  0  0  0  0
   19.1956   -9.4257  -14.5263 O   0  0  0  0  0  0  0  0  0  0  0  0
   13.9181   -9.9327  -17.6450 O   0  0  0  0  0  0  0  0  0  0  0  0
   25.3473   -9.6049  -15.7556 N   0  0  0  0  0  0  0  0  0  0  0  0
   24.4561  -10.4326  -15.0228 C   0  0  0  0  0  0  0  0  0  0  0  0
   24.8712  -11.5445  -14.6159 O   0  0  0  0  0  0  0  0  0  0  0  0
   23.0753   -9.9686  -14.7599 C   0  0  0  0  0  0  0  0  0  0  0  0
   22.9148   -8.5971  -15.3846 C   0  0  0  0  0  0  0  0  0  0  0  0
   21.4785   -8.0939  -15.1993 C   0  0  2  0  0  0  0  0  0  0  0  0
   20.6706   -8.8266  -16.1428 N   0  0  0  0  0  0  0  0  0  0  0  0
   21.4898   -6.6641  -15.5764 C   0  0  0  0  0  0  0  0  0  0  0  0
   21.8793   -6.3478  -16.7252 O   0  0  0  0  0  0  0  0  0  0  0  0
   18.7613   -4.3472  -15.8356 C   0  0  0  0  0  0  0  0  0  0  0  0
   19.7086   -3.7044  -14.8763 C   0  0  1  0  0  0  0  0  0  0  0  0
   19.3191   -3.8183  -13.5552 O   0  0  0  0  0  0  0  0  0  0  0  0
   21.0969   -4.2784  -15.1232 C   0  0  2  0  0  0  0  0  0  0  0  0
   21.0766   -5.6385  -14.6868 N   0  0  0  0  0  0  0  0  0  0  0  0
   22.1328   -3.4715  -14.4475 C   0  0  0  0  0  0  0  0  0  0  0  0
   22.8535   -3.9671  -13.5456 O   0  0  0  0  0  0  0  0  0  0  0  0
   22.3479   -2.1440  -14.7812 O   0  0  0  0  0  0  0  0  0  0  0  0
  2  1  1  1
  2  7  1  0
  3  2  1  0
  4  3  1  0
  5  6  2  0
  5  4  1  0
  7 16  1  0
  8  7  2  0
  9  5  1  0
 10 11  1  0
 11 12  2  0
 11 13  1  0
 13 14  1  0
 15 14  1  6
 16 15  1  0
 17 18  2  0
 17 15  1  0
 20 19  1  6
 20 22  1  0
 21 20  1  0
 22 24  1  0
 22 23  1  1
 23 17  1  0
 24 26  1  0
 25 24  2  0
M  END
$$$$
