EQT.pdb
     RDKit          3D

 26 25  0  0  1  0  0  0  0  0999 V2000
   27.7651  -19.2618  -18.0682 N   0  0  0  0  0  0  0  0  0  0  0  0
   26.7402  -20.3111  -17.8660 C   0  0  1  0  0  0  0  0  0  0  0  0
   27.4353  -21.3939  -17.1138 C   0  0  0  0  0  0  0  0  0  0  0  0
   28.5605  -22.0746  -17.8146 C   0  0  0  0  0  0  0  0  0  0  0  0
   29.1096  -23.0951  -16.8448 C   0  0  0  0  0  0  0  0  0  0  0  0
   28.5767  -23.3204  -15.7288 O   0  0  0  0  0  0  0  0  0  0  0  0
   25.6015  -19.6892  -17.2025 C   0  0  0  0  0  0  0  0  0  0  0  0
   25.7687  -18.6435  -16.4838 O   0  0  0  0  0  0  0  0  0  0  0  0
   30.2446  -23.8363  -17.1554 O   0  0  0  0  0  0  0  0  0  0  0  0
   23.0712  -15.5826  -18.3421 N   0  0  0  0  0  0  0  0  0  0  0  0
   22.3056  -16.7377  -18.0322 C   0  0  0  0  0  0  0  0  0  0  0  0
   21.3483  -16.6224  -17.2295 O   0  0  0  0  0  0  0  0  0  0  0  0
   22.6519  -18.0343  -18.6565 C   0  0  0  0  0  0  0  0  0  0  0  0
   22.1439  -19.1401  -17.7531 C   0  0  0  0  0  0  0  0  0  0  0  0
   23.1608  -19.4278  -16.6424 C   0  0  2  0  0  0  0  0  0  0  0  0
   24.2503  -20.1359  -17.2680 N   0  0  0  0  0  0  0  0  0  0  0  0
   22.4828  -20.3274  -15.6845 C   0  0  0  0  0  0  0  0  0  0  0  0
   21.9949  -21.4012  -16.1092 O   0  0  0  0  0  0  0  0  0  0  0  0
   21.7475  -19.0687  -11.8712 C   0  0  0  0  0  0  0  0  0  0  0  0
   22.0495  -20.5255  -12.0032 C   0  0  1  0  0  0  0  0  0  0  0  0
   21.4105  -21.3097  -11.0615 O   0  0  0  0  0  0  0  0  0  0  0  0
   21.7248  -20.9505  -13.4287 C   0  0  2  0  0  0  0  0  0  0  0  0
   22.3644  -20.0201  -14.3040 N   0  0  0  0  0  0  0  0  0  0  0  0
   20.2653  -21.0305  -13.6393 C   0  0  0  0  0  0  0  0  0  0  0  0
   19.6571  -20.1509  -14.2987 O   0  0  0  0  0  0  0  0  0  0  0  0
   19.5155  -22.0736  -13.1202 O   0  0  0  0  0  0  0  0  0  0  0  0
  2  1  1  1
  2  7  1  0
  3  2  1  0
  4  3  1  0
  5  6  2  0
  5  4  1  0
  7 16  1  0
  8  7  2  0
  9  5  1  0
 10 11  1  0
 11 12  2  0
 11 13  1  0
 13 14  1  0
 15 14  1  6
 16 15  1  0
 17 18  2  0
 17 15  1  0
 20 19  1  6
 20 22  1  0
 21 20  1  0
 22 24  1  0
 22 23  1  6
 23 17  1  0
 24 26  1  0
 25 24  2  0
M  END
$$$$
