EQT.pdb
     RDKit          3D

 26 25  0  0  1  0  0  0  0  0999 V2000
   15.7154  -15.4742  -16.7845 N   0  0  0  0  0  0  0  0  0  0  0  0
   16.2034  -14.8509  -15.5332 C   0  0  1  0  0  0  0  0  0  0  0  0
   17.6724  -15.1021  -15.5207 C   0  0  0  0  0  0  0  0  0  0  0  0
   18.4298  -14.6823  -16.7334 C   0  0  0  0  0  0  0  0  0  0  0  0
   19.8937  -14.8540  -16.4004 C   0  0  0  0  0  0  0  0  0  0  0  0
   20.4069  -14.3855  -15.3530 O   0  0  0  0  0  0  0  0  0  0  0  0
   15.7847  -13.4551  -15.5469 C   0  0  0  0  0  0  0  0  0  0  0  0
   15.3369  -12.9287  -16.6241 O   0  0  0  0  0  0  0  0  0  0  0  0
   20.7432  -15.5487  -17.2548 O   0  0  0  0  0  0  0  0  0  0  0  0
   13.1978  -10.6299  -10.8719 N   0  0  0  0  0  0  0  0  0  0  0  0
   13.1009   -9.5828  -11.8261 C   0  0  0  0  0  0  0  0  0  0  0  0
   12.4351   -8.5621  -11.5277 O   0  0  0  0  0  0  0  0  0  0  0  0
   13.7799   -9.7197  -13.1342 C   0  0  0  0  0  0  0  0  0  0  0  0
   14.4674  -11.0700  -13.1664 C   0  0  0  0  0  0  0  0  0  0  0  0
   15.2414  -11.2408  -14.4788 C   0  0  2  0  0  0  0  0  0  0  0  0
   15.8173  -12.5623  -14.4371 N   0  0  0  0  0  0  0  0  0  0  0  0
   16.3266  -10.2366  -14.4519 C   0  0  0  0  0  0  0  0  0  0  0  0
   17.2927  -10.4152  -13.6734 O   0  0  0  0  0  0  0  0  0  0  0  0
   18.2734   -8.7341  -17.4591 C   0  0  0  0  0  0  0  0  0  0  0  0
   17.6260   -7.6563  -16.6528 C   0  0  1  0  0  0  0  0  0  0  0  0
   16.4558   -7.1767  -17.2101 O   0  0  0  0  0  0  0  0  0  0  0  0
   17.4226   -8.1792  -15.2375 C   0  0  2  0  0  0  0  0  0  0  0  0
   16.3143   -9.0799  -15.2740 N   0  0  0  0  0  0  0  0  0  0  0  0
   17.2314   -7.0682  -14.2835 C   0  0  0  0  0  0  0  0  0  0  0  0
   16.1501   -6.9300  -13.6590 O   0  0  0  0  0  0  0  0  0  0  0  0
   18.2326   -6.1411  -14.0426 O   0  0  0  0  0  0  0  0  0  0  0  0
  2  1  1  6
  2  7  1  0
  3  2  1  0
  4  3  1  0
  5  6  2  0
  5  4  1  0
  7 16  1  0
  8  7  2  0
  9  5  1  0
 10 11  1  0
 11 12  2  0
 11 13  1  0
 13 14  1  0
 15 14  1  1
 16 15  1  0
 17 18  2  0
 17 15  1  0
 20 19  1  6
 20 22  1  0
 21 20  1  0
 22 24  1  0
 22 23  1  6
 23 17  1  0
 24 26  1  0
 25 24  2  0
M  END
$$$$
