EQT.pdb
     RDKit          3D

 26 25  0  0  1  0  0  0  0  0999 V2000
   22.3668  -21.4348  -12.3752 N   0  0  0  0  0  0  0  0  0  0  0  0
   22.2836  -20.7922  -13.7065 C   0  0  1  0  0  0  0  0  0  0  0  0
   20.9101  -20.2178  -13.7759 C   0  0  0  0  0  0  0  0  0  0  0  0
   19.7884  -21.1290  -13.4127 C   0  0  0  0  0  0  0  0  0  0  0  0
   18.5146  -20.3935  -13.7589 C   0  0  0  0  0  0  0  0  0  0  0  0
   18.5155  -19.2336  -14.2432 O   0  0  0  0  0  0  0  0  0  0  0  0
   23.3875  -19.8461  -13.8060 C   0  0  0  0  0  0  0  0  0  0  0  0
   24.0833  -19.5588  -12.7710 O   0  0  0  0  0  0  0  0  0  0  0  0
   17.2717  -20.9820  -13.5511 O   0  0  0  0  0  0  0  0  0  0  0  0
   27.2961  -21.5200  -16.4927 N   0  0  0  0  0  0  0  0  0  0  0  0
   27.5257  -21.1642  -15.1373 C   0  0  0  0  0  0  0  0  0  0  0  0
   28.2271  -21.9268  -14.4299 O   0  0  0  0  0  0  0  0  0  0  0  0
   26.9386  -19.9167  -14.5986 C   0  0  0  0  0  0  0  0  0  0  0  0
   26.0769  -19.2985  -15.6814 C   0  0  0  0  0  0  0  0  0  0  0  0
   25.0133  -18.3871  -15.0580 C   0  0  2  0  0  0  0  0  0  0  0  0
   23.8038  -19.1695  -14.9887 N   0  0  0  0  0  0  0  0  0  0  0  0
   24.8166  -17.2715  -16.0085 C   0  0  0  0  0  0  0  0  0  0  0  0
   24.1436  -17.4764  -17.0461 O   0  0  0  0  0  0  0  0  0  0  0  0
   26.1596  -13.5112  -15.0436 C   0  0  0  0  0  0  0  0  0  0  0  0
   24.9379  -13.6431  -15.8925 C   0  0  1  0  0  0  0  0  0  0  0  0
   24.6945  -12.5380  -16.6859 O   0  0  0  0  0  0  0  0  0  0  0  0
   25.0602  -14.9248  -16.7050 C   0  0  2  0  0  0  0  0  0  0  0  0
   25.3611  -15.9794  -15.7894 N   0  0  0  0  0  0  0  0  0  0  0  0
   26.0706  -14.7823  -17.7725 C   0  0  0  0  0  0  0  0  0  0  0  0
   27.2334  -15.2357  -17.6281 O   0  0  0  0  0  0  0  0  0  0  0  0
   25.7757  -14.1461  -18.9676 O   0  0  0  0  0  0  0  0  0  0  0  0
  2  1  1  1
  2  7  1  0
  3  2  1  0
  4  3  1  0
  5  6  2  0
  5  4  1  0
  7 16  1  0
  8  7  2  0
  9  5  1  0
 10 11  1  0
 11 12  2  0
 11 13  1  0
 13 14  1  0
 15 14  1  6
 16 15  1  0
 17 18  2  0
 17 15  1  0
 20 19  1  6
 20 22  1  0
 21 20  1  0
 22 24  1  0
 22 23  1  1
 23 17  1  0
 24 26  1  0
 25 24  2  0
M  END
$$$$
