EQT.pdb
     RDKit          3D

 26 25  0  0  1  0  0  0  0  0999 V2000
   17.9716  -11.1790  -13.9541 N   0  0  0  0  0  0  0  0  0  0  0  0
   17.8770  -10.2387  -15.0940 C   0  0  1  0  0  0  0  0  0  0  0  0
   16.7154  -10.7161  -15.8965 C   0  0  0  0  0  0  0  0  0  0  0  0
   16.2155  -12.0868  -15.5938 C   0  0  0  0  0  0  0  0  0  0  0  0
   16.6570  -12.9632  -16.7429 C   0  0  0  0  0  0  0  0  0  0  0  0
   17.4940  -12.5818  -17.5996 O   0  0  0  0  0  0  0  0  0  0  0  0
   17.7758   -8.8928  -14.5444 C   0  0  0  0  0  0  0  0  0  0  0  0
   17.7409   -7.8801  -15.3262 O   0  0  0  0  0  0  0  0  0  0  0  0
   16.1452  -14.2470  -16.8990 O   0  0  0  0  0  0  0  0  0  0  0  0
   15.8767   -7.3238   -8.8675 N   0  0  0  0  0  0  0  0  0  0  0  0
   16.2470   -6.0376   -9.3416 C   0  0  0  0  0  0  0  0  0  0  0  0
   16.0417   -5.0458   -8.6010 O   0  0  0  0  0  0  0  0  0  0  0  0
   16.8591   -5.9001  -10.6823 C   0  0  0  0  0  0  0  0  0  0  0  0
   16.9705   -7.2837  -11.2908 C   0  0  0  0  0  0  0  0  0  0  0  0
   17.5930   -7.2003  -12.6894 C   0  0  2  0  0  0  0  0  0  0  0  0
   17.7055   -8.5584  -13.1613 N   0  0  0  0  0  0  0  0  0  0  0  0
   18.9473   -6.6358  -12.5057 C   0  0  0  0  0  0  0  0  0  0  0  0
   19.6020   -6.9612  -11.4874 O   0  0  0  0  0  0  0  0  0  0  0  0
   22.0818   -7.1651  -13.7905 C   0  0  0  0  0  0  0  0  0  0  0  0
   21.7916   -5.7516  -14.1758 C   0  0  1  0  0  0  0  0  0  0  0  0
   21.3435   -5.6143  -15.4760 O   0  0  0  0  0  0  0  0  0  0  0  0
   20.8141   -5.1741  -13.1615 C   0  0  2  0  0  0  0  0  0  0  0  0
   19.5322   -5.7405  -13.4387 N   0  0  0  0  0  0  0  0  0  0  0  0
   20.8138   -3.6980  -13.2055 C   0  0  0  0  0  0  0  0  0  0  0  0
   19.7938   -3.0613  -13.5695 O   0  0  0  0  0  0  0  0  0  0  0  0
   21.9331   -2.9633  -12.8486 O   0  0  0  0  0  0  0  0  0  0  0  0
  2  1  1  1
  2  7  1  0
  3  2  1  0
  4  3  1  0
  5  6  2  0
  5  4  1  0
  7 16  1  0
  8  7  2  0
  9  5  1  0
 10 11  1  0
 11 12  2  0
 11 13  1  0
 13 14  1  0
 15 14  1  1
 16 15  1  0
 17 18  2  0
 17 15  1  0
 20 19  1  1
 20 22  1  0
 21 20  1  0
 22 24  1  0
 22 23  1  6
 23 17  1  0
 24 26  1  0
 25 24  2  0
M  END
$$$$
