EQT.pdb
     RDKit          3D

 26 25  0  0  1  0  0  0  0  0999 V2000
   19.0107  -12.1150  -16.2764 N   0  0  0  0  0  0  0  0  0  0  0  0
   18.3265  -11.0896  -17.0967 C   0  0  1  0  0  0  0  0  0  0  0  0
   17.0382  -11.7163  -17.5075 C   0  0  0  0  0  0  0  0  0  0  0  0
   17.0529  -13.1913  -17.7186 C   0  0  0  0  0  0  0  0  0  0  0  0
   15.6605  -13.6807  -17.3944 C   0  0  0  0  0  0  0  0  0  0  0  0
   15.3659  -14.1897  -16.2836 O   0  0  0  0  0  0  0  0  0  0  0  0
   18.2304   -9.8780  -16.2926 C   0  0  0  0  0  0  0  0  0  0  0  0
   17.6173   -8.8511  -16.7481 O   0  0  0  0  0  0  0  0  0  0  0  0
   14.6348  -13.5848  -18.3287 O   0  0  0  0  0  0  0  0  0  0  0  0
   17.1497   -9.3040  -10.4542 N   0  0  0  0  0  0  0  0  0  0  0  0
   17.4058   -7.9352  -10.7323 C   0  0  0  0  0  0  0  0  0  0  0  0
   17.1029   -7.0821   -9.8636 O   0  0  0  0  0  0  0  0  0  0  0  0
   18.0167   -7.5530  -12.0253 C   0  0  0  0  0  0  0  0  0  0  0  0
   18.1593   -8.8066  -12.8651 C   0  0  0  0  0  0  0  0  0  0  0  0
   18.6734   -8.4522  -14.2653 C   0  0  2  0  0  0  0  0  0  0  0  0
   18.7689   -9.6977  -14.9860 N   0  0  0  0  0  0  0  0  0  0  0  0
   20.0298   -7.8937  -14.0783 C   0  0  0  0  0  0  0  0  0  0  0  0
   20.9077   -8.6115  -13.5439 O   0  0  0  0  0  0  0  0  0  0  0  0
   22.4241   -6.9021  -16.5376 C   0  0  0  0  0  0  0  0  0  0  0  0
   22.2027   -5.6816  -15.7058 C   0  0  1  0  0  0  0  0  0  0  0  0
   21.3534   -4.7612  -16.2904 O   0  0  0  0  0  0  0  0  0  0  0  0
   21.7203   -6.1247  -14.3314 C   0  0  2  0  0  0  0  0  0  0  0  0
   20.3734   -6.5770  -14.4809 N   0  0  0  0  0  0  0  0  0  0  0  0
   21.8562   -5.0348  -13.3443 C   0  0  0  0  0  0  0  0  0  0  0  0
   20.8451   -4.5206  -12.8042 O   0  0  0  0  0  0  0  0  0  0  0  0
   23.0980   -4.5407  -12.9785 O   0  0  0  0  0  0  0  0  0  0  0  0
  2  1  1  1
  2  7  1  0
  3  2  1  0
  4  3  1  0
  5  6  2  0
  5  4  1  0
  7 16  1  0
  8  7  2  0
  9  5  1  0
 10 11  1  0
 11 12  2  0
 11 13  1  0
 13 14  1  0
 15 14  1  1
 16 15  1  0
 17 18  2  0
 17 15  1  0
 20 19  1  6
 20 22  1  0
 21 20  1  0
 22 24  1  0
 22 23  1  6
 23 17  1  0
 24 26  1  0
 25 24  2  0
M  END
$$$$
