EQT.pdb
     RDKit          3D

 26 25  0  0  1  0  0  0  0  0999 V2000
   28.2569  -22.5393  -16.5492 N   0  0  0  0  0  0  0  0  0  0  0  0
   28.1007  -21.4390  -15.5708 C   0  0  1  0  0  0  0  0  0  0  0  0
   28.5091  -20.2067  -16.3028 C   0  0  0  0  0  0  0  0  0  0  0  0
   28.4263  -20.2575  -17.7897 C   0  0  0  0  0  0  0  0  0  0  0  0
   27.9476  -18.8953  -18.2353 C   0  0  0  0  0  0  0  0  0  0  0  0
   27.8459  -18.5792  -19.4476 O   0  0  0  0  0  0  0  0  0  0  0  0
   26.7281  -21.4781  -15.0830 C   0  0  0  0  0  0  0  0  0  0  0  0
   25.8175  -22.0570  -15.7712 O   0  0  0  0  0  0  0  0  0  0  0  0
   27.5954  -17.9231  -17.3052 O   0  0  0  0  0  0  0  0  0  0  0  0
   24.9667  -20.7234   -9.2130 N   0  0  0  0  0  0  0  0  0  0  0  0
   23.7373  -21.1445   -9.7852 C   0  0  0  0  0  0  0  0  0  0  0  0
   22.7866  -21.4278   -9.0170 O   0  0  0  0  0  0  0  0  0  0  0  0
   23.6090  -21.2376  -11.2569 C   0  0  0  0  0  0  0  0  0  0  0  0
   24.9610  -20.9246  -11.8660 C   0  0  0  0  0  0  0  0  0  0  0  0
   24.9067  -21.0839  -13.3899 C   0  0  2  0  0  0  0  0  0  0  0  0
   26.2597  -20.9165  -13.8603 N   0  0  0  0  0  0  0  0  0  0  0  0
   24.0759  -19.9687  -13.8925 C   0  0  0  0  0  0  0  0  0  0  0  0
   24.3884  -18.7961  -13.5779 O   0  0  0  0  0  0  0  0  0  0  0  0
   23.3551  -18.8917  -17.2570 C   0  0  0  0  0  0  0  0  0  0  0  0
   22.0152  -19.1436  -16.6470 C   0  0  1  0  0  0  0  0  0  0  0  0
   21.4378  -20.3317  -17.0533 O   0  0  0  0  0  0  0  0  0  0  0  0
   22.1582  -19.0560  -15.1338 C   0  0  2  0  0  0  0  0  0  0  0  0
   22.9395  -20.1769  -14.7167 N   0  0  0  0  0  0  0  0  0  0  0  0
   20.8363  -18.9986  -14.4781 C   0  0  0  0  0  0  0  0  0  0  0  0
   20.0697  -18.0184  -14.6512 O   0  0  0  0  0  0  0  0  0  0  0  0
   20.3939  -20.0187  -13.6513 O   0  0  0  0  0  0  0  0  0  0  0  0
  2  1  1  6
  2  7  1  0
  3  2  1  0
  4  3  1  0
  5  6  2  0
  5  4  1  0
  7 16  1  0
  8  7  2  0
  9  5  1  0
 10 11  1  0
 11 12  2  0
 11 13  1  0
 13 14  1  0
 15 14  1  1
 16 15  1  0
 17 18  2  0
 17 15  1  0
 20 19  1  6
 20 22  1  0
 21 20  1  0
 22 24  1  0
 22 23  1  1
 23 17  1  0
 24 26  1  0
 25 24  2  0
M  END
$$$$
