EQT.pdb
     RDKit          3D

 26 25  0  0  1  0  0  0  0  0999 V2000
   17.2163  -12.3812  -14.8139 N   0  0  0  0  0  0  0  0  0  0  0  0
   16.4768  -11.1184  -14.5880 C   0  0  1  0  0  0  0  0  0  0  0  0
   15.0848  -11.5365  -14.2582 C   0  0  0  0  0  0  0  0  0  0  0  0
   14.2133  -11.9138  -15.4065 C   0  0  0  0  0  0  0  0  0  0  0  0
   12.8557  -12.2302  -14.8234 C   0  0  0  0  0  0  0  0  0  0  0  0
   12.6546  -13.2263  -14.0836 O   0  0  0  0  0  0  0  0  0  0  0  0
   17.1898  -10.3711  -13.5600 C   0  0  0  0  0  0  0  0  0  0  0  0
   17.5441  -10.9490  -12.4743 O   0  0  0  0  0  0  0  0  0  0  0  0
   11.7584  -11.4175  -15.0877 O   0  0  0  0  0  0  0  0  0  0  0  0
   21.5583   -6.3068  -13.9704 N   0  0  0  0  0  0  0  0  0  0  0  0
   21.2477   -6.0999  -12.6004 C   0  0  0  0  0  0  0  0  0  0  0  0
   22.0478   -5.4338  -11.9002 O   0  0  0  0  0  0  0  0  0  0  0  0
   20.0019   -6.6686  -12.0385 C   0  0  0  0  0  0  0  0  0  0  0  0
   19.3467   -7.5143  -13.1122 C   0  0  0  0  0  0  0  0  0  0  0  0
   18.1613   -8.2906  -12.5271 C   0  0  2  0  0  0  0  0  0  0  0  0
   17.5588   -8.9969  -13.6307 N   0  0  0  0  0  0  0  0  0  0  0  0
   17.2113   -7.2757  -12.0229 C   0  0  0  0  0  0  0  0  0  0  0  0
   16.5580   -6.5989  -12.8514 O   0  0  0  0  0  0  0  0  0  0  0  0
   14.5475   -7.5353   -9.1567 C   0  0  0  0  0  0  0  0  0  0  0  0
   15.5192   -6.4324   -8.8915 C   0  0  1  0  0  0  0  0  0  0  0  0
   16.4827   -6.7582   -7.9558 O   0  0  0  0  0  0  0  0  0  0  0  0
   16.1238   -6.0023  -10.2209 C   0  0  2  0  0  0  0  0  0  0  0  0
   17.0125   -7.0404  -10.6376 N   0  0  0  0  0  0  0  0  0  0  0  0
   16.7875   -4.6885  -10.1019 C   0  0  0  0  0  0  0  0  0  0  0  0
   18.0267   -4.5712  -10.2726 O   0  0  0  0  0  0  0  0  0  0  0  0
   16.0720   -3.5412   -9.7991 O   0  0  0  0  0  0  0  0  0  0  0  0
  2  1  1  1
  2  7  1  0
  3  2  1  0
  4  3  1  0
  5  6  2  0
  5  4  1  0
  7 16  1  0
  8  7  2  0
  9  5  1  0
 10 11  1  0
 11 12  2  0
 11 13  1  0
 13 14  1  0
 15 14  1  6
 16 15  1  0
 17 18  2  0
 17 15  1  0
 20 19  1  6
 20 22  1  0
 21 20  1  0
 22 24  1  0
 22 23  1  1
 23 17  1  0
 24 26  1  0
 25 24  2  0
M  END
$$$$
