EQT.pdb
     RDKit          3D

 26 25  0  0  1  0  0  0  0  0999 V2000
   22.4833  -34.1182    0.6123 N   0  0  0  0  0  0  0  0  0  0  0  0
   22.1833  -34.1606    2.0616 C   0  0  1  0  0  0  0  0  0  0  0  0
   22.6386  -35.5058    2.5139 C   0  0  0  0  0  0  0  0  0  0  0  0
   24.0712  -35.8388    2.2748 C   0  0  0  0  0  0  0  0  0  0  0  0
   24.2600  -37.2632    2.7423 C   0  0  0  0  0  0  0  0  0  0  0  0
   23.3088  -37.9644    3.1708 O   0  0  0  0  0  0  0  0  0  0  0  0
   22.8378  -33.0138    2.6782 C   0  0  0  0  0  0  0  0  0  0  0  0
   23.7762  -32.4005    2.0608 O   0  0  0  0  0  0  0  0  0  0  0  0
   25.5146  -37.8627    2.7159 O   0  0  0  0  0  0  0  0  0  0  0  0
   20.5639  -29.4707    7.1925 N   0  0  0  0  0  0  0  0  0  0  0  0
   21.7572  -28.7563    6.9062 C   0  0  0  0  0  0  0  0  0  0  0  0
   21.9461  -27.6552    7.4772 O   0  0  0  0  0  0  0  0  0  0  0  0
   22.7377  -29.3217    5.9522 C   0  0  0  0  0  0  0  0  0  0  0  0
   22.1932  -30.6435    5.4488 C   0  0  0  0  0  0  0  0  0  0  0  0
   23.1910  -31.2964    4.4851 C   0  0  2  0  0  0  0  0  0  0  0  0
   22.5341  -32.4672    3.9583 N   0  0  0  0  0  0  0  0  0  0  0  0
   24.3459  -31.7159    5.3079 C   0  0  0  0  0  0  0  0  0  0  0  0
   24.1459  -32.4826    6.2793 O   0  0  0  0  0  0  0  0  0  0  0  0
   27.8018  -33.2052    4.2563 C   0  0  0  0  0  0  0  0  0  0  0  0
   27.9606  -31.9155    4.9927 C   0  0  1  0  0  0  0  0  0  0  0  0
   28.1887  -30.8318    4.1660 O   0  0  0  0  0  0  0  0  0  0  0  0
   26.7385  -31.7214    5.8796 C   0  0  2  0  0  0  0  0  0  0  0  0
   25.6702  -31.2830    5.0384 N   0  0  0  0  0  0  0  0  0  0  0  0
   27.0265  -30.7824    6.9823 C   0  0  0  0  0  0  0  0  0  0  0  0
   26.4484  -29.6692    7.0524 O   0  0  0  0  0  0  0  0  0  0  0  0
   27.9407  -31.0923    7.9764 O   0  0  0  0  0  0  0  0  0  0  0  0
  2  1  1  6
  2  7  1  0
  3  2  1  0
  4  3  1  0
  5  6  2  0
  5  4  1  0
  7 16  1  0
  8  7  2  0
  9  5  1  0
 10 11  1  0
 11 12  2  0
 11 13  1  0
 13 14  1  0
 15 14  1  1
 16 15  1  0
 17 18  2  0
 17 15  1  0
 20 19  1  6
 20 22  1  0
 21 20  1  0
 22 24  1  0
 22 23  1  6
 23 17  1  0
 24 26  1  0
 25 24  2  0
M  END
$$$$
