EQT.pdb
     RDKit          3D

 26 25  0  0  1  0  0  0  0  0999 V2000
   21.3326  -11.3694  -18.7581 N   0  0  0  0  0  0  0  0  0  0  0  0
   22.2181  -10.1989  -18.9539 C   0  0  1  0  0  0  0  0  0  0  0  0
   22.4370  -10.1188  -20.4259 C   0  0  0  0  0  0  0  0  0  0  0  0
   23.2338  -11.2175  -21.0412 C   0  0  0  0  0  0  0  0  0  0  0  0
   24.2301  -10.5545  -21.9638 C   0  0  0  0  0  0  0  0  0  0  0  0
   23.9719   -9.4923  -22.5843 O   0  0  0  0  0  0  0  0  0  0  0  0
   21.5709   -9.0511  -18.3316 C   0  0  0  0  0  0  0  0  0  0  0  0
   20.3838   -8.7180  -18.6751 O   0  0  0  0  0  0  0  0  0  0  0  0
   25.4919  -11.1038  -22.1648 O   0  0  0  0  0  0  0  0  0  0  0  0
   20.7702   -8.0405  -12.7294 N   0  0  0  0  0  0  0  0  0  0  0  0
   19.6548   -8.1807  -13.5970 C   0  0  0  0  0  0  0  0  0  0  0  0
   18.5803   -8.6216  -13.1224 O   0  0  0  0  0  0  0  0  0  0  0  0
   19.7857   -7.8076  -15.0234 C   0  0  0  0  0  0  0  0  0  0  0  0
   21.2297   -7.4232  -15.2767 C   0  0  0  0  0  0  0  0  0  0  0  0
   21.4384   -7.0897  -16.7585 C   0  0  2  0  0  0  0  0  0  0  0  0
   22.1392   -8.2137  -17.3289 N   0  0  0  0  0  0  0  0  0  0  0  0
   22.3164   -5.9004  -16.7946 C   0  0  0  0  0  0  0  0  0  0  0  0
   23.4896   -6.0051  -16.3655 O   0  0  0  0  0  0  0  0  0  0  0  0
   22.8067   -3.4476  -19.7325 C   0  0  0  0  0  0  0  0  0  0  0  0
   22.4433   -2.6790  -18.5045 C   0  0  1  0  0  0  0  0  0  0  0  0
   21.1323   -2.2417  -18.4942 O   0  0  0  0  0  0  0  0  0  0  0  0
   22.7784   -3.5358  -17.2914 C   0  0  2  0  0  0  0  0  0  0  0  0
   21.8801   -4.6467  -17.2964 N   0  0  0  0  0  0  0  0  0  0  0  0
   22.7092   -2.7440  -16.0468 C   0  0  0  0  0  0  0  0  0  0  0  0
   21.8806   -3.0257  -15.1455 O   0  0  0  0  0  0  0  0  0  0  0  0
   23.5515   -1.6660  -15.8274 O   0  0  0  0  0  0  0  0  0  0  0  0
  2  1  1  6
  2  7  1  0
  3  2  1  0
  4  3  1  0
  5  6  2  0
  5  4  1  0
  7 16  1  0
  8  7  2  0
  9  5  1  0
 10 11  1  0
 11 12  2  0
 11 13  1  0
 13 14  1  0
 15 14  1  1
 16 15  1  0
 17 18  2  0
 17 15  1  0
 20 19  1  6
 20 22  1  0
 21 20  1  0
 22 24  1  0
 22 23  1  1
 23 17  1  0
 24 26  1  0
 25 24  2  0
M  END
$$$$
