VML.pdb
     RDKit          3D

 24 23  0  0  1  0  0  0  0  0999 V2000
    7.9475  -19.9408   25.0822 C   0  0  0  0  0  0  0  0  0  0  0  0
    6.6909  -19.3337   24.4970 C   0  0  2  0  0  0  0  0  0  0  0  0
    5.5279  -20.2263   24.8446 C   0  0  0  0  0  0  0  0  0  0  0  0
    6.8621  -19.1800   22.9901 C   0  0  2  0  0  0  0  0  0  0  0  0
    7.0373  -20.4890   22.4449 N   0  0  0  0  0  0  0  0  0  0  0  0
    7.9653  -18.2564   22.6629 C   0  0  0  0  0  0  0  0  0  0  0  0
    9.1242  -18.7215   22.5214 O   0  0  0  0  0  0  0  0  0  0  0  0
    7.4378  -12.3489   20.0045 C   0  0  0  0  0  0  0  0  0  0  0  0
    6.4167  -13.8405   19.7596 S   0  0  0  0  0  0  0  0  0  0  0  0
    7.0415  -15.2212   20.7863 C   0  0  0  0  0  0  0  0  0  0  0  0
    8.4157  -14.8973   21.2899 C   0  0  0  0  0  0  0  0  0  0  0  0
    8.9428  -16.0120   22.1706 C   0  0  2  0  0  0  0  0  0  0  0  0
    7.7748  -16.8777   22.5025 N   0  0  0  0  0  0  0  0  0  0  0  0
    9.4234  -15.5007   23.4562 C   0  0  0  0  0  0  0  0  0  0  0  0
   10.0987  -14.4145   23.5323 O   0  0  0  0  0  0  0  0  0  0  0  0
    6.7141  -12.5064   26.7294 C   0  0  0  0  0  0  0  0  0  0  0  0
    7.9585  -13.3867   26.9884 C   0  0  2  0  0  0  0  0  0  0  0  0
    9.1482  -12.4540   27.0812 C   0  0  0  0  0  0  0  0  0  0  0  0
    8.0807  -14.2491   25.7609 C   0  0  0  0  0  0  0  0  0  0  0  0
    9.0884  -15.3268   25.9540 C   0  0  2  0  0  0  0  0  0  0  0  0
    9.1972  -16.1293   24.7211 N   0  0  0  0  0  0  0  0  0  0  0  0
    8.8749  -16.1948   27.1110 C   0  0  0  0  0  0  0  0  0  0  0  0
    7.9996  -17.2899   27.0003 O   0  0  0  0  0  0  0  0  0  0  0  0
    9.4317  -16.0197   28.2077 O   0  0  0  0  0  0  0  0  0  0  0  0
  2  1  1  6
  3  2  1  0
  4  5  1  6
  4  6  1  0
  4  2  1  0
  6  7  2  0
  9  8  1  0
 10  9  1  0
 11 10  1  0
 12 11  1  6
 12 14  1  0
 13  6  1  0
 13 12  1  0
 14 21  1  0
 14 15  2  0
 17 16  1  6
 17 19  1  0
 18 17  1  0
 20 19  1  6
 20 22  1  0
 21 20  1  0
 22 24  2  0
 22 23  1  0
M  END
$$$$
