VML.pdb
     RDKit          3D

 24 23  0  0  1  0  0  0  0  0999 V2000
    9.5143  -17.5379   18.3751 C   0  0  0  0  0  0  0  0  0  0  0  0
    9.6138  -16.5736   19.5371 C   0  0  2  0  0  0  0  0  0  0  0  0
   10.9596  -15.8987   19.4781 C   0  0  0  0  0  0  0  0  0  0  0  0
    9.4146  -17.3367   20.8415 C   0  0  2  0  0  0  0  0  0  0  0  0
    8.1910  -18.0655   20.7270 N   0  0  0  0  0  0  0  0  0  0  0  0
    9.4517  -16.4332   22.0075 C   0  0  0  0  0  0  0  0  0  0  0  0
   10.5073  -15.7943   22.2466 O   0  0  0  0  0  0  0  0  0  0  0  0
    6.6748  -11.4777   25.1518 C   0  0  0  0  0  0  0  0  0  0  0  0
    5.9104  -12.9952   25.8153 S   0  0  0  0  0  0  0  0  0  0  0  0
    7.1294  -14.3599   25.8621 C   0  0  0  0  0  0  0  0  0  0  0  0
    7.0940  -15.1162   24.5683 C   0  0  0  0  0  0  0  0  0  0  0  0
    8.4970  -15.3794   24.0601 C   0  0  2  0  0  0  0  0  0  0  0  0
    8.3559  -16.2566   22.8624 N   0  0  0  0  0  0  0  0  0  0  0  0
    9.2803  -16.1593   25.0211 C   0  0  0  0  0  0  0  0  0  0  0  0
    9.3743  -17.4337   24.9277 O   0  0  0  0  0  0  0  0  0  0  0  0
   10.3276  -13.5566   27.6655 C   0  0  0  0  0  0  0  0  0  0  0  0
   10.5345  -14.7136   28.6701 C   0  0  2  0  0  0  0  0  0  0  0  0
   11.1450  -14.1113   29.9184 C   0  0  0  0  0  0  0  0  0  0  0  0
   11.5293  -15.6262   28.0047 C   0  0  0  0  0  0  0  0  0  0  0  0
   10.8840  -16.4546   26.9504 C   0  0  2  0  0  0  0  0  0  0  0  0
   10.0035  -15.6068   26.1247 N   0  0  0  0  0  0  0  0  0  0  0  0
   10.1600  -17.6330   27.4244 C   0  0  0  0  0  0  0  0  0  0  0  0
   10.8744  -18.6919   28.0127 O   0  0  0  0  0  0  0  0  0  0  0  0
    8.9269  -17.7573   27.3374 O   0  0  0  0  0  0  0  0  0  0  0  0
  2  1  1  6
  3  2  1  0
  4  5  1  6
  4  6  1  0
  4  2  1  0
  6  7  2  0
  9  8  1  0
 10  9  1  0
 11 10  1  0
 12 11  1  1
 12 14  1  0
 13  6  1  0
 13 12  1  0
 14 21  1  0
 14 15  2  0
 17 16  1  6
 17 19  1  0
 18 17  1  0
 20 19  1  1
 20 22  1  0
 21 20  1  0
 22 24  2  0
 22 23  1  0
M  END
$$$$
