VML.pdb
     RDKit          3D

 24 23  0  0  1  0  0  0  0  0999 V2000
    6.7749  -21.2452   20.9409 C   0  0  0  0  0  0  0  0  0  0  0  0
    7.5490  -19.9759   20.6585 C   0  0  2  0  0  0  0  0  0  0  0  0
    8.7048  -20.3177   19.7545 C   0  0  0  0  0  0  0  0  0  0  0  0
    8.0154  -19.3683   21.9765 C   0  0  2  0  0  0  0  0  0  0  0  0
    6.8671  -19.2386   22.8167 N   0  0  0  0  0  0  0  0  0  0  0  0
    8.7313  -18.0960   21.7618 C   0  0  0  0  0  0  0  0  0  0  0  0
    9.8792  -18.1245   21.2507 O   0  0  0  0  0  0  0  0  0  0  0  0
    6.5393  -12.8880   18.9331 C   0  0  0  0  0  0  0  0  0  0  0  0
    7.4968  -12.1096   20.2764 S   0  0  0  0  0  0  0  0  0  0  0  0
    8.6899  -13.3017   20.9878 C   0  0  0  0  0  0  0  0  0  0  0  0
    8.0138  -14.6196   21.2183 C   0  0  0  0  0  0  0  0  0  0  0  0
    8.9697  -15.6119   21.8487 C   0  0  2  0  0  0  0  0  0  0  0  0
    8.1836  -16.8530   22.1048 N   0  0  0  0  0  0  0  0  0  0  0  0
    9.4219  -15.1611   23.1668 C   0  0  0  0  0  0  0  0  0  0  0  0
   10.0541  -14.0565   23.3139 O   0  0  0  0  0  0  0  0  0  0  0  0
    6.0021  -12.9695   26.5249 C   0  0  0  0  0  0  0  0  0  0  0  0
    7.4119  -13.5601   26.7578 C   0  0  2  0  0  0  0  0  0  0  0  0
    8.3603  -12.3903   26.9183 C   0  0  0  0  0  0  0  0  0  0  0  0
    7.7303  -14.3049   25.4893 C   0  0  0  0  0  0  0  0  0  0  0  0
    8.9447  -15.1502   25.6475 C   0  0  2  0  0  0  0  0  0  0  0  0
    9.2119  -15.8730   24.3897 N   0  0  0  0  0  0  0  0  0  0  0  0
    8.9283  -16.0789   26.7765 C   0  0  0  0  0  0  0  0  0  0  0  0
    8.7731  -17.4558   26.5356 O   0  0  0  0  0  0  0  0  0  0  0  0
    9.0459  -15.7177   27.9593 O   0  0  0  0  0  0  0  0  0  0  0  0
  2  1  1  1
  3  2  1  0
  4  5  1  1
  4  6  1  0
  4  2  1  0
  6  7  2  0
  9  8  1  0
 10  9  1  0
 11 10  1  0
 12 11  1  1
 12 14  1  0
 13  6  1  0
 13 12  1  0
 14 21  1  0
 14 15  2  0
 17 16  1  6
 17 19  1  0
 18 17  1  0
 20 19  1  6
 20 22  1  0
 21 20  1  0
 22 24  2  0
 22 23  1  0
M  END
$$$$
