VML.pdb
     RDKit          3D

 24 23  0  0  1  0  0  0  0  0999 V2000
    7.1501  -13.2171   20.0333 C   0  0  0  0  0  0  0  0  0  0  0  0
    8.4017  -14.0099   19.7252 C   0  0  2  0  0  0  0  0  0  0  0  0
    8.8444  -13.6703   18.3257 C   0  0  0  0  0  0  0  0  0  0  0  0
    8.1066  -15.4968   19.8856 C   0  0  2  0  0  0  0  0  0  0  0  0
    7.3230  -15.9000   18.7609 N   0  0  0  0  0  0  0  0  0  0  0  0
    7.4622  -15.7833   21.1817 C   0  0  0  0  0  0  0  0  0  0  0  0
    6.2392  -15.5291   21.3205 O   0  0  0  0  0  0  0  0  0  0  0  0
    7.3055  -20.7407   25.1728 C   0  0  0  0  0  0  0  0  0  0  0  0
    6.5621  -20.5450   23.5186 S   0  0  0  0  0  0  0  0  0  0  0  0
    6.5554  -18.7829   23.0228 C   0  0  0  0  0  0  0  0  0  0  0  0
    7.5256  -18.0143   23.8685 C   0  0  0  0  0  0  0  0  0  0  0  0
    7.4487  -16.5321   23.5638 C   0  0  2  0  0  0  0  0  0  0  0  0
    8.1585  -16.3286   22.2682 N   0  0  0  0  0  0  0  0  0  0  0  0
    8.1970  -15.7415   24.5436 C   0  0  0  0  0  0  0  0  0  0  0  0
    9.4732  -15.6420   24.4865 O   0  0  0  0  0  0  0  0  0  0  0  0
    7.6538  -11.6957   25.5598 C   0  0  0  0  0  0  0  0  0  0  0  0
    6.7153  -12.5661   26.4273 C   0  0  2  0  0  0  0  0  0  0  0  0
    5.8456  -11.6176   27.2259 C   0  0  0  0  0  0  0  0  0  0  0  0
    7.6347  -13.3170   27.3525 C   0  0  0  0  0  0  0  0  0  0  0  0
    8.4549  -14.3127   26.6108 C   0  0  2  0  0  0  0  0  0  0  0  0
    7.6097  -15.0163   25.6278 N   0  0  0  0  0  0  0  0  0  0  0  0
    9.1857  -15.2732   27.4360 C   0  0  0  0  0  0  0  0  0  0  0  0
    8.9047  -16.6455   27.3108 O   0  0  0  0  0  0  0  0  0  0  0  0
   10.0576  -14.9433   28.2572 O   0  0  0  0  0  0  0  0  0  0  0  0
  2  1  1  6
  3  2  1  0
  4  5  1  6
  4  6  1  0
  4  2  1  0
  6  7  2  0
  9  8  1  0
 10  9  1  0
 11 10  1  0
 12 11  1  1
 12 14  1  0
 13  6  1  0
 13 12  1  0
 14 21  1  0
 14 15  2  0
 17 16  1  6
 17 19  1  0
 18 17  1  0
 20 19  1  1
 20 22  1  0
 21 20  1  0
 22 24  2  0
 22 23  1  0
M  END
$$$$
