VML.pdb
     RDKit          3D

 24 23  0  0  1  0  0  0  0  0999 V2000
    6.8138  -15.7387   19.7746 C   0  0  0  0  0  0  0  0  0  0  0  0
    8.1727  -15.3512   19.2330 C   0  0  2  0  0  0  0  0  0  0  0  0
    8.3638  -16.0327   17.9029 C   0  0  0  0  0  0  0  0  0  0  0  0
    9.2465  -15.7507   20.2385 C   0  0  2  0  0  0  0  0  0  0  0  0
    9.3185  -17.1777   20.2417 N   0  0  0  0  0  0  0  0  0  0  0  0
    8.9809  -15.1743   21.5706 C   0  0  0  0  0  0  0  0  0  0  0  0
    8.9238  -13.9245   21.6904 O   0  0  0  0  0  0  0  0  0  0  0  0
    6.4380  -12.0945   26.8719 C   0  0  0  0  0  0  0  0  0  0  0  0
    7.1401  -13.0371   25.4769 S   0  0  0  0  0  0  0  0  0  0  0  0
    6.7106  -14.8107   25.6204 C   0  0  0  0  0  0  0  0  0  0  0  0
    7.0859  -15.5272   24.3584 C   0  0  0  0  0  0  0  0  0  0  0  0
    8.5472  -15.3030   24.0263 C   0  0  2  0  0  0  0  0  0  0  0  0
    8.7890  -15.9641   22.7117 N   0  0  0  0  0  0  0  0  0  0  0  0
    9.4265  -15.9919   24.9736 C   0  0  0  0  0  0  0  0  0  0  0  0
    9.9933  -17.1009   24.6731 O   0  0  0  0  0  0  0  0  0  0  0  0
   11.5041  -13.5390   27.4785 C   0  0  0  0  0  0  0  0  0  0  0  0
   10.4012  -14.1440   28.3775 C   0  0  2  0  0  0  0  0  0  0  0  0
   10.5258  -13.4839   29.7349 C   0  0  0  0  0  0  0  0  0  0  0  0
   10.7520  -15.6037   28.4856 C   0  0  0  0  0  0  0  0  0  0  0  0
   10.6430  -16.2862   27.1679 C   0  0  2  0  0  0  0  0  0  0  0  0
    9.7423  -15.5196   26.2864 N   0  0  0  0  0  0  0  0  0  0  0  0
   10.2398  -17.6908   27.2126 C   0  0  0  0  0  0  0  0  0  0  0  0
    8.8738  -18.0193   27.1484 O   0  0  0  0  0  0  0  0  0  0  0  0
   11.0474  -18.6302   27.3054 O   0  0  0  0  0  0  0  0  0  0  0  0
  2  1  1  1
  3  2  1  0
  4  5  1  1
  4  6  1  0
  4  2  1  0
  6  7  2  0
  9  8  1  0
 10  9  1  0
 11 10  1  0
 12 11  1  1
 12 14  1  0
 13  6  1  0
 13 12  1  0
 14 21  1  0
 14 15  2  0
 17 16  1  6
 17 19  1  0
 18 17  1  0
 20 19  1  1
 20 22  1  0
 21 20  1  0
 22 24  2  0
 22 23  1  0
M  END
$$$$
