VML.pdb
     RDKit          3D

 24 23  0  0  1  0  0  0  0  0999 V2000
    6.2551  -18.1211   25.8131 C   0  0  0  0  0  0  0  0  0  0  0  0
    6.7002  -19.3942   25.1266 C   0  0  2  0  0  0  0  0  0  0  0  0
    8.0890  -19.7291   25.6052 C   0  0  0  0  0  0  0  0  0  0  0  0
    6.6497  -19.1943   23.6162 C   0  0  2  0  0  0  0  0  0  0  0  0
    6.8095  -20.4783   23.0102 N   0  0  0  0  0  0  0  0  0  0  0  0
    7.6497  -18.2061   23.1680 C   0  0  0  0  0  0  0  0  0  0  0  0
    8.8581  -18.5472   23.1148 O   0  0  0  0  0  0  0  0  0  0  0  0
    6.1227  -13.0320   19.8187 C   0  0  0  0  0  0  0  0  0  0  0  0
    7.9278  -12.7698   19.8315 S   0  0  0  0  0  0  0  0  0  0  0  0
    8.7370  -13.9341   20.9892 C   0  0  0  0  0  0  0  0  0  0  0  0
    7.7178  -14.8752   21.5570 C   0  0  0  0  0  0  0  0  0  0  0  0
    8.3835  -15.9482   22.3946 C   0  0  2  0  0  0  0  0  0  0  0  0
    7.3077  -16.8989   22.7978 N   0  0  0  0  0  0  0  0  0  0  0  0
    8.9089  -15.4036   23.6486 C   0  0  0  0  0  0  0  0  0  0  0  0
   10.0249  -14.7754   23.6879 O   0  0  0  0  0  0  0  0  0  0  0  0
    7.5970  -12.0447   25.8428 C   0  0  0  0  0  0  0  0  0  0  0  0
    6.8136  -13.3647   26.0288 C   0  0  2  0  0  0  0  0  0  0  0  0
    5.5422  -13.0224   26.7773 C   0  0  0  0  0  0  0  0  0  0  0  0
    7.7008  -14.2189   26.8939 C   0  0  0  0  0  0  0  0  0  0  0  0
    8.8091  -14.8216   26.1047 C   0  0  2  0  0  0  0  0  0  0  0  0
    8.2581  -15.5036   24.9185 N   0  0  0  0  0  0  0  0  0  0  0  0
    9.6980  -15.7181   26.8420 C   0  0  0  0  0  0  0  0  0  0  0  0
   10.4762  -15.2059   27.8956 O   0  0  0  0  0  0  0  0  0  0  0  0
    9.8092  -16.9293   26.5889 O   0  0  0  0  0  0  0  0  0  0  0  0
  2  1  1  1
  3  2  1  0
  4  5  1  6
  4  6  1  0
  4  2  1  0
  6  7  2  0
  9  8  1  0
 10  9  1  0
 11 10  1  0
 12 11  1  6
 12 14  1  0
 13  6  1  0
 13 12  1  0
 14 21  1  0
 14 15  2  0
 17 16  1  1
 17 19  1  0
 18 17  1  0
 20 19  1  1
 20 22  1  0
 21 20  1  0
 22 24  2  0
 22 23  1  0
M  END
$$$$
