VML.pdb
     RDKit          3D

 24 23  0  0  1  0  0  0  0  0999 V2000
    7.9576  -19.8272   19.8108 C   0  0  0  0  0  0  0  0  0  0  0  0
    8.6639  -18.5537   20.2225 C   0  0  2  0  0  0  0  0  0  0  0  0
   10.0466  -18.5648   19.6239 C   0  0  0  0  0  0  0  0  0  0  0  0
    8.7013  -18.4696   21.7440 C   0  0  2  0  0  0  0  0  0  0  0  0
    7.4208  -18.8817   22.2258 N   0  0  0  0  0  0  0  0  0  0  0  0
    9.0938  -17.1227   22.2014 C   0  0  0  0  0  0  0  0  0  0  0  0
   10.2126  -16.6667   21.8554 O   0  0  0  0  0  0  0  0  0  0  0  0
    5.4573  -13.2619   26.1834 C   0  0  0  0  0  0  0  0  0  0  0  0
    6.4267  -12.0708   25.1991 S   0  0  0  0  0  0  0  0  0  0  0  0
    7.8937  -12.8862   24.4684 C   0  0  0  0  0  0  0  0  0  0  0  0
    7.5216  -14.2517   23.9744 C   0  0  0  0  0  0  0  0  0  0  0  0
    8.7321  -14.9693   23.4127 C   0  0  2  0  0  0  0  0  0  0  0  0
    8.2690  -16.3279   23.0081 N   0  0  0  0  0  0  0  0  0  0  0  0
    9.7486  -15.1974   24.4422 C   0  0  0  0  0  0  0  0  0  0  0  0
   10.6744  -14.3408   24.6676 O   0  0  0  0  0  0  0  0  0  0  0  0
    9.4738  -14.6542   29.7579 C   0  0  0  0  0  0  0  0  0  0  0  0
   10.5062  -15.0827   28.6896 C   0  0  2  0  0  0  0  0  0  0  0  0
   11.1070  -13.8139   28.1215 C   0  0  0  0  0  0  0  0  0  0  0  0
    9.6957  -15.7818   27.6315 C   0  0  0  0  0  0  0  0  0  0  0  0
   10.5653  -16.3220   26.5516 C   0  0  2  0  0  0  0  0  0  0  0  0
    9.8156  -16.3537   25.2817 N   0  0  0  0  0  0  0  0  0  0  0  0
   11.1727  -17.6249   26.8185 C   0  0  0  0  0  0  0  0  0  0  0  0
   10.9307  -18.6931   25.9365 O   0  0  0  0  0  0  0  0  0  0  0  0
   11.9045  -17.8492   27.7970 O   0  0  0  0  0  0  0  0  0  0  0  0
  2  1  1  1
  3  2  1  0
  4  5  1  1
  4  6  1  0
  4  2  1  0
  6  7  2  0
  9  8  1  0
 10  9  1  0
 11 10  1  0
 12 11  1  1
 12 14  1  0
 13  6  1  0
 13 12  1  0
 14 21  1  0
 14 15  2  0
 17 16  1  1
 17 19  1  0
 18 17  1  0
 20 19  1  1
 20 22  1  0
 21 20  1  0
 22 24  2  0
 22 23  1  0
M  END
$$$$
