VML.pdb
     RDKit          3D

 24 23  0  0  1  0  0  0  0  0999 V2000
    6.9501  -15.2758   19.5842 C   0  0  0  0  0  0  0  0  0  0  0  0
    8.1629  -16.0387   19.0971 C   0  0  2  0  0  0  0  0  0  0  0  0
    7.7347  -16.9345   17.9638 C   0  0  0  0  0  0  0  0  0  0  0  0
    8.7576  -16.8298   20.2565 C   0  0  2  0  0  0  0  0  0  0  0  0
    7.8105  -17.8375   20.6157 N   0  0  0  0  0  0  0  0  0  0  0  0
    9.1284  -15.9471   21.3792 C   0  0  0  0  0  0  0  0  0  0  0  0
   10.0051  -15.0658   21.1940 O   0  0  0  0  0  0  0  0  0  0  0  0
    6.5079  -12.8486   26.5658 C   0  0  0  0  0  0  0  0  0  0  0  0
    6.2072  -12.4627   24.8085 S   0  0  0  0  0  0  0  0  0  0  0  0
    7.3704  -13.3882   23.7403 C   0  0  0  0  0  0  0  0  0  0  0  0
    7.8468  -14.6170   24.4545 C   0  0  0  0  0  0  0  0  0  0  0  0
    9.0595  -15.2057   23.7626 C   0  0  2  0  0  0  0  0  0  0  0  0
    8.5425  -16.0502   22.6476 N   0  0  0  0  0  0  0  0  0  0  0  0
    9.7863  -16.1258   24.6403 C   0  0  0  0  0  0  0  0  0  0  0  0
    9.3576  -17.3120   24.8657 O   0  0  0  0  0  0  0  0  0  0  0  0
    9.0754  -15.0781   29.4232 C   0  0  0  0  0  0  0  0  0  0  0  0
   10.5233  -14.8627   28.9253 C   0  0  2  0  0  0  0  0  0  0  0  0
   10.9806  -13.5225   29.4624 C   0  0  0  0  0  0  0  0  0  0  0  0
   10.4081  -14.7992   27.4260 C   0  0  0  0  0  0  0  0  0  0  0  0
   11.1166  -15.9369   26.7794 C   0  0  2  0  0  0  0  0  0  0  0  0
   11.0104  -15.8171   25.3131 N   0  0  0  0  0  0  0  0  0  0  0  0
   10.7038  -17.2704   27.2139 C   0  0  0  0  0  0  0  0  0  0  0  0
    9.4034  -17.7198   26.9224 O   0  0  0  0  0  0  0  0  0  0  0  0
   11.4477  -18.0460   27.8372 O   0  0  0  0  0  0  0  0  0  0  0  0
  2  1  1  1
  3  2  1  0
  4  5  1  1
  4  6  1  0
  4  2  1  0
  6  7  2  0
  9  8  1  0
 10  9  1  0
 11 10  1  0
 12 11  1  1
 12 14  1  0
 13  6  1  0
 13 12  1  0
 14 21  1  0
 14 15  2  0
 17 16  1  1
 17 19  1  0
 18 17  1  0
 20 19  1  1
 20 22  1  0
 21 20  1  0
 22 24  2  0
 22 23  1  0
M  END
$$$$
