VML.pdb
     RDKit          3D

 24 23  0  0  1  0  0  0  0  0999 V2000
   10.6911  -19.4066   19.6635 C   0  0  0  0  0  0  0  0  0  0  0  0
   10.7052  -18.5702   20.9246 C   0  0  2  0  0  0  0  0  0  0  0  0
    9.9975  -19.3389   22.0101 C   0  0  0  0  0  0  0  0  0  0  0  0
   10.0358  -17.2294   20.6454 C   0  0  2  0  0  0  0  0  0  0  0  0
   10.7345  -16.6220   19.5572 N   0  0  0  0  0  0  0  0  0  0  0  0
    9.9890  -16.3863   21.8555 C   0  0  0  0  0  0  0  0  0  0  0  0
   11.0423  -15.8190   22.2407 O   0  0  0  0  0  0  0  0  0  0  0  0
    6.5493  -12.2928   27.2676 C   0  0  0  0  0  0  0  0  0  0  0  0
    6.1597  -13.5045   25.9610 S   0  0  0  0  0  0  0  0  0  0  0  0
    7.3785  -13.3941   24.5996 C   0  0  0  0  0  0  0  0  0  0  0  0
    7.4036  -14.6834   23.8354 C   0  0  0  0  0  0  0  0  0  0  0  0
    8.8177  -15.2161   23.7246 C   0  0  2  0  0  0  0  0  0  0  0  0
    8.8159  -16.1906   22.5959 N   0  0  0  0  0  0  0  0  0  0  0  0
    9.1943  -15.9939   24.9071 C   0  0  0  0  0  0  0  0  0  0  0  0
    8.8401  -17.2178   25.0417 O   0  0  0  0  0  0  0  0  0  0  0  0
   11.0832  -13.4541   29.3403 C   0  0  0  0  0  0  0  0  0  0  0  0
   10.6185  -14.1297   28.0295 C   0  0  2  0  0  0  0  0  0  0  0  0
    9.1394  -13.8389   27.8826 C   0  0  0  0  0  0  0  0  0  0  0  0
   10.8286  -15.6020   28.2612 C   0  0  0  0  0  0  0  0  0  0  0  0
   10.4429  -16.3991   27.0654 C   0  0  2  0  0  0  0  0  0  0  0  0
    9.9733  -15.4953   25.9984 N   0  0  0  0  0  0  0  0  0  0  0  0
    9.4672  -17.4625   27.2998 C   0  0  0  0  0  0  0  0  0  0  0  0
    9.8638  -18.6244   27.9858 O   0  0  0  0  0  0  0  0  0  0  0  0
    8.2853  -17.3998   26.9223 O   0  0  0  0  0  0  0  0  0  0  0  0
  2  1  1  6
  3  2  1  0
  4  5  1  6
  4  6  1  0
  4  2  1  0
  6  7  2  0
  9  8  1  0
 10  9  1  0
 11 10  1  0
 12 11  1  1
 12 14  1  0
 13  6  1  0
 13 12  1  0
 14 21  1  0
 14 15  2  0
 17 16  1  1
 17 19  1  0
 18 17  1  0
 20 19  1  1
 20 22  1  0
 21 20  1  0
 22 24  2  0
 22 23  1  0
M  END
$$$$
