VML.pdb
     RDKit          3D

 24 23  0  0  1  0  0  0  0  0999 V2000
    6.9652  -14.5205   19.8355 C   0  0  0  0  0  0  0  0  0  0  0  0
    8.3638  -14.9858   19.4927 C   0  0  2  0  0  0  0  0  0  0  0  0
    8.3094  -15.7199   18.1781 C   0  0  0  0  0  0  0  0  0  0  0  0
    8.8892  -15.8692   20.6185 C   0  0  2  0  0  0  0  0  0  0  0  0
    8.1394  -17.0852   20.5919 N   0  0  0  0  0  0  0  0  0  0  0  0
    8.8352  -15.1757   21.9198 C   0  0  0  0  0  0  0  0  0  0  0  0
    9.5409  -14.1498   22.0902 O   0  0  0  0  0  0  0  0  0  0  0  0
    7.0693  -11.3266   25.9194 C   0  0  0  0  0  0  0  0  0  0  0  0
    5.7540  -12.5887   25.8548 S   0  0  0  0  0  0  0  0  0  0  0  0
    6.4557  -14.2601   26.1098 C   0  0  0  0  0  0  0  0  0  0  0  0
    6.5833  -14.9631   24.7920 C   0  0  0  0  0  0  0  0  0  0  0  0
    7.9889  -14.8263   24.2429 C   0  0  2  0  0  0  0  0  0  0  0  0
    8.0276  -15.6141   22.9773 N   0  0  0  0  0  0  0  0  0  0  0  0
    8.9745  -15.4585   25.1227 C   0  0  0  0  0  0  0  0  0  0  0  0
    9.1934  -16.7203   25.0822 O   0  0  0  0  0  0  0  0  0  0  0  0
   11.1083  -14.5544   30.7079 C   0  0  0  0  0  0  0  0  0  0  0  0
   11.3382  -15.4202   29.4476 C   0  0  2  0  0  0  0  0  0  0  0  0
   12.8327  -15.4612   29.2060 C   0  0  0  0  0  0  0  0  0  0  0  0
   10.6619  -14.6653   28.3348 C   0  0  0  0  0  0  0  0  0  0  0  0
   10.5292  -15.5045   27.1133 C   0  0  2  0  0  0  0  0  0  0  0  0
    9.7750  -14.7645   26.0839 N   0  0  0  0  0  0  0  0  0  0  0  0
    9.9497  -16.8315   27.3154 C   0  0  0  0  0  0  0  0  0  0  0  0
    8.5654  -16.9549   27.5308 O   0  0  0  0  0  0  0  0  0  0  0  0
   10.6200  -17.8775   27.3077 O   0  0  0  0  0  0  0  0  0  0  0  0
  2  1  1  1
  3  2  1  0
  4  5  1  1
  4  6  1  0
  4  2  1  0
  6  7  2  0
  9  8  1  0
 10  9  1  0
 11 10  1  0
 12 11  1  1
 12 14  1  0
 13  6  1  0
 13 12  1  0
 14 21  1  0
 14 15  2  0
 17 16  1  1
 17 19  1  0
 18 17  1  0
 20 19  1  1
 20 22  1  0
 21 20  1  0
 22 24  2  0
 22 23  1  0
M  END
$$$$
