VML.pdb
     RDKit          3D

 24 23  0  0  1  0  0  0  0  0999 V2000
    9.2966  -17.1443   18.3065 C   0  0  0  0  0  0  0  0  0  0  0  0
    9.3002  -16.2122   19.4986 C   0  0  2  0  0  0  0  0  0  0  0  0
   10.5026  -15.3107   19.3906 C   0  0  0  0  0  0  0  0  0  0  0  0
    9.3182  -17.0365   20.7807 C   0  0  2  0  0  0  0  0  0  0  0  0
    8.1617  -17.8755   20.7648 N   0  0  0  0  0  0  0  0  0  0  0  0
    9.4011  -16.1753   21.9760 C   0  0  0  0  0  0  0  0  0  0  0  0
   10.4166  -15.4517   22.1330 O   0  0  0  0  0  0  0  0  0  0  0  0
    5.7548  -11.4693   25.4122 C   0  0  0  0  0  0  0  0  0  0  0  0
    5.6849  -13.1473   26.1241 S   0  0  0  0  0  0  0  0  0  0  0  0
    7.2657  -14.0279   25.8475 C   0  0  0  0  0  0  0  0  0  0  0  0
    7.2073  -14.7801   24.5522 C   0  0  0  0  0  0  0  0  0  0  0  0
    8.5816  -15.2829   24.1594 C   0  0  2  0  0  0  0  0  0  0  0  0
    8.3920  -16.1300   22.9468 N   0  0  0  0  0  0  0  0  0  0  0  0
    9.1374  -16.1799   25.1752 C   0  0  0  0  0  0  0  0  0  0  0  0
    9.0451  -17.4530   25.0641 O   0  0  0  0  0  0  0  0  0  0  0  0
   10.8343  -13.7607   27.6410 C   0  0  0  0  0  0  0  0  0  0  0  0
   10.2944  -14.7617   28.6884 C   0  0  2  0  0  0  0  0  0  0  0  0
   10.6666  -14.2182   30.0522 C   0  0  0  0  0  0  0  0  0  0  0  0
   11.0482  -16.0374   28.4244 C   0  0  0  0  0  0  0  0  0  0  0  0
   10.5462  -16.7201   27.2012 C   0  0  2  0  0  0  0  0  0  0  0  0
    9.8230  -15.7519   26.3554 N   0  0  0  0  0  0  0  0  0  0  0  0
    9.7275  -17.9097   27.4297 C   0  0  0  0  0  0  0  0  0  0  0  0
   10.3312  -19.0780   27.9281 O   0  0  0  0  0  0  0  0  0  0  0  0
    8.5062  -17.9511   27.2060 O   0  0  0  0  0  0  0  0  0  0  0  0
  2  1  1  6
  3  2  1  0
  4  5  1  1
  4  6  1  0
  4  2  1  0
  6  7  2  0
  9  8  1  0
 10  9  1  0
 11 10  1  0
 12 11  1  1
 12 14  1  0
 13  6  1  0
 13 12  1  0
 14 21  1  0
 14 15  2  0
 17 16  1  6
 17 19  1  0
 18 17  1  0
 20 19  1  1
 20 22  1  0
 21 20  1  0
 22 24  2  0
 22 23  1  0
M  END
$$$$
