VML.pdb
     RDKit          3D

 24 23  0  0  1  0  0  0  0  0999 V2000
    7.1971  -19.6356   19.8163 C   0  0  0  0  0  0  0  0  0  0  0  0
    7.7633  -20.5026   20.9199 C   0  0  2  0  0  0  0  0  0  0  0  0
    6.8315  -21.6675   21.1316 C   0  0  0  0  0  0  0  0  0  0  0  0
    7.9260  -19.6650   22.1831 C   0  0  2  0  0  0  0  0  0  0  0  0
    6.6178  -19.4128   22.6994 N   0  0  0  0  0  0  0  0  0  0  0  0
    8.6995  -18.4361   21.9209 C   0  0  0  0  0  0  0  0  0  0  0  0
    9.8779  -18.5399   21.4967 O   0  0  0  0  0  0  0  0  0  0  0  0
    6.7864  -11.9031   20.9684 C   0  0  0  0  0  0  0  0  0  0  0  0
    8.1214  -12.5324   19.8963 S   0  0  0  0  0  0  0  0  0  0  0  0
    9.1251  -13.7781   20.7860 C   0  0  0  0  0  0  0  0  0  0  0  0
    8.2678  -14.9512   21.1543 C   0  0  0  0  0  0  0  0  0  0  0  0
    9.0585  -15.9652   21.9558 C   0  0  2  0  0  0  0  0  0  0  0  0
    8.1738  -17.1537   22.1256 N   0  0  0  0  0  0  0  0  0  0  0  0
    9.3283  -15.4863   23.3134 C   0  0  0  0  0  0  0  0  0  0  0  0
   10.2857  -14.6700   23.5553 O   0  0  0  0  0  0  0  0  0  0  0  0
    7.6860  -12.4272   25.8291 C   0  0  0  0  0  0  0  0  0  0  0  0
    6.8959  -13.7255   25.5442 C   0  0  2  0  0  0  0  0  0  0  0  0
    5.4810  -13.4984   26.0342 C   0  0  0  0  0  0  0  0  0  0  0  0
    7.5661  -14.7756   26.3888 C   0  0  0  0  0  0  0  0  0  0  0  0
    8.8472  -15.2247   25.7794 C   0  0  2  0  0  0  0  0  0  0  0  0
    8.5794  -15.8576   24.4742 N   0  0  0  0  0  0  0  0  0  0  0  0
    9.6728  -16.0991   26.6109 C   0  0  0  0  0  0  0  0  0  0  0  0
   10.1016  -17.3363   26.0980 O   0  0  0  0  0  0  0  0  0  0  0  0
   10.0257  -15.8087   27.7661 O   0  0  0  0  0  0  0  0  0  0  0  0
  2  1  1  6
  3  2  1  0
  4  5  1  6
  4  6  1  0
  4  2  1  0
  6  7  2  0
  9  8  1  0
 10  9  1  0
 11 10  1  0
 12 11  1  6
 12 14  1  0
 13  6  1  0
 13 12  1  0
 14 21  1  0
 14 15  2  0
 17 16  1  1
 17 19  1  0
 18 17  1  0
 20 19  1  1
 20 22  1  0
 21 20  1  0
 22 24  2  0
 22 23  1  0
M  END
$$$$
