VML.pdb
     RDKit          3D

 24 23  0  0  1  0  0  0  0  0999 V2000
    7.8445  -12.9450   18.6057 C   0  0  0  0  0  0  0  0  0  0  0  0
    7.3361  -13.5849   19.8793 C   0  0  2  0  0  0  0  0  0  0  0  0
    7.7756  -12.7357   21.0437 C   0  0  0  0  0  0  0  0  0  0  0  0
    7.8738  -15.0080   19.9757 C   0  0  2  0  0  0  0  0  0  0  0  0
    7.3746  -15.7301   18.8483 N   0  0  0  0  0  0  0  0  0  0  0  0
    7.5297  -15.6295   21.2689 C   0  0  0  0  0  0  0  0  0  0  0  0
    6.3240  -15.8807   21.5196 O   0  0  0  0  0  0  0  0  0  0  0  0
    7.3268  -19.8544   25.8350 C   0  0  0  0  0  0  0  0  0  0  0  0
    6.4164  -19.4644   24.3033 S   0  0  0  0  0  0  0  0  0  0  0  0
    7.5665  -18.8796   23.0047 C   0  0  0  0  0  0  0  0  0  0  0  0
    8.5658  -17.9344   23.6005 C   0  0  0  0  0  0  0  0  0  0  0  0
    8.0568  -16.5083   23.5460 C   0  0  2  0  0  0  0  0  0  0  0  0
    8.4936  -15.9526   22.2329 N   0  0  0  0  0  0  0  0  0  0  0  0
    8.7025  -15.6672   24.5564 C   0  0  0  0  0  0  0  0  0  0  0  0
    9.9581  -15.4159   24.5125 O   0  0  0  0  0  0  0  0  0  0  0  0
    8.3297  -11.6728   25.5224 C   0  0  0  0  0  0  0  0  0  0  0  0
    7.2104  -12.4699   26.2312 C   0  0  2  0  0  0  0  0  0  0  0  0
    6.2897  -11.4576   26.8802 C   0  0  0  0  0  0  0  0  0  0  0  0
    7.9201  -13.2679   27.2917 C   0  0  0  0  0  0  0  0  0  0  0  0
    8.7855  -14.3188   26.6909 C   0  0  2  0  0  0  0  0  0  0  0  0
    8.0291  -15.0522   25.6585 N   0  0  0  0  0  0  0  0  0  0  0  0
    9.3978  -15.2523   27.6349 C   0  0  0  0  0  0  0  0  0  0  0  0
    9.0489  -16.6137   27.5842 O   0  0  0  0  0  0  0  0  0  0  0  0
   10.2246  -14.9083   28.4960 O   0  0  0  0  0  0  0  0  0  0  0  0
  2  1  1  6
  3  2  1  0
  4  5  1  6
  4  6  1  0
  4  2  1  0
  6  7  2  0
  9  8  1  0
 10  9  1  0
 11 10  1  0
 12 11  1  1
 12 14  1  0
 13  6  1  0
 13 12  1  0
 14 21  1  0
 14 15  2  0
 17 16  1  1
 17 19  1  0
 18 17  1  0
 20 19  1  1
 20 22  1  0
 21 20  1  0
 22 24  2  0
 22 23  1  0
M  END
$$$$
