VIR.pdb
     RDKit          3D

 27 26  0  0  1  0  0  0  0  0999 V2000
   10.8733  -14.1065   28.4507 C   0  0  0  0  0  0  0  0  0  0  0  0
   10.7329  -15.5545   28.7760 C   0  0  1  0  0  0  0  0  0  0  0  0
   11.1599  -15.7418   30.2270 C   0  0  0  0  0  0  0  0  0  0  0  0
    9.3508  -16.1113   28.6518 C   0  0  2  0  0  0  0  0  0  0  0  0
    9.4408  -17.5151   29.0775 N   0  0  0  0  0  0  0  0  0  0  0  0
    8.7953  -16.1048   27.2888 C   0  0  0  0  0  0  0  0  0  0  0  0
    8.8654  -17.1602   26.6092 O   0  0  0  0  0  0  0  0  0  0  0  0
    6.0215  -11.7889   26.1142 C   0  0  0  0  0  0  0  0  0  0  0  0
    5.9873  -13.2464   25.7019 C   0  0  0  0  0  0  0  0  0  0  0  0
    7.2475  -13.5287   24.9232 C   0  0  2  0  0  0  0  0  0  0  0  0
    6.9405  -13.4320   23.4423 C   0  0  0  0  0  0  0  0  0  0  0  0
    7.8406  -14.8790   25.2799 C   0  0  2  0  0  0  0  0  0  0  0  0
    8.1754  -14.9771   26.6746 N   0  0  0  0  0  0  0  0  0  0  0  0
    9.0535  -15.0456   24.4126 C   0  0  0  0  0  0  0  0  0  0  0  0
    9.9587  -14.1806   24.5078 O   0  0  0  0  0  0  0  0  0  0  0  0
   10.9228  -21.3380   24.5531 N   0  0  0  0  0  0  0  0  0  0  0  0
   11.7094  -20.4239   25.3036 C   0  0  0  0  0  0  0  0  0  0  0  0
   11.5157  -20.3145   26.5606 N   0  0  0  0  0  0  0  0  0  0  0  0
   12.6972  -19.6529   24.6220 N   0  0  0  0  0  0  0  0  0  0  0  0
   12.2699  -18.9827   23.3969 C   0  0  0  0  0  0  0  0  0  0  0  0
   10.8645  -18.5044   23.5426 C   0  0  0  0  0  0  0  0  0  0  0  0
   10.4456  -17.7580   22.3219 C   0  0  0  0  0  0  0  0  0  0  0  0
   10.3606  -16.2841   22.6242 C   0  0  2  0  0  0  0  0  0  0  0  0
    9.2081  -16.1092   23.5196 N   0  0  0  0  0  0  0  0  0  0  0  0
   10.0760  -15.6176   21.3118 C   0  0  0  0  0  0  0  0  0  0  0  0
   11.1219  -15.2397   20.4852 O   0  0  0  0  0  0  0  0  0  0  0  0
    8.9057  -15.3863   20.9297 O   0  0  0  0  0  0  0  0  0  0  0  0
  2  4  1  0
  2  1  1  1
  3  2  1  0
  4  5  1  6
  6  4  1  0
  7  6  2  0
  9  8  1  0
 10  9  1  0
 10 11  1  6
 12 10  1  0
 12 13  1  1
 13  6  1  0
 14 15  2  0
 14 12  1  0
 16 17  1  0
 17 18  2  0
 19 17  1  0
 20 19  1  0
 21 20  1  0
 21 22  1  0
 23 22  1  6
 23 24  1  0
 24 14  1  0
 25 26  1  0
 25 23  1  0
 27 25  2  0
M  END
$$$$
