VIR.pdb
     RDKit          3D

 27 26  0  0  1  0  0  0  0  0999 V2000
    7.0337  -18.3942   21.0109 C   0  0  0  0  0  0  0  0  0  0  0  0
    7.6518  -17.5197   22.0480 C   0  0  1  0  0  0  0  0  0  0  0  0
    8.9744  -18.1576   22.4563 C   0  0  0  0  0  0  0  0  0  0  0  0
    7.9565  -16.1219   21.6133 C   0  0  2  0  0  0  0  0  0  0  0  0
    8.9494  -16.2410   20.5363 N   0  0  0  0  0  0  0  0  0  0  0  0
    8.5425  -15.2590   22.6518 C   0  0  0  0  0  0  0  0  0  0  0  0
    9.7854  -15.0692   22.6406 O   0  0  0  0  0  0  0  0  0  0  0  0
    6.7602  -11.1284   26.9551 C   0  0  0  0  0  0  0  0  0  0  0  0
    7.8959  -11.9192   26.3384 C   0  0  0  0  0  0  0  0  0  0  0  0
    7.2921  -12.8969   25.3620 C   0  0  2  0  0  0  0  0  0  0  0  0
    6.2861  -13.7623   26.0940 C   0  0  0  0  0  0  0  0  0  0  0  0
    8.3529  -13.7380   24.6768 C   0  0  2  0  0  0  0  0  0  0  0  0
    7.7965  -14.6139   23.6816 N   0  0  0  0  0  0  0  0  0  0  0  0
    9.0406  -14.5107   25.7634 C   0  0  0  0  0  0  0  0  0  0  0  0
    9.5780  -13.8563   26.6905 O   0  0  0  0  0  0  0  0  0  0  0  0
   11.0421  -21.1430   30.0136 N   0  0  0  0  0  0  0  0  0  0  0  0
   10.9603  -21.8391   28.7782 C   0  0  0  0  0  0  0  0  0  0  0  0
   11.6988  -22.8622   28.5845 N   0  0  0  0  0  0  0  0  0  0  0  0
   10.0484  -21.3678   27.7877 N   0  0  0  0  0  0  0  0  0  0  0  0
   10.5637  -20.3781   26.8456 C   0  0  0  0  0  0  0  0  0  0  0  0
   10.3706  -19.0046   27.3947 C   0  0  0  0  0  0  0  0  0  0  0  0
    9.7170  -18.1312   26.3786 C   0  0  0  0  0  0  0  0  0  0  0  0
    9.7212  -16.7003   26.8514 C   0  0  2  0  0  0  0  0  0  0  0  0
    9.1031  -15.9066   25.7796 N   0  0  0  0  0  0  0  0  0  0  0  0
   11.1658  -16.3211   26.9807 C   0  0  0  0  0  0  0  0  0  0  0  0
   11.7816  -16.3500   28.2217 O   0  0  0  0  0  0  0  0  0  0  0  0
   11.8477  -15.9729   25.9892 O   0  0  0  0  0  0  0  0  0  0  0  0
  2  4  1  0
  2  1  1  6
  3  2  1  0
  4  5  1  6
  6  4  1  0
  7  6  2  0
  9  8  1  0
 10  9  1  0
 10 11  1  1
 12 10  1  0
 12 13  1  6
 13  6  1  0
 14 15  2  0
 14 12  1  0
 16 17  1  0
 17 18  2  0
 19 17  1  0
 20 19  1  0
 21 20  1  0
 21 22  1  0
 23 22  1  6
 23 24  1  0
 24 14  1  0
 25 26  1  0
 25 23  1  0
 27 25  2  0
M  END
$$$$
