VIR.pdb
     RDKit          3D

 27 26  0  0  1  0  0  0  0  0999 V2000
    6.1566  -15.6736   19.0148 C   0  0  0  0  0  0  0  0  0  0  0  0
    6.8553  -15.4921   20.3191 C   0  0  1  0  0  0  0  0  0  0  0  0
    8.2454  -16.1017   20.1831 C   0  0  0  0  0  0  0  0  0  0  0  0
    7.0407  -14.0749   20.7586 C   0  0  2  0  0  0  0  0  0  0  0  0
    7.8295  -13.4244   19.7030 N   0  0  0  0  0  0  0  0  0  0  0  0
    7.7784  -13.9043   22.0208 C   0  0  0  0  0  0  0  0  0  0  0  0
    9.0296  -13.7908   21.9716 O   0  0  0  0  0  0  0  0  0  0  0  0
    5.2673  -11.8423   26.4524 C   0  0  0  0  0  0  0  0  0  0  0  0
    6.4178  -12.0131   25.4815 C   0  0  0  0  0  0  0  0  0  0  0  0
    7.0097  -13.3806   25.7133 C   0  0  2  0  0  0  0  0  0  0  0  0
    7.7785  -13.3667   27.0191 C   0  0  0  0  0  0  0  0  0  0  0  0
    7.8886  -13.8185   24.5566 C   0  0  2  0  0  0  0  0  0  0  0  0
    7.1723  -13.8567   23.3105 N   0  0  0  0  0  0  0  0  0  0  0  0
    8.4204  -15.1723   24.9242 C   0  0  0  0  0  0  0  0  0  0  0  0
    7.5881  -16.0547   25.2489 O   0  0  0  0  0  0  0  0  0  0  0  0
   14.4984  -19.6862   21.5559 N   0  0  0  0  0  0  0  0  0  0  0  0
   14.3992  -20.4427   22.7540 C   0  0  0  0  0  0  0  0  0  0  0  0
   14.9477  -21.5937   22.8164 N   0  0  0  0  0  0  0  0  0  0  0  0
   13.6843  -19.8863   23.8559 N   0  0  0  0  0  0  0  0  0  0  0  0
   13.0912  -18.5679   23.6491 C   0  0  0  0  0  0  0  0  0  0  0  0
   12.3981  -18.1216   24.8923 C   0  0  0  0  0  0  0  0  0  0  0  0
   11.7597  -16.7917   24.6766 C   0  0  0  0  0  0  0  0  0  0  0  0
   10.3364  -16.8182   25.1712 C   0  0  2  0  0  0  0  0  0  0  0  0
    9.7835  -15.4799   24.9182 N   0  0  0  0  0  0  0  0  0  0  0  0
   10.4262  -17.0474   26.6501 C   0  0  0  0  0  0  0  0  0  0  0  0
   10.4544  -18.3391   27.1508 O   0  0  0  0  0  0  0  0  0  0  0  0
   10.4774  -16.0958   27.4631 O   0  0  0  0  0  0  0  0  0  0  0  0
  2  4  1  0
  2  1  1  6
  3  2  1  0
  4  5  1  6
  6  4  1  0
  7  6  2  0
  9  8  1  0
 10  9  1  0
 10 11  1  1
 12 10  1  0
 12 13  1  6
 13  6  1  0
 14 15  2  0
 14 12  1  0
 16 17  1  0
 17 18  2  0
 19 17  1  0
 20 19  1  0
 21 20  1  0
 21 22  1  0
 23 22  1  1
 23 24  1  0
 24 14  1  0
 25 26  1  0
 25 23  1  0
 27 25  2  0
M  END
$$$$
