VIR.pdb
     RDKit          3D

 27 26  0  0  1  0  0  0  0  0999 V2000
    7.1062  -15.8776   19.5231 C   0  0  0  0  0  0  0  0  0  0  0  0
    7.8127  -15.1315   20.6031 C   0  0  1  0  0  0  0  0  0  0  0  0
    6.8314  -14.1156   21.1757 C   0  0  0  0  0  0  0  0  0  0  0  0
    8.2992  -15.9621   21.7474 C   0  0  2  0  0  0  0  0  0  0  0  0
    7.1130  -16.6415   22.2868 N   0  0  0  0  0  0  0  0  0  0  0  0
    8.9078  -15.2053   22.8535 C   0  0  0  0  0  0  0  0  0  0  0  0
   10.1080  -14.8472   22.7442 O   0  0  0  0  0  0  0  0  0  0  0  0
    5.7678  -12.1218   26.3056 C   0  0  0  0  0  0  0  0  0  0  0  0
    6.8617  -12.5325   25.3411 C   0  0  0  0  0  0  0  0  0  0  0  0
    7.7594  -13.5080   26.0598 C   0  0  2  0  0  0  0  0  0  0  0  0
    8.3931  -12.8088   27.2456 C   0  0  0  0  0  0  0  0  0  0  0  0
    8.8099  -14.0946   25.1353 C   0  0  2  0  0  0  0  0  0  0  0  0
    8.2289  -14.8433   24.0540 N   0  0  0  0  0  0  0  0  0  0  0  0
    9.6853  -14.9605   25.9925 C   0  0  0  0  0  0  0  0  0  0  0  0
   10.2995  -14.4091   26.9388 O   0  0  0  0  0  0  0  0  0  0  0  0
   11.0518  -22.2159   29.7604 N   0  0  0  0  0  0  0  0  0  0  0  0
   10.9821  -21.1033   30.6406 C   0  0  0  0  0  0  0  0  0  0  0  0
   10.9543  -21.3016   31.9014 N   0  0  0  0  0  0  0  0  0  0  0  0
   10.9454  -19.7914   30.0817 N   0  0  0  0  0  0  0  0  0  0  0  0
    9.8717  -19.5182   29.1302 C   0  0  0  0  0  0  0  0  0  0  0  0
   10.4276  -19.4263   27.7490 C   0  0  0  0  0  0  0  0  0  0  0  0
    9.6888  -18.3962   26.9643 C   0  0  0  0  0  0  0  0  0  0  0  0
   10.5972  -17.2333   26.6587 C   0  0  2  0  0  0  0  0  0  0  0  0
    9.8382  -16.3329   25.7789 N   0  0  0  0  0  0  0  0  0  0  0  0
   11.7535  -17.8116   25.8996 C   0  0  0  0  0  0  0  0  0  0  0  0
   12.9430  -18.0891   26.5540 O   0  0  0  0  0  0  0  0  0  0  0  0
   11.6810  -18.0569   24.6734 O   0  0  0  0  0  0  0  0  0  0  0  0
  2  4  1  0
  2  1  1  6
  3  2  1  0
  4  5  1  1
  6  4  1  0
  7  6  2  0
  9  8  1  0
 10  9  1  0
 10 11  1  1
 12 10  1  0
 12 13  1  6
 13  6  1  0
 14 15  2  0
 14 12  1  0
 16 17  1  0
 17 18  2  0
 19 17  1  0
 20 19  1  0
 21 20  1  0
 21 22  1  0
 23 22  1  6
 23 24  1  0
 24 14  1  0
 25 26  1  0
 25 23  1  0
 27 25  2  0
M  END
$$$$
