VIR.pdb
     RDKit          3D

 27 26  0  0  1  0  0  0  0  0999 V2000
    6.6152  -17.2283   21.7359 C   0  0  0  0  0  0  0  0  0  0  0  0
    7.3589  -16.4792   20.6832 C   0  0  1  0  0  0  0  0  0  0  0  0
    6.6279  -16.6960   19.3636 C   0  0  0  0  0  0  0  0  0  0  0  0
    7.4560  -15.0017   20.8914 C   0  0  2  0  0  0  0  0  0  0  0  0
    8.2030  -14.4794   19.7385 N   0  0  0  0  0  0  0  0  0  0  0  0
    8.1817  -14.5884   22.1034 C   0  0  0  0  0  0  0  0  0  0  0  0
    9.4279  -14.7517   22.1393 O   0  0  0  0  0  0  0  0  0  0  0  0
    7.4626  -11.4400   27.4155 C   0  0  0  0  0  0  0  0  0  0  0  0
    8.2108  -12.5339   26.6813 C   0  0  0  0  0  0  0  0  0  0  0  0
    7.5011  -12.7707   25.3719 C   0  0  2  0  0  0  0  0  0  0  0  0
    6.0753  -13.1973   25.6576 C   0  0  0  0  0  0  0  0  0  0  0  0
    8.2247  -13.7924   24.5147 C   0  0  2  0  0  0  0  0  0  0  0  0
    7.5694  -14.0090   23.2534 N   0  0  0  0  0  0  0  0  0  0  0  0
    8.2823  -15.0534   25.3255 C   0  0  0  0  0  0  0  0  0  0  0  0
    7.1922  -15.5800   25.6586 O   0  0  0  0  0  0  0  0  0  0  0  0
   10.4763  -19.6500   21.2308 N   0  0  0  0  0  0  0  0  0  0  0  0
   11.7970  -19.2257   21.5356 C   0  0  0  0  0  0  0  0  0  0  0  0
   12.6831  -19.2239   20.6167 N   0  0  0  0  0  0  0  0  0  0  0  0
   12.0911  -18.8125   22.8689 N   0  0  0  0  0  0  0  0  0  0  0  0
   11.0209  -18.9674   23.8503 C   0  0  0  0  0  0  0  0  0  0  0  0
   10.6559  -17.6375   24.4188 C   0  0  0  0  0  0  0  0  0  0  0  0
   10.7248  -17.6776   25.9075 C   0  0  0  0  0  0  0  0  0  0  0  0
    9.5813  -16.8924   26.4966 C   0  0  2  0  0  0  0  0  0  0  0  0
    9.4837  -15.6509   25.7157 N   0  0  0  0  0  0  0  0  0  0  0  0
    9.9954  -16.5655   27.8999 C   0  0  0  0  0  0  0  0  0  0  0  0
   10.3575  -15.2698   28.2317 O   0  0  0  0  0  0  0  0  0  0  0  0
   10.0262  -17.4375   28.7986 O   0  0  0  0  0  0  0  0  0  0  0  0
  2  4  1  0
  2  1  1  1
  3  2  1  0
  4  5  1  6
  6  4  1  0
  7  6  2  0
  9  8  1  0
 10  9  1  0
 10 11  1  1
 12 10  1  0
 12 13  1  6
 13  6  1  0
 14 15  2  0
 14 12  1  0
 16 17  1  0
 17 18  2  0
 19 17  1  0
 20 19  1  0
 21 20  1  0
 21 22  1  0
 23 22  1  6
 23 24  1  0
 24 14  1  0
 25 26  1  0
 25 23  1  0
 27 25  2  0
M  END
$$$$
