VIR.pdb
     RDKit          3D

 27 26  0  0  1  0  0  0  0  0999 V2000
   10.2589  -18.7611   16.1944 C   0  0  0  0  0  0  0  0  0  0  0  0
    9.9215  -17.9354   15.0000 C   0  0  1  0  0  0  0  0  0  0  0  0
    9.2490  -18.8516   13.9846 C   0  0  0  0  0  0  0  0  0  0  0  0
    8.9852  -16.7963   15.2483 C   0  0  2  0  0  0  0  0  0  0  0  0
    8.8633  -16.0867   13.9671 N   0  0  0  0  0  0  0  0  0  0  0  0
    9.4447  -15.8167   16.2462 C   0  0  0  0  0  0  0  0  0  0  0  0
   10.4649  -15.1301   15.9846 O   0  0  0  0  0  0  0  0  0  0  0  0
    6.1988  -12.8670   19.6071 C   0  0  0  0  0  0  0  0  0  0  0  0
    7.3434  -13.2374   18.6862 C   0  0  0  0  0  0  0  0  0  0  0  0
    8.2436  -14.1856   19.4376 C   0  0  2  0  0  0  0  0  0  0  0  0
    8.8237  -13.4635   20.6371 C   0  0  0  0  0  0  0  0  0  0  0  0
    9.3357  -14.7507   18.5487 C   0  0  2  0  0  0  0  0  0  0  0  0
    8.8107  -15.5852   17.5022 N   0  0  0  0  0  0  0  0  0  0  0  0
   10.2551  -15.5186   19.4520 C   0  0  0  0  0  0  0  0  0  0  0  0
    9.8000  -16.5520   20.0013 O   0  0  0  0  0  0  0  0  0  0  0  0
   17.4648  -13.0175   17.6323 N   0  0  0  0  0  0  0  0  0  0  0  0
   17.5662  -13.7268   18.8586 C   0  0  0  0  0  0  0  0  0  0  0  0
   18.6375  -13.6393   19.5473 N   0  0  0  0  0  0  0  0  0  0  0  0
   16.4586  -14.5193   19.2829 N   0  0  0  0  0  0  0  0  0  0  0  0
   15.2664  -14.4771   18.4407 C   0  0  0  0  0  0  0  0  0  0  0  0
   14.2974  -15.5234   18.8783 C   0  0  0  0  0  0  0  0  0  0  0  0
   13.8801  -15.2808   20.2889 C   0  0  0  0  0  0  0  0  0  0  0  0
   12.5213  -15.8845   20.5343 C   0  0  2  0  0  0  0  0  0  0  0  0
   11.5748  -15.1315   19.6989 N   0  0  0  0  0  0  0  0  0  0  0  0
   12.2201  -15.6289   21.9805 C   0  0  0  0  0  0  0  0  0  0  0  0
   12.7458  -16.4613   22.9556 O   0  0  0  0  0  0  0  0  0  0  0  0
   11.4974  -14.6728   22.3447 O   0  0  0  0  0  0  0  0  0  0  0  0
  2  4  1  0
  2  1  1  1
  3  2  1  0
  4  5  1  6
  6  4  1  0
  7  6  2  0
  9  8  1  0
 10  9  1  0
 10 11  1  1
 12 10  1  0
 12 13  1  6
 13  6  1  0
 14 15  2  0
 14 12  1  0
 16 17  1  0
 17 18  2  0
 19 17  1  0
 20 19  1  0
 21 20  1  0
 21 22  1  0
 23 22  1  6
 23 24  1  0
 24 14  1  0
 25 26  1  0
 25 23  1  0
 27 25  2  0
M  END
$$$$
