VIR.pdb
     RDKit          3D

 27 26  0  0  1  0  0  0  0  0999 V2000
    6.5801  -17.0726   19.6856 C   0  0  0  0  0  0  0  0  0  0  0  0
    7.2587  -16.6121   20.9305 C   0  0  1  0  0  0  0  0  0  0  0  0
    8.6062  -17.3201   21.0067 C   0  0  0  0  0  0  0  0  0  0  0  0
    7.5314  -15.1440   21.0099 C   0  0  2  0  0  0  0  0  0  0  0  0
    8.4656  -14.8467   19.9151 N   0  0  0  0  0  0  0  0  0  0  0  0
    8.1672  -14.6939   22.2587 C   0  0  0  0  0  0  0  0  0  0  0  0
    9.4206  -14.7438   22.3436 O   0  0  0  0  0  0  0  0  0  0  0  0
    6.9071  -11.7497   27.5822 C   0  0  0  0  0  0  0  0  0  0  0  0
    7.7590  -12.7998   26.8988 C   0  0  0  0  0  0  0  0  0  0  0  0
    7.1274  -13.0990   25.5625 C   0  0  2  0  0  0  0  0  0  0  0  0
    5.8097  -13.8114   25.7918 C   0  0  0  0  0  0  0  0  0  0  0  0
    8.0493  -13.9109   24.6718 C   0  0  2  0  0  0  0  0  0  0  0  0
    7.4589  -14.1987   23.3929 N   0  0  0  0  0  0  0  0  0  0  0  0
    8.3597  -15.1693   25.4273 C   0  0  0  0  0  0  0  0  0  0  0  0
    7.4108  -15.9599   25.6535 O   0  0  0  0  0  0  0  0  0  0  0  0
   13.7498  -20.3579   23.8326 N   0  0  0  0  0  0  0  0  0  0  0  0
   13.2669  -19.5874   22.7414 C   0  0  0  0  0  0  0  0  0  0  0  0
   13.1877  -20.1198   21.5839 N   0  0  0  0  0  0  0  0  0  0  0  0
   12.8835  -18.2339   22.9777 N   0  0  0  0  0  0  0  0  0  0  0  0
   12.8512  -17.7995   24.3715 C   0  0  0  0  0  0  0  0  0  0  0  0
   11.4488  -17.4913   24.7757 C   0  0  0  0  0  0  0  0  0  0  0  0
   11.4075  -17.0576   26.2015 C   0  0  0  0  0  0  0  0  0  0  0  0
    9.9925  -16.7215   26.5960 C   0  0  2  0  0  0  0  0  0  0  0  0
    9.6433  -15.4865   25.8795 N   0  0  0  0  0  0  0  0  0  0  0  0
   10.0377  -16.4456   28.0689 C   0  0  0  0  0  0  0  0  0  0  0  0
   10.0659  -17.4975   28.9706 O   0  0  0  0  0  0  0  0  0  0  0  0
   10.0510  -15.2775   28.5211 O   0  0  0  0  0  0  0  0  0  0  0  0
  2  4  1  0
  2  1  1  6
  3  2  1  0
  4  5  1  6
  6  4  1  0
  7  6  2  0
  9  8  1  0
 10  9  1  0
 10 11  1  1
 12 10  1  0
 12 13  1  6
 13  6  1  0
 14 15  2  0
 14 12  1  0
 16 17  1  0
 17 18  2  0
 19 17  1  0
 20 19  1  0
 21 20  1  0
 21 22  1  0
 23 22  1  6
 23 24  1  0
 24 14  1  0
 25 26  1  0
 25 23  1  0
 27 25  2  0
M  END
$$$$
