VIR.pdb
     RDKit          3D

 27 26  0  0  1  0  0  0  0  0999 V2000
    7.3645  -15.9754   20.4174 C   0  0  0  0  0  0  0  0  0  0  0  0
    7.8161  -14.7202   19.7519 C   0  0  1  0  0  0  0  0  0  0  0  0
    7.1483  -14.6613   18.3833 C   0  0  0  0  0  0  0  0  0  0  0  0
    7.4668  -13.4525   20.4636 C   0  0  2  0  0  0  0  0  0  0  0  0
    8.0728  -12.3680   19.6784 N   0  0  0  0  0  0  0  0  0  0  0  0
    7.9902  -13.3418   21.8348 C   0  0  0  0  0  0  0  0  0  0  0  0
    9.1976  -13.0274   21.9906 O   0  0  0  0  0  0  0  0  0  0  0  0
    5.0070  -11.7409   26.1587 C   0  0  0  0  0  0  0  0  0  0  0  0
    6.1908  -11.8988   25.2262 C   0  0  0  0  0  0  0  0  0  0  0  0
    6.7262  -13.2973   25.4033 C   0  0  2  0  0  0  0  0  0  0  0  0
    7.2994  -13.4293   26.8000 C   0  0  0  0  0  0  0  0  0  0  0  0
    7.7569  -13.6451   24.3455 C   0  0  2  0  0  0  0  0  0  0  0  0
    7.2205  -13.5665   23.0139 N   0  0  0  0  0  0  0  0  0  0  0  0
    8.2314  -15.0324   24.6636 C   0  0  0  0  0  0  0  0  0  0  0  0
    7.3590  -15.9153   24.8538 O   0  0  0  0  0  0  0  0  0  0  0  0
   15.0056  -19.1649   22.6938 N   0  0  0  0  0  0  0  0  0  0  0  0
   13.9722  -20.1004   22.4214 C   0  0  0  0  0  0  0  0  0  0  0  0
   14.2776  -21.3041   22.1255 N   0  0  0  0  0  0  0  0  0  0  0  0
   12.6171  -19.6600   22.4883 N   0  0  0  0  0  0  0  0  0  0  0  0
   12.4036  -18.2600   22.8448 C   0  0  0  0  0  0  0  0  0  0  0  0
   11.9051  -18.1629   24.2474 C   0  0  0  0  0  0  0  0  0  0  0  0
   11.5126  -16.7586   24.5580 C   0  0  0  0  0  0  0  0  0  0  0  0
   10.0882  -16.7192   25.0485 C   0  0  2  0  0  0  0  0  0  0  0  0
    9.5843  -15.3700   24.7540 N   0  0  0  0  0  0  0  0  0  0  0  0
   10.1663  -16.9072   26.5338 C   0  0  0  0  0  0  0  0  0  0  0  0
   10.2960  -18.1803   27.0653 O   0  0  0  0  0  0  0  0  0  0  0  0
   10.1176  -15.9373   27.3250 O   0  0  0  0  0  0  0  0  0  0  0  0
  2  4  1  0
  2  1  1  1
  3  2  1  0
  4  5  1  6
  6  4  1  0
  7  6  2  0
  9  8  1  0
 10  9  1  0
 10 11  1  1
 12 10  1  0
 12 13  1  6
 13  6  1  0
 14 15  2  0
 14 12  1  0
 16 17  1  0
 17 18  2  0
 19 17  1  0
 20 19  1  0
 21 20  1  0
 21 22  1  0
 23 22  1  6
 23 24  1  0
 24 14  1  0
 25 26  1  0
 25 23  1  0
 27 25  2  0
M  END
$$$$
