VIR.pdb
     RDKit          3D

 27 26  0  0  1  0  0  0  0  0999 V2000
    6.6836  -17.6111   21.9052 C   0  0  0  0  0  0  0  0  0  0  0  0
    7.2717  -16.7551   20.8357 C   0  0  1  0  0  0  0  0  0  0  0  0
    6.5195  -17.0537   19.5443 C   0  0  0  0  0  0  0  0  0  0  0  0
    7.1767  -15.2807   21.0659 C   0  0  2  0  0  0  0  0  0  0  0  0
    7.8082  -14.6480   19.8993 N   0  0  0  0  0  0  0  0  0  0  0  0
    7.8804  -14.7890   22.2616 C   0  0  0  0  0  0  0  0  0  0  0  0
    9.1302  -14.6622   22.2102 O   0  0  0  0  0  0  0  0  0  0  0  0
    5.8319  -11.2274   25.9347 C   0  0  0  0  0  0  0  0  0  0  0  0
    6.7322  -11.9847   24.9799 C   0  0  0  0  0  0  0  0  0  0  0  0
    7.1163  -13.2808   25.6480 C   0  0  2  0  0  0  0  0  0  0  0  0
    7.8752  -12.9691   26.9222 C   0  0  0  0  0  0  0  0  0  0  0  0
    7.9248  -14.1735   24.7250 C   0  0  2  0  0  0  0  0  0  0  0  0
    7.2422  -14.4408   23.4882 N   0  0  0  0  0  0  0  0  0  0  0  0
    8.1877  -15.4372   25.4896 C   0  0  0  0  0  0  0  0  0  0  0  0
    7.1967  -16.0482   25.9603 O   0  0  0  0  0  0  0  0  0  0  0  0
   14.4185  -19.2734   22.2933 N   0  0  0  0  0  0  0  0  0  0  0  0
   13.2715  -18.9009   21.5429 C   0  0  0  0  0  0  0  0  0  0  0  0
   13.2748  -19.0523   20.2753 N   0  0  0  0  0  0  0  0  0  0  0  0
   12.1456  -18.3660   22.2364 N   0  0  0  0  0  0  0  0  0  0  0  0
   12.2507  -18.2928   23.6911 C   0  0  0  0  0  0  0  0  0  0  0  0
   10.9597  -17.8216   24.2711 C   0  0  0  0  0  0  0  0  0  0  0  0
   11.0692  -17.7179   25.7543 C   0  0  0  0  0  0  0  0  0  0  0  0
    9.7633  -17.2387   26.3341 C   0  0  2  0  0  0  0  0  0  0  0  0
    9.4722  -15.9486   25.6926 N   0  0  0  0  0  0  0  0  0  0  0  0
   10.0248  -17.0200   27.7941 C   0  0  0  0  0  0  0  0  0  0  0  0
   10.1410  -18.1054   28.6476 O   0  0  0  0  0  0  0  0  0  0  0  0
   10.1440  -15.8707   28.2779 O   0  0  0  0  0  0  0  0  0  0  0  0
  2  4  1  0
  2  1  1  1
  3  2  1  0
  4  5  1  6
  6  4  1  0
  7  6  2  0
  9  8  1  0
 10  9  1  0
 10 11  1  1
 12 10  1  0
 12 13  1  6
 13  6  1  0
 14 15  2  0
 14 12  1  0
 16 17  1  0
 17 18  2  0
 19 17  1  0
 20 19  1  0
 21 20  1  0
 21 22  1  0
 23 22  1  6
 23 24  1  0
 24 14  1  0
 25 26  1  0
 25 23  1  0
 27 25  2  0
M  END
$$$$
