VIR.pdb
     RDKit          3D

 27 26  0  0  1  0  0  0  0  0999 V2000
    6.1251  -16.8215   19.7809 C   0  0  0  0  0  0  0  0  0  0  0  0
    6.8422  -16.5120   21.0506 C   0  0  1  0  0  0  0  0  0  0  0  0
    8.0179  -17.4756   21.1596 C   0  0  0  0  0  0  0  0  0  0  0  0
    7.3999  -15.1285   21.1544 C   0  0  2  0  0  0  0  0  0  0  0  0
    8.3938  -15.0117   20.0781 N   0  0  0  0  0  0  0  0  0  0  0  0
    8.0905  -14.8271   22.4188 C   0  0  0  0  0  0  0  0  0  0  0  0
    9.3248  -15.0538   22.4950 O   0  0  0  0  0  0  0  0  0  0  0  0
    5.8753  -11.2614   26.0543 C   0  0  0  0  0  0  0  0  0  0  0  0
    6.9162  -11.9194   25.1716 C   0  0  0  0  0  0  0  0  0  0  0  0
    7.2644  -13.2489   25.7923 C   0  0  2  0  0  0  0  0  0  0  0  0
    7.9872  -13.0041   27.1016 C   0  0  0  0  0  0  0  0  0  0  0  0
    8.0905  -14.1101   24.8551 C   0  0  2  0  0  0  0  0  0  0  0  0
    7.4563  -14.2899   23.5774 N   0  0  0  0  0  0  0  0  0  0  0  0
    8.2890  -15.4210   25.5572 C   0  0  0  0  0  0  0  0  0  0  0  0
    7.2632  -16.0775   25.8626 O   0  0  0  0  0  0  0  0  0  0  0  0
   13.8355  -17.8858   21.8363 N   0  0  0  0  0  0  0  0  0  0  0  0
   12.5907  -18.4589   21.4627 C   0  0  0  0  0  0  0  0  0  0  0  0
   12.2279  -18.4278   20.2392 N   0  0  0  0  0  0  0  0  0  0  0  0
   11.7817  -19.0546   22.4753 N   0  0  0  0  0  0  0  0  0  0  0  0
   12.0489  -18.6412   23.8501 C   0  0  0  0  0  0  0  0  0  0  0  0
   10.7968  -18.1307   24.4801 C   0  0  0  0  0  0  0  0  0  0  0  0
   11.0429  -17.7873   25.9098 C   0  0  0  0  0  0  0  0  0  0  0  0
    9.7885  -17.2245   26.5268 C   0  0  2  0  0  0  0  0  0  0  0  0
    9.5515  -15.9274   25.8771 N   0  0  0  0  0  0  0  0  0  0  0  0
   10.1130  -17.0037   27.9737 C   0  0  0  0  0  0  0  0  0  0  0  0
   10.1204  -18.0742   28.8535 O   0  0  0  0  0  0  0  0  0  0  0  0
   10.3824  -15.8660   28.4231 O   0  0  0  0  0  0  0  0  0  0  0  0
  2  4  1  0
  2  1  1  6
  3  2  1  0
  4  5  1  6
  6  4  1  0
  7  6  2  0
  9  8  1  0
 10  9  1  0
 10 11  1  1
 12 10  1  0
 12 13  1  6
 13  6  1  0
 14 15  2  0
 14 12  1  0
 16 17  1  0
 17 18  2  0
 19 17  1  0
 20 19  1  0
 21 20  1  0
 21 22  1  0
 23 22  1  6
 23 24  1  0
 24 14  1  0
 25 26  1  0
 25 23  1  0
 27 25  2  0
M  END
$$$$
