VIR.pdb
     RDKit          3D

 27 26  0  0  1  0  0  0  0  0999 V2000
    7.1994  -15.9425   20.5540 C   0  0  0  0  0  0  0  0  0  0  0  0
    7.6831  -14.6863   19.9135 C   0  0  1  0  0  0  0  0  0  0  0  0
    6.9948  -14.5681   18.5589 C   0  0  0  0  0  0  0  0  0  0  0  0
    7.3899  -13.4267   20.6640 C   0  0  2  0  0  0  0  0  0  0  0  0
    7.9595  -12.3357   19.8606 N   0  0  0  0  0  0  0  0  0  0  0  0
    7.9952  -13.3426   22.0030 C   0  0  0  0  0  0  0  0  0  0  0  0
    9.2327  -13.1380   22.0883 O   0  0  0  0  0  0  0  0  0  0  0  0
    5.5010  -11.4813   26.5968 C   0  0  0  0  0  0  0  0  0  0  0  0
    6.5302  -11.7592   25.5202 C   0  0  0  0  0  0  0  0  0  0  0  0
    6.9366  -13.2063   25.6420 C   0  0  2  0  0  0  0  0  0  0  0  0
    7.5659  -13.4257   27.0031 C   0  0  0  0  0  0  0  0  0  0  0  0
    7.8728  -13.6255   24.5239 C   0  0  2  0  0  0  0  0  0  0  0  0
    7.2735  -13.4769   23.2255 N   0  0  0  0  0  0  0  0  0  0  0  0
    8.2385  -15.0545   24.7979 C   0  0  0  0  0  0  0  0  0  0  0  0
    7.3041  -15.8908   24.8635 O   0  0  0  0  0  0  0  0  0  0  0  0
   14.8274  -19.0294   21.4923 N   0  0  0  0  0  0  0  0  0  0  0  0
   13.7656  -19.9726   21.4738 C   0  0  0  0  0  0  0  0  0  0  0  0
   13.8662  -21.0164   20.7458 N   0  0  0  0  0  0  0  0  0  0  0  0
   12.6134  -19.7198   22.2759 N   0  0  0  0  0  0  0  0  0  0  0  0
   12.5930  -18.4561   23.0075 C   0  0  0  0  0  0  0  0  0  0  0  0
   11.2906  -18.3008   23.7180 C   0  0  0  0  0  0  0  0  0  0  0  0
   11.2933  -17.0508   24.5304 C   0  0  0  0  0  0  0  0  0  0  0  0
    9.9587  -16.8749   25.2078 C   0  0  2  0  0  0  0  0  0  0  0  0
    9.5572  -15.4794   24.9793 N   0  0  0  0  0  0  0  0  0  0  0  0
   10.2162  -17.0848   26.6698 C   0  0  0  0  0  0  0  0  0  0  0  0
   10.4419  -18.3621   27.1573 O   0  0  0  0  0  0  0  0  0  0  0  0
   10.2347  -16.1298   27.4801 O   0  0  0  0  0  0  0  0  0  0  0  0
  2  4  1  0
  2  1  1  1
  3  2  1  0
  4  5  1  6
  6  4  1  0
  7  6  2  0
  9  8  1  0
 10  9  1  0
 10 11  1  1
 12 10  1  0
 12 13  1  6
 13  6  1  0
 14 15  2  0
 14 12  1  0
 16 17  1  0
 17 18  2  0
 19 17  1  0
 20 19  1  0
 21 20  1  0
 21 22  1  0
 23 22  1  6
 23 24  1  0
 24 14  1  0
 25 26  1  0
 25 23  1  0
 27 25  2  0
M  END
$$$$
