TAY.pdb
     RDKit          3D

 25 25  0  0  1  0  0  0  0  0999 V2000
   27.8348  -24.4061  -19.7418 C   0  0  0  0  0  0  0  0  0  0  0  0
   27.5005  -23.5466  -18.5625 C   0  0  1  0  0  0  0  0  0  0  0  0
   28.4005  -23.7120  -17.5164 O   0  0  0  0  0  0  0  0  0  0  0  0
   27.4870  -22.0942  -18.9965 C   0  0  2  0  0  0  0  0  0  0  0  0
   28.7735  -21.6229  -19.4090 N   0  0  0  0  0  0  0  0  0  0  0  0
   26.9837  -21.2943  -17.8647 C   0  0  0  0  0  0  0  0  0  0  0  0
   27.8148  -20.6773  -17.1276 O   0  0  0  0  0  0  0  0  0  0  0  0
   23.7290  -20.0485  -16.5713 C   0  0  0  0  0  0  0  0  0  0  0  0
   25.2088  -20.3873  -16.4263 C   0  0  2  0  0  0  0  0  0  0  0  0
   25.6067  -21.1697  -17.5438 N   0  0  0  0  0  0  0  0  0  0  0  0
   25.4227  -21.0606  -15.1233 C   0  0  0  0  0  0  0  0  0  0  0  0
   25.2200  -22.2707  -14.9126 O   0  0  0  0  0  0  0  0  0  0  0  0
   27.3923  -20.5461   -6.4261 O   0  0  0  0  0  0  0  0  0  0  0  0
   27.2971  -20.3841   -7.7979 C   0  0  0  0  0  0  0  0  0  0  0  0
   28.3630  -20.6938   -8.6074 C   0  0  0  0  0  0  0  0  0  0  0  0
   28.3054  -20.5461   -9.9726 C   0  0  0  0  0  0  0  0  0  0  0  0
   27.1472  -20.0740  -10.5515 C   0  0  0  0  0  0  0  0  0  0  0  0
   26.9635  -19.8698  -11.9835 C   0  0  0  0  0  0  0  0  0  0  0  0
   26.0142  -20.7870  -12.6719 C   0  0  2  0  0  0  0  0  0  0  0  0
   25.8909  -20.2683  -14.0439 N   0  0  0  0  0  0  0  0  0  0  0  0
   24.6929  -20.7869  -12.0027 C   0  0  0  0  0  0  0  0  0  0  0  0
   24.3114  -21.8116  -11.1582 O   0  0  0  0  0  0  0  0  0  0  0  0
   26.0839  -19.7677   -9.7152 C   0  0  0  0  0  0  0  0  0  0  0  0
   26.1363  -19.9139   -8.3462 C   0  0  0  0  0  0  0  0  0  0  0  0
   23.8909  -19.8436  -12.1966 O   0  0  0  0  0  0  0  0  0  0  0  0
  2  4  1  0
  2  1  1  6
  3  2  1  0
  4  6  1  0
  4  5  1  1
  6 10  1  0
  6  7  2  0
  9  8  1  6
  9 11  1  0
 10  9  1  0
 11 12  2  0
 13 14  1  0
 14 15  2  0
 15 16  1  0
 17 18  1  0
 17 16  2  0
 19 18  1  1
 19 21  1  0
 20 19  1  0
 20 11  1  0
 21 22  1  0
 23 17  1  0
 24 23  2  0
 24 14  1  0
 25 21  2  0
M  END
$$$$
