TAY.pdb
     RDKit          3D

 25 25  0  0  1  0  0  0  0  0999 V2000
   23.2638  -14.2420  -15.8059 C   0  0  0  0  0  0  0  0  0  0  0  0
   23.9892  -14.4070  -17.1051 C   0  0  1  0  0  0  0  0  0  0  0  0
   24.5398  -15.6753  -17.2452 O   0  0  0  0  0  0  0  0  0  0  0  0
   23.0271  -14.1417  -18.2462 C   0  0  2  0  0  0  0  0  0  0  0  0
   23.6181  -14.3459  -19.5333 N   0  0  0  0  0  0  0  0  0  0  0  0
   22.5483  -12.7535  -18.1134 C   0  0  0  0  0  0  0  0  0  0  0  0
   23.3649  -11.7984  -18.3030 O   0  0  0  0  0  0  0  0  0  0  0  0
   19.3609  -10.9272  -18.0923 C   0  0  0  0  0  0  0  0  0  0  0  0
   20.8282  -11.0482  -17.6948 C   0  0  2  0  0  0  0  0  0  0  0  0
   21.2106  -12.4140  -17.7817 N   0  0  0  0  0  0  0  0  0  0  0  0
   21.0106  -10.4649  -16.3445 C   0  0  0  0  0  0  0  0  0  0  0  0
   20.7092  -11.0384  -15.2815 O   0  0  0  0  0  0  0  0  0  0  0  0
   27.6084  -11.1192  -16.2034 O   0  0  0  0  0  0  0  0  0  0  0  0
   26.5123  -10.3181  -15.9312 C   0  0  0  0  0  0  0  0  0  0  0  0
   25.7362  -10.5594  -14.8236 C   0  0  0  0  0  0  0  0  0  0  0  0
   24.6411   -9.7857  -14.5213 C   0  0  0  0  0  0  0  0  0  0  0  0
   24.3075   -8.7363  -15.3501 C   0  0  0  0  0  0  0  0  0  0  0  0
   23.1703   -7.8480  -15.1406 C   0  0  0  0  0  0  0  0  0  0  0  0
   21.8394   -8.4950  -14.9782 C   0  0  2  0  0  0  0  0  0  0  0  0
   21.5675   -9.1629  -16.2614 N   0  0  0  0  0  0  0  0  0  0  0  0
   20.7899   -7.4904  -14.6903 C   0  0  0  0  0  0  0  0  0  0  0  0
   19.8671   -7.1158  -15.6479 O   0  0  0  0  0  0  0  0  0  0  0  0
   25.1049   -8.5113  -16.4625 C   0  0  0  0  0  0  0  0  0  0  0  0
   26.2036   -9.2836  -16.7700 C   0  0  0  0  0  0  0  0  0  0  0  0
   20.7239   -6.9582  -13.5576 O   0  0  0  0  0  0  0  0  0  0  0  0
  2  4  1  0
  2  1  1  1
  3  2  1  0
  4  6  1  0
  4  5  1  6
  6 10  1  0
  6  7  2  0
  9  8  1  1
  9 11  1  0
 10  9  1  0
 11 12  2  0
 13 14  1  0
 14 15  2  0
 15 16  1  0
 17 18  1  0
 17 16  2  0
 19 18  1  6
 19 21  1  0
 20 19  1  0
 20 11  1  0
 21 22  1  0
 23 17  1  0
 24 23  2  0
 24 14  1  0
 25 21  2  0
M  END
$$$$
