TAY.pdb
     RDKit          3D

 25 25  0  0  1  0  0  0  0  0999 V2000
   25.5910  -12.3114  -15.0584 C   0  0  0  0  0  0  0  0  0  0  0  0
   25.7622  -12.7935  -16.4654 C   0  0  1  0  0  0  0  0  0  0  0  0
   26.6318  -13.8741  -16.5512 O   0  0  0  0  0  0  0  0  0  0  0  0
   24.4079  -13.1853  -17.0225 C   0  0  2  0  0  0  0  0  0  0  0  0
   24.4921  -13.8071  -18.3086 N   0  0  0  0  0  0  0  0  0  0  0  0
   23.5836  -11.9649  -17.0932 C   0  0  0  0  0  0  0  0  0  0  0  0
   23.9128  -11.0443  -17.9051 O   0  0  0  0  0  0  0  0  0  0  0  0
   20.3528  -10.7092  -15.7185 C   0  0  0  0  0  0  0  0  0  0  0  0
   21.6943  -10.5419  -16.4241 C   0  0  2  0  0  0  0  0  0  0  0  0
   22.4275  -11.7526  -16.2976 N   0  0  0  0  0  0  0  0  0  0  0  0
   22.3920   -9.3630  -15.8581 C   0  0  0  0  0  0  0  0  0  0  0  0
   23.0714   -9.3786  -14.8151 O   0  0  0  0  0  0  0  0  0  0  0  0
   26.1978   -1.4219  -16.7638 O   0  0  0  0  0  0  0  0  0  0  0  0
   25.5669   -2.6452  -16.9135 C   0  0  0  0  0  0  0  0  0  0  0  0
   24.4499   -2.7559  -17.7056 C   0  0  0  0  0  0  0  0  0  0  0  0
   23.7973   -3.9532  -17.8780 C   0  0  0  0  0  0  0  0  0  0  0  0
   24.2731   -5.0784  -17.2400 C   0  0  0  0  0  0  0  0  0  0  0  0
   23.6685   -6.4016  -17.3391 C   0  0  0  0  0  0  0  0  0  0  0  0
   22.9675   -6.9073  -16.1270 C   0  0  2  0  0  0  0  0  0  0  0  0
   22.2751   -8.1334  -16.5557 N   0  0  0  0  0  0  0  0  0  0  0  0
   21.9895   -5.9151  -15.6240 C   0  0  0  0  0  0  0  0  0  0  0  0
   22.3143   -5.0288  -14.6152 O   0  0  0  0  0  0  0  0  0  0  0  0
   25.4018   -4.9433  -16.4453 C   0  0  0  0  0  0  0  0  0  0  0  0
   26.0598   -3.7457  -16.2692 C   0  0  0  0  0  0  0  0  0  0  0  0
   20.8369   -5.8655  -16.1137 O   0  0  0  0  0  0  0  0  0  0  0  0
  2  4  1  0
  2  1  1  1
  3  2  1  0
  4  6  1  0
  4  5  1  6
  6 10  1  0
  6  7  2  0
  9  8  1  1
  9 11  1  0
 10  9  1  0
 11 12  2  0
 13 14  1  0
 14 15  2  0
 15 16  1  0
 17 18  1  0
 17 16  2  0
 19 18  1  6
 19 21  1  0
 20 19  1  0
 20 11  1  0
 21 22  1  0
 23 17  1  0
 24 23  2  0
 24 14  1  0
 25 21  2  0
M  END
$$$$
