TAY.pdb
     RDKit          3D

 25 25  0  0  1  0  0  0  0  0999 V2000
   18.9683   -9.2223  -19.0336 C   0  0  0  0  0  0  0  0  0  0  0  0
   17.9173   -9.8424  -18.1663 C   0  0  1  0  0  0  0  0  0  0  0  0
   16.9662  -10.5371  -18.9040 O   0  0  0  0  0  0  0  0  0  0  0  0
   18.5812  -10.7824  -17.1796 C   0  0  2  0  0  0  0  0  0  0  0  0
   17.6449  -11.6012  -16.4721 N   0  0  0  0  0  0  0  0  0  0  0  0
   19.3630   -9.9613  -16.2369 C   0  0  0  0  0  0  0  0  0  0  0  0
   18.7661   -9.0755  -15.5485 O   0  0  0  0  0  0  0  0  0  0  0  0
   22.8454   -9.7879  -14.9120 C   0  0  0  0  0  0  0  0  0  0  0  0
   21.4492   -9.2283  -15.1634 C   0  0  2  0  0  0  0  0  0  0  0  0
   20.7628  -10.1024  -16.0489 N   0  0  0  0  0  0  0  0  0  0  0  0
   21.5712   -7.8419  -15.6731 C   0  0  0  0  0  0  0  0  0  0  0  0
   21.8339   -7.5445  -16.8531 O   0  0  0  0  0  0  0  0  0  0  0  0
   16.1112   -5.5344  -18.6132 O   0  0  0  0  0  0  0  0  0  0  0  0
   17.1223   -5.3315  -17.6892 C   0  0  0  0  0  0  0  0  0  0  0  0
   18.1425   -4.4524  -17.9609 C   0  0  0  0  0  0  0  0  0  0  0  0
   19.1627   -4.2253  -17.0683 C   0  0  0  0  0  0  0  0  0  0  0  0
   19.1673   -4.8963  -15.8645 C   0  0  0  0  0  0  0  0  0  0  0  0
   20.1930   -4.7457  -14.8391 C   0  0  0  0  0  0  0  0  0  0  0  0
   21.5161   -5.3664  -15.1229 C   0  0  2  0  0  0  0  0  0  0  0  0
   21.3742   -6.7832  -14.7499 N   0  0  0  0  0  0  0  0  0  0  0  0
   22.5865   -4.7296  -14.3213 C   0  0  0  0  0  0  0  0  0  0  0  0
   23.1595   -5.3732  -13.2414 O   0  0  0  0  0  0  0  0  0  0  0  0
   18.1276   -5.7789  -15.6115 C   0  0  0  0  0  0  0  0  0  0  0  0
   17.1026   -6.0102  -16.5026 C   0  0  0  0  0  0  0  0  0  0  0  0
   22.9927   -3.5811  -14.6158 O   0  0  0  0  0  0  0  0  0  0  0  0
  2  4  1  0
  2  1  1  6
  3  2  1  0
  4  6  1  0
  4  5  1  1
  6 10  1  0
  6  7  2  0
  9  8  1  6
  9 11  1  0
 10  9  1  0
 11 12  2  0
 13 14  1  0
 14 15  2  0
 15 16  1  0
 17 18  1  0
 17 16  2  0
 19 18  1  1
 19 21  1  0
 20 19  1  0
 20 11  1  0
 21 22  1  0
 23 17  1  0
 24 23  2  0
 24 14  1  0
 25 21  2  0
M  END
$$$$
