TAY.pdb
     RDKit          3D

 25 25  0  0  1  0  0  0  0  0999 V2000
   10.9802   -6.6333   -9.1496 C   0  0  0  0  0  0  0  0  0  0  0  0
   10.8559   -7.8214   -8.2473 C   0  0  1  0  0  0  0  0  0  0  0  0
    9.7717   -7.7178   -7.3840 O   0  0  0  0  0  0  0  0  0  0  0  0
   10.7151   -9.0721   -9.0922 C   0  0  2  0  0  0  0  0  0  0  0  0
   10.5456  -10.2582   -8.3098 N   0  0  0  0  0  0  0  0  0  0  0  0
   11.9195   -9.1792   -9.9361 C   0  0  0  0  0  0  0  0  0  0  0  0
   13.0090   -9.5675   -9.4098 O   0  0  0  0  0  0  0  0  0  0  0  0
   12.7538   -9.1328  -13.5554 C   0  0  0  0  0  0  0  0  0  0  0  0
   13.1226   -9.0715  -12.0769 C   0  0  2  0  0  0  0  0  0  0  0  0
   11.9360   -8.8702  -11.3214 N   0  0  0  0  0  0  0  0  0  0  0  0
   14.1402   -8.0124  -11.8784 C   0  0  0  0  0  0  0  0  0  0  0  0
   13.8791   -6.8134  -11.6684 O   0  0  0  0  0  0  0  0  0  0  0  0
   22.6594   -5.3388  -11.5459 O   0  0  0  0  0  0  0  0  0  0  0  0
   21.4709   -6.0489  -11.5666 C   0  0  0  0  0  0  0  0  0  0  0  0
   21.1135   -6.7685  -12.6810 C   0  0  0  0  0  0  0  0  0  0  0  0
   19.9421   -7.4851  -12.7381 C   0  0  0  0  0  0  0  0  0  0  0  0
   19.0979   -7.4852  -11.6487 C   0  0  0  0  0  0  0  0  0  0  0  0
   17.8284   -8.2000  -11.5878 C   0  0  0  0  0  0  0  0  0  0  0  0
   16.6057   -7.4177  -11.9183 C   0  0  2  0  0  0  0  0  0  0  0  0
   15.5051   -8.3949  -11.9319 N   0  0  0  0  0  0  0  0  0  0  0  0
   16.7309   -6.7674  -13.2432 C   0  0  0  0  0  0  0  0  0  0  0  0
   17.1171   -5.4466  -13.3653 O   0  0  0  0  0  0  0  0  0  0  0  0
   19.4787   -6.7517  -10.5348 C   0  0  0  0  0  0  0  0  0  0  0  0
   20.6517   -6.0317  -10.4722 C   0  0  0  0  0  0  0  0  0  0  0  0
   16.4840   -7.4159  -14.2868 O   0  0  0  0  0  0  0  0  0  0  0  0
  2  4  1  0
  2  1  1  6
  3  2  1  0
  4  6  1  0
  4  5  1  1
  6 10  1  0
  6  7  2  0
  9  8  1  6
  9 11  1  0
 10  9  1  0
 11 12  2  0
 13 14  1  0
 14 15  2  0
 15 16  1  0
 17 18  1  0
 17 16  2  0
 19 18  1  6
 19 21  1  0
 20 19  1  0
 20 11  1  0
 21 22  1  0
 23 17  1  0
 24 23  2  0
 24 14  1  0
 25 21  2  0
M  END
$$$$
