TAY.pdb
     RDKit          3D

 25 25  0  0  1  0  0  0  0  0999 V2000
   16.1593  -12.4760  -15.1382 C   0  0  0  0  0  0  0  0  0  0  0  0
   17.3004  -13.4295  -15.3115 C   0  0  1  0  0  0  0  0  0  0  0  0
   16.9336  -14.7447  -15.0529 O   0  0  0  0  0  0  0  0  0  0  0  0
   17.8276  -13.3181  -16.7285 C   0  0  2  0  0  0  0  0  0  0  0  0
   18.8269  -14.2967  -17.0308 N   0  0  0  0  0  0  0  0  0  0  0  0
   18.3707  -11.9578  -16.8976 C   0  0  0  0  0  0  0  0  0  0  0  0
   19.4978  -11.6752  -16.3833 O   0  0  0  0  0  0  0  0  0  0  0  0
   17.4624   -8.8109  -18.6987 C   0  0  0  0  0  0  0  0  0  0  0  0
   18.3122   -9.6546  -17.7544 C   0  0  2  0  0  0  0  0  0  0  0  0
   17.7009  -10.9294  -17.6108 N   0  0  0  0  0  0  0  0  0  0  0  0
   18.4757   -8.9265  -16.4739 C   0  0  0  0  0  0  0  0  0  0  0  0
   17.6865   -9.0010  -15.5140 O   0  0  0  0  0  0  0  0  0  0  0  0
   24.0587  -12.3103  -14.9890 O   0  0  0  0  0  0  0  0  0  0  0  0
   23.4119  -11.0862  -15.0105 C   0  0  0  0  0  0  0  0  0  0  0  0
   23.3654  -10.3478  -16.1681 C   0  0  0  0  0  0  0  0  0  0  0  0
   22.7328   -9.1291  -16.2274 C   0  0  0  0  0  0  0  0  0  0  0  0
   22.1259   -8.6286  -15.0958 C   0  0  0  0  0  0  0  0  0  0  0  0
   21.4287   -7.3496  -15.0296 C   0  0  0  0  0  0  0  0  0  0  0  0
   19.9416   -7.3972  -15.0786 C   0  0  2  0  0  0  0  0  0  0  0  0
   19.6112   -8.0875  -16.3359 N   0  0  0  0  0  0  0  0  0  0  0  0
   19.3642   -6.0332  -15.0753 C   0  0  0  0  0  0  0  0  0  0  0  0
   18.8310   -5.4723  -16.2198 O   0  0  0  0  0  0  0  0  0  0  0  0
   22.1854   -9.3909  -13.9385 C   0  0  0  0  0  0  0  0  0  0  0  0
   22.8181  -10.6131  -13.8736 C   0  0  0  0  0  0  0  0  0  0  0  0
   19.3518   -5.3591  -14.0189 O   0  0  0  0  0  0  0  0  0  0  0  0
  2  4  1  0
  2  1  1  6
  3  2  1  0
  4  6  1  0
  4  5  1  1
  6 10  1  0
  6  7  2  0
  9  8  1  6
  9 11  1  0
 10  9  1  0
 11 12  2  0
 13 14  1  0
 14 15  2  0
 15 16  1  0
 17 18  1  0
 17 16  2  0
 19 18  1  6
 19 21  1  0
 20 19  1  0
 20 11  1  0
 21 22  1  0
 23 17  1  0
 24 23  2  0
 24 14  1  0
 25 21  2  0
M  END
$$$$
