TAY.pdb
     RDKit          3D

 25 25  0  0  1  0  0  0  0  0999 V2000
   25.0675  -10.9707  -14.6736 C   0  0  0  0  0  0  0  0  0  0  0  0
   25.6893  -10.8786  -16.0323 C   0  0  1  0  0  0  0  0  0  0  0  0
   26.7333  -11.7809  -16.1975 O   0  0  0  0  0  0  0  0  0  0  0  0
   24.6257  -11.1343  -17.0817 C   0  0  2  0  0  0  0  0  0  0  0  0
   25.1467  -11.1414  -18.4144 N   0  0  0  0  0  0  0  0  0  0  0  0
   23.5949  -10.0899  -16.9370 C   0  0  0  0  0  0  0  0  0  0  0  0
   23.8985   -8.8835  -17.1962 O   0  0  0  0  0  0  0  0  0  0  0  0
   19.9270   -9.8760  -16.3282 C   0  0  0  0  0  0  0  0  0  0  0  0
   21.3314   -9.2877  -16.4124 C   0  0  2  0  0  0  0  0  0  0  0  0
   22.2644  -10.3543  -16.5194 N   0  0  0  0  0  0  0  0  0  0  0  0
   21.5589   -8.4152  -15.2361 C   0  0  0  0  0  0  0  0  0  0  0  0
   22.0511   -8.7977  -14.1585 O   0  0  0  0  0  0  0  0  0  0  0  0
   23.7210   -2.0292  -18.7341 O   0  0  0  0  0  0  0  0  0  0  0  0
   23.5149   -2.9250  -17.6986 C   0  0  0  0  0  0  0  0  0  0  0  0
   23.7401   -4.2668  -17.8886 C   0  0  0  0  0  0  0  0  0  0  0  0
   23.5465   -5.1853  -16.8846 C   0  0  0  0  0  0  0  0  0  0  0  0
   23.1141   -4.7529  -15.6494 C   0  0  0  0  0  0  0  0  0  0  0  0
   22.8682   -5.6267  -14.5083 C   0  0  0  0  0  0  0  0  0  0  0  0
   21.4611   -6.0626  -14.2928 C   0  0  2  0  0  0  0  0  0  0  0  0
   21.1891   -7.0505  -15.3495 N   0  0  0  0  0  0  0  0  0  0  0  0
   20.5258   -4.9197  -14.4058 C   0  0  0  0  0  0  0  0  0  0  0  0
   20.4042   -3.9840  -13.3967 O   0  0  0  0  0  0  0  0  0  0  0  0
   22.8931   -3.3941  -15.4803 C   0  0  0  0  0  0  0  0  0  0  0  0
   23.0856   -2.4693  -16.4832 C   0  0  0  0  0  0  0  0  0  0  0  0
   19.8213   -4.7841  -15.4334 O   0  0  0  0  0  0  0  0  0  0  0  0
  2  4  1  0
  2  1  1  1
  3  2  1  0
  4  6  1  0
  4  5  1  6
  6 10  1  0
  6  7  2  0
  9  8  1  1
  9 11  1  0
 10  9  1  0
 11 12  2  0
 13 14  1  0
 14 15  2  0
 15 16  1  0
 17 18  1  0
 17 16  2  0
 19 18  1  6
 19 21  1  0
 20 19  1  0
 20 11  1  0
 21 22  1  0
 23 17  1  0
 24 23  2  0
 24 14  1  0
 25 21  2  0
M  END
$$$$
