TAY.pdb
     RDKit          3D

 25 25  0  0  1  0  0  0  0  0999 V2000
   19.9562  -11.8672  -15.4044 C   0  0  0  0  0  0  0  0  0  0  0  0
   19.3172  -11.8323  -16.7578 C   0  0  1  0  0  0  0  0  0  0  0  0
   19.1510  -13.1027  -17.2961 O   0  0  0  0  0  0  0  0  0  0  0  0
   17.9703  -11.1450  -16.6516 C   0  0  2  0  0  0  0  0  0  0  0  0
   17.2432  -11.1485  -17.8841 N   0  0  0  0  0  0  0  0  0  0  0  0
   18.2086   -9.7625  -16.1979 C   0  0  0  0  0  0  0  0  0  0  0  0
   18.9404   -8.9993  -16.9028 O   0  0  0  0  0  0  0  0  0  0  0  0
   17.0070   -7.4421  -13.5463 C   0  0  0  0  0  0  0  0  0  0  0  0
   18.0090   -7.9074  -14.5976 C   0  0  2  0  0  0  0  0  0  0  0  0
   17.6620   -9.2242  -15.0037 N   0  0  0  0  0  0  0  0  0  0  0  0
   19.3776   -7.7992  -14.0390 C   0  0  0  0  0  0  0  0  0  0  0  0
   19.8800   -8.6112  -13.2403 O   0  0  0  0  0  0  0  0  0  0  0  0
   21.7485   -2.0288  -18.6049 O   0  0  0  0  0  0  0  0  0  0  0  0
   21.9016   -3.0965  -17.7366 C   0  0  0  0  0  0  0  0  0  0  0  0
   20.8767   -3.9929  -17.5539 C   0  0  0  0  0  0  0  0  0  0  0  0
   20.9922   -5.0642  -16.7008 C   0  0  0  0  0  0  0  0  0  0  0  0
   22.1680   -5.2493  -16.0060 C   0  0  0  0  0  0  0  0  0  0  0  0
   22.4115   -6.3413  -15.0709 C   0  0  0  0  0  0  0  0  0  0  0  0
   21.5050   -6.4256  -13.8930 C   0  0  2  0  0  0  0  0  0  0  0  0
   20.1668   -6.6925  -14.4448 N   0  0  0  0  0  0  0  0  0  0  0  0
   21.5017   -5.1555  -13.1310 C   0  0  0  0  0  0  0  0  0  0  0  0
   22.5596   -4.7996  -12.3167 O   0  0  0  0  0  0  0  0  0  0  0  0
   23.1891   -4.3321  -16.2059 C   0  0  0  0  0  0  0  0  0  0  0  0
   23.0786   -3.2566  -17.0599 C   0  0  0  0  0  0  0  0  0  0  0  0
   20.5248   -4.3751  -13.2153 O   0  0  0  0  0  0  0  0  0  0  0  0
  2  4  1  0
  2  1  1  1
  3  2  1  0
  4  6  1  0
  4  5  1  6
  6 10  1  0
  6  7  2  0
  9  8  1  1
  9 11  1  0
 10  9  1  0
 11 12  2  0
 13 14  1  0
 14 15  2  0
 15 16  1  0
 17 18  1  0
 17 16  2  0
 19 18  1  6
 19 21  1  0
 20 19  1  0
 20 11  1  0
 21 22  1  0
 23 17  1  0
 24 23  2  0
 24 14  1  0
 25 21  2  0
M  END
$$$$
