TAY.pdb
     RDKit          3D

 25 25  0  0  1  0  0  0  0  0999 V2000
   29.8847  -24.3410  -16.9852 C   0  0  0  0  0  0  0  0  0  0  0  0
   29.0135  -23.2733  -16.4001 C   0  0  1  0  0  0  0  0  0  0  0  0
   29.4902  -21.9960  -16.6701 O   0  0  0  0  0  0  0  0  0  0  0  0
   27.6105  -23.4200  -16.9550 C   0  0  2  0  0  0  0  0  0  0  0  0
   27.5551  -23.2770  -18.3777 N   0  0  0  0  0  0  0  0  0  0  0  0
   26.7632  -22.4054  -16.3018 C   0  0  0  0  0  0  0  0  0  0  0  0
   26.6185  -22.4422  -15.0398 O   0  0  0  0  0  0  0  0  0  0  0  0
   25.0156  -19.2490  -17.2475 C   0  0  0  0  0  0  0  0  0  0  0  0
   25.3627  -20.3853  -16.2915 C   0  0  2  0  0  0  0  0  0  0  0  0
   26.0893  -21.3746  -17.0075 N   0  0  0  0  0  0  0  0  0  0  0  0
   24.1143  -20.8945  -15.6758 C   0  0  0  0  0  0  0  0  0  0  0  0
   23.4391  -21.8381  -16.1268 O   0  0  0  0  0  0  0  0  0  0  0  0
   18.4543  -21.2213   -8.7169 O   0  0  0  0  0  0  0  0  0  0  0  0
   19.4726  -21.0013   -9.6290 C   0  0  0  0  0  0  0  0  0  0  0  0
   19.4585  -21.6338  -10.8485 C   0  0  0  0  0  0  0  0  0  0  0  0
   20.4515  -21.4399  -11.7788 C   0  0  0  0  0  0  0  0  0  0  0  0
   21.4938  -20.5874  -11.4849 C   0  0  0  0  0  0  0  0  0  0  0  0
   22.6062  -20.3027  -12.3835 C   0  0  0  0  0  0  0  0  0  0  0  0
   22.4040  -20.6330  -13.8210 C   0  0  2  0  0  0  0  0  0  0  0  0
   23.6605  -20.2603  -14.4909 N   0  0  0  0  0  0  0  0  0  0  0  0
   21.2720  -19.8657  -14.3901 C   0  0  0  0  0  0  0  0  0  0  0  0
   20.0335  -20.4454  -14.5867 O   0  0  0  0  0  0  0  0  0  0  0  0
   21.4875  -19.9598  -10.2480 C   0  0  0  0  0  0  0  0  0  0  0  0
   20.4947  -20.1505   -9.3119 C   0  0  0  0  0  0  0  0  0  0  0  0
   21.4248  -18.6626  -14.7061 O   0  0  0  0  0  0  0  0  0  0  0  0
  2  4  1  0
  2  1  1  6
  3  2  1  0
  4  6  1  0
  4  5  1  6
  6 10  1  0
  6  7  2  0
  9  8  1  6
  9 11  1  0
 10  9  1  0
 11 12  2  0
 13 14  1  0
 14 15  2  0
 15 16  1  0
 17 18  1  0
 17 16  2  0
 19 18  1  1
 19 21  1  0
 20 19  1  0
 20 11  1  0
 21 22  1  0
 23 17  1  0
 24 23  2  0
 24 14  1  0
 25 21  2  0
M  END
$$$$
