RCS.pdb
     RDKit          3D

 24 23  0  0  1  0  0  0  0  0999 V2000
   19.9993  -22.9070   -7.6315 N   0  0  0  0  0  0  0  0  0  0  0  0
   19.7609  -22.3437   -8.9168 C   0  0  0  0  0  0  0  0  0  0  0  0
   18.5741  -22.2623   -9.4486 N   0  0  0  0  0  0  0  0  0  0  0  0
   20.8416  -21.8288   -9.7029 N   0  0  0  0  0  0  0  0  0  0  0  0
   22.2187  -22.0331   -9.2876 C   0  0  0  0  0  0  0  0  0  0  0  0
   22.7953  -20.7479   -8.7839 C   0  0  0  0  0  0  0  0  0  0  0  0
   23.7551  -20.0700   -9.7005 C   0  0  0  0  0  0  0  0  0  0  0  0
   25.0808  -20.7352   -9.8487 C   0  0  2  0  0  0  0  0  0  0  0  0
   25.9954  -20.5543   -8.7690 N   0  0  0  0  0  0  0  0  0  0  0  0
   25.7210  -20.2169  -11.1003 C   0  0  0  0  0  0  0  0  0  0  0  0
   26.3702  -19.1588  -11.1036 O   0  0  0  0  0  0  0  0  0  0  0  0
   18.5264  -21.9291  -10.4315 N   0  0  0  0  0  0  0  0  0  0  0  0
   25.5471  -20.9965  -12.2840 C   0  0  2  0  0  0  0  0  0  0  0  0
   26.2261  -20.5061  -13.5042 C   0  0  0  0  0  0  0  0  0  0  0  0
   26.9659  -21.7284  -14.0254 S   0  0  0  0  0  0  0  0  0  0  0  0
   28.4902  -22.0283  -13.1085 C   0  0  0  0  0  0  0  0  0  0  0  0
   25.2083  -20.0805  -14.4767 O   0  0  0  0  0  0  0  0  0  0  0  0
   24.0862  -20.6490  -14.5937 O   0  0  0  0  0  0  0  0  0  0  0  0
   24.0445  -16.7422  -17.7970 C   0  0  0  0  0  0  0  0  0  0  0  0
   24.9425  -17.2332  -16.8793 C   0  0  1  0  0  0  0  0  0  0  0  0
   24.4089  -18.5126  -16.2436 N   0  0  0  0  0  0  0  0  0  0  0  0
   25.4501  -18.9878  -15.3424 C   0  0  0  0  0  0  0  0  0  0  0  0
   24.2079  -19.5426  -17.2872 O   0  0  0  0  0  0  0  0  0  0  0  0
   25.1654  -20.2941  -17.6724 O   0  0  0  0  0  0  0  0  0  0  0  0
  1  2  1  0
  2  3  2  0
  4  5  1  0
  4  2  1  0
  6  7  1  0
  6  5  1  0
  7  8  1  0
  8 10  1  0
  8  9  1  1
 10 11  2  0
 10 12  1  0
 12 13  1  0
 13 16  1  0
 13 14  1  1
 14 15  1  0
 16 17  2  0
 18 19  1  0
 20 19  1  1
 21 20  1  0
 21 16  1  0
 22 24  1  0
 22 20  1  0
 23 22  2  0
M  END
$$$$
