RCS.pdb
     RDKit          3D

 24 23  0  0  1  0  0  0  0  0999 V2000
   18.3679  -14.3813  -20.7493 N   0  0  0  0  0  0  0  0  0  0  0  0
   17.1120  -14.5432  -20.0994 C   0  0  0  0  0  0  0  0  0  0  0  0
   16.2001  -15.3777  -20.5119 N   0  0  0  0  0  0  0  0  0  0  0  0
   16.7858  -13.7770  -18.9342 N   0  0  0  0  0  0  0  0  0  0  0  0
   17.7804  -12.9193  -18.3130 C   0  0  0  0  0  0  0  0  0  0  0  0
   17.1533  -12.1281  -17.2091 C   0  0  0  0  0  0  0  0  0  0  0  0
   18.0649  -11.1963  -16.4869 C   0  0  0  0  0  0  0  0  0  0  0  0
   19.4344  -11.7189  -16.2157 C   0  0  2  0  0  0  0  0  0  0  0  0
   19.5050  -12.9200  -15.4494 N   0  0  0  0  0  0  0  0  0  0  0  0
   20.2013  -10.6535  -15.4934 C   0  0  0  0  0  0  0  0  0  0  0  0
   19.7826  -10.1622  -14.4331 O   0  0  0  0  0  0  0  0  0  0  0  0
   15.3406  -15.4513  -19.9330 N   0  0  0  0  0  0  0  0  0  0  0  0
   21.4318  -10.2326  -16.0832 C   0  0  1  0  0  0  0  0  0  0  0  0
   22.2624   -9.3020  -15.2867 C   0  0  0  0  0  0  0  0  0  0  0  0
   23.6884   -9.6783  -15.6577 S   0  0  0  0  0  0  0  0  0  0  0  0
   24.3044  -11.0405  -14.6481 C   0  0  0  0  0  0  0  0  0  0  0  0
   21.9773   -7.9241  -15.7147 O   0  0  0  0  0  0  0  0  0  0  0  0
   21.9967   -7.5601  -16.9243 O   0  0  0  0  0  0  0  0  0  0  0  0
   20.2053   -5.3503  -13.1482 C   0  0  0  0  0  0  0  0  0  0  0  0
   20.1373   -5.1057  -14.4993 C   0  0  1  0  0  0  0  0  0  0  0  0
   21.4239   -5.5506  -15.1866 N   0  0  0  0  0  0  0  0  0  0  0  0
   21.6601   -6.9247  -14.7649 C   0  0  0  0  0  0  0  0  0  0  0  0
   22.5568   -4.7280  -14.7064 O   0  0  0  0  0  0  0  0  0  0  0  0
   22.6241   -3.4782  -14.9579 O   0  0  0  0  0  0  0  0  0  0  0  0
  1  2  1  0
  2  3  2  0
  4  5  1  0
  4  2  1  0
  6  7  1  0
  6  5  1  0
  7  8  1  0
  8 10  1  0
  8  9  1  1
 10 11  2  0
 10 12  1  0
 12 13  1  0
 13 16  1  0
 13 14  1  1
 14 15  1  0
 16 17  2  0
 18 19  1  0
 20 19  1  6
 21 20  1  0
 21 16  1  0
 22 24  1  0
 22 20  1  0
 23 22  2  0
M  END
$$$$
