RCS.pdb
     RDKit          3D

 24 23  0  0  1  0  0  0  0  0999 V2000
   21.3270  -28.1951  -11.4760 N   0  0  0  0  0  0  0  0  0  0  0  0
   20.0884  -28.3669  -10.7959 C   0  0  0  0  0  0  0  0  0  0  0  0
   19.7041  -29.5070  -10.2954 N   0  0  0  0  0  0  0  0  0  0  0  0
   19.1864  -27.2673  -10.6274 N   0  0  0  0  0  0  0  0  0  0  0  0
   19.4948  -25.9664  -11.1957 C   0  0  0  0  0  0  0  0  0  0  0  0
   18.7604  -25.7870  -12.4866 C   0  0  0  0  0  0  0  0  0  0  0  0
   18.9374  -24.4640  -13.1493 C   0  0  0  0  0  0  0  0  0  0  0  0
   18.5737  -23.2778  -12.3231 C   0  0  2  0  0  0  0  0  0  0  0  0
   17.1844  -23.1110  -12.0459 N   0  0  0  0  0  0  0  0  0  0  0  0
   19.0630  -22.0523  -13.0328 C   0  0  0  0  0  0  0  0  0  0  0  0
   18.2877  -21.3223  -13.6708 O   0  0  0  0  0  0  0  0  0  0  0  0
   18.7420  -29.5433   -9.9053 N   0  0  0  0  0  0  0  0  0  0  0  0
   20.4592  -21.7676  -12.9401 C   0  0  2  0  0  0  0  0  0  0  0  0
   20.9281  -20.5333  -13.6087 C   0  0  0  0  0  0  0  0  0  0  0  0
   22.3064  -20.2967  -13.0112 S   0  0  0  0  0  0  0  0  0  0  0  0
   23.3922  -21.7170  -13.2524 C   0  0  0  0  0  0  0  0  0  0  0  0
   21.0418  -20.7881  -15.0527 O   0  0  0  0  0  0  0  0  0  0  0  0
   21.1684  -21.9466  -15.5405 O   0  0  0  0  0  0  0  0  0  0  0  0
   18.8598  -19.2775  -17.7996 C   0  0  0  0  0  0  0  0  0  0  0  0
   20.1705  -18.9778  -18.0859 C   0  0  2  0  0  0  0  0  0  0  0  0
   21.1051  -19.9750  -17.4094 N   0  0  0  0  0  0  0  0  0  0  0  0
   21.0120  -19.7186  -15.9785 C   0  0  0  0  0  0  0  0  0  0  0  0
   22.5008  -19.7139  -17.8268 O   0  0  0  0  0  0  0  0  0  0  0  0
   23.3209  -19.1058  -17.0603 O   0  0  0  0  0  0  0  0  0  0  0  0
  1  2  1  0
  2  3  2  0
  4  5  1  0
  4  2  1  0
  6  7  1  0
  6  5  1  0
  7  8  1  0
  8 10  1  0
  8  9  1  6
 10 11  2  0
 10 12  1  0
 12 13  1  0
 13 16  1  0
 13 14  1  1
 14 15  1  0
 16 17  2  0
 18 19  1  0
 20 19  1  1
 21 20  1  0
 21 16  1  0
 22 24  1  0
 22 20  1  0
 23 22  2  0
M  END
$$$$
