RCS.pdb
     RDKit          3D

 24 23  0  0  1  0  0  0  0  0999 V2000
   11.6338  -12.8919  -11.8595 N   0  0  0  0  0  0  0  0  0  0  0  0
   11.6493  -11.4712  -11.7736 C   0  0  0  0  0  0  0  0  0  0  0  0
   11.1839  -10.8157  -10.7480 N   0  0  0  0  0  0  0  0  0  0  0  0
   12.1900  -10.6787  -12.8369 N   0  0  0  0  0  0  0  0  0  0  0  0
   12.5498  -11.2913  -14.1041 C   0  0  0  0  0  0  0  0  0  0  0  0
   14.0102  -11.6156  -14.1171 C   0  0  0  0  0  0  0  0  0  0  0  0
   14.9301  -10.4442  -14.0672 C   0  0  0  0  0  0  0  0  0  0  0  0
   16.3735  -10.7515  -14.2771 C   0  0  2  0  0  0  0  0  0  0  0  0
   16.7501  -12.1190  -14.1258 N   0  0  0  0  0  0  0  0  0  0  0  0
   17.1667   -9.9339  -13.3039 C   0  0  0  0  0  0  0  0  0  0  0  0
   17.3311  -10.3055  -12.1310 O   0  0  0  0  0  0  0  0  0  0  0  0
   11.2270   -9.7790  -10.7998 N   0  0  0  0  0  0  0  0  0  0  0  0
   17.7209   -8.7110  -13.7903 C   0  0  2  0  0  0  0  0  0  0  0  0
   18.4999   -7.9070  -12.8222 C   0  0  0  0  0  0  0  0  0  0  0  0
   19.6309   -7.3271  -13.6574 S   0  0  0  0  0  0  0  0  0  0  0  0
   20.6137   -6.1403  -12.7194 C   0  0  0  0  0  0  0  0  0  0  0  0
   17.6475   -6.8247  -12.3075 O   0  0  0  0  0  0  0  0  0  0  0  0
   16.8233   -6.1943  -13.0281 O   0  0  0  0  0  0  0  0  0  0  0  0
   18.0482   -5.6928   -8.3951 C   0  0  0  0  0  0  0  0  0  0  0  0
   16.7891   -5.5610   -8.9309 C   0  0  1  0  0  0  0  0  0  0  0  0
   16.8707   -5.3646  -10.4410 N   0  0  0  0  0  0  0  0  0  0  0  0
   17.7166   -6.4363  -10.9487 C   0  0  0  0  0  0  0  0  0  0  0  0
   17.5387   -4.0787  -10.7421 O   0  0  0  0  0  0  0  0  0  0  0  0
   18.6464   -4.0376  -11.3755 O   0  0  0  0  0  0  0  0  0  0  0  0
  1  2  1  0
  2  3  2  0
  4  5  1  0
  4  2  1  0
  6  7  1  0
  6  5  1  0
  7  8  1  0
  8 10  1  0
  8  9  1  1
 10 11  2  0
 10 12  1  0
 12 13  1  0
 13 16  1  0
 13 14  1  6
 14 15  1  0
 16 17  2  0
 18 19  1  0
 20 19  1  6
 21 20  1  0
 21 16  1  0
 22 24  1  0
 22 20  1  0
 23 22  2  0
M  END
$$$$
