RCS.pdb
     RDKit          3D

 24 23  0  0  1  0  0  0  0  0999 V2000
   24.9790  -21.7447  -11.2421 N   0  0  0  0  0  0  0  0  0  0  0  0
   26.3797  -21.9707  -11.3567 C   0  0  0  0  0  0  0  0  0  0  0  0
   27.2339  -21.6226  -10.4362 N   0  0  0  0  0  0  0  0  0  0  0  0
   26.9268  -22.6061  -12.5178 N   0  0  0  0  0  0  0  0  0  0  0  0
   27.3566  -21.8153  -13.6581 C   0  0  0  0  0  0  0  0  0  0  0  0
   26.1888  -21.5258  -14.5470 C   0  0  0  0  0  0  0  0  0  0  0  0
   25.9210  -20.0833  -14.8086 C   0  0  0  0  0  0  0  0  0  0  0  0
   26.7285  -19.4676  -15.8999 C   0  0  2  0  0  0  0  0  0  0  0  0
   28.0753  -19.9233  -16.0146 N   0  0  0  0  0  0  0  0  0  0  0  0
   26.7497  -17.9857  -15.6798 C   0  0  0  0  0  0  0  0  0  0  0  0
   27.7682  -17.4082  -15.2673 O   0  0  0  0  0  0  0  0  0  0  0  0
   28.2403  -21.7249  -10.6727 N   0  0  0  0  0  0  0  0  0  0  0  0
   25.5451  -17.2741  -15.9659 C   0  0  1  0  0  0  0  0  0  0  0  0
   25.5737  -15.8108  -15.7460 C   0  0  0  0  0  0  0  0  0  0  0  0
   26.6305  -15.3166  -16.7216 S   0  0  0  0  0  0  0  0  0  0  0  0
   26.6966  -13.5147  -16.7791 C   0  0  0  0  0  0  0  0  0  0  0  0
   24.2605  -15.2506  -16.0992 O   0  0  0  0  0  0  0  0  0  0  0  0
   23.6956  -15.4648  -17.2087 O   0  0  0  0  0  0  0  0  0  0  0  0
   20.5454  -12.5408  -14.5532 C   0  0  0  0  0  0  0  0  0  0  0  0
   21.7531  -13.1451  -14.2961 C   0  0  1  0  0  0  0  0  0  0  0  0
   22.2438  -13.9000  -15.5269 N   0  0  0  0  0  0  0  0  0  0  0  0
   23.5577  -14.4290  -15.1867 C   0  0  0  0  0  0  0  0  0  0  0  0
   22.4128  -12.9582  -16.6560 O   0  0  0  0  0  0  0  0  0  0  0  0
   23.4858  -12.2820  -16.8024 O   0  0  0  0  0  0  0  0  0  0  0  0
  1  2  1  0
  2  3  2  0
  4  5  1  0
  4  2  1  0
  6  7  1  0
  6  5  1  0
  7  8  1  0
  8 10  1  0
  8  9  1  1
 10 11  2  0
 10 12  1  0
 12 13  1  0
 13 16  1  0
 13 14  1  1
 14 15  1  0
 16 17  2  0
 18 19  1  0
 20 19  1  1
 21 20  1  0
 21 16  1  0
 22 24  1  0
 22 20  1  0
 23 22  2  0
M  END
$$$$
