RCS.pdb
     RDKit          3D

 24 23  0  0  1  0  0  0  0  0999 V2000
   18.7394  -25.2720  -10.0537 N   0  0  0  0  0  0  0  0  0  0  0  0
   17.8690  -24.1590  -10.2266 C   0  0  0  0  0  0  0  0  0  0  0  0
   16.9725  -23.8139   -9.3462 N   0  0  0  0  0  0  0  0  0  0  0  0
   17.9412  -23.3486  -11.4052 N   0  0  0  0  0  0  0  0  0  0  0  0
   19.1689  -23.2792  -12.1787 C   0  0  0  0  0  0  0  0  0  0  0  0
   20.1523  -22.3829  -11.4950 C   0  0  0  0  0  0  0  0  0  0  0  0
   21.4285  -22.1495  -12.2282 C   0  0  0  0  0  0  0  0  0  0  0  0
   21.5610  -20.8148  -12.8786 C   0  0  2  0  0  0  0  0  0  0  0  0
   21.0705  -20.7188  -14.2146 N   0  0  0  0  0  0  0  0  0  0  0  0
   23.0127  -20.4440  -12.8819 C   0  0  0  0  0  0  0  0  0  0  0  0
   23.5241  -19.8438  -13.8407 O   0  0  0  0  0  0  0  0  0  0  0  0
   16.3935  -22.9817   -9.5733 N   0  0  0  0  0  0  0  0  0  0  0  0
   23.7754  -20.8145  -11.7329 C   0  0  2  0  0  0  0  0  0  0  0  0
   25.2197  -20.4928  -11.7664 C   0  0  0  0  0  0  0  0  0  0  0  0
   25.6797  -20.7343  -10.3371 S   0  0  0  0  0  0  0  0  0  0  0  0
   24.2954  -20.7336   -9.1804 C   0  0  0  0  0  0  0  0  0  0  0  0
   25.8948  -21.4290  -12.6779 O   0  0  0  0  0  0  0  0  0  0  0  0
   25.5807  -22.6492  -12.7696 O   0  0  0  0  0  0  0  0  0  0  0  0
   25.8075  -22.7335  -16.4616 C   0  0  0  0  0  0  0  0  0  0  0  0
   25.7751  -22.2187  -15.1873 C   0  0  1  0  0  0  0  0  0  0  0  0
   27.0817  -21.4993  -14.8700 N   0  0  0  0  0  0  0  0  0  0  0  0
   26.9498  -20.9894  -13.5119 C   0  0  0  0  0  0  0  0  0  0  0  0
   27.2463  -20.3401  -15.7754 O   0  0  0  0  0  0  0  0  0  0  0  0
   26.5781  -19.2654  -15.6071 O   0  0  0  0  0  0  0  0  0  0  0  0
  1  2  1  0
  2  3  2  0
  4  5  1  0
  4  2  1  0
  6  7  1  0
  6  5  1  0
  7  8  1  0
  8 10  1  0
  8  9  1  6
 10 11  2  0
 10 12  1  0
 12 13  1  0
 13 16  1  0
 13 14  1  1
 14 15  1  0
 16 17  2  0
 18 19  1  0
 20 19  1  1
 21 20  1  0
 21 16  1  0
 22 24  1  0
 22 20  1  0
 23 22  2  0
M  END
$$$$
