RCS.pdb
     RDKit          3D

 24 23  0  0  1  0  0  0  0  0999 V2000
   26.6812  -20.6758   -8.2643 N   0  0  0  0  0  0  0  0  0  0  0  0
   25.3013  -21.0228   -8.3019 C   0  0  0  0  0  0  0  0  0  0  0  0
   24.5266  -20.9723   -7.2553 N   0  0  0  0  0  0  0  0  0  0  0  0
   24.6871  -21.4539   -9.5218 N   0  0  0  0  0  0  0  0  0  0  0  0
   25.5010  -21.8857  -10.6450 C   0  0  0  0  0  0  0  0  0  0  0  0
   24.6250  -22.2188  -11.8110 C   0  0  0  0  0  0  0  0  0  0  0  0
   24.4410  -21.1284  -12.8101 C   0  0  0  0  0  0  0  0  0  0  0  0
   25.5088  -21.0179  -13.8444 C   0  0  2  0  0  0  0  0  0  0  0  0
   26.8015  -21.4833  -13.4608 N   0  0  0  0  0  0  0  0  0  0  0  0
   25.6245  -19.5767  -14.2375 C   0  0  0  0  0  0  0  0  0  0  0  0
   26.1834  -18.7488  -13.5005 O   0  0  0  0  0  0  0  0  0  0  0  0
   23.5477  -21.2953   -7.3849 N   0  0  0  0  0  0  0  0  0  0  0  0
   25.0615  -19.2044  -15.4959 C   0  0  1  0  0  0  0  0  0  0  0  0
   25.2882  -17.8093  -15.9347 C   0  0  0  0  0  0  0  0  0  0  0  0
   26.6080  -17.8743  -16.6877 S   0  0  0  0  0  0  0  0  0  0  0  0
   27.9948  -18.1940  -15.5791 C   0  0  0  0  0  0  0  0  0  0  0  0
   24.2054  -17.4159  -16.8490 O   0  0  0  0  0  0  0  0  0  0  0  0
   23.7219  -18.1932  -17.7197 O   0  0  0  0  0  0  0  0  0  0  0  0
   22.8822  -13.5869  -16.7443 C   0  0  0  0  0  0  0  0  0  0  0  0
   21.8890  -14.5114  -16.9646 C   0  0  1  0  0  0  0  0  0  0  0  0
   22.4695  -15.7809  -17.5786 N   0  0  0  0  0  0  0  0  0  0  0  0
   23.6457  -16.1180  -16.7881 C   0  0  0  0  0  0  0  0  0  0  0  0
   22.9169  -15.5069  -18.9626 O   0  0  0  0  0  0  0  0  0  0  0  0
   24.1530  -15.3561  -19.2438 O   0  0  0  0  0  0  0  0  0  0  0  0
  1  2  1  0
  2  3  2  0
  4  5  1  0
  4  2  1  0
  6  7  1  0
  6  5  1  0
  7  8  1  0
  8 10  1  0
  8  9  1  1
 10 11  2  0
 10 12  1  0
 12 13  1  0
 13 16  1  0
 13 14  1  1
 14 15  1  0
 16 17  2  0
 18 19  1  0
 20 19  1  1
 21 20  1  0
 21 16  1  0
 22 24  1  0
 22 20  1  0
 23 22  2  0
M  END
$$$$
