RCS.pdb
     RDKit          3D

 24 23  0  0  1  0  0  0  0  0999 V2000
   15.4211  -11.7312  -17.6253 N   0  0  0  0  0  0  0  0  0  0  0  0
   15.5857  -13.1413  -17.7283 C   0  0  0  0  0  0  0  0  0  0  0  0
   14.5948  -13.9588  -17.9469 N   0  0  0  0  0  0  0  0  0  0  0  0
   16.8797  -13.7398  -17.5926 N   0  0  0  0  0  0  0  0  0  0  0  0
   18.0452  -12.9206  -17.3079 C   0  0  0  0  0  0  0  0  0  0  0  0
   18.6325  -12.4082  -18.5848 C   0  0  0  0  0  0  0  0  0  0  0  0
   19.8216  -11.5223  -18.4365 C   0  0  0  0  0  0  0  0  0  0  0  0
   20.8831  -12.0204  -17.5161 C   0  0  2  0  0  0  0  0  0  0  0  0
   20.7173  -13.3523  -17.0330 N   0  0  0  0  0  0  0  0  0  0  0  0
   20.9452  -11.0963  -16.3384 C   0  0  0  0  0  0  0  0  0  0  0  0
   20.0880  -11.1344  -15.4414 O   0  0  0  0  0  0  0  0  0  0  0  0
   14.8225  -14.9723  -17.9624 N   0  0  0  0  0  0  0  0  0  0  0  0
   22.0340  -10.1732  -16.2999 C   0  0  1  0  0  0  0  0  0  0  0  0
   22.0935   -9.2697  -15.1292 C   0  0  0  0  0  0  0  0  0  0  0  0
   23.2902   -9.7760  -14.3390 S   0  0  0  0  0  0  0  0  0  0  0  0
   24.7513   -9.9569  -15.3815 C   0  0  0  0  0  0  0  0  0  0  0  0
   22.3432   -7.8984  -15.5985 O   0  0  0  0  0  0  0  0  0  0  0  0
   23.1412   -7.6264  -16.5394 O   0  0  0  0  0  0  0  0  0  0  0  0
   19.6377   -5.1377  -15.1765 C   0  0  0  0  0  0  0  0  0  0  0  0
   20.7048   -4.8638  -15.9988 C   0  0  1  0  0  0  0  0  0  0  0  0
   21.9904   -5.4367  -15.4118 N   0  0  0  0  0  0  0  0  0  0  0  0
   21.6818   -6.7997  -15.0008 C   0  0  0  0  0  0  0  0  0  0  0  0
   22.3705   -4.6736  -14.2019 O   0  0  0  0  0  0  0  0  0  0  0  0
   22.3511   -5.2109  -13.0440 O   0  0  0  0  0  0  0  0  0  0  0  0
  1  2  1  0
  2  3  2  0
  4  5  1  0
  4  2  1  0
  6  7  1  0
  6  5  1  0
  7  8  1  0
  8 10  1  0
  8  9  1  1
 10 11  2  0
 10 12  1  0
 12 13  1  0
 13 16  1  0
 13 14  1  1
 14 15  1  0
 16 17  2  0
 18 19  1  0
 20 19  1  6
 21 20  1  0
 21 16  1  0
 22 24  1  0
 22 20  1  0
 23 22  2  0
M  END
$$$$
