RCS.pdb
     RDKit          3D

 24 23  0  0  1  0  0  0  0  0999 V2000
   24.0101  -23.1138  -16.2149 N   0  0  0  0  0  0  0  0  0  0  0  0
   23.9859  -24.4873  -15.8420 C   0  0  0  0  0  0  0  0  0  0  0  0
   23.6106  -25.4373  -16.6511 N   0  0  0  0  0  0  0  0  0  0  0  0
   24.3826  -24.8969  -14.5283 N   0  0  0  0  0  0  0  0  0  0  0  0
   24.8409  -23.9184  -13.5573 C   0  0  0  0  0  0  0  0  0  0  0  0
   23.7333  -22.9677  -13.2298 C   0  0  0  0  0  0  0  0  0  0  0  0
   24.1255  -21.7737  -12.4289 C   0  0  0  0  0  0  0  0  0  0  0  0
   25.5854  -21.4741  -12.3951 C   0  0  2  0  0  0  0  0  0  0  0  0
   26.0997  -21.0096  -11.1483 N   0  0  0  0  0  0  0  0  0  0  0  0
   25.8688  -20.4361  -13.4378 C   0  0  0  0  0  0  0  0  0  0  0  0
   25.5947  -19.2401  -13.2500 O   0  0  0  0  0  0  0  0  0  0  0  0
   23.5948  -26.4005  -16.2622 N   0  0  0  0  0  0  0  0  0  0  0  0
   26.4661  -20.8893  -14.6531 C   0  0  2  0  0  0  0  0  0  0  0  0
   26.7104  -19.8639  -15.6920 C   0  0  0  0  0  0  0  0  0  0  0  0
   28.1034  -20.1919  -16.2066 S   0  0  0  0  0  0  0  0  0  0  0  0
   28.5564  -21.9042  -15.8645 C   0  0  0  0  0  0  0  0  0  0  0  0
   25.7229  -20.0326  -16.7687 O   0  0  0  0  0  0  0  0  0  0  0  0
   24.8860  -20.9786  -16.7945 O   0  0  0  0  0  0  0  0  0  0  0  0
   22.8501  -16.9010  -17.4189 C   0  0  0  0  0  0  0  0  0  0  0  0
   23.9868  -17.6008  -17.0901 C   0  0  1  0  0  0  0  0  0  0  0  0
   24.4023  -18.5125  -18.2399 N   0  0  0  0  0  0  0  0  0  0  0  0
   25.6675  -19.1178  -17.8466 C   0  0  0  0  0  0  0  0  0  0  0  0
   24.6451  -17.7041  -19.4556 O   0  0  0  0  0  0  0  0  0  0  0  0
   23.7117  -17.4678  -20.2939 O   0  0  0  0  0  0  0  0  0  0  0  0
  1  2  1  0
  2  3  2  0
  4  5  1  0
  4  2  1  0
  6  7  1  0
  6  5  1  0
  7  8  1  0
  8 10  1  0
  8  9  1  1
 10 11  2  0
 10 12  1  0
 12 13  1  0
 13 16  1  0
 13 14  1  1
 14 15  1  0
 16 17  2  0
 18 19  1  0
 20 19  1  1
 21 20  1  0
 21 16  1  0
 22 24  1  0
 22 20  1  0
 23 22  2  0
M  END
$$$$
