RCS.pdb
     RDKit          3D

 24 23  0  0  1  0  0  0  0  0999 V2000
   17.4576  -12.7979  -14.0831 N   0  0  0  0  0  0  0  0  0  0  0  0
   17.9612  -11.4781  -13.9079 C   0  0  0  0  0  0  0  0  0  0  0  0
   18.4549  -10.7700  -14.8841 N   0  0  0  0  0  0  0  0  0  0  0  0
   17.9478  -10.8538  -12.6191 N   0  0  0  0  0  0  0  0  0  0  0  0
   17.0164  -11.2950  -11.5952 C   0  0  0  0  0  0  0  0  0  0  0  0
   15.6207  -10.9172  -11.9788 C   0  0  0  0  0  0  0  0  0  0  0  0
   15.1263   -9.6274  -11.4196 C   0  0  0  0  0  0  0  0  0  0  0  0
   14.6245   -9.6854  -10.0172 C   0  0  2  0  0  0  0  0  0  0  0  0
   13.4773  -10.5041   -9.7969 N   0  0  0  0  0  0  0  0  0  0  0  0
   14.2966   -8.2887   -9.5851 C   0  0  0  0  0  0  0  0  0  0  0  0
   13.2285   -7.7459   -9.9099 O   0  0  0  0  0  0  0  0  0  0  0  0
   18.8103   -9.8248  -14.6399 N   0  0  0  0  0  0  0  0  0  0  0  0
   15.2698   -7.6158   -8.7856 C   0  0  1  0  0  0  0  0  0  0  0  0
   14.9430   -6.2333   -8.3707 C   0  0  0  0  0  0  0  0  0  0  0  0
   14.6543   -6.3584   -6.8828 S   0  0  0  0  0  0  0  0  0  0  0  0
   13.0904   -7.2029   -6.5741 C   0  0  0  0  0  0  0  0  0  0  0  0
   16.1220   -5.3807   -8.5853 O   0  0  0  0  0  0  0  0  0  0  0  0
   17.3075   -5.8056   -8.4852 O   0  0  0  0  0  0  0  0  0  0  0  0
   18.1257   -3.2436  -11.7104 C   0  0  0  0  0  0  0  0  0  0  0  0
   17.2656   -3.9780  -10.9290 C   0  0  1  0  0  0  0  0  0  0  0  0
   17.0517   -3.2930   -9.5834 N   0  0  0  0  0  0  0  0  0  0  0  0
   15.9726   -4.0148   -8.9227 C   0  0  0  0  0  0  0  0  0  0  0  0
   16.6002   -1.9000   -9.7983 O   0  0  0  0  0  0  0  0  0  0  0  0
   15.3867   -1.6324  -10.0910 O   0  0  0  0  0  0  0  0  0  0  0  0
  1  2  1  0
  2  3  2  0
  4  5  1  0
  4  2  1  0
  6  7  1  0
  6  5  1  0
  7  8  1  0
  8 10  1  0
  8  9  1  6
 10 11  2  0
 10 12  1  0
 12 13  1  0
 13 16  1  0
 13 14  1  6
 14 15  1  0
 16 17  2  0
 18 19  1  0
 20 19  1  1
 21 20  1  0
 21 16  1  0
 22 24  1  0
 22 20  1  0
 23 22  2  0
M  END
$$$$
