RCS.pdb
     RDKit          3D

 24 23  0  0  1  0  0  0  0  0999 V2000
   26.6622  -13.6378  -15.2338 N   0  0  0  0  0  0  0  0  0  0  0  0
   26.4477  -13.9861  -16.5972 C   0  0  0  0  0  0  0  0  0  0  0  0
   25.7331  -13.2627  -17.4120 N   0  0  0  0  0  0  0  0  0  0  0  0
   27.0217  -15.1769  -17.1482 N   0  0  0  0  0  0  0  0  0  0  0  0
   27.6234  -16.1753  -16.2812 C   0  0  0  0  0  0  0  0  0  0  0  0
   26.6643  -17.3015  -16.0583 C   0  0  0  0  0  0  0  0  0  0  0  0
   26.8356  -18.0495  -14.7808 C   0  0  0  0  0  0  0  0  0  0  0  0
   27.4141  -19.4173  -14.9097 C   0  0  2  0  0  0  0  0  0  0  0  0
   27.5255  -19.9264  -16.2375 N   0  0  0  0  0  0  0  0  0  0  0  0
   26.5603  -20.3574  -14.1147 C   0  0  0  0  0  0  0  0  0  0  0  0
   25.8359  -21.1987  -14.6699 O   0  0  0  0  0  0  0  0  0  0  0  0
   25.3978  -12.3483  -17.0503 N   0  0  0  0  0  0  0  0  0  0  0  0
   26.6204  -20.2373  -12.6930 C   0  0  2  0  0  0  0  0  0  0  0  0
   25.6536  -21.0484  -11.9197 C   0  0  0  0  0  0  0  0  0  0  0  0
   26.0876  -20.8527  -10.4753 S   0  0  0  0  0  0  0  0  0  0  0  0
   24.8586  -21.4863   -9.3166 C   0  0  0  0  0  0  0  0  0  0  0  0
   24.3042  -20.4987  -12.1193 O   0  0  0  0  0  0  0  0  0  0  0  0
   24.0303  -19.2740  -11.9739 O   0  0  0  0  0  0  0  0  0  0  0  0
   21.9926  -21.8235  -14.8298 C   0  0  0  0  0  0  0  0  0  0  0  0
   21.6994  -20.6442  -14.1871 C   0  0  1  0  0  0  0  0  0  0  0  0
   21.8929  -20.7952  -12.6820 N   0  0  0  0  0  0  0  0  0  0  0  0
   23.2304  -21.3406  -12.4932 C   0  0  0  0  0  0  0  0  0  0  0  0
   20.9231  -21.7786  -12.1500 O   0  0  0  0  0  0  0  0  0  0  0  0
   21.3097  -22.8788  -11.6303 O   0  0  0  0  0  0  0  0  0  0  0  0
  1  2  1  0
  2  3  2  0
  4  5  1  0
  4  2  1  0
  6  7  1  0
  6  5  1  0
  7  8  1  0
  8 10  1  0
  8  9  1  6
 10 11  2  0
 10 12  1  0
 12 13  1  0
 13 16  1  0
 13 14  1  1
 14 15  1  0
 16 17  2  0
 18 19  1  0
 20 19  1  1
 21 20  1  0
 21 16  1  0
 22 24  1  0
 22 20  1  0
 23 22  2  0
M  END
$$$$
