RCS.pdb
     RDKit          3D

 24 23  0  0  1  0  0  0  0  0999 V2000
   29.0499  -24.8504  -18.2685 N   0  0  0  0  0  0  0  0  0  0  0  0
   28.6152  -26.0021  -17.5537 C   0  0  0  0  0  0  0  0  0  0  0  0
   29.3720  -27.0443  -17.3564 N   0  0  0  0  0  0  0  0  0  0  0  0
   27.2936  -26.0688  -17.0059 N   0  0  0  0  0  0  0  0  0  0  0  0
   26.4083  -24.9189  -17.0727 C   0  0  0  0  0  0  0  0  0  0  0  0
   26.9980  -23.7764  -16.3079 C   0  0  0  0  0  0  0  0  0  0  0  0
   26.0467  -23.0200  -15.4455 C   0  0  0  0  0  0  0  0  0  0  0  0
   25.3924  -23.8101  -14.3640 C   0  0  2  0  0  0  0  0  0  0  0  0
   24.7769  -25.0322  -14.7674 N   0  0  0  0  0  0  0  0  0  0  0  0
   24.3485  -22.9451  -13.7261 C   0  0  0  0  0  0  0  0  0  0  0  0
   23.1600  -22.9990  -14.0802 O   0  0  0  0  0  0  0  0  0  0  0  0
   28.9637  -27.8160  -16.7935 N   0  0  0  0  0  0  0  0  0  0  0  0
   24.7872  -22.0588  -12.6959 C   0  0  1  0  0  0  0  0  0  0  0  0
   23.7493  -21.2125  -12.0658 C   0  0  0  0  0  0  0  0  0  0  0  0
   24.4856  -20.5178  -10.9309 S   0  0  0  0  0  0  0  0  0  0  0  0
   25.0781  -21.6949   -9.6990 C   0  0  0  0  0  0  0  0  0  0  0  0
   23.2841  -20.2203  -13.0467 O   0  0  0  0  0  0  0  0  0  0  0  0
   23.9849  -19.8380  -14.0259 O   0  0  0  0  0  0  0  0  0  0  0  0
   20.1862  -20.7256  -15.8607 C   0  0  0  0  0  0  0  0  0  0  0  0
   20.9673  -20.8172  -14.7332 C   0  0  1  0  0  0  0  0  0  0  0  0
   21.1684  -19.4394  -14.1111 N   0  0  0  0  0  0  0  0  0  0  0  0
   21.9992  -19.6395  -12.9314 C   0  0  0  0  0  0  0  0  0  0  0  0
   19.8658  -18.8993  -13.6619 O   0  0  0  0  0  0  0  0  0  0  0  0
   19.1849  -18.1087  -14.3976 O   0  0  0  0  0  0  0  0  0  0  0  0
  1  2  1  0
  2  3  2  0
  4  5  1  0
  4  2  1  0
  6  7  1  0
  6  5  1  0
  7  8  1  0
  8 10  1  0
  8  9  1  6
 10 11  2  0
 10 12  1  0
 12 13  1  0
 13 16  1  0
 13 14  1  1
 14 15  1  0
 16 17  2  0
 18 19  1  0
 20 19  1  6
 21 20  1  0
 21 16  1  0
 22 24  1  0
 22 20  1  0
 23 22  2  0
M  END
$$$$
