RCS.pdb
     RDKit          3D

 24 23  0  0  1  0  0  0  0  0999 V2000
   18.9437  -24.6034   -8.5668 N   0  0  0  0  0  0  0  0  0  0  0  0
   17.6505  -24.0446   -8.7705 C   0  0  0  0  0  0  0  0  0  0  0  0
   16.5519  -24.6426   -8.4053 N   0  0  0  0  0  0  0  0  0  0  0  0
   17.4949  -22.7685   -9.4017 N   0  0  0  0  0  0  0  0  0  0  0  0
   18.1931  -22.4677  -10.6396 C   0  0  0  0  0  0  0  0  0  0  0  0
   19.6665  -22.3984  -10.3901 C   0  0  0  0  0  0  0  0  0  0  0  0
   20.5062  -22.0777  -11.5787 C   0  0  0  0  0  0  0  0  0  0  0  0
   20.7998  -20.6310  -11.7863 C   0  0  2  0  0  0  0  0  0  0  0  0
   19.6691  -19.7878  -11.9991 N   0  0  0  0  0  0  0  0  0  0  0  0
   21.7083  -20.5090  -12.9715 C   0  0  0  0  0  0  0  0  0  0  0  0
   22.6904  -21.2551  -13.1124 O   0  0  0  0  0  0  0  0  0  0  0  0
   15.6603  -24.1754   -8.6622 N   0  0  0  0  0  0  0  0  0  0  0  0
   21.3902  -19.4957  -13.9261 C   0  0  1  0  0  0  0  0  0  0  0  0
   22.3020  -19.3698  -15.0851 C   0  0  0  0  0  0  0  0  0  0  0  0
   21.3996  -19.6082  -16.2858 S   0  0  0  0  0  0  0  0  0  0  0  0
   22.2081  -19.1479  -17.8313 C   0  0  0  0  0  0  0  0  0  0  0  0
   22.8386  -18.0009  -15.1220 O   0  0  0  0  0  0  0  0  0  0  0  0
   22.1196  -16.9742  -14.9642 O   0  0  0  0  0  0  0  0  0  0  0  0
   26.9332  -17.3955  -15.3258 C   0  0  0  0  0  0  0  0  0  0  0  0
   26.1256  -16.5216  -14.6375 C   0  0  1  0  0  0  0  0  0  0  0  0
   24.7587  -16.4203  -15.3060 N   0  0  0  0  0  0  0  0  0  0  0  0
   24.2177  -17.7723  -15.3401 C   0  0  0  0  0  0  0  0  0  0  0  0
   24.9191  -15.9608  -16.7037 O   0  0  0  0  0  0  0  0  0  0  0  0
   24.7214  -16.7484  -17.6889 O   0  0  0  0  0  0  0  0  0  0  0  0
  1  2  1  0
  2  3  2  0
  4  5  1  0
  4  2  1  0
  6  7  1  0
  6  5  1  0
  7  8  1  0
  8 10  1  0
  8  9  1  6
 10 11  2  0
 10 12  1  0
 12 13  1  0
 13 16  1  0
 13 14  1  1
 14 15  1  0
 16 17  2  0
 18 19  1  0
 20 19  1  1
 21 20  1  0
 21 16  1  0
 22 24  1  0
 22 20  1  0
 23 22  2  0
M  END
$$$$
