RCS.pdb
     RDKit          3D

 24 23  0  0  1  0  0  0  0  0999 V2000
   23.0491  -21.9109   -7.4506 N   0  0  0  0  0  0  0  0  0  0  0  0
   21.8080  -21.2996   -7.7855 C   0  0  0  0  0  0  0  0  0  0  0  0
   20.7211  -21.4678   -7.0867 N   0  0  0  0  0  0  0  0  0  0  0  0
   21.6953  -20.4515   -8.9340 N   0  0  0  0  0  0  0  0  0  0  0  0
   22.6348  -20.5726  -10.0355 C   0  0  0  0  0  0  0  0  0  0  0  0
   24.0038  -20.1722   -9.5843 C   0  0  0  0  0  0  0  0  0  0  0  0
   25.0636  -20.2115  -10.6312 C   0  0  0  0  0  0  0  0  0  0  0  0
   24.7185  -20.9711  -11.8666 C   0  0  2  0  0  0  0  0  0  0  0  0
   24.9745  -22.3740  -11.8300 N   0  0  0  0  0  0  0  0  0  0  0  0
   25.4937  -20.3803  -13.0045 C   0  0  0  0  0  0  0  0  0  0  0  0
   25.8875  -19.2034  -12.9759 O   0  0  0  0  0  0  0  0  0  0  0  0
   19.8824  -20.9386   -7.3963 N   0  0  0  0  0  0  0  0  0  0  0  0
   25.7550  -21.2341  -14.1189 C   0  0  1  0  0  0  0  0  0  0  0  0
   26.5623  -20.6586  -15.2176 C   0  0  0  0  0  0  0  0  0  0  0  0
   27.3599  -21.8425  -15.7421 S   0  0  0  0  0  0  0  0  0  0  0  0
   28.6500  -22.3444  -14.5853 C   0  0  0  0  0  0  0  0  0  0  0  0
   25.6563  -20.1588  -16.2627 O   0  0  0  0  0  0  0  0  0  0  0  0
   24.6161  -20.7767  -16.6265 O   0  0  0  0  0  0  0  0  0  0  0  0
   26.6208  -16.6820  -18.0983 C   0  0  0  0  0  0  0  0  0  0  0  0
   25.2699  -16.9313  -18.0459 C   0  0  1  0  0  0  0  0  0  0  0  0
   25.0084  -18.4299  -17.9391 N   0  0  0  0  0  0  0  0  0  0  0  0
   25.9186  -18.9332  -16.9192 C   0  0  0  0  0  0  0  0  0  0  0  0
   25.3523  -19.0893  -19.2187 O   0  0  0  0  0  0  0  0  0  0  0  0
   26.3872  -19.8287  -19.3282 O   0  0  0  0  0  0  0  0  0  0  0  0
  1  2  1  0
  2  3  2  0
  4  5  1  0
  4  2  1  0
  6  7  1  0
  6  5  1  0
  7  8  1  0
  8 10  1  0
  8  9  1  1
 10 11  2  0
 10 12  1  0
 12 13  1  0
 13 16  1  0
 13 14  1  1
 14 15  1  0
 16 17  2  0
 18 19  1  0
 20 19  1  1
 21 20  1  0
 21 16  1  0
 22 24  1  0
 22 20  1  0
 23 22  2  0
M  END
$$$$
