RCS.pdb
     RDKit          3D

 24 23  0  0  1  0  0  0  0  0999 V2000
   27.5417  -25.1302  -16.3879 N   0  0  0  0  0  0  0  0  0  0  0  0
   26.3829  -25.9567  -16.3856 C   0  0  0  0  0  0  0  0  0  0  0  0
   26.3994  -27.2056  -16.7572 N   0  0  0  0  0  0  0  0  0  0  0  0
   25.1153  -25.4401  -15.9645 N   0  0  0  0  0  0  0  0  0  0  0  0
   24.8707  -24.0082  -15.9486 C   0  0  0  0  0  0  0  0  0  0  0  0
   25.3208  -23.4286  -14.6450 C   0  0  0  0  0  0  0  0  0  0  0  0
   24.3442  -22.5281  -13.9696 C   0  0  0  0  0  0  0  0  0  0  0  0
   24.0195  -21.2695  -14.6995 C   0  0  2  0  0  0  0  0  0  0  0  0
   25.0220  -20.2551  -14.6733 N   0  0  0  0  0  0  0  0  0  0  0  0
   22.7625  -20.7049  -14.1113 C   0  0  0  0  0  0  0  0  0  0  0  0
   22.7840  -20.0223  -13.0747 O   0  0  0  0  0  0  0  0  0  0  0  0
   25.4870  -27.7024  -16.7600 N   0  0  0  0  0  0  0  0  0  0  0  0
   21.5439  -20.9905  -14.7988 C   0  0  2  0  0  0  0  0  0  0  0  0
   20.2982  -20.5003  -14.1676 C   0  0  0  0  0  0  0  0  0  0  0  0
   19.5458  -19.8395  -15.3122 S   0  0  0  0  0  0  0  0  0  0  0  0
   17.8686  -19.3801  -14.8324 C   0  0  0  0  0  0  0  0  0  0  0  0
   19.5359  -21.6518  -13.6618 O   0  0  0  0  0  0  0  0  0  0  0  0
   19.3900  -22.7229  -14.3156 O   0  0  0  0  0  0  0  0  0  0  0  0
   17.2270  -23.5436   -9.8538 C   0  0  0  0  0  0  0  0  0  0  0  0
   17.9320  -22.5023  -10.4092 C   0  0  2  0  0  0  0  0  0  0  0  0
   18.1433  -22.7378  -11.9010 N   0  0  0  0  0  0  0  0  0  0  0  0
   18.9200  -21.6062  -12.3888 C   0  0  0  0  0  0  0  0  0  0  0  0
   16.8379  -22.7258  -12.5984 O   0  0  0  0  0  0  0  0  0  0  0  0
   16.3093  -21.6355  -13.0005 O   0  0  0  0  0  0  0  0  0  0  0  0
  1  2  1  0
  2  3  2  0
  4  5  1  0
  4  2  1  0
  6  7  1  0
  6  5  1  0
  7  8  1  0
  8 10  1  0
  8  9  1  1
 10 11  2  0
 10 12  1  0
 12 13  1  0
 13 16  1  0
 13 14  1  6
 14 15  1  0
 16 17  2  0
 18 19  1  0
 20 19  1  1
 21 20  1  0
 21 16  1  0
 22 24  1  0
 22 20  1  0
 23 22  2  0
M  END
$$$$
