PHA.pdb
     RDKit          3D

 23 24  0  0  1  0  0  0  0  0999 V2000
    5.6239  -19.0952   21.6488 N   0  0  0  0  0  0  0  0  0  0  0  0
    4.1640  -19.2512   21.7780 C   0  0  0  0  0  0  0  0  0  0  0  0
    3.7604  -17.8106   22.0366 C   0  0  0  0  0  0  0  0  0  0  0  0
    4.6728  -17.0109   21.1301 C   0  0  0  0  0  0  0  0  0  0  0  0
    5.7063  -18.0275   20.7049 C   0  0  1  0  0  0  0  0  0  0  0  0
    7.0705  -17.4163   20.6048 C   0  0  0  0  0  0  0  0  0  0  0  0
    7.8989  -17.9297   19.8440 O   0  0  0  0  0  0  0  0  0  0  0  0
    7.4116  -16.2802   21.3582 N   0  0  0  0  0  0  0  0  0  0  0  0
    8.6399  -15.5844   21.4770 C   0  0  1  0  0  0  0  0  0  0  0  0
    8.6225  -14.1357   21.0255 C   0  0  0  0  0  0  0  0  0  0  0  0
    8.2841  -13.9621   19.5919 C   0  0  0  0  0  0  0  0  0  0  0  0
    7.4117  -13.0242   19.0871 C   0  0  0  0  0  0  0  0  0  0  0  0
    7.3371  -13.2297   17.7699 N   0  0  0  0  0  0  0  0  0  0  0  0
    8.1226  -14.2508   17.4349 C   0  0  0  0  0  0  0  0  0  0  0  0
    8.7044  -14.7018   18.5493 N   0  0  0  0  0  0  0  0  0  0  0  0
    9.4149  -15.7788   22.6819 C   0  0  0  0  0  0  0  0  0  0  0  0
    9.0778  -15.2760   23.7852 O   0  0  0  0  0  0  0  0  0  0  0  0
   11.4474  -18.2989   24.0480 C   0  0  0  0  0  0  0  0  0  0  0  0
   11.3423  -16.7775   23.8937 C   0  0  2  0  0  0  0  0  0  0  0  0
   10.5992  -16.5527   22.6723 N   0  0  0  0  0  0  0  0  0  0  0  0
   12.6689  -16.1722   23.8839 C   0  0  0  0  0  0  0  0  0  0  0  0
   13.4312  -16.0957   25.0325 O   0  0  0  0  0  0  0  0  0  0  0  0
   13.1415  -15.7079   22.8223 O   0  0  0  0  0  0  0  0  0  0  0  0
  1  5  1  0
  2  1  1  0
  2  3  1  0
  4  3  1  0
  5  6  1  1
  5  4  1  0
  6  7  2  0
  6  8  1  0
  8  9  1  0
  9 16  1  0
  9 10  1  1
 10 11  1  0
 11 15  1  0
 12 11  2  0
 12 13  1  0
 13 14  1  0
 15 14  2  0
 16 20  1  0
 16 17  2  0
 19 18  1  6
 19 21  1  0
 20 19  1  0
 21 22  1  0
 23 21  2  0
M  END
$$$$
