PHA.pdb
     RDKit          3D

 23 24  0  0  1  0  0  0  0  0999 V2000
    9.0049  -14.8664   20.1733 N   0  0  0  0  0  0  0  0  0  0  0  0
    8.8505  -14.2274   18.8542 C   0  0  0  0  0  0  0  0  0  0  0  0
    7.5285  -13.5086   19.0555 C   0  0  0  0  0  0  0  0  0  0  0  0
    7.6028  -13.0074   20.4828 C   0  0  0  0  0  0  0  0  0  0  0  0
    8.7869  -13.7579   21.0459 C   0  0  1  0  0  0  0  0  0  0  0  0
    8.5607  -14.1510   22.4738 C   0  0  0  0  0  0  0  0  0  0  0  0
    8.1451  -13.2989   23.2674 O   0  0  0  0  0  0  0  0  0  0  0  0
    8.8135  -15.4618   22.9123 N   0  0  0  0  0  0  0  0  0  0  0  0
    8.6462  -16.0588   24.1862 C   0  0  1  0  0  0  0  0  0  0  0  0
    8.4858  -17.5678   24.1903 C   0  0  0  0  0  0  0  0  0  0  0  0
    7.4242  -18.0570   23.2772 C   0  0  0  0  0  0  0  0  0  0  0  0
    6.2663  -17.3801   22.9666 C   0  0  0  0  0  0  0  0  0  0  0  0
    5.5530  -18.1746   22.1650 N   0  0  0  0  0  0  0  0  0  0  0  0
    6.2148  -19.3121   21.9643 C   0  0  0  0  0  0  0  0  0  0  0  0
    7.3620  -19.2431   22.6446 N   0  0  0  0  0  0  0  0  0  0  0  0
    9.4798  -15.5883   25.2697 C   0  0  0  0  0  0  0  0  0  0  0  0
   10.7365  -15.6049   25.2055 O   0  0  0  0  0  0  0  0  0  0  0  0
    8.9696  -13.4637   28.2054 C   0  0  0  0  0  0  0  0  0  0  0  0
    9.7561  -14.5935   27.5312 C   0  0  2  0  0  0  0  0  0  0  0  0
    8.9117  -15.0822   26.4623 N   0  0  0  0  0  0  0  0  0  0  0  0
   10.1111  -15.6200   28.5041 C   0  0  0  0  0  0  0  0  0  0  0  0
   11.0422  -15.3787   29.4946 O   0  0  0  0  0  0  0  0  0  0  0  0
    9.5708  -16.7478   28.4552 O   0  0  0  0  0  0  0  0  0  0  0  0
  1  5  1  0
  2  1  1  0
  2  3  1  0
  4  3  1  0
  5  6  1  1
  5  4  1  0
  6  7  2  0
  6  8  1  0
  8  9  1  0
  9 16  1  0
  9 10  1  6
 10 11  1  0
 11 15  1  0
 12 11  2  0
 12 13  1  0
 13 14  1  0
 15 14  2  0
 16 20  1  0
 16 17  2  0
 19 18  1  1
 19 21  1  0
 20 19  1  0
 21 22  1  0
 23 21  2  0
M  END
$$$$
