PHA.pdb
     RDKit          3D

 23 24  0  0  1  0  0  0  0  0999 V2000
    9.0389  -14.6491   18.0116 N   0  0  0  0  0  0  0  0  0  0  0  0
    8.8427  -13.7343   16.8728 C   0  0  0  0  0  0  0  0  0  0  0  0
    7.4256  -13.2629   17.1463 C   0  0  0  0  0  0  0  0  0  0  0  0
    7.3770  -13.1180   18.6531 C   0  0  0  0  0  0  0  0  0  0  0  0
    8.6348  -13.8234   19.1036 C   0  0  1  0  0  0  0  0  0  0  0  0
    8.4158  -14.5773   20.3797 C   0  0  0  0  0  0  0  0  0  0  0  0
    7.8746  -13.9978   21.3283 O   0  0  0  0  0  0  0  0  0  0  0  0
    8.8150  -15.9186   20.5054 N   0  0  0  0  0  0  0  0  0  0  0  0
    8.8152  -16.7815   21.6290 C   0  0  1  0  0  0  0  0  0  0  0  0
    9.1278  -18.2382   21.3405 C   0  0  0  0  0  0  0  0  0  0  0  0
    8.2581  -18.8400   20.3005 C   0  0  0  0  0  0  0  0  0  0  0  0
    6.8988  -18.6503   20.1911 C   0  0  0  0  0  0  0  0  0  0  0  0
    6.4809  -19.4018   19.1698 N   0  0  0  0  0  0  0  0  0  0  0  0
    7.5176  -20.0483   18.6411 C   0  0  0  0  0  0  0  0  0  0  0  0
    8.6082  -19.7059   19.3319 N   0  0  0  0  0  0  0  0  0  0  0  0
    9.4421  -16.3116   22.8440 C   0  0  0  0  0  0  0  0  0  0  0  0
   10.6703  -16.0441   22.9054 O   0  0  0  0  0  0  0  0  0  0  0  0
    8.2222  -14.7497   25.9105 C   0  0  0  0  0  0  0  0  0  0  0  0
    9.3112  -15.5739   25.2145 C   0  0  2  0  0  0  0  0  0  0  0  0
    8.6926  -16.1293   24.0299 N   0  0  0  0  0  0  0  0  0  0  0  0
    9.8421  -16.5865   26.1195 C   0  0  0  0  0  0  0  0  0  0  0  0
   10.5970  -16.2388   27.2220 O   0  0  0  0  0  0  0  0  0  0  0  0
    9.6190  -17.7996   25.9077 O   0  0  0  0  0  0  0  0  0  0  0  0
  1  5  1  0
  2  1  1  0
  2  3  1  0
  4  3  1  0
  5  6  1  1
  5  4  1  0
  6  7  2  0
  6  8  1  0
  8  9  1  0
  9 16  1  0
  9 10  1  6
 10 11  1  0
 11 15  1  0
 12 11  2  0
 12 13  1  0
 13 14  1  0
 15 14  2  0
 16 20  1  0
 16 17  2  0
 19 18  1  1
 19 21  1  0
 20 19  1  0
 21 22  1  0
 23 21  2  0
M  END
$$$$
