PHA.pdb
     RDKit          3D

 23 24  0  0  1  0  0  0  0  0999 V2000
    8.4336  -15.2298   19.3748 N   0  0  0  0  0  0  0  0  0  0  0  0
    8.4879  -14.6835   18.0070 C   0  0  0  0  0  0  0  0  0  0  0  0
    7.3265  -13.7071   18.0599 C   0  0  0  0  0  0  0  0  0  0  0  0
    7.4152  -13.1144   19.4508 C   0  0  0  0  0  0  0  0  0  0  0  0
    8.3903  -14.0322   20.1504 C   0  0  1  0  0  0  0  0  0  0  0  0
    8.0064  -14.2549   21.5813 C   0  0  0  0  0  0  0  0  0  0  0  0
    7.8400  -13.2725   22.3132 O   0  0  0  0  0  0  0  0  0  0  0  0
    7.8365  -15.5532   22.0913 N   0  0  0  0  0  0  0  0  0  0  0  0
    7.6155  -16.0044   23.4160 C   0  0  1  0  0  0  0  0  0  0  0  0
    7.5810  -17.5101   23.6016 C   0  0  0  0  0  0  0  0  0  0  0  0
    7.4250  -17.9332   25.0147 C   0  0  0  0  0  0  0  0  0  0  0  0
    8.4571  -18.1593   25.8973 C   0  0  0  0  0  0  0  0  0  0  0  0
    7.9085  -18.5767   27.0407 N   0  0  0  0  0  0  0  0  0  0  0  0
    6.5846  -18.6197   26.9080 C   0  0  0  0  0  0  0  0  0  0  0  0
    6.2852  -18.2258   25.6674 N   0  0  0  0  0  0  0  0  0  0  0  0
    8.3156  -15.3311   24.4867 C   0  0  0  0  0  0  0  0  0  0  0  0
    9.5694  -15.2244   24.5059 O   0  0  0  0  0  0  0  0  0  0  0  0
    7.2637  -12.9183   27.0421 C   0  0  0  0  0  0  0  0  0  0  0  0
    8.3008  -13.9289   26.5396 C   0  0  2  0  0  0  0  0  0  0  0  0
    7.6128  -14.7556   25.5713 N   0  0  0  0  0  0  0  0  0  0  0  0
    8.8588  -14.6853   27.6544 C   0  0  0  0  0  0  0  0  0  0  0  0
    8.7382  -16.0591   27.7212 O   0  0  0  0  0  0  0  0  0  0  0  0
    9.4621  -14.0938   28.5775 O   0  0  0  0  0  0  0  0  0  0  0  0
  1  5  1  0
  2  1  1  0
  2  3  1  0
  4  3  1  0
  5  6  1  1
  5  4  1  0
  6  7  2  0
  6  8  1  0
  8  9  1  0
  9 16  1  0
  9 10  1  6
 10 11  1  0
 11 15  1  0
 12 11  2  0
 12 13  1  0
 13 14  1  0
 15 14  2  0
 16 20  1  0
 16 17  2  0
 19 18  1  1
 19 21  1  0
 20 19  1  0
 21 22  1  0
 23 21  2  0
M  END
$$$$
