PHA.pdb
     RDKit          3D

 23 24  0  0  1  0  0  0  0  0999 V2000
    8.7142  -14.9867   20.0630 N   0  0  0  0  0  0  0  0  0  0  0  0
    8.6406  -14.3730   18.7251 C   0  0  0  0  0  0  0  0  0  0  0  0
    7.4963  -13.3981   18.9379 C   0  0  0  0  0  0  0  0  0  0  0  0
    7.7221  -12.8758   20.3414 C   0  0  0  0  0  0  0  0  0  0  0  0
    8.7537  -13.8293   20.8975 C   0  0  1  0  0  0  0  0  0  0  0  0
    8.5075  -14.1225   22.3460 C   0  0  0  0  0  0  0  0  0  0  0  0
    8.3375  -13.1772   23.1245 O   0  0  0  0  0  0  0  0  0  0  0  0
    8.4690  -15.4447   22.8203 N   0  0  0  0  0  0  0  0  0  0  0  0
    8.1989  -15.9551   24.1140 C   0  0  1  0  0  0  0  0  0  0  0  0
    7.7601  -17.4066   24.1708 C   0  0  0  0  0  0  0  0  0  0  0  0
    6.7254  -17.7564   23.1673 C   0  0  0  0  0  0  0  0  0  0  0  0
    5.8293  -16.8745   22.6062 C   0  0  0  0  0  0  0  0  0  0  0  0
    5.0355  -17.5843   21.8008 N   0  0  0  0  0  0  0  0  0  0  0  0
    5.3978  -18.8647   21.8365 C   0  0  0  0  0  0  0  0  0  0  0  0
    6.4332  -18.9734   22.6730 N   0  0  0  0  0  0  0  0  0  0  0  0
    9.1102  -15.6107   25.1821 C   0  0  0  0  0  0  0  0  0  0  0  0
   10.3505  -15.8058   25.0952 O   0  0  0  0  0  0  0  0  0  0  0  0
    8.8867  -13.4290   28.1261 C   0  0  0  0  0  0  0  0  0  0  0  0
    9.5716  -14.5945   27.4037 C   0  0  2  0  0  0  0  0  0  0  0  0
    8.6414  -15.0318   26.3848 N   0  0  0  0  0  0  0  0  0  0  0  0
    9.9281  -15.6440   28.3511 C   0  0  0  0  0  0  0  0  0  0  0  0
   10.9133  -15.4509   29.2989 O   0  0  0  0  0  0  0  0  0  0  0  0
    9.3396  -16.7480   28.3188 O   0  0  0  0  0  0  0  0  0  0  0  0
  1  5  1  0
  2  1  1  0
  2  3  1  0
  4  3  1  0
  5  6  1  1
  5  4  1  0
  6  7  2  0
  6  8  1  0
  8  9  1  0
  9 16  1  0
  9 10  1  6
 10 11  1  0
 11 15  1  0
 12 11  2  0
 12 13  1  0
 13 14  1  0
 15 14  2  0
 16 20  1  0
 16 17  2  0
 19 18  1  1
 19 21  1  0
 20 19  1  0
 21 22  1  0
 23 21  2  0
M  END
$$$$
