PHA.pdb
     RDKit          3D

 23 24  0  0  1  0  0  0  0  0999 V2000
    8.6672  -15.1426   19.7397 N   0  0  0  0  0  0  0  0  0  0  0  0
    8.5988  -14.6340   18.3581 C   0  0  0  0  0  0  0  0  0  0  0  0
    7.3796  -13.7352   18.4613 C   0  0  0  0  0  0  0  0  0  0  0  0
    7.5148  -13.0977   19.8285 C   0  0  0  0  0  0  0  0  0  0  0  0
    8.5916  -13.9285   20.4864 C   0  0  1  0  0  0  0  0  0  0  0  0
    8.3139  -14.1344   21.9442 C   0  0  0  0  0  0  0  0  0  0  0  0
    8.1057  -13.1454   22.6563 O   0  0  0  0  0  0  0  0  0  0  0  0
    8.2886  -15.4243   22.5009 N   0  0  0  0  0  0  0  0  0  0  0  0
    8.1036  -15.8499   23.8395 C   0  0  1  0  0  0  0  0  0  0  0  0
    8.1202  -17.3510   24.0615 C   0  0  0  0  0  0  0  0  0  0  0  0
    7.0878  -18.0800   23.2852 C   0  0  0  0  0  0  0  0  0  0  0  0
    5.7427  -17.7864   23.2761 C   0  0  0  0  0  0  0  0  0  0  0  0
    5.1488  -18.7011   22.5059 N   0  0  0  0  0  0  0  0  0  0  0  0
    6.0629  -19.5477   22.0372 C   0  0  0  0  0  0  0  0  0  0  0  0
    7.2523  -19.1697   22.5130 N   0  0  0  0  0  0  0  0  0  0  0  0
    8.7991  -15.1290   24.8819 C   0  0  0  0  0  0  0  0  0  0  0  0
   10.0515  -15.1628   25.0004 O   0  0  0  0  0  0  0  0  0  0  0  0
    7.8904  -12.4996   27.3127 C   0  0  0  0  0  0  0  0  0  0  0  0
    8.7965  -13.6606   26.8880 C   0  0  2  0  0  0  0  0  0  0  0  0
    8.0931  -14.3445   25.8241 N   0  0  0  0  0  0  0  0  0  0  0  0
    9.0965  -14.5181   28.0286 C   0  0  0  0  0  0  0  0  0  0  0  0
    9.9459  -14.1029   29.0349 O   0  0  0  0  0  0  0  0  0  0  0  0
    8.5827  -15.6561   28.1133 O   0  0  0  0  0  0  0  0  0  0  0  0
  1  5  1  0
  2  1  1  0
  2  3  1  0
  4  3  1  0
  5  6  1  1
  5  4  1  0
  6  7  2  0
  6  8  1  0
  8  9  1  0
  9 16  1  0
  9 10  1  6
 10 11  1  0
 11 15  1  0
 12 11  2  0
 12 13  1  0
 13 14  1  0
 15 14  2  0
 16 20  1  0
 16 17  2  0
 19 18  1  1
 19 21  1  0
 20 19  1  0
 21 22  1  0
 23 21  2  0
M  END
$$$$
