PHA.pdb
     RDKit          3D

 23 24  0  0  1  0  0  0  0  0999 V2000
    8.7825  -14.9671   19.9817 N   0  0  0  0  0  0  0  0  0  0  0  0
    8.6931  -14.4153   18.6179 C   0  0  0  0  0  0  0  0  0  0  0  0
    7.3134  -13.7840   18.6721 C   0  0  0  0  0  0  0  0  0  0  0  0
    7.2371  -13.2001   20.0674 C   0  0  0  0  0  0  0  0  0  0  0  0
    8.4196  -13.8304   20.7652 C   0  0  1  0  0  0  0  0  0  0  0  0
    8.1051  -14.1587   22.1928 C   0  0  0  0  0  0  0  0  0  0  0  0
    7.6139  -13.2807   22.9115 O   0  0  0  0  0  0  0  0  0  0  0  0
    8.3602  -15.4383   22.7142 N   0  0  0  0  0  0  0  0  0  0  0  0
    8.1802  -15.9571   24.0202 C   0  0  1  0  0  0  0  0  0  0  0  0
    8.0802  -17.4680   24.1207 C   0  0  0  0  0  0  0  0  0  0  0  0
    7.1260  -18.0677   23.1564 C   0  0  0  0  0  0  0  0  0  0  0  0
    5.9176  -17.5213   22.7867 C   0  0  0  0  0  0  0  0  0  0  0  0
    5.3371  -18.3865   21.9518 N   0  0  0  0  0  0  0  0  0  0  0  0
    6.1293  -19.4435   21.7868 C   0  0  0  0  0  0  0  0  0  0  0  0
    7.2265  -19.2511   22.5237 N   0  0  0  0  0  0  0  0  0  0  0  0
    8.9626  -15.3822   25.0914 C   0  0  0  0  0  0  0  0  0  0  0  0
   10.2201  -15.4311   25.1049 O   0  0  0  0  0  0  0  0  0  0  0  0
    8.2232  -13.0274   27.8392 C   0  0  0  0  0  0  0  0  0  0  0  0
    9.1354  -14.0827   27.2038 C   0  0  2  0  0  0  0  0  0  0  0  0
    8.3408  -14.7316   26.1829 N   0  0  0  0  0  0  0  0  0  0  0  0
    9.6371  -15.0019   28.2184 C   0  0  0  0  0  0  0  0  0  0  0  0
   10.5332  -14.5864   29.1831 O   0  0  0  0  0  0  0  0  0  0  0  0
    9.2586  -16.1947   28.2300 O   0  0  0  0  0  0  0  0  0  0  0  0
  1  5  1  0
  2  1  1  0
  2  3  1  0
  4  3  1  0
  5  6  1  1
  5  4  1  0
  6  7  2  0
  6  8  1  0
  8  9  1  0
  9 16  1  0
  9 10  1  6
 10 11  1  0
 11 15  1  0
 12 11  2  0
 12 13  1  0
 13 14  1  0
 15 14  2  0
 16 20  1  0
 16 17  2  0
 19 18  1  1
 19 21  1  0
 20 19  1  0
 21 22  1  0
 23 21  2  0
M  END
$$$$
