PHA.pdb
     RDKit          3D

 23 24  0  0  1  0  0  0  0  0999 V2000
    8.8313  -14.7687   20.0686 N   0  0  0  0  0  0  0  0  0  0  0  0
    8.6822  -14.0849   18.7716 C   0  0  0  0  0  0  0  0  0  0  0  0
    7.4428  -13.2521   19.0464 C   0  0  0  0  0  0  0  0  0  0  0  0
    7.6236  -12.7962   20.4793 C   0  0  0  0  0  0  0  0  0  0  0  0
    8.7548  -13.6673   20.9734 C   0  0  1  0  0  0  0  0  0  0  0  0
    8.5530  -14.0737   22.4012 C   0  0  0  0  0  0  0  0  0  0  0  0
    8.2534  -13.2071   23.2305 O   0  0  0  0  0  0  0  0  0  0  0  0
    8.6995  -15.4131   22.8000 N   0  0  0  0  0  0  0  0  0  0  0  0
    8.5479  -16.0211   24.0706 C   0  0  1  0  0  0  0  0  0  0  0  0
    8.3752  -17.5288   24.0628 C   0  0  0  0  0  0  0  0  0  0  0  0
    7.3541  -18.0070   23.0991 C   0  0  0  0  0  0  0  0  0  0  0  0
    6.5441  -17.2010   22.3312 C   0  0  0  0  0  0  0  0  0  0  0  0
    5.7302  -18.0065   21.6445 N   0  0  0  0  0  0  0  0  0  0  0  0
    5.9982  -19.2740   21.9509 C   0  0  0  0  0  0  0  0  0  0  0  0
    6.9930  -19.2775   22.8421 N   0  0  0  0  0  0  0  0  0  0  0  0
    9.4026  -15.5680   25.1449 C   0  0  0  0  0  0  0  0  0  0  0  0
   10.6550  -15.5199   25.0313 O   0  0  0  0  0  0  0  0  0  0  0  0
    8.9270  -13.5300   28.1227 C   0  0  0  0  0  0  0  0  0  0  0  0
    9.7214  -14.6432   27.4305 C   0  0  2  0  0  0  0  0  0  0  0  0
    8.8612  -15.1533   26.3844 N   0  0  0  0  0  0  0  0  0  0  0  0
   10.1243  -15.6592   28.3957 C   0  0  0  0  0  0  0  0  0  0  0  0
   11.0765  -15.3954   29.3601 O   0  0  0  0  0  0  0  0  0  0  0  0
    9.6070  -16.7983   28.3640 O   0  0  0  0  0  0  0  0  0  0  0  0
  1  5  1  0
  2  1  1  0
  2  3  1  0
  4  3  1  0
  5  6  1  1
  5  4  1  0
  6  7  2  0
  6  8  1  0
  8  9  1  0
  9 16  1  0
  9 10  1  6
 10 11  1  0
 11 15  1  0
 12 11  2  0
 12 13  1  0
 13 14  1  0
 15 14  2  0
 16 20  1  0
 16 17  2  0
 19 18  1  1
 19 21  1  0
 20 19  1  0
 21 22  1  0
 23 21  2  0
M  END
$$$$
