PHA.pdb
     RDKit          3D

 23 24  0  0  1  0  0  0  0  0999 V2000
    9.2744  -14.4925   19.7540 N   0  0  0  0  0  0  0  0  0  0  0  0
    9.0453  -13.7996   18.4735 C   0  0  0  0  0  0  0  0  0  0  0  0
    7.5560  -13.5237   18.5786 C   0  0  0  0  0  0  0  0  0  0  0  0
    7.3562  -13.1665   20.0368 C   0  0  0  0  0  0  0  0  0  0  0  0
    8.6601  -13.5887   20.6724 C   0  0  1  0  0  0  0  0  0  0  0  0
    8.4445  -14.1700   22.0363 C   0  0  0  0  0  0  0  0  0  0  0  0
    7.6949  -13.5806   22.8232 O   0  0  0  0  0  0  0  0  0  0  0  0
    9.0786  -15.3628   22.4231 N   0  0  0  0  0  0  0  0  0  0  0  0
    9.1524  -16.0035   23.6845 C   0  0  1  0  0  0  0  0  0  0  0  0
    9.5792  -17.4595   23.6596 C   0  0  0  0  0  0  0  0  0  0  0  0
    8.8367  -18.2817   22.6734 C   0  0  0  0  0  0  0  0  0  0  0  0
    7.4908  -18.1788   22.4027 C   0  0  0  0  0  0  0  0  0  0  0  0
    7.1998  -19.1237   21.5054 N   0  0  0  0  0  0  0  0  0  0  0  0
    8.3026  -19.8072   21.2073 C   0  0  0  0  0  0  0  0  0  0  0  0
    9.3075  -19.2935   21.9215 N   0  0  0  0  0  0  0  0  0  0  0  0
    9.7445  -15.2723   24.7821 C   0  0  0  0  0  0  0  0  0  0  0  0
   10.9744  -15.0096   24.8275 O   0  0  0  0  0  0  0  0  0  0  0  0
    8.4907  -13.0916   27.4379 C   0  0  0  0  0  0  0  0  0  0  0  0
    9.5602  -14.0775   26.9545 C   0  0  2  0  0  0  0  0  0  0  0  0
    8.9572  -14.8145   25.8647 N   0  0  0  0  0  0  0  0  0  0  0  0
   10.0047  -14.9278   28.0525 C   0  0  0  0  0  0  0  0  0  0  0  0
   10.7564  -14.4209   29.0938 O   0  0  0  0  0  0  0  0  0  0  0  0
    9.7081  -16.1435   28.0675 O   0  0  0  0  0  0  0  0  0  0  0  0
  1  5  1  0
  2  1  1  0
  2  3  1  0
  4  3  1  0
  5  6  1  1
  5  4  1  0
  6  7  2  0
  6  8  1  0
  8  9  1  0
  9 16  1  0
  9 10  1  6
 10 11  1  0
 11 15  1  0
 12 11  2  0
 12 13  1  0
 13 14  1  0
 15 14  2  0
 16 20  1  0
 16 17  2  0
 19 18  1  1
 19 21  1  0
 20 19  1  0
 21 22  1  0
 23 21  2  0
M  END
$$$$
