PHA.pdb
     RDKit          3D

 23 24  0  0  1  0  0  0  0  0999 V2000
    9.0930  -14.6201   19.8425 N   0  0  0  0  0  0  0  0  0  0  0  0
    9.1501  -13.9571   18.5274 C   0  0  0  0  0  0  0  0  0  0  0  0
    7.8701  -13.1423   18.5801 C   0  0  0  0  0  0  0  0  0  0  0  0
    7.8047  -12.6635   20.0155 C   0  0  0  0  0  0  0  0  0  0  0  0
    8.8516  -13.5077   20.7038 C   0  0  1  0  0  0  0  0  0  0  0  0
    8.4227  -13.8977   22.0853 C   0  0  0  0  0  0  0  0  0  0  0  0
    8.0186  -13.0178   22.8542 O   0  0  0  0  0  0  0  0  0  0  0  0
    8.4753  -15.2366   22.5085 N   0  0  0  0  0  0  0  0  0  0  0  0
    8.2077  -15.8177   23.7725 C   0  0  1  0  0  0  0  0  0  0  0  0
    7.9604  -17.3149   23.7699 C   0  0  0  0  0  0  0  0  0  0  0  0
    6.9892  -17.7570   22.7396 C   0  0  0  0  0  0  0  0  0  0  0  0
    5.8226  -17.1035   22.4118 C   0  0  0  0  0  0  0  0  0  0  0  0
    5.2062  -17.8449   21.4884 N   0  0  0  0  0  0  0  0  0  0  0  0
    5.9362  -18.9273   21.2285 C   0  0  0  0  0  0  0  0  0  0  0  0
    7.0297  -18.8763   21.9938 N   0  0  0  0  0  0  0  0  0  0  0  0
    9.0094  -15.3916   24.8976 C   0  0  0  0  0  0  0  0  0  0  0  0
   10.2607  -15.5243   24.9185 O   0  0  0  0  0  0  0  0  0  0  0  0
    8.4155  -13.2472   27.8397 C   0  0  0  0  0  0  0  0  0  0  0  0
    9.2315  -14.3393   27.1390 C   0  0  2  0  0  0  0  0  0  0  0  0
    8.4147  -14.7993   26.0364 N   0  0  0  0  0  0  0  0  0  0  0  0
    9.5835  -15.3967   28.0794 C   0  0  0  0  0  0  0  0  0  0  0  0
   10.4847  -15.1768   29.1020 O   0  0  0  0  0  0  0  0  0  0  0  0
    9.0681  -16.5320   27.9723 O   0  0  0  0  0  0  0  0  0  0  0  0
  1  5  1  0
  2  1  1  0
  2  3  1  0
  4  3  1  0
  5  6  1  1
  5  4  1  0
  6  7  2  0
  6  8  1  0
  8  9  1  0
  9 16  1  0
  9 10  1  6
 10 11  1  0
 11 15  1  0
 12 11  2  0
 12 13  1  0
 13 14  1  0
 15 14  2  0
 16 20  1  0
 16 17  2  0
 19 18  1  1
 19 21  1  0
 20 19  1  0
 21 22  1  0
 23 21  2  0
M  END
$$$$
