PHA.pdb
     RDKit          3D

 23 24  0  0  1  0  0  0  0  0999 V2000
    8.5617  -18.3899   18.5961 N   0  0  0  0  0  0  0  0  0  0  0  0
    8.3680  -18.7428   17.1782 C   0  0  0  0  0  0  0  0  0  0  0  0
    8.6258  -17.3957   16.5272 C   0  0  0  0  0  0  0  0  0  0  0  0
    9.7663  -16.8148   17.3369 C   0  0  0  0  0  0  0  0  0  0  0  0
    9.8209  -17.7195   18.5456 C   0  0  1  0  0  0  0  0  0  0  0  0
   10.1457  -16.9537   19.7917 C   0  0  0  0  0  0  0  0  0  0  0  0
   11.2865  -16.4977   19.9302 O   0  0  0  0  0  0  0  0  0  0  0  0
    9.1779  -16.7525   20.7904 N   0  0  0  0  0  0  0  0  0  0  0  0
    9.2151  -15.9667   21.9687 C   0  0  1  0  0  0  0  0  0  0  0  0
    8.1511  -14.8900   22.0760 C   0  0  0  0  0  0  0  0  0  0  0  0
    7.8487  -14.2201   20.7877 C   0  0  0  0  0  0  0  0  0  0  0  0
    8.2345  -12.9441   20.4434 C   0  0  0  0  0  0  0  0  0  0  0  0
    7.7219  -12.6937   19.2363 N   0  0  0  0  0  0  0  0  0  0  0  0
    7.0366  -13.7549   18.8164 C   0  0  0  0  0  0  0  0  0  0  0  0
    7.1125  -14.6921   19.7650 N   0  0  0  0  0  0  0  0  0  0  0  0
    9.4479  -16.6414   23.2259 C   0  0  0  0  0  0  0  0  0  0  0  0
    8.5740  -17.3640   23.7716 O   0  0  0  0  0  0  0  0  0  0  0  0
   12.5305  -17.6098   24.9314 C   0  0  0  0  0  0  0  0  0  0  0  0
   11.0135  -17.4018   25.0011 C   0  0  2  0  0  0  0  0  0  0  0  0
   10.6832  -16.5174   23.9042 N   0  0  0  0  0  0  0  0  0  0  0  0
   10.6295  -16.8749   26.3055 C   0  0  0  0  0  0  0  0  0  0  0  0
   10.8199  -17.6079   27.4599 O   0  0  0  0  0  0  0  0  0  0  0  0
   10.1158  -15.7375   26.3989 O   0  0  0  0  0  0  0  0  0  0  0  0
  1  5  1  0
  2  1  1  0
  2  3  1  0
  4  3  1  0
  5  6  1  1
  5  4  1  0
  6  7  2  0
  6  8  1  0
  8  9  1  0
  9 16  1  0
  9 10  1  1
 10 11  1  0
 11 15  1  0
 12 11  2  0
 12 13  1  0
 13 14  1  0
 15 14  2  0
 16 20  1  0
 16 17  2  0
 19 18  1  1
 19 21  1  0
 20 19  1  0
 21 22  1  0
 23 21  2  0
M  END
$$$$
