MYI.pdb
     RDKit          3D

 29 29  0  0  1  0  0  0  0  0999 V2000
    7.3050  -13.4140   14.6703 C   0  0  0  0  0  0  0  0  0  0  0  0
    6.8998  -13.4594   16.4444 S   0  0  0  0  0  0  0  0  0  0  0  0
    8.3109  -14.0451   17.4143 C   0  0  0  0  0  0  0  0  0  0  0  0
    7.9326  -14.1453   18.8622 C   0  0  0  0  0  0  0  0  0  0  0  0
    9.0797  -14.6183   19.7165 C   0  0  2  0  0  0  0  0  0  0  0  0
    9.6739  -15.7844   19.0903 N   0  0  0  0  0  0  0  0  0  0  0  0
    8.5703  -15.0379   21.0567 C   0  0  0  0  0  0  0  0  0  0  0  0
    7.8462  -14.2660   21.7664 O   0  0  0  0  0  0  0  0  0  0  0  0
    7.3277  -20.0052   28.3259 O   0  0  0  0  0  0  0  0  0  0  0  0
    7.6336  -19.5632   27.0511 C   0  0  0  0  0  0  0  0  0  0  0  0
    6.6558  -19.4502   26.1056 C   0  0  0  0  0  0  0  0  0  0  0  0
    6.9898  -18.9998   24.8197 C   0  0  0  0  0  0  0  0  0  0  0  0
    8.2796  -18.6698   24.4913 C   0  0  0  0  0  0  0  0  0  0  0  0
    8.6339  -18.1974   23.1617 C   0  0  0  0  0  0  0  0  0  0  0  0
    8.3400  -16.7626   22.8935 C   0  0  2  0  0  0  0  0  0  0  0  0
    8.8589  -16.3107   21.6177 N   0  0  0  0  0  0  0  0  0  0  0  0
    8.7287  -15.8226   23.9694 C   0  0  0  0  0  0  0  0  0  0  0  0
    9.9490  -15.4497   24.0746 O   0  0  0  0  0  0  0  0  0  0  0  0
    9.2420  -18.7945   25.4664 C   0  0  0  0  0  0  0  0  0  0  0  0
    8.9230  -19.2418   26.7504 C   0  0  0  0  0  0  0  0  0  0  0  0
    6.6890  -10.7902   26.5614 C   0  0  0  0  0  0  0  0  0  0  0  0
    7.6527  -11.9607   26.6710 C   0  0  0  0  0  0  0  0  0  0  0  0
    7.1913  -13.1353   25.8805 C   0  0  2  0  0  0  0  0  0  0  0  0
    5.8505  -13.6527   26.2834 C   0  0  0  0  0  0  0  0  0  0  0  0
    8.2486  -14.2075   25.8624 C   0  0  2  0  0  0  0  0  0  0  0  0
    7.8569  -15.2742   24.9229 N   0  0  0  0  0  0  0  0  0  0  0  0
    8.6169  -14.7483   27.1658 C   0  0  0  0  0  0  0  0  0  0  0  0
    9.1840  -14.0437   28.0282 O   0  0  0  0  0  0  0  0  0  0  0  0
    8.3679  -16.0713   27.5448 O   0  0  0  0  0  0  0  0  0  0  0  0
  2  1  1  0
  3  2  1  0
  4  3  1  0
  4  5  1  0
  5  7  1  0
  5  6  1  6
  7  8  2  0
  9 10  1  0
 10 20  2  0
 10 11  1  0
 11 12  2  0
 12 13  1  0
 13 14  1  0
 15 14  1  1
 16 15  1  0
 16  7  1  0
 17 15  1  0
 18 17  2  0
 19 13  2  0
 20 19  1  0
 22 21  1  0
 23 24  1  1
 23 22  1  0
 25 23  1  0
 25 26  1  6
 26 17  1  0
 27 29  1  0
 27 25  1  0
 28 27  2  0
M  END
$$$$
