MYI.pdb
     RDKit          3D

 29 29  0  0  1  0  0  0  0  0999 V2000
    6.1753  -11.7491   18.0109 C   0  0  0  0  0  0  0  0  0  0  0  0
    7.4232  -13.0724   18.0845 S   0  0  0  0  0  0  0  0  0  0  0  0
    6.9963  -14.2927   19.3508 C   0  0  0  0  0  0  0  0  0  0  0  0
    8.0770  -15.3280   19.4510 C   0  0  0  0  0  0  0  0  0  0  0  0
    7.8005  -16.3325   20.5392 C   0  0  2  0  0  0  0  0  0  0  0  0
    6.8602  -15.7511   21.4787 N   0  0  0  0  0  0  0  0  0  0  0  0
    9.0605  -16.6251   21.2867 C   0  0  0  0  0  0  0  0  0  0  0  0
    9.6460  -17.7528   21.1910 O   0  0  0  0  0  0  0  0  0  0  0  0
   13.9370  -15.2655   17.3957 O   0  0  0  0  0  0  0  0  0  0  0  0
   13.4570  -15.1950   18.6913 C   0  0  0  0  0  0  0  0  0  0  0  0
   13.1420  -13.9888   19.2469 C   0  0  0  0  0  0  0  0  0  0  0  0
   12.6568  -13.9419   20.5624 C   0  0  0  0  0  0  0  0  0  0  0  0
   12.4918  -15.0837   21.3036 C   0  0  0  0  0  0  0  0  0  0  0  0
   11.9849  -15.0446   22.6668 C   0  0  0  0  0  0  0  0  0  0  0  0
   10.8456  -15.9599   22.9517 C   0  0  2  0  0  0  0  0  0  0  0  0
    9.6777  -15.6737   22.1423 N   0  0  0  0  0  0  0  0  0  0  0  0
   10.4669  -16.0779   24.3783 C   0  0  0  0  0  0  0  0  0  0  0  0
   11.3534  -16.3990   25.2446 O   0  0  0  0  0  0  0  0  0  0  0  0
   12.8183  -16.2836   20.7152 C   0  0  0  0  0  0  0  0  0  0  0  0
   13.3023  -16.3442   19.4065 C   0  0  0  0  0  0  0  0  0  0  0  0
    6.3307  -13.0091   26.6098 C   0  0  0  0  0  0  0  0  0  0  0  0
    7.0755  -14.1868   26.0023 C   0  0  0  0  0  0  0  0  0  0  0  0
    8.3566  -14.4585   26.7111 C   0  0  2  0  0  0  0  0  0  0  0  0
    9.3779  -13.3805   26.5596 C   0  0  0  0  0  0  0  0  0  0  0  0
    8.8858  -15.8190   26.3419 C   0  0  2  0  0  0  0  0  0  0  0  0
    9.1813  -15.8610   24.8979 N   0  0  0  0  0  0  0  0  0  0  0  0
    8.0588  -16.9475   26.7538 C   0  0  0  0  0  0  0  0  0  0  0  0
    7.4741  -17.6681   25.9167 O   0  0  0  0  0  0  0  0  0  0  0  0
    7.8606  -17.3045   28.0914 O   0  0  0  0  0  0  0  0  0  0  0  0
  2  1  1  0
  3  2  1  0
  4  3  1  0
  4  5  1  0
  5  7  1  0
  5  6  1  1
  7  8  2  0
  9 10  1  0
 10 20  2  0
 10 11  1  0
 11 12  2  0
 12 13  1  0
 13 14  1  0
 15 14  1  1
 16 15  1  0
 16  7  1  0
 17 15  1  0
 18 17  2  0
 19 13  2  0
 20 19  1  0
 22 21  1  0
 23 24  1  6
 23 22  1  0
 25 23  1  0
 25 26  1  6
 26 17  1  0
 27 29  1  0
 27 25  1  0
 28 27  2  0
M  END
$$$$
