MYI.pdb
     RDKit          3D

 29 29  0  0  1  0  0  0  0  0999 V2000
    7.4805  -18.1531   29.4215 C   0  0  0  0  0  0  0  0  0  0  0  0
    6.8926  -19.4280   28.2628 S   0  0  0  0  0  0  0  0  0  0  0  0
    8.0805  -19.6777   26.9206 C   0  0  0  0  0  0  0  0  0  0  0  0
    7.4667  -20.5202   25.8420 C   0  0  0  0  0  0  0  0  0  0  0  0
    6.4731  -19.7468   25.0150 C   0  0  2  0  0  0  0  0  0  0  0  0
    5.8907  -20.6422   24.0331 N   0  0  0  0  0  0  0  0  0  0  0  0
    7.1758  -18.6587   24.2706 C   0  0  0  0  0  0  0  0  0  0  0  0
    8.2148  -18.8928   23.5710 O   0  0  0  0  0  0  0  0  0  0  0  0
    8.5110  -12.1774   18.7082 O   0  0  0  0  0  0  0  0  0  0  0  0
    7.9802  -13.0021   19.6839 C   0  0  0  0  0  0  0  0  0  0  0  0
    7.8780  -14.3466   19.4718 C   0  0  0  0  0  0  0  0  0  0  0  0
    7.3364  -15.1631   20.4758 C   0  0  0  0  0  0  0  0  0  0  0  0
    6.9067  -14.6391   21.6679 C   0  0  0  0  0  0  0  0  0  0  0  0
    6.3481  -15.4791   22.7162 C   0  0  0  0  0  0  0  0  0  0  0  0
    7.3407  -16.2497   23.5149 C   0  0  2  0  0  0  0  0  0  0  0  0
    6.7338  -17.3088   24.2965 N   0  0  0  0  0  0  0  0  0  0  0  0
    8.2430  -15.4370   24.3621 C   0  0  0  0  0  0  0  0  0  0  0  0
    8.3056  -14.1701   24.1874 O   0  0  0  0  0  0  0  0  0  0  0  0
    7.0232  -13.2806   21.8508 C   0  0  0  0  0  0  0  0  0  0  0  0
    7.5604  -12.4564   20.8595 C   0  0  0  0  0  0  0  0  0  0  0  0
    7.3179  -12.2140   26.3420 C   0  0  0  0  0  0  0  0  0  0  0  0
    8.2186  -13.3060   25.7878 C   0  0  0  0  0  0  0  0  0  0  0  0
    8.9685  -14.0074   26.8663 C   0  0  2  0  0  0  0  0  0  0  0  0
    9.6973  -13.0944   27.7953 C   0  0  0  0  0  0  0  0  0  0  0  0
    9.8555  -15.0756   26.2835 C   0  0  2  0  0  0  0  0  0  0  0  0
    9.0682  -15.9364   25.3817 N   0  0  0  0  0  0  0  0  0  0  0  0
   10.6113  -15.8616   27.2520 C   0  0  0  0  0  0  0  0  0  0  0  0
   10.1346  -16.8951   27.7681 O   0  0  0  0  0  0  0  0  0  0  0  0
   11.9034  -15.5268   27.6695 O   0  0  0  0  0  0  0  0  0  0  0  0
  2  1  1  0
  3  2  1  0
  4  3  1  0
  4  5  1  0
  5  7  1  0
  5  6  1  6
  7  8  2  0
  9 10  1  0
 10 20  2  0
 10 11  1  0
 11 12  2  0
 12 13  1  0
 13 14  1  0
 15 14  1  1
 16 15  1  0
 16  7  1  0
 17 15  1  0
 18 17  2  0
 19 13  2  0
 20 19  1  0
 22 21  1  0
 23 24  1  6
 23 22  1  0
 25 23  1  0
 25 26  1  1
 26 17  1  0
 27 29  1  0
 27 25  1  0
 28 27  2  0
M  END
$$$$
