MYI.pdb
     RDKit          3D

 29 29  0  0  1  0  0  0  0  0999 V2000
    7.3398  -11.8490   20.8547 C   0  0  0  0  0  0  0  0  0  0  0  0
    8.4138  -12.3037   19.4571 S   0  0  0  0  0  0  0  0  0  0  0  0
    9.1650  -13.9287   19.7221 C   0  0  0  0  0  0  0  0  0  0  0  0
    8.3664  -14.9845   19.0170 C   0  0  0  0  0  0  0  0  0  0  0  0
    8.8162  -16.3748   19.3836 C   0  0  2  0  0  0  0  0  0  0  0  0
    8.0287  -17.3310   18.6284 N   0  0  0  0  0  0  0  0  0  0  0  0
    8.5555  -16.6227   20.8336 C   0  0  0  0  0  0  0  0  0  0  0  0
    7.3729  -16.7823   21.2807 O   0  0  0  0  0  0  0  0  0  0  0  0
    9.0704  -23.0091   20.9042 O   0  0  0  0  0  0  0  0  0  0  0  0
    9.3285  -21.8319   21.5835 C   0  0  0  0  0  0  0  0  0  0  0  0
    8.5646  -21.4707   22.6554 C   0  0  0  0  0  0  0  0  0  0  0  0
    8.8451  -20.2724   23.3287 C   0  0  0  0  0  0  0  0  0  0  0  0
    9.8720  -19.4545   22.9328 C   0  0  0  0  0  0  0  0  0  0  0  0
   10.1728  -18.2124   23.6281 C   0  0  0  0  0  0  0  0  0  0  0  0
    9.3858  -17.0271   23.1891 C   0  0  2  0  0  0  0  0  0  0  0  0
    9.5994  -16.6948   21.7945 N   0  0  0  0  0  0  0  0  0  0  0  0
    9.5309  -15.8198   24.0340 C   0  0  0  0  0  0  0  0  0  0  0  0
   10.5977  -15.1162   23.9557 O   0  0  0  0  0  0  0  0  0  0  0  0
   10.6233  -19.8464   21.8490 C   0  0  0  0  0  0  0  0  0  0  0  0
   10.3547  -21.0368   21.1699 C   0  0  0  0  0  0  0  0  0  0  0  0
    5.7237  -12.3260   25.3537 C   0  0  0  0  0  0  0  0  0  0  0  0
    7.0269  -13.0586   25.0785 C   0  0  0  0  0  0  0  0  0  0  0  0
    7.6526  -13.5674   26.3303 C   0  0  2  0  0  0  0  0  0  0  0  0
    7.9030  -12.5147   27.3584 C   0  0  0  0  0  0  0  0  0  0  0  0
    8.8819  -14.3777   26.0143 C   0  0  2  0  0  0  0  0  0  0  0  0
    8.5753  -15.3482   24.9474 N   0  0  0  0  0  0  0  0  0  0  0  0
    9.5215  -15.0200   27.1569 C   0  0  0  0  0  0  0  0  0  0  0  0
   10.3477  -14.4109   27.8699 O   0  0  0  0  0  0  0  0  0  0  0  0
    9.2642  -16.3412   27.5366 O   0  0  0  0  0  0  0  0  0  0  0  0
  2  1  1  0
  3  2  1  0
  4  3  1  0
  4  5  1  0
  5  7  1  0
  5  6  1  6
  7  8  2  0
  9 10  1  0
 10 20  2  0
 10 11  1  0
 11 12  2  0
 12 13  1  0
 13 14  1  0
 15 14  1  1
 16 15  1  0
 16  7  1  0
 17 15  1  0
 18 17  2  0
 19 13  2  0
 20 19  1  0
 22 21  1  0
 23 24  1  1
 23 22  1  0
 25 23  1  0
 25 26  1  6
 26 17  1  0
 27 29  1  0
 27 25  1  0
 28 27  2  0
M  END
$$$$
