MYI.pdb
     RDKit          3D

 29 29  0  0  1  0  0  0  0  0999 V2000
    6.4587  -19.8274   26.4404 C   0  0  0  0  0  0  0  0  0  0  0  0
    5.9383  -21.0875   25.2342 S   0  0  0  0  0  0  0  0  0  0  0  0
    6.1144  -20.4725   23.5414 C   0  0  0  0  0  0  0  0  0  0  0  0
    6.9817  -19.2489   23.5274 C   0  0  0  0  0  0  0  0  0  0  0  0
    7.0480  -18.6166   22.1616 C   0  0  2  0  0  0  0  0  0  0  0  0
    7.5389  -19.6029   21.2176 N   0  0  0  0  0  0  0  0  0  0  0  0
    8.0229  -17.4847   22.1773 C   0  0  0  0  0  0  0  0  0  0  0  0
    9.2597  -17.6664   21.9302 O   0  0  0  0  0  0  0  0  0  0  0  0
    7.4971  -14.0764   16.2772 O   0  0  0  0  0  0  0  0  0  0  0  0
    7.6469  -14.0092   17.6508 C   0  0  0  0  0  0  0  0  0  0  0  0
    8.8742  -13.7787   18.2018 C   0  0  0  0  0  0  0  0  0  0  0  0
    9.0018  -13.7146   19.5973 C   0  0  0  0  0  0  0  0  0  0  0  0
    7.9183  -13.8787   20.4217 C   0  0  0  0  0  0  0  0  0  0  0  0
    8.0408  -13.8091   21.8697 C   0  0  0  0  0  0  0  0  0  0  0  0
    8.5648  -15.0381   22.5268 C   0  0  2  0  0  0  0  0  0  0  0  0
    7.6354  -16.1488   22.4660 N   0  0  0  0  0  0  0  0  0  0  0  0
    9.0604  -14.8568   23.9103 C   0  0  0  0  0  0  0  0  0  0  0  0
   10.1644  -14.2405   24.1121 O   0  0  0  0  0  0  0  0  0  0  0  0
    6.6953  -14.1094   19.8356 C   0  0  0  0  0  0  0  0  0  0  0  0
    6.5545  -14.1756   18.4477 C   0  0  0  0  0  0  0  0  0  0  0  0
    6.2922  -12.2349   26.6441 C   0  0  0  0  0  0  0  0  0  0  0  0
    7.3995  -13.0992   26.0629 C   0  0  0  0  0  0  0  0  0  0  0  0
    7.9901  -14.0063   27.0856 C   0  0  2  0  0  0  0  0  0  0  0  0
    8.6431  -13.2973   28.2252 C   0  0  0  0  0  0  0  0  0  0  0  0
    8.8943  -15.0188   26.4339 C   0  0  2  0  0  0  0  0  0  0  0  0
    8.4129  -15.3086   25.0707 N   0  0  0  0  0  0  0  0  0  0  0  0
    9.1191  -16.2422   27.1954 C   0  0  0  0  0  0  0  0  0  0  0  0
    8.4076  -17.2558   27.0271 O   0  0  0  0  0  0  0  0  0  0  0  0
   10.1291  -16.3738   28.1538 O   0  0  0  0  0  0  0  0  0  0  0  0
  2  1  1  0
  3  2  1  0
  4  3  1  0
  4  5  1  0
  5  7  1  0
  5  6  1  6
  7  8  2  0
  9 10  1  0
 10 20  2  0
 10 11  1  0
 11 12  2  0
 12 13  1  0
 13 14  1  0
 15 14  1  1
 16 15  1  0
 16  7  1  0
 17 15  1  0
 18 17  2  0
 19 13  2  0
 20 19  1  0
 22 21  1  0
 23 24  1  1
 23 22  1  0
 25 23  1  0
 25 26  1  6
 26 17  1  0
 27 29  1  0
 27 25  1  0
 28 27  2  0
M  END
$$$$
