MYI.pdb
     RDKit          3D

 29 29  0  0  1  0  0  0  0  0999 V2000
    6.8879  -12.2610   20.3283 C   0  0  0  0  0  0  0  0  0  0  0  0
    7.6907  -13.0995   18.9262 S   0  0  0  0  0  0  0  0  0  0  0  0
    8.0563  -14.8254   19.3294 C   0  0  0  0  0  0  0  0  0  0  0  0
    6.7849  -15.6191   19.3886 C   0  0  0  0  0  0  0  0  0  0  0  0
    7.0290  -17.0516   19.7861 C   0  0  2  0  0  0  0  0  0  0  0  0
    6.0401  -17.8887   19.1333 N   0  0  0  0  0  0  0  0  0  0  0  0
    6.8441  -17.2037   21.2608 C   0  0  0  0  0  0  0  0  0  0  0  0
    5.6853  -17.2063   21.7908 O   0  0  0  0  0  0  0  0  0  0  0  0
    8.1585  -19.3014   29.7171 O   0  0  0  0  0  0  0  0  0  0  0  0
    8.1517  -19.1799   28.3390 C   0  0  0  0  0  0  0  0  0  0  0  0
    9.3234  -19.0540   27.6505 C   0  0  0  0  0  0  0  0  0  0  0  0
    9.2917  -18.9323   26.2533 C   0  0  0  0  0  0  0  0  0  0  0  0
    8.1070  -18.9371   25.5628 C   0  0  0  0  0  0  0  0  0  0  0  0
    8.0652  -18.8161   24.1136 C   0  0  0  0  0  0  0  0  0  0  0  0
    7.7921  -17.4478   23.5938 C   0  0  2  0  0  0  0  0  0  0  0  0
    7.9380  -17.3529   22.1548 N   0  0  0  0  0  0  0  0  0  0  0  0
    8.5364  -16.3549   24.2600 C   0  0  0  0  0  0  0  0  0  0  0  0
    9.7771  -16.1805   23.9959 O   0  0  0  0  0  0  0  0  0  0  0  0
    6.9436  -19.0656   26.2856 C   0  0  0  0  0  0  0  0  0  0  0  0
    6.9610  -19.1875   27.6768 C   0  0  0  0  0  0  0  0  0  0  0  0
    6.1469  -11.8184   26.8594 C   0  0  0  0  0  0  0  0  0  0  0  0
    6.8397  -13.1648   26.7251 C   0  0  0  0  0  0  0  0  0  0  0  0
    8.0130  -13.0964   25.8107 C   0  0  2  0  0  0  0  0  0  0  0  0
    7.6805  -12.6552   24.4241 C   0  0  0  0  0  0  0  0  0  0  0  0
    8.7826  -14.3904   25.8420 C   0  0  2  0  0  0  0  0  0  0  0  0
    7.9951  -15.4516   25.1879 N   0  0  0  0  0  0  0  0  0  0  0  0
    9.2575  -14.8069   27.1565 C   0  0  0  0  0  0  0  0  0  0  0  0
    8.7315  -15.7613   27.7682 O   0  0  0  0  0  0  0  0  0  0  0  0
   10.3184  -14.1834   27.8211 O   0  0  0  0  0  0  0  0  0  0  0  0
  2  1  1  0
  3  2  1  0
  4  3  1  0
  4  5  1  0
  5  7  1  0
  5  6  1  6
  7  8  2  0
  9 10  1  0
 10 20  2  0
 10 11  1  0
 11 12  2  0
 12 13  1  0
 13 14  1  0
 15 14  1  1
 16 15  1  0
 16  7  1  0
 17 15  1  0
 18 17  2  0
 19 13  2  0
 20 19  1  0
 22 21  1  0
 23 24  1  6
 23 22  1  0
 25 23  1  0
 25 26  1  1
 26 17  1  0
 27 29  1  0
 27 25  1  0
 28 27  2  0
M  END
$$$$
