MYI.pdb
     RDKit          3D

 29 29  0  0  1  0  0  0  0  0999 V2000
    5.7791  -12.6230   18.7393 C   0  0  0  0  0  0  0  0  0  0  0  0
    7.2075  -13.2278   17.7866 S   0  0  0  0  0  0  0  0  0  0  0  0
    8.7228  -13.1452   18.7724 C   0  0  0  0  0  0  0  0  0  0  0  0
    8.4801  -13.7209   20.1360 C   0  0  0  0  0  0  0  0  0  0  0  0
    9.7397  -14.2737   20.7504 C   0  0  2  0  0  0  0  0  0  0  0  0
   10.3318  -15.2189   19.8225 N   0  0  0  0  0  0  0  0  0  0  0  0
    9.4049  -15.0201   22.0004 C   0  0  0  0  0  0  0  0  0  0  0  0
    8.4643  -14.6409   22.7720 O   0  0  0  0  0  0  0  0  0  0  0  0
    8.7365  -21.4048   19.1340 O   0  0  0  0  0  0  0  0  0  0  0  0
    9.1421  -20.6451   20.2167 C   0  0  0  0  0  0  0  0  0  0  0  0
   10.3153  -19.9490   20.1719 C   0  0  0  0  0  0  0  0  0  0  0  0
   10.7061  -19.1854   21.2819 C   0  0  0  0  0  0  0  0  0  0  0  0
    9.9337  -19.1228   22.4131 C   0  0  0  0  0  0  0  0  0  0  0  0
   10.3290  -18.3297   23.5670 C   0  0  0  0  0  0  0  0  0  0  0  0
    9.7948  -16.9403   23.6012 C   0  0  2  0  0  0  0  0  0  0  0  0
   10.1078  -16.1873   22.4028 N   0  0  0  0  0  0  0  0  0  0  0  0
   10.1425  -16.1555   24.8077 C   0  0  0  0  0  0  0  0  0  0  0  0
   11.3499  -15.7682   24.9854 O   0  0  0  0  0  0  0  0  0  0  0  0
    8.7571  -19.8356   22.4270 C   0  0  0  0  0  0  0  0  0  0  0  0
    8.3564  -20.5997   21.3288 C   0  0  0  0  0  0  0  0  0  0  0  0
    7.2959  -12.1229   25.8929 C   0  0  0  0  0  0  0  0  0  0  0  0
    8.4147  -13.1490   25.8150 C   0  0  0  0  0  0  0  0  0  0  0  0
    8.6552  -13.8087   27.1283 C   0  0  2  0  0  0  0  0  0  0  0  0
    9.0359  -12.8677   28.2226 C   0  0  0  0  0  0  0  0  0  0  0  0
    9.6265  -14.9492   26.9759 C   0  0  2  0  0  0  0  0  0  0  0  0
    9.2434  -15.7752   25.8161 N   0  0  0  0  0  0  0  0  0  0  0  0
    9.8328  -15.7619   28.1693 C   0  0  0  0  0  0  0  0  0  0  0  0
   10.5216  -15.3510   29.1277 O   0  0  0  0  0  0  0  0  0  0  0  0
    9.2858  -17.0389   28.3309 O   0  0  0  0  0  0  0  0  0  0  0  0
  2  1  1  0
  3  2  1  0
  4  3  1  0
  4  5  1  0
  5  7  1  0
  5  6  1  6
  7  8  2  0
  9 10  1  0
 10 20  2  0
 10 11  1  0
 11 12  2  0
 12 13  1  0
 13 14  1  0
 15 14  1  6
 16 15  1  0
 16  7  1  0
 17 15  1  0
 18 17  2  0
 19 13  2  0
 20 19  1  0
 22 21  1  0
 23 24  1  1
 23 22  1  0
 25 23  1  0
 25 26  1  6
 26 17  1  0
 27 29  1  0
 27 25  1  0
 28 27  2  0
M  END
$$$$
