MYI.pdb
     RDKit          3D

 29 29  0  0  1  0  0  0  0  0999 V2000
    7.0584  -11.6831   19.8625 C   0  0  0  0  0  0  0  0  0  0  0  0
    7.6780  -13.3409   19.4367 S   0  0  0  0  0  0  0  0  0  0  0  0
    6.7131  -14.6247   20.2709 C   0  0  0  0  0  0  0  0  0  0  0  0
    7.2619  -15.9795   19.9342 C   0  0  0  0  0  0  0  0  0  0  0  0
    6.4074  -17.0904   20.4867 C   0  0  2  0  0  0  0  0  0  0  0  0
    5.0306  -16.8552   20.0942 N   0  0  0  0  0  0  0  0  0  0  0  0
    6.4591  -17.0710   21.9796 C   0  0  0  0  0  0  0  0  0  0  0  0
    5.5865  -16.4488   22.6691 O   0  0  0  0  0  0  0  0  0  0  0  0
    8.3756  -19.5378   30.2694 O   0  0  0  0  0  0  0  0  0  0  0  0
    8.2489  -19.4409   28.8952 C   0  0  0  0  0  0  0  0  0  0  0  0
    7.0180  -19.5008   28.3086 C   0  0  0  0  0  0  0  0  0  0  0  0
    6.9142  -19.4002   26.9132 C   0  0  0  0  0  0  0  0  0  0  0  0
    8.0245  -19.2427   26.1242 C   0  0  0  0  0  0  0  0  0  0  0  0
    7.9256  -19.1329   24.6768 C   0  0  0  0  0  0  0  0  0  0  0  0
    7.5084  -17.7988   24.1638 C   0  0  2  0  0  0  0  0  0  0  0  0
    7.4746  -17.7379   22.7160 N   0  0  0  0  0  0  0  0  0  0  0  0
    8.2587  -16.6450   24.7101 C   0  0  0  0  0  0  0  0  0  0  0  0
    9.4073  -16.3502   24.2272 O   0  0  0  0  0  0  0  0  0  0  0  0
    9.2506  -19.1860   26.7456 C   0  0  0  0  0  0  0  0  0  0  0  0
    9.3679  -19.2849   28.1338 C   0  0  0  0  0  0  0  0  0  0  0  0
    5.7547  -12.1505   26.2337 C   0  0  0  0  0  0  0  0  0  0  0  0
    6.7713  -13.1563   25.7184 C   0  0  0  0  0  0  0  0  0  0  0  0
    7.6972  -13.6098   26.7930 C   0  0  2  0  0  0  0  0  0  0  0  0
    8.4301  -12.5021   27.4739 C   0  0  0  0  0  0  0  0  0  0  0  0
    8.6155  -14.6868   26.2787 C   0  0  2  0  0  0  0  0  0  0  0  0
    7.8173  -15.8057   25.7448 N   0  0  0  0  0  0  0  0  0  0  0  0
    9.6283  -15.1507   27.2200 C   0  0  0  0  0  0  0  0  0  0  0  0
   10.7718  -14.6474   27.2489 O   0  0  0  0  0  0  0  0  0  0  0  0
    9.4025  -16.1742   28.1460 O   0  0  0  0  0  0  0  0  0  0  0  0
  2  1  1  0
  3  2  1  0
  4  3  1  0
  4  5  1  0
  5  7  1  0
  5  6  1  1
  7  8  2  0
  9 10  1  0
 10 20  2  0
 10 11  1  0
 11 12  2  0
 12 13  1  0
 13 14  1  0
 15 14  1  6
 16 15  1  0
 16  7  1  0
 17 15  1  0
 18 17  2  0
 19 13  2  0
 20 19  1  0
 22 21  1  0
 23 24  1  6
 23 22  1  0
 25 23  1  0
 25 26  1  1
 26 17  1  0
 27 29  1  0
 27 25  1  0
 28 27  2  0
M  END
$$$$
