MYI.pdb
     RDKit          3D

 29 29  0  0  1  0  0  0  0  0999 V2000
    7.8278  -11.7403   19.3665 C   0  0  0  0  0  0  0  0  0  0  0  0
    8.6487  -13.3205   18.9886 S   0  0  0  0  0  0  0  0  0  0  0  0
    8.4065  -14.5109   20.3300 C   0  0  0  0  0  0  0  0  0  0  0  0
    7.1787  -15.3328   20.0716 C   0  0  0  0  0  0  0  0  0  0  0  0
    7.3599  -16.7690   20.4885 C   0  0  2  0  0  0  0  0  0  0  0  0
    6.1139  -17.4775   20.2640 N   0  0  0  0  0  0  0  0  0  0  0  0
    7.6579  -16.8353   21.9509 C   0  0  0  0  0  0  0  0  0  0  0  0
    6.7296  -16.7962   22.8230 O   0  0  0  0  0  0  0  0  0  0  0  0
   11.9414  -18.7754   29.4566 O   0  0  0  0  0  0  0  0  0  0  0  0
   11.5940  -18.5689   28.1335 C   0  0  0  0  0  0  0  0  0  0  0  0
   12.2265  -17.6118   27.3940 C   0  0  0  0  0  0  0  0  0  0  0  0
   11.8573  -17.4206   26.0542 C   0  0  0  0  0  0  0  0  0  0  0  0
   10.8730  -18.1757   25.4700 C   0  0  0  0  0  0  0  0  0  0  0  0
   10.4871  -17.9873   24.0800 C   0  0  0  0  0  0  0  0  0  0  0  0
    9.2941  -17.1241   23.8590 C   0  0  2  0  0  0  0  0  0  0  0  0
    8.9816  -16.9447   22.4550 N   0  0  0  0  0  0  0  0  0  0  0  0
    9.3193  -15.8159   24.5521 C   0  0  0  0  0  0  0  0  0  0  0  0
    9.3309  -14.7353   23.8654 O   0  0  0  0  0  0  0  0  0  0  0  0
   10.2547  -19.1320   26.2419 C   0  0  0  0  0  0  0  0  0  0  0  0
   10.6126  -19.3326   27.5768 C   0  0  0  0  0  0  0  0  0  0  0  0
    6.6699  -12.4787   24.2819 C   0  0  0  0  0  0  0  0  0  0  0  0
    7.9749  -13.0477   24.8147 C   0  0  0  0  0  0  0  0  0  0  0  0
    7.7829  -13.7588   26.1090 C   0  0  2  0  0  0  0  0  0  0  0  0
    7.0843  -12.9502   27.1511 C   0  0  0  0  0  0  0  0  0  0  0  0
    9.0876  -14.3331   26.5942 C   0  0  2  0  0  0  0  0  0  0  0  0
    9.3290  -15.6342   25.9438 N   0  0  0  0  0  0  0  0  0  0  0  0
    9.2349  -14.4212   28.0425 C   0  0  0  0  0  0  0  0  0  0  0  0
    9.3972  -13.4007   28.7453 O   0  0  0  0  0  0  0  0  0  0  0  0
    9.2057  -15.6310   28.7437 O   0  0  0  0  0  0  0  0  0  0  0  0
  2  1  1  0
  3  2  1  0
  4  3  1  0
  4  5  1  0
  5  7  1  0
  5  6  1  1
  7  8  2  0
  9 10  1  0
 10 20  2  0
 10 11  1  0
 11 12  2  0
 12 13  1  0
 13 14  1  0
 15 14  1  6
 16 15  1  0
 16  7  1  0
 17 15  1  0
 18 17  2  0
 19 13  2  0
 20 19  1  0
 22 21  1  0
 23 24  1  1
 23 22  1  0
 25 23  1  0
 25 26  1  6
 26 17  1  0
 27 29  1  0
 27 25  1  0
 28 27  2  0
M  END
$$$$
