MYI.pdb
     RDKit          3D

 29 29  0  0  1  0  0  0  0  0999 V2000
    8.8914  -11.5192   19.7834 C   0  0  0  0  0  0  0  0  0  0  0  0
    7.6699  -12.3849   18.7478 S   0  0  0  0  0  0  0  0  0  0  0  0
    7.9637  -14.1705   18.7591 C   0  0  0  0  0  0  0  0  0  0  0  0
    8.1673  -14.6484   20.1662 C   0  0  0  0  0  0  0  0  0  0  0  0
    8.5590  -16.1021   20.2200 C   0  0  2  0  0  0  0  0  0  0  0  0
    7.4860  -16.8928   19.6471 N   0  0  0  0  0  0  0  0  0  0  0  0
    8.7212  -16.5277   21.6429 C   0  0  0  0  0  0  0  0  0  0  0  0
    7.7401  -16.9779   22.3202 O   0  0  0  0  0  0  0  0  0  0  0  0
   11.1506  -22.5100   20.6200 O   0  0  0  0  0  0  0  0  0  0  0  0
   11.1923  -21.3728   21.4067 C   0  0  0  0  0  0  0  0  0  0  0  0
   10.6312  -21.3722   22.6510 C   0  0  0  0  0  0  0  0  0  0  0  0
   10.6858  -20.2073   23.4307 C   0  0  0  0  0  0  0  0  0  0  0  0
   11.2918  -19.0670   22.9694 C   0  0  0  0  0  0  0  0  0  0  0  0
   11.3571  -17.8561   23.7732 C   0  0  0  0  0  0  0  0  0  0  0  0
   10.1769  -16.9543   23.6677 C   0  0  2  0  0  0  0  0  0  0  0  0
    9.9667  -16.4574   22.3224 N   0  0  0  0  0  0  0  0  0  0  0  0
   10.1413  -15.8383   24.6402 C   0  0  0  0  0  0  0  0  0  0  0  0
   10.9830  -14.8793   24.5350 O   0  0  0  0  0  0  0  0  0  0  0  0
   11.8478  -19.0998   21.7115 C   0  0  0  0  0  0  0  0  0  0  0  0
   11.8004  -20.2529   20.9249 C   0  0  0  0  0  0  0  0  0  0  0  0
    6.1611  -12.9238   25.8632 C   0  0  0  0  0  0  0  0  0  0  0  0
    7.5354  -13.5533   25.7022 C   0  0  0  0  0  0  0  0  0  0  0  0
    8.0955  -14.0042   27.0063 C   0  0  2  0  0  0  0  0  0  0  0  0
    8.2013  -12.9239   28.0307 C   0  0  0  0  0  0  0  0  0  0  0  0
    9.3933  -14.7389   26.7975 C   0  0  2  0  0  0  0  0  0  0  0  0
    9.2379  -15.7199   25.7078 N   0  0  0  0  0  0  0  0  0  0  0  0
    9.9687  -15.3485   27.9910 C   0  0  0  0  0  0  0  0  0  0  0  0
    9.7723  -16.5510   28.2690 O   0  0  0  0  0  0  0  0  0  0  0  0
   10.7702  -14.6487   28.8986 O   0  0  0  0  0  0  0  0  0  0  0  0
  2  1  1  0
  3  2  1  0
  4  3  1  0
  4  5  1  0
  5  7  1  0
  5  6  1  1
  7  8  2  0
  9 10  1  0
 10 20  2  0
 10 11  1  0
 11 12  2  0
 12 13  1  0
 13 14  1  0
 15 14  1  6
 16 15  1  0
 16  7  1  0
 17 15  1  0
 18 17  2  0
 19 13  2  0
 20 19  1  0
 22 21  1  0
 23 24  1  1
 23 22  1  0
 25 23  1  0
 25 26  1  6
 26 17  1  0
 27 29  1  0
 27 25  1  0
 28 27  2  0
M  END
$$$$
