MYI.pdb
     RDKit          3D

 29 29  0  0  1  0  0  0  0  0999 V2000
    1.8087  -19.3181   22.1324 C   0  0  0  0  0  0  0  0  0  0  0  0
    3.0415  -19.0710   20.8160 S   0  0  0  0  0  0  0  0  0  0  0  0
    4.7222  -19.1497   21.4824 C   0  0  0  0  0  0  0  0  0  0  0  0
    4.6801  -19.1577   22.9817 C   0  0  0  0  0  0  0  0  0  0  0  0
    6.0435  -19.3707   23.5860 C   0  0  2  0  0  0  0  0  0  0  0  0
    5.9291  -19.2857   25.0298 N   0  0  0  0  0  0  0  0  0  0  0  0
    6.9664  -18.2825   23.1431 C   0  0  0  0  0  0  0  0  0  0  0  0
    7.7938  -18.4568   22.1897 O   0  0  0  0  0  0  0  0  0  0  0  0
    8.7981  -12.8666   17.8496 O   0  0  0  0  0  0  0  0  0  0  0  0
    8.4005  -13.3049   19.1001 C   0  0  0  0  0  0  0  0  0  0  0  0
    7.6038  -12.5231   19.8855 C   0  0  0  0  0  0  0  0  0  0  0  0
    7.2132  -12.9885   21.1499 C   0  0  0  0  0  0  0  0  0  0  0  0
    7.6151  -14.2143   21.6149 C   0  0  0  0  0  0  0  0  0  0  0  0
    7.2109  -14.7068   22.9229 C   0  0  0  0  0  0  0  0  0  0  0  0
    7.9014  -15.9437   23.3817 C   0  0  2  0  0  0  0  0  0  0  0  0
    6.9790  -16.9989   23.7515 N   0  0  0  0  0  0  0  0  0  0  0  0
    8.9138  -15.7491   24.4445 C   0  0  0  0  0  0  0  0  0  0  0  0
   10.0932  -15.3605   24.1324 O   0  0  0  0  0  0  0  0  0  0  0  0
    8.4176  -14.9784   20.7996 C   0  0  0  0  0  0  0  0  0  0  0  0
    8.8137  -14.5268   19.5388 C   0  0  0  0  0  0  0  0  0  0  0  0
    8.0573  -12.4303   27.9514 C   0  0  0  0  0  0  0  0  0  0  0  0
    8.6485  -13.4833   27.0281 C   0  0  0  0  0  0  0  0  0  0  0  0
    9.2308  -14.6239   27.7880 C   0  0  2  0  0  0  0  0  0  0  0  0
   10.2568  -14.2246   28.7958 C   0  0  0  0  0  0  0  0  0  0  0  0
    9.7236  -15.6895   26.8451 C   0  0  2  0  0  0  0  0  0  0  0  0
    8.7005  -15.9532   25.8166 N   0  0  0  0  0  0  0  0  0  0  0  0
   10.1818  -16.9225   27.4752 C   0  0  0  0  0  0  0  0  0  0  0  0
    9.4887  -17.9622   27.4554 O   0  0  0  0  0  0  0  0  0  0  0  0
   11.4088  -17.0350   28.1368 O   0  0  0  0  0  0  0  0  0  0  0  0
  2  1  1  0
  3  2  1  0
  4  3  1  0
  4  5  1  0
  5  7  1  0
  5  6  1  1
  7  8  2  0
  9 10  1  0
 10 20  2  0
 10 11  1  0
 11 12  2  0
 12 13  1  0
 13 14  1  0
 15 14  1  1
 16 15  1  0
 16  7  1  0
 17 15  1  0
 18 17  2  0
 19 13  2  0
 20 19  1  0
 22 21  1  0
 23 24  1  6
 23 22  1  0
 25 23  1  0
 25 26  1  6
 26 17  1  0
 27 29  1  0
 27 25  1  0
 28 27  2  0
M  END
$$$$
