MYI.pdb
     RDKit          3D

 29 29  0  0  1  0  0  0  0  0999 V2000
    5.0356  -12.3987   24.6773 C   0  0  0  0  0  0  0  0  0  0  0  0
    4.5221  -13.9360   25.5061 S   0  0  0  0  0  0  0  0  0  0  0  0
    5.9434  -15.0172   25.7992 C   0  0  0  0  0  0  0  0  0  0  0  0
    5.6122  -16.4222   25.3918 C   0  0  0  0  0  0  0  0  0  0  0  0
    6.0051  -16.7064   23.9655 C   0  0  2  0  0  0  0  0  0  0  0  0
    5.5503  -18.0391   23.6162 N   0  0  0  0  0  0  0  0  0  0  0  0
    7.4938  -16.6921   23.8407 C   0  0  0  0  0  0  0  0  0  0  0  0
    8.1925  -17.7322   24.0728 O   0  0  0  0  0  0  0  0  0  0  0  0
    7.1242  -14.1053   17.4278 O   0  0  0  0  0  0  0  0  0  0  0  0
    7.8308  -14.1657   18.6157 C   0  0  0  0  0  0  0  0  0  0  0  0
    7.7024  -13.1765   19.5473 C   0  0  0  0  0  0  0  0  0  0  0  0
    8.4288  -13.2592   20.7445 C   0  0  0  0  0  0  0  0  0  0  0  0
    9.2666  -14.3143   20.9999 C   0  0  0  0  0  0  0  0  0  0  0  0
   10.0201  -14.4104   22.2407 C   0  0  0  0  0  0  0  0  0  0  0  0
    9.6297  -15.5305   23.1407 C   0  0  2  0  0  0  0  0  0  0  0  0
    8.2157  -15.5294   23.4597 N   0  0  0  0  0  0  0  0  0  0  0  0
   10.4359  -15.6639   24.3754 C   0  0  0  0  0  0  0  0  0  0  0  0
   11.6660  -15.3087   24.3703 O   0  0  0  0  0  0  0  0  0  0  0  0
    9.3741  -15.2950   20.0411 C   0  0  0  0  0  0  0  0  0  0  0  0
    8.6566  -15.2248   18.8449 C   0  0  0  0  0  0  0  0  0  0  0  0
    9.9585  -12.7599   28.1525 C   0  0  0  0  0  0  0  0  0  0  0  0
   10.5393  -13.8307   27.2432 C   0  0  0  0  0  0  0  0  0  0  0  0
   10.3554  -15.1968   27.8068 C   0  0  2  0  0  0  0  0  0  0  0  0
   10.9626  -15.3861   29.1571 C   0  0  0  0  0  0  0  0  0  0  0  0
   10.7995  -16.2405   26.8163 C   0  0  2  0  0  0  0  0  0  0  0  0
    9.9666  -16.1582   25.6023 N   0  0  0  0  0  0  0  0  0  0  0  0
   10.8679  -17.6041   27.3292 C   0  0  0  0  0  0  0  0  0  0  0  0
   11.7180  -17.9388   28.1819 O   0  0  0  0  0  0  0  0  0  0  0  0
   10.0038  -18.6229   26.9153 O   0  0  0  0  0  0  0  0  0  0  0  0
  2  1  1  0
  3  2  1  0
  4  3  1  0
  4  5  1  0
  5  7  1  0
  5  6  1  1
  7  8  2  0
  9 10  1  0
 10 20  2  0
 10 11  1  0
 11 12  2  0
 12 13  1  0
 13 14  1  0
 15 14  1  1
 16 15  1  0
 16  7  1  0
 17 15  1  0
 18 17  2  0
 19 13  2  0
 20 19  1  0
 22 21  1  0
 23 24  1  1
 23 22  1  0
 25 23  1  0
 25 26  1  6
 26 17  1  0
 27 29  1  0
 27 25  1  0
 28 27  2  0
M  END
$$$$
