MYI.pdb
     RDKit          3D

 29 29  0  0  1  0  0  0  0  0999 V2000
    8.2140  -11.4825   19.0364 C   0  0  0  0  0  0  0  0  0  0  0  0
    8.6661  -13.0210   19.8980 S   0  0  0  0  0  0  0  0  0  0  0  0
    7.1938  -13.8671   20.5236 C   0  0  0  0  0  0  0  0  0  0  0  0
    6.8497  -15.0244   19.6336 C   0  0  0  0  0  0  0  0  0  0  0  0
    7.8881  -16.1141   19.6937 C   0  0  2  0  0  0  0  0  0  0  0  0
    7.4646  -17.2058   18.8371 N   0  0  0  0  0  0  0  0  0  0  0  0
    7.9807  -16.6454   21.0869 C   0  0  0  0  0  0  0  0  0  0  0  0
    6.9777  -17.1770   21.6659 O   0  0  0  0  0  0  0  0  0  0  0  0
    9.1962  -23.0387   21.0620 O   0  0  0  0  0  0  0  0  0  0  0  0
    9.4814  -21.8124   21.6354 C   0  0  0  0  0  0  0  0  0  0  0  0
   10.3517  -20.9523   21.0306 C   0  0  0  0  0  0  0  0  0  0  0  0
   10.6255  -19.7141   21.6307 C   0  0  0  0  0  0  0  0  0  0  0  0
   10.0367  -19.3484   22.8138 C   0  0  0  0  0  0  0  0  0  0  0  0
   10.3113  -18.0645   23.4407 C   0  0  0  0  0  0  0  0  0  0  0  0
    9.2768  -17.0150   23.2282 C   0  0  2  0  0  0  0  0  0  0  0  0
    9.1807  -16.5912   21.8453 N   0  0  0  0  0  0  0  0  0  0  0  0
    9.3728  -15.8382   24.1217 C   0  0  0  0  0  0  0  0  0  0  0  0
   10.3738  -15.0462   24.0209 O   0  0  0  0  0  0  0  0  0  0  0  0
    9.1644  -20.2373   23.3983 C   0  0  0  0  0  0  0  0  0  0  0  0
    8.8831  -21.4731   22.8114 C   0  0  0  0  0  0  0  0  0  0  0  0
    6.5196  -11.1588   26.4659 C   0  0  0  0  0  0  0  0  0  0  0  0
    7.5924  -12.2042   26.7254 C   0  0  0  0  0  0  0  0  0  0  0  0
    7.4335  -13.3932   25.8430 C   0  0  2  0  0  0  0  0  0  0  0  0
    6.1153  -14.0803   25.9773 C   0  0  0  0  0  0  0  0  0  0  0  0
    8.5996  -14.3318   26.0072 C   0  0  2  0  0  0  0  0  0  0  0  0
    8.4363  -15.4877   25.1066 N   0  0  0  0  0  0  0  0  0  0  0  0
    8.8793  -14.7523   27.3754 C   0  0  0  0  0  0  0  0  0  0  0  0
    9.2420  -13.9348   28.2483 O   0  0  0  0  0  0  0  0  0  0  0  0
    8.7647  -16.0771   27.8087 O   0  0  0  0  0  0  0  0  0  0  0  0
  2  1  1  0
  3  2  1  0
  4  3  1  0
  4  5  1  0
  5  7  1  0
  5  6  1  6
  7  8  2  0
  9 10  1  0
 10 20  2  0
 10 11  1  0
 11 12  2  0
 12 13  1  0
 13 14  1  0
 15 14  1  6
 16 15  1  0
 16  7  1  0
 17 15  1  0
 18 17  2  0
 19 13  2  0
 20 19  1  0
 22 21  1  0
 23 24  1  1
 23 22  1  0
 25 23  1  0
 25 26  1  6
 26 17  1  0
 27 29  1  0
 27 25  1  0
 28 27  2  0
M  END
$$$$
