MYI.pdb
     RDKit          3D

 29 29  0  0  1  0  0  0  0  0999 V2000
    5.5286  -13.1537   25.7445 C   0  0  0  0  0  0  0  0  0  0  0  0
    6.2611  -14.4193   26.8286 S   0  0  0  0  0  0  0  0  0  0  0  0
    6.0730  -16.0705   26.1121 C   0  0  0  0  0  0  0  0  0  0  0  0
    5.5487  -15.9653   24.7107 C   0  0  0  0  0  0  0  0  0  0  0  0
    6.0863  -17.0557   23.8210 C   0  0  2  0  0  0  0  0  0  0  0  0
    5.8796  -18.3331   24.4769 N   0  0  0  0  0  0  0  0  0  0  0  0
    7.5582  -16.8768   23.6383 C   0  0  0  0  0  0  0  0  0  0  0  0
    8.3584  -17.8683   23.6613 O   0  0  0  0  0  0  0  0  0  0  0  0
    7.5550  -13.7026   17.3261 O   0  0  0  0  0  0  0  0  0  0  0  0
    8.1300  -13.8211   18.5788 C   0  0  0  0  0  0  0  0  0  0  0  0
    9.2472  -14.5846   18.7571 C   0  0  0  0  0  0  0  0  0  0  0  0
    9.8128  -14.6898   20.0366 C   0  0  0  0  0  0  0  0  0  0  0  0
    9.2667  -14.0410   21.1141 C   0  0  0  0  0  0  0  0  0  0  0  0
    9.8494  -14.1408   22.4435 C   0  0  0  0  0  0  0  0  0  0  0  0
    9.5644  -15.4071   23.1731 C   0  0  2  0  0  0  0  0  0  0  0  0
    8.1513  -15.6029   23.4298 N   0  0  0  0  0  0  0  0  0  0  0  0
   10.3467  -15.6158   24.4128 C   0  0  0  0  0  0  0  0  0  0  0  0
   11.6232  -15.6932   24.3510 O   0  0  0  0  0  0  0  0  0  0  0  0
    8.1410  -13.2793   20.9016 C   0  0  0  0  0  0  0  0  0  0  0  0
    7.5679  -13.1662   19.6330 C   0  0  0  0  0  0  0  0  0  0  0  0
    9.5806  -12.4465   28.2580 C   0  0  0  0  0  0  0  0  0  0  0  0
   10.1797  -13.4813   27.3193 C   0  0  0  0  0  0  0  0  0  0  0  0
   10.2022  -14.8387   27.9313 C   0  0  2  0  0  0  0  0  0  0  0  0
   10.9789  -14.9213   29.2032 C   0  0  0  0  0  0  0  0  0  0  0  0
   10.6311  -15.8672   26.9185 C   0  0  2  0  0  0  0  0  0  0  0  0
    9.8070  -15.7393   25.7025 N   0  0  0  0  0  0  0  0  0  0  0  0
   10.6696  -17.2437   27.3989 C   0  0  0  0  0  0  0  0  0  0  0  0
   11.4405  -17.5927   28.3185 O   0  0  0  0  0  0  0  0  0  0  0  0
    9.8617  -18.2599   26.8787 O   0  0  0  0  0  0  0  0  0  0  0  0
  2  1  1  0
  3  2  1  0
  4  3  1  0
  4  5  1  0
  5  7  1  0
  5  6  1  1
  7  8  2  0
  9 10  1  0
 10 20  2  0
 10 11  1  0
 11 12  2  0
 12 13  1  0
 13 14  1  0
 15 14  1  1
 16 15  1  0
 16  7  1  0
 17 15  1  0
 18 17  2  0
 19 13  2  0
 20 19  1  0
 22 21  1  0
 23 24  1  1
 23 22  1  0
 25 23  1  0
 25 26  1  6
 26 17  1  0
 27 29  1  0
 27 25  1  0
 28 27  2  0
M  END
$$$$
