MYI.pdb
     RDKit          3D

 29 29  0  0  1  0  0  0  0  0999 V2000
    6.8815  -12.0496   19.2993 C   0  0  0  0  0  0  0  0  0  0  0  0
    7.0323  -13.5509   18.2811 S   0  0  0  0  0  0  0  0  0  0  0  0
    7.9385  -14.8431   19.1664 C   0  0  0  0  0  0  0  0  0  0  0  0
    9.2258  -14.2914   19.7033 C   0  0  0  0  0  0  0  0  0  0  0  0
    9.9850  -15.3099   20.5132 C   0  0  2  0  0  0  0  0  0  0  0  0
   10.0530  -16.5462   19.7570 N   0  0  0  0  0  0  0  0  0  0  0  0
    9.2473  -15.5974   21.7801 C   0  0  0  0  0  0  0  0  0  0  0  0
    8.7942  -14.6604   22.5153 O   0  0  0  0  0  0  0  0  0  0  0  0
    7.1221  -20.1005   29.1081 O   0  0  0  0  0  0  0  0  0  0  0  0
    7.4167  -19.7535   27.8017 C   0  0  0  0  0  0  0  0  0  0  0  0
    6.4152  -19.4623   26.9212 C   0  0  0  0  0  0  0  0  0  0  0  0
    6.7381  -19.1129   25.6015 C   0  0  0  0  0  0  0  0  0  0  0  0
    8.0405  -19.0574   25.1759 C   0  0  0  0  0  0  0  0  0  0  0  0
    8.3845  -18.6915   23.8105 C   0  0  0  0  0  0  0  0  0  0  0  0
    8.4309  -17.2294   23.5327 C   0  0  2  0  0  0  0  0  0  0  0  0
    9.0079  -16.9203   22.2394 N   0  0  0  0  0  0  0  0  0  0  0  0
    9.0590  -16.4019   24.5877 C   0  0  0  0  0  0  0  0  0  0  0  0
   10.3173  -16.1687   24.5448 O   0  0  0  0  0  0  0  0  0  0  0  0
    9.0267  -19.3564   26.0872 C   0  0  0  0  0  0  0  0  0  0  0  0
    8.7189  -19.7058   27.4039 C   0  0  0  0  0  0  0  0  0  0  0  0
    6.1599  -12.3939   26.5194 C   0  0  0  0  0  0  0  0  0  0  0  0
    7.2929  -13.2811   26.0295 C   0  0  0  0  0  0  0  0  0  0  0  0
    8.0221  -13.9238   27.1577 C   0  0  2  0  0  0  0  0  0  0  0  0
    8.6081  -12.9584   28.1336 C   0  0  0  0  0  0  0  0  0  0  0  0
    9.0317  -14.9130   26.6383 C   0  0  2  0  0  0  0  0  0  0  0  0
    8.3850  -15.8209   25.6731 N   0  0  0  0  0  0  0  0  0  0  0  0
    9.7703  -15.6500   27.6572 C   0  0  0  0  0  0  0  0  0  0  0  0
    9.3839  -16.7669   28.0636 O   0  0  0  0  0  0  0  0  0  0  0  0
   10.9460  -15.1740   28.2463 O   0  0  0  0  0  0  0  0  0  0  0  0
  2  1  1  0
  3  2  1  0
  4  3  1  0
  4  5  1  0
  5  7  1  0
  5  6  1  6
  7  8  2  0
  9 10  1  0
 10 20  2  0
 10 11  1  0
 11 12  2  0
 12 13  1  0
 13 14  1  0
 15 14  1  1
 16 15  1  0
 16  7  1  0
 17 15  1  0
 18 17  2  0
 19 13  2  0
 20 19  1  0
 22 21  1  0
 23 24  1  6
 23 22  1  0
 25 23  1  0
 25 26  1  6
 26 17  1  0
 27 29  1  0
 27 25  1  0
 28 27  2  0
M  END
$$$$
