MYI.pdb
     RDKit          3D

 29 29  0  0  1  0  0  0  0  0999 V2000
    6.2565  -12.8430   25.6813 C   0  0  0  0  0  0  0  0  0  0  0  0
    5.7652  -14.2735   26.6942 S   0  0  0  0  0  0  0  0  0  0  0  0
    6.7097  -15.7464   26.2324 C   0  0  0  0  0  0  0  0  0  0  0  0
    5.8230  -16.7210   25.5156 C   0  0  0  0  0  0  0  0  0  0  0  0
    5.9847  -16.6404   24.0200 C   0  0  2  0  0  0  0  0  0  0  0  0
    5.3924  -17.8238   23.4253 N   0  0  0  0  0  0  0  0  0  0  0  0
    7.4370  -16.6398   23.6696 C   0  0  0  0  0  0  0  0  0  0  0  0
    8.1046  -17.7224   23.5914 O   0  0  0  0  0  0  0  0  0  0  0  0
    7.1325  -13.9763   17.3763 O   0  0  0  0  0  0  0  0  0  0  0  0
    7.8345  -14.0685   18.5648 C   0  0  0  0  0  0  0  0  0  0  0  0
    8.6205  -15.1545   18.8208 C   0  0  0  0  0  0  0  0  0  0  0  0
    9.3231  -15.2261   20.0330 C   0  0  0  0  0  0  0  0  0  0  0  0
    9.2373  -14.2268   20.9680 C   0  0  0  0  0  0  0  0  0  0  0  0
    9.9661  -14.2906   22.2256 C   0  0  0  0  0  0  0  0  0  0  0  0
    9.5800  -15.4067   23.1323 C   0  0  2  0  0  0  0  0  0  0  0  0
    8.1568  -15.4440   23.4047 N   0  0  0  0  0  0  0  0  0  0  0  0
   10.3483  -15.4941   24.3951 C   0  0  0  0  0  0  0  0  0  0  0  0
   11.2108  -14.5904   24.6757 O   0  0  0  0  0  0  0  0  0  0  0  0
    8.4368  -13.1456   20.6802 C   0  0  0  0  0  0  0  0  0  0  0  0
    7.7320  -13.0620   19.4773 C   0  0  0  0  0  0  0  0  0  0  0  0
   10.0942  -12.7104   27.2719 C   0  0  0  0  0  0  0  0  0  0  0  0
   10.5881  -13.9776   26.5928 C   0  0  0  0  0  0  0  0  0  0  0  0
   10.2973  -15.1917   27.4046 C   0  0  2  0  0  0  0  0  0  0  0  0
   10.7540  -15.1008   28.8227 C   0  0  0  0  0  0  0  0  0  0  0  0
   10.8036  -16.4266   26.7072 C   0  0  2  0  0  0  0  0  0  0  0  0
   10.2181  -16.5084   25.3564 N   0  0  0  0  0  0  0  0  0  0  0  0
   10.6366  -17.6756   27.4415 C   0  0  0  0  0  0  0  0  0  0  0  0
    9.6264  -18.3945   27.2851 O   0  0  0  0  0  0  0  0  0  0  0  0
   11.5760  -18.1568   28.3590 O   0  0  0  0  0  0  0  0  0  0  0  0
  2  1  1  0
  3  2  1  0
  4  3  1  0
  4  5  1  0
  5  7  1  0
  5  6  1  6
  7  8  2  0
  9 10  1  0
 10 20  2  0
 10 11  1  0
 11 12  2  0
 12 13  1  0
 13 14  1  0
 15 14  1  1
 16 15  1  0
 16  7  1  0
 17 15  1  0
 18 17  2  0
 19 13  2  0
 20 19  1  0
 22 21  1  0
 23 24  1  1
 23 22  1  0
 25 23  1  0
 25 26  1  6
 26 17  1  0
 27 29  1  0
 27 25  1  0
 28 27  2  0
M  END
$$$$
