DKA.pdb
     RDKit          3D

 23 22  0  0  1  0  0  0  0  0999 V2000
   10.2109  -16.7219   20.5259 N   0  0  0  0  0  0  0  0  0  0  0  0
   10.8088  -17.1136   21.7675 C   0  0  1  0  0  0  0  0  0  0  0  0
   12.2615  -16.6689   21.8198 C   0  0  0  0  0  0  0  0  0  0  0  0
   13.0660  -17.4376   20.8401 C   0  0  0  0  0  0  0  0  0  0  0  0
   12.5603  -17.8475   19.7659 O   0  0  0  0  0  0  0  0  0  0  0  0
   10.0269  -16.5344   22.8723 C   0  0  0  0  0  0  0  0  0  0  0  0
    9.6308  -15.3187   22.8453 O   0  0  0  0  0  0  0  0  0  0  0  0
   14.4001  -17.7283   21.0773 O   0  0  0  0  0  0  0  0  0  0  0  0
    9.6983  -17.3303   23.9978 N   0  0  0  0  0  0  0  0  0  0  0  0
    8.9117  -16.8125   25.0736 C   0  0  1  0  0  0  0  0  0  0  0  0
    8.1028  -17.9852   25.6415 C   0  0  0  0  0  0  0  0  0  0  0  0
    7.0380  -18.3654   24.6322 C   0  0  0  0  0  0  0  0  0  0  0  0
    6.7444  -19.8284   24.8025 C   0  0  0  0  0  0  0  0  0  0  0  0
    5.7903  -20.2362   23.6991 C   0  0  0  0  0  0  0  0  0  0  0  0
    5.5637  -21.6573   23.7292 N   0  0  0  0  0  0  0  0  0  0  0  0
    9.8099  -16.3686   26.1668 C   0  0  0  0  0  0  0  0  0  0  0  0
   10.8355  -17.0127   26.4528 O   0  0  0  0  0  0  0  0  0  0  0  0
    9.8666  -13.3025   28.3235 C   0  0  0  0  0  0  0  0  0  0  0  0
   10.3031  -14.7226   28.0009 C   0  0  2  0  0  0  0  0  0  0  0  0
    9.4816  -15.1859   26.8915 N   0  0  0  0  0  0  0  0  0  0  0  0
   10.0800  -15.5950   29.1746 C   0  0  0  0  0  0  0  0  0  0  0  0
   10.9459  -15.5621   30.2628 O   0  0  0  0  0  0  0  0  0  0  0  0
    9.0936  -16.3780   29.1897 O   0  0  0  0  0  0  0  0  0  0  0  0
  2  1  1  6
  2  6  1  0
  3  2  1  0
  3  4  1  0
  4  8  1  0
  5  4  2  0
  6  7  2  0
  9 10  1  0
  9  6  1  0
 10 16  1  0
 10 11  1  1
 12 11  1  0
 12 13  1  0
 13 14  1  0
 14 15  1  0
 16 17  2  0
 16 20  1  0
 19 18  1  1
 19 21  1  0
 20 19  1  0
 21 23  2  0
 21 22  1  0
M  END
$$$$
