DKA.pdb
     RDKit          3D

 23 22  0  0  1  0  0  0  0  0999 V2000
    9.7125  -16.1765   19.1715 N   0  0  0  0  0  0  0  0  0  0  0  0
   10.1882  -16.4846   20.4873 C   0  0  1  0  0  0  0  0  0  0  0  0
   11.5921  -15.9363   20.6853 C   0  0  0  0  0  0  0  0  0  0  0  0
   12.5810  -16.8090   20.0082 C   0  0  0  0  0  0  0  0  0  0  0  0
   12.2869  -17.9834   19.6736 O   0  0  0  0  0  0  0  0  0  0  0  0
    9.2471  -15.9274   21.4728 C   0  0  0  0  0  0  0  0  0  0  0  0
    8.6652  -14.8049   21.2808 O   0  0  0  0  0  0  0  0  0  0  0  0
   13.8599  -16.3580   19.7229 O   0  0  0  0  0  0  0  0  0  0  0  0
    8.9701  -16.6400   22.6660 N   0  0  0  0  0  0  0  0  0  0  0  0
    8.0020  -16.1705   23.6076 C   0  0  1  0  0  0  0  0  0  0  0  0
    7.2609  -17.4032   24.1399 C   0  0  0  0  0  0  0  0  0  0  0  0
    6.2100  -17.8052   23.1245 C   0  0  0  0  0  0  0  0  0  0  0  0
    5.5782  -19.0829   23.5978 C   0  0  0  0  0  0  0  0  0  0  0  0
    4.4651  -19.4297   22.6311 C   0  0  0  0  0  0  0  0  0  0  0  0
    3.8176  -20.6529   23.0267 N   0  0  0  0  0  0  0  0  0  0  0  0
    8.7011  -15.5790   24.7740 C   0  0  0  0  0  0  0  0  0  0  0  0
    9.7706  -16.0603   25.1899 O   0  0  0  0  0  0  0  0  0  0  0  0
    7.9605  -12.5663   26.8989 C   0  0  0  0  0  0  0  0  0  0  0  0
    8.8176  -13.7573   26.5016 C   0  0  2  0  0  0  0  0  0  0  0  0
    8.1283  -14.4436   25.4179 N   0  0  0  0  0  0  0  0  0  0  0  0
    8.9626  -14.6770   27.6512 C   0  0  0  0  0  0  0  0  0  0  0  0
    9.8937  -14.4249   28.6534 O   0  0  0  0  0  0  0  0  0  0  0  0
    8.2339  -15.7018   27.7244 O   0  0  0  0  0  0  0  0  0  0  0  0
  2  1  1  6
  2  6  1  0
  3  2  1  0
  3  4  1  0
  4  8  1  0
  5  4  2  0
  6  7  2  0
  9 10  1  0
  9  6  1  0
 10 16  1  0
 10 11  1  1
 12 11  1  0
 12 13  1  0
 13 14  1  0
 14 15  1  0
 16 17  2  0
 16 20  1  0
 19 18  1  1
 19 21  1  0
 20 19  1  0
 21 23  2  0
 21 22  1  0
M  END
$$$$
