DKA.pdb
     RDKit          3D

 23 22  0  0  1  0  0  0  0  0999 V2000
   12.3552  -16.0336   18.5966 N   0  0  0  0  0  0  0  0  0  0  0  0
   13.2957  -15.4802   19.5249 C   0  0  1  0  0  0  0  0  0  0  0  0
   13.9197  -14.2158   18.9569 C   0  0  0  0  0  0  0  0  0  0  0  0
   14.9329  -14.5629   17.9318 C   0  0  0  0  0  0  0  0  0  0  0  0
   14.7100  -15.4555   17.0767 O   0  0  0  0  0  0  0  0  0  0  0  0
   12.6043  -15.2162   20.7976 C   0  0  0  0  0  0  0  0  0  0  0  0
   13.2197  -14.7173   21.8016 O   0  0  0  0  0  0  0  0  0  0  0  0
   16.1569  -13.9147   17.8838 O   0  0  0  0  0  0  0  0  0  0  0  0
   11.2256  -15.5167   20.9278 N   0  0  0  0  0  0  0  0  0  0  0  0
   10.4955  -15.1738   22.1083 C   0  0  1  0  0  0  0  0  0  0  0  0
    9.0202  -15.0601   21.7050 C   0  0  0  0  0  0  0  0  0  0  0  0
    8.8354  -13.7745   20.9237 C   0  0  0  0  0  0  0  0  0  0  0  0
    8.1066  -14.1089   19.6538 C   0  0  0  0  0  0  0  0  0  0  0  0
    8.0633  -12.8545   18.8060 C   0  0  0  0  0  0  0  0  0  0  0  0
    7.4649  -13.1321   17.5267 N   0  0  0  0  0  0  0  0  0  0  0  0
   10.5696  -16.2975   23.0730 C   0  0  0  0  0  0  0  0  0  0  0  0
   10.6816  -17.4724   22.6786 O   0  0  0  0  0  0  0  0  0  0  0  0
   10.6875  -16.3837   26.8302 C   0  0  0  0  0  0  0  0  0  0  0  0
   10.7334  -17.0512   25.4651 C   0  0  2  0  0  0  0  0  0  0  0  0
   10.5106  -16.0131   24.4685 N   0  0  0  0  0  0  0  0  0  0  0  0
    9.6607  -18.0651   25.3658 C   0  0  0  0  0  0  0  0  0  0  0  0
    9.7953  -19.3080   25.9756 O   0  0  0  0  0  0  0  0  0  0  0  0
    8.6116  -17.8003   24.7211 O   0  0  0  0  0  0  0  0  0  0  0  0
  2  1  1  6
  2  6  1  0
  3  2  1  0
  3  4  1  0
  4  8  1  0
  5  4  2  0
  6  7  2  0
  9 10  1  0
  9  6  1  0
 10 16  1  0
 10 11  1  6
 12 11  1  0
 12 13  1  0
 13 14  1  0
 14 15  1  0
 16 17  2  0
 16 20  1  0
 19 18  1  1
 19 21  1  0
 20 19  1  0
 21 23  2  0
 21 22  1  0
M  END
$$$$
