DKA.pdb
     RDKit          3D

 23 22  0  0  1  0  0  0  0  0999 V2000
   11.2531  -17.9125   21.6121 N   0  0  0  0  0  0  0  0  0  0  0  0
   11.4722  -16.5104   21.8085 C   0  0  1  0  0  0  0  0  0  0  0  0
   11.1655  -15.7422   20.5331 C   0  0  0  0  0  0  0  0  0  0  0  0
   12.2700  -15.9098   19.5584 C   0  0  0  0  0  0  0  0  0  0  0  0
   12.9262  -16.9793   19.5003 O   0  0  0  0  0  0  0  0  0  0  0  0
   10.6337  -16.0532   22.9289 C   0  0  0  0  0  0  0  0  0  0  0  0
   10.4946  -14.8102   23.1958 O   0  0  0  0  0  0  0  0  0  0  0  0
   12.6137  -14.8936   18.6811 O   0  0  0  0  0  0  0  0  0  0  0  0
    9.9592  -17.0006   23.7386 N   0  0  0  0  0  0  0  0  0  0  0  0
    9.0957  -16.5925   24.8025 C   0  0  1  0  0  0  0  0  0  0  0  0
    8.3574  -17.8468   25.2859 C   0  0  0  0  0  0  0  0  0  0  0  0
    7.4208  -18.3046   24.1857 C   0  0  0  0  0  0  0  0  0  0  0  0
    6.7475  -19.5644   24.6496 C   0  0  0  0  0  0  0  0  0  0  0  0
    5.8812  -20.0666   23.5132 C   0  0  0  0  0  0  0  0  0  0  0  0
    5.2821  -21.3294   23.8570 N   0  0  0  0  0  0  0  0  0  0  0  0
    9.9159  -16.1340   25.9497 C   0  0  0  0  0  0  0  0  0  0  0  0
   10.9652  -16.7254   26.2623 O   0  0  0  0  0  0  0  0  0  0  0  0
    9.7525  -13.1403   28.1858 C   0  0  0  0  0  0  0  0  0  0  0  0
   10.1848  -14.5690   27.8978 C   0  0  2  0  0  0  0  0  0  0  0  0
    9.4843  -14.9987   26.6957 N   0  0  0  0  0  0  0  0  0  0  0  0
    9.8045  -15.4456   29.0272 C   0  0  0  0  0  0  0  0  0  0  0  0
   10.5486  -15.4582   30.2023 O   0  0  0  0  0  0  0  0  0  0  0  0
    8.7942  -16.1906   28.9241 O   0  0  0  0  0  0  0  0  0  0  0  0
  2  1  1  6
  2  6  1  0
  3  2  1  0
  3  4  1  0
  4  8  1  0
  5  4  2  0
  6  7  2  0
  9 10  1  0
  9  6  1  0
 10 16  1  0
 10 11  1  1
 12 11  1  0
 12 13  1  0
 13 14  1  0
 14 15  1  0
 16 17  2  0
 16 20  1  0
 19 18  1  1
 19 21  1  0
 20 19  1  0
 21 23  2  0
 21 22  1  0
M  END
$$$$
