DKA.pdb
     RDKit          3D

 23 22  0  0  1  0  0  0  0  0999 V2000
   12.0874  -18.3272   16.8235 N   0  0  0  0  0  0  0  0  0  0  0  0
   12.5081  -18.5909   18.1673 C   0  0  1  0  0  0  0  0  0  0  0  0
   13.9644  -18.1969   18.3538 C   0  0  0  0  0  0  0  0  0  0  0  0
   14.8269  -18.9836   17.4400 C   0  0  0  0  0  0  0  0  0  0  0  0
   15.8757  -18.4914   16.9548 O   0  0  0  0  0  0  0  0  0  0  0  0
   11.6278  -17.8566   19.0911 C   0  0  0  0  0  0  0  0  0  0  0  0
   11.7558  -16.5979   19.2777 O   0  0  0  0  0  0  0  0  0  0  0  0
   14.5045  -20.2857   17.0920 O   0  0  0  0  0  0  0  0  0  0  0  0
   10.6110  -18.5472   19.7962 N   0  0  0  0  0  0  0  0  0  0  0  0
    9.7018  -17.8588   20.6587 C   0  0  1  0  0  0  0  0  0  0  0  0
    8.5024  -18.7890   20.8788 C   0  0  0  0  0  0  0  0  0  0  0  0
    7.6787  -18.8169   19.6069 C   0  0  0  0  0  0  0  0  0  0  0  0
    6.5083  -19.7295   19.8369 C   0  0  0  0  0  0  0  0  0  0  0  0
    5.7533  -19.8456   18.5290 C   0  0  0  0  0  0  0  0  0  0  0  0
    4.6494  -20.7594   18.6644 N   0  0  0  0  0  0  0  0  0  0  0  0
   10.3302  -17.6808   21.9900 C   0  0  0  0  0  0  0  0  0  0  0  0
   11.2082  -18.4653   22.3925 O   0  0  0  0  0  0  0  0  0  0  0  0
   10.0914  -14.9635   24.5595 C   0  0  0  0  0  0  0  0  0  0  0  0
   10.4978  -16.3618   24.1228 C   0  0  2  0  0  0  0  0  0  0  0  0
    9.9129  -16.5915   22.8092 N   0  0  0  0  0  0  0  0  0  0  0  0
    9.9673  -17.3597   25.0774 C   0  0  0  0  0  0  0  0  0  0  0  0
    8.8752  -18.1545   24.7451 O   0  0  0  0  0  0  0  0  0  0  0  0
   10.5109  -17.4921   26.2058 O   0  0  0  0  0  0  0  0  0  0  0  0
  2  1  1  6
  2  6  1  0
  3  2  1  0
  3  4  1  0
  4  8  1  0
  5  4  2  0
  6  7  2  0
  9 10  1  0
  9  6  1  0
 10 16  1  0
 10 11  1  1
 12 11  1  0
 12 13  1  0
 13 14  1  0
 14 15  1  0
 16 17  2  0
 16 20  1  0
 19 18  1  1
 19 21  1  0
 20 19  1  0
 21 23  2  0
 21 22  1  0
M  END
$$$$
