DKA.pdb
     RDKit          3D

 23 22  0  0  1  0  0  0  0  0999 V2000
   11.8236  -18.4347   21.9626 N   0  0  0  0  0  0  0  0  0  0  0  0
   12.8271  -17.4517   22.2442 C   0  0  1  0  0  0  0  0  0  0  0  0
   13.3983  -16.8920   20.9515 C   0  0  0  0  0  0  0  0  0  0  0  0
   14.4324  -17.8072   20.4122 C   0  0  0  0  0  0  0  0  0  0  0  0
   14.2025  -19.0341   20.2723 O   0  0  0  0  0  0  0  0  0  0  0  0
   12.2311  -16.3920   23.0744 C   0  0  0  0  0  0  0  0  0  0  0  0
   12.9184  -15.3905   23.4747 O   0  0  0  0  0  0  0  0  0  0  0  0
   15.6843  -17.3396   20.0454 O   0  0  0  0  0  0  0  0  0  0  0  0
   10.8659  -16.4702   23.4463 N   0  0  0  0  0  0  0  0  0  0  0  0
   10.2438  -15.4425   24.2215 C   0  0  1  0  0  0  0  0  0  0  0  0
    8.7286  -15.6089   24.0518 C   0  0  0  0  0  0  0  0  0  0  0  0
    8.3606  -15.2218   22.6334 C   0  0  0  0  0  0  0  0  0  0  0  0
    6.8737  -15.3740   22.4863 C   0  0  0  0  0  0  0  0  0  0  0  0
    6.5365  -15.1890   21.0214 C   0  0  0  0  0  0  0  0  0  0  0  0
    6.9194  -13.8739   20.5788 N   0  0  0  0  0  0  0  0  0  0  0  0
   10.5220  -15.6778   25.6589 C   0  0  0  0  0  0  0  0  0  0  0  0
   10.8439  -16.8068   26.0713 O   0  0  0  0  0  0  0  0  0  0  0  0
   10.4831  -13.4030   28.6530 C   0  0  0  0  0  0  0  0  0  0  0  0
   10.7837  -14.7280   27.9711 C   0  0  2  0  0  0  0  0  0  0  0  0
   10.4152  -14.5863   26.5695 N   0  0  0  0  0  0  0  0  0  0  0  0
    9.9743  -15.8034   28.5850 C   0  0  0  0  0  0  0  0  0  0  0  0
   10.4167  -16.4671   29.7246 O   0  0  0  0  0  0  0  0  0  0  0  0
    8.8702  -16.1228   28.0699 O   0  0  0  0  0  0  0  0  0  0  0  0
  2  1  1  6
  2  6  1  0
  3  2  1  0
  3  4  1  0
  4  8  1  0
  5  4  2  0
  6  7  2  0
  9 10  1  0
  9  6  1  0
 10 16  1  0
 10 11  1  1
 12 11  1  0
 12 13  1  0
 13 14  1  0
 14 15  1  0
 16 17  2  0
 16 20  1  0
 19 18  1  1
 19 21  1  0
 20 19  1  0
 21 23  2  0
 21 22  1  0
M  END
$$$$
