DKA.pdb
     RDKit          3D

 23 22  0  0  1  0  0  0  0  0999 V2000
   12.6860  -17.3202   19.4680 N   0  0  0  0  0  0  0  0  0  0  0  0
   11.3149  -17.6361   19.7381 C   0  0  1  0  0  0  0  0  0  0  0  0
   11.1851  -19.0764   20.2064 C   0  0  0  0  0  0  0  0  0  0  0  0
   11.2764  -19.9992   19.0496 C   0  0  0  0  0  0  0  0  0  0  0  0
   11.8236  -19.6417   17.9771 O   0  0  0  0  0  0  0  0  0  0  0  0
   10.8020  -16.6928   20.7453 C   0  0  0  0  0  0  0  0  0  0  0  0
   11.5595  -16.2094   21.6552 O   0  0  0  0  0  0  0  0  0  0  0  0
   10.7618  -21.2844   19.1141 O   0  0  0  0  0  0  0  0  0  0  0  0
    9.4400  -16.3025   20.7182 N   0  0  0  0  0  0  0  0  0  0  0  0
    8.9167  -15.3550   21.6524 C   0  0  1  0  0  0  0  0  0  0  0  0
    7.6559  -14.7526   21.0203 C   0  0  0  0  0  0  0  0  0  0  0  0
    8.0809  -13.7158   19.9997 C   0  0  0  0  0  0  0  0  0  0  0  0
    7.5541  -14.1457   18.6606 C   0  0  0  0  0  0  0  0  0  0  0  0
    8.0809  -13.1725   17.6266 C   0  0  0  0  0  0  0  0  0  0  0  0
    7.5601  -13.4920   16.3232 N   0  0  0  0  0  0  0  0  0  0  0  0
    8.4619  -16.0687   22.8701 C   0  0  0  0  0  0  0  0  0  0  0  0
    7.9678  -17.2084   22.7961 O   0  0  0  0  0  0  0  0  0  0  0  0
    8.4951  -15.1348   26.5129 C   0  0  0  0  0  0  0  0  0  0  0  0
    8.1714  -16.0794   25.3666 C   0  0  2  0  0  0  0  0  0  0  0  0
    8.5986  -15.4282   24.1361 N   0  0  0  0  0  0  0  0  0  0  0  0
    6.7131  -16.3219   25.3126 C   0  0  0  0  0  0  0  0  0  0  0  0
    6.1266  -17.3183   26.0859 O   0  0  0  0  0  0  0  0  0  0  0  0
    5.9924  -15.6175   24.5570 O   0  0  0  0  0  0  0  0  0  0  0  0
  2  1  1  1
  2  6  1  0
  3  2  1  0
  3  4  1  0
  4  8  1  0
  5  4  2  0
  6  7  2  0
  9 10  1  0
  9  6  1  0
 10 16  1  0
 10 11  1  6
 12 11  1  0
 12 13  1  0
 13 14  1  0
 14 15  1  0
 16 17  2  0
 16 20  1  0
 19 18  1  1
 19 21  1  0
 20 19  1  0
 21 23  2  0
 21 22  1  0
M  END
$$$$
