DKA.pdb
     RDKit          3D

 23 22  0  0  1  0  0  0  0  0999 V2000
   10.4510  -17.6952   21.1742 N   0  0  0  0  0  0  0  0  0  0  0  0
   10.7940  -16.3155   21.3510 C   0  0  1  0  0  0  0  0  0  0  0  0
   10.4631  -15.5222   20.0973 C   0  0  0  0  0  0  0  0  0  0  0  0
   11.3946  -15.8857   19.0027 C   0  0  0  0  0  0  0  0  0  0  0  0
   12.3190  -16.7158   19.1874 O   0  0  0  0  0  0  0  0  0  0  0  0
   10.0730  -15.7957   22.5246 C   0  0  0  0  0  0  0  0  0  0  0  0
   10.1124  -14.5566   22.8385 O   0  0  0  0  0  0  0  0  0  0  0  0
   11.2760  -15.3222   17.7422 O   0  0  0  0  0  0  0  0  0  0  0  0
    9.3139  -16.6769   23.3342 N   0  0  0  0  0  0  0  0  0  0  0  0
    8.5651  -16.2013   24.4556 C   0  0  1  0  0  0  0  0  0  0  0  0
    7.6197  -17.3337   24.8753 C   0  0  0  0  0  0  0  0  0  0  0  0
    6.6591  -17.6027   23.7343 C   0  0  0  0  0  0  0  0  0  0  0  0
    5.7312  -18.7026   24.1640 C   0  0  0  0  0  0  0  0  0  0  0  0
    4.7356  -18.9262   23.0447 C   0  0  0  0  0  0  0  0  0  0  0  0
    3.7945  -19.9538   23.4059 N   0  0  0  0  0  0  0  0  0  0  0  0
    9.4821  -15.9891   25.6015 C   0  0  0  0  0  0  0  0  0  0  0  0
   10.5125  -16.6745   25.7313 O   0  0  0  0  0  0  0  0  0  0  0  0
    9.6134  -13.3548   28.2619 C   0  0  0  0  0  0  0  0  0  0  0  0
   10.0631  -14.6792   27.6663 C   0  0  2  0  0  0  0  0  0  0  0  0
    9.1661  -14.9824   26.5600 N   0  0  0  0  0  0  0  0  0  0  0  0
    9.9642  -15.7471   28.6852 C   0  0  0  0  0  0  0  0  0  0  0  0
   10.9089  -15.8540   29.7006 O   0  0  0  0  0  0  0  0  0  0  0  0
    9.0126  -16.5706   28.6334 O   0  0  0  0  0  0  0  0  0  0  0  0
  2  1  1  6
  2  6  1  0
  3  2  1  0
  3  4  1  0
  4  8  1  0
  5  4  2  0
  6  7  2  0
  9 10  1  0
  9  6  1  0
 10 16  1  0
 10 11  1  1
 12 11  1  0
 12 13  1  0
 13 14  1  0
 14 15  1  0
 16 17  2  0
 16 20  1  0
 19 18  1  1
 19 21  1  0
 20 19  1  0
 21 23  2  0
 21 22  1  0
M  END
$$$$
