DKA.pdb
     RDKit          3D

 23 22  0  0  1  0  0  0  0  0999 V2000
    9.3033  -16.5429   19.0053 N   0  0  0  0  0  0  0  0  0  0  0  0
    9.9189  -16.9766   20.2241 C   0  0  1  0  0  0  0  0  0  0  0  0
   11.3642  -16.5094   20.2834 C   0  0  0  0  0  0  0  0  0  0  0  0
   12.1652  -17.1950   19.2411 C   0  0  0  0  0  0  0  0  0  0  0  0
   12.9924  -16.5623   18.5389 O   0  0  0  0  0  0  0  0  0  0  0  0
    9.1373  -16.4585   21.3590 C   0  0  0  0  0  0  0  0  0  0  0  0
    8.6253  -15.2868   21.3385 O   0  0  0  0  0  0  0  0  0  0  0  0
   12.0275  -18.5542   19.0081 O   0  0  0  0  0  0  0  0  0  0  0  0
    8.9394  -17.2654   22.5070 N   0  0  0  0  0  0  0  0  0  0  0  0
    8.0837  -16.8481   23.5737 C   0  0  1  0  0  0  0  0  0  0  0  0
    7.4623  -18.1166   24.1714 C   0  0  0  0  0  0  0  0  0  0  0  0
    6.3775  -18.6059   23.2329 C   0  0  0  0  0  0  0  0  0  0  0  0
    5.8222  -19.8820   23.7974 C   0  0  0  0  0  0  0  0  0  0  0  0
    4.7049  -20.3401   22.8832 C   0  0  0  0  0  0  0  0  0  0  0  0
    4.0986  -21.5421   23.3926 N   0  0  0  0  0  0  0  0  0  0  0  0
    8.9045  -16.2480   24.6531 C   0  0  0  0  0  0  0  0  0  0  0  0
   10.0265  -16.7071   24.9335 O   0  0  0  0  0  0  0  0  0  0  0  0
    8.4038  -13.2684   26.8811 C   0  0  0  0  0  0  0  0  0  0  0  0
    9.0899  -14.5763   26.5206 C   0  0  2  0  0  0  0  0  0  0  0  0
    8.3883  -15.1299   25.3709 N   0  0  0  0  0  0  0  0  0  0  0  0
    8.9959  -15.5215   27.6547 C   0  0  0  0  0  0  0  0  0  0  0  0
    9.7870  -15.3579   28.7871 O   0  0  0  0  0  0  0  0  0  0  0  0
    8.1896  -16.4872   27.5950 O   0  0  0  0  0  0  0  0  0  0  0  0
  2  1  1  6
  2  6  1  0
  3  2  1  0
  3  4  1  0
  4  8  1  0
  5  4  2  0
  6  7  2  0
  9 10  1  0
  9  6  1  0
 10 16  1  0
 10 11  1  1
 12 11  1  0
 12 13  1  0
 13 14  1  0
 14 15  1  0
 16 17  2  0
 16 20  1  0
 19 18  1  1
 19 21  1  0
 20 19  1  0
 21 23  2  0
 21 22  1  0
M  END
$$$$
