DKA.pdb
     RDKit          3D

 23 22  0  0  1  0  0  0  0  0999 V2000
    6.2577  -15.4451   20.2829 N   0  0  0  0  0  0  0  0  0  0  0  0
    7.4384  -15.0860   21.0106 C   0  0  1  0  0  0  0  0  0  0  0  0
    7.8597  -13.6658   20.6696 C   0  0  0  0  0  0  0  0  0  0  0  0
    8.4651  -13.6240   19.3170 C   0  0  0  0  0  0  0  0  0  0  0  0
    8.6439  -14.6759   18.6542 O   0  0  0  0  0  0  0  0  0  0  0  0
    7.1713  -15.2389   22.4502 C   0  0  0  0  0  0  0  0  0  0  0  0
    6.1703  -14.6715   23.0083 O   0  0  0  0  0  0  0  0  0  0  0  0
    8.8530  -12.4248   18.7408 O   0  0  0  0  0  0  0  0  0  0  0  0
    8.0347  -16.0300   23.2484 N   0  0  0  0  0  0  0  0  0  0  0  0
    7.7578  -16.2749   24.6296 C   0  0  1  0  0  0  0  0  0  0  0  0
    7.8768  -17.7883   24.8484 C   0  0  0  0  0  0  0  0  0  0  0  0
    7.6996  -18.0735   26.3263 C   0  0  0  0  0  0  0  0  0  0  0  0
    7.7577  -19.5619   26.5176 C   0  0  0  0  0  0  0  0  0  0  0  0
    7.6545  -19.8378   28.0033 C   0  0  0  0  0  0  0  0  0  0  0  0
    7.7872  -21.2472   28.2641 N   0  0  0  0  0  0  0  0  0  0  0  0
    8.8212  -15.6577   25.4585 C   0  0  0  0  0  0  0  0  0  0  0  0
   10.0229  -15.8899   25.2336 O   0  0  0  0  0  0  0  0  0  0  0  0
    8.7562  -12.9879   28.0764 C   0  0  0  0  0  0  0  0  0  0  0  0
    9.4466  -14.1369   27.3593 C   0  0  2  0  0  0  0  0  0  0  0  0
    8.4471  -14.7884   26.5244 N   0  0  0  0  0  0  0  0  0  0  0  0
    9.9665  -15.1059   28.3488 C   0  0  0  0  0  0  0  0  0  0  0  0
   11.1500  -14.8579   29.0362 O   0  0  0  0  0  0  0  0  0  0  0  0
    9.3301  -16.1696   28.5723 O   0  0  0  0  0  0  0  0  0  0  0  0
  2  1  1  6
  2  6  1  0
  3  2  1  0
  3  4  1  0
  4  8  1  0
  5  4  2  0
  6  7  2  0
  9 10  1  0
  9  6  1  0
 10 16  1  0
 10 11  1  6
 12 11  1  0
 12 13  1  0
 13 14  1  0
 14 15  1  0
 16 17  2  0
 16 20  1  0
 19 18  1  1
 19 21  1  0
 20 19  1  0
 21 23  2  0
 21 22  1  0
M  END
$$$$
