DKA.pdb
     RDKit          3D

 23 22  0  0  1  0  0  0  0  0999 V2000
   10.4525  -18.5023   21.5409 N   0  0  0  0  0  0  0  0  0  0  0  0
   10.5597  -17.0746   21.4878 C   0  0  1  0  0  0  0  0  0  0  0  0
   10.0249  -16.5517   20.1645 C   0  0  0  0  0  0  0  0  0  0  0  0
   10.9614  -16.8899   19.0662 C   0  0  0  0  0  0  0  0  0  0  0  0
   11.6829  -17.9165   19.1229 O   0  0  0  0  0  0  0  0  0  0  0  0
    9.8275  -16.5027   22.6298 C   0  0  0  0  0  0  0  0  0  0  0  0
    9.5966  -15.2477   22.7148 O   0  0  0  0  0  0  0  0  0  0  0  0
   11.0711  -16.0856   17.9429 O   0  0  0  0  0  0  0  0  0  0  0  0
    9.3619  -17.3500   23.6659 N   0  0  0  0  0  0  0  0  0  0  0  0
    8.5784  -16.8428   24.7490 C   0  0  1  0  0  0  0  0  0  0  0  0
    7.9434  -18.0519   25.4467 C   0  0  0  0  0  0  0  0  0  0  0  0
    7.0314  -18.7504   24.4581 C   0  0  0  0  0  0  0  0  0  0  0  0
    6.5129  -19.9984   25.1132 C   0  0  0  0  0  0  0  0  0  0  0  0
    5.5298  -20.6431   24.1582 C   0  0  0  0  0  0  0  0  0  0  0  0
    5.0240  -21.8724   24.7105 N   0  0  0  0  0  0  0  0  0  0  0  0
    9.4754  -16.2178   25.7508 C   0  0  0  0  0  0  0  0  0  0  0  0
   10.5876  -16.7122   26.0099 O   0  0  0  0  0  0  0  0  0  0  0  0
    9.2869  -13.0183   27.6924 C   0  0  0  0  0  0  0  0  0  0  0  0
    9.8574  -14.4066   27.4510 C   0  0  2  0  0  0  0  0  0  0  0  0
    9.0446  -15.0345   26.4187 N   0  0  0  0  0  0  0  0  0  0  0  0
    9.7761  -15.2056   28.6933 C   0  0  0  0  0  0  0  0  0  0  0  0
    8.9311  -16.3071   28.7789 O   0  0  0  0  0  0  0  0  0  0  0  0
   10.4808  -14.8851   29.6868 O   0  0  0  0  0  0  0  0  0  0  0  0
  2  1  1  6
  2  6  1  0
  3  2  1  0
  3  4  1  0
  4  8  1  0
  5  4  2  0
  6  7  2  0
  9 10  1  0
  9  6  1  0
 10 16  1  0
 10 11  1  1
 12 11  1  0
 12 13  1  0
 13 14  1  0
 14 15  1  0
 16 17  2  0
 16 20  1  0
 19 18  1  1
 19 21  1  0
 20 19  1  0
 21 23  2  0
 21 22  1  0
M  END
$$$$
