DKA.pdb
     RDKit          3D

 23 22  0  0  1  0  0  0  0  0999 V2000
   10.6702  -18.0611   21.4942 N   0  0  0  0  0  0  0  0  0  0  0  0
   10.6334  -16.6293   21.5274 C   0  0  1  0  0  0  0  0  0  0  0  0
   10.0755  -16.0831   20.2232 C   0  0  0  0  0  0  0  0  0  0  0  0
   11.0146  -16.3613   19.1102 C   0  0  0  0  0  0  0  0  0  0  0  0
   12.1162  -16.9278   19.3182 O   0  0  0  0  0  0  0  0  0  0  0  0
    9.8238  -16.2038   22.6810 C   0  0  0  0  0  0  0  0  0  0  0  0
    9.4793  -14.9827   22.8418 O   0  0  0  0  0  0  0  0  0  0  0  0
   10.7080  -16.0059   17.8063 O   0  0  0  0  0  0  0  0  0  0  0  0
    9.4095  -17.1580   23.6433 N   0  0  0  0  0  0  0  0  0  0  0  0
    8.6763  -16.7724   24.8087 C   0  0  1  0  0  0  0  0  0  0  0  0
    8.1380  -18.0598   25.4452 C   0  0  0  0  0  0  0  0  0  0  0  0
    7.0984  -18.6544   24.5164 C   0  0  0  0  0  0  0  0  0  0  0  0
    6.6321  -19.9495   25.1169 C   0  0  0  0  0  0  0  0  0  0  0  0
    5.5806  -20.5305   24.1945 C   0  0  0  0  0  0  0  0  0  0  0  0
    5.2462  -21.8723   24.5943 N   0  0  0  0  0  0  0  0  0  0  0  0
    9.6087  -16.1852   25.8010 C   0  0  0  0  0  0  0  0  0  0  0  0
   10.7292  -16.6880   26.0011 O   0  0  0  0  0  0  0  0  0  0  0  0
    9.5558  -13.0197   27.7875 C   0  0  0  0  0  0  0  0  0  0  0  0
   10.0547  -14.4359   27.5497 C   0  0  2  0  0  0  0  0  0  0  0  0
    9.2025  -15.0287   26.5286 N   0  0  0  0  0  0  0  0  0  0  0  0
    9.9453  -15.2228   28.7976 C   0  0  0  0  0  0  0  0  0  0  0  0
    9.0383  -16.2722   28.9020 O   0  0  0  0  0  0  0  0  0  0  0  0
   10.6824  -14.9394   29.7789 O   0  0  0  0  0  0  0  0  0  0  0  0
  2  1  1  6
  2  6  1  0
  3  2  1  0
  3  4  1  0
  4  8  1  0
  5  4  2  0
  6  7  2  0
  9 10  1  0
  9  6  1  0
 10 16  1  0
 10 11  1  1
 12 11  1  0
 12 13  1  0
 13 14  1  0
 14 15  1  0
 16 17  2  0
 16 20  1  0
 19 18  1  1
 19 21  1  0
 20 19  1  0
 21 23  2  0
 21 22  1  0
M  END
$$$$
