DKA.pdb
     RDKit          3D

 23 22  0  0  1  0  0  0  0  0999 V2000
    8.2987  -13.6623   18.9538 N   0  0  0  0  0  0  0  0  0  0  0  0
    9.1346  -14.2834   19.9378 C   0  0  1  0  0  0  0  0  0  0  0  0
   10.3495  -13.4161   20.2250 C   0  0  0  0  0  0  0  0  0  0  0  0
   11.5533  -13.9954   19.5823 C   0  0  0  0  0  0  0  0  0  0  0  0
   11.6101  -15.2168   19.2948 O   0  0  0  0  0  0  0  0  0  0  0  0
    8.3389  -14.5177   21.1541 C   0  0  0  0  0  0  0  0  0  0  0  0
    7.3722  -13.7461   21.4793 O   0  0  0  0  0  0  0  0  0  0  0  0
   12.6534  -13.2093   19.2783 O   0  0  0  0  0  0  0  0  0  0  0  0
    8.6396  -15.6193   21.9933 N   0  0  0  0  0  0  0  0  0  0  0  0
    7.8953  -15.8725   23.1874 C   0  0  1  0  0  0  0  0  0  0  0  0
    8.0247  -17.3712   23.4862 C   0  0  0  0  0  0  0  0  0  0  0  0
    7.3648  -17.6516   24.8216 C   0  0  0  0  0  0  0  0  0  0  0  0
    7.4944  -19.1219   25.0988 C   0  0  0  0  0  0  0  0  0  0  0  0
    6.8727  -19.3897   26.4537 C   0  0  0  0  0  0  0  0  0  0  0  0
    6.8637  -20.8018   26.7332 N   0  0  0  0  0  0  0  0  0  0  0  0
    8.5410  -15.1723   24.3240 C   0  0  0  0  0  0  0  0  0  0  0  0
    9.7551  -15.3149   24.5562 O   0  0  0  0  0  0  0  0  0  0  0  0
    7.2836  -12.6600   26.8122 C   0  0  0  0  0  0  0  0  0  0  0  0
    8.3077  -13.6739   26.3283 C   0  0  2  0  0  0  0  0  0  0  0  0
    7.7476  -14.3273   25.1537 N   0  0  0  0  0  0  0  0  0  0  0  0
    8.5511  -14.6833   27.3820 C   0  0  0  0  0  0  0  0  0  0  0  0
    9.4631  -14.4418   28.4042 O   0  0  0  0  0  0  0  0  0  0  0  0
    7.9250  -15.7758   27.3540 O   0  0  0  0  0  0  0  0  0  0  0  0
  2  1  1  6
  2  6  1  0
  3  2  1  0
  3  4  1  0
  4  8  1  0
  5  4  2  0
  6  7  2  0
  9 10  1  0
  9  6  1  0
 10 16  1  0
 10 11  1  1
 12 11  1  0
 12 13  1  0
 13 14  1  0
 14 15  1  0
 16 17  2  0
 16 20  1  0
 19 18  1  1
 19 21  1  0
 20 19  1  0
 21 23  2  0
 21 22  1  0
M  END
$$$$
