DKA.pdb
     RDKit          3D

 23 22  0  0  1  0  0  0  0  0999 V2000
   12.5002  -19.4741   17.1739 N   0  0  0  0  0  0  0  0  0  0  0  0
   11.5333  -18.4176   17.1345 C   0  0  1  0  0  0  0  0  0  0  0  0
   10.5653  -18.6278   15.9815 C   0  0  0  0  0  0  0  0  0  0  0  0
   11.2872  -18.5517   14.6889 C   0  0  0  0  0  0  0  0  0  0  0  0
   12.1408  -17.6554   14.4752 O   0  0  0  0  0  0  0  0  0  0  0  0
   10.8308  -18.3712   18.4275 C   0  0  0  0  0  0  0  0  0  0  0  0
    9.9099  -17.5141   18.6574 O   0  0  0  0  0  0  0  0  0  0  0  0
   11.0439  -19.4655   13.6758 O   0  0  0  0  0  0  0  0  0  0  0  0
   11.1721  -19.2911   19.4499 N   0  0  0  0  0  0  0  0  0  0  0  0
   10.4779  -19.3088   20.6997 C   0  0  1  0  0  0  0  0  0  0  0  0
   10.6737  -20.7062   21.3007 C   0  0  0  0  0  0  0  0  0  0  0  0
    9.7897  -20.8284   22.5258 C   0  0  0  0  0  0  0  0  0  0  0  0
    9.9978  -22.1969   23.1084 C   0  0  0  0  0  0  0  0  0  0  0  0
    9.0714  -22.3342   24.2988 C   0  0  0  0  0  0  0  0  0  0  0  0
    9.1553  -23.6607   24.8515 N   0  0  0  0  0  0  0  0  0  0  0  0
   11.1341  -18.3656   21.6371 C   0  0  0  0  0  0  0  0  0  0  0  0
   12.3595  -18.4209   21.8464 O   0  0  0  0  0  0  0  0  0  0  0  0
    9.8189  -15.4647   23.6352 C   0  0  0  0  0  0  0  0  0  0  0  0
   10.9342  -16.3928   23.1815 C   0  0  2  0  0  0  0  0  0  0  0  0
   10.3377  -17.3872   22.3007 N   0  0  0  0  0  0  0  0  0  0  0  0
   11.5313  -17.0703   24.3532 C   0  0  0  0  0  0  0  0  0  0  0  0
   11.1113  -18.3407   24.7333 O   0  0  0  0  0  0  0  0  0  0  0  0
   12.4316  -16.4900   25.0159 O   0  0  0  0  0  0  0  0  0  0  0  0
  2  1  1  1
  2  6  1  0
  3  2  1  0
  3  4  1  0
  4  8  1  0
  5  4  2  0
  6  7  2  0
  9 10  1  0
  9  6  1  0
 10 16  1  0
 10 11  1  1
 12 11  1  0
 12 13  1  0
 13 14  1  0
 14 15  1  0
 16 17  2  0
 16 20  1  0
 19 18  1  1
 19 21  1  0
 20 19  1  0
 21 23  2  0
 21 22  1  0
M  END
$$$$
