DKA.pdb
     RDKit          3D

 23 22  0  0  1  0  0  0  0  0999 V2000
   11.5559  -16.7820   20.7562 N   0  0  0  0  0  0  0  0  0  0  0  0
   12.5533  -16.0005   21.4246 C   0  0  1  0  0  0  0  0  0  0  0  0
   13.2103  -15.0350   20.4515 C   0  0  0  0  0  0  0  0  0  0  0  0
   14.2040  -15.7503   19.6156 C   0  0  0  0  0  0  0  0  0  0  0  0
   14.1828  -17.0019   19.5122 O   0  0  0  0  0  0  0  0  0  0  0  0
   11.9218  -15.2885   22.5479 C   0  0  0  0  0  0  0  0  0  0  0  0
   12.5967  -14.5215   23.3171 O   0  0  0  0  0  0  0  0  0  0  0  0
   15.1871  -15.0623   18.9222 O   0  0  0  0  0  0  0  0  0  0  0  0
   10.5354  -15.4471   22.7944 N   0  0  0  0  0  0  0  0  0  0  0  0
    9.8635  -14.6809   23.7973 C   0  0  1  0  0  0  0  0  0  0  0  0
    8.3593  -14.8146   23.5298 C   0  0  0  0  0  0  0  0  0  0  0  0
    7.9670  -13.7928   22.4813 C   0  0  0  0  0  0  0  0  0  0  0  0
    7.5898  -14.5369   21.2325 C   0  0  0  0  0  0  0  0  0  0  0  0
    7.2941  -13.5106   20.1587 C   0  0  0  0  0  0  0  0  0  0  0  0
    6.8966  -14.1602   18.9372 N   0  0  0  0  0  0  0  0  0  0  0  0
   10.0987  -15.2990   25.1245 C   0  0  0  0  0  0  0  0  0  0  0  0
   10.3729  -16.5085   25.2269 O   0  0  0  0  0  0  0  0  0  0  0  0
   10.3223  -13.8229   28.5727 C   0  0  0  0  0  0  0  0  0  0  0  0
   10.3793  -14.9924   27.6032 C   0  0  2  0  0  0  0  0  0  0  0  0
   10.0062  -14.4844   26.2905 N   0  0  0  0  0  0  0  0  0  0  0  0
    9.4156  -16.0354   28.0178 C   0  0  0  0  0  0  0  0  0  0  0  0
    9.6985  -16.8857   29.0817 O   0  0  0  0  0  0  0  0  0  0  0  0
    8.3245  -16.1558   27.4001 O   0  0  0  0  0  0  0  0  0  0  0  0
  2  1  1  6
  2  6  1  0
  3  2  1  0
  3  4  1  0
  4  8  1  0
  5  4  2  0
  6  7  2  0
  9 10  1  0
  9  6  1  0
 10 16  1  0
 10 11  1  6
 12 11  1  0
 12 13  1  0
 13 14  1  0
 14 15  1  0
 16 17  2  0
 16 20  1  0
 19 18  1  1
 19 21  1  0
 20 19  1  0
 21 23  2  0
 21 22  1  0
M  END
$$$$
