WPR.pdb
     RDKit          3D

 33 35  0  0  1  0  0  0  0  0999 V2000
    6.2346  -17.7997   25.4794 N   0  0  0  0  0  0  0  0  0  0  0  0
    6.0378  -17.0730   24.2645 C   0  0  1  0  0  0  0  0  0  0  0  0
    5.6790  -15.6515   24.6369 C   0  0  0  0  0  0  0  0  0  0  0  0
    6.6544  -15.0025   25.5206 C   0  0  0  0  0  0  0  0  0  0  0  0
    7.7707  -15.6116   26.0526 C   0  0  0  0  0  0  0  0  0  0  0  0
    8.4483  -14.7266   26.8205 N   0  0  0  0  0  0  0  0  0  0  0  0
    7.7937  -13.5308   26.8059 C   0  0  0  0  0  0  0  0  0  0  0  0
    8.0786  -12.3339   27.4213 C   0  0  0  0  0  0  0  0  0  0  0  0
    7.2349  -11.2656   27.2347 C   0  0  0  0  0  0  0  0  0  0  0  0
    6.1240  -11.4440   26.4270 C   0  0  0  0  0  0  0  0  0  0  0  0
    5.8413  -12.6450   25.8118 C   0  0  0  0  0  0  0  0  0  0  0  0
    6.6778  -13.7122   25.9939 C   0  0  0  0  0  0  0  0  0  0  0  0
    7.1845  -17.1290   23.3285 C   0  0  0  0  0  0  0  0  0  0  0  0
    7.7348  -18.2764   23.2122 O   0  0  0  0  0  0  0  0  0  0  0  0
    7.6796  -16.0304   22.5910 N   0  0  0  0  0  0  0  0  0  0  0  0
    7.2094  -14.6692   22.7246 C   0  0  0  0  0  0  0  0  0  0  0  0
    7.8474  -13.8995   21.5815 C   0  0  0  0  0  0  0  0  0  0  0  0
    8.3975  -14.9389   20.6448 C   0  0  0  0  0  0  0  0  0  0  0  0
    8.7090  -16.0867   21.6150 C   0  0  1  0  0  0  0  0  0  0  0  0
   10.0631  -15.7937   22.1586 C   0  0  0  0  0  0  0  0  0  0  0  0
   10.1809  -14.7225   22.7968 O   0  0  0  0  0  0  0  0  0  0  0  0
   11.8565  -20.1401   28.6224 N   0  0  0  0  0  0  0  0  0  0  0  0
   10.6943  -19.6833   27.9077 C   0  0  0  0  0  0  0  0  0  0  0  0
    9.5397  -20.1463   28.2243 N   0  0  0  0  0  0  0  0  0  0  0  0
   10.7895  -18.7405   26.8672 N   0  0  0  0  0  0  0  0  0  0  0  0
   11.7978  -18.8733   25.7720 C   0  0  0  0  0  0  0  0  0  0  0  0
   11.7416  -17.7064   24.8838 C   0  0  0  0  0  0  0  0  0  0  0  0
   12.5844  -17.5088   23.7315 C   0  0  0  0  0  0  0  0  0  0  0  0
   12.4603  -16.4830   22.7032 C   0  0  2  0  0  0  0  0  0  0  0  0
   11.1630  -16.6565   21.9783 N   0  0  0  0  0  0  0  0  0  0  0  0
   13.5312  -16.4611   21.6904 C   0  0  0  0  0  0  0  0  0  0  0  0
   14.8059  -15.9910   22.1262 O   0  0  0  0  0  0  0  0  0  0  0  0
   13.4730  -16.7968   20.5161 O   0  0  0  0  0  0  0  0  0  0  0  0
  2  3  1  0
  2  1  1  1
  4  3  1  0
  5  4  2  0
  6  5  1  0
  7  6  1  0
  7 12  2  0
  8  7  1  0
  9  8  2  0
  9 10  1  0
 10 11  2  0
 11 12  1  0
 12  4  1  0
 13  2  1  0
 14 13  2  0
 15 13  1  0
 15 16  1  0
 17 16  1  0
 18 17  1  0
 19 18  1  0
 19 15  1  0
 20 21  2  0
 19 20  1  1
 23 22  1  0
 23 25  1  0
 24 23  2  0
 25 26  1  0
 26 27  1  0
 28 27  1  0
 29 28  1  1
 29 30  1  0
 30 20  1  0
 31 32  1  0
 31 29  1  0
 33 31  2  0
M  END
$$$$
