WPR.pdb
     RDKit          3D

 33 35  0  0  1  0  0  0  0  0999 V2000
    6.7316  -18.5960   25.4945 N   0  0  0  0  0  0  0  0  0  0  0  0
    6.9670  -17.3226   24.8899 C   0  0  1  0  0  0  0  0  0  0  0  0
    8.1660  -16.7069   25.5765 C   0  0  0  0  0  0  0  0  0  0  0  0
    7.8597  -15.4845   26.3285 C   0  0  0  0  0  0  0  0  0  0  0  0
    6.6314  -14.8595   26.3596 C   0  0  0  0  0  0  0  0  0  0  0  0
    6.7004  -13.7617   27.1484 N   0  0  0  0  0  0  0  0  0  0  0  0
    7.9652  -13.6482   27.6448 C   0  0  0  0  0  0  0  0  0  0  0  0
    8.5296  -12.7144   28.4826 C   0  0  0  0  0  0  0  0  0  0  0  0
    9.8525  -12.8388   28.8322 C   0  0  0  0  0  0  0  0  0  0  0  0
   10.5655  -13.9100   28.3199 C   0  0  0  0  0  0  0  0  0  0  0  0
    9.9967  -14.8441   27.4803 C   0  0  0  0  0  0  0  0  0  0  0  0
    8.6799  -14.7254   27.1288 C   0  0  0  0  0  0  0  0  0  0  0  0
    7.1326  -17.3679   23.4186 C   0  0  0  0  0  0  0  0  0  0  0  0
    7.1662  -18.5405   22.9120 O   0  0  0  0  0  0  0  0  0  0  0  0
    7.2504  -16.2344   22.5837 N   0  0  0  0  0  0  0  0  0  0  0  0
    7.2544  -14.8650   23.0491 C   0  0  0  0  0  0  0  0  0  0  0  0
    7.1556  -14.0059   21.8008 C   0  0  0  0  0  0  0  0  0  0  0  0
    6.7642  -14.9409   20.6903 C   0  0  0  0  0  0  0  0  0  0  0  0
    7.3863  -16.2591   21.1708 C   0  0  1  0  0  0  0  0  0  0  0  0
    8.8000  -16.2261   20.7067 C   0  0  0  0  0  0  0  0  0  0  0  0
    9.5313  -15.3540   21.2291 O   0  0  0  0  0  0  0  0  0  0  0  0
   10.4448  -14.3758   14.9388 N   0  0  0  0  0  0  0  0  0  0  0  0
    9.1487  -13.7540   14.9981 C   0  0  0  0  0  0  0  0  0  0  0  0
    8.5450  -13.4539   13.9057 N   0  0  0  0  0  0  0  0  0  0  0  0
    8.5233  -13.4640   16.2251 N   0  0  0  0  0  0  0  0  0  0  0  0
    9.1264  -13.8655   17.5323 C   0  0  0  0  0  0  0  0  0  0  0  0
    9.5155  -15.2802   17.5005 C   0  0  0  0  0  0  0  0  0  0  0  0
   10.6504  -15.8366   18.1930 C   0  0  0  0  0  0  0  0  0  0  0  0
   10.6631  -16.9594   19.1226 C   0  0  2  0  0  0  0  0  0  0  0  0
    9.3079  -17.1145   19.7374 N   0  0  0  0  0  0  0  0  0  0  0  0
   11.6383  -16.8657   20.2240 C   0  0  0  0  0  0  0  0  0  0  0  0
   13.0007  -17.1237   19.8878 O   0  0  0  0  0  0  0  0  0  0  0  0
   11.4340  -16.5919   21.3981 O   0  0  0  0  0  0  0  0  0  0  0  0
  2  3  1  0
  2  1  1  1
  4  3  1  0
  5  4  2  0
  6  5  1  0
  7  6  1  0
  7 12  2  0
  8  7  1  0
  9  8  2  0
  9 10  1  0
 10 11  2  0
 11 12  1  0
 12  4  1  0
 13  2  1  0
 14 13  2  0
 15 13  1  0
 15 16  1  0
 17 16  1  0
 18 17  1  0
 19 18  1  0
 19 15  1  0
 20 21  2  0
 19 20  1  1
 23 22  1  0
 23 25  1  0
 24 23  2  0
 25 26  1  0
 26 27  1  0
 28 27  1  0
 29 28  1  1
 29 30  1  0
 30 20  1  0
 31 32  1  0
 31 29  1  0
 33 31  2  0
M  END
$$$$
