WPR.pdb
     RDKit          3D

 33 35  0  0  1  0  0  0  0  0999 V2000
    5.8711  -17.9789   24.6209 N   0  0  0  0  0  0  0  0  0  0  0  0
    6.5051  -16.7799   24.1703 C   0  0  1  0  0  0  0  0  0  0  0  0
    7.3123  -16.2296   25.3252 C   0  0  0  0  0  0  0  0  0  0  0  0
    6.7278  -15.0350   25.9453 C   0  0  0  0  0  0  0  0  0  0  0  0
    5.3909  -14.8658   26.2357 C   0  0  0  0  0  0  0  0  0  0  0  0
    5.1992  -13.6511   26.8012 N   0  0  0  0  0  0  0  0  0  0  0  0
    6.3975  -13.0071   26.8911 C   0  0  0  0  0  0  0  0  0  0  0  0
    6.7243  -11.7653   27.3848 C   0  0  0  0  0  0  0  0  0  0  0  0
    8.0351  -11.3544   27.3540 C   0  0  0  0  0  0  0  0  0  0  0  0
    8.9779  -12.2181   26.8216 C   0  0  0  0  0  0  0  0  0  0  0  0
    8.6469  -13.4620   26.3276 C   0  0  0  0  0  0  0  0  0  0  0  0
    7.3435  -13.8765   26.3557 C   0  0  0  0  0  0  0  0  0  0  0  0
    7.3263  -16.9469   22.9489 C   0  0  0  0  0  0  0  0  0  0  0  0
    7.5330  -18.1571   22.5949 O   0  0  0  0  0  0  0  0  0  0  0  0
    7.8688  -15.8865   22.1891 N   0  0  0  0  0  0  0  0  0  0  0  0
    7.6991  -14.4830   22.4944 C   0  0  0  0  0  0  0  0  0  0  0  0
    8.2389  -13.7317   21.2901 C   0  0  0  0  0  0  0  0  0  0  0  0
    8.3920  -14.7582   20.2022 C   0  0  0  0  0  0  0  0  0  0  0  0
    8.6617  -16.0286   21.0201 C   0  0  1  0  0  0  0  0  0  0  0  0
   10.1256  -16.0276   21.2883 C   0  0  0  0  0  0  0  0  0  0  0  0
   10.5575  -15.0810   21.9853 O   0  0  0  0  0  0  0  0  0  0  0  0
   11.3601  -22.8687   20.6528 N   0  0  0  0  0  0  0  0  0  0  0  0
   10.3721  -22.1450   21.4081 C   0  0  0  0  0  0  0  0  0  0  0  0
    9.1329  -22.2587   21.0931 N   0  0  0  0  0  0  0  0  0  0  0  0
   10.7287  -21.3126   22.4854 N   0  0  0  0  0  0  0  0  0  0  0  0
   11.0907  -19.8763   22.2864 C   0  0  0  0  0  0  0  0  0  0  0  0
   12.3196  -19.7663   21.4917 C   0  0  0  0  0  0  0  0  0  0  0  0
   12.8677  -18.5305   20.9920 C   0  0  0  0  0  0  0  0  0  0  0  0
   12.4059  -17.1757   21.2683 C   0  0  2  0  0  0  0  0  0  0  0  0
   10.9940  -17.0233   20.7972 N   0  0  0  0  0  0  0  0  0  0  0  0
   13.1951  -16.0938   20.6521 C   0  0  0  0  0  0  0  0  0  0  0  0
   14.3870  -15.7104   21.3361 O   0  0  0  0  0  0  0  0  0  0  0  0
   12.9633  -15.4765   19.6224 O   0  0  0  0  0  0  0  0  0  0  0  0
  2  3  1  0
  2  1  1  1
  4  3  1  0
  5  4  2  0
  6  5  1  0
  7  6  1  0
  7 12  2  0
  8  7  1  0
  9  8  2  0
  9 10  1  0
 10 11  2  0
 11 12  1  0
 12  4  1  0
 13  2  1  0
 14 13  2  0
 15 13  1  0
 15 16  1  0
 17 16  1  0
 18 17  1  0
 19 18  1  0
 19 15  1  0
 20 21  2  0
 19 20  1  1
 23 22  1  0
 23 25  1  0
 24 23  2  0
 25 26  1  0
 26 27  1  0
 28 27  1  0
 29 28  1  6
 29 30  1  0
 30 20  1  0
 31 32  1  0
 31 29  1  0
 33 31  2  0
M  END
$$$$
