WPR.pdb
     RDKit          3D

 33 35  0  0  1  0  0  0  0  0999 V2000
    6.5758  -17.2502   24.4239 N   0  0  0  0  0  0  0  0  0  0  0  0
    6.9579  -16.0578   23.7348 C   0  0  1  0  0  0  0  0  0  0  0  0
    7.7711  -15.2177   24.6946 C   0  0  0  0  0  0  0  0  0  0  0  0
    6.9616  -14.3728   25.5803 C   0  0  0  0  0  0  0  0  0  0  0  0
    5.8706  -14.8013   26.3058 C   0  0  0  0  0  0  0  0  0  0  0  0
    5.3611  -13.7662   27.0136 N   0  0  0  0  0  0  0  0  0  0  0  0
    6.1031  -12.6493   26.7670 C   0  0  0  0  0  0  0  0  0  0  0  0
    5.9892  -11.3627   27.2405 C   0  0  0  0  0  0  0  0  0  0  0  0
    6.8879  -10.4114   26.8219 C   0  0  0  0  0  0  0  0  0  0  0  0
    7.8782  -10.7948   25.9327 C   0  0  0  0  0  0  0  0  0  0  0  0
    7.9893  -12.0852   25.4599 C   0  0  0  0  0  0  0  0  0  0  0  0
    7.0974  -13.0367   25.8733 C   0  0  0  0  0  0  0  0  0  0  0  0
    7.6742  -16.2938   22.4599 C   0  0  0  0  0  0  0  0  0  0  0  0
    7.9351  -17.5179   22.2024 O   0  0  0  0  0  0  0  0  0  0  0  0
    8.0665  -15.2826   21.5546 N   0  0  0  0  0  0  0  0  0  0  0  0
    7.7678  -13.8761   21.7104 C   0  0  0  0  0  0  0  0  0  0  0  0
    8.1677  -13.2228   20.3990 C   0  0  0  0  0  0  0  0  0  0  0  0
    8.3726  -14.3504   19.4258 C   0  0  0  0  0  0  0  0  0  0  0  0
    8.8117  -15.4837   20.3632 C   0  0  1  0  0  0  0  0  0  0  0  0
   10.2790  -15.3092   20.5406 C   0  0  0  0  0  0  0  0  0  0  0  0
   10.6344  -14.4469   21.3764 O   0  0  0  0  0  0  0  0  0  0  0  0
   11.7672  -22.1267   20.6602 N   0  0  0  0  0  0  0  0  0  0  0  0
   10.8392  -22.0662   21.7580 C   0  0  0  0  0  0  0  0  0  0  0  0
   10.5949  -23.1300   22.4338 N   0  0  0  0  0  0  0  0  0  0  0  0
   10.1893  -20.8690   22.1116 N   0  0  0  0  0  0  0  0  0  0  0  0
   10.9464  -19.6700   22.5836 C   0  0  0  0  0  0  0  0  0  0  0  0
   11.3238  -18.8251   21.4445 C   0  0  0  0  0  0  0  0  0  0  0  0
   11.9995  -17.5565   21.5500 C   0  0  0  0  0  0  0  0  0  0  0  0
   12.4292  -16.6837   20.4643 C   0  0  2  0  0  0  0  0  0  0  0  0
   11.2312  -16.0594   19.8213 N   0  0  0  0  0  0  0  0  0  0  0  0
   13.2147  -17.3306   19.3978 C   0  0  0  0  0  0  0  0  0  0  0  0
   12.6174  -17.3642   18.1025 O   0  0  0  0  0  0  0  0  0  0  0  0
   14.3210  -17.8456   19.4752 O   0  0  0  0  0  0  0  0  0  0  0  0
  2  3  1  0
  2  1  1  1
  4  3  1  0
  5  4  2  0
  6  5  1  0
  7  6  1  0
  7 12  2  0
  8  7  1  0
  9  8  2  0
  9 10  1  0
 10 11  2  0
 11 12  1  0
 12  4  1  0
 13  2  1  0
 14 13  2  0
 15 13  1  0
 15 16  1  0
 17 16  1  0
 18 17  1  0
 19 18  1  0
 19 15  1  0
 20 21  2  0
 19 20  1  1
 23 22  1  0
 23 25  1  0
 24 23  2  0
 25 26  1  0
 26 27  1  0
 28 27  1  0
 29 28  1  1
 29 30  1  0
 30 20  1  0
 31 32  1  0
 31 29  1  0
 33 31  2  0
M  END
$$$$
