WPR.pdb
     RDKit          3D

 33 35  0  0  1  0  0  0  0  0999 V2000
    5.6344  -17.7594   24.2530 N   0  0  0  0  0  0  0  0  0  0  0  0
    6.3132  -16.5700   23.8443 C   0  0  1  0  0  0  0  0  0  0  0  0
    7.2227  -16.1519   24.9783 C   0  0  0  0  0  0  0  0  0  0  0  0
    6.7688  -14.9552   25.6962 C   0  0  0  0  0  0  0  0  0  0  0  0
    5.4944  -14.7587   26.1837 C   0  0  0  0  0  0  0  0  0  0  0  0
    5.4214  -13.5506   26.7898 N   0  0  0  0  0  0  0  0  0  0  0  0
    6.6370  -12.9382   26.7113 C   0  0  0  0  0  0  0  0  0  0  0  0
    7.0668  -11.7146   27.1702 C   0  0  0  0  0  0  0  0  0  0  0  0
    8.3694  -11.3357   26.9521 C   0  0  0  0  0  0  0  0  0  0  0  0
    9.1995  -12.2121   26.2730 C   0  0  0  0  0  0  0  0  0  0  0  0
    8.7655  -13.4378   25.8144 C   0  0  0  0  0  0  0  0  0  0  0  0
    7.4696  -13.8204   26.0287 C   0  0  0  0  0  0  0  0  0  0  0  0
    7.0457  -16.6963   22.5630 C   0  0  0  0  0  0  0  0  0  0  0  0
    7.1258  -17.8839   22.0982 O   0  0  0  0  0  0  0  0  0  0  0  0
    7.6341  -15.6216   21.8596 N   0  0  0  0  0  0  0  0  0  0  0  0
    7.5157  -14.2293   22.2328 C   0  0  0  0  0  0  0  0  0  0  0  0
    8.0931  -13.4411   21.0702 C   0  0  0  0  0  0  0  0  0  0  0  0
    8.2152  -14.4180   19.9339 C   0  0  0  0  0  0  0  0  0  0  0  0
    8.4300  -15.7365   20.6897 C   0  0  1  0  0  0  0  0  0  0  0  0
    9.8907  -15.8050   20.9662 C   0  0  0  0  0  0  0  0  0  0  0  0
   10.2566  -15.4116   22.0974 O   0  0  0  0  0  0  0  0  0  0  0  0
   14.4758  -20.7756   16.6303 N   0  0  0  0  0  0  0  0  0  0  0  0
   15.6324  -20.5669   17.4602 C   0  0  0  0  0  0  0  0  0  0  0  0
   16.5568  -21.4574   17.4853 N   0  0  0  0  0  0  0  0  0  0  0  0
   15.7779  -19.4101   18.2483 N   0  0  0  0  0  0  0  0  0  0  0  0
   14.7707  -18.3062   18.2226 C   0  0  0  0  0  0  0  0  0  0  0  0
   13.5662  -18.6984   18.9637 C   0  0  0  0  0  0  0  0  0  0  0  0
   12.3924  -17.8767   19.1190 C   0  0  0  0  0  0  0  0  0  0  0  0
   11.8540  -17.3177   20.3531 C   0  0  2  0  0  0  0  0  0  0  0  0
   10.8260  -16.2813   20.0252 N   0  0  0  0  0  0  0  0  0  0  0  0
   12.8389  -16.6917   21.2536 C   0  0  0  0  0  0  0  0  0  0  0  0
   13.3485  -17.5122   22.3037 O   0  0  0  0  0  0  0  0  0  0  0  0
   13.2831  -15.5530   21.2195 O   0  0  0  0  0  0  0  0  0  0  0  0
  2  3  1  0
  2  1  1  1
  4  3  1  0
  5  4  2  0
  6  5  1  0
  7  6  1  0
  7 12  2  0
  8  7  1  0
  9  8  2  0
  9 10  1  0
 10 11  2  0
 11 12  1  0
 12  4  1  0
 13  2  1  0
 14 13  2  0
 15 13  1  0
 15 16  1  0
 17 16  1  0
 18 17  1  0
 19 18  1  0
 19 15  1  0
 20 21  2  0
 19 20  1  1
 23 22  1  0
 23 25  1  0
 24 23  2  0
 25 26  1  0
 26 27  1  0
 28 27  1  0
 29 28  1  6
 29 30  1  0
 30 20  1  0
 31 32  1  0
 31 29  1  0
 33 31  2  0
M  END
$$$$
