WPR.pdb
     RDKit          3D

 33 35  0  0  1  0  0  0  0  0999 V2000
   10.3389  -15.7370   22.7267 N   0  0  0  0  0  0  0  0  0  0  0  0
    9.8479  -15.3349   24.0073 C   0  0  1  0  0  0  0  0  0  0  0  0
    8.4055  -15.7804   24.1028 C   0  0  0  0  0  0  0  0  0  0  0  0
    7.4393  -14.6760   24.1024 C   0  0  0  0  0  0  0  0  0  0  0  0
    6.5358  -14.4131   23.0950 C   0  0  0  0  0  0  0  0  0  0  0  0
    5.7995  -13.3243   23.4181 N   0  0  0  0  0  0  0  0  0  0  0  0
    6.2036  -12.8575   24.6336 C   0  0  0  0  0  0  0  0  0  0  0  0
    5.7704  -11.7888   25.3839 C   0  0  0  0  0  0  0  0  0  0  0  0
    6.3621  -11.5374   26.5982 C   0  0  0  0  0  0  0  0  0  0  0  0
    7.3786  -12.3800   27.0164 C   0  0  0  0  0  0  0  0  0  0  0  0
    7.8105  -13.4502   26.2619 C   0  0  0  0  0  0  0  0  0  0  0  0
    7.2251  -13.7054   25.0520 C   0  0  0  0  0  0  0  0  0  0  0  0
   10.6558  -15.8212   25.1497 C   0  0  0  0  0  0  0  0  0  0  0  0
   11.5894  -16.6388   24.8453 O   0  0  0  0  0  0  0  0  0  0  0  0
   10.4574  -15.4460   26.4972 N   0  0  0  0  0  0  0  0  0  0  0  0
    9.4075  -14.5662   26.9615 C   0  0  0  0  0  0  0  0  0  0  0  0
    9.7350  -14.2651   28.4135 C   0  0  0  0  0  0  0  0  0  0  0  0
   11.1506  -14.7285   28.6183 C   0  0  0  0  0  0  0  0  0  0  0  0
   11.2459  -15.8715   27.5984 C   0  0  1  0  0  0  0  0  0  0  0  0
   10.7040  -17.0717   28.2917 C   0  0  0  0  0  0  0  0  0  0  0  0
    9.5027  -17.0113   28.6404 O   0  0  0  0  0  0  0  0  0  0  0  0
    9.8071  -19.5443   22.1997 N   0  0  0  0  0  0  0  0  0  0  0  0
   10.7645  -20.4701   22.7440 C   0  0  0  0  0  0  0  0  0  0  0  0
   11.6919  -20.9330   21.9865 N   0  0  0  0  0  0  0  0  0  0  0  0
   10.7112  -20.8841   24.0880 N   0  0  0  0  0  0  0  0  0  0  0  0
    9.7463  -20.2859   25.0600 C   0  0  0  0  0  0  0  0  0  0  0  0
   10.4643  -19.7246   26.2103 C   0  0  0  0  0  0  0  0  0  0  0  0
   10.1299  -19.9741   27.5898 C   0  0  0  0  0  0  0  0  0  0  0  0
   10.8792  -19.5727   28.7741 C   0  0  2  0  0  0  0  0  0  0  0  0
   11.4789  -18.2202   28.5513 N   0  0  0  0  0  0  0  0  0  0  0  0
   11.9710  -20.4778   29.1762 C   0  0  0  0  0  0  0  0  0  0  0  0
   13.2950  -19.9544   29.0826 O   0  0  0  0  0  0  0  0  0  0  0  0
   11.8927  -21.6277   29.5847 O   0  0  0  0  0  0  0  0  0  0  0  0
  2  3  1  0
  2  1  1  6
  4  3  1  0
  5  4  2  0
  6  5  1  0
  7  6  1  0
  7 12  2  0
  8  7  1  0
  9  8  2  0
  9 10  1  0
 10 11  2  0
 11 12  1  0
 12  4  1  0
 13  2  1  0
 14 13  2  0
 15 13  1  0
 15 16  1  0
 17 16  1  0
 18 17  1  0
 19 18  1  0
 19 15  1  0
 20 21  2  0
 19 20  1  1
 23 22  1  0
 23 25  1  0
 24 23  2  0
 25 26  1  0
 26 27  1  0
 28 27  1  0
 29 28  1  6
 29 30  1  0
 30 20  1  0
 31 32  1  0
 31 29  1  0
 33 31  2  0
M  END
$$$$
