WPR.pdb
     RDKit          3D

 33 35  0  0  1  0  0  0  0  0999 V2000
    6.5565  -17.1844   24.0188 N   0  0  0  0  0  0  0  0  0  0  0  0
    6.9779  -15.9924   23.3524 C   0  0  1  0  0  0  0  0  0  0  0  0
    7.8460  -15.2141   24.3161 C   0  0  0  0  0  0  0  0  0  0  0  0
    7.0978  -14.5521   25.3910 C   0  0  0  0  0  0  0  0  0  0  0  0
    6.1109  -15.1430   26.1507 C   0  0  0  0  0  0  0  0  0  0  0  0
    5.6330  -14.2499   27.0485 N   0  0  0  0  0  0  0  0  0  0  0  0
    6.2929  -13.0667   26.8949 C   0  0  0  0  0  0  0  0  0  0  0  0
    6.1716  -11.8684   27.5597 C   0  0  0  0  0  0  0  0  0  0  0  0
    6.9763  -10.8154   27.1972 C   0  0  0  0  0  0  0  0  0  0  0  0
    7.8826  -11.0100   26.1681 C   0  0  0  0  0  0  0  0  0  0  0  0
    8.0015  -12.2124   25.5039 C   0  0  0  0  0  0  0  0  0  0  0  0
    7.2030  -13.2644   25.8605 C   0  0  0  0  0  0  0  0  0  0  0  0
    7.6581  -16.2263   22.0575 C   0  0  0  0  0  0  0  0  0  0  0  0
    7.9004  -17.4510   21.7850 O   0  0  0  0  0  0  0  0  0  0  0  0
    8.0362  -15.2127   21.1489 N   0  0  0  0  0  0  0  0  0  0  0  0
    7.6798  -13.8168   21.2767 C   0  0  0  0  0  0  0  0  0  0  0  0
    8.0903  -13.1658   19.9675 C   0  0  0  0  0  0  0  0  0  0  0  0
    8.3649  -14.2972   19.0162 C   0  0  0  0  0  0  0  0  0  0  0  0
    8.8211  -15.4003   19.9810 C   0  0  1  0  0  0  0  0  0  0  0  0
   10.2752  -15.1670   20.1956 C   0  0  0  0  0  0  0  0  0  0  0  0
   10.5819  -14.1061   20.7862 O   0  0  0  0  0  0  0  0  0  0  0  0
    8.5861  -21.0267   25.2093 N   0  0  0  0  0  0  0  0  0  0  0  0
    9.3010  -20.2478   24.2335 C   0  0  0  0  0  0  0  0  0  0  0  0
    8.6449  -19.6315   23.3183 N   0  0  0  0  0  0  0  0  0  0  0  0
   10.7043  -20.1437   24.2545 N   0  0  0  0  0  0  0  0  0  0  0  0
   11.4085  -18.8889   23.8504 C   0  0  0  0  0  0  0  0  0  0  0  0
   11.4936  -18.8011   22.3879 C   0  0  0  0  0  0  0  0  0  0  0  0
   11.1923  -17.6217   21.6162 C   0  0  0  0  0  0  0  0  0  0  0  0
   12.0803  -16.8958   20.7164 C   0  0  2  0  0  0  0  0  0  0  0  0
   11.2667  -16.0730   19.7679 N   0  0  0  0  0  0  0  0  0  0  0  0
   12.9904  -17.7279   19.9087 C   0  0  0  0  0  0  0  0  0  0  0  0
   12.4052  -18.4230   18.8088 O   0  0  0  0  0  0  0  0  0  0  0  0
   14.1917  -17.9021   20.0559 O   0  0  0  0  0  0  0  0  0  0  0  0
  2  3  1  0
  2  1  1  1
  4  3  1  0
  5  4  2  0
  6  5  1  0
  7  6  1  0
  7 12  2  0
  8  7  1  0
  9  8  2  0
  9 10  1  0
 10 11  2  0
 11 12  1  0
 12  4  1  0
 13  2  1  0
 14 13  2  0
 15 13  1  0
 15 16  1  0
 17 16  1  0
 18 17  1  0
 19 18  1  0
 19 15  1  0
 20 21  2  0
 19 20  1  1
 23 22  1  0
 23 25  1  0
 24 23  2  0
 25 26  1  0
 26 27  1  0
 28 27  1  0
 29 28  1  6
 29 30  1  0
 30 20  1  0
 31 32  1  0
 31 29  1  0
 33 31  2  0
M  END
$$$$
