WPR.pdb
     RDKit          3D

 33 35  0  0  1  0  0  0  0  0999 V2000
    6.6464  -17.5949   25.2883 N   0  0  0  0  0  0  0  0  0  0  0  0
    6.3768  -16.8658   24.0889 C   0  0  1  0  0  0  0  0  0  0  0  0
    5.9744  -15.4636   24.4887 C   0  0  0  0  0  0  0  0  0  0  0  0
    6.8749  -14.8407   25.4658 C   0  0  0  0  0  0  0  0  0  0  0  0
    8.0068  -15.4289   25.9885 C   0  0  0  0  0  0  0  0  0  0  0  0
    8.5998  -14.5784   26.8586 N   0  0  0  0  0  0  0  0  0  0  0  0
    7.8733  -13.4264   26.9214 C   0  0  0  0  0  0  0  0  0  0  0  0
    8.0610  -12.2751   27.6506 C   0  0  0  0  0  0  0  0  0  0  0  0
    7.1600  -11.2456   27.5232 C   0  0  0  0  0  0  0  0  0  0  0  0
    6.0924  -11.4153   26.6574 C   0  0  0  0  0  0  0  0  0  0  0  0
    5.9073  -12.5706   25.9281 C   0  0  0  0  0  0  0  0  0  0  0  0
    6.8011  -13.5990   26.0508 C   0  0  0  0  0  0  0  0  0  0  0  0
    7.4905  -16.8665   23.1122 C   0  0  0  0  0  0  0  0  0  0  0  0
    8.1722  -17.9463   23.0669 O   0  0  0  0  0  0  0  0  0  0  0  0
    7.8238  -15.7850   22.2664 N   0  0  0  0  0  0  0  0  0  0  0  0
    7.1650  -14.4975   22.2768 C   0  0  0  0  0  0  0  0  0  0  0  0
    7.6861  -13.7588   21.0565 C   0  0  0  0  0  0  0  0  0  0  0  0
    8.3776  -14.7953   20.2150 C   0  0  0  0  0  0  0  0  0  0  0  0
    8.8500  -15.7888   21.2854 C   0  0  1  0  0  0  0  0  0  0  0  0
   10.1491  -15.2563   21.7790 C   0  0  0  0  0  0  0  0  0  0  0  0
   10.0852  -14.4313   22.7190 O   0  0  0  0  0  0  0  0  0  0  0  0
   14.5894  -20.6034   23.8875 N   0  0  0  0  0  0  0  0  0  0  0  0
   13.4247  -21.3502   23.4928 C   0  0  0  0  0  0  0  0  0  0  0  0
   13.5650  -22.5495   23.0570 N   0  0  0  0  0  0  0  0  0  0  0  0
   12.1319  -20.7995   23.5708 N   0  0  0  0  0  0  0  0  0  0  0  0
   11.8988  -19.3949   24.0254 C   0  0  0  0  0  0  0  0  0  0  0  0
   12.3267  -18.4469   22.9900 C   0  0  0  0  0  0  0  0  0  0  0  0
   12.1589  -17.0174   23.0640 C   0  0  0  0  0  0  0  0  0  0  0  0
   12.5662  -16.0212   22.0807 C   0  0  2  0  0  0  0  0  0  0  0  0
   11.3907  -15.6437   21.2356 N   0  0  0  0  0  0  0  0  0  0  0  0
   13.6508  -16.4293   21.1697 C   0  0  0  0  0  0  0  0  0  0  0  0
   14.9670  -16.4485   21.7200 O   0  0  0  0  0  0  0  0  0  0  0  0
   13.5721  -16.7584   19.9946 O   0  0  0  0  0  0  0  0  0  0  0  0
  2  3  1  0
  2  1  1  1
  4  3  1  0
  5  4  2  0
  6  5  1  0
  7  6  1  0
  7 12  2  0
  8  7  1  0
  9  8  2  0
  9 10  1  0
 10 11  2  0
 11 12  1  0
 12  4  1  0
 13  2  1  0
 14 13  2  0
 15 13  1  0
 15 16  1  0
 17 16  1  0
 18 17  1  0
 19 18  1  0
 19 15  1  0
 20 21  2  0
 19 20  1  1
 23 22  1  0
 23 25  1  0
 24 23  2  0
 25 26  1  0
 26 27  1  0
 28 27  1  0
 29 28  1  1
 29 30  1  0
 30 20  1  0
 31 32  1  0
 31 29  1  0
 33 31  2  0
M  END
$$$$
