WPR.pdb
     RDKit          3D

 33 35  0  0  1  0  0  0  0  0999 V2000
    5.6945  -17.1558   24.2429 N   0  0  0  0  0  0  0  0  0  0  0  0
    6.4528  -16.0802   23.6854 C   0  0  1  0  0  0  0  0  0  0  0  0
    7.4017  -15.5888   24.7560 C   0  0  0  0  0  0  0  0  0  0  0  0
    6.8560  -14.5088   25.5862 C   0  0  0  0  0  0  0  0  0  0  0  0
    5.5812  -14.4781   26.1100 C   0  0  0  0  0  0  0  0  0  0  0  0
    5.4108  -13.3406   26.8236 N   0  0  0  0  0  0  0  0  0  0  0  0
    6.5617  -12.6109   26.7809 C   0  0  0  0  0  0  0  0  0  0  0  0
    6.8867  -11.3972   27.3412 C   0  0  0  0  0  0  0  0  0  0  0  0
    8.1425  -10.8784   27.1371 C   0  0  0  0  0  0  0  0  0  0  0  0
    9.0338  -11.6085   26.3685 C   0  0  0  0  0  0  0  0  0  0  0  0
    8.7048  -12.8247   25.8083 C   0  0  0  0  0  0  0  0  0  0  0  0
    7.4559  -13.3462   26.0081 C   0  0  0  0  0  0  0  0  0  0  0  0
    7.1611  -16.4208   22.4298 C   0  0  0  0  0  0  0  0  0  0  0  0
    7.0834  -17.6468   22.0781 O   0  0  0  0  0  0  0  0  0  0  0  0
    7.8855  -15.5032   21.6366 N   0  0  0  0  0  0  0  0  0  0  0  0
    8.0617  -14.1024   21.9504 C   0  0  0  0  0  0  0  0  0  0  0  0
    8.6855  -13.4791   20.7140 C   0  0  0  0  0  0  0  0  0  0  0  0
    8.5322  -14.4988   19.6198 C   0  0  0  0  0  0  0  0  0  0  0  0
    8.5521  -15.8079   20.4208 C   0  0  1  0  0  0  0  0  0  0  0  0
    9.9905  -16.1462   20.5975 C   0  0  0  0  0  0  0  0  0  0  0  0
   10.6202  -15.4571   21.4323 O   0  0  0  0  0  0  0  0  0  0  0  0
   16.1959  -20.4495   18.6340 N   0  0  0  0  0  0  0  0  0  0  0  0
   15.7752  -21.4360   19.5930 C   0  0  0  0  0  0  0  0  0  0  0  0
   15.9744  -22.6795   19.3441 N   0  0  0  0  0  0  0  0  0  0  0  0
   15.1483  -21.0737   20.7999 N   0  0  0  0  0  0  0  0  0  0  0  0
   14.2110  -19.9127   20.8844 C   0  0  0  0  0  0  0  0  0  0  0  0
   13.1724  -20.0206   19.8531 C   0  0  0  0  0  0  0  0  0  0  0  0
   12.0907  -19.0851   19.6744 C   0  0  0  0  0  0  0  0  0  0  0  0
   11.9311  -17.7786   20.3011 C   0  0  2  0  0  0  0  0  0  0  0  0
   10.6278  -17.1776   19.8785 N   0  0  0  0  0  0  0  0  0  0  0  0
   12.9872  -16.7942   20.0033 C   0  0  0  0  0  0  0  0  0  0  0  0
   14.1356  -16.8214   20.8495 O   0  0  0  0  0  0  0  0  0  0  0  0
   13.0115  -15.9506   19.1185 O   0  0  0  0  0  0  0  0  0  0  0  0
  2  3  1  0
  2  1  1  1
  4  3  1  0
  5  4  2  0
  6  5  1  0
  7  6  1  0
  7 12  2  0
  8  7  1  0
  9  8  2  0
  9 10  1  0
 10 11  2  0
 11 12  1  0
 12  4  1  0
 13  2  1  0
 14 13  2  0
 15 13  1  0
 15 16  1  0
 17 16  1  0
 18 17  1  0
 19 18  1  0
 19 15  1  0
 20 21  2  0
 19 20  1  1
 23 22  1  0
 23 25  1  0
 24 23  2  0
 25 26  1  0
 26 27  1  0
 28 27  1  0
 29 28  1  6
 29 30  1  0
 30 20  1  0
 31 32  1  0
 31 29  1  0
 33 31  2  0
M  END
$$$$
