WPR.pdb
     RDKit          3D

 33 35  0  0  1  0  0  0  0  0999 V2000
    6.0638  -17.6456   24.1254 N   0  0  0  0  0  0  0  0  0  0  0  0
    6.5382  -16.4330   23.5363 C   0  0  1  0  0  0  0  0  0  0  0  0
    7.5826  -15.8535   24.4646 C   0  0  0  0  0  0  0  0  0  0  0  0
    7.0399  -14.9381   25.4750 C   0  0  0  0  0  0  0  0  0  0  0  0
    6.0783  -15.2655   26.4069 C   0  0  0  0  0  0  0  0  0  0  0  0
    5.8106  -14.1878   27.1809 N   0  0  0  0  0  0  0  0  0  0  0  0
    6.5858  -13.1428   26.7737 C   0  0  0  0  0  0  0  0  0  0  0  0
    6.6810  -11.8507   27.2363 C   0  0  0  0  0  0  0  0  0  0  0  0
    7.5609  -10.9849   26.6330 C   0  0  0  0  0  0  0  0  0  0  0  0
    8.3203  -11.4571   25.5753 C   0  0  0  0  0  0  0  0  0  0  0  0
    8.2223  -12.7528   25.1142 C   0  0  0  0  0  0  0  0  0  0  0  0
    7.3479  -13.6194   25.7110 C   0  0  0  0  0  0  0  0  0  0  0  0
    7.0480  -16.5859   22.1539 C   0  0  0  0  0  0  0  0  0  0  0  0
    6.9917  -17.7723   21.6827 O   0  0  0  0  0  0  0  0  0  0  0  0
    7.5697  -15.5367   21.3647 N   0  0  0  0  0  0  0  0  0  0  0  0
    7.6058  -14.1464   21.7618 C   0  0  0  0  0  0  0  0  0  0  0  0
    8.0183  -13.3745   20.5207 C   0  0  0  0  0  0  0  0  0  0  0  0
    7.8780  -14.3374   19.3744 C   0  0  0  0  0  0  0  0  0  0  0  0
    8.1393  -15.6792   20.0721 C   0  0  1  0  0  0  0  0  0  0  0  0
    9.6187  -15.8404   20.0866 C   0  0  0  0  0  0  0  0  0  0  0  0
   10.2830  -14.8093   20.3390 O   0  0  0  0  0  0  0  0  0  0  0  0
    8.8144  -14.7338   13.0604 N   0  0  0  0  0  0  0  0  0  0  0  0
    8.8734  -14.5514   14.4864 C   0  0  0  0  0  0  0  0  0  0  0  0
    8.3330  -13.5112   15.0097 N   0  0  0  0  0  0  0  0  0  0  0  0
    9.5104  -15.4847   15.3253 N   0  0  0  0  0  0  0  0  0  0  0  0
   10.9058  -15.9538   15.0674 C   0  0  0  0  0  0  0  0  0  0  0  0
   11.4085  -16.7135   16.2180 C   0  0  0  0  0  0  0  0  0  0  0  0
   10.7199  -16.8513   17.4766 C   0  0  0  0  0  0  0  0  0  0  0  0
   11.2833  -17.2508   18.7605 C   0  0  2  0  0  0  0  0  0  0  0  0
   10.2566  -17.0718   19.8339 N   0  0  0  0  0  0  0  0  0  0  0  0
   12.4930  -16.5213   19.1818 C   0  0  0  0  0  0  0  0  0  0  0  0
   12.2826  -15.3129   19.9105 O   0  0  0  0  0  0  0  0  0  0  0  0
   13.6637  -16.8174   18.9899 O   0  0  0  0  0  0  0  0  0  0  0  0
  2  3  1  0
  2  1  1  1
  4  3  1  0
  5  4  2  0
  6  5  1  0
  7  6  1  0
  7 12  2  0
  8  7  1  0
  9  8  2  0
  9 10  1  0
 10 11  2  0
 11 12  1  0
 12  4  1  0
 13  2  1  0
 14 13  2  0
 15 13  1  0
 15 16  1  0
 17 16  1  0
 18 17  1  0
 19 18  1  0
 19 15  1  0
 20 21  2  0
 19 20  1  1
 23 22  1  0
 23 25  1  0
 24 23  2  0
 25 26  1  0
 26 27  1  0
 28 27  1  0
 29 28  1  6
 29 30  1  0
 30 20  1  0
 31 32  1  0
 31 29  1  0
 33 31  2  0
M  END
$$$$
