PFG.pdb
     RDKit          3D

 23 24  0  0  1  0  0  0  0  0999 V2000
    7.4498  -15.1897   21.1003 N   0  0  0  0  0  0  0  0  0  0  0  0
    6.9194  -14.6959   19.8362 C   0  0  0  0  0  0  0  0  0  0  0  0
    7.2022  -13.2080   19.8954 C   0  0  0  0  0  0  0  0  0  0  0  0
    8.4714  -13.1099   20.7147 C   0  0  0  0  0  0  0  0  0  0  0  0
    8.7221  -14.5020   21.2031 C   0  0  1  0  0  0  0  0  0  0  0  0
    9.2849  -14.5894   22.5574 C   0  0  0  0  0  0  0  0  0  0  0  0
   10.3845  -14.0807   22.8838 O   0  0  0  0  0  0  0  0  0  0  0  0
    8.5717  -15.2789   23.5729 N   0  0  0  0  0  0  0  0  0  0  0  0
    9.0924  -15.3202   24.9298 C   0  0  1  0  0  0  0  0  0  0  0  0
    7.9104  -15.2585   25.8965 C   0  0  0  0  0  0  0  0  0  0  0  0
    7.4455  -13.8572   26.0654 C   0  0  0  0  0  0  0  0  0  0  0  0
    8.3249  -12.8544   26.4343 C   0  0  0  0  0  0  0  0  0  0  0  0
    7.9496  -11.5541   26.6025 C   0  0  0  0  0  0  0  0  0  0  0  0
    6.6213  -11.2109   26.3953 C   0  0  0  0  0  0  0  0  0  0  0  0
    5.7246  -12.1689   26.0312 C   0  0  0  0  0  0  0  0  0  0  0  0
    6.1335  -13.4821   25.8675 C   0  0  0  0  0  0  0  0  0  0  0  0
    9.8005  -16.6072   25.1899 C   0  0  0  0  0  0  0  0  0  0  0  0
   10.0318  -16.9096   26.3832 O   0  0  0  0  0  0  0  0  0  0  0  0
   10.2057  -17.4696   24.1572 N   0  0  0  0  0  0  0  0  0  0  0  0
   10.7734  -18.7498   24.4634 C   0  0  0  0  0  0  0  0  0  0  0  0
   12.2398  -18.7743   24.1208 C   0  0  0  0  0  0  0  0  0  0  0  0
   12.8692  -17.6531   23.6261 O   0  0  0  0  0  0  0  0  0  0  0  0
   12.8959  -19.8318   24.2891 O   0  0  0  0  0  0  0  0  0  0  0  0
  1  2  1  0
  3  2  1  0
  4  5  1  0
  4  3  1  0
  5  1  1  0
  6  8  1  0
  5  6  1  1
  7  6  2  0
  9  8  1  0
  9 10  1  1
 10 11  1  0
 11 12  2  0
 11 16  1  0
 12 13  1  0
 13 14  2  0
 15 14  1  0
 16 15  2  0
 17  9  1  0
 18 17  2  0
 19 17  1  0
 20 21  1  0
 20 19  1  0
 21 22  1  0
 23 21  2  0
M  END
$$$$
