PFG.pdb
     RDKit          3D

 23 24  0  0  1  0  0  0  0  0999 V2000
    7.3075  -16.5802   21.3624 N   0  0  0  0  0  0  0  0  0  0  0  0
    6.3428  -16.4619   20.2768 C   0  0  0  0  0  0  0  0  0  0  0  0
    6.0091  -14.9835   20.2648 C   0  0  0  0  0  0  0  0  0  0  0  0
    7.2853  -14.3172   20.7329 C   0  0  0  0  0  0  0  0  0  0  0  0
    8.1814  -15.4452   21.1382 C   0  0  1  0  0  0  0  0  0  0  0  0
    9.0325  -15.1697   22.3036 C   0  0  0  0  0  0  0  0  0  0  0  0
    9.9753  -14.3417   22.2915 O   0  0  0  0  0  0  0  0  0  0  0  0
    8.8022  -15.8601   23.5224 N   0  0  0  0  0  0  0  0  0  0  0  0
    9.5512  -15.5020   24.7160 C   0  0  1  0  0  0  0  0  0  0  0  0
    8.6096  -15.5954   25.9160 C   0  0  0  0  0  0  0  0  0  0  0  0
    9.2746  -15.0863   27.1435 C   0  0  0  0  0  0  0  0  0  0  0  0
    9.2308  -13.7429   27.4725 C   0  0  0  0  0  0  0  0  0  0  0  0
    9.8239  -13.2251   28.5861 C   0  0  0  0  0  0  0  0  0  0  0  0
   10.5074  -14.0814   29.4373 C   0  0  0  0  0  0  0  0  0  0  0  0
   10.5735  -15.4106   29.1487 C   0  0  0  0  0  0  0  0  0  0  0  0
    9.9618  -15.9093   28.0105 C   0  0  0  0  0  0  0  0  0  0  0  0
   10.6617  -16.4681   24.9581 C   0  0  0  0  0  0  0  0  0  0  0  0
   10.3618  -17.5873   25.4336 O   0  0  0  0  0  0  0  0  0  0  0  0
   12.0039  -16.1643   24.6740 N   0  0  0  0  0  0  0  0  0  0  0  0
   13.0274  -17.1476   24.8747 C   0  0  0  0  0  0  0  0  0  0  0  0
   14.3699  -16.6074   24.4571 C   0  0  0  0  0  0  0  0  0  0  0  0
   15.5296  -17.2902   24.7515 O   0  0  0  0  0  0  0  0  0  0  0  0
   14.4308  -15.5196   23.8324 O   0  0  0  0  0  0  0  0  0  0  0  0
  1  2  1  0
  3  2  1  0
  4  5  1  0
  4  3  1  0
  5  1  1  0
  6  8  1  0
  5  6  1  1
  7  6  2  0
  9  8  1  0
  9 10  1  1
 10 11  1  0
 11 12  2  0
 11 16  1  0
 12 13  1  0
 13 14  2  0
 15 14  1  0
 16 15  2  0
 17  9  1  0
 18 17  2  0
 19 17  1  0
 20 21  1  0
 20 19  1  0
 21 22  1  0
 23 21  2  0
M  END
$$$$
