PFG.pdb
     RDKit          3D

 23 24  0  0  1  0  0  0  0  0999 V2000
    7.1424  -15.5480   21.2963 N   0  0  0  0  0  0  0  0  0  0  0  0
    6.5060  -15.0200   20.0965 C   0  0  0  0  0  0  0  0  0  0  0  0
    6.8463  -13.5437   20.1408 C   0  0  0  0  0  0  0  0  0  0  0  0
    8.1938  -13.5000   20.8294 C   0  0  0  0  0  0  0  0  0  0  0  0
    8.4423  -14.9061   21.2772 C   0  0  1  0  0  0  0  0  0  0  0  0
    9.1342  -15.0302   22.5673 C   0  0  0  0  0  0  0  0  0  0  0  0
   10.2830  -14.5736   22.7829 O   0  0  0  0  0  0  0  0  0  0  0  0
    8.4968  -15.6963   23.6467 N   0  0  0  0  0  0  0  0  0  0  0  0
    9.1416  -15.7576   24.9484 C   0  0  1  0  0  0  0  0  0  0  0  0
    8.0587  -15.6599   26.0223 C   0  0  0  0  0  0  0  0  0  0  0  0
    7.5479  -14.2681   26.1248 C   0  0  0  0  0  0  0  0  0  0  0  0
    8.3177  -13.2665   26.6897 C   0  0  0  0  0  0  0  0  0  0  0  0
    7.8962  -11.9749   26.8075 C   0  0  0  0  0  0  0  0  0  0  0  0
    6.6336  -11.6398   26.3401 C   0  0  0  0  0  0  0  0  0  0  0  0
    5.8452  -12.5969   25.7775 C   0  0  0  0  0  0  0  0  0  0  0  0
    6.2988  -13.9012   25.6705 C   0  0  0  0  0  0  0  0  0  0  0  0
    9.8288  -17.0675   25.1415 C   0  0  0  0  0  0  0  0  0  0  0  0
    9.1550  -18.1072   24.9578 O   0  0  0  0  0  0  0  0  0  0  0  0
   11.1799  -17.1649   25.5151 N   0  0  0  0  0  0  0  0  0  0  0  0
   11.8560  -18.4280   25.4653 C   0  0  0  0  0  0  0  0  0  0  0  0
   11.8345  -19.0936   26.8162 C   0  0  0  0  0  0  0  0  0  0  0  0
   13.0065  -19.4283   27.4583 O   0  0  0  0  0  0  0  0  0  0  0  0
   10.7324  -19.3461   27.3629 O   0  0  0  0  0  0  0  0  0  0  0  0
  1  2  1  0
  3  2  1  0
  4  5  1  0
  4  3  1  0
  5  1  1  0
  6  8  1  0
  5  6  1  1
  7  6  2  0
  9  8  1  0
  9 10  1  1
 10 11  1  0
 11 12  2  0
 11 16  1  0
 12 13  1  0
 13 14  2  0
 15 14  1  0
 16 15  2  0
 17  9  1  0
 18 17  2  0
 19 17  1  0
 20 21  1  0
 20 19  1  0
 21 22  1  0
 23 21  2  0
M  END
$$$$
