PFG.pdb
     RDKit          3D

 23 24  0  0  1  0  0  0  0  0999 V2000
    7.6546  -15.3769   19.6155 N   0  0  0  0  0  0  0  0  0  0  0  0
    7.6530  -15.0668   18.1918 C   0  0  0  0  0  0  0  0  0  0  0  0
    8.1066  -13.6212   18.1481 C   0  0  0  0  0  0  0  0  0  0  0  0
    9.0288  -13.4916   19.3416 C   0  0  0  0  0  0  0  0  0  0  0  0
    8.9027  -14.7939   20.0679 C   0  0  1  0  0  0  0  0  0  0  0  0
    8.9615  -14.6924   21.5324 C   0  0  0  0  0  0  0  0  0  0  0  0
   10.0212  -14.4770   22.1689 O   0  0  0  0  0  0  0  0  0  0  0  0
    7.7745  -14.8415   22.2966 N   0  0  0  0  0  0  0  0  0  0  0  0
    7.7889  -14.5737   23.7256 C   0  0  1  0  0  0  0  0  0  0  0  0
    6.8601  -13.3912   23.9987 C   0  0  0  0  0  0  0  0  0  0  0  0
    7.0051  -12.9256   25.4025 C   0  0  0  0  0  0  0  0  0  0  0  0
    5.8982  -12.7616   26.2166 C   0  0  0  0  0  0  0  0  0  0  0  0
    5.9767  -12.3374   27.5103 C   0  0  0  0  0  0  0  0  0  0  0  0
    7.2253  -12.0538   28.0449 C   0  0  0  0  0  0  0  0  0  0  0  0
    8.3393  -12.2026   27.2760 C   0  0  0  0  0  0  0  0  0  0  0  0
    8.2302  -12.6352   25.9648 C   0  0  0  0  0  0  0  0  0  0  0  0
    7.2507  -15.7355   24.4910 C   0  0  0  0  0  0  0  0  0  0  0  0
    6.1892  -16.2577   24.0797 O   0  0  0  0  0  0  0  0  0  0  0  0
    7.8870  -16.2483   25.6341 N   0  0  0  0  0  0  0  0  0  0  0  0
    7.3135  -17.3501   26.3496 C   0  0  0  0  0  0  0  0  0  0  0  0
    7.9156  -18.6515   25.8890 C   0  0  0  0  0  0  0  0  0  0  0  0
    9.2739  -18.8688   25.9665 O   0  0  0  0  0  0  0  0  0  0  0  0
    7.1680  -19.5493   25.4285 O   0  0  0  0  0  0  0  0  0  0  0  0
  1  2  1  0
  3  2  1  0
  4  5  1  0
  4  3  1  0
  5  1  1  0
  6  8  1  0
  5  6  1  1
  7  6  2  0
  9  8  1  0
  9 10  1  6
 10 11  1  0
 11 12  2  0
 11 16  1  0
 12 13  1  0
 13 14  2  0
 15 14  1  0
 16 15  2  0
 17  9  1  0
 18 17  2  0
 19 17  1  0
 20 21  1  0
 20 19  1  0
 21 22  1  0
 23 21  2  0
M  END
$$$$
