PFG.pdb
     RDKit          3D

 23 24  0  0  1  0  0  0  0  0999 V2000
    7.2739  -14.8390   20.8837 N   0  0  0  0  0  0  0  0  0  0  0  0
    6.7301  -14.1852   19.7004 C   0  0  0  0  0  0  0  0  0  0  0  0
    7.1210  -12.7334   19.8919 C   0  0  0  0  0  0  0  0  0  0  0  0
    8.4258  -12.8044   20.6564 C   0  0  0  0  0  0  0  0  0  0  0  0
    8.5954  -14.2525   20.9936 C   0  0  1  0  0  0  0  0  0  0  0  0
    9.2041  -14.5140   22.3048 C   0  0  0  0  0  0  0  0  0  0  0  0
   10.3939  -14.2296   22.5843 O   0  0  0  0  0  0  0  0  0  0  0  0
    8.4325  -15.1196   23.3310 N   0  0  0  0  0  0  0  0  0  0  0  0
    8.9868  -15.2723   24.6664 C   0  0  1  0  0  0  0  0  0  0  0  0
    7.8302  -15.2791   25.6652 C   0  0  0  0  0  0  0  0  0  0  0  0
    7.3953  -13.8915   25.9713 C   0  0  0  0  0  0  0  0  0  0  0  0
    6.0530  -13.5571   26.0070 C   0  0  0  0  0  0  0  0  0  0  0  0
    5.6018  -12.3000   26.2826 C   0  0  0  0  0  0  0  0  0  0  0  0
    6.5284  -11.3002   26.5413 C   0  0  0  0  0  0  0  0  0  0  0  0
    7.8589  -11.5890   26.5157 C   0  0  0  0  0  0  0  0  0  0  0  0
    8.2893  -12.8747   26.2329 C   0  0  0  0  0  0  0  0  0  0  0  0
    9.6894  -16.5809   24.8053 C   0  0  0  0  0  0  0  0  0  0  0  0
   10.1052  -16.8966   25.9438 O   0  0  0  0  0  0  0  0  0  0  0  0
    9.8928  -17.4491   23.7193 N   0  0  0  0  0  0  0  0  0  0  0  0
   10.4349  -18.7592   23.9308 C   0  0  0  0  0  0  0  0  0  0  0  0
   11.9366  -18.7352   23.8189 C   0  0  0  0  0  0  0  0  0  0  0  0
   12.5561  -18.8407   22.5928 O   0  0  0  0  0  0  0  0  0  0  0  0
   12.6317  -18.6174   24.8582 O   0  0  0  0  0  0  0  0  0  0  0  0
  1  2  1  0
  3  2  1  0
  4  5  1  0
  4  3  1  0
  5  1  1  0
  6  8  1  0
  5  6  1  1
  7  6  2  0
  9  8  1  0
  9 10  1  1
 10 11  1  0
 11 12  2  0
 11 16  1  0
 12 13  1  0
 13 14  2  0
 15 14  1  0
 16 15  2  0
 17  9  1  0
 18 17  2  0
 19 17  1  0
 20 21  1  0
 20 19  1  0
 21 22  1  0
 23 21  2  0
M  END
$$$$
