PFG.pdb
     RDKit          3D

 23 24  0  0  1  0  0  0  0  0999 V2000
    7.2133  -14.9292   20.5904 N   0  0  0  0  0  0  0  0  0  0  0  0
    6.7485  -14.3188   19.3516 C   0  0  0  0  0  0  0  0  0  0  0  0
    7.0979  -12.8548   19.5303 C   0  0  0  0  0  0  0  0  0  0  0  0
    8.3424  -12.8789   20.3919 C   0  0  0  0  0  0  0  0  0  0  0  0
    8.5120  -14.3137   20.7820 C   0  0  1  0  0  0  0  0  0  0  0  0
    9.0249  -14.5274   22.1420 C   0  0  0  0  0  0  0  0  0  0  0  0
   10.1670  -14.1657   22.5155 O   0  0  0  0  0  0  0  0  0  0  0  0
    8.2104  -15.1745   23.1079 N   0  0  0  0  0  0  0  0  0  0  0  0
    8.6665  -15.2953   24.4832 C   0  0  1  0  0  0  0  0  0  0  0  0
    7.4397  -15.2966   25.3944 C   0  0  0  0  0  0  0  0  0  0  0  0
    7.0946  -13.9118   25.8088 C   0  0  0  0  0  0  0  0  0  0  0  0
    8.0350  -13.0924   26.4081 C   0  0  0  0  0  0  0  0  0  0  0  0
    7.7697  -11.8154   26.8067 C   0  0  0  0  0  0  0  0  0  0  0  0
    6.4956  -11.3045   26.6049 C   0  0  0  0  0  0  0  0  0  0  0  0
    5.5418  -12.0794   26.0182 C   0  0  0  0  0  0  0  0  0  0  0  0
    5.8389  -13.3732   25.6231 C   0  0  0  0  0  0  0  0  0  0  0  0
    9.3702  -16.5928   24.6991 C   0  0  0  0  0  0  0  0  0  0  0  0
    8.6906  -17.5566   25.1211 O   0  0  0  0  0  0  0  0  0  0  0  0
   10.7426  -16.7599   24.4480 N   0  0  0  0  0  0  0  0  0  0  0  0
   11.3538  -18.0485   24.5918 C   0  0  0  0  0  0  0  0  0  0  0  0
   12.7824  -18.0129   24.1162 C   0  0  0  0  0  0  0  0  0  0  0  0
   13.3025  -16.8833   23.5235 O   0  0  0  0  0  0  0  0  0  0  0  0
   13.5077  -19.0277   24.2629 O   0  0  0  0  0  0  0  0  0  0  0  0
  1  2  1  0
  3  2  1  0
  4  5  1  0
  4  3  1  0
  5  1  1  0
  6  8  1  0
  5  6  1  1
  7  6  2  0
  9  8  1  0
  9 10  1  1
 10 11  1  0
 11 12  2  0
 11 16  1  0
 12 13  1  0
 13 14  2  0
 15 14  1  0
 16 15  2  0
 17  9  1  0
 18 17  2  0
 19 17  1  0
 20 21  1  0
 20 19  1  0
 21 22  1  0
 23 21  2  0
M  END
$$$$
