PFG.pdb
     RDKit          3D

 23 24  0  0  1  0  0  0  0  0999 V2000
    7.6408  -14.9925   20.3051 N   0  0  0  0  0  0  0  0  0  0  0  0
    7.3356  -14.3911   19.0134 C   0  0  0  0  0  0  0  0  0  0  0  0
    7.4068  -12.9034   19.2945 C   0  0  0  0  0  0  0  0  0  0  0  0
    8.4472  -12.7877   20.3882 C   0  0  0  0  0  0  0  0  0  0  0  0
    8.7628  -14.2001   20.7692 C   0  0  1  0  0  0  0  0  0  0  0  0
    9.0278  -14.4094   22.1990 C   0  0  0  0  0  0  0  0  0  0  0  0
   10.0502  -13.9765   22.7838 O   0  0  0  0  0  0  0  0  0  0  0  0
    8.0981  -15.1359   22.9883 N   0  0  0  0  0  0  0  0  0  0  0  0
    8.3180  -15.2896   24.4173 C   0  0  1  0  0  0  0  0  0  0  0  0
    6.9797  -15.0972   25.1294 C   0  0  0  0  0  0  0  0  0  0  0  0
    6.8796  -13.7259   25.6932 C   0  0  0  0  0  0  0  0  0  0  0  0
    6.3660  -13.5123   26.9603 C   0  0  0  0  0  0  0  0  0  0  0  0
    6.2527  -12.2753   27.5234 C   0  0  0  0  0  0  0  0  0  0  0  0
    6.6711  -11.1703   26.7962 C   0  0  0  0  0  0  0  0  0  0  0  0
    7.1825  -11.3386   25.5454 C   0  0  0  0  0  0  0  0  0  0  0  0
    7.2860  -12.6066   24.9979 C   0  0  0  0  0  0  0  0  0  0  0  0
    8.7877  -16.6685   24.7389 C   0  0  0  0  0  0  0  0  0  0  0  0
    8.7816  -17.0160   25.9422 O   0  0  0  0  0  0  0  0  0  0  0  0
    9.2267  -17.5674   23.7520 N   0  0  0  0  0  0  0  0  0  0  0  0
    9.6143  -18.9008   24.1076 C   0  0  0  0  0  0  0  0  0  0  0  0
   11.0907  -18.9633   24.3982 C   0  0  0  0  0  0  0  0  0  0  0  0
   11.8004  -20.1286   24.2071 O   0  0  0  0  0  0  0  0  0  0  0  0
   11.6811  -17.9384   24.8204 O   0  0  0  0  0  0  0  0  0  0  0  0
  1  2  1  0
  3  2  1  0
  4  5  1  0
  4  3  1  0
  5  1  1  0
  6  8  1  0
  5  6  1  1
  7  6  2  0
  9  8  1  0
  9 10  1  1
 10 11  1  0
 11 12  2  0
 11 16  1  0
 12 13  1  0
 13 14  2  0
 15 14  1  0
 16 15  2  0
 17  9  1  0
 18 17  2  0
 19 17  1  0
 20 21  1  0
 20 19  1  0
 21 22  1  0
 23 21  2  0
M  END
$$$$
