PFG.pdb
     RDKit          3D

 23 24  0  0  1  0  0  0  0  0999 V2000
    7.4096  -14.9433   20.6481 N   0  0  0  0  0  0  0  0  0  0  0  0
    6.9219  -14.4137   19.3814 C   0  0  0  0  0  0  0  0  0  0  0  0
    7.2501  -12.9367   19.4700 C   0  0  0  0  0  0  0  0  0  0  0  0
    8.5041  -12.8914   20.3169 C   0  0  0  0  0  0  0  0  0  0  0  0
    8.7005  -14.2981   20.7882 C   0  0  1  0  0  0  0  0  0  0  0  0
    9.2314  -14.4240   22.1523 C   0  0  0  0  0  0  0  0  0  0  0  0
   10.3624  -14.0030   22.4961 O   0  0  0  0  0  0  0  0  0  0  0  0
    8.4484  -15.0500   23.1574 N   0  0  0  0  0  0  0  0  0  0  0  0
    8.8961  -15.0424   24.5407 C   0  0  1  0  0  0  0  0  0  0  0  0
    7.6619  -15.0557   25.4417 C   0  0  0  0  0  0  0  0  0  0  0  0
    7.2941  -13.6736   25.8454 C   0  0  0  0  0  0  0  0  0  0  0  0
    5.9688  -13.3014   25.9860 C   0  0  0  0  0  0  0  0  0  0  0  0
    5.5784  -12.0474   26.3538 C   0  0  0  0  0  0  0  0  0  0  0  0
    6.5526  -11.0910   26.6011 C   0  0  0  0  0  0  0  0  0  0  0  0
    7.8684  -11.4179   26.4737 C   0  0  0  0  0  0  0  0  0  0  0  0
    8.2365  -12.6994   26.0987 C   0  0  0  0  0  0  0  0  0  0  0  0
    9.6774  -16.2738   24.8547 C   0  0  0  0  0  0  0  0  0  0  0  0
   10.0102  -16.4594   26.0478 O   0  0  0  0  0  0  0  0  0  0  0  0
   10.0417  -17.2095   23.8718 N   0  0  0  0  0  0  0  0  0  0  0  0
   10.8301  -18.3553   24.2191 C   0  0  0  0  0  0  0  0  0  0  0  0
   11.8819  -18.6113   23.1720 C   0  0  0  0  0  0  0  0  0  0  0  0
   12.9430  -17.7478   23.0096 O   0  0  0  0  0  0  0  0  0  0  0  0
   11.7887  -19.6262   22.4381 O   0  0  0  0  0  0  0  0  0  0  0  0
  1  2  1  0
  3  2  1  0
  4  5  1  0
  4  3  1  0
  5  1  1  0
  6  8  1  0
  5  6  1  1
  7  6  2  0
  9  8  1  0
  9 10  1  1
 10 11  1  0
 11 12  2  0
 11 16  1  0
 12 13  1  0
 13 14  2  0
 15 14  1  0
 16 15  2  0
 17  9  1  0
 18 17  2  0
 19 17  1  0
 20 21  1  0
 20 19  1  0
 21 22  1  0
 23 21  2  0
M  END
$$$$
