PFG.pdb
     RDKit          3D

 23 24  0  0  1  0  0  0  0  0999 V2000
    7.3090  -15.9450   21.6734 N   0  0  0  0  0  0  0  0  0  0  0  0
    6.6060  -15.6947   20.4218 C   0  0  0  0  0  0  0  0  0  0  0  0
    6.7391  -14.1960   20.2394 C   0  0  0  0  0  0  0  0  0  0  0  0
    8.0676  -13.8659   20.8860 C   0  0  0  0  0  0  0  0  0  0  0  0
    8.5078  -15.1418   21.5325 C   0  0  1  0  0  0  0  0  0  0  0  0
    9.2100  -14.9754   22.8122 C   0  0  0  0  0  0  0  0  0  0  0  0
   10.2941  -14.3546   22.9309 O   0  0  0  0  0  0  0  0  0  0  0  0
    8.6596  -15.5348   23.9951 N   0  0  0  0  0  0  0  0  0  0  0  0
    9.2966  -15.2951   25.2799 C   0  0  1  0  0  0  0  0  0  0  0  0
    8.2051  -15.2183   26.3467 C   0  0  0  0  0  0  0  0  0  0  0  0
    7.5780  -13.8710   26.3574 C   0  0  0  0  0  0  0  0  0  0  0  0
    6.2051  -13.7235   26.2668 C   0  0  0  0  0  0  0  0  0  0  0  0
    5.5805  -12.5112   26.2722 C   0  0  0  0  0  0  0  0  0  0  0  0
    6.3530  -11.3631   26.3732 C   0  0  0  0  0  0  0  0  0  0  0  0
    7.7078  -11.4659   26.4643 C   0  0  0  0  0  0  0  0  0  0  0  0
    8.3158  -12.7104   26.4565 C   0  0  0  0  0  0  0  0  0  0  0  0
   10.1896  -16.4306   25.6520 C   0  0  0  0  0  0  0  0  0  0  0  0
   10.8789  -16.3084   26.6907 O   0  0  0  0  0  0  0  0  0  0  0  0
   10.2769  -17.6062   24.8872 N   0  0  0  0  0  0  0  0  0  0  0  0
   11.1319  -18.6790   25.3029 C   0  0  0  0  0  0  0  0  0  0  0  0
   10.5312  -19.4115   26.4738 C   0  0  0  0  0  0  0  0  0  0  0  0
    9.3261  -19.0166   27.0122 O   0  0  0  0  0  0  0  0  0  0  0  0
   11.1385  -20.3952   26.9645 O   0  0  0  0  0  0  0  0  0  0  0  0
  1  2  1  0
  3  2  1  0
  4  5  1  0
  4  3  1  0
  5  1  1  0
  6  8  1  0
  5  6  1  1
  7  6  2  0
  9  8  1  0
  9 10  1  1
 10 11  1  0
 11 12  2  0
 11 16  1  0
 12 13  1  0
 13 14  2  0
 15 14  1  0
 16 15  2  0
 17  9  1  0
 18 17  2  0
 19 17  1  0
 20 21  1  0
 20 19  1  0
 21 22  1  0
 23 21  2  0
M  END
$$$$
