ATC.pdb
     RDKit          3D

 19 18  0  0  1  0  0  0  0  0999 V2000
    7.4799  -12.4585   19.2521 C   0  0  0  0  0  0  0  0  0  0  0  0
    8.3943  -13.4522   18.5423 C   0  0  2  0  0  0  0  0  0  0  0  0
    7.8414  -13.8617   17.2742 N   0  0  0  0  0  0  0  0  0  0  0  0
    8.5672  -14.6420   19.4144 C   0  0  0  0  0  0  0  0  0  0  0  0
    7.7469  -15.5927   19.3628 O   0  0  0  0  0  0  0  0  0  0  0  0
   11.3404  -16.7784   19.4821 C   0  0  0  0  0  0  0  0  0  0  0  0
   11.2733  -16.3962   20.9571 C   0  0  1  0  0  0  0  0  0  0  0  0
   12.2228  -15.4229   21.2583 O   0  0  0  0  0  0  0  0  0  0  0  0
    9.8765  -15.8343   21.2206 C   0  0  2  0  0  0  0  0  0  0  0  0
    9.6549  -14.7394   20.3242 N   0  0  0  0  0  0  0  0  0  0  0  0
    9.8064  -15.4539   22.6431 C   0  0  0  0  0  0  0  0  0  0  0  0
   10.1860  -14.3614   23.1303 O   0  0  0  0  0  0  0  0  0  0  0  0
    9.2651  -16.3909   23.5617 N   0  0  0  0  0  0  0  0  0  0  0  0
    9.2259  -16.1348   24.9550 C   0  0  1  0  0  0  0  0  0  0  0  0
    7.8611  -16.0527   25.5561 C   0  0  0  0  0  0  0  0  0  0  0  0
    6.7552  -17.1332   24.6098 S   0  0  0  0  0  0  0  0  0  0  0  0
    9.9701  -17.2119   25.6526 C   0  0  0  0  0  0  0  0  0  0  0  0
   10.2440  -17.1159   27.0278 O   0  0  0  0  0  0  0  0  0  0  0  0
   10.3658  -18.2204   25.0333 O   0  0  0  0  0  0  0  0  0  0  0  0
  2  3  1  0
  2  4  1  0
  2  1  1  1
  4 10  1  0
  5  4  2  0
  7  8  1  0
  7  6  1  6
  9  7  1  0
  9 10  1  6
 11 13  1  0
 11  9  1  0
 12 11  2  0
 14 13  1  0
 14 17  1  0
 14 15  1  1
 16 15  1  0
 17 18  1  0
 19 17  2  0
M  END
$$$$
