ATC.pdb
     RDKit          3D

 19 18  0  0  1  0  0  0  0  0999 V2000
   12.1388  -20.8171   22.6111 C   0  0  0  0  0  0  0  0  0  0  0  0
   12.1613  -19.9334   23.8546 C   0  0  2  0  0  0  0  0  0  0  0  0
   11.0916  -20.2740   24.7606 N   0  0  0  0  0  0  0  0  0  0  0  0
   12.0190  -18.5170   23.4307 C   0  0  0  0  0  0  0  0  0  0  0  0
   12.8845  -17.9846   22.6911 O   0  0  0  0  0  0  0  0  0  0  0  0
    9.5610  -16.9418   21.3508 C   0  0  0  0  0  0  0  0  0  0  0  0
    9.3553  -16.2912   22.7148 C   0  0  1  0  0  0  0  0  0  0  0  0
    8.3809  -16.9693   23.4431 O   0  0  0  0  0  0  0  0  0  0  0  0
   10.6859  -16.3676   23.4630 C   0  0  2  0  0  0  0  0  0  0  0  0
   10.9105  -17.7296   23.8449 N   0  0  0  0  0  0  0  0  0  0  0  0
   10.6121  -15.4401   24.6066 C   0  0  0  0  0  0  0  0  0  0  0  0
   10.4275  -14.2008   24.5358 O   0  0  0  0  0  0  0  0  0  0  0  0
   10.7604  -15.9741   25.9133 N   0  0  0  0  0  0  0  0  0  0  0  0
   10.5697  -15.1801   27.0716 C   0  0  1  0  0  0  0  0  0  0  0  0
    9.2287  -14.5342   27.1954 C   0  0  0  0  0  0  0  0  0  0  0  0
    9.2136  -13.5372   28.7092 S   0  0  0  0  0  0  0  0  0  0  0  0
   10.7800  -16.0330   28.2668 C   0  0  0  0  0  0  0  0  0  0  0  0
   11.1793  -15.4647   29.4887 O   0  0  0  0  0  0  0  0  0  0  0  0
   10.6067  -17.2675   28.2101 O   0  0  0  0  0  0  0  0  0  0  0  0
  2  3  1  0
  2  4  1  0
  2  1  1  6
  4 10  1  0
  5  4  2  0
  7  8  1  0
  7  6  1  6
  9  7  1  0
  9 10  1  1
 11 13  1  0
 11  9  1  0
 12 11  2  0
 14 13  1  0
 14 17  1  0
 14 15  1  1
 16 15  1  0
 17 18  1  0
 19 17  2  0
M  END
$$$$
