ATC.pdb
     RDKit          3D

 19 18  0  0  1  0  0  0  0  0999 V2000
    7.4736  -12.9988   19.2229 C   0  0  0  0  0  0  0  0  0  0  0  0
    8.7757  -13.3476   19.9375 C   0  0  2  0  0  0  0  0  0  0  0  0
    9.5637  -14.2796   19.1683 N   0  0  0  0  0  0  0  0  0  0  0  0
    8.4456  -13.9479   21.2554 C   0  0  0  0  0  0  0  0  0  0  0  0
    7.7387  -13.3179   22.0818 O   0  0  0  0  0  0  0  0  0  0  0  0
    8.1038  -17.9459   21.6845 C   0  0  0  0  0  0  0  0  0  0  0  0
    9.0246  -17.3554   22.7474 C   0  0  1  0  0  0  0  0  0  0  0  0
   10.3591  -17.4813   22.3694 O   0  0  0  0  0  0  0  0  0  0  0  0
    8.6776  -15.8727   22.8799 C   0  0  2  0  0  0  0  0  0  0  0  0
    8.9150  -15.2398   21.6172 N   0  0  0  0  0  0  0  0  0  0  0  0
    9.4894  -15.3179   23.9783 C   0  0  0  0  0  0  0  0  0  0  0  0
   10.6044  -14.7553   23.8551 O   0  0  0  0  0  0  0  0  0  0  0  0
    8.9849  -15.4177   25.3013 N   0  0  0  0  0  0  0  0  0  0  0  0
    9.6570  -14.8336   26.4038 C   0  0  1  0  0  0  0  0  0  0  0  0
    8.8492  -13.8746   27.2153 C   0  0  0  0  0  0  0  0  0  0  0  0
    9.8742  -13.2864   28.5899 S   0  0  0  0  0  0  0  0  0  0  0  0
   10.1188  -15.9195   27.3027 C   0  0  0  0  0  0  0  0  0  0  0  0
   11.1176  -15.6771   28.2614 O   0  0  0  0  0  0  0  0  0  0  0  0
    9.6305  -17.0653   27.2247 O   0  0  0  0  0  0  0  0  0  0  0  0
  2  3  1  0
  2  4  1  0
  2  1  1  6
  4 10  1  0
  5  4  2  0
  7  8  1  0
  7  6  1  6
  9  7  1  0
  9 10  1  6
 11 13  1  0
 11  9  1  0
 12 11  2  0
 14 13  1  0
 14 17  1  0
 14 15  1  1
 16 15  1  0
 17 18  1  0
 19 17  2  0
M  END
$$$$
