ATC.pdb
     RDKit          3D

 19 18  0  0  1  0  0  0  0  0999 V2000
    7.1611  -18.6474   17.7373 C   0  0  0  0  0  0  0  0  0  0  0  0
    7.4632  -17.2208   17.2887 C   0  0  2  0  0  0  0  0  0  0  0  0
    8.0764  -17.1994   15.9830 N   0  0  0  0  0  0  0  0  0  0  0  0
    8.3811  -16.5988   18.2770 C   0  0  0  0  0  0  0  0  0  0  0  0
    9.6231  -16.7669   18.1849 O   0  0  0  0  0  0  0  0  0  0  0  0
    7.6314  -13.0658   19.6665 C   0  0  0  0  0  0  0  0  0  0  0  0
    7.9579  -13.9471   20.8677 C   0  0  1  0  0  0  0  0  0  0  0  0
    6.7924  -14.3557   21.5114 O   0  0  0  0  0  0  0  0  0  0  0  0
    8.7003  -15.1764   20.3442 C   0  0  2  0  0  0  0  0  0  0  0  0
    7.8865  -15.8028   19.3458 N   0  0  0  0  0  0  0  0  0  0  0  0
    8.9938  -16.0482   21.4962 C   0  0  0  0  0  0  0  0  0  0  0  0
    8.2732  -16.9903   21.9061 O   0  0  0  0  0  0  0  0  0  0  0  0
   10.1927  -15.8200   22.2212 N   0  0  0  0  0  0  0  0  0  0  0  0
   10.6143  -16.6863   23.2605 C   0  0  1  0  0  0  0  0  0  0  0  0
   10.8998  -18.0934   22.8493 C   0  0  0  0  0  0  0  0  0  0  0  0
   11.3919  -19.0291   24.3218 S   0  0  0  0  0  0  0  0  0  0  0  0
   11.8464  -16.1272   23.8685 C   0  0  0  0  0  0  0  0  0  0  0  0
   12.3044  -16.5939   25.1126 O   0  0  0  0  0  0  0  0  0  0  0  0
   12.4975  -15.2345   23.2884 O   0  0  0  0  0  0  0  0  0  0  0  0
  2  3  1  0
  2  4  1  0
  2  1  1  1
  4 10  1  0
  5  4  2  0
  7  8  1  0
  7  6  1  6
  9  7  1  0
  9 10  1  6
 11 13  1  0
 11  9  1  0
 12 11  2  0
 14 13  1  0
 14 17  1  0
 14 15  1  6
 16 15  1  0
 17 18  1  0
 19 17  2  0
M  END
$$$$
