ATC.pdb
     RDKit          3D

 19 18  0  0  1  0  0  0  0  0999 V2000
    8.4266  -12.2781   18.4589 C   0  0  0  0  0  0  0  0  0  0  0  0
    8.5760  -13.6901   17.9006 C   0  0  2  0  0  0  0  0  0  0  0  0
    7.7368  -13.8893   16.7442 N   0  0  0  0  0  0  0  0  0  0  0  0
    8.1976  -14.6599   18.9601 C   0  0  0  0  0  0  0  0  0  0  0  0
    6.9887  -14.9303   19.1721 O   0  0  0  0  0  0  0  0  0  0  0  0
    8.7066  -18.0443   19.2511 C   0  0  0  0  0  0  0  0  0  0  0  0
    9.4392  -17.5722   20.5028 C   0  0  1  0  0  0  0  0  0  0  0  0
   10.8096  -17.4862   20.2695 O   0  0  0  0  0  0  0  0  0  0  0  0
    8.9007  -16.1850   20.8516 C   0  0  2  0  0  0  0  0  0  0  0  0
    9.1820  -15.3043   19.7576 N   0  0  0  0  0  0  0  0  0  0  0  0
    9.5255  -15.7665   22.1196 C   0  0  0  0  0  0  0  0  0  0  0  0
   10.5872  -15.1070   22.2322 O   0  0  0  0  0  0  0  0  0  0  0  0
    8.8867  -16.1306   23.3338 N   0  0  0  0  0  0  0  0  0  0  0  0
    9.3924  -15.7273   24.5948 C   0  0  1  0  0  0  0  0  0  0  0  0
    8.3630  -15.3902   25.6230 C   0  0  0  0  0  0  0  0  0  0  0  0
    7.3402  -14.0370   24.9836 S   0  0  0  0  0  0  0  0  0  0  0  0
   10.2384  -16.8200   25.1339 C   0  0  0  0  0  0  0  0  0  0  0  0
   10.3393  -18.0467   24.4552 O   0  0  0  0  0  0  0  0  0  0  0  0
   10.8746  -16.6711   26.1972 O   0  0  0  0  0  0  0  0  0  0  0  0
  2  3  1  0
  2  4  1  0
  2  1  1  1
  4 10  1  0
  5  4  2  0
  7  8  1  0
  7  6  1  6
  9  7  1  0
  9 10  1  6
 11 13  1  0
 11  9  1  0
 12 11  2  0
 14 13  1  0
 14 17  1  0
 14 15  1  1
 16 15  1  0
 17 18  1  0
 19 17  2  0
M  END
$$$$
