ATC.pdb
     RDKit          3D

 19 18  0  0  1  0  0  0  0  0999 V2000
    8.1127  -12.4892   20.0182 C   0  0  0  0  0  0  0  0  0  0  0  0
    8.5230  -13.9023   19.6155 C   0  0  2  0  0  0  0  0  0  0  0  0
    7.7051  -14.3993   18.5359 N   0  0  0  0  0  0  0  0  0  0  0  0
    8.3780  -14.7914   20.7963 C   0  0  0  0  0  0  0  0  0  0  0  0
    7.5230  -15.7126   20.7975 O   0  0  0  0  0  0  0  0  0  0  0  0
    8.9137  -17.3025   21.3142 C   0  0  0  0  0  0  0  0  0  0  0  0
    9.8315  -16.8862   22.4589 C   0  0  1  0  0  0  0  0  0  0  0  0
   11.1323  -16.6893   22.0018 O   0  0  0  0  0  0  0  0  0  0  0  0
    9.2923  -15.5715   23.0220 C   0  0  2  0  0  0  0  0  0  0  0  0
    9.1940  -14.6283   21.9487 N   0  0  0  0  0  0  0  0  0  0  0  0
   10.1977  -15.1410   24.1029 C   0  0  0  0  0  0  0  0  0  0  0  0
   10.9846  -14.1645   24.0559 O   0  0  0  0  0  0  0  0  0  0  0  0
   10.1961  -15.8819   25.3136 N   0  0  0  0  0  0  0  0  0  0  0  0
   10.3171  -15.2506   26.5766 C   0  0  1  0  0  0  0  0  0  0  0  0
    9.2539  -14.2536   26.9023 C   0  0  0  0  0  0  0  0  0  0  0  0
    9.6794  -13.4592   28.4751 S   0  0  0  0  0  0  0  0  0  0  0  0
   10.3030  -16.2962   27.6287 C   0  0  0  0  0  0  0  0  0  0  0  0
   11.2590  -16.2860   28.6590 O   0  0  0  0  0  0  0  0  0  0  0  0
    9.4446  -17.2020   27.6188 O   0  0  0  0  0  0  0  0  0  0  0  0
  2  3  1  0
  2  4  1  0
  2  1  1  1
  4 10  1  0
  5  4  2  0
  7  8  1  0
  7  6  1  6
  9  7  1  0
  9 10  1  6
 11 13  1  0
 11  9  1  0
 12 11  2  0
 14 13  1  0
 14 17  1  0
 14 15  1  1
 16 15  1  0
 17 18  1  0
 19 17  2  0
M  END
$$$$
