ATC.pdb
     RDKit          3D

 19 18  0  0  1  0  0  0  0  0999 V2000
    7.4833  -13.1857   18.8494 C   0  0  0  0  0  0  0  0  0  0  0  0
    8.6521  -13.3224   19.8203 C   0  0  2  0  0  0  0  0  0  0  0  0
    9.6197  -14.2816   19.3459 N   0  0  0  0  0  0  0  0  0  0  0  0
    8.1241  -13.7616   21.1372 C   0  0  0  0  0  0  0  0  0  0  0  0
    7.1946  -13.1246   21.6940 O   0  0  0  0  0  0  0  0  0  0  0  0
    7.0738  -17.2899   21.9394 C   0  0  0  0  0  0  0  0  0  0  0  0
    8.1275  -16.9284   22.9811 C   0  0  1  0  0  0  0  0  0  0  0  0
    9.3776  -17.4167   22.6087 O   0  0  0  0  0  0  0  0  0  0  0  0
    8.1871  -15.4032   23.0606 C   0  0  2  0  0  0  0  0  0  0  0  0
    8.6491  -14.9041   21.8001 N   0  0  0  0  0  0  0  0  0  0  0  0
    9.0627  -15.0462   24.1916 C   0  0  0  0  0  0  0  0  0  0  0  0
   10.3076  -14.8965   24.1373 O   0  0  0  0  0  0  0  0  0  0  0  0
    8.4667  -14.8495   25.4647 N   0  0  0  0  0  0  0  0  0  0  0  0
    9.2249  -14.4411   26.5902 C   0  0  1  0  0  0  0  0  0  0  0  0
    8.5364  -13.4992   27.5226 C   0  0  0  0  0  0  0  0  0  0  0  0
    7.8567  -12.1288   26.5498 S   0  0  0  0  0  0  0  0  0  0  0  0
    9.6113  -15.6484   27.3606 C   0  0  0  0  0  0  0  0  0  0  0  0
   10.4142  -15.5365   28.5088 O   0  0  0  0  0  0  0  0  0  0  0  0
    9.2319  -16.7827   27.0047 O   0  0  0  0  0  0  0  0  0  0  0  0
  2  3  1  0
  2  4  1  0
  2  1  1  6
  4 10  1  0
  5  4  2  0
  7  8  1  0
  7  6  1  6
  9  7  1  0
  9 10  1  6
 11 13  1  0
 11  9  1  0
 12 11  2  0
 14 13  1  0
 14 17  1  0
 14 15  1  1
 16 15  1  0
 17 18  1  0
 19 17  2  0
M  END
$$$$
