ATC.pdb
     RDKit          3D

 19 18  0  0  1  0  0  0  0  0999 V2000
   -1.7335  -26.5228   24.7464 C   0  0  0  0  0  0  0  0  0  0  0  0
   -1.9753  -25.0267   24.5702 C   0  0  2  0  0  0  0  0  0  0  0  0
   -0.7702  -24.3437   24.1670 N   0  0  0  0  0  0  0  0  0  0  0  0
   -2.4517  -24.4694   25.8619 C   0  0  0  0  0  0  0  0  0  0  0  0
   -1.6294  -24.0616   26.7203 O   0  0  0  0  0  0  0  0  0  0  0  0
   -4.8439  -21.7011   26.4602 C   0  0  0  0  0  0  0  0  0  0  0  0
   -5.4915  -22.9203   27.1086 C   0  0  1  0  0  0  0  0  0  0  0  0
   -6.4163  -23.5048   26.2467 O   0  0  0  0  0  0  0  0  0  0  0  0
   -4.3785  -23.9243   27.4074 C   0  0  2  0  0  0  0  0  0  0  0  0
   -3.8382  -24.3818   26.1623 N   0  0  0  0  0  0  0  0  0  0  0  0
   -4.9555  -25.0029   28.2303 C   0  0  0  0  0  0  0  0  0  0  0  0
   -5.3328  -26.1240   27.8113 O   0  0  0  0  0  0  0  0  0  0  0  0
   -5.1072  -24.7752   29.6232 N   0  0  0  0  0  0  0  0  0  0  0  0
   -5.5581  -25.7914   30.5021 C   0  0  1  0  0  0  0  0  0  0  0  0
   -5.0680  -25.6893   31.9092 C   0  0  0  0  0  0  0  0  0  0  0  0
   -3.2612  -25.8353   31.8957 S   0  0  0  0  0  0  0  0  0  0  0  0
   -7.0410  -25.7656   30.5300 C   0  0  0  0  0  0  0  0  0  0  0  0
   -7.7505  -24.7503   29.8657 O   0  0  0  0  0  0  0  0  0  0  0  0
   -7.6845  -26.6423   31.1420 O   0  0  0  0  0  0  0  0  0  0  0  0
  2  3  1  0
  2  4  1  0
  2  1  1  1
  4 10  1  0
  5  4  2  0
  7  8  1  0
  7  6  1  6
  9  7  1  0
  9 10  1  6
 11 13  1  0
 11  9  1  0
 12 11  2  0
 14 13  1  0
 14 17  1  0
 14 15  1  1
 16 15  1  0
 17 18  1  0
 19 17  2  0
M  END
$$$$
