ATC.pdb
     RDKit          3D

 19 18  0  0  1  0  0  0  0  0999 V2000
    8.7868  -12.3728   19.2203 C   0  0  0  0  0  0  0  0  0  0  0  0
    8.6814  -13.8947   19.2086 C   0  0  2  0  0  0  0  0  0  0  0  0
    8.0362  -14.3674   18.0080 N   0  0  0  0  0  0  0  0  0  0  0  0
    7.8963  -14.3234   20.3944 C   0  0  0  0  0  0  0  0  0  0  0  0
    6.6400  -14.3200   20.3602 O   0  0  0  0  0  0  0  0  0  0  0  0
    7.1543  -17.1822   21.8034 C   0  0  0  0  0  0  0  0  0  0  0  0
    7.8707  -16.5703   23.0029 C   0  0  1  0  0  0  0  0  0  0  0  0
    9.1889  -17.0148   23.0699 O   0  0  0  0  0  0  0  0  0  0  0  0
    7.8608  -15.0533   22.8159 C   0  0  2  0  0  0  0  0  0  0  0  0
    8.5365  -14.7459   21.5910 N   0  0  0  0  0  0  0  0  0  0  0  0
    8.4922  -14.4503   24.0038 C   0  0  0  0  0  0  0  0  0  0  0  0
    9.6969  -14.1128   24.1030 O   0  0  0  0  0  0  0  0  0  0  0  0
    7.6851  -14.2219   25.1489 N   0  0  0  0  0  0  0  0  0  0  0  0
    8.1988  -13.5992   26.3136 C   0  0  1  0  0  0  0  0  0  0  0  0
    7.4353  -12.4105   26.7979 C   0  0  0  0  0  0  0  0  0  0  0  0
    5.6700  -12.8220   26.7838 S   0  0  0  0  0  0  0  0  0  0  0  0
    8.2306  -14.6006   27.4076 C   0  0  0  0  0  0  0  0  0  0  0  0
    8.8676  -14.3078   28.6258 O   0  0  0  0  0  0  0  0  0  0  0  0
    7.6939  -15.7184   27.2672 O   0  0  0  0  0  0  0  0  0  0  0  0
  2  3  1  0
  2  4  1  0
  2  1  1  6
  4 10  1  0
  5  4  2  0
  7  8  1  0
  7  6  1  6
  9  7  1  0
  9 10  1  6
 11 13  1  0
 11  9  1  0
 12 11  2  0
 14 13  1  0
 14 17  1  0
 14 15  1  1
 16 15  1  0
 17 18  1  0
 19 17  2  0
M  END
$$$$
