ATC.pdb
     RDKit          3D

 19 18  0  0  1  0  0  0  0  0999 V2000
    9.0811  -12.2482   19.4436 C   0  0  0  0  0  0  0  0  0  0  0  0
    8.8935  -13.7526   19.2728 C   0  0  2  0  0  0  0  0  0  0  0  0
    8.1355  -14.0558   18.0833 N   0  0  0  0  0  0  0  0  0  0  0  0
    8.1776  -14.2779   20.4635 C   0  0  0  0  0  0  0  0  0  0  0  0
    6.9250  -14.2046   20.5358 O   0  0  0  0  0  0  0  0  0  0  0  0
    7.3580  -17.2649   21.4203 C   0  0  0  0  0  0  0  0  0  0  0  0
    8.2284  -16.9169   22.6235 C   0  0  1  0  0  0  0  0  0  0  0  0
    9.5236  -17.3992   22.4514 O   0  0  0  0  0  0  0  0  0  0  0  0
    8.2699  -15.3929   22.7320 C   0  0  2  0  0  0  0  0  0  0  0  0
    8.8811  -14.8732   21.5456 N   0  0  0  0  0  0  0  0  0  0  0  0
    8.9975  -15.0503   23.9676 C   0  0  0  0  0  0  0  0  0  0  0  0
   10.2408  -14.9171   24.0742 O   0  0  0  0  0  0  0  0  0  0  0  0
    8.2454  -14.8485   25.1544 N   0  0  0  0  0  0  0  0  0  0  0  0
    8.8565  -14.4424   26.3668 C   0  0  1  0  0  0  0  0  0  0  0  0
    7.9629  -13.7362   27.3329 C   0  0  0  0  0  0  0  0  0  0  0  0
    7.2941  -12.2616   26.5179 S   0  0  0  0  0  0  0  0  0  0  0  0
    9.4047  -15.6436   27.0429 C   0  0  0  0  0  0  0  0  0  0  0  0
   10.1961  -15.5148   28.1973 O   0  0  0  0  0  0  0  0  0  0  0  0
    9.1742  -16.7875   26.6007 O   0  0  0  0  0  0  0  0  0  0  0  0
  2  3  1  0
  2  4  1  0
  2  1  1  1
  4 10  1  0
  5  4  2  0
  7  8  1  0
  7  6  1  6
  9  7  1  0
  9 10  1  6
 11 13  1  0
 11  9  1  0
 12 11  2  0
 14 13  1  0
 14 17  1  0
 14 15  1  1
 16 15  1  0
 17 18  1  0
 19 17  2  0
M  END
$$$$
