ATC.pdb
     RDKit          3D

 19 18  0  0  1  0  0  0  0  0999 V2000
    8.4515  -12.3814   19.6274 C   0  0  0  0  0  0  0  0  0  0  0  0
    8.4696  -13.8968   19.4520 C   0  0  2  0  0  0  0  0  0  0  0  0
    7.7271  -14.2991   18.2823 N   0  0  0  0  0  0  0  0  0  0  0  0
    7.8681  -14.5197   20.6588 C   0  0  0  0  0  0  0  0  0  0  0  0
    6.7875  -15.1558   20.5744 O   0  0  0  0  0  0  0  0  0  0  0  0
    7.4667  -16.9801   21.5736 C   0  0  0  0  0  0  0  0  0  0  0  0
    8.2954  -16.6426   22.8087 C   0  0  1  0  0  0  0  0  0  0  0  0
    9.6463  -16.8927   22.5800 O   0  0  0  0  0  0  0  0  0  0  0  0
    8.1016  -15.1540   23.0963 C   0  0  2  0  0  0  0  0  0  0  0  0
    8.4909  -14.4158   21.9322 N   0  0  0  0  0  0  0  0  0  0  0  0
    8.8919  -14.8216   24.2955 C   0  0  0  0  0  0  0  0  0  0  0  0
   10.1391  -14.6886   24.3391 O   0  0  0  0  0  0  0  0  0  0  0  0
    8.2020  -14.6305   25.5212 N   0  0  0  0  0  0  0  0  0  0  0  0
    8.8427  -14.0886   26.6632 C   0  0  1  0  0  0  0  0  0  0  0  0
    7.9797  -13.2506   27.5484 C   0  0  0  0  0  0  0  0  0  0  0  0
    6.9764  -12.1622   26.5021 S   0  0  0  0  0  0  0  0  0  0  0  0
    9.3831  -15.2066   27.4747 C   0  0  0  0  0  0  0  0  0  0  0  0
   10.2317  -14.9524   28.5659 O   0  0  0  0  0  0  0  0  0  0  0  0
    9.0952  -16.3904   27.2044 O   0  0  0  0  0  0  0  0  0  0  0  0
  2  3  1  0
  2  4  1  0
  2  1  1  1
  4 10  1  0
  5  4  2  0
  7  8  1  0
  7  6  1  6
  9  7  1  0
  9 10  1  6
 11 13  1  0
 11  9  1  0
 12 11  2  0
 14 13  1  0
 14 17  1  0
 14 15  1  1
 16 15  1  0
 17 18  1  0
 19 17  2  0
M  END
$$$$
