ATC.pdb
     RDKit          3D

 19 18  0  0  1  0  0  0  0  0999 V2000
    4.5545  -18.1310   20.4304 C   0  0  0  0  0  0  0  0  0  0  0  0
    5.2390  -17.4731   19.2361 C   0  0  2  0  0  0  0  0  0  0  0  0
    5.3907  -18.4002   18.1413 N   0  0  0  0  0  0  0  0  0  0  0  0
    6.5765  -16.9900   19.6648 C   0  0  0  0  0  0  0  0  0  0  0  0
    7.5735  -17.7536   19.6175 O   0  0  0  0  0  0  0  0  0  0  0  0
    8.0915  -13.9668   18.3878 C   0  0  0  0  0  0  0  0  0  0  0  0
    8.2035  -13.7547   19.8940 C   0  0  1  0  0  0  0  0  0  0  0  0
    7.2125  -12.8863   20.3452 O   0  0  0  0  0  0  0  0  0  0  0  0
    8.0203  -15.1170   20.5623 C   0  0  2  0  0  0  0  0  0  0  0  0
    6.7664  -15.6627   20.1366 N   0  0  0  0  0  0  0  0  0  0  0  0
    8.1110  -14.9180   22.0202 C   0  0  0  0  0  0  0  0  0  0  0  0
    7.2108  -14.4414   22.7533 O   0  0  0  0  0  0  0  0  0  0  0  0
    9.3142  -15.2914   22.6742 N   0  0  0  0  0  0  0  0  0  0  0  0
    9.4515  -15.2237   24.0830 C   0  0  1  0  0  0  0  0  0  0  0  0
    8.4940  -16.0626   24.8640 C   0  0  0  0  0  0  0  0  0  0  0  0
    7.0952  -15.0211   25.3586 S   0  0  0  0  0  0  0  0  0  0  0  0
   10.8280  -15.6437   24.4425 C   0  0  0  0  0  0  0  0  0  0  0  0
   11.2818  -15.5443   25.7691 O   0  0  0  0  0  0  0  0  0  0  0  0
   11.6067  -16.0918   23.5764 O   0  0  0  0  0  0  0  0  0  0  0  0
  2  3  1  0
  2  4  1  0
  2  1  1  1
  4 10  1  0
  5  4  2  0
  7  8  1  0
  7  6  1  6
  9  7  1  0
  9 10  1  1
 11 13  1  0
 11  9  1  0
 12 11  2  0
 14 13  1  0
 14 17  1  0
 14 15  1  1
 16 15  1  0
 17 18  1  0
 19 17  2  0
M  END
$$$$
