ATC.pdb
     RDKit          3D

 19 18  0  0  1  0  0  0  0  0999 V2000
   -0.9956  -26.2094   28.7043 C   0  0  0  0  0  0  0  0  0  0  0  0
   -2.3778  -26.4752   29.2928 C   0  0  2  0  0  0  0  0  0  0  0  0
   -3.0113  -27.6045   28.6567 N   0  0  0  0  0  0  0  0  0  0  0  0
   -3.2151  -25.2638   29.0991 C   0  0  0  0  0  0  0  0  0  0  0  0
   -2.8591  -24.1605   29.5845 O   0  0  0  0  0  0  0  0  0  0  0  0
   -4.5512  -23.7901   25.9136 C   0  0  0  0  0  0  0  0  0  0  0  0
   -5.7754  -24.1663   26.7419 C   0  0  1  0  0  0  0  0  0  0  0  0
   -6.2619  -25.4155   26.3643 O   0  0  0  0  0  0  0  0  0  0  0  0
   -5.3382  -24.2187   28.2056 C   0  0  2  0  0  0  0  0  0  0  0  0
   -4.4318  -25.3160   28.3661 N   0  0  0  0  0  0  0  0  0  0  0  0
   -6.5529  -24.3328   29.0333 C   0  0  0  0  0  0  0  0  0  0  0  0
   -7.0353  -25.3994   29.4856 O   0  0  0  0  0  0  0  0  0  0  0  0
   -7.2554  -23.1435   29.3601 N   0  0  0  0  0  0  0  0  0  0  0  0
   -8.4593  -23.1678   30.1074 C   0  0  1  0  0  0  0  0  0  0  0  0
   -8.3071  -22.9671   31.5796 C   0  0  0  0  0  0  0  0  0  0  0  0
   -9.9604  -22.8305   32.3104 S   0  0  0  0  0  0  0  0  0  0  0  0
   -9.3560  -22.1054   29.5900 C   0  0  0  0  0  0  0  0  0  0  0  0
  -10.7520  -22.2482   29.6678 O   0  0  0  0  0  0  0  0  0  0  0  0
   -8.8889  -21.0678   29.0774 O   0  0  0  0  0  0  0  0  0  0  0  0
  2  3  1  0
  2  4  1  0
  2  1  1  6
  4 10  1  0
  5  4  2  0
  7  8  1  0
  7  6  1  6
  9  7  1  0
  9 10  1  6
 11 13  1  0
 11  9  1  0
 12 11  2  0
 14 13  1  0
 14 17  1  0
 14 15  1  1
 16 15  1  0
 17 18  1  0
 19 17  2  0
M  END
$$$$
