ATC.pdb
     RDKit          3D

 19 18  0  0  1  0  0  0  0  0999 V2000
    8.6129  -12.3236   19.1197 C   0  0  0  0  0  0  0  0  0  0  0  0
    8.4835  -13.8435   19.0932 C   0  0  2  0  0  0  0  0  0  0  0  0
    7.7571  -14.2887   17.9290 N   0  0  0  0  0  0  0  0  0  0  0  0
    7.7678  -14.2786   20.3197 C   0  0  0  0  0  0  0  0  0  0  0  0
    6.5131  -14.2311   20.3743 O   0  0  0  0  0  0  0  0  0  0  0  0
    6.9293  -17.1332   21.4049 C   0  0  0  0  0  0  0  0  0  0  0  0
    7.8008  -16.7586   22.5993 C   0  0  1  0  0  0  0  0  0  0  0  0
    9.0905  -17.2616   22.4461 O   0  0  0  0  0  0  0  0  0  0  0  0
    7.8605  -15.2325   22.6606 C   0  0  2  0  0  0  0  0  0  0  0  0
    8.4739  -14.7569   21.4568 N   0  0  0  0  0  0  0  0  0  0  0  0
    8.5963  -14.8606   23.8828 C   0  0  0  0  0  0  0  0  0  0  0  0
    9.8287  -14.6362   23.9579 O   0  0  0  0  0  0  0  0  0  0  0  0
    7.8662  -14.7398   25.0941 N   0  0  0  0  0  0  0  0  0  0  0  0
    8.4846  -14.3318   26.3022 C   0  0  1  0  0  0  0  0  0  0  0  0
    7.6170  -13.5582   27.2399 C   0  0  0  0  0  0  0  0  0  0  0  0
    7.0702  -12.0492   26.3973 S   0  0  0  0  0  0  0  0  0  0  0  0
    8.9675  -15.5397   27.0150 C   0  0  0  0  0  0  0  0  0  0  0  0
    9.7177  -15.4193   28.1975 O   0  0  0  0  0  0  0  0  0  0  0  0
    8.7174  -16.6821   26.5795 O   0  0  0  0  0  0  0  0  0  0  0  0
  2  3  1  0
  2  4  1  0
  2  1  1  6
  4 10  1  0
  5  4  2  0
  7  8  1  0
  7  6  1  6
  9  7  1  0
  9 10  1  6
 11 13  1  0
 11  9  1  0
 12 11  2  0
 14 13  1  0
 14 17  1  0
 14 15  1  1
 16 15  1  0
 17 18  1  0
 19 17  2  0
M  END
$$$$
