ATC.pdb
     RDKit          3D

 19 18  0  0  1  0  0  0  0  0999 V2000
    0.8820  -22.9452   24.3095 C   0  0  0  0  0  0  0  0  0  0  0  0
    1.5504  -22.5671   22.9912 C   0  0  2  0  0  0  0  0  0  0  0  0
    1.2719  -23.5400   21.9630 N   0  0  0  0  0  0  0  0  0  0  0  0
    3.0170  -22.4851   23.2112 C   0  0  0  0  0  0  0  0  0  0  0  0
    3.6021  -23.3405   23.9222 O   0  0  0  0  0  0  0  0  0  0  0  0
    5.4759  -22.4603   20.5986 C   0  0  0  0  0  0  0  0  0  0  0  0
    5.8175  -21.1855   21.3633 C   0  0  1  0  0  0  0  0  0  0  0  0
    5.2723  -20.0703   20.7318 O   0  0  0  0  0  0  0  0  0  0  0  0
    5.2146  -21.3161   22.7617 C   0  0  2  0  0  0  0  0  0  0  0  0
    3.7945  -21.4469   22.6297 N   0  0  0  0  0  0  0  0  0  0  0  0
    5.6270  -20.1343   23.5407 C   0  0  0  0  0  0  0  0  0  0  0  0
    4.9313  -19.1097   23.7435 O   0  0  0  0  0  0  0  0  0  0  0  0
    6.9218  -20.1332   24.1223 N   0  0  0  0  0  0  0  0  0  0  0  0
    7.4024  -19.0328   24.8749 C   0  0  1  0  0  0  0  0  0  0  0  0
    6.6137  -18.6959   26.0977 C   0  0  0  0  0  0  0  0  0  0  0  0
    7.4026  -17.2823   26.9135 S   0  0  0  0  0  0  0  0  0  0  0  0
    8.7960  -19.3213   25.2932 C   0  0  0  0  0  0  0  0  0  0  0  0
    9.5975  -18.3116   25.8530 O   0  0  0  0  0  0  0  0  0  0  0  0
    9.2815  -20.4628   25.1562 O   0  0  0  0  0  0  0  0  0  0  0  0
  2  3  1  0
  2  4  1  0
  2  1  1  1
  4 10  1  0
  5  4  2  0
  7  8  1  0
  7  6  1  6
  9  7  1  0
  9 10  1  6
 11 13  1  0
 11  9  1  0
 12 11  2  0
 14 13  1  0
 14 17  1  0
 14 15  1  1
 16 15  1  0
 17 18  1  0
 19 17  2  0
M  END
$$$$
