TWI.pdb
     RDKit          3D

 30 31  0  0  1  0  0  0  0  0999 V2000
   10.1592  -20.7142   22.6732 C   0  0  0  0  0  0  0  0  0  0  0  0
   11.0350  -20.1956   21.5552 C   0  0  1  0  0  0  0  0  0  0  0  0
   11.3504  -21.2594   20.7218 O   0  0  0  0  0  0  0  0  0  0  0  0
   10.3681  -19.0452   20.8082 C   0  0  2  0  0  0  0  0  0  0  0  0
   11.0638  -18.6911   19.6046 N   0  0  0  0  0  0  0  0  0  0  0  0
   10.2853  -17.8743   21.7448 C   0  0  0  0  0  0  0  0  0  0  0  0
   11.2840  -17.1571   21.8580 O   0  0  0  0  0  0  0  0  0  0  0  0
    9.1175  -17.5789   22.4820 N   0  0  0  0  0  0  0  0  0  0  0  0
    8.9739  -16.4638   23.4141 C   0  0  1  0  0  0  0  0  0  0  0  0
    7.7184  -15.7133   23.1802 C   0  0  0  0  0  0  0  0  0  0  0  0
    7.6265  -14.3622   23.7054 C   0  0  0  0  0  0  0  0  0  0  0  0
    8.1659  -13.2419   23.1096 C   0  0  0  0  0  0  0  0  0  0  0  0
    7.8550  -12.1762   23.8515 N   0  0  0  0  0  0  0  0  0  0  0  0
    7.1189  -12.5491   24.9350 C   0  0  0  0  0  0  0  0  0  0  0  0
    6.5850  -11.8115   25.9726 C   0  0  0  0  0  0  0  0  0  0  0  0
    5.8821  -12.4801   26.9563 C   0  0  0  0  0  0  0  0  0  0  0  0
    5.7242  -13.8543   26.8925 C   0  0  0  0  0  0  0  0  0  0  0  0
    6.2697  -14.5583   25.8426 C   0  0  0  0  0  0  0  0  0  0  0  0
    6.9878  -13.9149   24.8262 C   0  0  0  0  0  0  0  0  0  0  0  0
    9.4260  -16.7796   24.7547 C   0  0  0  0  0  0  0  0  0  0  0  0
    9.1399  -17.9131   25.3137 O   0  0  0  0  0  0  0  0  0  0  0  0
   10.0704  -12.6704   28.1527 C   0  0  0  0  0  0  0  0  0  0  0  0
   10.5689  -13.8052   27.2916 C   0  0  0  0  0  0  0  0  0  0  0  0
   10.0950  -15.1113   27.8856 C   0  0  2  0  0  0  0  0  0  0  0  0
   10.8057  -15.2814   29.1949 C   0  0  0  0  0  0  0  0  0  0  0  0
   10.5351  -16.2799   26.9663 C   0  0  2  0  0  0  0  0  0  0  0  0
   10.2146  -15.9473   25.6013 N   0  0  0  0  0  0  0  0  0  0  0  0
   10.0891  -17.5408   27.4894 C   0  0  0  0  0  0  0  0  0  0  0  0
   11.0498  -18.3754   28.0973 O   0  0  0  0  0  0  0  0  0  0  0  0
    8.9345  -17.9852   27.4670 O   0  0  0  0  0  0  0  0  0  0  0  0
  2  3  1  0
  2  1  1  1
  4  2  1  0
  4  5  1  6
  6  4  1  0
  6  8  1  0
  7  6  2  0
  9  8  1  0
 10 11  1  0
  9 10  1  1
 11 19  1  0
 12 11  2  0
 12 13  1  0
 13 14  1  0
 14 15  1  0
 15 16  2  0
 17 16  1  0
 18 17  2  0
 19 14  2  0
 19 18  1  0
 20  9  1  0
 21 20  2  0
 22 23  1  0
 23 24  1  0
 24 26  1  0
 24 25  1  1
 26 27  1  6
 26 28  1  0
 27 20  1  0
 28 29  1  0
 30 28  2  0
M  END
$$$$
