TWI.pdb
     RDKit          3D

 30 31  0  0  1  0  0  0  0  0999 V2000
   12.5805  -19.5108   19.7060 C   0  0  0  0  0  0  0  0  0  0  0  0
   12.0763  -18.6479   20.8406 C   0  0  1  0  0  0  0  0  0  0  0  0
   13.1101  -18.4806   21.7510 O   0  0  0  0  0  0  0  0  0  0  0  0
   11.5239  -17.3202   20.3324 C   0  0  2  0  0  0  0  0  0  0  0  0
   12.5062  -16.5460   19.6297 N   0  0  0  0  0  0  0  0  0  0  0  0
   10.9869  -16.5627   21.5126 C   0  0  0  0  0  0  0  0  0  0  0  0
   11.6926  -15.6703   21.9923 O   0  0  0  0  0  0  0  0  0  0  0  0
    9.7209  -16.8392   22.0739 N   0  0  0  0  0  0  0  0  0  0  0  0
    9.1254  -16.1179   23.1956 C   0  0  1  0  0  0  0  0  0  0  0  0
    7.6655  -15.9401   23.0187 C   0  0  0  0  0  0  0  0  0  0  0  0
    6.9213  -15.3157   24.0986 C   0  0  0  0  0  0  0  0  0  0  0  0
    6.1287  -15.9860   25.0060 C   0  0  0  0  0  0  0  0  0  0  0  0
    5.6325  -15.0988   25.8717 N   0  0  0  0  0  0  0  0  0  0  0  0
    6.0700  -13.8446   25.5710 C   0  0  0  0  0  0  0  0  0  0  0  0
    5.8205  -12.6244   26.1664 C   0  0  0  0  0  0  0  0  0  0  0  0
    6.4053  -11.4983   25.6200 C   0  0  0  0  0  0  0  0  0  0  0  0
    7.2183  -11.6033   24.5040 C   0  0  0  0  0  0  0  0  0  0  0  0
    7.4460  -12.8367   23.9362 C   0  0  0  0  0  0  0  0  0  0  0  0
    6.8712  -14.0007   24.4628 C   0  0  0  0  0  0  0  0  0  0  0  0
    9.6906  -16.4905   24.4774 C   0  0  0  0  0  0  0  0  0  0  0  0
   10.1089  -17.6955   24.7058 O   0  0  0  0  0  0  0  0  0  0  0  0
   10.5049  -12.5449   28.2760 C   0  0  0  0  0  0  0  0  0  0  0  0
   10.7768  -13.6938   27.3358 C   0  0  0  0  0  0  0  0  0  0  0  0
   10.1810  -14.9530   27.9212 C   0  0  2  0  0  0  0  0  0  0  0  0
   11.0138  -15.3198   29.1129 C   0  0  0  0  0  0  0  0  0  0  0  0
   10.3132  -16.1063   26.8932 C   0  0  2  0  0  0  0  0  0  0  0  0
    9.8713  -15.6369   25.6043 N   0  0  0  0  0  0  0  0  0  0  0  0
    9.7522  -17.3227   27.4110 C   0  0  0  0  0  0  0  0  0  0  0  0
   10.6422  -18.2891   27.9238 O   0  0  0  0  0  0  0  0  0  0  0  0
    8.5530  -17.6233   27.4594 O   0  0  0  0  0  0  0  0  0  0  0  0
  2  3  1  0
  2  1  1  6
  4  2  1  0
  4  5  1  1
  6  4  1  0
  6  8  1  0
  7  6  2  0
  9  8  1  0
 10 11  1  0
  9 10  1  1
 11 19  1  0
 12 11  2  0
 12 13  1  0
 13 14  1  0
 14 15  1  0
 15 16  2  0
 17 16  1  0
 18 17  2  0
 19 14  2  0
 19 18  1  0
 20  9  1  0
 21 20  2  0
 22 23  1  0
 23 24  1  0
 24 26  1  0
 24 25  1  1
 26 27  1  6
 26 28  1  0
 27 20  1  0
 28 29  1  0
 30 28  2  0
M  END
$$$$
