TWI.pdb
     RDKit          3D

 30 31  0  0  1  0  0  0  0  0999 V2000
   12.6639  -19.0602   21.6113 C   0  0  0  0  0  0  0  0  0  0  0  0
   13.0700  -17.9134   20.7135 C   0  0  1  0  0  0  0  0  0  0  0  0
   13.7725  -18.4337   19.6358 O   0  0  0  0  0  0  0  0  0  0  0  0
   11.8640  -17.0859   20.2809 C   0  0  2  0  0  0  0  0  0  0  0  0
   12.1965  -16.0990   19.2943 N   0  0  0  0  0  0  0  0  0  0  0  0
   11.2818  -16.4441   21.5074 C   0  0  0  0  0  0  0  0  0  0  0  0
   11.9347  -15.5492   22.0528 O   0  0  0  0  0  0  0  0  0  0  0  0
   10.0318  -16.8297   22.0396 N   0  0  0  0  0  0  0  0  0  0  0  0
    9.3791  -16.2027   23.1858 C   0  0  1  0  0  0  0  0  0  0  0  0
    7.9032  -16.2552   23.0713 C   0  0  0  0  0  0  0  0  0  0  0  0
    7.1484  -15.0805   23.4714 C   0  0  0  0  0  0  0  0  0  0  0  0
    6.0384  -14.5906   22.8164 C   0  0  0  0  0  0  0  0  0  0  0  0
    5.5879  -13.5259   23.4844 N   0  0  0  0  0  0  0  0  0  0  0  0
    6.3669  -13.2837   24.5749 C   0  0  0  0  0  0  0  0  0  0  0  0
    6.3000  -12.3028   25.5440 C   0  0  0  0  0  0  0  0  0  0  0  0
    7.2560  -12.3025   26.5413 C   0  0  0  0  0  0  0  0  0  0  0  0
    8.2506  -13.2657   26.5578 C   0  0  0  0  0  0  0  0  0  0  0  0
    8.2868  -14.2297   25.5755 C   0  0  0  0  0  0  0  0  0  0  0  0
    7.3341  -14.2628   24.5489 C   0  0  0  0  0  0  0  0  0  0  0  0
   10.0489  -16.4748   24.4423 C   0  0  0  0  0  0  0  0  0  0  0  0
   10.6974  -17.5799   24.6358 O   0  0  0  0  0  0  0  0  0  0  0  0
   11.1667  -14.0173   30.0759 C   0  0  0  0  0  0  0  0  0  0  0  0
   11.2761  -15.1794   29.1192 C   0  0  0  0  0  0  0  0  0  0  0  0
   10.6279  -14.7943   27.8096 C   0  0  2  0  0  0  0  0  0  0  0  0
    9.1870  -14.5008   28.1027 C   0  0  0  0  0  0  0  0  0  0  0  0
   10.6649  -16.0078   26.8451 C   0  0  2  0  0  0  0  0  0  0  0  0
   10.1016  -15.6154   25.5780 N   0  0  0  0  0  0  0  0  0  0  0  0
   10.1585  -17.1889   27.4861 C   0  0  0  0  0  0  0  0  0  0  0  0
    8.8171  -17.5463   27.2373 O   0  0  0  0  0  0  0  0  0  0  0  0
   10.7789  -17.9430   28.2460 O   0  0  0  0  0  0  0  0  0  0  0  0
  2  3  1  0
  2  1  1  1
  4  2  1  0
  4  5  1  6
  6  4  1  0
  6  8  1  0
  7  6  2  0
  9  8  1  0
 10 11  1  0
  9 10  1  1
 11 19  1  0
 12 11  2  0
 12 13  1  0
 13 14  1  0
 14 15  1  0
 15 16  2  0
 17 16  1  0
 18 17  2  0
 19 14  2  0
 19 18  1  0
 20  9  1  0
 21 20  2  0
 22 23  1  0
 23 24  1  0
 24 26  1  0
 24 25  1  1
 26 27  1  6
 26 28  1  0
 27 20  1  0
 28 29  1  0
 30 28  2  0
M  END
$$$$
