TWI.pdb
     RDKit          3D

 30 31  0  0  1  0  0  0  0  0999 V2000
   12.6456  -19.0740   22.3021 C   0  0  0  0  0  0  0  0  0  0  0  0
   13.0017  -17.9026   21.4149 C   0  0  1  0  0  0  0  0  0  0  0  0
   13.7834  -18.3722   20.3690 O   0  0  0  0  0  0  0  0  0  0  0  0
   11.7562  -17.1677   20.9300 C   0  0  2  0  0  0  0  0  0  0  0  0
   12.0379  -16.2444   19.8688 N   0  0  0  0  0  0  0  0  0  0  0  0
   11.1494  -16.4623   22.1086 C   0  0  0  0  0  0  0  0  0  0  0  0
   11.6648  -15.4003   22.4708 O   0  0  0  0  0  0  0  0  0  0  0  0
   10.0266  -16.9721   22.7970 N   0  0  0  0  0  0  0  0  0  0  0  0
    9.4165  -16.3610   23.9748 C   0  0  1  0  0  0  0  0  0  0  0  0
    7.9409  -16.3025   23.8585 C   0  0  0  0  0  0  0  0  0  0  0  0
    7.3234  -14.9979   23.6955 C   0  0  0  0  0  0  0  0  0  0  0  0
    6.8863  -14.4721   22.4982 C   0  0  0  0  0  0  0  0  0  0  0  0
    6.3435  -13.2752   22.7342 N   0  0  0  0  0  0  0  0  0  0  0  0
    6.4036  -12.9789   24.0621 C   0  0  0  0  0  0  0  0  0  0  0  0
    5.9855  -11.8692   24.7689 C   0  0  0  0  0  0  0  0  0  0  0  0
    6.1962  -11.8457   26.1340 C   0  0  0  0  0  0  0  0  0  0  0  0
    6.8120  -12.9131   26.7657 C   0  0  0  0  0  0  0  0  0  0  0  0
    7.2158  -14.0042   26.0296 C   0  0  0  0  0  0  0  0  0  0  0  0
    7.0181  -14.0644   24.6440 C   0  0  0  0  0  0  0  0  0  0  0  0
   10.0614  -16.7451   25.2149 C   0  0  0  0  0  0  0  0  0  0  0  0
   10.7703  -17.8264   25.3001 O   0  0  0  0  0  0  0  0  0  0  0  0
   11.8694  -13.9349   28.0047 C   0  0  0  0  0  0  0  0  0  0  0  0
   10.4197  -14.1357   28.3734 C   0  0  0  0  0  0  0  0  0  0  0  0
   10.2266  -15.5636   28.8285 C   0  0  2  0  0  0  0  0  0  0  0  0
   11.2013  -15.8048   29.9422 C   0  0  0  0  0  0  0  0  0  0  0  0
   10.6020  -16.5240   27.6705 C   0  0  2  0  0  0  0  0  0  0  0  0
   10.0247  -16.0287   26.4465 N   0  0  0  0  0  0  0  0  0  0  0  0
   10.3630  -17.8912   28.0393 C   0  0  0  0  0  0  0  0  0  0  0  0
    9.0570  -18.3968   27.8721 O   0  0  0  0  0  0  0  0  0  0  0  0
   11.1899  -18.6908   28.4950 O   0  0  0  0  0  0  0  0  0  0  0  0
  2  3  1  0
  2  1  1  1
  4  2  1  0
  4  5  1  6
  6  4  1  0
  6  8  1  0
  7  6  2  0
  9  8  1  0
 10 11  1  0
  9 10  1  1
 11 19  1  0
 12 11  2  0
 12 13  1  0
 13 14  1  0
 14 15  1  0
 15 16  2  0
 17 16  1  0
 18 17  2  0
 19 14  2  0
 19 18  1  0
 20  9  1  0
 21 20  2  0
 22 23  1  0
 23 24  1  0
 24 26  1  0
 24 25  1  1
 26 27  1  6
 26 28  1  0
 27 20  1  0
 28 29  1  0
 30 28  2  0
M  END
$$$$
