TWI.pdb
     RDKit          3D

 30 31  0  0  1  0  0  0  0  0999 V2000
    8.9767  -22.7721   23.6303 C   0  0  0  0  0  0  0  0  0  0  0  0
    9.1941  -21.2869   23.8118 C   0  0  1  0  0  0  0  0  0  0  0  0
   10.5055  -21.0867   24.2190 O   0  0  0  0  0  0  0  0  0  0  0  0
    8.8503  -20.5110   22.5445 C   0  0  2  0  0  0  0  0  0  0  0  0
    9.5546  -20.9952   21.3923 N   0  0  0  0  0  0  0  0  0  0  0  0
    9.1589  -19.0626   22.7931 C   0  0  0  0  0  0  0  0  0  0  0  0
   10.2885  -18.6575   22.5024 O   0  0  0  0  0  0  0  0  0  0  0  0
    8.2085  -18.1714   23.3379 N   0  0  0  0  0  0  0  0  0  0  0  0
    8.4623  -16.7701   23.6619 C   0  0  1  0  0  0  0  0  0  0  0  0
    7.2029  -15.9998   23.7836 C   0  0  0  0  0  0  0  0  0  0  0  0
    7.2962  -14.5521   23.8567 C   0  0  0  0  0  0  0  0  0  0  0  0
    7.8331  -13.7421   22.8786 C   0  0  0  0  0  0  0  0  0  0  0  0
    7.7184  -12.4711   23.2711 N   0  0  0  0  0  0  0  0  0  0  0  0
    7.1174  -12.4022   24.4912 C   0  0  0  0  0  0  0  0  0  0  0  0
    6.7987  -11.3234   25.2915 C   0  0  0  0  0  0  0  0  0  0  0  0
    6.1924  -11.5683   26.5084 C   0  0  0  0  0  0  0  0  0  0  0  0
    5.9169  -12.8662   26.9046 C   0  0  0  0  0  0  0  0  0  0  0  0
    6.2480  -13.9185   26.0809 C   0  0  0  0  0  0  0  0  0  0  0  0
    6.8627  -13.7093   24.8395 C   0  0  0  0  0  0  0  0  0  0  0  0
    9.5508  -16.5906   24.6022 C   0  0  0  0  0  0  0  0  0  0  0  0
   10.4152  -15.6359   24.4597 O   0  0  0  0  0  0  0  0  0  0  0  0
   10.6492  -13.4626   28.4624 C   0  0  0  0  0  0  0  0  0  0  0  0
   11.1805  -14.6357   27.6755 C   0  0  0  0  0  0  0  0  0  0  0  0
   10.0409  -15.5858   27.3893 C   0  0  2  0  0  0  0  0  0  0  0  0
    9.3659  -15.8684   28.6981 C   0  0  0  0  0  0  0  0  0  0  0  0
   10.6142  -16.9283   26.8664 C   0  0  2  0  0  0  0  0  0  0  0  0
    9.8098  -17.3809   25.7597 N   0  0  0  0  0  0  0  0  0  0  0  0
   10.8654  -17.8364   27.9501 C   0  0  0  0  0  0  0  0  0  0  0  0
   11.9990  -17.5992   28.7551 O   0  0  0  0  0  0  0  0  0  0  0  0
   10.1858  -18.8216   28.2635 O   0  0  0  0  0  0  0  0  0  0  0  0
  2  3  1  0
  2  1  1  6
  4  2  1  0
  4  5  1  6
  6  4  1  0
  6  8  1  0
  7  6  2  0
  9  8  1  0
 10 11  1  0
  9 10  1  1
 11 19  1  0
 12 11  2  0
 12 13  1  0
 13 14  1  0
 14 15  1  0
 15 16  2  0
 17 16  1  0
 18 17  2  0
 19 14  2  0
 19 18  1  0
 20  9  1  0
 21 20  2  0
 22 23  1  0
 23 24  1  0
 24 26  1  0
 24 25  1  1
 26 27  1  6
 26 28  1  0
 27 20  1  0
 28 29  1  0
 30 28  2  0
M  END
$$$$
