TWI.pdb
     RDKit          3D

 30 31  0  0  1  0  0  0  0  0999 V2000
   11.8954  -19.6045   19.4815 C   0  0  0  0  0  0  0  0  0  0  0  0
   11.5015  -18.6767   20.6085 C   0  0  1  0  0  0  0  0  0  0  0  0
   12.5080  -18.7021   21.5635 O   0  0  0  0  0  0  0  0  0  0  0  0
   11.2131  -17.2679   20.1002 C   0  0  2  0  0  0  0  0  0  0  0  0
   12.3392  -16.6799   19.4337 N   0  0  0  0  0  0  0  0  0  0  0  0
   10.7875  -16.4329   21.2735 C   0  0  0  0  0  0  0  0  0  0  0  0
   11.6503  -15.7550   21.8397 O   0  0  0  0  0  0  0  0  0  0  0  0
    9.4528  -16.4035   21.7341 N   0  0  0  0  0  0  0  0  0  0  0  0
    9.0026  -15.7474   22.9588 C   0  0  1  0  0  0  0  0  0  0  0  0
    7.5297  -15.8099   23.1033 C   0  0  0  0  0  0  0  0  0  0  0  0
    6.9293  -15.1336   24.2400 C   0  0  0  0  0  0  0  0  0  0  0  0
    6.3593  -15.7632   25.3262 C   0  0  0  0  0  0  0  0  0  0  0  0
    5.9446  -14.8304   26.1869 N   0  0  0  0  0  0  0  0  0  0  0  0
    6.2200  -13.5854   25.7086 C   0  0  0  0  0  0  0  0  0  0  0  0
    5.9745  -12.3320   26.2326 C   0  0  0  0  0  0  0  0  0  0  0  0
    6.3638  -11.2285   25.4983 C   0  0  0  0  0  0  0  0  0  0  0  0
    6.9828  -11.3879   24.2699 C   0  0  0  0  0  0  0  0  0  0  0  0
    7.2125  -12.6531   23.7779 C   0  0  0  0  0  0  0  0  0  0  0  0
    6.8329  -13.7956   24.4942 C   0  0  0  0  0  0  0  0  0  0  0  0
    9.8825  -15.9808   24.0869 C   0  0  0  0  0  0  0  0  0  0  0  0
   11.0921  -15.5166   24.1066 O   0  0  0  0  0  0  0  0  0  0  0  0
   10.6396  -13.8701   29.1110 C   0  0  0  0  0  0  0  0  0  0  0  0
   11.0341  -15.1076   28.3424 C   0  0  0  0  0  0  0  0  0  0  0  0
   10.1485  -15.2266   27.1238 C   0  0  2  0  0  0  0  0  0  0  0  0
    8.7298  -15.1524   27.6034 C   0  0  0  0  0  0  0  0  0  0  0  0
   10.3466  -16.6246   26.4830 C   0  0  2  0  0  0  0  0  0  0  0  0
    9.5642  -16.7005   25.2752 N   0  0  0  0  0  0  0  0  0  0  0  0
   10.2006  -17.6641   27.4630 C   0  0  0  0  0  0  0  0  0  0  0  0
   11.2365  -17.8264   28.4062 O   0  0  0  0  0  0  0  0  0  0  0  0
    9.2497  -18.4476   27.5755 O   0  0  0  0  0  0  0  0  0  0  0  0
  2  3  1  0
  2  1  1  6
  4  2  1  0
  4  5  1  1
  6  4  1  0
  6  8  1  0
  7  6  2  0
  9  8  1  0
 10 11  1  0
  9 10  1  1
 11 19  1  0
 12 11  2  0
 12 13  1  0
 13 14  1  0
 14 15  1  0
 15 16  2  0
 17 16  1  0
 18 17  2  0
 19 14  2  0
 19 18  1  0
 20  9  1  0
 21 20  2  0
 22 23  1  0
 23 24  1  0
 24 26  1  0
 24 25  1  1
 26 27  1  6
 26 28  1  0
 27 20  1  0
 28 29  1  0
 30 28  2  0
M  END
$$$$
