TWI.pdb
     RDKit          3D

 30 31  0  0  1  0  0  0  0  0999 V2000
   12.5021  -19.4576   19.5915 C   0  0  0  0  0  0  0  0  0  0  0  0
   12.0404  -18.5623   20.7191 C   0  0  1  0  0  0  0  0  0  0  0  0
   13.1352  -18.2766   21.5225 O   0  0  0  0  0  0  0  0  0  0  0  0
   11.3575  -17.3043   20.1924 C   0  0  2  0  0  0  0  0  0  0  0  0
   12.2200  -16.5140   19.3621 N   0  0  0  0  0  0  0  0  0  0  0  0
   10.8762  -16.5123   21.3740 C   0  0  0  0  0  0  0  0  0  0  0  0
   11.5484  -15.5380   21.7252 O   0  0  0  0  0  0  0  0  0  0  0  0
    9.6978  -16.8467   22.0769 N   0  0  0  0  0  0  0  0  0  0  0  0
    9.2151  -16.1665   23.2759 C   0  0  1  0  0  0  0  0  0  0  0  0
    7.7598  -15.8995   23.2050 C   0  0  0  0  0  0  0  0  0  0  0  0
    7.1407  -15.2081   24.3224 C   0  0  0  0  0  0  0  0  0  0  0  0
    6.5178  -15.8227   25.3879 C   0  0  0  0  0  0  0  0  0  0  0  0
    6.1005  -14.8796   26.2360 N   0  0  0  0  0  0  0  0  0  0  0  0
    6.4257  -13.6422   25.7693 C   0  0  0  0  0  0  0  0  0  0  0  0
    6.1975  -12.3831   26.2872 C   0  0  0  0  0  0  0  0  0  0  0  0
    6.6411  -11.2899   25.5682 C   0  0  0  0  0  0  0  0  0  0  0  0
    7.2960  -11.4652   24.3608 C   0  0  0  0  0  0  0  0  0  0  0  0
    7.5071  -12.7358   23.8744 C   0  0  0  0  0  0  0  0  0  0  0  0
    7.0727  -13.8681   24.5756 C   0  0  0  0  0  0  0  0  0  0  0  0
    9.8357  -16.6492   24.4938 C   0  0  0  0  0  0  0  0  0  0  0  0
   10.2581  -17.8697   24.5980 O   0  0  0  0  0  0  0  0  0  0  0  0
    9.5607  -14.1185   29.6597 C   0  0  0  0  0  0  0  0  0  0  0  0
    9.4554  -15.1559   28.5686 C   0  0  0  0  0  0  0  0  0  0  0  0
   10.8138  -15.3301   27.9301 C   0  0  2  0  0  0  0  0  0  0  0  0
   11.1396  -14.0428   27.2336 C   0  0  0  0  0  0  0  0  0  0  0  0
   10.7300  -16.4339   26.8443 C   0  0  2  0  0  0  0  0  0  0  0  0
   10.0708  -15.8964   25.6810 N   0  0  0  0  0  0  0  0  0  0  0  0
   10.2458  -17.6660   27.4009 C   0  0  0  0  0  0  0  0  0  0  0  0
   11.0695  -18.3343   28.3302 O   0  0  0  0  0  0  0  0  0  0  0  0
    9.1662  -18.2171   27.1525 O   0  0  0  0  0  0  0  0  0  0  0  0
  2  3  1  0
  2  1  1  6
  4  2  1  0
  4  5  1  1
  6  4  1  0
  6  8  1  0
  7  6  2  0
  9  8  1  0
 10 11  1  0
  9 10  1  1
 11 19  1  0
 12 11  2  0
 12 13  1  0
 13 14  1  0
 14 15  1  0
 15 16  2  0
 17 16  1  0
 18 17  2  0
 19 14  2  0
 19 18  1  0
 20  9  1  0
 21 20  2  0
 22 23  1  0
 23 24  1  0
 24 26  1  0
 24 25  1  6
 26 27  1  6
 26 28  1  0
 27 20  1  0
 28 29  1  0
 30 28  2  0
M  END
$$$$
