TWI.pdb
     RDKit          3D

 30 31  0  0  1  0  0  0  0  0999 V2000
   12.4317  -19.7600   19.7165 C   0  0  0  0  0  0  0  0  0  0  0  0
   12.0421  -18.8181   20.8333 C   0  0  1  0  0  0  0  0  0  0  0  0
   13.2003  -18.4038   21.4755 O   0  0  0  0  0  0  0  0  0  0  0  0
   11.2101  -17.6491   20.3160 C   0  0  2  0  0  0  0  0  0  0  0  0
   11.9116  -16.8583   19.3463 N   0  0  0  0  0  0  0  0  0  0  0  0
   10.8037  -16.8149   21.4967 C   0  0  0  0  0  0  0  0  0  0  0  0
   11.4039  -15.7521   21.6835 O   0  0  0  0  0  0  0  0  0  0  0  0
    9.7728  -17.2071   22.3786 N   0  0  0  0  0  0  0  0  0  0  0  0
    9.2946  -16.4203   23.5123 C   0  0  1  0  0  0  0  0  0  0  0  0
    7.8418  -16.1476   23.4152 C   0  0  0  0  0  0  0  0  0  0  0  0
    7.3959  -14.7748   23.5772 C   0  0  0  0  0  0  0  0  0  0  0  0
    7.2740  -13.8555   22.5569 C   0  0  0  0  0  0  0  0  0  0  0  0
    6.8058  -12.7145   23.0684 N   0  0  0  0  0  0  0  0  0  0  0  0
    6.6088  -12.8400   24.4101 C   0  0  0  0  0  0  0  0  0  0  0  0
    6.1537  -11.9405   25.3533 C   0  0  0  0  0  0  0  0  0  0  0  0
    6.0701  -12.3573   26.6678 C   0  0  0  0  0  0  0  0  0  0  0  0
    6.4364  -13.6460   27.0181 C   0  0  0  0  0  0  0  0  0  0  0  0
    6.8855  -14.5170   26.0511 C   0  0  0  0  0  0  0  0  0  0  0  0
    6.9828  -14.1307   24.7080 C   0  0  0  0  0  0  0  0  0  0  0  0
    9.9090  -16.7999   24.7692 C   0  0  0  0  0  0  0  0  0  0  0  0
   10.4445  -17.9685   24.9328 O   0  0  0  0  0  0  0  0  0  0  0  0
   10.5749  -12.9882   28.7716 C   0  0  0  0  0  0  0  0  0  0  0  0
   10.8839  -14.0677   27.7632 C   0  0  0  0  0  0  0  0  0  0  0  0
   10.3375  -15.3809   28.2733 C   0  0  2  0  0  0  0  0  0  0  0  0
   11.1670  -15.7699   29.4604 C   0  0  0  0  0  0  0  0  0  0  0  0
   10.5396  -16.4730   27.1913 C   0  0  2  0  0  0  0  0  0  0  0  0
   10.0203  -15.9901   25.9368 N   0  0  0  0  0  0  0  0  0  0  0  0
   10.1029  -17.7553   27.6680 C   0  0  0  0  0  0  0  0  0  0  0  0
   11.0708  -18.6068   28.2400 O   0  0  0  0  0  0  0  0  0  0  0  0
    8.9508  -18.2052   27.6334 O   0  0  0  0  0  0  0  0  0  0  0  0
  2  3  1  0
  2  1  1  6
  4  2  1  0
  4  5  1  6
  6  4  1  0
  6  8  1  0
  7  6  2  0
  9  8  1  0
 10 11  1  0
  9 10  1  1
 11 19  1  0
 12 11  2  0
 12 13  1  0
 13 14  1  0
 14 15  1  0
 15 16  2  0
 17 16  1  0
 18 17  2  0
 19 14  2  0
 19 18  1  0
 20  9  1  0
 21 20  2  0
 22 23  1  0
 23 24  1  0
 24 26  1  0
 24 25  1  1
 26 27  1  6
 26 28  1  0
 27 20  1  0
 28 29  1  0
 30 28  2  0
M  END
$$$$
