TWI.pdb
     RDKit          3D

 30 31  0  0  1  0  0  0  0  0999 V2000
    9.7773  -22.5486   22.8708 C   0  0  0  0  0  0  0  0  0  0  0  0
    9.8969  -21.0909   23.2537 C   0  0  1  0  0  0  0  0  0  0  0  0
   11.0957  -20.9168   23.9307 O   0  0  0  0  0  0  0  0  0  0  0  0
    9.7749  -20.1797   22.0367 C   0  0  2  0  0  0  0  0  0  0  0  0
   10.7404  -20.4837   21.0202 N   0  0  0  0  0  0  0  0  0  0  0  0
    9.9191  -18.7609   22.5071 C   0  0  0  0  0  0  0  0  0  0  0  0
   11.0269  -18.2276   22.3940 O   0  0  0  0  0  0  0  0  0  0  0  0
    8.8411  -18.0369   23.0623 N   0  0  0  0  0  0  0  0  0  0  0  0
    8.9263  -16.6762   23.5862 C   0  0  1  0  0  0  0  0  0  0  0  0
    7.6167  -15.9860   23.5317 C   0  0  0  0  0  0  0  0  0  0  0  0
    7.6002  -14.5449   23.7129 C   0  0  0  0  0  0  0  0  0  0  0  0
    8.1035  -13.6274   22.8151 C   0  0  0  0  0  0  0  0  0  0  0  0
    7.8835  -12.4009   23.2947 N   0  0  0  0  0  0  0  0  0  0  0  0
    7.2443  -12.4670   24.4954 C   0  0  0  0  0  0  0  0  0  0  0  0
    6.8235  -11.4769   25.3605 C   0  0  0  0  0  0  0  0  0  0  0  0
    6.2024  -11.8552   26.5351 C   0  0  0  0  0  0  0  0  0  0  0  0
    6.0126  -13.1955   26.8263 C   0  0  0  0  0  0  0  0  0  0  0  0
    6.4445  -14.1567   25.9401 C   0  0  0  0  0  0  0  0  0  0  0  0
    7.0773  -13.8114   24.7389 C   0  0  0  0  0  0  0  0  0  0  0  0
    9.7909  -16.5645   24.7443 C   0  0  0  0  0  0  0  0  0  0  0  0
   11.0101  -16.1386   24.6376 O   0  0  0  0  0  0  0  0  0  0  0  0
    9.2885  -13.0622   28.0804 C   0  0  0  0  0  0  0  0  0  0  0  0
    9.8467  -14.1937   27.2523 C   0  0  0  0  0  0  0  0  0  0  0  0
    9.7659  -15.4708   28.0559 C   0  0  2  0  0  0  0  0  0  0  0  0
   10.6707  -15.3024   29.2397 C   0  0  0  0  0  0  0  0  0  0  0  0
   10.3263  -16.6430   27.2097 C   0  0  2  0  0  0  0  0  0  0  0  0
    9.4468  -16.8753   26.0920 N   0  0  0  0  0  0  0  0  0  0  0  0
   10.6839  -17.7547   28.0455 C   0  0  0  0  0  0  0  0  0  0  0  0
   11.8381  -17.6288   28.8461 O   0  0  0  0  0  0  0  0  0  0  0  0
   10.0812  -18.8308   28.1446 O   0  0  0  0  0  0  0  0  0  0  0  0
  2  3  1  0
  2  1  1  6
  4  2  1  0
  4  5  1  6
  6  4  1  0
  6  8  1  0
  7  6  2  0
  9  8  1  0
 10 11  1  0
  9 10  1  1
 11 19  1  0
 12 11  2  0
 12 13  1  0
 13 14  1  0
 14 15  1  0
 15 16  2  0
 17 16  1  0
 18 17  2  0
 19 14  2  0
 19 18  1  0
 20  9  1  0
 21 20  2  0
 22 23  1  0
 23 24  1  0
 24 26  1  0
 24 25  1  1
 26 27  1  6
 26 28  1  0
 27 20  1  0
 28 29  1  0
 30 28  2  0
M  END
$$$$
