TWI.pdb
     RDKit          3D

 30 31  0  0  1  0  0  0  0  0999 V2000
   13.0273  -16.4159   19.9913 C   0  0  0  0  0  0  0  0  0  0  0  0
   11.7801  -17.2057   19.6645 C   0  0  1  0  0  0  0  0  0  0  0  0
   12.0028  -17.8995   18.4835 O   0  0  0  0  0  0  0  0  0  0  0  0
   11.3800  -18.1232   20.8153 C   0  0  2  0  0  0  0  0  0  0  0  0
   10.3059  -19.0085   20.4680 N   0  0  0  0  0  0  0  0  0  0  0  0
   11.0067  -17.2589   21.9852 C   0  0  0  0  0  0  0  0  0  0  0  0
   11.8687  -16.4989   22.4366 O   0  0  0  0  0  0  0  0  0  0  0  0
    9.7207  -17.2924   22.5679 N   0  0  0  0  0  0  0  0  0  0  0  0
    9.2794  -16.4477   23.6746 C   0  0  1  0  0  0  0  0  0  0  0  0
    7.8554  -16.0638   23.5357 C   0  0  0  0  0  0  0  0  0  0  0  0
    7.5263  -14.6495   23.5738 C   0  0  0  0  0  0  0  0  0  0  0  0
    7.6599  -13.7759   22.5154 C   0  0  0  0  0  0  0  0  0  0  0  0
    7.2302  -12.5725   22.9027 N   0  0  0  0  0  0  0  0  0  0  0  0
    6.8098  -12.6113   24.1974 C   0  0  0  0  0  0  0  0  0  0  0  0
    6.3002  -11.6274   25.0208 C   0  0  0  0  0  0  0  0  0  0  0  0
    5.9669  -11.9676   26.3177 C   0  0  0  0  0  0  0  0  0  0  0  0
    6.1443  -13.2647   26.7686 C   0  0  0  0  0  0  0  0  0  0  0  0
    6.6546  -14.2211   25.9198 C   0  0  0  0  0  0  0  0  0  0  0  0
    7.0029  -13.9139   24.5980 C   0  0  0  0  0  0  0  0  0  0  0  0
    9.8318  -16.8489   24.9533 C   0  0  0  0  0  0  0  0  0  0  0  0
   10.1087  -18.0885   25.2097 O   0  0  0  0  0  0  0  0  0  0  0  0
   10.6241  -12.9578   28.8475 C   0  0  0  0  0  0  0  0  0  0  0  0
   10.9299  -14.0576   27.8603 C   0  0  0  0  0  0  0  0  0  0  0  0
   10.3657  -15.3562   28.3884 C   0  0  2  0  0  0  0  0  0  0  0  0
   11.1705  -15.7242   29.5989 C   0  0  0  0  0  0  0  0  0  0  0  0
   10.5808  -16.4727   27.3342 C   0  0  2  0  0  0  0  0  0  0  0  0
   10.1453  -15.9913   26.0476 N   0  0  0  0  0  0  0  0  0  0  0  0
   10.0712  -17.7296   27.8061 C   0  0  0  0  0  0  0  0  0  0  0  0
    8.6764  -17.9325   27.7555 O   0  0  0  0  0  0  0  0  0  0  0  0
   10.7309  -18.6729   28.2600 O   0  0  0  0  0  0  0  0  0  0  0  0
  2  3  1  0
  2  1  1  1
  4  2  1  0
  4  5  1  6
  6  4  1  0
  6  8  1  0
  7  6  2  0
  9  8  1  0
 10 11  1  0
  9 10  1  1
 11 19  1  0
 12 11  2  0
 12 13  1  0
 13 14  1  0
 14 15  1  0
 15 16  2  0
 17 16  1  0
 18 17  2  0
 19 14  2  0
 19 18  1  0
 20  9  1  0
 21 20  2  0
 22 23  1  0
 23 24  1  0
 24 26  1  0
 24 25  1  1
 26 27  1  6
 26 28  1  0
 27 20  1  0
 28 29  1  0
 30 28  2  0
M  END
$$$$
