TWI.pdb
     RDKit          3D

 30 31  0  0  1  0  0  0  0  0999 V2000
   12.3180  -19.3068   19.4677 C   0  0  0  0  0  0  0  0  0  0  0  0
   11.8839  -18.4543   20.6386 C   0  0  1  0  0  0  0  0  0  0  0  0
   12.9460  -18.3638   21.5270 O   0  0  0  0  0  0  0  0  0  0  0  0
   11.3850  -17.0871   20.1821 C   0  0  2  0  0  0  0  0  0  0  0  0
   12.3907  -16.3358   19.4879 N   0  0  0  0  0  0  0  0  0  0  0  0
   10.9015  -16.3448   21.3947 C   0  0  0  0  0  0  0  0  0  0  0  0
   11.6651  -15.5203   21.9062 O   0  0  0  0  0  0  0  0  0  0  0  0
    9.6217  -16.5610   21.9511 N   0  0  0  0  0  0  0  0  0  0  0  0
    9.1155  -15.9225   23.1632 C   0  0  1  0  0  0  0  0  0  0  0  0
    7.6548  -15.6875   23.0887 C   0  0  0  0  0  0  0  0  0  0  0  0
    7.0084  -15.0613   24.2288 C   0  0  0  0  0  0  0  0  0  0  0  0
    6.2806  -15.7276   25.1918 C   0  0  0  0  0  0  0  0  0  0  0  0
    5.8683  -14.8404   26.1005 N   0  0  0  0  0  0  0  0  0  0  0  0
    6.2992  -13.5903   25.7748 C   0  0  0  0  0  0  0  0  0  0  0  0
    6.1163  -12.3715   26.3967 C   0  0  0  0  0  0  0  0  0  0  0  0
    6.6727  -11.2495   25.8135 C   0  0  0  0  0  0  0  0  0  0  0  0
    7.3926  -11.3570   24.6355 C   0  0  0  0  0  0  0  0  0  0  0  0
    7.5558  -12.5889   24.0426 C   0  0  0  0  0  0  0  0  0  0  0  0
    7.0073  -13.7488   24.6051 C   0  0  0  0  0  0  0  0  0  0  0  0
    9.7391  -16.4211   24.3730 C   0  0  0  0  0  0  0  0  0  0  0  0
   10.3120  -17.5828   24.4075 O   0  0  0  0  0  0  0  0  0  0  0  0
    9.5485  -13.2637   28.9243 C   0  0  0  0  0  0  0  0  0  0  0  0
   10.1064  -14.0216   27.7445 C   0  0  0  0  0  0  0  0  0  0  0  0
   10.0339  -15.5020   28.0388 C   0  0  2  0  0  0  0  0  0  0  0  0
   11.0321  -15.7835   29.1217 C   0  0  0  0  0  0  0  0  0  0  0  0
   10.4793  -16.2948   26.7829 C   0  0  2  0  0  0  0  0  0  0  0  0
    9.8214  -15.7446   25.6248 N   0  0  0  0  0  0  0  0  0  0  0  0
   10.3965  -17.7099   27.0128 C   0  0  0  0  0  0  0  0  0  0  0  0
   11.5888  -18.3940   27.3284 O   0  0  0  0  0  0  0  0  0  0  0  0
    9.3772  -18.4096   26.9651 O   0  0  0  0  0  0  0  0  0  0  0  0
  2  3  1  0
  2  1  1  6
  4  2  1  0
  4  5  1  1
  6  4  1  0
  6  8  1  0
  7  6  2  0
  9  8  1  0
 10 11  1  0
  9 10  1  1
 11 19  1  0
 12 11  2  0
 12 13  1  0
 13 14  1  0
 14 15  1  0
 15 16  2  0
 17 16  1  0
 18 17  2  0
 19 14  2  0
 19 18  1  0
 20  9  1  0
 21 20  2  0
 22 23  1  0
 23 24  1  0
 24 26  1  0
 24 25  1  1
 26 27  1  6
 26 28  1  0
 27 20  1  0
 28 29  1  0
 30 28  2  0
M  END
$$$$
