IPR.pdb
     RDKit          3D

 27 27  0  0  1  0  0  0  0  0999 V2000
    7.8270  -15.2648   17.4159 C   0  0  0  0  0  0  0  0  0  0  0  0
    7.6920  -14.0812   18.2953 C   0  0  0  0  0  0  0  0  0  0  0  0
    8.0888  -14.3763   19.7118 C   0  0  2  0  0  0  0  0  0  0  0  0
    7.0997  -15.3994   20.3072 C   0  0  0  0  0  0  0  0  0  0  0  0
    7.9934  -13.1299   20.5572 C   0  0  2  0  0  0  0  0  0  0  0  0
    8.5783  -12.0194   19.8989 N   0  0  0  0  0  0  0  0  0  0  0  0
    8.4723  -13.3560   21.9436 C   0  0  0  0  0  0  0  0  0  0  0  0
    9.7529  -13.1831   22.0636 O   0  0  0  0  0  0  0  0  0  0  0  0
    7.6986  -13.7127   23.0309 N   0  0  0  0  0  0  0  0  0  0  0  0
    6.3317  -14.0351   23.1856 C   0  0  0  0  0  0  0  0  0  0  0  0
    5.9535  -13.0617   24.3198 C   0  0  0  0  0  0  0  0  0  0  0  0
    7.1872  -13.1572   25.1908 C   0  0  0  0  0  0  0  0  0  0  0  0
    8.2452  -13.8701   24.3861 C   0  0  1  0  0  0  0  0  0  0  0  0
    8.4298  -15.2834   24.7610 C   0  0  0  0  0  0  0  0  0  0  0  0
    7.5221  -16.1058   24.5807 O   0  0  0  0  0  0  0  0  0  0  0  0
   15.1675  -14.8370   22.3269 N   0  0  0  0  0  0  0  0  0  0  0  0
   14.0939  -15.0603   21.4398 C   0  0  0  0  0  0  0  0  0  0  0  0
   13.9206  -14.2706   20.4445 N   0  0  0  0  0  0  0  0  0  0  0  0
   13.2306  -16.1606   21.6751 N   0  0  0  0  0  0  0  0  0  0  0  0
   13.0368  -16.6167   23.0158 C   0  0  0  0  0  0  0  0  0  0  0  0
   11.5592  -16.7694   23.3771 C   0  0  0  0  0  0  0  0  0  0  0  0
   11.4820  -17.1710   24.8148 C   0  0  0  0  0  0  0  0  0  0  0  0
   10.0838  -17.1010   25.3734 C   0  0  2  0  0  0  0  0  0  0  0  0
    9.6364  -15.7462   25.3334 N   0  0  0  0  0  0  0  0  0  0  0  0
   10.1516  -17.5184   26.8146 C   0  0  0  0  0  0  0  0  0  0  0  0
   10.3685  -18.8297   27.1806 O   0  0  0  0  0  0  0  0  0  0  0  0
   10.0094  -16.6648   27.7271 O   0  0  0  0  0  0  0  0  0  0  0  0
  1  2  1  0
  3  2  1  0
  3  5  1  0
  3  4  1  1
  5  7  1  0
  5  6  1  6
  7  8  2  0
  9 13  1  0
  9  7  1  0
 10  9  1  0
 11 12  1  0
 11 10  1  0
 12 13  1  0
 13 14  1  1
 14 15  2  0
 16 17  1  0
 17 19  1  0
 17 18  2  0
 19 20  1  0
 20 21  1  0
 21 22  1  0
 23 22  1  1
 23 25  1  0
 24 23  1  0
 24 14  1  0
 25 27  2  0
 25 26  1  0
M  END
$$$$
