IPR.pdb
     RDKit          3D

 27 27  0  0  1  0  0  0  0  0999 V2000
    6.4948  -20.4867   19.9535 C   0  0  0  0  0  0  0  0  0  0  0  0
    7.1395  -19.2816   19.3837 C   0  0  0  0  0  0  0  0  0  0  0  0
    7.5084  -18.2807   20.4388 C   0  0  2  0  0  0  0  0  0  0  0  0
    6.2192  -17.6542   21.0089 C   0  0  0  0  0  0  0  0  0  0  0  0
    8.3158  -17.1553   19.8395 C   0  0  2  0  0  0  0  0  0  0  0  0
    9.3720  -17.6547   19.0372 N   0  0  0  0  0  0  0  0  0  0  0  0
    8.7250  -16.1562   20.8578 C   0  0  0  0  0  0  0  0  0  0  0  0
    9.8443  -16.4643   21.4376 O   0  0  0  0  0  0  0  0  0  0  0  0
    8.0400  -15.0068   21.2008 N   0  0  0  0  0  0  0  0  0  0  0  0
    6.7702  -14.4934   20.8539 C   0  0  0  0  0  0  0  0  0  0  0  0
    7.1727  -13.0848   20.3736 C   0  0  0  0  0  0  0  0  0  0  0  0
    8.2325  -12.7352   21.3956 C   0  0  0  0  0  0  0  0  0  0  0  0
    8.5731  -14.0051   22.1349 C   0  0  1  0  0  0  0  0  0  0  0  0
    7.9637  -14.0988   23.4735 C   0  0  0  0  0  0  0  0  0  0  0  0
    6.7533  -14.3268   23.5991 O   0  0  0  0  0  0  0  0  0  0  0  0
   12.0662  -18.6429   28.9709 N   0  0  0  0  0  0  0  0  0  0  0  0
   11.8761  -18.8637   27.5909 C   0  0  0  0  0  0  0  0  0  0  0  0
   12.6536  -19.6694   26.9659 N   0  0  0  0  0  0  0  0  0  0  0  0
   10.8221  -18.1839   26.9289 N   0  0  0  0  0  0  0  0  0  0  0  0
   10.5849  -16.8076   27.2327 C   0  0  0  0  0  0  0  0  0  0  0  0
    9.5383  -16.1748   26.3154 C   0  0  0  0  0  0  0  0  0  0  0  0
    9.2772  -14.7892   26.8115 C   0  0  0  0  0  0  0  0  0  0  0  0
    8.2523  -14.0507   25.9892 C   0  0  2  0  0  0  0  0  0  0  0  0
    8.7303  -13.9339   24.6494 N   0  0  0  0  0  0  0  0  0  0  0  0
    8.1326  -12.6646   26.5550 C   0  0  0  0  0  0  0  0  0  0  0  0
    7.3633  -12.3992   27.6678 O   0  0  0  0  0  0  0  0  0  0  0  0
    8.7421  -11.7065   26.0146 O   0  0  0  0  0  0  0  0  0  0  0  0
  1  2  1  0
  3  2  1  0
  3  5  1  0
  3  4  1  6
  5  7  1  0
  5  6  1  1
  7  8  2  0
  9 13  1  0
  9  7  1  0
 10  9  1  0
 11 12  1  0
 11 10  1  0
 12 13  1  0
 13 14  1  1
 14 15  2  0
 16 17  1  0
 17 19  1  0
 17 18  2  0
 19 20  1  0
 20 21  1  0
 21 22  1  0
 23 22  1  1
 23 25  1  0
 24 23  1  0
 24 14  1  0
 25 27  2  0
 25 26  1  0
M  END
$$$$
