IPR.pdb
     RDKit          3D

 27 27  0  0  1  0  0  0  0  0999 V2000
    7.1326  -11.5738   27.2215 C   0  0  0  0  0  0  0  0  0  0  0  0
    6.3053  -12.6221   26.5815 C   0  0  0  0  0  0  0  0  0  0  0  0
    7.1246  -13.5661   25.7518 C   0  0  2  0  0  0  0  0  0  0  0  0
    7.8379  -12.7682   24.6408 C   0  0  0  0  0  0  0  0  0  0  0  0
    6.2352  -14.5744   25.0664 C   0  0  2  0  0  0  0  0  0  0  0  0
    5.4368  -15.2739   26.0056 N   0  0  0  0  0  0  0  0  0  0  0  0
    6.9902  -15.4376   24.1244 C   0  0  0  0  0  0  0  0  0  0  0  0
    6.8844  -16.6992   24.4095 O   0  0  0  0  0  0  0  0  0  0  0  0
    7.7417  -15.0135   23.0457 N   0  0  0  0  0  0  0  0  0  0  0  0
    8.0932  -13.7384   22.5489 C   0  0  0  0  0  0  0  0  0  0  0  0
    7.6415  -13.8885   21.0824 C   0  0  0  0  0  0  0  0  0  0  0  0
    8.0764  -15.3104   20.8019 C   0  0  0  0  0  0  0  0  0  0  0  0
    8.4207  -15.9399   22.1287 C   0  0  1  0  0  0  0  0  0  0  0  0
    9.8685  -16.0330   22.3880 C   0  0  0  0  0  0  0  0  0  0  0  0
   10.6279  -15.1143   22.0531 O   0  0  0  0  0  0  0  0  0  0  0  0
   10.5868  -21.1656   28.5432 N   0  0  0  0  0  0  0  0  0  0  0  0
   11.5911  -20.1788   28.6259 C   0  0  0  0  0  0  0  0  0  0  0  0
   12.5294  -20.3017   29.4913 N   0  0  0  0  0  0  0  0  0  0  0  0
   11.5347  -19.0707   27.7426 N   0  0  0  0  0  0  0  0  0  0  0  0
   10.4039  -18.9271   26.8803 C   0  0  0  0  0  0  0  0  0  0  0  0
   10.5589  -17.7681   25.8954 C   0  0  0  0  0  0  0  0  0  0  0  0
   11.5631  -18.1771   24.8666 C   0  0  0  0  0  0  0  0  0  0  0  0
   11.6759  -17.1955   23.7283 C   0  0  2  0  0  0  0  0  0  0  0  0
   10.4363  -17.1617   23.0214 N   0  0  0  0  0  0  0  0  0  0  0  0
   12.7255  -17.7136   22.7872 C   0  0  0  0  0  0  0  0  0  0  0  0
   12.4067  -18.1753   21.5280 O   0  0  0  0  0  0  0  0  0  0  0  0
   13.9332  -17.7355   23.1376 O   0  0  0  0  0  0  0  0  0  0  0  0
  1  2  1  0
  3  2  1  0
  3  5  1  0
  3  4  1  6
  5  7  1  0
  5  6  1  1
  7  8  2  0
  9 13  1  0
  9  7  1  0
 10  9  1  0
 11 12  1  0
 11 10  1  0
 12 13  1  0
 13 14  1  1
 14 15  2  0
 16 17  1  0
 17 19  1  0
 17 18  2  0
 19 20  1  0
 20 21  1  0
 21 22  1  0
 23 22  1  1
 23 25  1  0
 24 23  1  0
 24 14  1  0
 25 27  2  0
 25 26  1  0
M  END
$$$$
