IPR.pdb
     RDKit          3D

 27 27  0  0  1  0  0  0  0  0999 V2000
   10.9070  -14.9429   30.6327 C   0  0  0  0  0  0  0  0  0  0  0  0
    9.4780  -15.1041   30.2795 C   0  0  0  0  0  0  0  0  0  0  0  0
    9.2560  -15.1143   28.7958 C   0  0  2  0  0  0  0  0  0  0  0  0
    8.8709  -13.6930   28.3362 C   0  0  0  0  0  0  0  0  0  0  0  0
    8.1009  -16.0186   28.4412 C   0  0  2  0  0  0  0  0  0  0  0  0
    8.3045  -17.3285   28.9424 N   0  0  0  0  0  0  0  0  0  0  0  0
    7.7582  -15.9491   26.9988 C   0  0  0  0  0  0  0  0  0  0  0  0
    7.6286  -17.1224   26.4597 O   0  0  0  0  0  0  0  0  0  0  0  0
    7.5829  -14.8006   26.2517 N   0  0  0  0  0  0  0  0  0  0  0  0
    7.8074  -13.4300   26.5114 C   0  0  0  0  0  0  0  0  0  0  0  0
    6.4254  -12.8569   26.1391 C   0  0  0  0  0  0  0  0  0  0  0  0
    6.1042  -13.6814   24.9116 C   0  0  0  0  0  0  0  0  0  0  0  0
    7.0996  -14.8137   24.8638 C   0  0  1  0  0  0  0  0  0  0  0  0
    8.1837  -14.6152   23.8853 C   0  0  0  0  0  0  0  0  0  0  0  0
    9.1256  -13.8520   24.1362 O   0  0  0  0  0  0  0  0  0  0  0  0
    8.8626  -22.1167   19.2262 N   0  0  0  0  0  0  0  0  0  0  0  0
    9.2118  -21.7472   20.5418 C   0  0  0  0  0  0  0  0  0  0  0  0
    9.0725  -22.5936   21.4950 N   0  0  0  0  0  0  0  0  0  0  0  0
    9.7117  -20.4406   20.7748 N   0  0  0  0  0  0  0  0  0  0  0  0
    8.9585  -19.3168   20.3137 C   0  0  0  0  0  0  0  0  0  0  0  0
    9.6811  -17.9896   20.5454 C   0  0  0  0  0  0  0  0  0  0  0  0
    8.6784  -17.0110   21.0661 C   0  0  0  0  0  0  0  0  0  0  0  0
    9.2410  -16.0942   22.1220 C   0  0  2  0  0  0  0  0  0  0  0  0
    8.1874  -15.2817   22.6389 N   0  0  0  0  0  0  0  0  0  0  0  0
   10.2319  -15.1866   21.4510 C   0  0  0  0  0  0  0  0  0  0  0  0
    9.9068  -13.8955   21.0934 O   0  0  0  0  0  0  0  0  0  0  0  0
   11.3943  -15.5956   21.1998 O   0  0  0  0  0  0  0  0  0  0  0  0
  1  2  1  0
  3  2  1  0
  3  5  1  0
  3  4  1  1
  5  7  1  0
  5  6  1  6
  7  8  2  0
  9 13  1  0
  9  7  1  0
 10  9  1  0
 11 12  1  0
 11 10  1  0
 12 13  1  0
 13 14  1  6
 14 15  2  0
 16 17  1  0
 17 19  1  0
 17 18  2  0
 19 20  1  0
 20 21  1  0
 21 22  1  0
 23 22  1  6
 23 25  1  0
 24 23  1  0
 24 14  1  0
 25 27  2  0
 25 26  1  0
M  END
$$$$
