IPR.pdb
     RDKit          3D

 27 27  0  0  1  0  0  0  0  0999 V2000
    6.7330  -14.1057   18.6405 C   0  0  0  0  0  0  0  0  0  0  0  0
    7.5272  -13.2794   19.5781 C   0  0  0  0  0  0  0  0  0  0  0  0
    7.7037  -13.9428   20.9121 C   0  0  2  0  0  0  0  0  0  0  0  0
    6.3193  -14.1306   21.5663 C   0  0  0  0  0  0  0  0  0  0  0  0
    8.5104  -13.0636   21.8362 C   0  0  2  0  0  0  0  0  0  0  0  0
    9.7162  -12.6449   21.2203 N   0  0  0  0  0  0  0  0  0  0  0  0
    8.6747  -13.6680   23.1817 C   0  0  0  0  0  0  0  0  0  0  0  0
    9.8192  -14.2626   23.3253 O   0  0  0  0  0  0  0  0  0  0  0  0
    7.7546  -13.6395   24.2117 N   0  0  0  0  0  0  0  0  0  0  0  0
    6.3899  -13.2812   24.2845 C   0  0  0  0  0  0  0  0  0  0  0  0
    6.4403  -12.2686   25.4460 C   0  0  0  0  0  0  0  0  0  0  0  0
    7.4241  -12.9537   26.3693 C   0  0  0  0  0  0  0  0  0  0  0  0
    8.0728  -14.0648   25.5821 C   0  0  1  0  0  0  0  0  0  0  0  0
    7.5461  -15.4052   25.8951 C   0  0  0  0  0  0  0  0  0  0  0  0
    6.4348  -15.7576   25.4784 O   0  0  0  0  0  0  0  0  0  0  0  0
   13.2995  -18.3380   21.6758 N   0  0  0  0  0  0  0  0  0  0  0  0
   12.7862  -19.6132   21.9916 C   0  0  0  0  0  0  0  0  0  0  0  0
   13.2393  -20.6466   21.3824 N   0  0  0  0  0  0  0  0  0  0  0  0
   11.7764  -19.7172   22.9820 N   0  0  0  0  0  0  0  0  0  0  0  0
   11.2297  -18.5223   23.5442 C   0  0  0  0  0  0  0  0  0  0  0  0
   10.2308  -18.8040   24.6667 C   0  0  0  0  0  0  0  0  0  0  0  0
    9.7062  -17.4900   25.1487 C   0  0  0  0  0  0  0  0  0  0  0  0
    8.7019  -17.6283   26.2643 C   0  0  2  0  0  0  0  0  0  0  0  0
    8.2823  -16.3269   26.6736 N   0  0  0  0  0  0  0  0  0  0  0  0
    9.4036  -18.2699   27.4269 C   0  0  0  0  0  0  0  0  0  0  0  0
   10.0050  -17.5198   28.4150 O   0  0  0  0  0  0  0  0  0  0  0  0
    9.4554  -19.5230   27.5206 O   0  0  0  0  0  0  0  0  0  0  0  0
  1  2  1  0
  3  2  1  0
  3  5  1  0
  3  4  1  1
  5  7  1  0
  5  6  1  6
  7  8  2  0
  9 13  1  0
  9  7  1  0
 10  9  1  0
 11 12  1  0
 11 10  1  0
 12 13  1  0
 13 14  1  1
 14 15  2  0
 16 17  1  0
 17 19  1  0
 17 18  2  0
 19 20  1  0
 20 21  1  0
 21 22  1  0
 23 22  1  6
 23 25  1  0
 24 23  1  0
 24 14  1  0
 25 27  2  0
 25 26  1  0
M  END
$$$$
