IPR.pdb
     RDKit          3D

 27 27  0  0  1  0  0  0  0  0999 V2000
    7.3000  -11.3750   27.2445 C   0  0  0  0  0  0  0  0  0  0  0  0
    6.5063  -12.4923   26.6836 C   0  0  0  0  0  0  0  0  0  0  0  0
    7.2490  -13.2371   25.6137 C   0  0  2  0  0  0  0  0  0  0  0  0
    7.5114  -12.2845   24.4290 C   0  0  0  0  0  0  0  0  0  0  0  0
    6.4113  -14.3755   25.0847 C   0  0  2  0  0  0  0  0  0  0  0  0
    5.7142  -15.0273   26.1325 N   0  0  0  0  0  0  0  0  0  0  0  0
    7.1882  -15.2767   24.1975 C   0  0  0  0  0  0  0  0  0  0  0  0
    7.3315  -16.4660   24.6964 O   0  0  0  0  0  0  0  0  0  0  0  0
    7.7274  -14.9522   22.9679 N   0  0  0  0  0  0  0  0  0  0  0  0
    7.7801  -13.7573   22.2158 C   0  0  0  0  0  0  0  0  0  0  0  0
    7.2095  -14.2595   20.8745 C   0  0  0  0  0  0  0  0  0  0  0  0
    7.8687  -15.6184   20.7835 C   0  0  0  0  0  0  0  0  0  0  0  0
    8.4645  -15.9149   22.1372 C   0  0  1  0  0  0  0  0  0  0  0  0
    9.9238  -15.7187   22.2036 C   0  0  0  0  0  0  0  0  0  0  0  0
   10.4089  -14.5814   22.1428 O   0  0  0  0  0  0  0  0  0  0  0  0
    8.3909  -19.3331   27.7233 N   0  0  0  0  0  0  0  0  0  0  0  0
    9.5454  -20.1415   27.7784 C   0  0  0  0  0  0  0  0  0  0  0  0
    9.4591  -21.3383   28.2305 N   0  0  0  0  0  0  0  0  0  0  0  0
   10.7781  -19.6040   27.3281 N   0  0  0  0  0  0  0  0  0  0  0  0
   10.7847  -18.3292   26.6815 C   0  0  0  0  0  0  0  0  0  0  0  0
   11.3426  -18.3940   25.2596 C   0  0  0  0  0  0  0  0  0  0  0  0
   11.2575  -17.0209   24.6750 C   0  0  0  0  0  0  0  0  0  0  0  0
   11.8622  -16.9269   23.2975 C   0  0  2  0  0  0  0  0  0  0  0  0
   10.8123  -16.8096   22.3378 N   0  0  0  0  0  0  0  0  0  0  0  0
   12.5834  -18.2173   23.0317 C   0  0  0  0  0  0  0  0  0  0  0  0
   11.9676  -19.2751   22.3974 O   0  0  0  0  0  0  0  0  0  0  0  0
   13.7810  -18.3572   23.3891 O   0  0  0  0  0  0  0  0  0  0  0  0
  1  2  1  0
  3  2  1  0
  3  5  1  0
  3  4  1  6
  5  7  1  0
  5  6  1  1
  7  8  2  0
  9 13  1  0
  9  7  1  0
 10  9  1  0
 11 12  1  0
 11 10  1  0
 12 13  1  0
 13 14  1  6
 14 15  2  0
 16 17  1  0
 17 19  1  0
 17 18  2  0
 19 20  1  0
 20 21  1  0
 21 22  1  0
 23 22  1  1
 23 25  1  0
 24 23  1  0
 24 14  1  0
 25 27  2  0
 25 26  1  0
M  END
$$$$
