IPR.pdb
     RDKit          3D

 27 27  0  0  1  0  0  0  0  0999 V2000
    7.8668  -11.7605   26.7405 C   0  0  0  0  0  0  0  0  0  0  0  0
    7.0189  -12.9580   26.5411 C   0  0  0  0  0  0  0  0  0  0  0  0
    7.7214  -14.0291   25.7600 C   0  0  2  0  0  0  0  0  0  0  0  0
    7.9984  -13.5103   24.3338 C   0  0  0  0  0  0  0  0  0  0  0  0
    6.8392  -15.2456   25.6211 C   0  0  2  0  0  0  0  0  0  0  0  0
    6.4014  -15.7071   26.8876 N   0  0  0  0  0  0  0  0  0  0  0  0
    7.4513  -16.2850   24.7563 C   0  0  0  0  0  0  0  0  0  0  0  0
    7.9574  -17.2665   25.4378 O   0  0  0  0  0  0  0  0  0  0  0  0
    7.5116  -16.2726   23.3763 N   0  0  0  0  0  0  0  0  0  0  0  0
    7.3104  -15.2666   22.4049 C   0  0  0  0  0  0  0  0  0  0  0  0
    6.2802  -15.9706   21.4994 C   0  0  0  0  0  0  0  0  0  0  0  0
    6.8335  -17.3789   21.4918 C   0  0  0  0  0  0  0  0  0  0  0  0
    7.8757  -17.4529   22.5798 C   0  0  1  0  0  0  0  0  0  0  0  0
    9.2623  -17.3949   22.0837 C   0  0  0  0  0  0  0  0  0  0  0  0
    9.6624  -18.2061   21.2384 O   0  0  0  0  0  0  0  0  0  0  0  0
    7.8364  -12.1297   19.2223 N   0  0  0  0  0  0  0  0  0  0  0  0
    8.4191  -13.0752   18.3530 C   0  0  0  0  0  0  0  0  0  0  0  0
    7.7059  -13.6129   17.4328 N   0  0  0  0  0  0  0  0  0  0  0  0
    9.7878  -13.4062   18.5217 N   0  0  0  0  0  0  0  0  0  0  0  0
   10.3109  -13.5427   19.8449 C   0  0  0  0  0  0  0  0  0  0  0  0
   11.1037  -14.8362   20.0332 C   0  0  0  0  0  0  0  0  0  0  0  0
   11.6046  -14.8613   21.4413 C   0  0  0  0  0  0  0  0  0  0  0  0
   11.5081  -16.2241   22.0783 C   0  0  2  0  0  0  0  0  0  0  0  0
   10.1753  -16.4217   22.5495 N   0  0  0  0  0  0  0  0  0  0  0  0
   12.4210  -16.2310   23.2709 C   0  0  0  0  0  0  0  0  0  0  0  0
   13.7925  -16.2002   23.1347 O   0  0  0  0  0  0  0  0  0  0  0  0
   11.9422  -16.2656   24.4332 O   0  0  0  0  0  0  0  0  0  0  0  0
  1  2  1  0
  3  2  1  0
  3  5  1  0
  3  4  1  6
  5  7  1  0
  5  6  1  1
  7  8  2  0
  9 13  1  0
  9  7  1  0
 10  9  1  0
 11 12  1  0
 11 10  1  0
 12 13  1  0
 13 14  1  6
 14 15  2  0
 16 17  1  0
 17 19  1  0
 17 18  2  0
 19 20  1  0
 20 21  1  0
 21 22  1  0
 23 22  1  1
 23 25  1  0
 24 23  1  0
 24 14  1  0
 25 27  2  0
 25 26  1  0
M  END
$$$$
