IPR.pdb
     RDKit          3D

 27 27  0  0  1  0  0  0  0  0999 V2000
    6.8302  -10.5440   27.1412 C   0  0  0  0  0  0  0  0  0  0  0  0
    6.0492  -11.5788   26.4256 C   0  0  0  0  0  0  0  0  0  0  0  0
    6.9238  -12.6459   25.8364 C   0  0  2  0  0  0  0  0  0  0  0  0
    7.8415  -12.0112   24.7711 C   0  0  0  0  0  0  0  0  0  0  0  0
    6.0866  -13.6852   25.1319 C   0  0  2  0  0  0  0  0  0  0  0  0
    5.0729  -14.1891   25.9847 N   0  0  0  0  0  0  0  0  0  0  0  0
    6.9193  -14.7219   24.4728 C   0  0  0  0  0  0  0  0  0  0  0  0
    6.8884  -15.8586   25.0981 O   0  0  0  0  0  0  0  0  0  0  0  0
    7.6686  -14.5635   23.3232 N   0  0  0  0  0  0  0  0  0  0  0  0
    8.0282  -13.4397   22.5460 C   0  0  0  0  0  0  0  0  0  0  0  0
    7.5674  -13.9177   21.1545 C   0  0  0  0  0  0  0  0  0  0  0  0
    7.9887  -15.3701   21.2061 C   0  0  0  0  0  0  0  0  0  0  0  0
    8.3348  -15.6818   22.6408 C   0  0  1  0  0  0  0  0  0  0  0  0
    9.7832  -15.7267   22.9098 C   0  0  0  0  0  0  0  0  0  0  0  0
   10.4406  -14.6807   22.9910 O   0  0  0  0  0  0  0  0  0  0  0  0
    9.2418  -22.0043   27.7680 N   0  0  0  0  0  0  0  0  0  0  0  0
    8.2310  -21.0369   27.5899 C   0  0  0  0  0  0  0  0  0  0  0  0
    7.0629  -21.2450   28.0764 N   0  0  0  0  0  0  0  0  0  0  0  0
    8.5376  -19.8522   26.8730 N   0  0  0  0  0  0  0  0  0  0  0  0
    9.7856  -19.7622   26.1821 C   0  0  0  0  0  0  0  0  0  0  0  0
   10.0122  -18.3869   25.5543 C   0  0  0  0  0  0  0  0  0  0  0  0
   11.2736  -18.4543   24.7552 C   0  0  0  0  0  0  0  0  0  0  0  0
   11.5503  -17.1912   23.9805 C   0  0  2  0  0  0  0  0  0  0  0  0
   10.4666  -16.9516   23.0831 N   0  0  0  0  0  0  0  0  0  0  0  0
   12.7835  -17.4277   23.1563 C   0  0  0  0  0  0  0  0  0  0  0  0
   14.0444  -17.4000   23.7130 O   0  0  0  0  0  0  0  0  0  0  0  0
   12.6853  -17.6589   21.9240 O   0  0  0  0  0  0  0  0  0  0  0  0
  1  2  1  0
  3  2  1  0
  3  5  1  0
  3  4  1  6
  5  7  1  0
  5  6  1  1
  7  8  2  0
  9 13  1  0
  9  7  1  0
 10  9  1  0
 11 12  1  0
 11 10  1  0
 12 13  1  0
 13 14  1  6
 14 15  2  0
 16 17  1  0
 17 19  1  0
 17 18  2  0
 19 20  1  0
 20 21  1  0
 21 22  1  0
 23 22  1  6
 23 25  1  0
 24 23  1  0
 24 14  1  0
 25 27  2  0
 25 26  1  0
M  END
$$$$
