IPR.pdb
     RDKit          3D

 27 27  0  0  1  0  0  0  0  0999 V2000
    7.8375  -18.6956   16.9337 C   0  0  0  0  0  0  0  0  0  0  0  0
    8.6760  -17.5057   16.6621 C   0  0  0  0  0  0  0  0  0  0  0  0
    7.8611  -16.3205   16.2355 C   0  0  2  0  0  0  0  0  0  0  0  0
    7.3098  -16.5746   14.8173 C   0  0  0  0  0  0  0  0  0  0  0  0
    8.7260  -15.0863   16.1558 C   0  0  2  0  0  0  0  0  0  0  0  0
    9.6914  -15.2042   15.1249 N   0  0  0  0  0  0  0  0  0  0  0  0
    9.2724  -14.6994   17.4804 C   0  0  0  0  0  0  0  0  0  0  0  0
   10.5699  -14.6968   17.5035 O   0  0  0  0  0  0  0  0  0  0  0  0
    8.5411  -14.3679   18.6044 N   0  0  0  0  0  0  0  0  0  0  0  0
    7.1563  -14.2706   18.8676 C   0  0  0  0  0  0  0  0  0  0  0  0
    7.0948  -12.8470   19.4564 C   0  0  0  0  0  0  0  0  0  0  0  0
    8.3534  -12.8393   20.2965 C   0  0  0  0  0  0  0  0  0  0  0  0
    9.1610  -14.0494   19.8983 C   0  0  1  0  0  0  0  0  0  0  0  0
    9.0761  -15.1660   20.8565 C   0  0  0  0  0  0  0  0  0  0  0  0
    8.0572  -15.8668   20.9170 O   0  0  0  0  0  0  0  0  0  0  0  0
   13.6905  -20.3605   18.9278 N   0  0  0  0  0  0  0  0  0  0  0  0
   14.2215  -20.8200   20.1510 C   0  0  0  0  0  0  0  0  0  0  0  0
   14.6245  -22.0333   20.2501 N   0  0  0  0  0  0  0  0  0  0  0  0
   14.2961  -19.9201   21.2446 N   0  0  0  0  0  0  0  0  0  0  0  0
   13.7641  -18.6018   21.0964 C   0  0  0  0  0  0  0  0  0  0  0  0
   12.4530  -18.4077   21.8583 C   0  0  0  0  0  0  0  0  0  0  0  0
   11.9024  -17.0700   21.4820 C   0  0  0  0  0  0  0  0  0  0  0  0
   10.5652  -16.7822   22.1153 C   0  0  2  0  0  0  0  0  0  0  0  0
   10.1427  -15.4741   21.7311 N   0  0  0  0  0  0  0  0  0  0  0  0
   10.7614  -16.7811   23.6043 C   0  0  0  0  0  0  0  0  0  0  0  0
   10.8925  -17.9522   24.3197 O   0  0  0  0  0  0  0  0  0  0  0  0
   10.8103  -15.6938   24.2345 O   0  0  0  0  0  0  0  0  0  0  0  0
  1  2  1  0
  3  2  1  0
  3  5  1  0
  3  4  1  6
  5  7  1  0
  5  6  1  6
  7  8  2  0
  9 13  1  0
  9  7  1  0
 10  9  1  0
 11 12  1  0
 11 10  1  0
 12 13  1  0
 13 14  1  1
 14 15  2  0
 16 17  1  0
 17 19  1  0
 17 18  2  0
 19 20  1  0
 20 21  1  0
 21 22  1  0
 23 22  1  6
 23 25  1  0
 24 23  1  0
 24 14  1  0
 25 27  2  0
 25 26  1  0
M  END
$$$$
