IPR.pdb
     RDKit          3D

 27 27  0  0  1  0  0  0  0  0999 V2000
    7.0324  -11.4892   27.3008 C   0  0  0  0  0  0  0  0  0  0  0  0
    6.2099  -12.4271   26.5030 C   0  0  0  0  0  0  0  0  0  0  0  0
    7.0470  -13.4137   25.7436 C   0  0  2  0  0  0  0  0  0  0  0  0
    7.8840  -12.6570   24.6916 C   0  0  0  0  0  0  0  0  0  0  0  0
    6.1682  -14.3828   24.9912 C   0  0  2  0  0  0  0  0  0  0  0  0
    5.2005  -14.9659   25.8469 N   0  0  0  0  0  0  0  0  0  0  0  0
    6.9594  -15.3519   24.1928 C   0  0  0  0  0  0  0  0  0  0  0  0
    6.9672  -16.5399   24.7150 O   0  0  0  0  0  0  0  0  0  0  0  0
    7.6368  -15.0876   23.0184 N   0  0  0  0  0  0  0  0  0  0  0  0
    7.9049  -13.9019   22.2982 C   0  0  0  0  0  0  0  0  0  0  0  0
    7.3890  -14.3125   20.9045 C   0  0  0  0  0  0  0  0  0  0  0  0
    7.8740  -15.7444   20.8395 C   0  0  0  0  0  0  0  0  0  0  0  0
    8.3114  -16.1291   22.2308 C   0  0  1  0  0  0  0  0  0  0  0  0
    9.7730  -16.1241   22.4203 C   0  0  0  0  0  0  0  0  0  0  0  0
   10.3928  -15.0556   22.5039 O   0  0  0  0  0  0  0  0  0  0  0  0
    8.9911  -20.6851   25.5884 N   0  0  0  0  0  0  0  0  0  0  0  0
    9.6984  -20.3873   26.7718 C   0  0  0  0  0  0  0  0  0  0  0  0
    9.7486  -21.2552   27.7145 N   0  0  0  0  0  0  0  0  0  0  0  0
   10.3395  -19.1275   26.8860 N   0  0  0  0  0  0  0  0  0  0  0  0
   10.5847  -18.3636   25.7031 C   0  0  0  0  0  0  0  0  0  0  0  0
   12.0333  -18.4676   25.2257 C   0  0  0  0  0  0  0  0  0  0  0  0
   12.0095  -18.7137   23.7516 C   0  0  0  0  0  0  0  0  0  0  0  0
   11.8669  -17.4491   22.9438 C   0  0  2  0  0  0  0  0  0  0  0  0
   10.5119  -17.3253   22.5126 N   0  0  0  0  0  0  0  0  0  0  0  0
   12.7252  -17.5955   21.7200 C   0  0  0  0  0  0  0  0  0  0  0  0
   14.0794  -17.3386   21.7488 O   0  0  0  0  0  0  0  0  0  0  0  0
   12.2150  -17.9609   20.6302 O   0  0  0  0  0  0  0  0  0  0  0  0
  1  2  1  0
  3  2  1  0
  3  5  1  0
  3  4  1  6
  5  7  1  0
  5  6  1  1
  7  8  2  0
  9 13  1  0
  9  7  1  0
 10  9  1  0
 11 12  1  0
 11 10  1  0
 12 13  1  0
 13 14  1  6
 14 15  2  0
 16 17  1  0
 17 19  1  0
 17 18  2  0
 19 20  1  0
 20 21  1  0
 21 22  1  0
 23 22  1  1
 23 25  1  0
 24 23  1  0
 24 14  1  0
 25 27  2  0
 25 26  1  0
M  END
$$$$
