IPR.pdb
     RDKit          3D

 27 27  0  0  1  0  0  0  0  0999 V2000
    7.0506  -13.5182   17.6546 C   0  0  0  0  0  0  0  0  0  0  0  0
    7.9963  -13.0159   18.6774 C   0  0  0  0  0  0  0  0  0  0  0  0
    8.0172  -13.8776   19.9053 C   0  0  2  0  0  0  0  0  0  0  0  0
    6.6316  -13.8218   20.5813 C   0  0  0  0  0  0  0  0  0  0  0  0
    9.0153  -13.3473   20.9054 C   0  0  2  0  0  0  0  0  0  0  0  0
   10.2700  -13.1009   20.2940 N   0  0  0  0  0  0  0  0  0  0  0  0
    9.0726  -14.1786   22.1335 C   0  0  0  0  0  0  0  0  0  0  0  0
   10.0767  -15.0007   22.1332 O   0  0  0  0  0  0  0  0  0  0  0  0
    8.1903  -14.1351   23.1954 N   0  0  0  0  0  0  0  0  0  0  0  0
    6.9097  -13.5645   23.3707 C   0  0  0  0  0  0  0  0  0  0  0  0
    7.1557  -12.7422   24.6514 C   0  0  0  0  0  0  0  0  0  0  0  0
    8.0227  -13.7026   25.4360 C   0  0  0  0  0  0  0  0  0  0  0  0
    8.4550  -14.7901   24.4842 C   0  0  1  0  0  0  0  0  0  0  0  0
    7.7101  -16.0521   24.6411 C   0  0  0  0  0  0  0  0  0  0  0  0
    6.7940  -16.1431   25.4688 O   0  0  0  0  0  0  0  0  0  0  0  0
   14.3228  -21.0195   24.4008 N   0  0  0  0  0  0  0  0  0  0  0  0
   14.4888  -20.0377   23.4019 C   0  0  0  0  0  0  0  0  0  0  0  0
   15.6616  -19.7906   22.9460 N   0  0  0  0  0  0  0  0  0  0  0  0
   13.3453  -19.3469   22.9259 N   0  0  0  0  0  0  0  0  0  0  0  0
   12.6756  -18.4312   23.7953 C   0  0  0  0  0  0  0  0  0  0  0  0
   11.2971  -18.9316   24.2272 C   0  0  0  0  0  0  0  0  0  0  0  0
   10.2994  -17.8760   23.8746 C   0  0  0  0  0  0  0  0  0  0  0  0
    8.8851  -18.2577   24.2301 C   0  0  2  0  0  0  0  0  0  0  0  0
    8.0110  -17.1915   23.8608 N   0  0  0  0  0  0  0  0  0  0  0  0
    8.8193  -18.4075   25.7231 C   0  0  0  0  0  0  0  0  0  0  0  0
    8.6594  -17.3198   26.5549 O   0  0  0  0  0  0  0  0  0  0  0  0
    8.9103  -19.5464   26.2486 O   0  0  0  0  0  0  0  0  0  0  0  0
  1  2  1  0
  3  2  1  0
  3  5  1  0
  3  4  1  1
  5  7  1  0
  5  6  1  6
  7  8  2  0
  9 13  1  0
  9  7  1  0
 10  9  1  0
 11 12  1  0
 11 10  1  0
 12 13  1  0
 13 14  1  1
 14 15  2  0
 16 17  1  0
 17 19  1  0
 17 18  2  0
 19 20  1  0
 20 21  1  0
 21 22  1  0
 23 22  1  1
 23 25  1  0
 24 23  1  0
 24 14  1  0
 25 27  2  0
 25 26  1  0
M  END
$$$$
