IPR.pdb
     RDKit          3D

 27 27  0  0  1  0  0  0  0  0999 V2000
    6.6032  -11.2028   27.5757 C   0  0  0  0  0  0  0  0  0  0  0  0
    5.8971  -12.2926   26.8641 C   0  0  0  0  0  0  0  0  0  0  0  0
    6.8324  -13.1470   26.0602 C   0  0  2  0  0  0  0  0  0  0  0  0
    7.5034  -12.2757   24.9783 C   0  0  0  0  0  0  0  0  0  0  0  0
    6.0692  -14.2314   25.3397 C   0  0  2  0  0  0  0  0  0  0  0  0
    5.2006  -14.9189   26.2237 N   0  0  0  0  0  0  0  0  0  0  0  0
    6.9613  -15.1048   24.5372 C   0  0  0  0  0  0  0  0  0  0  0  0
    7.1291  -16.2744   25.0740 O   0  0  0  0  0  0  0  0  0  0  0  0
    7.5774  -14.7748   23.3458 N   0  0  0  0  0  0  0  0  0  0  0  0
    7.6674  -13.5794   22.5981 C   0  0  0  0  0  0  0  0  0  0  0  0
    7.1920  -14.0874   21.2222 C   0  0  0  0  0  0  0  0  0  0  0  0
    7.8698  -15.4395   21.1760 C   0  0  0  0  0  0  0  0  0  0  0  0
    8.3777  -15.7298   22.5663 C   0  0  1  0  0  0  0  0  0  0  0  0
    9.8272  -15.5186   22.7290 C   0  0  0  0  0  0  0  0  0  0  0  0
   10.2996  -14.3743   22.7328 O   0  0  0  0  0  0  0  0  0  0  0  0
    7.4870  -19.0714   27.0804 N   0  0  0  0  0  0  0  0  0  0  0  0
    8.2617  -20.2486   27.1382 C   0  0  0  0  0  0  0  0  0  0  0  0
    7.6776  -21.3899   27.1655 N   0  0  0  0  0  0  0  0  0  0  0  0
    9.6751  -20.1359   27.1639 N   0  0  0  0  0  0  0  0  0  0  0  0
   10.2780  -18.8845   26.8271 C   0  0  0  0  0  0  0  0  0  0  0  0
    9.9745  -18.4528   25.3923 C   0  0  0  0  0  0  0  0  0  0  0  0
   10.4891  -17.0603   25.2181 C   0  0  0  0  0  0  0  0  0  0  0  0
   11.4528  -16.9264   24.0668 C   0  0  2  0  0  0  0  0  0  0  0  0
   10.7206  -16.6026   22.8852 N   0  0  0  0  0  0  0  0  0  0  0  0
   12.0931  -18.2685   23.8553 C   0  0  0  0  0  0  0  0  0  0  0  0
   11.6267  -19.1533   22.9065 O   0  0  0  0  0  0  0  0  0  0  0  0
   13.0819  -18.6138   24.5514 O   0  0  0  0  0  0  0  0  0  0  0  0
  1  2  1  0
  3  2  1  0
  3  5  1  0
  3  4  1  6
  5  7  1  0
  5  6  1  1
  7  8  2  0
  9 13  1  0
  9  7  1  0
 10  9  1  0
 11 12  1  0
 11 10  1  0
 12 13  1  0
 13 14  1  6
 14 15  2  0
 16 17  1  0
 17 19  1  0
 17 18  2  0
 19 20  1  0
 20 21  1  0
 21 22  1  0
 23 22  1  1
 23 25  1  0
 24 23  1  0
 24 14  1  0
 25 27  2  0
 25 26  1  0
M  END
$$$$
