QYK.pdb
     RDKit          3D

 31 31  0  0  1  0  0  0  0  0999 V2000
    9.6497  -15.7991   15.1370 N   0  0  0  0  0  0  0  0  0  0  0  0
    8.5429  -14.9610   15.4496 C   0  0  0  0  0  0  0  0  0  0  0  0
    8.1955  -14.1278   14.5950 O   0  0  0  0  0  0  0  0  0  0  0  0
    7.8952  -15.1443   16.7505 C   0  0  0  0  0  0  0  0  0  0  0  0
    8.7185  -14.9631   17.9639 C   0  0  0  0  0  0  0  0  0  0  0  0
    8.5932  -15.9600   19.0512 C   0  0  2  0  0  0  0  0  0  0  0  0
    7.2847  -16.5510   19.0682 N   0  0  0  0  0  0  0  0  0  0  0  0
    8.8930  -15.4044   20.3975 C   0  0  0  0  0  0  0  0  0  0  0  0
   10.0616  -15.0372   20.6792 O   0  0  0  0  0  0  0  0  0  0  0  0
    7.3881  -12.0482   28.5187 O   0  0  0  0  0  0  0  0  0  0  0  0
    7.2826  -12.5250   27.1963 C   0  0  0  0  0  0  0  0  0  0  0  0
    6.6261  -13.7008   26.9146 C   0  0  0  0  0  0  0  0  0  0  0  0
    6.5426  -14.1360   25.6109 C   0  0  0  0  0  0  0  0  0  0  0  0
    7.0891  -13.4500   24.5468 C   0  0  0  0  0  0  0  0  0  0  0  0
    6.9741  -13.9513   23.1750 C   0  0  0  0  0  0  0  0  0  0  0  0
    8.1763  -14.7856   22.7503 C   0  0  2  0  0  0  0  0  0  0  0  0
    7.8933  -15.2684   21.3996 N   0  0  0  0  0  0  0  0  0  0  0  0
    8.4845  -15.8633   23.6820 C   0  0  0  0  0  0  0  0  0  0  0  0
    7.6955  -16.8672   23.7235 O   0  0  0  0  0  0  0  0  0  0  0  0
    7.7420  -12.2762   24.8469 C   0  0  0  0  0  0  0  0  0  0  0  0
    7.8340  -11.8281   26.1442 C   0  0  0  0  0  0  0  0  0  0  0  0
    9.5931  -15.8734   24.5367 N   0  0  0  0  0  0  0  0  0  0  0  0
    9.8994  -17.0971   25.3099 C   0  0  1  0  0  0  0  0  0  0  0  0
   11.1364  -17.7346   24.7647 C   0  0  0  0  0  0  0  0  0  0  0  0
   11.5041  -18.9493   25.5664 C   0  0  0  0  0  0  0  0  0  0  0  0
   12.7683  -19.6040   25.0166 C   0  0  0  0  0  0  0  0  0  0  0  0
   13.0331  -20.8287   25.8778 C   0  0  0  0  0  0  0  0  0  0  0  0
   14.2453  -21.4405   25.3768 N   0  0  0  0  0  0  0  0  0  0  0  0
   10.1168  -16.6846   26.7084 C   0  0  0  0  0  0  0  0  0  0  0  0
   10.3170  -17.5889   27.5876 O   0  0  0  0  0  0  0  0  0  0  0  0
   10.1267  -15.3736   27.1661 O   0  0  0  0  0  0  0  0  0  0  0  0
  1  2  1  0
  2  3  2  0
  4  5  1  0
  4  2  1  0
  6  5  1  0
  6  7  1  1
  8  9  2  0
  8  6  1  0
 10 11  1  0
 11 12  2  0
 12 13  1  0
 14 13  2  0
 14 15  1  0
 16 15  1  1
 16 17  1  0
 17  8  1  0
 18 16  1  0
 19 18  2  0
 20 14  1  0
 21 11  1  0
 21 20  2  0
 22 18  1  0
 23 29  1  0
 23 22  1  0
 23 24  1  6
 25 24  1  0
 26 25  1  0
 26 27  1  0
 27 28  1  0
 29 31  1  0
 30 29  2  0
M  END
$$$$
