QYK.pdb
     RDKit          3D

 31 31  0  0  1  0  0  0  0  0999 V2000
    8.6772  -12.8188   16.0707 N   0  0  0  0  0  0  0  0  0  0  0  0
    8.2489  -14.1065   15.6423 C   0  0  0  0  0  0  0  0  0  0  0  0
    7.8409  -14.2152   14.4732 O   0  0  0  0  0  0  0  0  0  0  0  0
    8.3236  -15.2058   16.6075 C   0  0  0  0  0  0  0  0  0  0  0  0
    8.8289  -14.9025   17.9624 C   0  0  0  0  0  0  0  0  0  0  0  0
    8.8764  -16.0001   18.9547 C   0  0  2  0  0  0  0  0  0  0  0  0
    7.6659  -16.7721   18.9363 N   0  0  0  0  0  0  0  0  0  0  0  0
    9.1317  -15.5297   20.3419 C   0  0  0  0  0  0  0  0  0  0  0  0
   10.3095  -15.3166   20.7260 O   0  0  0  0  0  0  0  0  0  0  0  0
    7.2540  -12.3008   28.4500 O   0  0  0  0  0  0  0  0  0  0  0  0
    7.2161  -12.7219   27.1053 C   0  0  0  0  0  0  0  0  0  0  0  0
    7.8401  -11.9979   26.1156 C   0  0  0  0  0  0  0  0  0  0  0  0
    7.7823  -12.4395   24.8126 C   0  0  0  0  0  0  0  0  0  0  0  0
    7.1225  -13.5886   24.4308 C   0  0  0  0  0  0  0  0  0  0  0  0
    7.0887  -14.0204   23.0312 C   0  0  0  0  0  0  0  0  0  0  0  0
    8.3053  -14.8510   22.6416 C   0  0  2  0  0  0  0  0  0  0  0  0
    8.0786  -15.3062   21.2709 N   0  0  0  0  0  0  0  0  0  0  0  0
    8.5703  -15.9478   23.5643 C   0  0  0  0  0  0  0  0  0  0  0  0
    7.8278  -16.9851   23.4954 O   0  0  0  0  0  0  0  0  0  0  0  0
    6.5040  -14.3001   25.4335 C   0  0  0  0  0  0  0  0  0  0  0  0
    6.5527  -13.8721   26.7399 C   0  0  0  0  0  0  0  0  0  0  0  0
    9.5896  -15.9420   24.5237 N   0  0  0  0  0  0  0  0  0  0  0  0
    9.8619  -17.1732   25.2976 C   0  0  1  0  0  0  0  0  0  0  0  0
   11.0370  -17.8833   24.7072 C   0  0  0  0  0  0  0  0  0  0  0  0
   11.3288  -19.1460   25.4649 C   0  0  0  0  0  0  0  0  0  0  0  0
   12.5818  -19.8295   24.9245 C   0  0  0  0  0  0  0  0  0  0  0  0
   12.7559  -21.1116   25.7232 C   0  0  0  0  0  0  0  0  0  0  0  0
   13.8890  -21.8100   25.1546 N   0  0  0  0  0  0  0  0  0  0  0  0
   10.1625  -16.7601   26.6803 C   0  0  0  0  0  0  0  0  0  0  0  0
   10.6003  -15.5775   26.8827 O   0  0  0  0  0  0  0  0  0  0  0  0
   10.0069  -17.5560   27.8075 O   0  0  0  0  0  0  0  0  0  0  0  0
  1  2  1  0
  2  3  2  0
  4  5  1  0
  4  2  1  0
  6  5  1  0
  6  7  1  1
  8  9  2  0
  8  6  1  0
 10 11  1  0
 11 12  2  0
 12 13  1  0
 14 13  2  0
 14 15  1  0
 16 15  1  1
 16 17  1  0
 17  8  1  0
 18 16  1  0
 19 18  2  0
 20 14  1  0
 21 11  1  0
 21 20  2  0
 22 18  1  0
 23 29  1  0
 23 22  1  0
 23 24  1  6
 25 24  1  0
 26 25  1  0
 26 27  1  0
 27 28  1  0
 29 31  1  0
 30 29  2  0
M  END
$$$$
