QYK.pdb
     RDKit          3D

 31 31  0  0  1  0  0  0  0  0999 V2000
    9.9270  -13.8718   15.2450 N   0  0  0  0  0  0  0  0  0  0  0  0
    8.5176  -14.0652   15.2121 C   0  0  0  0  0  0  0  0  0  0  0  0
    7.9779  -14.1597   14.0962 O   0  0  0  0  0  0  0  0  0  0  0  0
    7.8099  -14.1416   16.4923 C   0  0  0  0  0  0  0  0  0  0  0  0
    8.6175  -14.1357   17.7295 C   0  0  0  0  0  0  0  0  0  0  0  0
    8.3911  -15.2129   18.7195 C   0  0  2  0  0  0  0  0  0  0  0  0
    7.0368  -15.6876   18.6726 N   0  0  0  0  0  0  0  0  0  0  0  0
    8.7169  -14.8104   20.1133 C   0  0  0  0  0  0  0  0  0  0  0  0
    9.8888  -14.4656   20.4096 O   0  0  0  0  0  0  0  0  0  0  0  0
    7.2745  -12.4652   28.6025 O   0  0  0  0  0  0  0  0  0  0  0  0
    7.1636  -12.7739   27.2315 C   0  0  0  0  0  0  0  0  0  0  0  0
    6.5737  -13.9438   26.8116 C   0  0  0  0  0  0  0  0  0  0  0  0
    6.4826  -14.2124   25.4641 C   0  0  0  0  0  0  0  0  0  0  0  0
    6.9572  -13.3614   24.4883 C   0  0  0  0  0  0  0  0  0  0  0  0
    6.8370  -13.6887   23.0653 C   0  0  0  0  0  0  0  0  0  0  0  0
    8.0449  -14.4490   22.5319 C   0  0  2  0  0  0  0  0  0  0  0  0
    7.7392  -14.7989   21.1457 N   0  0  0  0  0  0  0  0  0  0  0  0
    8.3965  -15.6084   23.3424 C   0  0  0  0  0  0  0  0  0  0  0  0
    7.6905  -16.6658   23.2188 O   0  0  0  0  0  0  0  0  0  0  0  0
    7.5441  -12.1961   24.9263 C   0  0  0  0  0  0  0  0  0  0  0  0
    7.6426  -11.9134   26.2689 C   0  0  0  0  0  0  0  0  0  0  0  0
    9.4620  -15.6418   24.2498 N   0  0  0  0  0  0  0  0  0  0  0  0
   10.0313  -16.9477   24.6493 C   0  0  1  0  0  0  0  0  0  0  0  0
   11.1528  -17.3053   23.7284 C   0  0  0  0  0  0  0  0  0  0  0  0
   11.1341  -18.7734   23.4154 C   0  0  0  0  0  0  0  0  0  0  0  0
   12.0437  -19.0907   22.2318 C   0  0  0  0  0  0  0  0  0  0  0  0
   11.8465  -20.5648   21.9154 C   0  0  0  0  0  0  0  0  0  0  0  0
   12.6773  -20.8630   20.7684 N   0  0  0  0  0  0  0  0  0  0  0  0
   10.5351  -16.7991   26.0267 C   0  0  0  0  0  0  0  0  0  0  0  0
   10.6430  -15.6236   26.5139 O   0  0  0  0  0  0  0  0  0  0  0  0
   10.9084  -17.8439   26.8617 O   0  0  0  0  0  0  0  0  0  0  0  0
  1  2  1  0
  2  3  2  0
  4  5  1  0
  4  2  1  0
  6  5  1  0
  6  7  1  1
  8  9  2  0
  8  6  1  0
 10 11  1  0
 11 12  2  0
 12 13  1  0
 14 13  2  0
 14 15  1  0
 16 15  1  1
 16 17  1  0
 17  8  1  0
 18 16  1  0
 19 18  2  0
 20 14  1  0
 21 11  1  0
 21 20  2  0
 22 18  1  0
 23 29  1  0
 23 22  1  0
 23 24  1  6
 25 24  1  0
 26 25  1  0
 26 27  1  0
 27 28  1  0
 29 31  1  0
 30 29  2  0
M  END
$$$$
