QYK.pdb
     RDKit          3D

 31 31  0  0  1  0  0  0  0  0999 V2000
   11.0123  -16.3863   18.2795 N   0  0  0  0  0  0  0  0  0  0  0  0
   10.2637  -17.4027   17.6225 C   0  0  0  0  0  0  0  0  0  0  0  0
   10.6103  -17.7157   16.4705 O   0  0  0  0  0  0  0  0  0  0  0  0
    9.1454  -18.0050   18.3519 C   0  0  0  0  0  0  0  0  0  0  0  0
    8.9473  -17.6100   19.7618 C   0  0  0  0  0  0  0  0  0  0  0  0
    9.7538  -18.2904   20.8002 C   0  0  2  0  0  0  0  0  0  0  0  0
    9.6194  -19.7173   20.7127 N   0  0  0  0  0  0  0  0  0  0  0  0
    9.4226  -17.8551   22.1828 C   0  0  0  0  0  0  0  0  0  0  0  0
    8.2397  -17.9361   22.6003 O   0  0  0  0  0  0  0  0  0  0  0  0
   10.6976  -15.6015   30.6983 O   0  0  0  0  0  0  0  0  0  0  0  0
   10.8669  -15.9577   29.3449 C   0  0  0  0  0  0  0  0  0  0  0  0
   10.7460  -17.2650   28.9333 C   0  0  0  0  0  0  0  0  0  0  0  0
   10.9180  -17.5763   27.6030 C   0  0  0  0  0  0  0  0  0  0  0  0
   11.2104  -16.6368   26.6368 C   0  0  0  0  0  0  0  0  0  0  0  0
   11.3837  -17.0147   25.2319 C   0  0  0  0  0  0  0  0  0  0  0  0
   10.1002  -16.8768   24.4225 C   0  0  2  0  0  0  0  0  0  0  0  0
   10.4073  -17.3408   23.0704 N   0  0  0  0  0  0  0  0  0  0  0  0
    9.5502  -15.5271   24.4449 C   0  0  0  0  0  0  0  0  0  0  0  0
   10.1908  -14.6058   23.8344 O   0  0  0  0  0  0  0  0  0  0  0  0
   11.3277  -15.3345   27.0663 C   0  0  0  0  0  0  0  0  0  0  0  0
   11.1588  -15.0076   28.3918 C   0  0  0  0  0  0  0  0  0  0  0  0
    8.3606  -15.1714   25.0914 N   0  0  0  0  0  0  0  0  0  0  0  0
    7.9784  -13.7442   25.1694 C   0  0  1  0  0  0  0  0  0  0  0  0
    6.6619  -13.6181   25.8655 C   0  0  0  0  0  0  0  0  0  0  0  0
    6.2801  -12.1745   26.0198 C   0  0  0  0  0  0  0  0  0  0  0  0
    4.9891  -12.0341   26.8216 C   0  0  0  0  0  0  0  0  0  0  0  0
    4.7260  -10.5433   26.9638 C   0  0  0  0  0  0  0  0  0  0  0  0
    3.4398  -10.4037   27.6126 N   0  0  0  0  0  0  0  0  0  0  0  0
    9.0276  -13.0548   25.9420 C   0  0  0  0  0  0  0  0  0  0  0  0
    9.2762  -11.8305   25.6771 O   0  0  0  0  0  0  0  0  0  0  0  0
    9.7849  -13.6272   26.9556 O   0  0  0  0  0  0  0  0  0  0  0  0
  1  2  1  0
  2  3  2  0
  4  5  1  0
  4  2  1  0
  6  5  1  0
  6  7  1  1
  8  9  2  0
  8  6  1  0
 10 11  1  0
 11 12  2  0
 12 13  1  0
 14 13  2  0
 14 15  1  0
 16 15  1  1
 16 17  1  0
 17  8  1  0
 18 16  1  0
 19 18  2  0
 20 14  1  0
 21 11  1  0
 21 20  2  0
 22 18  1  0
 23 29  1  0
 23 22  1  0
 23 24  1  1
 25 24  1  0
 26 25  1  0
 26 27  1  0
 27 28  1  0
 29 31  1  0
 30 29  2  0
M  END
$$$$
