QYK.pdb
     RDKit          3D

 31 31  0  0  1  0  0  0  0  0999 V2000
    7.6413  -12.9493   16.2778 N   0  0  0  0  0  0  0  0  0  0  0  0
    7.8298  -14.2782   15.8049 C   0  0  0  0  0  0  0  0  0  0  0  0
    7.6015  -14.4964   14.6027 O   0  0  0  0  0  0  0  0  0  0  0  0
    8.2807  -15.2866   16.7669 C   0  0  0  0  0  0  0  0  0  0  0  0
    8.5698  -14.8445   18.1468 C   0  0  0  0  0  0  0  0  0  0  0  0
    8.9556  -15.8680   19.1444 C   0  0  2  0  0  0  0  0  0  0  0  0
    7.9931  -16.9322   19.1983 N   0  0  0  0  0  0  0  0  0  0  0  0
    9.1466  -15.3158   20.5117 C   0  0  0  0  0  0  0  0  0  0  0  0
   10.2306  -14.7579   20.8178 O   0  0  0  0  0  0  0  0  0  0  0  0
    7.0177  -12.3123   28.6145 O   0  0  0  0  0  0  0  0  0  0  0  0
    7.0252  -12.7611   27.2782 C   0  0  0  0  0  0  0  0  0  0  0  0
    7.5747  -11.9971   26.2746 C   0  0  0  0  0  0  0  0  0  0  0  0
    7.5644  -12.4674   24.9805 C   0  0  0  0  0  0  0  0  0  0  0  0
    7.0249  -13.6845   24.6211 C   0  0  0  0  0  0  0  0  0  0  0  0
    7.0377  -14.1446   23.2302 C   0  0  0  0  0  0  0  0  0  0  0  0
    8.3137  -14.8954   22.8700 C   0  0  2  0  0  0  0  0  0  0  0  0
    8.1343  -15.3939   21.5073 N   0  0  0  0  0  0  0  0  0  0  0  0
    8.6450  -15.9514   23.8185 C   0  0  0  0  0  0  0  0  0  0  0  0
    7.9699  -17.0350   23.7728 O   0  0  0  0  0  0  0  0  0  0  0  0
    6.4796  -14.4354   25.6375 C   0  0  0  0  0  0  0  0  0  0  0  0
    6.4822  -13.9794   26.9353 C   0  0  0  0  0  0  0  0  0  0  0  0
    9.6592  -15.8586   24.7789 N   0  0  0  0  0  0  0  0  0  0  0  0
   10.0246  -17.0586   25.5635 C   0  0  1  0  0  0  0  0  0  0  0  0
   11.2093  -17.7212   24.9381 C   0  0  0  0  0  0  0  0  0  0  0  0
   11.6425  -18.9077   25.7493 C   0  0  0  0  0  0  0  0  0  0  0  0
   12.7689  -19.6644   25.0509 C   0  0  0  0  0  0  0  0  0  0  0  0
   13.1711  -20.7991   25.9798 C   0  0  0  0  0  0  0  0  0  0  0  0
   14.2758  -21.4880   25.3475 N   0  0  0  0  0  0  0  0  0  0  0  0
   10.3597  -16.6025   26.9247 C   0  0  0  0  0  0  0  0  0  0  0  0
   10.7305  -17.4701   27.7853 O   0  0  0  0  0  0  0  0  0  0  0  0
   10.3103  -15.2865   27.3650 O   0  0  0  0  0  0  0  0  0  0  0  0
  1  2  1  0
  2  3  2  0
  4  5  1  0
  4  2  1  0
  6  5  1  0
  6  7  1  1
  8  9  2  0
  8  6  1  0
 10 11  1  0
 11 12  2  0
 12 13  1  0
 14 13  2  0
 14 15  1  0
 16 15  1  1
 16 17  1  0
 17  8  1  0
 18 16  1  0
 19 18  2  0
 20 14  1  0
 21 11  1  0
 21 20  2  0
 22 18  1  0
 23 29  1  0
 23 22  1  0
 23 24  1  6
 25 24  1  0
 26 25  1  0
 26 27  1  0
 27 28  1  0
 29 31  1  0
 30 29  2  0
M  END
$$$$
