QYK.pdb
     RDKit          3D

 31 31  0  0  1  0  0  0  0  0999 V2000
   10.5528  -15.8743   15.4817 N   0  0  0  0  0  0  0  0  0  0  0  0
    9.2864  -16.3760   15.8936 C   0  0  0  0  0  0  0  0  0  0  0  0
    8.3247  -16.2055   15.1246 O   0  0  0  0  0  0  0  0  0  0  0  0
    9.2112  -17.0569   17.1883 C   0  0  0  0  0  0  0  0  0  0  0  0
   10.4507  -17.1645   17.9853 C   0  0  0  0  0  0  0  0  0  0  0  0
   10.4020  -17.9185   19.2584 C   0  0  2  0  0  0  0  0  0  0  0  0
    9.2633  -18.7920   19.3037 N   0  0  0  0  0  0  0  0  0  0  0  0
   10.3918  -17.0441   20.4611 C   0  0  0  0  0  0  0  0  0  0  0  0
   11.3888  -16.3247   20.7229 O   0  0  0  0  0  0  0  0  0  0  0  0
    7.4100  -12.0832   17.8806 O   0  0  0  0  0  0  0  0  0  0  0  0
    7.5327  -12.9042   19.0200 C   0  0  0  0  0  0  0  0  0  0  0  0
    6.8805  -14.1131   19.0988 C   0  0  0  0  0  0  0  0  0  0  0  0
    7.0234  -14.8890   20.2273 C   0  0  0  0  0  0  0  0  0  0  0  0
    7.7976  -14.5201   21.3072 C   0  0  0  0  0  0  0  0  0  0  0  0
    7.9212  -15.3795   22.4873 C   0  0  0  0  0  0  0  0  0  0  0  0
    9.2450  -16.1325   22.5314 C   0  0  2  0  0  0  0  0  0  0  0  0
    9.2795  -16.9864   21.3451 N   0  0  0  0  0  0  0  0  0  0  0  0
    9.4403  -16.8775   23.7689 C   0  0  0  0  0  0  0  0  0  0  0  0
    8.5715  -17.7593   24.0842 O   0  0  0  0  0  0  0  0  0  0  0  0
    8.4426  -13.3081   21.2112 C   0  0  0  0  0  0  0  0  0  0  0  0
    8.3099  -12.5216   20.0905 C   0  0  0  0  0  0  0  0  0  0  0  0
   10.5219  -16.6922   24.6381 N   0  0  0  0  0  0  0  0  0  0  0  0
   10.8981  -17.7805   25.5671 C   0  0  1  0  0  0  0  0  0  0  0  0
   12.1721  -18.4113   25.1060 C   0  0  0  0  0  0  0  0  0  0  0  0
   12.6332  -19.4516   26.0853 C   0  0  0  0  0  0  0  0  0  0  0  0
   13.9826  -20.0315   25.6705 C   0  0  0  0  0  0  0  0  0  0  0  0
   14.3350  -21.0922   26.7013 C   0  0  0  0  0  0  0  0  0  0  0  0
   15.5336  -21.7532   26.2311 N   0  0  0  0  0  0  0  0  0  0  0  0
   11.0868  -17.1716   26.8963 C   0  0  0  0  0  0  0  0  0  0  0  0
   11.4432  -15.9470   26.9619 O   0  0  0  0  0  0  0  0  0  0  0  0
   10.9058  -17.8218   28.1099 O   0  0  0  0  0  0  0  0  0  0  0  0
  1  2  1  0
  2  3  2  0
  4  5  1  0
  4  2  1  0
  6  5  1  0
  6  7  1  6
  8  9  2  0
  8  6  1  0
 10 11  1  0
 11 12  2  0
 12 13  1  0
 14 13  2  0
 14 15  1  0
 16 15  1  1
 16 17  1  0
 17  8  1  0
 18 16  1  0
 19 18  2  0
 20 14  1  0
 21 11  1  0
 21 20  2  0
 22 18  1  0
 23 29  1  0
 23 22  1  0
 23 24  1  6
 25 24  1  0
 26 25  1  0
 26 27  1  0
 27 28  1  0
 29 31  1  0
 30 29  2  0
M  END
$$$$
