QYK.pdb
     RDKit          3D

 31 31  0  0  1  0  0  0  0  0999 V2000
    9.3944  -13.4768   15.6634 N   0  0  0  0  0  0  0  0  0  0  0  0
    8.2813  -14.3630   15.6921 C   0  0  0  0  0  0  0  0  0  0  0  0
    7.7011  -14.5893   14.6163 O   0  0  0  0  0  0  0  0  0  0  0  0
    7.9051  -14.9433   16.9832 C   0  0  0  0  0  0  0  0  0  0  0  0
    8.7471  -14.6257   18.1551 C   0  0  0  0  0  0  0  0  0  0  0  0
    8.8497  -15.6306   19.2374 C   0  0  2  0  0  0  0  0  0  0  0  0
    7.7095  -16.5033   19.2482 N   0  0  0  0  0  0  0  0  0  0  0  0
    9.0134  -15.0283   20.5870 C   0  0  0  0  0  0  0  0  0  0  0  0
   10.1113  -14.5114   20.9150 O   0  0  0  0  0  0  0  0  0  0  0  0
    6.8419  -12.2259   28.7695 O   0  0  0  0  0  0  0  0  0  0  0  0
    6.8573  -12.6066   27.4123 C   0  0  0  0  0  0  0  0  0  0  0  0
    7.3136  -11.7486   26.4384 C   0  0  0  0  0  0  0  0  0  0  0  0
    7.3141  -12.1544   25.1225 C   0  0  0  0  0  0  0  0  0  0  0  0
    6.8754  -13.3957   24.7124 C   0  0  0  0  0  0  0  0  0  0  0  0
    6.8957  -13.7845   23.3000 C   0  0  0  0  0  0  0  0  0  0  0  0
    8.1412  -14.5784   22.9256 C   0  0  2  0  0  0  0  0  0  0  0  0
    7.9594  -15.0123   21.5413 N   0  0  0  0  0  0  0  0  0  0  0  0
    8.4097  -15.6864   23.8339 C   0  0  0  0  0  0  0  0  0  0  0  0
    7.6409  -16.7053   23.7842 O   0  0  0  0  0  0  0  0  0  0  0  0
    6.4225  -14.2408   25.6998 C   0  0  0  0  0  0  0  0  0  0  0  0
    6.4156  -13.8501   27.0187 C   0  0  0  0  0  0  0  0  0  0  0  0
    9.4594  -15.7100   24.7598 N   0  0  0  0  0  0  0  0  0  0  0  0
    9.8114  -16.9853   25.4220 C   0  0  1  0  0  0  0  0  0  0  0  0
   11.0337  -17.5589   24.7812 C   0  0  0  0  0  0  0  0  0  0  0  0
   11.3943  -18.8736   25.4097 C   0  0  0  0  0  0  0  0  0  0  0  0
   12.5882  -19.5079   24.7014 C   0  0  0  0  0  0  0  0  0  0  0  0
   12.8042  -20.8675   25.3470 C   0  0  0  0  0  0  0  0  0  0  0  0
   13.7755  -21.5686   24.5348 N   0  0  0  0  0  0  0  0  0  0  0  0
   10.0788  -16.6799   26.8391 C   0  0  0  0  0  0  0  0  0  0  0  0
   10.4777  -15.5061   27.1460 O   0  0  0  0  0  0  0  0  0  0  0  0
    9.9306  -17.5708   27.8939 O   0  0  0  0  0  0  0  0  0  0  0  0
  1  2  1  0
  2  3  2  0
  4  5  1  0
  4  2  1  0
  6  5  1  0
  6  7  1  1
  8  9  2  0
  8  6  1  0
 10 11  1  0
 11 12  2  0
 12 13  1  0
 14 13  2  0
 14 15  1  0
 16 15  1  1
 16 17  1  0
 17  8  1  0
 18 16  1  0
 19 18  2  0
 20 14  1  0
 21 11  1  0
 21 20  2  0
 22 18  1  0
 23 29  1  0
 23 22  1  0
 23 24  1  6
 25 24  1  0
 26 25  1  0
 26 27  1  0
 27 28  1  0
 29 31  1  0
 30 29  2  0
M  END
$$$$
