QYK.pdb
     RDKit          3D

 31 31  0  0  1  0  0  0  0  0999 V2000
    9.5869  -19.9512   17.7559 N   0  0  0  0  0  0  0  0  0  0  0  0
   10.2763  -18.9972   16.9560 C   0  0  0  0  0  0  0  0  0  0  0  0
   10.3712  -19.2314   15.7389 O   0  0  0  0  0  0  0  0  0  0  0  0
   10.8185  -17.8119   17.6243 C   0  0  0  0  0  0  0  0  0  0  0  0
   10.6778  -17.7214   19.0923 C   0  0  0  0  0  0  0  0  0  0  0  0
    9.3860  -17.2551   19.6452 C   0  0  2  0  0  0  0  0  0  0  0  0
    8.6133  -16.5635   18.6521 N   0  0  0  0  0  0  0  0  0  0  0  0
    9.5369  -16.3814   20.8388 C   0  0  0  0  0  0  0  0  0  0  0  0
   10.6815  -16.1364   21.2970 O   0  0  0  0  0  0  0  0  0  0  0  0
    6.8027  -11.9038   28.0898 O   0  0  0  0  0  0  0  0  0  0  0  0
    6.8975  -12.5212   26.8261 C   0  0  0  0  0  0  0  0  0  0  0  0
    6.3773  -13.7759   26.6069 C   0  0  0  0  0  0  0  0  0  0  0  0
    6.4883  -14.3482   25.3594 C   0  0  0  0  0  0  0  0  0  0  0  0
    7.1027  -13.7266   24.2928 C   0  0  0  0  0  0  0  0  0  0  0  0
    7.1962  -14.3743   22.9819 C   0  0  0  0  0  0  0  0  0  0  0  0
    8.5192  -15.1021   22.7778 C   0  0  2  0  0  0  0  0  0  0  0  0
    8.4186  -15.7997   21.4968 N   0  0  0  0  0  0  0  0  0  0  0  0
    8.8602  -15.9924   23.8803 C   0  0  0  0  0  0  0  0  0  0  0  0
    8.1443  -17.0360   24.0547 O   0  0  0  0  0  0  0  0  0  0  0  0
    7.6173  -12.4723   24.5299 C   0  0  0  0  0  0  0  0  0  0  0  0
    7.5144  -11.8872   25.7706 C   0  0  0  0  0  0  0  0  0  0  0  0
    9.9254  -15.7811   24.7636 N   0  0  0  0  0  0  0  0  0  0  0  0
   10.2436  -16.8144   25.7736 C   0  0  1  0  0  0  0  0  0  0  0  0
   11.6305  -17.3229   25.5465 C   0  0  0  0  0  0  0  0  0  0  0  0
   11.6682  -18.2512   24.3673 C   0  0  0  0  0  0  0  0  0  0  0  0
   13.0821  -18.7741   24.1293 C   0  0  0  0  0  0  0  0  0  0  0  0
   13.0249  -19.6231   22.8692 C   0  0  0  0  0  0  0  0  0  0  0  0
   14.3655  -20.1145   22.6326 N   0  0  0  0  0  0  0  0  0  0  0  0
   10.1505  -16.1718   27.0971 C   0  0  0  0  0  0  0  0  0  0  0  0
   10.0963  -14.8971   27.1545 O   0  0  0  0  0  0  0  0  0  0  0  0
   10.1128  -16.8410   28.3132 O   0  0  0  0  0  0  0  0  0  0  0  0
  1  2  1  0
  2  3  2  0
  4  5  1  0
  4  2  1  0
  6  5  1  0
  6  7  1  6
  8  9  2  0
  8  6  1  0
 10 11  1  0
 11 12  2  0
 12 13  1  0
 14 13  2  0
 14 15  1  0
 16 15  1  1
 16 17  1  0
 17  8  1  0
 18 16  1  0
 19 18  2  0
 20 14  1  0
 21 11  1  0
 21 20  2  0
 22 18  1  0
 23 29  1  0
 23 22  1  0
 23 24  1  6
 25 24  1  0
 26 25  1  0
 26 27  1  0
 27 28  1  0
 29 31  1  0
 30 29  2  0
M  END
$$$$
