QYK.pdb
     RDKit          3D

 31 31  0  0  1  0  0  0  0  0999 V2000
   12.9121  -19.4446   18.4249 N   0  0  0  0  0  0  0  0  0  0  0  0
   12.0745  -18.7912   17.4780 C   0  0  0  0  0  0  0  0  0  0  0  0
   12.1133  -19.1957   16.3032 O   0  0  0  0  0  0  0  0  0  0  0  0
   11.2288  -17.6957   17.9577 C   0  0  0  0  0  0  0  0  0  0  0  0
   11.2394  -17.3973   19.4047 C   0  0  0  0  0  0  0  0  0  0  0  0
    9.9492  -17.4014   20.1307 C   0  0  2  0  0  0  0  0  0  0  0  0
    8.8631  -17.0360   19.2654 N   0  0  0  0  0  0  0  0  0  0  0  0
    9.9409  -16.5126   21.3227 C   0  0  0  0  0  0  0  0  0  0  0  0
   11.0166  -16.2498   21.9175 O   0  0  0  0  0  0  0  0  0  0  0  0
    6.4116  -11.5821   27.9035 O   0  0  0  0  0  0  0  0  0  0  0  0
    6.6465  -12.2876   26.7059 C   0  0  0  0  0  0  0  0  0  0  0  0
    6.0504  -13.5048   26.4692 C   0  0  0  0  0  0  0  0  0  0  0  0
    6.3029  -14.1659   25.2879 C   0  0  0  0  0  0  0  0  0  0  0  0
    7.1352  -13.6712   24.3060 C   0  0  0  0  0  0  0  0  0  0  0  0
    7.3734  -14.4099   23.0633 C   0  0  0  0  0  0  0  0  0  0  0  0
    8.6851  -15.1850   23.0812 C   0  0  2  0  0  0  0  0  0  0  0  0
    8.7434  -15.9360   21.8281 N   0  0  0  0  0  0  0  0  0  0  0  0
    8.8333  -16.0348   24.2561 C   0  0  0  0  0  0  0  0  0  0  0  0
    8.0198  -17.0090   24.4008 O   0  0  0  0  0  0  0  0  0  0  0  0
    7.7229  -12.4528   24.5596 C   0  0  0  0  0  0  0  0  0  0  0  0
    7.4807  -11.7802   25.7348 C   0  0  0  0  0  0  0  0  0  0  0  0
    9.8128  -15.8556   25.2400 N   0  0  0  0  0  0  0  0  0  0  0  0
   10.0064  -16.9026   26.2673 C   0  0  1  0  0  0  0  0  0  0  0  0
   11.3110  -17.5937   26.0349 C   0  0  0  0  0  0  0  0  0  0  0  0
   11.5495  -18.6421   27.0825 C   0  0  0  0  0  0  0  0  0  0  0  0
   12.8228  -19.4297   26.7866 C   0  0  0  0  0  0  0  0  0  0  0  0
   12.9731  -20.4487   27.9050 C   0  0  0  0  0  0  0  0  0  0  0  0
   14.1963  -21.1781   27.6471 N   0  0  0  0  0  0  0  0  0  0  0  0
   10.0171  -16.2286   27.5783 C   0  0  0  0  0  0  0  0  0  0  0  0
   10.3375  -14.9933   27.6271 O   0  0  0  0  0  0  0  0  0  0  0  0
    9.7011  -16.8270   28.7909 O   0  0  0  0  0  0  0  0  0  0  0  0
  1  2  1  0
  2  3  2  0
  4  5  1  0
  4  2  1  0
  6  5  1  0
  6  7  1  6
  8  9  2  0
  8  6  1  0
 10 11  1  0
 11 12  2  0
 12 13  1  0
 14 13  2  0
 14 15  1  0
 16 15  1  1
 16 17  1  0
 17  8  1  0
 18 16  1  0
 19 18  2  0
 20 14  1  0
 21 11  1  0
 21 20  2  0
 22 18  1  0
 23 29  1  0
 23 22  1  0
 23 24  1  6
 25 24  1  0
 26 25  1  0
 26 27  1  0
 27 28  1  0
 29 31  1  0
 30 29  2  0
M  END
$$$$
