QYK.pdb
     RDKit          3D

 31 31  0  0  1  0  0  0  0  0999 V2000
    8.4876  -16.5669   16.9434 N   0  0  0  0  0  0  0  0  0  0  0  0
    9.2983  -17.7306   17.0599 C   0  0  0  0  0  0  0  0  0  0  0  0
    8.8597  -18.7859   16.5710 O   0  0  0  0  0  0  0  0  0  0  0  0
   10.5873  -17.5978   17.7428 C   0  0  0  0  0  0  0  0  0  0  0  0
   10.6589  -16.7014   18.9152 C   0  0  0  0  0  0  0  0  0  0  0  0
   10.3645  -17.2691   20.2505 C   0  0  2  0  0  0  0  0  0  0  0  0
    9.1445  -18.0261   20.2375 N   0  0  0  0  0  0  0  0  0  0  0  0
   10.2880  -16.2425   21.3234 C   0  0  0  0  0  0  0  0  0  0  0  0
   11.2941  -15.5385   21.5918 O   0  0  0  0  0  0  0  0  0  0  0  0
    6.4944  -11.2063   27.6725 O   0  0  0  0  0  0  0  0  0  0  0  0
    6.7507  -12.0670   26.5859 C   0  0  0  0  0  0  0  0  0  0  0  0
    6.3216  -13.3741   26.5977 C   0  0  0  0  0  0  0  0  0  0  0  0
    6.5900  -14.1863   25.5186 C   0  0  0  0  0  0  0  0  0  0  0  0
    7.2778  -13.7598   24.4021 C   0  0  0  0  0  0  0  0  0  0  0  0
    7.5392  -14.6601   23.2761 C   0  0  0  0  0  0  0  0  0  0  0  0
    9.0104  -15.0371   23.1529 C   0  0  2  0  0  0  0  0  0  0  0  0
    9.1008  -16.0191   22.0736 N   0  0  0  0  0  0  0  0  0  0  0  0
    9.5861  -15.5174   24.4029 C   0  0  0  0  0  0  0  0  0  0  0  0
    9.7214  -14.6850   25.3624 O   0  0  0  0  0  0  0  0  0  0  0  0
    7.6995  -12.4497   24.4074 C   0  0  0  0  0  0  0  0  0  0  0  0
    7.4393  -11.6259   25.4778 C   0  0  0  0  0  0  0  0  0  0  0  0
   10.0007  -16.8360   24.6244 N   0  0  0  0  0  0  0  0  0  0  0  0
   10.5349  -17.2132   25.9515 C   0  0  1  0  0  0  0  0  0  0  0  0
    9.7885  -18.3994   26.4705 C   0  0  0  0  0  0  0  0  0  0  0  0
   10.3658  -18.8585   27.7780 C   0  0  0  0  0  0  0  0  0  0  0  0
    9.7312  -20.1730   28.2233 C   0  0  0  0  0  0  0  0  0  0  0  0
   10.3196  -20.4995   29.5869 C   0  0  0  0  0  0  0  0  0  0  0  0
    9.5805  -21.6318   30.1031 N   0  0  0  0  0  0  0  0  0  0  0  0
   11.9578  -17.5515   25.7672 C   0  0  0  0  0  0  0  0  0  0  0  0
   12.3180  -18.1005   24.6718 O   0  0  0  0  0  0  0  0  0  0  0  0
   12.9645  -17.3200   26.6952 O   0  0  0  0  0  0  0  0  0  0  0  0
  1  2  1  0
  2  3  2  0
  4  5  1  0
  4  2  1  0
  6  5  1  0
  6  7  1  6
  8  9  2  0
  8  6  1  0
 10 11  1  0
 11 12  2  0
 12 13  1  0
 14 13  2  0
 14 15  1  0
 16 15  1  1
 16 17  1  0
 17  8  1  0
 18 16  1  0
 19 18  2  0
 20 14  1  0
 21 11  1  0
 21 20  2  0
 22 18  1  0
 23 29  1  0
 23 22  1  0
 23 24  1  6
 25 24  1  0
 26 25  1  0
 26 27  1  0
 27 28  1  0
 29 31  1  0
 30 29  2  0
M  END
$$$$
