QYK.pdb
     RDKit          3D

 31 31  0  0  1  0  0  0  0  0999 V2000
   13.4119  -17.6317   16.6931 N   0  0  0  0  0  0  0  0  0  0  0  0
   12.5405  -18.3717   17.5406 C   0  0  0  0  0  0  0  0  0  0  0  0
   12.9146  -19.5009   17.9015 O   0  0  0  0  0  0  0  0  0  0  0  0
   11.2725  -17.7481   17.9261 C   0  0  0  0  0  0  0  0  0  0  0  0
   11.1913  -17.1140   19.2582 C   0  0  0  0  0  0  0  0  0  0  0  0
   10.0433  -17.4558   20.1283 C   0  0  2  0  0  0  0  0  0  0  0  0
    8.7946  -17.2288   19.4569 N   0  0  0  0  0  0  0  0  0  0  0  0
   10.0421  -16.7179   21.4192 C   0  0  0  0  0  0  0  0  0  0  0  0
   11.0413  -16.7806   22.1792 O   0  0  0  0  0  0  0  0  0  0  0  0
    6.6058  -11.8225   28.0883 O   0  0  0  0  0  0  0  0  0  0  0  0
    6.8591  -12.4508   26.8521 C   0  0  0  0  0  0  0  0  0  0  0  0
    5.8312  -12.9396   26.0792 C   0  0  0  0  0  0  0  0  0  0  0  0
    6.1159  -13.5476   24.8769 C   0  0  0  0  0  0  0  0  0  0  0  0
    7.3969  -13.6997   24.3896 C   0  0  0  0  0  0  0  0  0  0  0  0
    7.6520  -14.3528   23.1032 C   0  0  0  0  0  0  0  0  0  0  0  0
    8.8841  -15.2488   23.1317 C   0  0  2  0  0  0  0  0  0  0  0  0
    8.9361  -15.9286   21.8384 N   0  0  0  0  0  0  0  0  0  0  0  0
    8.8938  -16.1750   24.2572 C   0  0  0  0  0  0  0  0  0  0  0  0
    7.9320  -17.0096   24.3582 O   0  0  0  0  0  0  0  0  0  0  0  0
    8.4126  -13.2051   25.1757 C   0  0  0  0  0  0  0  0  0  0  0  0
    8.1444  -12.5952   26.3792 C   0  0  0  0  0  0  0  0  0  0  0  0
    9.8917  -16.2130   25.2382 N   0  0  0  0  0  0  0  0  0  0  0  0
    9.9211  -17.3394   26.1971 C   0  0  1  0  0  0  0  0  0  0  0  0
   10.9225  -18.3526   25.7452 C   0  0  0  0  0  0  0  0  0  0  0  0
   10.9744  -19.5093   26.7008 C   0  0  0  0  0  0  0  0  0  0  0  0
   11.9034  -20.6038   26.1830 C   0  0  0  0  0  0  0  0  0  0  0  0
   11.9007  -21.7069   27.2295 C   0  0  0  0  0  0  0  0  0  0  0  0
   12.6752  -22.8026   26.6868 N   0  0  0  0  0  0  0  0  0  0  0  0
   10.3155  -16.7863   27.5053 C   0  0  0  0  0  0  0  0  0  0  0  0
    9.8776  -17.3507   28.5640 O   0  0  0  0  0  0  0  0  0  0  0  0
   11.1400  -15.6852   27.6956 O   0  0  0  0  0  0  0  0  0  0  0  0
  1  2  1  0
  2  3  2  0
  4  5  1  0
  4  2  1  0
  6  5  1  0
  6  7  1  6
  8  9  2  0
  8  6  1  0
 10 11  1  0
 11 12  2  0
 12 13  1  0
 14 13  2  0
 14 15  1  0
 16 15  1  6
 16 17  1  0
 17  8  1  0
 18 16  1  0
 19 18  2  0
 20 14  1  0
 21 11  1  0
 21 20  2  0
 22 18  1  0
 23 29  1  0
 23 22  1  0
 23 24  1  6
 25 24  1  0
 26 25  1  0
 26 27  1  0
 27 28  1  0
 29 31  1  0
 30 29  2  0
M  END
$$$$
