GDN.pdb
     RDKit          3D

 21 20  0  0  1  0  0  0  0  0999 V2000
   13.2241  -14.1888  -13.0068 N   0  0  0  0  0  0  0  0  0  0  0  0
   13.5477  -13.1856  -14.0047 C   0  0  0  0  0  0  0  0  0  0  0  0
   14.6882  -12.3927  -13.4545 C   0  0  0  0  0  0  0  0  0  0  0  0
   15.4193  -12.7921  -12.5179 O   0  0  0  0  0  0  0  0  0  0  0  0
   15.0334  -11.0952  -13.9688 N   0  0  0  0  0  0  0  0  0  0  0  0
   16.0931  -10.3120  -13.4653 C   0  0  1  0  0  0  0  0  0  0  0  0
   16.9933   -9.6854  -14.4813 C   0  0  0  0  0  0  0  0  0  0  0  0
   18.1284   -8.9330  -13.8762 C   0  0  0  0  0  0  0  0  0  0  0  0
   18.7817   -9.3852  -12.8922 O   0  0  0  0  0  0  0  0  0  0  0  0
   15.5525   -9.2273  -12.6124 C   0  0  0  0  0  0  0  0  0  0  0  0
   14.5551   -8.5771  -13.0148 O   0  0  0  0  0  0  0  0  0  0  0  0
   18.5355   -7.6904  -14.3573 O   0  0  0  0  0  0  0  0  0  0  0  0
   15.6243   -6.5872   -7.2600 N   0  0  0  0  0  0  0  0  0  0  0  0
   14.8456   -7.1507   -8.2989 C   0  0  0  0  0  0  0  0  0  0  0  0
   13.6947   -6.7256   -8.5095 O   0  0  0  0  0  0  0  0  0  0  0  0
   15.3916   -8.2353   -9.1290 C   0  0  0  0  0  0  0  0  0  0  0  0
   15.5260   -7.7870  -10.5431 C   0  0  2  0  0  0  0  0  0  0  0  0
   16.0985   -8.8762  -11.3568 N   0  0  0  0  0  0  0  0  0  0  0  0
   16.3195   -6.5718  -10.7305 C   0  0  0  0  0  0  0  0  0  0  0  0
   17.5582   -6.6638  -11.3894 O   0  0  0  0  0  0  0  0  0  0  0  0
   15.9375   -5.4458  -10.3252 O   0  0  0  0  0  0  0  0  0  0  0  0
  1  2  1  0
  2  3  1  0
  3  4  2  0
  5  6  1  0
  5  3  1  0
  7  8  1  0
  6  7  1  6
  8  9  2  0
 10  6  1  0
 11 10  2  0
 12  8  1  0
 13 14  1  0
 14 16  1  0
 14 15  2  0
 17 16  1  1
 17 18  1  0
 17 19  1  0
 18 10  1  0
 19 21  2  0
 19 20  1  0
M  END
$$$$
