GDN.pdb
     RDKit          3D

 21 20  0  0  1  0  0  0  0  0999 V2000
   17.4681  -12.4713  -15.3301 N   0  0  0  0  0  0  0  0  0  0  0  0
   18.7507  -11.9620  -15.7800 C   0  0  0  0  0  0  0  0  0  0  0  0
   18.5756  -10.4922  -15.9833 C   0  0  0  0  0  0  0  0  0  0  0  0
   19.1631   -9.8439  -16.8810 O   0  0  0  0  0  0  0  0  0  0  0  0
   17.7069   -9.7052  -15.1507 N   0  0  0  0  0  0  0  0  0  0  0  0
   17.4927   -8.3228  -15.3320 C   0  0  1  0  0  0  0  0  0  0  0  0
   16.2339   -7.7663  -14.7482 C   0  0  0  0  0  0  0  0  0  0  0  0
   16.0017   -6.3383  -15.1055 C   0  0  0  0  0  0  0  0  0  0  0  0
   16.1549   -5.9107  -16.2859 O   0  0  0  0  0  0  0  0  0  0  0  0
   18.6289   -7.5613  -14.7616 C   0  0  0  0  0  0  0  0  0  0  0  0
   19.0158   -7.8280  -13.5959 O   0  0  0  0  0  0  0  0  0  0  0  0
   15.6036   -5.3928  -14.1629 O   0  0  0  0  0  0  0  0  0  0  0  0
   22.6678   -4.4989  -14.0302 N   0  0  0  0  0  0  0  0  0  0  0  0
   22.8759   -5.6068  -14.8861 C   0  0  0  0  0  0  0  0  0  0  0  0
   24.0354   -5.9590  -15.1711 O   0  0  0  0  0  0  0  0  0  0  0  0
   21.7281   -6.3419  -15.4388 C   0  0  0  0  0  0  0  0  0  0  0  0
   20.4562   -5.8266  -14.8596 C   0  0  2  0  0  0  0  0  0  0  0  0
   19.3126   -6.5398  -15.4595 N   0  0  0  0  0  0  0  0  0  0  0  0
   20.2564   -4.3837  -14.9995 C   0  0  0  0  0  0  0  0  0  0  0  0
   20.8501   -3.5213  -14.0610 O   0  0  0  0  0  0  0  0  0  0  0  0
   19.5736   -3.8825  -15.9272 O   0  0  0  0  0  0  0  0  0  0  0  0
  1  2  1  0
  2  3  1  0
  3  4  2  0
  5  6  1  0
  5  3  1  0
  7  8  1  0
  6  7  1  1
  8  9  2  0
 10  6  1  0
 11 10  2  0
 12  8  1  0
 13 14  1  0
 14 16  1  0
 14 15  2  0
 17 16  1  6
 17 18  1  0
 17 19  1  0
 18 10  1  0
 19 21  2  0
 19 20  1  0
M  END
$$$$
