GDN.pdb
     RDKit          3D

 21 20  0  0  1  0  0  0  0  0999 V2000
   16.1823  -14.5294  -16.1682 N   0  0  0  0  0  0  0  0  0  0  0  0
   17.1523  -13.8655  -15.3167 C   0  0  0  0  0  0  0  0  0  0  0  0
   17.1774  -12.4327  -15.7395 C   0  0  0  0  0  0  0  0  0  0  0  0
   18.0325  -11.9584  -16.5237 O   0  0  0  0  0  0  0  0  0  0  0  0
   16.2067  -11.4818  -15.2696 N   0  0  0  0  0  0  0  0  0  0  0  0
   16.1539  -10.1405  -15.7031 C   0  0  1  0  0  0  0  0  0  0  0  0
   14.8458   -9.4388  -15.5252 C   0  0  0  0  0  0  0  0  0  0  0  0
   13.7385  -10.0514  -16.3123 C   0  0  0  0  0  0  0  0  0  0  0  0
   13.6859   -9.9637  -17.5729 O   0  0  0  0  0  0  0  0  0  0  0  0
   17.1900   -9.3465  -15.0015 C   0  0  0  0  0  0  0  0  0  0  0  0
   17.2315   -9.3752  -13.7457 O   0  0  0  0  0  0  0  0  0  0  0  0
   12.6987  -10.7543  -15.7075 O   0  0  0  0  0  0  0  0  0  0  0  0
   22.3673   -8.4570  -13.4351 N   0  0  0  0  0  0  0  0  0  0  0  0
   21.5795   -7.8098  -14.4167 C   0  0  0  0  0  0  0  0  0  0  0  0
   21.7993   -6.6173  -14.6987 O   0  0  0  0  0  0  0  0  0  0  0  0
   20.5038   -8.5409  -15.1036 C   0  0  0  0  0  0  0  0  0  0  0  0
   19.2049   -7.8324  -14.9316 C   0  0  2  0  0  0  0  0  0  0  0  0
   18.1471   -8.5489  -15.6691 N   0  0  0  0  0  0  0  0  0  0  0  0
   19.2126   -6.4263  -15.3369 C   0  0  0  0  0  0  0  0  0  0  0  0
   19.2764   -5.4330  -14.3438 O   0  0  0  0  0  0  0  0  0  0  0  0
   19.1643   -6.0693  -16.5404 O   0  0  0  0  0  0  0  0  0  0  0  0
  1  2  1  0
  2  3  1  0
  3  4  2  0
  5  6  1  0
  5  3  1  0
  7  8  1  0
  6  7  1  1
  8  9  2  0
 10  6  1  0
 11 10  2  0
 12  8  1  0
 13 14  1  0
 14 16  1  0
 14 15  2  0
 17 16  1  6
 17 18  1  0
 17 19  1  0
 18 10  1  0
 19 21  2  0
 19 20  1  0
M  END
$$$$
