GDN.pdb
     RDKit          3D

 21 20  0  0  1  0  0  0  0  0999 V2000
   22.1233  -12.9733  -20.2756 N   0  0  0  0  0  0  0  0  0  0  0  0
   21.9849  -11.7369  -21.0233 C   0  0  0  0  0  0  0  0  0  0  0  0
   22.4170  -10.6375  -20.1084 C   0  0  0  0  0  0  0  0  0  0  0  0
   23.1485  -10.8193  -19.1069 O   0  0  0  0  0  0  0  0  0  0  0  0
   22.0183   -9.2718  -20.3158 N   0  0  0  0  0  0  0  0  0  0  0  0
   22.4418   -8.2020  -19.4997 C   0  0  1  0  0  0  0  0  0  0  0  0
   22.6881   -6.8996  -20.1913 C   0  0  0  0  0  0  0  0  0  0  0  0
   23.3340   -5.8819  -19.3151 C   0  0  0  0  0  0  0  0  0  0  0  0
   23.6179   -6.1232  -18.1065 O   0  0  0  0  0  0  0  0  0  0  0  0
   21.4439   -7.9626  -18.4305 C   0  0  0  0  0  0  0  0  0  0  0  0
   20.2214   -8.0470  -18.7097 O   0  0  0  0  0  0  0  0  0  0  0  0
   23.6617   -4.6080  -19.7742 O   0  0  0  0  0  0  0  0  0  0  0  0
   18.9409   -7.3405  -14.0509 N   0  0  0  0  0  0  0  0  0  0  0  0
   20.1040   -8.1088  -13.8060 C   0  0  0  0  0  0  0  0  0  0  0  0
   20.2773   -8.6296  -12.6886 O   0  0  0  0  0  0  0  0  0  0  0  0
   21.1067   -8.2935  -14.8661 C   0  0  0  0  0  0  0  0  0  0  0  0
   20.7615   -7.4650  -16.0548 C   0  0  2  0  0  0  0  0  0  0  0  0
   21.7894   -7.6412  -17.0982 N   0  0  0  0  0  0  0  0  0  0  0  0
   20.5871   -6.0381  -15.7807 C   0  0  0  0  0  0  0  0  0  0  0  0
   19.4802   -5.6226  -15.0198 O   0  0  0  0  0  0  0  0  0  0  0  0
   21.3890   -5.1663  -16.1991 O   0  0  0  0  0  0  0  0  0  0  0  0
  1  2  1  0
  2  3  1  0
  3  4  2  0
  5  6  1  0
  5  3  1  0
  7  8  1  0
  6  7  1  6
  8  9  2  0
 10  6  1  0
 11 10  2  0
 12  8  1  0
 13 14  1  0
 14 16  1  0
 14 15  2  0
 17 16  1  1
 17 18  1  0
 17 19  1  0
 18 10  1  0
 19 21  2  0
 19 20  1  0
M  END
$$$$
