GDN.pdb
     RDKit          3D

 21 20  0  0  1  0  0  0  0  0999 V2000
   28.5161  -22.5780  -17.3120 N   0  0  0  0  0  0  0  0  0  0  0  0
   27.1144  -22.8135  -17.0175 C   0  0  0  0  0  0  0  0  0  0  0  0
   26.7129  -21.7822  -16.0137 C   0  0  0  0  0  0  0  0  0  0  0  0
   27.4806  -20.8791  -15.6059 O   0  0  0  0  0  0  0  0  0  0  0  0
   25.3968  -21.7522  -15.4357 N   0  0  0  0  0  0  0  0  0  0  0  0
   24.9770  -20.7848  -14.4988 C   0  0  1  0  0  0  0  0  0  0  0  0
   23.5406  -20.3760  -14.5685 C   0  0  0  0  0  0  0  0  0  0  0  0
   23.2218  -19.5513  -15.7681 C   0  0  0  0  0  0  0  0  0  0  0  0
   23.7479  -18.4172  -15.9591 O   0  0  0  0  0  0  0  0  0  0  0  0
   25.2406  -21.2718  -13.1242 C   0  0  0  0  0  0  0  0  0  0  0  0
   24.7650  -22.3799  -12.7700 O   0  0  0  0  0  0  0  0  0  0  0  0
   22.3276  -19.9797  -16.7468 O   0  0  0  0  0  0  0  0  0  0  0  0
   29.7199  -20.0555  -11.3939 N   0  0  0  0  0  0  0  0  0  0  0  0
   28.6766  -20.9582  -11.0780 C   0  0  0  0  0  0  0  0  0  0  0  0
   28.7381  -22.1372  -11.4728 O   0  0  0  0  0  0  0  0  0  0  0  0
   27.5220  -20.5080  -10.2859 C   0  0  0  0  0  0  0  0  0  0  0  0
   26.2636  -21.0935  -10.8266 C   0  0  2  0  0  0  0  0  0  0  0  0
   26.0052  -20.5553  -12.1756 N   0  0  0  0  0  0  0  0  0  0  0  0
   25.0812  -20.8918   -9.9884 C   0  0  0  0  0  0  0  0  0  0  0  0
   25.0647  -21.4392   -8.6933 O   0  0  0  0  0  0  0  0  0  0  0  0
   24.0766  -20.2473  -10.3802 O   0  0  0  0  0  0  0  0  0  0  0  0
  1  2  1  0
  2  3  1  0
  3  4  2  0
  5  6  1  0
  5  3  1  0
  7  8  1  0
  6  7  1  1
  8  9  2  0
 10  6  1  0
 11 10  2  0
 12  8  1  0
 13 14  1  0
 14 16  1  0
 14 15  2  0
 17 16  1  1
 17 18  1  0
 17 19  1  0
 18 10  1  0
 19 21  2  0
 19 20  1  0
M  END
$$$$
