GDN.pdb
     RDKit          3D

 21 20  0  0  1  0  0  0  0  0999 V2000
   12.6419  -11.0513   -9.1465 N   0  0  0  0  0  0  0  0  0  0  0  0
   13.2504   -9.7335   -9.1421 C   0  0  0  0  0  0  0  0  0  0  0  0
   13.9472   -9.5838  -10.4552 C   0  0  0  0  0  0  0  0  0  0  0  0
   14.0998  -10.5258  -11.2679 O   0  0  0  0  0  0  0  0  0  0  0  0
   14.5004   -8.3287  -10.8864 N   0  0  0  0  0  0  0  0  0  0  0  0
   15.0205   -8.1071  -12.1787 C   0  0  1  0  0  0  0  0  0  0  0  0
   14.3384   -7.0568  -12.9953 C   0  0  0  0  0  0  0  0  0  0  0  0
   14.7693   -7.0496  -14.4218 C   0  0  0  0  0  0  0  0  0  0  0  0
   15.2202   -8.0858  -14.9896 O   0  0  0  0  0  0  0  0  0  0  0  0
   16.4545   -7.7447  -12.0857 C   0  0  0  0  0  0  0  0  0  0  0  0
   16.8342   -7.0011  -11.1462 O   0  0  0  0  0  0  0  0  0  0  0  0
   14.7014   -5.9039  -15.2117 O   0  0  0  0  0  0  0  0  0  0  0  0
   22.1006   -9.3610  -13.0390 N   0  0  0  0  0  0  0  0  0  0  0  0
   21.0905   -8.5995  -12.4041 C   0  0  0  0  0  0  0  0  0  0  0  0
   21.4012   -7.6017  -11.7277 O   0  0  0  0  0  0  0  0  0  0  0  0
   19.6772   -8.9831  -12.5410 C   0  0  0  0  0  0  0  0  0  0  0  0
   18.8480   -7.7921  -12.8769 C   0  0  2  0  0  0  0  0  0  0  0  0
   17.4334   -8.1914  -13.0022 N   0  0  0  0  0  0  0  0  0  0  0  0
   19.2598   -7.0767  -14.0852 C   0  0  0  0  0  0  0  0  0  0  0  0
   20.1935   -6.0316  -13.9715 O   0  0  0  0  0  0  0  0  0  0  0  0
   18.8112   -7.3593  -15.2242 O   0  0  0  0  0  0  0  0  0  0  0  0
  1  2  1  0
  2  3  1  0
  3  4  2  0
  5  6  1  0
  5  3  1  0
  7  8  1  0
  6  7  1  1
  8  9  2  0
 10  6  1  0
 11 10  2  0
 12  8  1  0
 13 14  1  0
 14 16  1  0
 14 15  2  0
 17 16  1  6
 17 18  1  0
 17 19  1  0
 18 10  1  0
 19 21  2  0
 19 20  1  0
M  END
$$$$
