GDN.pdb
     RDKit          3D

 21 20  0  0  1  0  0  0  0  0999 V2000
   26.9881  -24.3905  -16.0604 N   0  0  0  0  0  0  0  0  0  0  0  0
   27.1642  -22.9799  -15.7667 C   0  0  0  0  0  0  0  0  0  0  0  0
   26.0191  -22.5825  -14.8933 C   0  0  0  0  0  0  0  0  0  0  0  0
   24.8663  -23.0621  -15.0042 O   0  0  0  0  0  0  0  0  0  0  0  0
   26.1608  -21.6066  -13.8469 N   0  0  0  0  0  0  0  0  0  0  0  0
   25.0828  -21.1306  -13.0716 C   0  0  1  0  0  0  0  0  0  0  0  0
   25.4289  -20.5781  -11.7262 C   0  0  0  0  0  0  0  0  0  0  0  0
   25.0456  -21.4805  -10.6039 C   0  0  0  0  0  0  0  0  0  0  0  0
   23.8445  -21.8188  -10.3981 O   0  0  0  0  0  0  0  0  0  0  0  0
   24.3563  -20.0765  -13.8182 C   0  0  0  0  0  0  0  0  0  0  0  0
   24.9943  -19.3513  -14.6222 O   0  0  0  0  0  0  0  0  0  0  0  0
   25.9852  -22.0028   -9.7177 O   0  0  0  0  0  0  0  0  0  0  0  0
   21.1642  -21.4887  -17.8722 N   0  0  0  0  0  0  0  0  0  0  0  0
   21.7310  -20.4183  -17.1402 C   0  0  0  0  0  0  0  0  0  0  0  0
   21.6068  -19.2511  -17.5548 O   0  0  0  0  0  0  0  0  0  0  0  0
   22.4651  -20.6805  -15.8928 C   0  0  0  0  0  0  0  0  0  0  0  0
   22.0911  -19.6820  -14.8527 C   0  0  2  0  0  0  0  0  0  0  0  0
   22.9707  -19.8353  -13.6784 N   0  0  0  0  0  0  0  0  0  0  0  0
   20.6932  -19.7353  -14.4230 C   0  0  0  0  0  0  0  0  0  0  0  0
   19.8069  -18.7386  -14.8680 O   0  0  0  0  0  0  0  0  0  0  0  0
   20.2514  -20.6385  -13.6699 O   0  0  0  0  0  0  0  0  0  0  0  0
  1  2  1  0
  2  3  1  0
  3  4  2  0
  5  6  1  0
  5  3  1  0
  7  8  1  0
  6  7  1  1
  8  9  2  0
 10  6  1  0
 11 10  2  0
 12  8  1  0
 13 14  1  0
 14 16  1  0
 14 15  2  0
 17 16  1  6
 17 18  1  0
 17 19  1  0
 18 10  1  0
 19 21  2  0
 19 20  1  0
M  END
$$$$
