GDN.pdb
     RDKit          3D

 21 20  0  0  1  0  0  0  0  0999 V2000
   10.7851   -9.8848   -8.4686 N   0  0  0  0  0  0  0  0  0  0  0  0
   11.1320   -9.6170   -9.8525 C   0  0  0  0  0  0  0  0  0  0  0  0
   12.6199   -9.7165   -9.9435 C   0  0  0  0  0  0  0  0  0  0  0  0
   13.3812   -9.6161   -8.9528 O   0  0  0  0  0  0  0  0  0  0  0  0
   13.2944   -9.9385  -11.1937 N   0  0  0  0  0  0  0  0  0  0  0  0
   14.6954  -10.0481  -11.3168 C   0  0  1  0  0  0  0  0  0  0  0  0
   15.1983  -10.7899  -12.5134 C   0  0  0  0  0  0  0  0  0  0  0  0
   14.8670  -12.2426  -12.4863 C   0  0  0  0  0  0  0  0  0  0  0  0
   13.8248  -12.6804  -11.9191 O   0  0  0  0  0  0  0  0  0  0  0  0
   15.3033   -8.6967  -11.3363 C   0  0  0  0  0  0  0  0  0  0  0  0
   14.8507   -7.8377  -12.1343 O   0  0  0  0  0  0  0  0  0  0  0  0
   15.6836  -13.2013  -13.0821 O   0  0  0  0  0  0  0  0  0  0  0  0
   14.9534   -5.3551   -9.4141 N   0  0  0  0  0  0  0  0  0  0  0  0
   16.0409   -5.6851   -8.5706 C   0  0  0  0  0  0  0  0  0  0  0  0
   16.0573   -5.2774   -7.3944 O   0  0  0  0  0  0  0  0  0  0  0  0
   17.1498   -6.5070   -9.0787 C   0  0  0  0  0  0  0  0  0  0  0  0
   16.8822   -6.9258  -10.4829 C   0  0  2  0  0  0  0  0  0  0  0  0
   16.3754   -8.3111  -10.4998 N   0  0  0  0  0  0  0  0  0  0  0  0
   18.0280   -6.8166  -11.3866 C   0  0  0  0  0  0  0  0  0  0  0  0
   18.5307   -5.5404  -11.6956 O   0  0  0  0  0  0  0  0  0  0  0  0
   18.5828   -7.8204  -11.8993 O   0  0  0  0  0  0  0  0  0  0  0  0
  1  2  1  0
  2  3  1  0
  3  4  2  0
  5  6  1  0
  5  3  1  0
  7  8  1  0
  6  7  1  6
  8  9  2  0
 10  6  1  0
 11 10  2  0
 12  8  1  0
 13 14  1  0
 14 16  1  0
 14 15  2  0
 17 16  1  1
 17 18  1  0
 17 19  1  0
 18 10  1  0
 19 21  2  0
 19 20  1  0
M  END
$$$$
