GDN.pdb
     RDKit          3D

 21 20  0  0  1  0  0  0  0  0999 V2000
   25.4295  -20.6124   -8.8769 N   0  0  0  0  0  0  0  0  0  0  0  0
   25.9199  -21.3297  -10.0397 C   0  0  0  0  0  0  0  0  0  0  0  0
   25.2313  -20.7362  -11.2255 C   0  0  0  0  0  0  0  0  0  0  0  0
   24.3951  -19.8059  -11.1450 O   0  0  0  0  0  0  0  0  0  0  0  0
   25.4836  -21.1973  -12.5637 N   0  0  0  0  0  0  0  0  0  0  0  0
   24.8658  -20.6503  -13.7078 C   0  0  1  0  0  0  0  0  0  0  0  0
   25.6147  -20.7893  -14.9943 C   0  0  0  0  0  0  0  0  0  0  0  0
   26.5576  -19.6640  -15.2499 C   0  0  0  0  0  0  0  0  0  0  0  0
   26.5534  -18.6145  -14.5441 O   0  0  0  0  0  0  0  0  0  0  0  0
   23.5294  -21.2626  -13.8961 C   0  0  0  0  0  0  0  0  0  0  0  0
   23.2898  -22.3753  -13.3631 O   0  0  0  0  0  0  0  0  0  0  0  0
   27.4962  -19.7014  -16.2788 O   0  0  0  0  0  0  0  0  0  0  0  0
   20.1394  -23.2623  -13.2424 N   0  0  0  0  0  0  0  0  0  0  0  0
   20.2485  -22.1064  -12.4331 C   0  0  0  0  0  0  0  0  0  0  0  0
   19.9479  -22.1654  -11.2265 O   0  0  0  0  0  0  0  0  0  0  0  0
   20.7155  -20.8377  -13.0126 C   0  0  0  0  0  0  0  0  0  0  0  0
   21.0799  -21.0259  -14.4445 C   0  0  2  0  0  0  0  0  0  0  0  0
   22.4948  -20.6620  -14.6488 N   0  0  0  0  0  0  0  0  0  0  0  0
   20.2463  -20.2874  -15.3938 C   0  0  0  0  0  0  0  0  0  0  0  0
   19.7713  -19.0140  -15.0337 O   0  0  0  0  0  0  0  0  0  0  0  0
   19.9366  -20.7466  -16.5214 O   0  0  0  0  0  0  0  0  0  0  0  0
  1  2  1  0
  2  3  1  0
  3  4  2  0
  5  6  1  0
  5  3  1  0
  7  8  1  0
  6  7  1  6
  8  9  2  0
 10  6  1  0
 11 10  2  0
 12  8  1  0
 13 14  1  0
 14 16  1  0
 14 15  2  0
 17 16  1  1
 17 18  1  0
 17 19  1  0
 18 10  1  0
 19 21  2  0
 19 20  1  0
M  END
$$$$
