GDN.pdb
     RDKit          3D

 21 20  0  0  1  0  0  0  0  0999 V2000
   19.6966  -17.4444  -15.7949 N   0  0  0  0  0  0  0  0  0  0  0  0
   20.1922  -16.9526  -17.0675 C   0  0  0  0  0  0  0  0  0  0  0  0
   20.6887  -15.5651  -16.8217 C   0  0  0  0  0  0  0  0  0  0  0  0
   20.6509  -15.0061  -15.7004 O   0  0  0  0  0  0  0  0  0  0  0  0
   21.2544  -14.7605  -17.8704 N   0  0  0  0  0  0  0  0  0  0  0  0
   21.7380  -13.4498  -17.6749 C   0  0  1  0  0  0  0  0  0  0  0  0
   22.7718  -12.9746  -18.6447 C   0  0  0  0  0  0  0  0  0  0  0  0
   24.0318  -13.7687  -18.5965 C   0  0  0  0  0  0  0  0  0  0  0  0
   25.1407  -13.2456  -18.2861 O   0  0  0  0  0  0  0  0  0  0  0  0
   20.6099  -12.4894  -17.7122 C   0  0  0  0  0  0  0  0  0  0  0  0
   19.5893  -12.7760  -18.3873 O   0  0  0  0  0  0  0  0  0  0  0  0
   24.0626  -15.1302  -18.8904 O   0  0  0  0  0  0  0  0  0  0  0  0
   16.1053  -10.5757  -16.3966 N   0  0  0  0  0  0  0  0  0  0  0  0
   17.2564  -10.5414  -15.5739 C   0  0  0  0  0  0  0  0  0  0  0  0
   17.2577   -9.8473  -14.5405 O   0  0  0  0  0  0  0  0  0  0  0  0
   18.4492  -11.3223  -15.9358 C   0  0  0  0  0  0  0  0  0  0  0  0
   19.3671  -10.5048  -16.7772 C   0  0  2  0  0  0  0  0  0  0  0  0
   20.6133  -11.2544  -17.0247 N   0  0  0  0  0  0  0  0  0  0  0  0
   19.6931   -9.1871  -16.2307 C   0  0  0  0  0  0  0  0  0  0  0  0
   21.0343   -8.8873  -15.9337 O   0  0  0  0  0  0  0  0  0  0  0  0
   18.8202   -8.3097  -16.0151 O   0  0  0  0  0  0  0  0  0  0  0  0
  1  2  1  0
  2  3  1  0
  3  4  2  0
  5  6  1  0
  5  3  1  0
  7  8  1  0
  6  7  1  6
  8  9  2  0
 10  6  1  0
 11 10  2  0
 12  8  1  0
 13 14  1  0
 14 16  1  0
 14 15  2  0
 17 16  1  1
 17 18  1  0
 17 19  1  0
 18 10  1  0
 19 21  2  0
 19 20  1  0
M  END
$$$$
