GDN.pdb
     RDKit          3D

 21 20  0  0  1  0  0  0  0  0999 V2000
   18.0632  -10.6738  -18.2769 N   0  0  0  0  0  0  0  0  0  0  0  0
   17.8427  -10.1689  -16.9340 C   0  0  0  0  0  0  0  0  0  0  0  0
   19.1941   -9.9238  -16.3460 C   0  0  0  0  0  0  0  0  0  0  0  0
   19.4254   -9.9417  -15.1141 O   0  0  0  0  0  0  0  0  0  0  0  0
   20.3432   -9.6461  -17.1644 N   0  0  0  0  0  0  0  0  0  0  0  0
   21.6122   -9.3177  -16.6435 C   0  0  1  0  0  0  0  0  0  0  0  0
   22.7891   -9.6783  -17.4920 C   0  0  0  0  0  0  0  0  0  0  0  0
   22.9401  -11.1470  -17.6939 C   0  0  0  0  0  0  0  0  0  0  0  0
   22.9309  -11.6682  -18.8463 O   0  0  0  0  0  0  0  0  0  0  0  0
   21.6809   -7.8622  -16.3732 C   0  0  0  0  0  0  0  0  0  0  0  0
   21.5432   -7.0588  -17.3298 O   0  0  0  0  0  0  0  0  0  0  0  0
   23.0992  -12.0301  -16.6282 O   0  0  0  0  0  0  0  0  0  0  0  0
   19.2034   -3.4313  -14.2642 N   0  0  0  0  0  0  0  0  0  0  0  0
   20.3313   -3.9347  -14.9553 C   0  0  0  0  0  0  0  0  0  0  0  0
   21.2247   -3.1541  -15.3325 O   0  0  0  0  0  0  0  0  0  0  0  0
   20.4506   -5.3750  -15.2284 C   0  0  0  0  0  0  0  0  0  0  0  0
   21.8020   -5.8653  -14.8385 C   0  0  2  0  0  0  0  0  0  0  0  0
   21.8944   -7.3165  -15.0869 N   0  0  0  0  0  0  0  0  0  0  0  0
   22.1827   -5.5842  -13.4538 C   0  0  0  0  0  0  0  0  0  0  0  0
   22.2123   -6.6427  -12.5287 O   0  0  0  0  0  0  0  0  0  0  0  0
   22.4851   -4.4314  -13.0565 O   0  0  0  0  0  0  0  0  0  0  0  0
  1  2  1  0
  2  3  1  0
  3  4  2  0
  5  6  1  0
  5  3  1  0
  7  8  1  0
  6  7  1  6
  8  9  2  0
 10  6  1  0
 11 10  2  0
 12  8  1  0
 13 14  1  0
 14 16  1  0
 14 15  2  0
 17 16  1  1
 17 18  1  0
 17 19  1  0
 18 10  1  0
 19 21  2  0
 19 20  1  0
M  END
$$$$
