GDN.pdb
     RDKit          3D

 21 20  0  0  1  0  0  0  0  0999 V2000
   34.6063  -10.7554  -18.4029 N   0  0  0  0  0  0  0  0  0  0  0  0
   33.3645  -11.0382  -17.7065 C   0  0  0  0  0  0  0  0  0  0  0  0
   32.6281  -12.0352  -18.5407 C   0  0  0  0  0  0  0  0  0  0  0  0
   33.0596  -12.4767  -19.6316 O   0  0  0  0  0  0  0  0  0  0  0  0
   31.3524  -12.5672  -18.1447 N   0  0  0  0  0  0  0  0  0  0  0  0
   30.5859  -13.4378  -18.9475 C   0  0  1  0  0  0  0  0  0  0  0  0
   29.7284  -14.4241  -18.2216 C   0  0  0  0  0  0  0  0  0  0  0  0
   29.0727  -15.4104  -19.1260 C   0  0  0  0  0  0  0  0  0  0  0  0
   29.7292  -16.0776  -19.9765 O   0  0  0  0  0  0  0  0  0  0  0  0
   29.7065  -12.6491  -19.8425 C   0  0  0  0  0  0  0  0  0  0  0  0
   29.1148  -13.2347  -20.7840 O   0  0  0  0  0  0  0  0  0  0  0  0
   27.7015  -15.6545  -19.0885 O   0  0  0  0  0  0  0  0  0  0  0  0
   26.1992  -10.4419  -22.7840 N   0  0  0  0  0  0  0  0  0  0  0  0
   26.3750  -10.1478  -21.4108 C   0  0  0  0  0  0  0  0  0  0  0  0
   25.7871   -9.1731  -20.9067 O   0  0  0  0  0  0  0  0  0  0  0  0
   27.2487  -10.9892  -20.5789 C   0  0  0  0  0  0  0  0  0  0  0  0
   28.6555  -10.5049  -20.6517 C   0  0  2  0  0  0  0  0  0  0  0  0
   29.4904  -11.2598  -19.6982 N   0  0  0  0  0  0  0  0  0  0  0  0
   28.8253   -9.0706  -20.4167 C   0  0  0  0  0  0  0  0  0  0  0  0
   29.1478   -8.6275  -19.1218 O   0  0  0  0  0  0  0  0  0  0  0  0
   28.6942   -8.2159  -21.3280 O   0  0  0  0  0  0  0  0  0  0  0  0
  1  2  1  0
  2  3  1  0
  3  4  2  0
  5  6  1  0
  5  3  1  0
  7  8  1  0
  6  7  1  1
  8  9  2  0
 10  6  1  0
 11 10  2  0
 12  8  1  0
 13 14  1  0
 14 16  1  0
 14 15  2  0
 17 16  1  1
 17 18  1  0
 17 19  1  0
 18 10  1  0
 19 21  2  0
 19 20  1  0
M  END
$$$$
