GDN.pdb
     RDKit          3D

 21 20  0  0  1  0  0  0  0  0999 V2000
   15.1778  -12.1757  -15.3958 N   0  0  0  0  0  0  0  0  0  0  0  0
   15.3866  -10.8186  -14.9250 C   0  0  0  0  0  0  0  0  0  0  0  0
   16.8652  -10.6199  -14.8458 C   0  0  0  0  0  0  0  0  0  0  0  0
   17.5187  -10.7108  -13.7799 O   0  0  0  0  0  0  0  0  0  0  0  0
   17.6557  -10.3059  -16.0050 N   0  0  0  0  0  0  0  0  0  0  0  0
   19.0586  -10.1610  -15.9779 C   0  0  1  0  0  0  0  0  0  0  0  0
   19.7993  -10.6675  -17.1737 C   0  0  0  0  0  0  0  0  0  0  0  0
   19.7307  -12.1486  -17.3234 C   0  0  0  0  0  0  0  0  0  0  0  0
   20.5372  -12.9192  -16.7272 O   0  0  0  0  0  0  0  0  0  0  0  0
   19.4109   -8.7323  -15.8017 C   0  0  0  0  0  0  0  0  0  0  0  0
   18.6464   -7.8545  -16.2756 O   0  0  0  0  0  0  0  0  0  0  0  0
   18.7773  -12.7699  -18.1271 O   0  0  0  0  0  0  0  0  0  0  0  0
   21.5746   -4.2868  -14.4813 N   0  0  0  0  0  0  0  0  0  0  0  0
   22.0303   -5.2463  -13.5460 C   0  0  0  0  0  0  0  0  0  0  0  0
   22.7021   -4.8817  -12.5633 O   0  0  0  0  0  0  0  0  0  0  0  0
   21.7129   -6.6705  -13.7312 C   0  0  0  0  0  0  0  0  0  0  0  0
   20.8579   -6.8575  -14.9366 C   0  0  2  0  0  0  0  0  0  0  0  0
   20.5702   -8.2922  -15.1234 N   0  0  0  0  0  0  0  0  0  0  0  0
   21.4111   -6.3076  -16.1747 C   0  0  0  0  0  0  0  0  0  0  0  0
   20.9940   -5.0335  -16.5985 O   0  0  0  0  0  0  0  0  0  0  0  0
   22.2465   -6.9299  -16.8769 O   0  0  0  0  0  0  0  0  0  0  0  0
  1  2  1  0
  2  3  1  0
  3  4  2  0
  5  6  1  0
  5  3  1  0
  7  8  1  0
  6  7  1  6
  8  9  2  0
 10  6  1  0
 11 10  2  0
 12  8  1  0
 13 14  1  0
 14 16  1  0
 14 15  2  0
 17 16  1  1
 17 18  1  0
 17 19  1  0
 18 10  1  0
 19 21  2  0
 19 20  1  0
M  END
$$$$
