GDN.pdb
     RDKit          3D

 21 20  0  0  1  0  0  0  0  0999 V2000
   19.6211  -11.9551  -17.2254 N   0  0  0  0  0  0  0  0  0  0  0  0
   18.2859  -11.4103  -17.0604 C   0  0  0  0  0  0  0  0  0  0  0  0
   18.4515   -9.9420  -16.8387 C   0  0  0  0  0  0  0  0  0  0  0  0
   19.0669   -9.1889  -17.6295 O   0  0  0  0  0  0  0  0  0  0  0  0
   17.9077   -9.2788  -15.6848 N   0  0  0  0  0  0  0  0  0  0  0  0
   17.9986   -7.8879  -15.4682 C   0  0  1  0  0  0  0  0  0  0  0  0
   17.0322   -7.3067  -14.4867 C   0  0  0  0  0  0  0  0  0  0  0  0
   15.6271   -7.2934  -14.9828 C   0  0  0  0  0  0  0  0  0  0  0  0
   14.6996   -7.9082  -14.3816 O   0  0  0  0  0  0  0  0  0  0  0  0
   19.3658   -7.5404  -15.0140 C   0  0  0  0  0  0  0  0  0  0  0  0
   19.9136   -8.2516  -14.1345 O   0  0  0  0  0  0  0  0  0  0  0  0
   15.2535   -6.6054  -16.1353 O   0  0  0  0  0  0  0  0  0  0  0  0
   24.1703   -5.8897  -14.7333 N   0  0  0  0  0  0  0  0  0  0  0  0
   23.7616   -6.0293  -16.0811 C   0  0  0  0  0  0  0  0  0  0  0  0
   24.6009   -5.9308  -16.9953 O   0  0  0  0  0  0  0  0  0  0  0  0
   22.3506   -6.2901  -16.4042 C   0  0  0  0  0  0  0  0  0  0  0  0
   21.5188   -6.2376  -15.1696 C   0  0  2  0  0  0  0  0  0  0  0  0
   20.1001   -6.4427  -15.5177 N   0  0  0  0  0  0  0  0  0  0  0  0
   21.6545   -5.0078  -14.3882 C   0  0  0  0  0  0  0  0  0  0  0  0
   22.7688   -4.8584  -13.5439 O   0  0  0  0  0  0  0  0  0  0  0  0
   20.8127   -4.0768  -14.4411 O   0  0  0  0  0  0  0  0  0  0  0  0
  1  2  1  0
  2  3  1  0
  3  4  2  0
  5  6  1  0
  5  3  1  0
  7  8  1  0
  6  7  1  1
  8  9  2  0
 10  6  1  0
 11 10  2  0
 12  8  1  0
 13 14  1  0
 14 16  1  0
 14 15  2  0
 17 16  1  6
 17 18  1  0
 17 19  1  0
 18 10  1  0
 19 21  2  0
 19 20  1  0
M  END
$$$$
