ARY.pdb
     RDKit          3D

 29 29  0  0  1  0  0  0  0  0999 V2000
   28.8843  -17.8495  -13.9492 C   0  0  0  0  0  0  0  0  0  0  0  0
   27.7369  -18.4619  -14.7169 C   0  0  2  0  0  0  0  0  0  0  0  0
   27.1510  -17.4412  -15.5614 N   0  0  0  0  0  0  0  0  0  0  0  0
   26.6911  -19.0228  -13.8278 C   0  0  0  0  0  0  0  0  0  0  0  0
   25.7454  -18.3286  -13.3741 O   0  0  0  0  0  0  0  0  0  0  0  0
   22.3566  -25.2871  -15.3201 N   0  0  0  0  0  0  0  0  0  0  0  0
   23.0818  -25.5929  -14.1313 C   0  0  0  0  0  0  0  0  0  0  0  0
   22.6259  -26.4860  -13.3237 N   0  0  0  0  0  0  0  0  0  0  0  0
   24.2850  -24.8872  -13.8974 N   0  0  0  0  0  0  0  0  0  0  0  0
   24.7104  -23.9638  -15.0035 C   0  0  0  0  0  0  0  0  0  0  0  0
   24.7211  -22.6013  -14.4473 C   0  0  0  0  0  0  0  0  0  0  0  0
   25.5148  -22.3412  -13.2462 C   0  0  0  0  0  0  0  0  0  0  0  0
   25.6709  -21.0079  -12.6180 C   0  0  2  0  0  0  0  0  0  0  0  0
   26.7425  -20.3712  -13.4703 N   0  0  0  0  0  0  0  0  0  0  0  0
   26.3323  -21.0940  -11.2968 C   0  0  0  0  0  0  0  0  0  0  0  0
   27.5776  -21.3493  -11.1380 O   0  0  0  0  0  0  0  0  0  0  0  0
   23.1404  -26.7457  -12.4744 O   0  0  0  0  0  0  0  0  0  0  0  0
   29.4322  -19.6256   -3.5584 C   0  0  0  0  0  0  0  0  0  0  0  0
   28.9230  -19.6897   -4.8522 C   0  0  0  0  0  0  0  0  0  0  0  0
   27.6628  -19.1793   -5.0770 C   0  0  0  0  0  0  0  0  0  0  0  0
   27.1578  -19.2416   -6.3588 C   0  0  0  0  0  0  0  0  0  0  0  0
   27.8505  -19.7895   -7.4287 C   0  0  0  0  0  0  0  0  0  0  0  0
   27.2264  -19.8337   -8.7557 C   0  0  1  0  0  0  0  0  0  0  0  0
   26.2119  -20.9421   -8.8089 N   0  0  0  0  0  0  0  0  0  0  0  0
   25.5497  -20.8822  -10.1181 C   0  0  0  0  0  0  0  0  0  0  0  0
   25.1750  -20.7022   -7.7840 O   0  0  0  0  0  0  0  0  0  0  0  0
   25.3692  -21.1735   -6.4892 C   0  0  0  0  0  0  0  0  0  0  0  0
   29.0925  -20.2859   -7.1746 C   0  0  0  0  0  0  0  0  0  0  0  0
   29.6345  -20.2407   -5.8960 O   0  0  0  0  0  0  0  0  0  0  0  0
  2  3  1  0
  2  1  1  1
  4  2  1  0
  5  4  2  0
  7  6  1  0
  7  9  1  0
  8  7  2  0
 10  9  1  0
 10 11  1  0
 12 11  1  0
 13 12  1  6
 13 14  1  0
 14  4  1  0
 15 24  1  0
 15 13  1  0
 16 15  2  0
 18 17  1  0
 18 28  2  0
 19 18  1  0
 20 19  2  0
 20 21  1  0
 21 27  2  0
 22 21  1  0
 23 22  1  6
 23 24  1  0
 25 23  1  0
 25 26  1  0
 27 28  1  0
 29 25  2  0
M  END
$$$$
