ARY.pdb
     RDKit          3D

 29 29  0  0  1  0  0  0  0  0999 V2000
   21.3000  -19.4114  -14.0111 C   0  0  0  0  0  0  0  0  0  0  0  0
   21.6443  -20.3652  -15.1303 C   0  0  2  0  0  0  0  0  0  0  0  0
   21.4113  -19.6961  -16.3936 N   0  0  0  0  0  0  0  0  0  0  0  0
   20.8453  -21.6134  -15.0815 C   0  0  0  0  0  0  0  0  0  0  0  0
   19.6876  -21.6948  -15.5664 O   0  0  0  0  0  0  0  0  0  0  0  0
   23.7516  -29.1337  -17.2045 N   0  0  0  0  0  0  0  0  0  0  0  0
   22.6098  -29.6279  -16.5082 C   0  0  0  0  0  0  0  0  0  0  0  0
   22.3412  -30.8866  -16.5458 N   0  0  0  0  0  0  0  0  0  0  0  0
   21.8184  -28.6937  -15.8002 N   0  0  0  0  0  0  0  0  0  0  0  0
   22.3351  -27.2830  -15.8063 C   0  0  0  0  0  0  0  0  0  0  0  0
   21.3237  -26.4507  -15.1352 C   0  0  0  0  0  0  0  0  0  0  0  0
   21.5640  -25.0121  -15.0213 C   0  0  0  0  0  0  0  0  0  0  0  0
   20.6165  -24.0507  -14.4092 C   0  0  2  0  0  0  0  0  0  0  0  0
   21.3829  -22.7515  -14.4780 N   0  0  0  0  0  0  0  0  0  0  0  0
   20.4844  -24.2588  -12.9498 C   0  0  0  0  0  0  0  0  0  0  0  0
   21.4571  -24.1509  -12.1232 O   0  0  0  0  0  0  0  0  0  0  0  0
   21.5822  -31.2843  -15.9810 O   0  0  0  0  0  0  0  0  0  0  0  0
   19.3640  -18.5363  -10.6416 C   0  0  0  0  0  0  0  0  0  0  0  0
   18.9862  -19.8758  -10.6320 C   0  0  0  0  0  0  0  0  0  0  0  0
   19.3842  -20.6521   -9.5651 C   0  0  0  0  0  0  0  0  0  0  0  0
   19.0096  -21.9793   -9.5543 C   0  0  0  0  0  0  0  0  0  0  0  0
   18.2561  -22.5703  -10.5583 C   0  0  0  0  0  0  0  0  0  0  0  0
   17.9215  -23.9963  -10.4755 C   0  0  2  0  0  0  0  0  0  0  0  0
   19.0759  -24.8236  -10.9688 N   0  0  0  0  0  0  0  0  0  0  0  0
   19.2025  -24.6008  -12.4147 C   0  0  0  0  0  0  0  0  0  0  0  0
   18.7671  -26.2553  -10.7733 O   0  0  0  0  0  0  0  0  0  0  0  0
   19.1585  -26.8863   -9.5964 C   0  0  0  0  0  0  0  0  0  0  0  0
   17.8790  -21.7776  -11.5988 C   0  0  0  0  0  0  0  0  0  0  0  0
   18.2374  -20.4359  -11.6443 O   0  0  0  0  0  0  0  0  0  0  0  0
  2  3  1  0
  2  1  1  1
  4  2  1  0
  5  4  2  0
  7  6  1  0
  7  9  1  0
  8  7  2  0
 10  9  1  0
 10 11  1  0
 12 11  1  0
 13 12  1  1
 13 14  1  0
 14  4  1  0
 15 24  1  0
 15 13  1  0
 16 15  2  0
 18 17  1  0
 18 28  2  0
 19 18  1  0
 20 19  2  0
 20 21  1  0
 21 27  2  0
 22 21  1  0
 23 22  1  1
 23 24  1  0
 25 23  1  0
 25 26  1  0
 27 28  1  0
 29 25  2  0
M  END
$$$$
