ARY.pdb
     RDKit          3D

 29 29  0  0  1  0  0  0  0  0999 V2000
   28.9830  -22.2094  -15.4664 C   0  0  0  0  0  0  0  0  0  0  0  0
   27.5244  -22.1301  -15.8495 C   0  0  2  0  0  0  0  0  0  0  0  0
   27.4303  -21.6126  -17.1991 N   0  0  0  0  0  0  0  0  0  0  0  0
   26.7413  -21.2634  -14.9360 C   0  0  0  0  0  0  0  0  0  0  0  0
   26.6839  -20.0143  -15.0725 O   0  0  0  0  0  0  0  0  0  0  0  0
   19.7100  -19.5321  -14.2806 N   0  0  0  0  0  0  0  0  0  0  0  0
   20.0379  -20.4549  -15.3169 C   0  0  0  0  0  0  0  0  0  0  0  0
   19.5662  -20.2710  -16.5007 N   0  0  0  0  0  0  0  0  0  0  0  0
   20.8787  -21.5425  -14.9845 N   0  0  0  0  0  0  0  0  0  0  0  0
   21.3221  -21.5933  -13.5500 C   0  0  0  0  0  0  0  0  0  0  0  0
   22.5994  -20.8670  -13.4677 C   0  0  0  0  0  0  0  0  0  0  0  0
   23.8187  -21.6243  -13.1847 C   0  0  0  0  0  0  0  0  0  0  0  0
   25.1528  -21.0146  -12.9715 C   0  0  2  0  0  0  0  0  0  0  0  0
   26.0348  -21.8388  -13.8786 N   0  0  0  0  0  0  0  0  0  0  0  0
   25.6975  -21.3326  -11.6326 C   0  0  0  0  0  0  0  0  0  0  0  0
   25.7457  -22.5161  -11.1449 O   0  0  0  0  0  0  0  0  0  0  0  0
   19.7935  -20.9135  -17.2681 O   0  0  0  0  0  0  0  0  0  0  0  0
   28.9864  -20.0642   -3.5581 C   0  0  0  0  0  0  0  0  0  0  0  0
   28.5002  -19.9045   -4.8524 C   0  0  0  0  0  0  0  0  0  0  0  0
   28.9913  -18.8581   -5.6029 C   0  0  0  0  0  0  0  0  0  0  0  0
   28.5108  -18.6995   -6.8858 C   0  0  0  0  0  0  0  0  0  0  0  0
   27.5623  -19.5357   -7.4568 C   0  0  0  0  0  0  0  0  0  0  0  0
   27.0915  -19.2789   -8.8224 C   0  0  2  0  0  0  0  0  0  0  0  0
   26.5330  -20.5412   -9.4183 N   0  0  0  0  0  0  0  0  0  0  0  0
   26.2040  -20.2673  -10.8230 C   0  0  0  0  0  0  0  0  0  0  0  0
   25.2697  -20.8852   -8.7333 O   0  0  0  0  0  0  0  0  0  0  0  0
   25.2588  -21.9062   -7.7879 C   0  0  0  0  0  0  0  0  0  0  0  0
   27.0962  -20.5595   -6.6901 C   0  0  0  0  0  0  0  0  0  0  0  0
   27.5568  -20.7511   -5.3933 O   0  0  0  0  0  0  0  0  0  0  0  0
  2  3  1  0
  2  1  1  1
  4  2  1  0
  5  4  2  0
  7  6  1  0
  7  9  1  0
  8  7  2  0
 10  9  1  0
 10 11  1  0
 12 11  1  0
 13 12  1  1
 13 14  1  0
 14  4  1  0
 15 24  1  0
 15 13  1  0
 16 15  2  0
 18 17  1  0
 18 28  2  0
 19 18  1  0
 20 19  2  0
 20 21  1  0
 21 27  2  0
 22 21  1  0
 23 22  1  6
 23 24  1  0
 25 23  1  0
 25 26  1  0
 27 28  1  0
 29 25  2  0
M  END
$$$$
