ARY.pdb
     RDKit          3D

 29 29  0  0  1  0  0  0  0  0999 V2000
   26.5616  -16.9144  -19.0902 C   0  0  0  0  0  0  0  0  0  0  0  0
   25.0876  -16.8892  -18.7621 C   0  0  2  0  0  0  0  0  0  0  0  0
   24.5593  -15.5878  -19.1159 N   0  0  0  0  0  0  0  0  0  0  0  0
   24.8180  -17.1549  -17.3284 C   0  0  0  0  0  0  0  0  0  0  0  0
   24.8215  -16.2453  -16.4596 O   0  0  0  0  0  0  0  0  0  0  0  0
   22.2411  -24.2784  -14.9514 N   0  0  0  0  0  0  0  0  0  0  0  0
   21.3457  -23.4832  -14.1776 C   0  0  0  0  0  0  0  0  0  0  0  0
   20.8158  -23.9796  -13.1143 N   0  0  0  0  0  0  0  0  0  0  0  0
   21.0820  -22.1680  -14.6260 N   0  0  0  0  0  0  0  0  0  0  0  0
   21.7228  -21.7973  -15.9333 C   0  0  0  0  0  0  0  0  0  0  0  0
   22.9675  -21.0796  -15.6149 C   0  0  0  0  0  0  0  0  0  0  0  0
   22.9619  -19.6171  -15.6521 C   0  0  0  0  0  0  0  0  0  0  0  0
   24.1664  -18.7704  -15.4817 C   0  0  2  0  0  0  0  0  0  0  0  0
   24.5483  -18.4586  -16.9089 N   0  0  0  0  0  0  0  0  0  0  0  0
   25.3302  -19.5542  -15.0107 C   0  0  0  0  0  0  0  0  0  0  0  0
   25.9031  -20.4665  -15.7038 O   0  0  0  0  0  0  0  0  0  0  0  0
   20.2176  -23.4109  -12.5044 O   0  0  0  0  0  0  0  0  0  0  0  0
   23.3377  -21.0872   -8.1696 C   0  0  0  0  0  0  0  0  0  0  0  0
   24.3023  -20.6948   -9.0930 C   0  0  0  0  0  0  0  0  0  0  0  0
   25.4786  -21.4112   -9.1430 C   0  0  0  0  0  0  0  0  0  0  0  0
   26.4347  -21.0237  -10.0582 C   0  0  0  0  0  0  0  0  0  0  0  0
   26.2736  -19.9541  -10.9271 C   0  0  0  0  0  0  0  0  0  0  0  0
   27.3537  -19.5987  -11.8542 C   0  0  1  0  0  0  0  0  0  0  0  0
   27.0139  -20.0672  -13.2418 N   0  0  0  0  0  0  0  0  0  0  0  0
   25.8584  -19.2899  -13.7077 C   0  0  0  0  0  0  0  0  0  0  0  0
   26.5945  -21.4830  -13.1882 O   0  0  0  0  0  0  0  0  0  0  0  0
   27.5599  -22.4807  -13.0940 C   0  0  0  0  0  0  0  0  0  0  0  0
   25.1013  -19.2660  -10.8530 C   0  0  0  0  0  0  0  0  0  0  0  0
   24.1146  -19.6270   -9.9437 O   0  0  0  0  0  0  0  0  0  0  0  0
  2  3  1  0
  2  1  1  1
  4  2  1  0
  5  4  2  0
  7  6  1  0
  7  9  1  0
  8  7  2  0
 10  9  1  0
 10 11  1  0
 12 11  1  0
 13 12  1  6
 13 14  1  0
 14  4  1  0
 15 24  1  0
 15 13  1  0
 16 15  2  0
 18 17  1  0
 18 28  2  0
 19 18  1  0
 20 19  2  0
 20 21  1  0
 21 27  2  0
 22 21  1  0
 23 22  1  6
 23 24  1  0
 25 23  1  0
 25 26  1  0
 27 28  1  0
 29 25  2  0
M  END
$$$$
