ARY.pdb
     RDKit          3D

 29 29  0  0  1  0  0  0  0  0999 V2000
   21.8926  -27.1620  -16.8152 C   0  0  0  0  0  0  0  0  0  0  0  0
   22.1460  -25.7752  -16.2735 C   0  0  2  0  0  0  0  0  0  0  0  0
   23.5692  -25.5117  -16.3301 N   0  0  0  0  0  0  0  0  0  0  0  0
   21.6721  -25.6129  -14.8779 C   0  0  0  0  0  0  0  0  0  0  0  0
   22.4521  -25.6379  -13.8915 O   0  0  0  0  0  0  0  0  0  0  0  0
   14.2077  -21.9960  -12.3562 N   0  0  0  0  0  0  0  0  0  0  0  0
   15.2541  -21.0282  -12.3214 C   0  0  0  0  0  0  0  0  0  0  0  0
   14.9896  -19.8229  -11.9538 N   0  0  0  0  0  0  0  0  0  0  0  0
   16.5502  -21.4499  -12.6989 N   0  0  0  0  0  0  0  0  0  0  0  0
   16.6356  -22.8491  -13.2394 C   0  0  0  0  0  0  0  0  0  0  0  0
   17.8329  -23.4674  -12.6478 C   0  0  0  0  0  0  0  0  0  0  0  0
   18.8995  -23.9226  -13.5398 C   0  0  0  0  0  0  0  0  0  0  0  0
   19.7958  -25.0686  -13.2567 C   0  0  2  0  0  0  0  0  0  0  0  0
   20.3113  -25.4242  -14.6307 N   0  0  0  0  0  0  0  0  0  0  0  0
   19.0376  -26.2835  -12.8831 C   0  0  0  0  0  0  0  0  0  0  0  0
   18.2988  -26.9415  -13.6969 O   0  0  0  0  0  0  0  0  0  0  0  0
   15.7306  -19.1172  -11.8759 O   0  0  0  0  0  0  0  0  0  0  0  0
   17.9941  -24.3263   -6.0812 C   0  0  0  0  0  0  0  0  0  0  0  0
   18.1951  -25.3638   -6.9869 C   0  0  0  0  0  0  0  0  0  0  0  0
   19.1777  -25.2082   -7.9406 C   0  0  0  0  0  0  0  0  0  0  0  0
   19.3782  -26.2360   -8.8379 C   0  0  0  0  0  0  0  0  0  0  0  0
   18.6444  -27.4134   -8.8297 C   0  0  0  0  0  0  0  0  0  0  0  0
   18.9111  -28.4460   -9.8372 C   0  0  1  0  0  0  0  0  0  0  0  0
   18.4071  -27.9949  -11.1800 N   0  0  0  0  0  0  0  0  0  0  0  0
   19.1239  -26.7645  -11.5386 C   0  0  0  0  0  0  0  0  0  0  0  0
   16.9746  -27.6494  -11.0711 O   0  0  0  0  0  0  0  0  0  0  0  0
   16.0234  -28.6650  -11.0627 C   0  0  0  0  0  0  0  0  0  0  0  0
   17.6806  -27.5369   -7.8761 C   0  0  0  0  0  0  0  0  0  0  0  0
   17.4498  -26.5226   -6.9549 O   0  0  0  0  0  0  0  0  0  0  0  0
  2  3  1  0
  2  1  1  1
  4  2  1  0
  5  4  2  0
  7  6  1  0
  7  9  1  0
  8  7  2  0
 10  9  1  0
 10 11  1  0
 12 11  1  0
 13 12  1  6
 13 14  1  0
 14  4  1  0
 15 24  1  0
 15 13  1  0
 16 15  2  0
 18 17  1  0
 18 28  2  0
 19 18  1  0
 20 19  2  0
 20 21  1  0
 21 27  2  0
 22 21  1  0
 23 22  1  6
 23 24  1  0
 25 23  1  0
 25 26  1  0
 27 28  1  0
 29 25  2  0
M  END
$$$$
