ARY.pdb
     RDKit          3D

 29 29  0  0  1  0  0  0  0  0999 V2000
   20.3227  -16.7131  -19.3287 C   0  0  0  0  0  0  0  0  0  0  0  0
   21.1475  -17.9496  -19.5964 C   0  0  2  0  0  0  0  0  0  0  0  0
   20.7412  -18.5072  -20.8700 N   0  0  0  0  0  0  0  0  0  0  0  0
   20.9933  -18.9776  -18.5390 C   0  0  0  0  0  0  0  0  0  0  0  0
   20.0880  -19.8503  -18.5710 O   0  0  0  0  0  0  0  0  0  0  0  0
   25.5173  -23.2399  -14.7553 N   0  0  0  0  0  0  0  0  0  0  0  0
   26.3881  -22.9380  -15.8431 C   0  0  0  0  0  0  0  0  0  0  0  0
   27.0353  -23.8903  -16.4191 N   0  0  0  0  0  0  0  0  0  0  0  0
   26.4971  -21.5847  -16.2396 N   0  0  0  0  0  0  0  0  0  0  0  0
   25.5452  -20.6407  -15.5615 C   0  0  0  0  0  0  0  0  0  0  0  0
   24.2417  -20.7902  -16.2282 C   0  0  0  0  0  0  0  0  0  0  0  0
   23.1150  -19.9879  -15.7515 C   0  0  0  0  0  0  0  0  0  0  0  0
   21.7591  -20.0095  -16.3496 C   0  0  2  0  0  0  0  0  0  0  0  0
   21.8779  -18.9924  -17.4593 N   0  0  0  0  0  0  0  0  0  0  0  0
   20.7534  -19.3862  -15.4605 C   0  0  0  0  0  0  0  0  0  0  0  0
   20.7604  -18.1475  -15.1338 O   0  0  0  0  0  0  0  0  0  0  0  0
   27.6630  -23.7033  -17.2092 O   0  0  0  0  0  0  0  0  0  0  0  0
   14.8035  -21.7246  -18.5092 C   0  0  0  0  0  0  0  0  0  0  0  0
   15.5275  -20.9793  -17.5831 C   0  0  0  0  0  0  0  0  0  0  0  0
   16.6446  -20.3053  -18.0271 C   0  0  0  0  0  0  0  0  0  0  0  0
   17.3620  -19.5658  -17.1104 C   0  0  0  0  0  0  0  0  0  0  0  0
   17.0183  -19.4665  -15.7699 C   0  0  0  0  0  0  0  0  0  0  0  0
   17.8528  -18.6740  -14.8600 C   0  0  1  0  0  0  0  0  0  0  0  0
   18.7167  -19.5845  -14.0322 N   0  0  0  0  0  0  0  0  0  0  0  0
   19.7055  -20.2005  -14.9262 C   0  0  0  0  0  0  0  0  0  0  0  0
   17.8863  -20.6757  -13.4819 O   0  0  0  0  0  0  0  0  0  0  0  0
   18.1190  -21.9860  -13.8887 C   0  0  0  0  0  0  0  0  0  0  0  0
   15.9103  -20.1441  -15.3619 C   0  0  0  0  0  0  0  0  0  0  0  0
   15.1621  -20.8994  -16.2566 O   0  0  0  0  0  0  0  0  0  0  0  0
  2  3  1  0
  2  1  1  1
  4  2  1  0
  5  4  2  0
  7  6  1  0
  7  9  1  0
  8  7  2  0
 10  9  1  0
 10 11  1  0
 12 11  1  0
 13 12  1  1
 13 14  1  0
 14  4  1  0
 15 24  1  0
 15 13  1  0
 16 15  2  0
 18 17  1  0
 18 28  2  0
 19 18  1  0
 20 19  2  0
 20 21  1  0
 21 27  2  0
 22 21  1  0
 23 22  1  1
 23 24  1  0
 25 23  1  0
 25 26  1  0
 27 28  1  0
 29 25  2  0
M  END
$$$$
