ARY.pdb
     RDKit          3D

 29 29  0  0  1  0  0  0  0  0999 V2000
   31.7051  -16.4874  -18.8113 C   0  0  0  0  0  0  0  0  0  0  0  0
   31.8219  -17.9668  -19.0916 C   0  0  2  0  0  0  0  0  0  0  0  0
   32.5522  -18.1446  -20.3298 N   0  0  0  0  0  0  0  0  0  0  0  0
   30.5013  -18.6323  -19.2009 C   0  0  0  0  0  0  0  0  0  0  0  0
   29.8191  -18.6119  -20.2575 O   0  0  0  0  0  0  0  0  0  0  0  0
   31.3939  -24.9951  -16.2632 N   0  0  0  0  0  0  0  0  0  0  0  0
   30.0193  -25.3159  -16.4641 C   0  0  0  0  0  0  0  0  0  0  0  0
   29.6958  -26.4999  -16.8528 N   0  0  0  0  0  0  0  0  0  0  0  0
   29.0664  -24.2991  -16.2217 N   0  0  0  0  0  0  0  0  0  0  0  0
   29.6369  -22.9762  -15.7957 C   0  0  0  0  0  0  0  0  0  0  0  0
   29.6491  -22.1092  -16.9848 C   0  0  0  0  0  0  0  0  0  0  0  0
   28.7345  -20.9681  -17.0291 C   0  0  0  0  0  0  0  0  0  0  0  0
   28.6429  -20.0115  -18.1575 C   0  0  2  0  0  0  0  0  0  0  0  0
   29.9798  -19.3119  -18.0989 N   0  0  0  0  0  0  0  0  0  0  0  0
   27.6996  -18.9078  -17.8705 C   0  0  0  0  0  0  0  0  0  0  0  0
   28.0064  -17.8660  -17.1911 O   0  0  0  0  0  0  0  0  0  0  0  0
   28.7145  -26.7586  -17.0059 O   0  0  0  0  0  0  0  0  0  0  0  0
   25.5100  -18.6905  -24.5119 C   0  0  0  0  0  0  0  0  0  0  0  0
   25.6539  -18.2352  -23.2045 C   0  0  0  0  0  0  0  0  0  0  0  0
   24.5508  -17.6883  -22.5854 C   0  0  0  0  0  0  0  0  0  0  0  0
   24.6921  -17.2376  -21.2897 C   0  0  0  0  0  0  0  0  0  0  0  0
   25.8828  -17.3063  -20.5809 C   0  0  0  0  0  0  0  0  0  0  0  0
   25.9480  -16.7819  -19.2123 C   0  0  1  0  0  0  0  0  0  0  0  0
   25.4802  -17.8282  -18.2392 N   0  0  0  0  0  0  0  0  0  0  0  0
   26.3633  -18.9936  -18.3739 C   0  0  0  0  0  0  0  0  0  0  0  0
   24.1193  -18.2663  -18.6126 O   0  0  0  0  0  0  0  0  0  0  0  0
   23.0750  -17.3467  -18.5975 C   0  0  0  0  0  0  0  0  0  0  0  0
   26.9544  -17.8511  -21.2199 C   0  0  0  0  0  0  0  0  0  0  0  0
   26.8502  -18.3159  -22.5252 O   0  0  0  0  0  0  0  0  0  0  0  0
  2  3  1  0
  2  1  1  6
  4  2  1  0
  5  4  2  0
  7  6  1  0
  7  9  1  0
  8  7  2  0
 10  9  1  0
 10 11  1  0
 12 11  1  0
 13 12  1  1
 13 14  1  0
 14  4  1  0
 15 24  1  0
 15 13  1  0
 16 15  2  0
 18 17  1  0
 18 28  2  0
 19 18  1  0
 20 19  2  0
 20 21  1  0
 21 27  2  0
 22 21  1  0
 23 22  1  1
 23 24  1  0
 25 23  1  0
 25 26  1  0
 27 28  1  0
 29 25  2  0
M  END
$$$$
