ARY.pdb
     RDKit          3D

 29 29  0  0  1  0  0  0  0  0999 V2000
   21.1090   -9.2185  -21.1876 C   0  0  0  0  0  0  0  0  0  0  0  0
   21.0028  -10.4977  -20.3919 C   0  0  2  0  0  0  0  0  0  0  0  0
   19.7631  -11.1583  -20.7454 N   0  0  0  0  0  0  0  0  0  0  0  0
   21.0336  -10.2629  -18.9282 C   0  0  0  0  0  0  0  0  0  0  0  0
   20.0510   -9.7951  -18.2974 O   0  0  0  0  0  0  0  0  0  0  0  0
   26.3702  -15.2829  -15.1217 N   0  0  0  0  0  0  0  0  0  0  0  0
   25.0717  -15.8185  -15.3663 C   0  0  0  0  0  0  0  0  0  0  0  0
   24.8686  -17.0807  -15.2140 N   0  0  0  0  0  0  0  0  0  0  0  0
   24.0571  -14.9197  -15.7702 N   0  0  0  0  0  0  0  0  0  0  0  0
   24.4577  -13.4720  -15.7950 C   0  0  0  0  0  0  0  0  0  0  0  0
   23.2705  -12.7031  -16.2016 C   0  0  0  0  0  0  0  0  0  0  0  0
   23.3856  -11.2499  -16.3251 C   0  0  0  0  0  0  0  0  0  0  0  0
   22.2728  -10.3517  -16.7143 C   0  0  2  0  0  0  0  0  0  0  0  0
   22.1891  -10.5668  -18.2065 N   0  0  0  0  0  0  0  0  0  0  0  0
   22.6574   -8.9253  -16.6251 C   0  0  0  0  0  0  0  0  0  0  0  0
   23.4330   -8.3422  -17.4615 O   0  0  0  0  0  0  0  0  0  0  0  0
   23.9635  -17.5046  -15.4477 O   0  0  0  0  0  0  0  0  0  0  0  0
   23.2230   -0.5455  -16.6805 C   0  0  0  0  0  0  0  0  0  0  0  0
   22.8642   -1.8902  -16.6680 C   0  0  0  0  0  0  0  0  0  0  0  0
   23.8239   -2.8186  -17.0092 C   0  0  0  0  0  0  0  0  0  0  0  0
   23.4696   -4.1514  -16.9963 C   0  0  0  0  0  0  0  0  0  0  0  0
   22.2019   -4.6032  -16.6589 C   0  0  0  0  0  0  0  0  0  0  0  0
   21.9068   -6.0399  -16.6933 C   0  0  1  0  0  0  0  0  0  0  0  0
   22.4916   -6.7129  -15.4828 N   0  0  0  0  0  0  0  0  0  0  0  0
   22.1417   -8.1375  -15.5481 C   0  0  0  0  0  0  0  0  0  0  0  0
   21.8577   -6.1631  -14.2665 O   0  0  0  0  0  0  0  0  0  0  0  0
   22.4522   -5.0906  -13.6088 C   0  0  0  0  0  0  0  0  0  0  0  0
   21.2760   -3.6619  -16.3273 C   0  0  0  0  0  0  0  0  0  0  0  0
   21.5961   -2.3098  -16.3289 O   0  0  0  0  0  0  0  0  0  0  0  0
  2  3  1  0
  2  1  1  6
  4  2  1  0
  5  4  2  0
  7  6  1  0
  7  9  1  0
  8  7  2  0
 10  9  1  0
 10 11  1  0
 12 11  1  0
 13 12  1  6
 13 14  1  0
 14  4  1  0
 15 24  1  0
 15 13  1  0
 16 15  2  0
 18 17  1  0
 18 28  2  0
 19 18  1  0
 20 19  2  0
 20 21  1  0
 21 27  2  0
 22 21  1  0
 23 22  1  6
 23 24  1  0
 25 23  1  0
 25 26  1  0
 27 28  1  0
 29 25  2  0
M  END
$$$$
