ARY.pdb
     RDKit          3D

 29 29  0  0  1  0  0  0  0  0999 V2000
   27.2131  -16.8388  -19.3554 C   0  0  0  0  0  0  0  0  0  0  0  0
   26.7144  -16.1591  -18.1023 C   0  0  2  0  0  0  0  0  0  0  0  0
   25.9008  -17.1004  -17.3606 N   0  0  0  0  0  0  0  0  0  0  0  0
   25.9169  -14.9431  -18.3922 C   0  0  0  0  0  0  0  0  0  0  0  0
   26.3994  -13.9426  -18.9824 O   0  0  0  0  0  0  0  0  0  0  0  0
   18.6120  -17.4634  -19.7479 N   0  0  0  0  0  0  0  0  0  0  0  0
   18.9346  -17.6798  -18.3761 C   0  0  0  0  0  0  0  0  0  0  0  0
   18.3457  -18.6240  -17.7286 N   0  0  0  0  0  0  0  0  0  0  0  0
   19.9015  -16.8313  -17.7882 N   0  0  0  0  0  0  0  0  0  0  0  0
   20.4770  -15.7873  -18.7024 C   0  0  0  0  0  0  0  0  0  0  0  0
   21.6996  -15.2786  -18.0602 C   0  0  0  0  0  0  0  0  0  0  0  0
   22.4650  -14.2335  -18.7401 C   0  0  0  0  0  0  0  0  0  0  0  0
   23.7330  -13.6589  -18.2315 C   0  0  2  0  0  0  0  0  0  0  0  0
   24.5777  -14.8893  -18.0023 N   0  0  0  0  0  0  0  0  0  0  0  0
   23.5849  -13.1215  -16.8604 C   0  0  0  0  0  0  0  0  0  0  0  0
   23.2848  -13.8384  -15.8420 O   0  0  0  0  0  0  0  0  0  0  0  0
   18.5757  -18.8181  -16.7474 O   0  0  0  0  0  0  0  0  0  0  0  0
   28.6531   -8.9377  -18.5583 C   0  0  0  0  0  0  0  0  0  0  0  0
   27.7855   -9.4645  -17.6060 C   0  0  0  0  0  0  0  0  0  0  0  0
   27.7619  -10.8323  -17.4392 C   0  0  0  0  0  0  0  0  0  0  0  0
   26.9032  -11.3551  -16.4953 C   0  0  0  0  0  0  0  0  0  0  0  0
   26.0653  -10.5779  -15.7086 C   0  0  0  0  0  0  0  0  0  0  0  0
   25.1672  -11.2214  -14.7434 C   0  0  1  0  0  0  0  0  0  0  0  0
   23.7578  -11.2090  -15.2668 N   0  0  0  0  0  0  0  0  0  0  0  0
   23.7852  -11.7218  -16.6425 C   0  0  0  0  0  0  0  0  0  0  0  0
   23.2746   -9.8141  -15.3305 O   0  0  0  0  0  0  0  0  0  0  0  0
   23.1327   -9.0836  -14.1547 C   0  0  0  0  0  0  0  0  0  0  0  0
   26.1112   -9.2304  -15.8973 C   0  0  0  0  0  0  0  0  0  0  0  0
   26.9638   -8.6672  -16.8389 O   0  0  0  0  0  0  0  0  0  0  0  0
  2  3  1  0
  2  1  1  6
  4  2  1  0
  5  4  2  0
  7  6  1  0
  7  9  1  0
  8  7  2  0
 10  9  1  0
 10 11  1  0
 12 11  1  0
 13 12  1  1
 13 14  1  0
 14  4  1  0
 15 24  1  0
 15 13  1  0
 16 15  2  0
 18 17  1  0
 18 28  2  0
 19 18  1  0
 20 19  2  0
 20 21  1  0
 21 27  2  0
 22 21  1  0
 23 22  1  1
 23 24  1  0
 25 23  1  0
 25 26  1  0
 27 28  1  0
 29 25  2  0
M  END
$$$$
