ARY.pdb
     RDKit          3D

 29 29  0  0  1  0  0  0  0  0999 V2000
   29.1060  -19.0773  -14.6262 C   0  0  0  0  0  0  0  0  0  0  0  0
   27.6248  -19.2857  -14.8353 C   0  0  2  0  0  0  0  0  0  0  0  0
   27.1910  -18.4415  -15.9294 N   0  0  0  0  0  0  0  0  0  0  0  0
   26.8282  -18.9690  -13.6254 C   0  0  0  0  0  0  0  0  0  0  0  0
   26.4141  -17.8084  -13.3730 O   0  0  0  0  0  0  0  0  0  0  0  0
   19.5076  -19.3755  -12.7919 N   0  0  0  0  0  0  0  0  0  0  0  0
   19.4981  -19.9287  -11.4779 C   0  0  0  0  0  0  0  0  0  0  0  0
   18.4274  -19.8529  -10.7669 N   0  0  0  0  0  0  0  0  0  0  0  0
   20.6858  -20.5423  -11.0162 N   0  0  0  0  0  0  0  0  0  0  0  0
   21.7969  -20.6246  -12.0241 C   0  0  0  0  0  0  0  0  0  0  0  0
   23.0181  -20.1419  -11.3597 C   0  0  0  0  0  0  0  0  0  0  0  0
   24.2671  -20.1183  -12.1212 C   0  0  0  0  0  0  0  0  0  0  0  0
   25.5868  -19.7526  -11.5543 C   0  0  2  0  0  0  0  0  0  0  0  0
   26.5167  -19.9855  -12.7209 N   0  0  0  0  0  0  0  0  0  0  0  0
   26.0617  -20.7522  -10.5716 C   0  0  0  0  0  0  0  0  0  0  0  0
   26.3411  -21.9668  -10.8680 O   0  0  0  0  0  0  0  0  0  0  0  0
   18.3871  -20.2557   -9.8238 O   0  0  0  0  0  0  0  0  0  0  0  0
   29.0298  -18.1268   -3.3649 C   0  0  0  0  0  0  0  0  0  0  0  0
   28.7563  -18.8865   -4.4986 C   0  0  0  0  0  0  0  0  0  0  0  0
   28.9317  -20.2511   -4.4202 C   0  0  0  0  0  0  0  0  0  0  0  0
   28.6601  -21.0048   -5.5428 C   0  0  0  0  0  0  0  0  0  0  0  0
   28.2215  -20.4616   -6.7417 C   0  0  0  0  0  0  0  0  0  0  0  0
   27.9777  -21.3375   -7.8931 C   0  0  1  0  0  0  0  0  0  0  0  0
   26.5064  -21.3852   -8.1991 N   0  0  0  0  0  0  0  0  0  0  0  0
   26.2237  -20.3552   -9.2067 C   0  0  0  0  0  0  0  0  0  0  0  0
   25.7450  -21.0279   -6.9842 O   0  0  0  0  0  0  0  0  0  0  0  0
   25.7466  -21.8938   -5.8949 C   0  0  0  0  0  0  0  0  0  0  0  0
   28.0585  -19.1108   -6.7878 C   0  0  0  0  0  0  0  0  0  0  0  0
   28.3221  -18.3188   -5.6770 O   0  0  0  0  0  0  0  0  0  0  0  0
  2  3  1  0
  2  1  1  1
  4  2  1  0
  5  4  2  0
  7  6  1  0
  7  9  1  0
  8  7  2  0
 10  9  1  0
 10 11  1  0
 12 11  1  0
 13 12  1  6
 13 14  1  0
 14  4  1  0
 15 24  1  0
 15 13  1  0
 16 15  2  0
 18 17  1  0
 18 28  2  0
 19 18  1  0
 20 19  2  0
 20 21  1  0
 21 27  2  0
 22 21  1  0
 23 22  1  6
 23 24  1  0
 25 23  1  0
 25 26  1  0
 27 28  1  0
 29 25  2  0
M  END
$$$$
