ARY.pdb
     RDKit          3D

 29 29  0  0  1  0  0  0  0  0999 V2000
   25.6482  -25.6447  -20.2436 C   0  0  0  0  0  0  0  0  0  0  0  0
   25.9726  -27.0529  -20.6825 C   0  0  2  0  0  0  0  0  0  0  0  0
   25.8084  -27.1367  -22.1192 N   0  0  0  0  0  0  0  0  0  0  0  0
   25.1094  -28.0666  -20.0299 C   0  0  0  0  0  0  0  0  0  0  0  0
   24.0251  -28.4571  -20.5340 O   0  0  0  0  0  0  0  0  0  0  0  0
   28.8390  -32.5126  -14.7329 N   0  0  0  0  0  0  0  0  0  0  0  0
   29.2760  -31.8578  -15.9216 C   0  0  0  0  0  0  0  0  0  0  0  0
   30.4749  -31.3925  -15.9838 N   0  0  0  0  0  0  0  0  0  0  0  0
   28.3539  -31.7520  -16.9888 N   0  0  0  0  0  0  0  0  0  0  0  0
   27.0315  -32.4275  -16.7610 C   0  0  0  0  0  0  0  0  0  0  0  0
   26.0514  -31.7621  -17.6342 C   0  0  0  0  0  0  0  0  0  0  0  0
   25.6342  -30.3985  -17.3073 C   0  0  0  0  0  0  0  0  0  0  0  0
   24.6362  -29.6204  -18.0789 C   0  0  2  0  0  0  0  0  0  0  0  0
   25.4993  -28.6194  -18.8090 N   0  0  0  0  0  0  0  0  0  0  0  0
   23.8191  -28.7496  -17.2045 C   0  0  0  0  0  0  0  0  0  0  0  0
   24.2446  -27.6576  -16.6872 O   0  0  0  0  0  0  0  0  0  0  0  0
   30.8471  -30.9997  -16.8559 O   0  0  0  0  0  0  0  0  0  0  0  0
   18.1586  -28.4041  -21.3700 C   0  0  0  0  0  0  0  0  0  0  0  0
   18.9729  -28.0692  -20.2921 C   0  0  0  0  0  0  0  0  0  0  0  0
   18.3748  -27.8751  -19.0657 C   0  0  0  0  0  0  0  0  0  0  0  0
   19.1810  -27.5441  -17.9969 C   0  0  0  0  0  0  0  0  0  0  0  0
   20.5572  -27.3969  -18.0928 C   0  0  0  0  0  0  0  0  0  0  0  0
   21.3348  -27.0210  -16.9069 C   0  0  1  0  0  0  0  0  0  0  0  0
   21.6453  -28.2433  -16.0883 N   0  0  0  0  0  0  0  0  0  0  0  0
   22.4733  -29.1354  -16.9098 C   0  0  0  0  0  0  0  0  0  0  0  0
   20.3892  -28.9630  -15.7928 O   0  0  0  0  0  0  0  0  0  0  0  0
   20.2243  -30.2683  -16.2459 C   0  0  0  0  0  0  0  0  0  0  0  0
   21.1182  -27.5945  -19.3174 C   0  0  0  0  0  0  0  0  0  0  0  0
   20.3382  -27.9293  -20.4175 O   0  0  0  0  0  0  0  0  0  0  0  0
  2  3  1  0
  2  1  1  1
  4  2  1  0
  5  4  2  0
  7  6  1  0
  7  9  1  0
  8  7  2  0
 10  9  1  0
 10 11  1  0
 12 11  1  0
 13 12  1  1
 13 14  1  0
 14  4  1  0
 15 24  1  0
 15 13  1  0
 16 15  2  0
 18 17  1  0
 18 28  2  0
 19 18  1  0
 20 19  2  0
 20 21  1  0
 21 27  2  0
 22 21  1  0
 23 22  1  1
 23 24  1  0
 25 23  1  0
 25 26  1  0
 27 28  1  0
 29 25  2  0
M  END
$$$$
