MFY.pdb
     RDKit          3D

 32 33  0  0  1  0  0  0  0  0999 V2000
   26.1041  -17.7008  -17.5086 C   0  0  0  0  0  0  0  0  0  0  0  0
   27.6213  -18.0020  -18.4450 S   0  0  0  0  0  0  0  0  0  0  0  0
   28.1944  -19.6945  -18.1156 C   0  0  0  0  0  0  0  0  0  0  0  0
   27.2708  -20.3178  -17.0810 C   0  0  0  0  0  0  0  0  0  0  0  0
   28.0971  -20.9824  -15.9954 C   0  0  2  0  0  0  0  0  0  0  0  0
   28.7639  -22.1167  -16.5771 N   0  0  0  0  0  0  0  0  0  0  0  0
   27.2647  -21.3570  -14.8292 C   0  0  0  0  0  0  0  0  0  0  0  0
   26.6995  -22.4799  -14.8505 O   0  0  0  0  0  0  0  0  0  0  0  0
   27.0848  -20.5204  -13.7182 N   0  0  0  0  0  0  0  0  0  0  0  0
   26.3110  -20.8596  -12.5481 C   0  0  1  0  0  0  0  0  0  0  0  0
   26.7582  -20.0677  -11.3361 C   0  0  0  0  0  0  0  0  0  0  0  0
   28.0129  -20.6148  -10.8194 C   0  0  0  0  0  0  0  0  0  0  0  0
   29.1203  -20.7454  -11.6248 C   0  0  0  0  0  0  0  0  0  0  0  0
   30.2965  -21.2718  -11.0929 C   0  0  0  0  0  0  0  0  0  0  0  0
   30.3712  -21.6643   -9.7742 C   0  0  0  0  0  0  0  0  0  0  0  0
   29.2648  -21.5351   -8.9654 C   0  0  0  0  0  0  0  0  0  0  0  0
   28.1145  -21.0142   -9.5072 C   0  0  0  0  0  0  0  0  0  0  0  0
   24.8827  -20.6234  -12.8416 C   0  0  0  0  0  0  0  0  0  0  0  0
   24.5300  -19.5076  -13.2899 O   0  0  0  0  0  0  0  0  0  0  0  0
   16.2333  -21.9788  -14.3525 O   0  0  0  0  0  0  0  0  0  0  0  0
   17.5826  -22.1623  -14.0470 C   0  0  0  0  0  0  0  0  0  0  0  0
   17.9967  -22.4957  -12.7729 C   0  0  0  0  0  0  0  0  0  0  0  0
   19.3409  -22.6747  -12.4849 C   0  0  0  0  0  0  0  0  0  0  0  0
   20.3155  -22.5294  -13.4482 C   0  0  0  0  0  0  0  0  0  0  0  0
   21.7507  -22.7155  -13.1638 C   0  0  0  0  0  0  0  0  0  0  0  0
   22.4740  -21.4046  -12.9581 C   0  0  2  0  0  0  0  0  0  0  0  0
   23.8691  -21.5950  -12.6449 N   0  0  0  0  0  0  0  0  0  0  0  0
   21.8795  -20.6113  -11.8546 C   0  0  0  0  0  0  0  0  0  0  0  0
   22.3613  -20.7024  -10.5552 O   0  0  0  0  0  0  0  0  0  0  0  0
   19.8975  -22.1953  -14.7240 C   0  0  0  0  0  0  0  0  0  0  0  0
   18.5475  -22.0146  -15.0172 C   0  0  0  0  0  0  0  0  0  0  0  0
   20.9059  -19.8118  -12.0341 O   0  0  0  0  0  0  0  0  0  0  0  0
  2  1  1  0
  3  4  1  0
  3  2  1  0
  5  7  1  0
  5  6  1  6
  5  4  1  0
  7  8  2  0
  9 10  1  0
  9  7  1  0
 10 18  1  0
 10 11  1  1
 12 17  1  0
 12 11  1  0
 13 12  2  0
 14 15  2  0
 14 13  1  0
 15 16  1  0
 16 17  2  0
 18 19  2  0
 20 21  1  0
 21 22  2  0
 21 31  1  0
 22 23  1  0
 23 24  2  0
 24 25  1  0
 26 25  1  1
 26 28  1  0
 27 18  1  0
 27 26  1  0
 28 32  2  0
 28 29  1  0
 30 24  1  0
 31 30  2  0
M  END
$$$$
