MFY.pdb
     RDKit          3D

 32 33  0  0  1  0  0  0  0  0999 V2000
   28.9718  -16.1199  -16.2752 C   0  0  0  0  0  0  0  0  0  0  0  0
   28.6241  -17.8849  -16.0913 S   0  0  0  0  0  0  0  0  0  0  0  0
   27.2888  -18.1022  -14.8785 C   0  0  0  0  0  0  0  0  0  0  0  0
   27.0576  -19.5925  -14.6856 C   0  0  0  0  0  0  0  0  0  0  0  0
   27.7888  -20.0644  -13.4423 C   0  0  2  0  0  0  0  0  0  0  0  0
   28.8957  -20.8819  -13.8620 N   0  0  0  0  0  0  0  0  0  0  0  0
   26.8820  -20.7794  -12.5151 C   0  0  0  0  0  0  0  0  0  0  0  0
   26.5715  -21.9645  -12.7982 O   0  0  0  0  0  0  0  0  0  0  0  0
   26.3637  -20.1950  -11.3505 N   0  0  0  0  0  0  0  0  0  0  0  0
   25.5055  -20.8658  -10.4036 C   0  0  1  0  0  0  0  0  0  0  0  0
   25.5534  -20.2028   -9.0420 C   0  0  0  0  0  0  0  0  0  0  0  0
   26.8915  -20.3428   -8.4671 C   0  0  0  0  0  0  0  0  0  0  0  0
   27.2876  -19.5874   -7.3880 C   0  0  0  0  0  0  0  0  0  0  0  0
   28.5717  -19.7517   -6.8706 C   0  0  0  0  0  0  0  0  0  0  0  0
   29.4528  -20.6573   -7.4202 C   0  0  0  0  0  0  0  0  0  0  0  0
   29.0597  -21.4149   -8.5002 C   0  0  0  0  0  0  0  0  0  0  0  0
   27.7904  -21.2392   -8.9964 C   0  0  0  0  0  0  0  0  0  0  0  0
   24.1296  -20.8804  -10.9410 C   0  0  0  0  0  0  0  0  0  0  0  0
   23.2035  -21.3364  -10.2304 O   0  0  0  0  0  0  0  0  0  0  0  0
   16.9494  -18.8400  -15.7186 O   0  0  0  0  0  0  0  0  0  0  0  0
   18.2673  -18.9715  -15.2790 C   0  0  0  0  0  0  0  0  0  0  0  0
   19.1907  -19.7240  -15.9770 C   0  0  0  0  0  0  0  0  0  0  0  0
   20.4965  -19.8452  -15.5275 C   0  0  0  0  0  0  0  0  0  0  0  0
   20.9280  -19.2259  -14.3746 C   0  0  0  0  0  0  0  0  0  0  0  0
   22.3123  -19.3410  -13.8787 C   0  0  0  0  0  0  0  0  0  0  0  0
   22.4422  -20.3429  -12.7547 C   0  0  2  0  0  0  0  0  0  0  0  0
   23.7848  -20.4035  -12.2308 N   0  0  0  0  0  0  0  0  0  0  0  0
   22.0771  -21.7133  -13.1894 C   0  0  0  0  0  0  0  0  0  0  0  0
   20.7906  -22.2086  -13.0204 O   0  0  0  0  0  0  0  0  0  0  0  0
   20.0005  -18.4725  -13.6774 C   0  0  0  0  0  0  0  0  0  0  0  0
   18.6873  -18.3484  -14.1259 C   0  0  0  0  0  0  0  0  0  0  0  0
   22.9120  -22.5033  -13.7354 O   0  0  0  0  0  0  0  0  0  0  0  0
  2  1  1  0
  3  4  1  0
  3  2  1  0
  5  7  1  0
  5  6  1  6
  5  4  1  0
  7  8  2  0
  9 10  1  0
  9  7  1  0
 10 18  1  0
 10 11  1  1
 12 17  1  0
 12 11  1  0
 13 12  2  0
 14 15  2  0
 14 13  1  0
 15 16  1  0
 16 17  2  0
 18 19  2  0
 20 21  1  0
 21 22  2  0
 21 31  1  0
 22 23  1  0
 23 24  2  0
 24 25  1  0
 26 25  1  6
 26 28  1  0
 27 18  1  0
 27 26  1  0
 28 32  2  0
 28 29  1  0
 30 24  1  0
 31 30  2  0
M  END
$$$$
