MFY.pdb
     RDKit          3D

 32 33  0  0  1  0  0  0  0  0999 V2000
   35.8223  -31.5982  -22.7652 C   0  0  0  0  0  0  0  0  0  0  0  0
   34.5186  -31.4346  -21.5228 S   0  0  0  0  0  0  0  0  0  0  0  0
   35.2700  -31.4631  -19.8688 C   0  0  0  0  0  0  0  0  0  0  0  0
   34.1546  -31.4055  -18.8371 C   0  0  0  0  0  0  0  0  0  0  0  0
   33.9696  -29.9746  -18.3666 C   0  0  2  0  0  0  0  0  0  0  0  0
   35.1502  -29.5904  -17.6398 N   0  0  0  0  0  0  0  0  0  0  0  0
   32.7377  -29.8212  -17.5590 C   0  0  0  0  0  0  0  0  0  0  0  0
   32.7811  -30.1747  -16.3531 O   0  0  0  0  0  0  0  0  0  0  0  0
   31.5422  -29.3048  -18.0790 N   0  0  0  0  0  0  0  0  0  0  0  0
   30.3240  -29.1286  -17.3253 C   0  0  1  0  0  0  0  0  0  0  0  0
   29.7807  -27.7212  -17.4664 C   0  0  0  0  0  0  0  0  0  0  0  0
   30.7441  -26.7597  -16.9298 C   0  0  0  0  0  0  0  0  0  0  0  0
   30.9211  -26.6071  -15.5743 C   0  0  0  0  0  0  0  0  0  0  0  0
   31.8495  -25.6794  -15.1043 C   0  0  0  0  0  0  0  0  0  0  0  0
   32.5941  -24.9113  -15.9727 C   0  0  0  0  0  0  0  0  0  0  0  0
   32.4194  -25.0612  -17.3299 C   0  0  0  0  0  0  0  0  0  0  0  0
   31.4999  -25.9805  -17.7743 C   0  0  0  0  0  0  0  0  0  0  0  0
   29.3374  -30.1289  -17.7815 C   0  0  0  0  0  0  0  0  0  0  0  0
   29.0611  -30.1985  -19.0019 O   0  0  0  0  0  0  0  0  0  0  0  0
   32.1735  -36.3504  -15.4229 O   0  0  0  0  0  0  0  0  0  0  0  0
   31.2531  -35.5589  -16.1113 C   0  0  0  0  0  0  0  0  0  0  0  0
   29.9444  -35.9609  -16.2895 C   0  0  0  0  0  0  0  0  0  0  0  0
   29.0416  -35.1635  -16.9758 C   0  0  0  0  0  0  0  0  0  0  0  0
   29.4060  -33.9450  -17.5062 C   0  0  0  0  0  0  0  0  0  0  0  0
   28.4620  -33.0808  -18.2392 C   0  0  0  0  0  0  0  0  0  0  0  0
   27.7781  -32.0778  -17.3391 C   0  0  2  0  0  0  0  0  0  0  0  0
   28.6724  -31.0298  -16.9119 N   0  0  0  0  0  0  0  0  0  0  0  0
   27.2301  -32.7143  -16.1164 C   0  0  0  0  0  0  0  0  0  0  0  0
   26.3026  -33.7454  -16.1896 O   0  0  0  0  0  0  0  0  0  0  0  0
   30.7180  -33.5448  -17.3260 C   0  0  0  0  0  0  0  0  0  0  0  0
   31.6282  -34.3435  -16.6369 C   0  0  0  0  0  0  0  0  0  0  0  0
   27.5749  -32.3559  -14.9451 O   0  0  0  0  0  0  0  0  0  0  0  0
  2  1  1  0
  3  4  1  0
  3  2  1  0
  5  7  1  0
  5  6  1  1
  5  4  1  0
  7  8  2  0
  9 10  1  0
  9  7  1  0
 10 18  1  0
 10 11  1  6
 12 17  1  0
 12 11  1  0
 13 12  2  0
 14 15  2  0
 14 13  1  0
 15 16  1  0
 16 17  2  0
 18 19  2  0
 20 21  1  0
 21 22  2  0
 21 31  1  0
 22 23  1  0
 23 24  2  0
 24 25  1  0
 26 25  1  1
 26 28  1  0
 27 18  1  0
 27 26  1  0
 28 32  2  0
 28 29  1  0
 30 24  1  0
 31 30  2  0
M  END
$$$$
