MFY.pdb
     RDKit          3D

 32 33  0  0  1  0  0  0  0  0999 V2000
   28.4223  -23.9850  -21.7899 C   0  0  0  0  0  0  0  0  0  0  0  0
   27.6458  -24.2988  -20.1873 S   0  0  0  0  0  0  0  0  0  0  0  0
   28.5798  -23.4266  -18.8958 C   0  0  0  0  0  0  0  0  0  0  0  0
   27.8548  -23.6156  -17.5728 C   0  0  0  0  0  0  0  0  0  0  0  0
   27.7414  -22.2811  -16.8591 C   0  0  2  0  0  0  0  0  0  0  0  0
   29.0678  -21.8566  -16.4987 N   0  0  0  0  0  0  0  0  0  0  0  0
   26.8401  -22.3646  -15.6869 C   0  0  0  0  0  0  0  0  0  0  0  0
   26.8192  -23.4431  -15.0409 O   0  0  0  0  0  0  0  0  0  0  0  0
   26.0210  -21.3034  -15.2753 N   0  0  0  0  0  0  0  0  0  0  0  0
   25.3232  -21.2427  -14.0134 C   0  0  1  0  0  0  0  0  0  0  0  0
   25.7661  -20.0509  -13.1891 C   0  0  0  0  0  0  0  0  0  0  0  0
   27.0763  -20.3164  -12.5944 C   0  0  0  0  0  0  0  0  0  0  0  0
   28.2263  -19.7927  -13.1377 C   0  0  0  0  0  0  0  0  0  0  0  0
   29.4549  -20.0703  -12.5400 C   0  0  0  0  0  0  0  0  0  0  0  0
   29.5393  -20.8601  -11.4142 C   0  0  0  0  0  0  0  0  0  0  0  0
   28.3903  -21.3859  -10.8679 C   0  0  0  0  0  0  0  0  0  0  0  0
   27.1887  -21.1014  -11.4708 C   0  0  0  0  0  0  0  0  0  0  0  0
   23.8707  -21.1970  -14.2785 C   0  0  0  0  0  0  0  0  0  0  0  0
   23.4193  -20.3131  -15.0437 O   0  0  0  0  0  0  0  0  0  0  0  0
   15.1547  -22.9258  -13.9619 O   0  0  0  0  0  0  0  0  0  0  0  0
   16.5358  -22.9872  -13.7715 C   0  0  0  0  0  0  0  0  0  0  0  0
   17.1127  -22.6756  -12.5565 C   0  0  0  0  0  0  0  0  0  0  0  0
   18.4865  -22.7413  -12.3828 C   0  0  0  0  0  0  0  0  0  0  0  0
   19.3306  -23.1171  -13.4051 C   0  0  0  0  0  0  0  0  0  0  0  0
   20.7944  -23.1943  -13.2420 C   0  0  0  0  0  0  0  0  0  0  0  0
   21.5080  -22.0145  -13.8610 C   0  0  2  0  0  0  0  0  0  0  0  0
   22.9399  -22.1045  -13.7129 N   0  0  0  0  0  0  0  0  0  0  0  0
   21.0826  -20.7295  -13.2542 C   0  0  0  0  0  0  0  0  0  0  0  0
   21.6467  -20.2637  -12.0735 O   0  0  0  0  0  0  0  0  0  0  0  0
   18.7496  -23.4289  -14.6214 C   0  0  0  0  0  0  0  0  0  0  0  0
   17.3693  -23.3640  -14.7998 C   0  0  0  0  0  0  0  0  0  0  0  0
   20.1876  -19.9900  -13.7749 O   0  0  0  0  0  0  0  0  0  0  0  0
  2  1  1  0
  3  4  1  0
  3  2  1  0
  5  7  1  0
  5  6  1  1
  5  4  1  0
  7  8  2  0
  9 10  1  0
  9  7  1  0
 10 18  1  0
 10 11  1  6
 12 17  1  0
 12 11  1  0
 13 12  2  0
 14 15  2  0
 14 13  1  0
 15 16  1  0
 16 17  2  0
 18 19  2  0
 20 21  1  0
 21 22  2  0
 21 31  1  0
 22 23  1  0
 23 24  2  0
 24 25  1  0
 26 25  1  1
 26 28  1  0
 27 18  1  0
 27 26  1  0
 28 32  2  0
 28 29  1  0
 30 24  1  0
 31 30  2  0
M  END
$$$$
