MFY.pdb
     RDKit          3D

 32 33  0  0  1  0  0  0  0  0999 V2000
   34.6928  -31.1072  -21.6518 C   0  0  0  0  0  0  0  0  0  0  0  0
   33.6676  -29.9794  -20.6787 S   0  0  0  0  0  0  0  0  0  0  0  0
   31.9696  -30.6236  -20.6207 C   0  0  0  0  0  0  0  0  0  0  0  0
   31.1462  -29.7172  -19.7194 C   0  0  0  0  0  0  0  0  0  0  0  0
   30.1256  -28.9629  -20.5514 C   0  0  2  0  0  0  0  0  0  0  0  0
   30.5534  -27.5924  -20.6429 N   0  0  0  0  0  0  0  0  0  0  0  0
   28.7620  -29.0895  -19.9877 C   0  0  0  0  0  0  0  0  0  0  0  0
   28.3904  -28.2236  -19.1552 O   0  0  0  0  0  0  0  0  0  0  0  0
   27.8817  -30.1223  -20.3410 N   0  0  0  0  0  0  0  0  0  0  0  0
   26.5414  -30.2744  -19.8276 C   0  0  1  0  0  0  0  0  0  0  0  0
   25.5756  -30.7071  -20.9121 C   0  0  0  0  0  0  0  0  0  0  0  0
   25.2268  -29.5622  -21.7536 C   0  0  0  0  0  0  0  0  0  0  0  0
   24.1377  -28.7718  -21.4683 C   0  0  0  0  0  0  0  0  0  0  0  0
   23.8400  -27.6903  -22.2960 C   0  0  0  0  0  0  0  0  0  0  0  0
   24.6166  -27.3975  -23.3958 C   0  0  0  0  0  0  0  0  0  0  0  0
   25.7071  -28.1864  -23.6844 C   0  0  0  0  0  0  0  0  0  0  0  0
   25.9850  -29.2479  -22.8572 C   0  0  0  0  0  0  0  0  0  0  0  0
   26.5683  -31.2492  -18.7181 C   0  0  0  0  0  0  0  0  0  0  0  0
   27.1884  -32.3276  -18.8704 O   0  0  0  0  0  0  0  0  0  0  0  0
   32.3658  -32.2080  -16.3310 O   0  0  0  0  0  0  0  0  0  0  0  0
   31.0088  -32.0169  -16.0672 C   0  0  0  0  0  0  0  0  0  0  0  0
   30.3836  -30.8143  -16.3295 C   0  0  0  0  0  0  0  0  0  0  0  0
   29.0346  -30.6396  -16.0619 C   0  0  0  0  0  0  0  0  0  0  0  0
   28.2638  -31.6489  -15.5270 C   0  0  0  0  0  0  0  0  0  0  0  0
   26.8275  -31.4850  -15.2351 C   0  0  0  0  0  0  0  0  0  0  0  0
   25.9489  -31.9659  -16.3669 C   0  0  2  0  0  0  0  0  0  0  0  0
   25.9266  -31.0386  -17.4716 N   0  0  0  0  0  0  0  0  0  0  0  0
   24.5450  -32.1658  -15.9316 C   0  0  0  0  0  0  0  0  0  0  0  0
   23.5213  -31.3449  -16.3867 O   0  0  0  0  0  0  0  0  0  0  0  0
   28.8931  -32.8529  -15.2653 C   0  0  0  0  0  0  0  0  0  0  0  0
   30.2486  -33.0322  -15.5329 C   0  0  0  0  0  0  0  0  0  0  0  0
   24.2033  -33.0899  -15.1263 O   0  0  0  0  0  0  0  0  0  0  0  0
  2  1  1  0
  3  4  1  0
  3  2  1  0
  5  7  1  0
  5  6  1  1
  5  4  1  0
  7  8  2  0
  9 10  1  0
  9  7  1  0
 10 18  1  0
 10 11  1  6
 12 17  1  0
 12 11  1  0
 13 12  2  0
 14 15  2  0
 14 13  1  0
 15 16  1  0
 16 17  2  0
 18 19  2  0
 20 21  1  0
 21 22  2  0
 21 31  1  0
 22 23  1  0
 23 24  2  0
 24 25  1  0
 26 25  1  1
 26 28  1  0
 27 18  1  0
 27 26  1  0
 28 32  2  0
 28 29  1  0
 30 24  1  0
 31 30  2  0
M  END
$$$$
