MFY.pdb
     RDKit          3D

 32 33  0  0  1  0  0  0  0  0999 V2000
   23.8070  -19.8124  -20.8464 C   0  0  0  0  0  0  0  0  0  0  0  0
   25.3000  -20.0594  -21.8361 S   0  0  0  0  0  0  0  0  0  0  0  0
   25.6617  -21.8376  -21.9287 C   0  0  0  0  0  0  0  0  0  0  0  0
   25.6068  -22.4094  -20.5209 C   0  0  0  0  0  0  0  0  0  0  0  0
   27.0029  -22.4339  -19.9265 C   0  0  2  0  0  0  0  0  0  0  0  0
   27.6776  -23.6019  -20.4267 N   0  0  0  0  0  0  0  0  0  0  0  0
   26.9659  -22.3968  -18.4465 C   0  0  0  0  0  0  0  0  0  0  0  0
   26.7978  -23.4843  -17.8381 O   0  0  0  0  0  0  0  0  0  0  0  0
   27.1089  -21.2136  -17.7076 N   0  0  0  0  0  0  0  0  0  0  0  0
   27.0831  -21.1336  -16.2668 C   0  0  1  0  0  0  0  0  0  0  0  0
   28.0128  -20.0532  -15.7525 C   0  0  0  0  0  0  0  0  0  0  0  0
   27.8578  -19.9112  -14.3046 C   0  0  0  0  0  0  0  0  0  0  0  0
   28.4084  -20.8234  -13.4347 C   0  0  0  0  0  0  0  0  0  0  0  0
   28.2371  -20.6512  -12.0619 C   0  0  0  0  0  0  0  0  0  0  0  0
   27.5258  -19.5837  -11.5591 C   0  0  0  0  0  0  0  0  0  0  0  0
   26.9732  -18.6690  -12.4268 C   0  0  0  0  0  0  0  0  0  0  0  0
   27.1526  -18.8551  -13.7764 C   0  0  0  0  0  0  0  0  0  0  0  0
   25.6923  -20.8911  -15.8320 C   0  0  0  0  0  0  0  0  0  0  0  0
   24.9938  -20.0623  -16.4611 O   0  0  0  0  0  0  0  0  0  0  0  0
   18.2559  -20.9050  -10.9509 O   0  0  0  0  0  0  0  0  0  0  0  0
   19.5449  -21.1545  -11.4238 C   0  0  0  0  0  0  0  0  0  0  0  0
   20.6385  -20.4638  -10.9411 C   0  0  0  0  0  0  0  0  0  0  0  0
   21.9131  -20.7229  -11.4210 C   0  0  0  0  0  0  0  0  0  0  0  0
   22.1441  -21.6727  -12.3923 C   0  0  0  0  0  0  0  0  0  0  0  0
   23.4914  -21.9648  -12.9165 C   0  0  0  0  0  0  0  0  0  0  0  0
   23.7659  -21.2645  -14.2274 C   0  0  2  0  0  0  0  0  0  0  0  0
   25.0879  -21.5473  -14.7302 N   0  0  0  0  0  0  0  0  0  0  0  0
   23.6480  -19.7911  -14.1035 C   0  0  0  0  0  0  0  0  0  0  0  0
   22.5534  -19.1060  -14.6149 O   0  0  0  0  0  0  0  0  0  0  0  0
   21.0463  -22.3633  -12.8740 C   0  0  0  0  0  0  0  0  0  0  0  0
   19.7639  -22.1056  -12.3942 C   0  0  0  0  0  0  0  0  0  0  0  0
   24.5325  -19.0798  -13.5282 O   0  0  0  0  0  0  0  0  0  0  0  0
  2  1  1  0
  3  4  1  0
  3  2  1  0
  5  7  1  0
  5  6  1  1
  5  4  1  0
  7  8  2  0
  9 10  1  0
  9  7  1  0
 10 18  1  0
 10 11  1  6
 12 17  1  0
 12 11  1  0
 13 12  2  0
 14 15  2  0
 14 13  1  0
 15 16  1  0
 16 17  2  0
 18 19  2  0
 20 21  1  0
 21 22  2  0
 21 31  1  0
 22 23  1  0
 23 24  2  0
 24 25  1  0
 26 25  1  1
 26 28  1  0
 27 18  1  0
 27 26  1  0
 28 32  2  0
 28 29  1  0
 30 24  1  0
 31 30  2  0
M  END
$$$$
