MFY.pdb
     RDKit          3D

 32 33  0  0  1  0  0  0  0  0999 V2000
   20.7394  -15.8668  -20.2488 C   0  0  0  0  0  0  0  0  0  0  0  0
   21.2945  -14.6827  -19.0000 S   0  0  0  0  0  0  0  0  0  0  0  0
   23.0405  -14.2798  -19.3007 C   0  0  0  0  0  0  0  0  0  0  0  0
   23.5070  -13.3334  -18.2059 C   0  0  0  0  0  0  0  0  0  0  0  0
   22.9726  -11.9390  -18.4765 C   0  0  2  0  0  0  0  0  0  0  0  0
   23.5100  -11.4944  -19.7347 N   0  0  0  0  0  0  0  0  0  0  0  0
   23.2913  -11.0088  -17.3691 C   0  0  0  0  0  0  0  0  0  0  0  0
   22.8046  -11.2586  -16.2369 O   0  0  0  0  0  0  0  0  0  0  0  0
   24.1028   -9.8767  -17.5313 N   0  0  0  0  0  0  0  0  0  0  0  0
   24.3976   -8.9186  -16.4930 C   0  0  1  0  0  0  0  0  0  0  0  0
   25.8792   -8.6083  -16.4261 C   0  0  0  0  0  0  0  0  0  0  0  0
   26.6392   -9.8458  -16.2484 C   0  0  0  0  0  0  0  0  0  0  0  0
   27.3700  -10.3892  -17.2792 C   0  0  0  0  0  0  0  0  0  0  0  0
   28.0802  -11.5701  -17.0680 C   0  0  0  0  0  0  0  0  0  0  0  0
   28.0640  -12.2042  -15.8448 C   0  0  0  0  0  0  0  0  0  0  0  0
   27.3336  -11.6633  -14.8110 C   0  0  0  0  0  0  0  0  0  0  0  0
   26.6401  -10.4989  -15.0380 C   0  0  0  0  0  0  0  0  0  0  0  0
   23.6076   -7.6952  -16.7412 C   0  0  0  0  0  0  0  0  0  0  0  0
   23.7842   -7.0629  -17.8086 O   0  0  0  0  0  0  0  0  0  0  0  0
   19.5865   -8.1568  -21.6739 O   0  0  0  0  0  0  0  0  0  0  0  0
   19.7860   -7.6965  -20.3716 C   0  0  0  0  0  0  0  0  0  0  0  0
   19.8345   -6.3478  -20.0809 C   0  0  0  0  0  0  0  0  0  0  0  0
   20.0335   -5.9059  -18.7821 C   0  0  0  0  0  0  0  0  0  0  0  0
   20.1905   -6.7845  -17.7322 C   0  0  0  0  0  0  0  0  0  0  0  0
   20.4027   -6.3362  -16.3432 C   0  0  0  0  0  0  0  0  0  0  0  0
   21.8488   -6.0024  -16.0581 C   0  0  2  0  0  0  0  0  0  0  0  0
   22.6468   -7.1828  -15.8333 N   0  0  0  0  0  0  0  0  0  0  0  0
   21.9922   -5.1395  -14.8600 C   0  0  0  0  0  0  0  0  0  0  0  0
   21.6406   -3.7962  -14.8882 O   0  0  0  0  0  0  0  0  0  0  0  0
   20.1413   -8.1354  -18.0266 C   0  0  0  0  0  0  0  0  0  0  0  0
   19.9415   -8.5833  -19.3307 C   0  0  0  0  0  0  0  0  0  0  0  0
   22.4399   -5.5762  -13.7519 O   0  0  0  0  0  0  0  0  0  0  0  0
  2  1  1  0
  3  4  1  0
  3  2  1  0
  5  7  1  0
  5  6  1  6
  5  4  1  0
  7  8  2  0
  9 10  1  0
  9  7  1  0
 10 18  1  0
 10 11  1  6
 12 17  1  0
 12 11  1  0
 13 12  2  0
 14 15  2  0
 14 13  1  0
 15 16  1  0
 16 17  2  0
 18 19  2  0
 20 21  1  0
 21 22  2  0
 21 31  1  0
 22 23  1  0
 23 24  2  0
 24 25  1  0
 26 25  1  1
 26 28  1  0
 27 18  1  0
 27 26  1  0
 28 32  2  0
 28 29  1  0
 30 24  1  0
 31 30  2  0
M  END
$$$$
