MFY.pdb
     RDKit          3D

 32 33  0  0  1  0  0  0  0  0999 V2000
   29.5892  -16.2762  -16.8233 C   0  0  0  0  0  0  0  0  0  0  0  0
   28.3115  -17.2147  -15.9537 S   0  0  0  0  0  0  0  0  0  0  0  0
   28.4502  -18.9678  -16.4106 C   0  0  0  0  0  0  0  0  0  0  0  0
   27.4065  -19.7487  -15.6279 C   0  0  0  0  0  0  0  0  0  0  0  0
   28.0490  -20.3683  -14.4004 C   0  0  2  0  0  0  0  0  0  0  0  0
   28.9444  -21.4035  -14.8431 N   0  0  0  0  0  0  0  0  0  0  0  0
   27.0323  -20.8733  -13.4493 C   0  0  0  0  0  0  0  0  0  0  0  0
   26.5539  -22.0173  -13.6574 O   0  0  0  0  0  0  0  0  0  0  0  0
   26.5888  -20.1363  -12.3418 N   0  0  0  0  0  0  0  0  0  0  0  0
   25.4821  -20.5090  -11.4937 C   0  0  1  0  0  0  0  0  0  0  0  0
   25.3704  -19.5949  -10.2904 C   0  0  0  0  0  0  0  0  0  0  0  0
   26.3800  -19.9566   -9.2953 C   0  0  0  0  0  0  0  0  0  0  0  0
   27.1024  -21.1223   -9.4021 C   0  0  0  0  0  0  0  0  0  0  0  0
   28.0552  -21.4297   -8.4320 C   0  0  0  0  0  0  0  0  0  0  0  0
   28.2875  -20.5872   -7.3668 C   0  0  0  0  0  0  0  0  0  0  0  0
   27.5663  -19.4199   -7.2566 C   0  0  0  0  0  0  0  0  0  0  0  0
   26.6316  -19.1338   -8.2223 C   0  0  0  0  0  0  0  0  0  0  0  0
   24.2426  -20.4861  -12.2971 C   0  0  0  0  0  0  0  0  0  0  0  0
   24.0264  -19.5115  -13.0547 O   0  0  0  0  0  0  0  0  0  0  0  0
   16.6199  -22.9843  -16.1438 O   0  0  0  0  0  0  0  0  0  0  0  0
   17.8786  -22.9412  -15.5427 C   0  0  0  0  0  0  0  0  0  0  0  0
   18.9564  -22.3426  -16.1640 C   0  0  0  0  0  0  0  0  0  0  0  0
   20.2009  -22.3078  -15.5541 C   0  0  0  0  0  0  0  0  0  0  0  0
   20.4165  -22.8638  -14.3119 C   0  0  0  0  0  0  0  0  0  0  0  0
   21.7316  -22.8376  -13.6447 C   0  0  0  0  0  0  0  0  0  0  0  0
   22.0310  -21.4994  -13.0094 C   0  0  2  0  0  0  0  0  0  0  0  0
   23.2663  -21.5135  -12.2648 N   0  0  0  0  0  0  0  0  0  0  0  0
   20.9588  -21.0777  -12.0752 C   0  0  0  0  0  0  0  0  0  0  0  0
   21.0703  -21.2791  -10.7055 O   0  0  0  0  0  0  0  0  0  0  0  0
   19.3346  -23.4628  -13.6917 C   0  0  0  0  0  0  0  0  0  0  0  0
   18.0824  -23.4998  -14.3015 C   0  0  0  0  0  0  0  0  0  0  0  0
   19.8889  -20.5140  -12.4711 O   0  0  0  0  0  0  0  0  0  0  0  0
  2  1  1  0
  3  4  1  0
  3  2  1  0
  5  7  1  0
  5  6  1  6
  5  4  1  0
  7  8  2  0
  9 10  1  0
  9  7  1  0
 10 18  1  0
 10 11  1  1
 12 17  1  0
 12 11  1  0
 13 12  2  0
 14 15  2  0
 14 13  1  0
 15 16  1  0
 16 17  2  0
 18 19  2  0
 20 21  1  0
 21 22  2  0
 21 31  1  0
 22 23  1  0
 23 24  2  0
 24 25  1  0
 26 25  1  1
 26 28  1  0
 27 18  1  0
 27 26  1  0
 28 32  2  0
 28 29  1  0
 30 24  1  0
 31 30  2  0
M  END
$$$$
