MFY.pdb
     RDKit          3D

 32 33  0  0  1  0  0  0  0  0999 V2000
   30.7797  -16.8791  -15.3777 C   0  0  0  0  0  0  0  0  0  0  0  0
   29.6602  -18.2910  -15.5293 S   0  0  0  0  0  0  0  0  0  0  0  0
   27.9447  -17.6977  -15.4496 C   0  0  0  0  0  0  0  0  0  0  0  0
   27.0193  -18.9007  -15.5406 C   0  0  0  0  0  0  0  0  0  0  0  0
   27.6563  -20.0871  -14.8409 C   0  0  2  0  0  0  0  0  0  0  0  0
   28.4866  -20.7718  -15.7956 N   0  0  0  0  0  0  0  0  0  0  0  0
   26.6366  -20.9784  -14.2417 C   0  0  0  0  0  0  0  0  0  0  0  0
   26.0542  -21.7944  -15.0007 O   0  0  0  0  0  0  0  0  0  0  0  0
   26.3000  -20.9485  -12.8807 N   0  0  0  0  0  0  0  0  0  0  0  0
   25.2004  -21.6713  -12.2878 C   0  0  1  0  0  0  0  0  0  0  0  0
   25.5923  -22.2913  -10.9619 C   0  0  0  0  0  0  0  0  0  0  0  0
   26.3611  -21.3302  -10.1709 C   0  0  0  0  0  0  0  0  0  0  0  0
   27.7280  -21.2366  -10.2925 C   0  0  0  0  0  0  0  0  0  0  0  0
   28.4229  -20.3072   -9.5200 C   0  0  0  0  0  0  0  0  0  0  0  0
   27.7660  -19.4796   -8.6357 C   0  0  0  0  0  0  0  0  0  0  0  0
   26.3980  -19.5706   -8.5114 C   0  0  0  0  0  0  0  0  0  0  0  0
   25.7302  -20.4925   -9.2811 C   0  0  0  0  0  0  0  0  0  0  0  0
   24.0594  -20.7469  -12.1272 C   0  0  0  0  0  0  0  0  0  0  0  0
   24.2523  -19.6286  -11.5956 O   0  0  0  0  0  0  0  0  0  0  0  0
   17.0725  -15.7651  -13.7261 O   0  0  0  0  0  0  0  0  0  0  0  0
   18.1810  -16.6129  -13.7215 C   0  0  0  0  0  0  0  0  0  0  0  0
   19.3380  -16.2866  -13.0427 C   0  0  0  0  0  0  0  0  0  0  0  0
   20.4311  -17.1393  -13.0475 C   0  0  0  0  0  0  0  0  0  0  0  0
   20.4125  -18.3399  -13.7235 C   0  0  0  0  0  0  0  0  0  0  0  0
   21.5634  -19.2620  -13.7415 C   0  0  0  0  0  0  0  0  0  0  0  0
   21.6306  -20.1269  -12.5040 C   0  0  2  0  0  0  0  0  0  0  0  0
   22.7384  -21.0499  -12.5433 N   0  0  0  0  0  0  0  0  0  0  0  0
   20.3960  -20.9286  -12.3210 C   0  0  0  0  0  0  0  0  0  0  0  0
   19.2903  -20.4151  -11.6556 O   0  0  0  0  0  0  0  0  0  0  0  0
   19.2517  -18.6642  -14.4027 C   0  0  0  0  0  0  0  0  0  0  0  0
   18.1511  -17.8098  -14.4002 C   0  0  0  0  0  0  0  0  0  0  0  0
   20.2814  -22.1181  -12.7584 O   0  0  0  0  0  0  0  0  0  0  0  0
  2  1  1  0
  3  4  1  0
  3  2  1  0
  5  7  1  0
  5  6  1  6
  5  4  1  0
  7  8  2  0
  9 10  1  0
  9  7  1  0
 10 18  1  0
 10 11  1  1
 12 17  1  0
 12 11  1  0
 13 12  2  0
 14 15  2  0
 14 13  1  0
 15 16  1  0
 16 17  2  0
 18 19  2  0
 20 21  1  0
 21 22  2  0
 21 31  1  0
 22 23  1  0
 23 24  2  0
 24 25  1  0
 26 25  1  6
 26 28  1  0
 27 18  1  0
 27 26  1  0
 28 32  2  0
 28 29  1  0
 30 24  1  0
 31 30  2  0
M  END
$$$$
