MFY.pdb
     RDKit          3D

 32 33  0  0  1  0  0  0  0  0999 V2000
   25.6548  -37.9789  -10.9244 C   0  0  0  0  0  0  0  0  0  0  0  0
   24.4403  -38.2707  -12.2319 S   0  0  0  0  0  0  0  0  0  0  0  0
   24.0446  -36.6902  -13.0360 C   0  0  0  0  0  0  0  0  0  0  0  0
   24.9196  -35.6097  -12.4205 C   0  0  0  0  0  0  0  0  0  0  0  0
   24.0545  -34.4423  -11.9825 C   0  0  2  0  0  0  0  0  0  0  0  0
   23.6191  -33.7452  -13.1632 N   0  0  0  0  0  0  0  0  0  0  0  0
   24.7731  -33.5553  -11.0390 C   0  0  0  0  0  0  0  0  0  0  0  0
   25.4985  -32.6501  -11.5243 O   0  0  0  0  0  0  0  0  0  0  0  0
   24.6775  -33.6834   -9.6459 N   0  0  0  0  0  0  0  0  0  0  0  0
   25.3326  -32.8206   -8.6922 C   0  0  1  0  0  0  0  0  0  0  0  0
   24.3316  -32.1181   -7.7976 C   0  0  0  0  0  0  0  0  0  0  0  0
   23.5330  -31.1792   -8.5857 C   0  0  0  0  0  0  0  0  0  0  0  0
   24.0296  -29.9489   -8.9488 C   0  0  0  0  0  0  0  0  0  0  0  0
   23.2356  -29.0836   -9.7000 C   0  0  0  0  0  0  0  0  0  0  0  0
   21.9612  -29.4376  -10.0863 C   0  0  0  0  0  0  0  0  0  0  0  0
   21.4610  -30.6680   -9.7246 C   0  0  0  0  0  0  0  0  0  0  0  0
   22.2582  -31.5073   -8.9842 C   0  0  0  0  0  0  0  0  0  0  0  0
   26.2816  -33.6281   -7.8987 C   0  0  0  0  0  0  0  0  0  0  0  0
   26.0302  -34.8392   -7.6976 O   0  0  0  0  0  0  0  0  0  0  0  0
   33.8882  -36.3006   -4.1781 O   0  0  0  0  0  0  0  0  0  0  0  0
   32.8709  -35.5113   -4.7163 C   0  0  0  0  0  0  0  0  0  0  0  0
   32.9499  -35.0054   -5.9984 C   0  0  0  0  0  0  0  0  0  0  0  0
   31.9311  -34.2226   -6.5192 C   0  0  0  0  0  0  0  0  0  0  0  0
   30.8040  -33.9169   -5.7877 C   0  0  0  0  0  0  0  0  0  0  0  0
   29.7083  -33.0867   -6.3220 C   0  0  0  0  0  0  0  0  0  0  0  0
   28.4865  -33.9016   -6.6785 C   0  0  2  0  0  0  0  0  0  0  0  0
   27.4782  -33.1112   -7.3413 N   0  0  0  0  0  0  0  0  0  0  0  0
   27.8548  -34.5058   -5.4800 C   0  0  0  0  0  0  0  0  0  0  0  0
   28.0134  -35.8521   -5.1781 O   0  0  0  0  0  0  0  0  0  0  0  0
   30.7276  -34.4254   -4.5033 C   0  0  0  0  0  0  0  0  0  0  0  0
   31.7496  -35.2124   -3.9765 C   0  0  0  0  0  0  0  0  0  0  0  0
   27.1405  -33.8326   -4.6703 O   0  0  0  0  0  0  0  0  0  0  0  0
  2  1  1  0
  3  4  1  0
  3  2  1  0
  5  7  1  0
  5  6  1  6
  5  4  1  0
  7  8  2  0
  9 10  1  0
  9  7  1  0
 10 18  1  0
 10 11  1  1
 12 17  1  0
 12 11  1  0
 13 12  2  0
 14 15  2  0
 14 13  1  0
 15 16  1  0
 16 17  2  0
 18 19  2  0
 20 21  1  0
 21 22  2  0
 21 31  1  0
 22 23  1  0
 23 24  2  0
 24 25  1  0
 26 25  1  1
 26 28  1  0
 27 18  1  0
 27 26  1  0
 28 32  2  0
 28 29  1  0
 30 24  1  0
 31 30  2  0
M  END
$$$$
