MFY.pdb
     RDKit          3D

 32 33  0  0  1  0  0  0  0  0999 V2000
   36.0292  -27.9428  -21.2175 C   0  0  0  0  0  0  0  0  0  0  0  0
   34.9358  -29.2780  -20.6778 S   0  0  0  0  0  0  0  0  0  0  0  0
   33.2405  -28.6379  -20.5450 C   0  0  0  0  0  0  0  0  0  0  0  0
   32.3109  -29.8061  -20.2565 C   0  0  0  0  0  0  0  0  0  0  0  0
   32.7717  -30.5259  -19.0025 C   0  0  2  0  0  0  0  0  0  0  0  0
   34.0155  -31.1845  -19.3008 N   0  0  0  0  0  0  0  0  0  0  0  0
   31.7424  -31.4673  -18.5050 C   0  0  0  0  0  0  0  0  0  0  0  0
   31.6241  -32.5707  -19.0963 O   0  0  0  0  0  0  0  0  0  0  0  0
   30.9066  -31.1805  -17.4161 N   0  0  0  0  0  0  0  0  0  0  0  0
   29.8462  -32.0378  -16.9431 C   0  0  1  0  0  0  0  0  0  0  0  0
   29.7258  -31.9930  -15.4333 C   0  0  0  0  0  0  0  0  0  0  0  0
   28.7182  -32.9547  -14.9857 C   0  0  0  0  0  0  0  0  0  0  0  0
   29.0199  -34.2887  -14.8389 C   0  0  0  0  0  0  0  0  0  0  0  0
   28.0303  -35.1721  -14.4101 C   0  0  0  0  0  0  0  0  0  0  0  0
   26.7543  -34.7341  -14.1303 C   0  0  0  0  0  0  0  0  0  0  0  0
   26.4488  -33.3998  -14.2762 C   0  0  0  0  0  0  0  0  0  0  0  0
   27.4371  -32.5441  -14.6998 C   0  0  0  0  0  0  0  0  0  0  0  0
   28.5833  -31.6282  -17.5908 C   0  0  0  0  0  0  0  0  0  0  0  0
   28.1847  -30.4479  -17.4551 O   0  0  0  0  0  0  0  0  0  0  0  0
   21.5494  -30.9983  -22.8783 O   0  0  0  0  0  0  0  0  0  0  0  0
   22.7518  -31.3747  -22.2782 C   0  0  0  0  0  0  0  0  0  0  0  0
   22.9094  -32.6135  -21.6897 C   0  0  0  0  0  0  0  0  0  0  0  0
   24.1102  -32.9730  -21.0974 C   0  0  0  0  0  0  0  0  0  0  0  0
   25.1907  -32.1182  -21.0696 C   0  0  0  0  0  0  0  0  0  0  0  0
   26.4771  -32.4803  -20.4455 C   0  0  0  0  0  0  0  0  0  0  0  0
   26.5216  -32.1402  -18.9737 C   0  0  2  0  0  0  0  0  0  0  0  0
   27.7806  -32.5001  -18.3687 N   0  0  0  0  0  0  0  0  0  0  0  0
   25.4535  -32.8334  -18.2127 C   0  0  0  0  0  0  0  0  0  0  0  0
   24.3111  -32.1639  -17.7936 O   0  0  0  0  0  0  0  0  0  0  0  0
   25.0297  -30.8775  -21.6602 C   0  0  0  0  0  0  0  0  0  0  0  0
   23.8245  -30.5127  -22.2564 C   0  0  0  0  0  0  0  0  0  0  0  0
   25.5227  -34.0660  -17.9044 O   0  0  0  0  0  0  0  0  0  0  0  0
  2  1  1  0
  3  4  1  0
  3  2  1  0
  5  7  1  0
  5  6  1  6
  5  4  1  0
  7  8  2  0
  9 10  1  0
  9  7  1  0
 10 18  1  0
 10 11  1  1
 12 17  1  0
 12 11  1  0
 13 12  2  0
 14 15  2  0
 14 13  1  0
 15 16  1  0
 16 17  2  0
 18 19  2  0
 20 21  1  0
 21 22  2  0
 21 31  1  0
 22 23  1  0
 23 24  2  0
 24 25  1  0
 26 25  1  6
 26 28  1  0
 27 18  1  0
 27 26  1  0
 28 32  2  0
 28 29  1  0
 30 24  1  0
 31 30  2  0
M  END
$$$$
