MFY.pdb
     RDKit          3D

 32 33  0  0  1  0  0  0  0  0999 V2000
   21.6472  -39.7382   -9.3879 C   0  0  0  0  0  0  0  0  0  0  0  0
   22.1472  -40.0322  -11.1005 S   0  0  0  0  0  0  0  0  0  0  0  0
   23.2154  -38.6682  -11.6480 C   0  0  0  0  0  0  0  0  0  0  0  0
   24.0222  -38.1851  -10.4533 C   0  0  0  0  0  0  0  0  0  0  0  0
   24.0584  -36.6680  -10.4432 C   0  0  2  0  0  0  0  0  0  0  0  0
   24.7637  -36.2333  -11.6192 N   0  0  0  0  0  0  0  0  0  0  0  0
   24.6665  -36.1456   -9.1979 C   0  0  0  0  0  0  0  0  0  0  0  0
   25.9201  -36.1687   -9.1047 O   0  0  0  0  0  0  0  0  0  0  0  0
   23.9097  -35.6335   -8.1342 N   0  0  0  0  0  0  0  0  0  0  0  0
   24.4621  -35.0185   -6.9511 C   0  0  1  0  0  0  0  0  0  0  0  0
   24.2950  -33.5127   -6.9767 C   0  0  0  0  0  0  0  0  0  0  0  0
   25.1237  -32.9380   -8.0366 C   0  0  0  0  0  0  0  0  0  0  0  0
   24.6281  -32.7452   -9.3052 C   0  0  0  0  0  0  0  0  0  0  0  0
   25.4513  -32.1946  -10.2864 C   0  0  0  0  0  0  0  0  0  0  0  0
   26.7535  -31.8396  -10.0095 C   0  0  0  0  0  0  0  0  0  0  0  0
   27.2528  -32.0313   -8.7411 C   0  0  0  0  0  0  0  0  0  0  0  0
   26.4266  -32.5750   -7.7872 C   0  0  0  0  0  0  0  0  0  0  0  0
   23.8089  -35.6070   -5.7640 C   0  0  0  0  0  0  0  0  0  0  0  0
   22.5630  -35.7416   -5.7590 O   0  0  0  0  0  0  0  0  0  0  0  0
   22.3216  -40.1251    1.7036 O   0  0  0  0  0  0  0  0  0  0  0  0
   22.9390  -39.4858    0.6277 C   0  0  0  0  0  0  0  0  0  0  0  0
   23.5143  -38.2379    0.7615 C   0  0  0  0  0  0  0  0  0  0  0  0
   24.1240  -37.6155   -0.3168 C   0  0  0  0  0  0  0  0  0  0  0  0
   24.1829  -38.2085   -1.5593 C   0  0  0  0  0  0  0  0  0  0  0  0
   24.8268  -37.5646   -2.7196 C   0  0  0  0  0  0  0  0  0  0  0  0
   23.9018  -36.6091   -3.4375 C   0  0  2  0  0  0  0  0  0  0  0  0
   24.5139  -36.0361   -4.6113 N   0  0  0  0  0  0  0  0  0  0  0  0
   23.4825  -35.4843   -2.5661 C   0  0  0  0  0  0  0  0  0  0  0  0
   22.2652  -35.5001   -1.8977 O   0  0  0  0  0  0  0  0  0  0  0  0
   23.6056  -39.4589   -1.6903 C   0  0  0  0  0  0  0  0  0  0  0  0
   22.9920  -40.0876   -0.6089 C   0  0  0  0  0  0  0  0  0  0  0  0
   24.2061  -34.4535   -2.3837 O   0  0  0  0  0  0  0  0  0  0  0  0
  2  1  1  0
  3  4  1  0
  3  2  1  0
  5  7  1  0
  5  6  1  6
  5  4  1  0
  7  8  2  0
  9 10  1  0
  9  7  1  0
 10 18  1  0
 10 11  1  6
 12 17  1  0
 12 11  1  0
 13 12  2  0
 14 15  2  0
 14 13  1  0
 15 16  1  0
 16 17  2  0
 18 19  2  0
 20 21  1  0
 21 22  2  0
 21 31  1  0
 22 23  1  0
 23 24  2  0
 24 25  1  0
 26 25  1  1
 26 28  1  0
 27 18  1  0
 27 26  1  0
 28 32  2  0
 28 29  1  0
 30 24  1  0
 31 30  2  0
M  END
$$$$
