MFY.pdb
     RDKit          3D

 32 33  0  0  1  0  0  0  0  0999 V2000
   23.5949  -23.9109  -24.0818 C   0  0  0  0  0  0  0  0  0  0  0  0
   23.9041  -22.7945  -22.6933 S   0  0  0  0  0  0  0  0  0  0  0  0
   22.6816  -23.1193  -21.3889 C   0  0  0  0  0  0  0  0  0  0  0  0
   23.1112  -24.3663  -20.6324 C   0  0  0  0  0  0  0  0  0  0  0  0
   24.2467  -24.0219  -19.6862 C   0  0  2  0  0  0  0  0  0  0  0  0
   25.4404  -24.6583  -20.1755 N   0  0  0  0  0  0  0  0  0  0  0  0
   23.9323  -24.4125  -18.2926 C   0  0  0  0  0  0  0  0  0  0  0  0
   23.6909  -25.6254  -18.0654 O   0  0  0  0  0  0  0  0  0  0  0  0
   23.8940  -23.4959  -17.2320 N   0  0  0  0  0  0  0  0  0  0  0  0
   23.5512  -23.8263  -15.8695 C   0  0  1  0  0  0  0  0  0  0  0  0
   24.7222  -23.6098  -14.9327 C   0  0  0  0  0  0  0  0  0  0  0  0
   25.8592  -24.4250  -15.3606 C   0  0  0  0  0  0  0  0  0  0  0  0
   25.8954  -25.7797  -15.1251 C   0  0  0  0  0  0  0  0  0  0  0  0
   26.9978  -26.5201  -15.5492 C   0  0  0  0  0  0  0  0  0  0  0  0
   28.0534  -25.9202  -16.2006 C   0  0  0  0  0  0  0  0  0  0  0  0
   28.0206  -24.5646  -16.4380 C   0  0  0  0  0  0  0  0  0  0  0  0
   26.9258  -23.8514  -16.0126 C   0  0  0  0  0  0  0  0  0  0  0  0
   22.3872  -23.0118  -15.4646 C   0  0  0  0  0  0  0  0  0  0  0  0
   22.4940  -21.7632  -15.4490 O   0  0  0  0  0  0  0  0  0  0  0  0
   18.1895  -22.0182  -20.6794 O   0  0  0  0  0  0  0  0  0  0  0  0
   18.3220  -22.3356  -19.3269 C   0  0  0  0  0  0  0  0  0  0  0  0
   18.9099  -23.5150  -18.9153 C   0  0  0  0  0  0  0  0  0  0  0  0
   19.0343  -23.8163  -17.5678 C   0  0  0  0  0  0  0  0  0  0  0  0
   18.5813  -22.9603  -16.5875 C   0  0  0  0  0  0  0  0  0  0  0  0
   18.7040  -23.2606  -15.1487 C   0  0  0  0  0  0  0  0  0  0  0  0
   20.0237  -22.8017  -14.5729 C   0  0  2  0  0  0  0  0  0  0  0  0
   21.1366  -23.5622  -15.0864 N   0  0  0  0  0  0  0  0  0  0  0  0
   20.0542  -22.9205  -13.0946 C   0  0  0  0  0  0  0  0  0  0  0  0
   19.1813  -22.1981  -12.2913 O   0  0  0  0  0  0  0  0  0  0  0  0
   17.9928  -21.7792  -17.0031 C   0  0  0  0  0  0  0  0  0  0  0  0
   17.8659  -21.4730  -18.3564 C   0  0  0  0  0  0  0  0  0  0  0  0
   20.8719  -23.6822  -12.4860 O   0  0  0  0  0  0  0  0  0  0  0  0
  2  1  1  0
  3  4  1  0
  3  2  1  0
  5  7  1  0
  5  6  1  6
  5  4  1  0
  7  8  2  0
  9 10  1  0
  9  7  1  0
 10 18  1  0
 10 11  1  1
 12 17  1  0
 12 11  1  0
 13 12  2  0
 14 15  2  0
 14 13  1  0
 15 16  1  0
 16 17  2  0
 18 19  2  0
 20 21  1  0
 21 22  2  0
 21 31  1  0
 22 23  1  0
 23 24  2  0
 24 25  1  0
 26 25  1  6
 26 28  1  0
 27 18  1  0
 27 26  1  0
 28 32  2  0
 28 29  1  0
 30 24  1  0
 31 30  2  0
M  END
$$$$
