MFY.pdb
     RDKit          3D

 32 33  0  0  1  0  0  0  0  0999 V2000
   10.5667  -31.5558   -2.8928 C   0  0  0  0  0  0  0  0  0  0  0  0
   12.1942  -31.6602   -2.1116 S   0  0  0  0  0  0  0  0  0  0  0  0
   13.4735  -31.6236   -3.4013 C   0  0  0  0  0  0  0  0  0  0  0  0
   14.8341  -31.6822   -2.7252 C   0  0  0  0  0  0  0  0  0  0  0  0
   15.4361  -30.2902   -2.6708 C   0  0  2  0  0  0  0  0  0  0  0  0
   15.8615  -29.9385   -3.9993 N   0  0  0  0  0  0  0  0  0  0  0  0
   16.5410  -30.2122   -1.6877 C   0  0  0  0  0  0  0  0  0  0  0  0
   17.6558  -30.6885   -2.0217 O   0  0  0  0  0  0  0  0  0  0  0  0
   16.3948  -29.6365   -0.4175 N   0  0  0  0  0  0  0  0  0  0  0  0
   17.4617  -29.4727    0.5407 C   0  0  1  0  0  0  0  0  0  0  0  0
   17.7585  -28.0093    0.7986 C   0  0  0  0  0  0  0  0  0  0  0  0
   18.2683  -27.3825   -0.4212 C   0  0  0  0  0  0  0  0  0  0  0  0
   17.4273  -26.7363   -1.2971 C   0  0  0  0  0  0  0  0  0  0  0  0
   17.9539  -26.1523   -2.4482 C   0  0  0  0  0  0  0  0  0  0  0  0
   19.3022  -26.2101   -2.7259 C   0  0  0  0  0  0  0  0  0  0  0  0
   20.1467  -26.8561   -1.8515 C   0  0  0  0  0  0  0  0  0  0  0  0
   19.6096  -27.4256   -0.7222 C   0  0  0  0  0  0  0  0  0  0  0  0
   17.0866  -30.1683    1.7887 C   0  0  0  0  0  0  0  0  0  0  0  0
   15.9443  -29.9822    2.2694 O   0  0  0  0  0  0  0  0  0  0  0  0
   13.5352  -35.1282    0.0157 O   0  0  0  0  0  0  0  0  0  0  0  0
   14.5488  -34.6659    0.8562 C   0  0  0  0  0  0  0  0  0  0  0  0
   15.6636  -34.0217    0.3580 C   0  0  0  0  0  0  0  0  0  0  0  0
   16.6623  -33.5681    1.2059 C   0  0  0  0  0  0  0  0  0  0  0  0
   16.5883  -33.7379    2.5713 C   0  0  0  0  0  0  0  0  0  0  0  0
   17.6386  -33.2630    3.4913 C   0  0  0  0  0  0  0  0  0  0  0  0
   17.5997  -31.7652    3.6892 C   0  0  2  0  0  0  0  0  0  0  0  0
   17.9512  -31.0472    2.4885 N   0  0  0  0  0  0  0  0  0  0  0  0
   18.5317  -31.3231    4.7552 C   0  0  0  0  0  0  0  0  0  0  0  0
   18.4213  -31.7959    6.0564 O   0  0  0  0  0  0  0  0  0  0  0  0
   15.4699  -34.3838    3.0676 C   0  0  0  0  0  0  0  0  0  0  0  0
   14.4642  -34.8411    2.2187 C   0  0  0  0  0  0  0  0  0  0  0  0
   19.4741  -30.4955    4.5402 O   0  0  0  0  0  0  0  0  0  0  0  0
  2  1  1  0
  3  4  1  0
  3  2  1  0
  5  7  1  0
  5  6  1  6
  5  4  1  0
  7  8  2  0
  9 10  1  0
  9  7  1  0
 10 18  1  0
 10 11  1  1
 12 17  1  0
 12 11  1  0
 13 12  2  0
 14 15  2  0
 14 13  1  0
 15 16  1  0
 16 17  2  0
 18 19  2  0
 20 21  1  0
 21 22  2  0
 21 31  1  0
 22 23  1  0
 23 24  2  0
 24 25  1  0
 26 25  1  6
 26 28  1  0
 27 18  1  0
 27 26  1  0
 28 32  2  0
 28 29  1  0
 30 24  1  0
 31 30  2  0
M  END
$$$$
