HMW.pdb
     RDKit          3D

 33 35  0  0  1  0  0  0  0  0999 V2000
   12.7994  -19.1234    7.5997 N   0  0  0  0  0  0  0  0  0  0  0  0
   14.0160  -18.7844    6.9340 C   0  0  1  0  0  0  0  0  0  0  0  0
   14.2108  -17.3097    6.7253 C   0  0  0  0  0  0  0  0  0  0  0  0
   13.1900  -16.7719    5.7856 C   0  0  0  0  0  0  0  0  0  0  0  0
   12.2479  -17.5280    5.1332 C   0  0  0  0  0  0  0  0  0  0  0  0
   11.5058  -16.6948    4.3731 N   0  0  0  0  0  0  0  0  0  0  0  0
   11.9638  -15.4545    4.5403 C   0  0  0  0  0  0  0  0  0  0  0  0
   12.9990  -15.4778    5.4043 N   0  0  0  0  0  0  0  0  0  0  0  0
   15.2181  -19.3314    7.6373 C   0  0  0  0  0  0  0  0  0  0  0  0
   15.0688  -19.8664    8.7815 O   0  0  0  0  0  0  0  0  0  0  0  0
   22.2986  -19.9011    6.3487 C   0  0  0  0  0  0  0  0  0  0  0  0
   21.2300  -21.3352    6.6404 S   0  0  0  0  0  0  0  0  0  0  0  0
   19.8776  -20.8931    7.7330 C   0  0  0  0  0  0  0  0  0  0  0  0
   18.8190  -20.1725    6.9221 C   0  0  0  0  0  0  0  0  0  0  0  0
   17.6208  -19.8856    7.8019 C   0  0  2  0  0  0  0  0  0  0  0  0
   16.5271  -19.2924    7.1069 N   0  0  0  0  0  0  0  0  0  0  0  0
   18.1016  -19.0330    8.9178 C   0  0  0  0  0  0  0  0  0  0  0  0
   18.9957  -19.5348    9.6500 O   0  0  0  0  0  0  0  0  0  0  0  0
   17.5923  -17.7323    9.1544 N   0  0  0  0  0  0  0  0  0  0  0  0
   18.4675  -16.6175    8.9514 C   0  0  1  0  0  0  0  0  0  0  0  0
   19.1976  -16.6926    7.6260 C   0  0  0  0  0  0  0  0  0  0  0  0
   19.8349  -15.3797    7.3738 C   0  0  0  0  0  0  0  0  0  0  0  0
   20.9041  -14.7972    8.0547 C   0  0  0  0  0  0  0  0  0  0  0  0
   21.1803  -13.5928    7.5211 N   0  0  0  0  0  0  0  0  0  0  0  0
   20.3341  -13.3390    6.5009 C   0  0  0  0  0  0  0  0  0  0  0  0
   20.1553  -12.2957    5.6201 C   0  0  0  0  0  0  0  0  0  0  0  0
   19.1775  -12.3008    4.6435 C   0  0  0  0  0  0  0  0  0  0  0  0
   18.3594  -13.4122    4.5708 C   0  0  0  0  0  0  0  0  0  0  0  0
   18.5053  -14.4772    5.4334 C   0  0  0  0  0  0  0  0  0  0  0  0
   19.4994  -14.4309    6.3984 C   0  0  0  0  0  0  0  0  0  0  0  0
   17.6590  -15.3825    8.9975 C   0  0  0  0  0  0  0  0  0  0  0  0
   16.4537  -15.3214    8.3367 O   0  0  0  0  0  0  0  0  0  0  0  0
   18.0589  -14.3893    9.6324 O   0  0  0  0  0  0  0  0  0  0  0  0
  2  1  1  1
  2  3  1  0
  3  4  1  0
  4  8  1  0
  5  4  2  0
  5  6  1  0
  6  7  1  0
  8  7  2  0
  9  2  1  0
  9 10  2  0
 11 12  1  0
 12 13  1  0
 13 14  1  0
 15 16  1  0
 15 14  1  6
 16  9  1  0
 17 15  1  0
 18 17  2  0
 19 17  1  0
 20 19  1  0
 20 21  1  6
 21 22  1  0
 22 30  1  0
 23 24  1  0
 23 22  2  0
 24 25  1  0
 25 30  2  0
 25 26  1  0
 26 27  2  0
 27 28  1  0
 29 28  2  0
 30 29  1  0
 31 32  1  0
 31 20  1  0
 33 31  2  0
M  END
$$$$
