HMW.pdb
     RDKit          3D

 33 35  0  0  1  0  0  0  0  0999 V2000
   21.6140  -18.0081  -16.1834 N   0  0  0  0  0  0  0  0  0  0  0  0
   22.7040  -17.6362  -15.3398 C   0  0  1  0  0  0  0  0  0  0  0  0
   22.5138  -16.3239  -14.6342 C   0  0  0  0  0  0  0  0  0  0  0  0
   22.5028  -15.1993  -15.6088 C   0  0  0  0  0  0  0  0  0  0  0  0
   23.6104  -14.7112  -16.2567 C   0  0  0  0  0  0  0  0  0  0  0  0
   23.2079  -13.6986  -17.0538 N   0  0  0  0  0  0  0  0  0  0  0  0
   21.8906  -13.5526  -16.9139 C   0  0  0  0  0  0  0  0  0  0  0  0
   21.4357  -14.4645  -16.0305 N   0  0  0  0  0  0  0  0  0  0  0  0
   23.0160  -18.6868  -14.3211 C   0  0  0  0  0  0  0  0  0  0  0  0
   22.0926  -19.0748  -13.5373 O   0  0  0  0  0  0  0  0  0  0  0  0
   25.3970  -25.7536  -12.9045 C   0  0  0  0  0  0  0  0  0  0  0  0
   25.2802  -24.3337  -14.0243 S   0  0  0  0  0  0  0  0  0  0  0  0
   24.9026  -22.8419  -13.1023 C   0  0  0  0  0  0  0  0  0  0  0  0
   24.8793  -21.6726  -14.0665 C   0  0  0  0  0  0  0  0  0  0  0  0
   24.4718  -20.4175  -13.3246 C   0  0  2  0  0  0  0  0  0  0  0  0
   24.2871  -19.2850  -14.1700 N   0  0  0  0  0  0  0  0  0  0  0  0
   25.5058  -20.1769  -12.2871 C   0  0  0  0  0  0  0  0  0  0  0  0
   26.5842  -19.6656  -12.6908 O   0  0  0  0  0  0  0  0  0  0  0  0
   25.3028  -20.4995  -10.9226 N   0  0  0  0  0  0  0  0  0  0  0  0
   26.2938  -20.0843   -9.9762 C   0  0  1  0  0  0  0  0  0  0  0  0
   25.7156  -19.8755   -8.5914 C   0  0  0  0  0  0  0  0  0  0  0  0
   26.7562  -19.2469   -7.7456 C   0  0  0  0  0  0  0  0  0  0  0  0
   27.3701  -18.0059   -7.9164 C   0  0  0  0  0  0  0  0  0  0  0  0
   28.2679  -17.8043   -6.9341 N   0  0  0  0  0  0  0  0  0  0  0  0
   28.2834  -18.8673   -6.1027 C   0  0  0  0  0  0  0  0  0  0  0  0
   28.9813  -19.2033   -4.9642 C   0  0  0  0  0  0  0  0  0  0  0  0
   28.7904  -20.3975   -4.2953 C   0  0  0  0  0  0  0  0  0  0  0  0
   27.8538  -21.2718   -4.8131 C   0  0  0  0  0  0  0  0  0  0  0  0
   27.1345  -20.9735   -5.9502 C   0  0  0  0  0  0  0  0  0  0  0  0
   27.3573  -19.7641   -6.5901 C   0  0  0  0  0  0  0  0  0  0  0  0
   27.3411  -21.1240   -9.9196 C   0  0  0  0  0  0  0  0  0  0  0  0
   28.6544  -20.7704   -9.7115 O   0  0  0  0  0  0  0  0  0  0  0  0
   27.0465  -22.3253  -10.0590 O   0  0  0  0  0  0  0  0  0  0  0  0
  2  1  1  1
  2  3  1  0
  3  4  1  0
  4  8  1  0
  5  4  2  0
  5  6  1  0
  6  7  1  0
  8  7  2  0
  9  2  1  0
  9 10  2  0
 11 12  1  0
 12 13  1  0
 13 14  1  0
 15 16  1  0
 15 14  1  6
 16  9  1  0
 17 15  1  0
 18 17  2  0
 19 17  1  0
 20 19  1  0
 20 21  1  1
 21 22  1  0
 22 30  1  0
 23 24  1  0
 23 22  2  0
 24 25  1  0
 25 30  2  0
 25 26  1  0
 26 27  2  0
 27 28  1  0
 29 28  2  0
 30 29  1  0
 31 32  1  0
 31 20  1  0
 33 31  2  0
M  END
$$$$
