HMW.pdb
     RDKit          3D

 33 35  0  0  1  0  0  0  0  0999 V2000
   23.0898  -22.6272  -16.7053 N   0  0  0  0  0  0  0  0  0  0  0  0
   22.9770  -21.7245  -15.6051 C   0  0  1  0  0  0  0  0  0  0  0  0
   21.6900  -21.8471  -14.8403 C   0  0  0  0  0  0  0  0  0  0  0  0
   20.5534  -21.3043  -15.6328 C   0  0  0  0  0  0  0  0  0  0  0  0
   19.6728  -22.0628  -16.3634 C   0  0  0  0  0  0  0  0  0  0  0  0
   18.7871  -21.2232  -16.9408 N   0  0  0  0  0  0  0  0  0  0  0  0
   19.0979  -19.9767  -16.5863 C   0  0  0  0  0  0  0  0  0  0  0  0
   20.1804  -20.0023  -15.7823 N   0  0  0  0  0  0  0  0  0  0  0  0
   24.1182  -21.8548  -14.6461 C   0  0  0  0  0  0  0  0  0  0  0  0
   24.2666  -22.9485  -14.0141 O   0  0  0  0  0  0  0  0  0  0  0  0
   29.8425  -18.9591  -14.6691 C   0  0  0  0  0  0  0  0  0  0  0  0
   29.7571  -19.3458  -12.9008 S   0  0  0  0  0  0  0  0  0  0  0  0
   28.3032  -20.3358  -12.5485 C   0  0  0  0  0  0  0  0  0  0  0  0
   27.2663  -20.0676  -13.6211 C   0  0  0  0  0  0  0  0  0  0  0  0
   26.0876  -20.9969  -13.4242 C   0  0  2  0  0  0  0  0  0  0  0  0
   25.0553  -20.8283  -14.3923 N   0  0  0  0  0  0  0  0  0  0  0  0
   25.5960  -20.7800  -12.0404 C   0  0  0  0  0  0  0  0  0  0  0  0
   24.6859  -19.9191  -11.9066 O   0  0  0  0  0  0  0  0  0  0  0  0
   26.1124  -21.4924  -10.9301 N   0  0  0  0  0  0  0  0  0  0  0  0
   25.4911  -21.2977   -9.6549 C   0  0  1  0  0  0  0  0  0  0  0  0
   26.2906  -21.9135   -8.5248 C   0  0  0  0  0  0  0  0  0  0  0  0
   26.8227  -20.8169   -7.6835 C   0  0  0  0  0  0  0  0  0  0  0  0
   26.2408  -19.5775   -7.4161 C   0  0  0  0  0  0  0  0  0  0  0  0
   27.0463  -18.8621   -6.6093 N   0  0  0  0  0  0  0  0  0  0  0  0
   28.1552  -19.5751   -6.3204 C   0  0  0  0  0  0  0  0  0  0  0  0
   29.2867  -19.3541   -5.5674 C   0  0  0  0  0  0  0  0  0  0  0  0
   30.2968  -20.2890   -5.4434 C   0  0  0  0  0  0  0  0  0  0  0  0
   30.1382  -21.4868   -6.1141 C   0  0  0  0  0  0  0  0  0  0  0  0
   29.0212  -21.7473   -6.8782 C   0  0  0  0  0  0  0  0  0  0  0  0
   28.0315  -20.7814   -6.9753 C   0  0  0  0  0  0  0  0  0  0  0  0
   25.3550  -19.8451   -9.4256 C   0  0  0  0  0  0  0  0  0  0  0  0
   24.3180  -19.3609   -8.6617 O   0  0  0  0  0  0  0  0  0  0  0  0
   26.1740  -19.0484   -9.9194 O   0  0  0  0  0  0  0  0  0  0  0  0
  2  1  1  6
  2  3  1  0
  3  4  1  0
  4  8  1  0
  5  4  2  0
  5  6  1  0
  6  7  1  0
  8  7  2  0
  9  2  1  0
  9 10  2  0
 11 12  1  0
 12 13  1  0
 13 14  1  0
 15 16  1  0
 15 14  1  6
 16  9  1  0
 17 15  1  0
 18 17  2  0
 19 17  1  0
 20 19  1  0
 20 21  1  1
 21 22  1  0
 22 30  1  0
 23 24  1  0
 23 22  2  0
 24 25  1  0
 25 30  2  0
 25 26  1  0
 26 27  2  0
 27 28  1  0
 29 28  2  0
 30 29  1  0
 31 32  1  0
 31 20  1  0
 33 31  2  0
M  END
$$$$
