HMW.pdb
     RDKit          3D

 33 35  0  0  1  0  0  0  0  0999 V2000
   27.5881  -20.1612  -15.4633 N   0  0  0  0  0  0  0  0  0  0  0  0
   27.8092  -19.4232  -14.2614 C   0  0  1  0  0  0  0  0  0  0  0  0
   26.8346  -18.3014  -14.0421 C   0  0  0  0  0  0  0  0  0  0  0  0
   26.8934  -17.3265  -15.1647 C   0  0  0  0  0  0  0  0  0  0  0  0
   25.9085  -17.1518  -16.1051 C   0  0  0  0  0  0  0  0  0  0  0  0
   26.3184  -16.1871  -16.9560 N   0  0  0  0  0  0  0  0  0  0  0  0
   27.5213  -15.7668  -16.5658 C   0  0  0  0  0  0  0  0  0  0  0  0
   27.8948  -16.4532  -15.4666 N   0  0  0  0  0  0  0  0  0  0  0  0
   27.8096  -20.3010  -13.0496 C   0  0  0  0  0  0  0  0  0  0  0  0
   26.8907  -21.1709  -12.9219 O   0  0  0  0  0  0  0  0  0  0  0  0
   33.7965  -22.9702  -11.2705 C   0  0  0  0  0  0  0  0  0  0  0  0
   32.5847  -22.1263  -10.2203 S   0  0  0  0  0  0  0  0  0  0  0  0
   31.0014  -22.0197  -11.0569 C   0  0  0  0  0  0  0  0  0  0  0  0
   30.0408  -21.2489  -10.1735 C   0  0  0  0  0  0  0  0  0  0  0  0
   28.7168  -21.0892  -10.8902 C   0  0  2  0  0  0  0  0  0  0  0  0
   28.7774  -20.2263  -12.0229 N   0  0  0  0  0  0  0  0  0  0  0  0
   27.7360  -20.6175   -9.8808 C   0  0  0  0  0  0  0  0  0  0  0  0
   27.6864  -19.3717   -9.6997 O   0  0  0  0  0  0  0  0  0  0  0  0
   26.9016  -21.5060   -9.1587 N   0  0  0  0  0  0  0  0  0  0  0  0
   26.0537  -20.9600   -8.1424 C   0  0  1  0  0  0  0  0  0  0  0  0
   26.2200  -19.4611   -7.9978 C   0  0  0  0  0  0  0  0  0  0  0  0
   27.2112  -19.2067   -6.9271 C   0  0  0  0  0  0  0  0  0  0  0  0
   27.9719  -18.0568   -6.7142 C   0  0  0  0  0  0  0  0  0  0  0  0
   28.7593  -18.2264   -5.6359 N   0  0  0  0  0  0  0  0  0  0  0  0
   28.5581  -19.4531   -5.1103 C   0  0  0  0  0  0  0  0  0  0  0  0
   29.0710  -20.1501   -4.0392 C   0  0  0  0  0  0  0  0  0  0  0  0
   28.6718  -21.4347   -3.7226 C   0  0  0  0  0  0  0  0  0  0  0  0
   27.7166  -22.0196   -4.5320 C   0  0  0  0  0  0  0  0  0  0  0  0
   27.1782  -21.3563   -5.6135 C   0  0  0  0  0  0  0  0  0  0  0  0
   27.6070  -20.0685   -5.8953 C   0  0  0  0  0  0  0  0  0  0  0  0
   24.6532  -21.2669   -8.4967 C   0  0  0  0  0  0  0  0  0  0  0  0
   23.6475  -21.0563   -7.5816 O   0  0  0  0  0  0  0  0  0  0  0  0
   24.3708  -21.7172   -9.6222 O   0  0  0  0  0  0  0  0  0  0  0  0
  2  1  1  6
  2  3  1  0
  3  4  1  0
  4  8  1  0
  5  4  2  0
  5  6  1  0
  6  7  1  0
  8  7  2  0
  9  2  1  0
  9 10  2  0
 11 12  1  0
 12 13  1  0
 13 14  1  0
 15 16  1  0
 15 14  1  1
 16  9  1  0
 17 15  1  0
 18 17  2  0
 19 17  1  0
 20 19  1  0
 20 21  1  6
 21 22  1  0
 22 30  1  0
 23 24  1  0
 23 22  2  0
 24 25  1  0
 25 30  2  0
 25 26  1  0
 26 27  2  0
 27 28  1  0
 29 28  2  0
 30 29  1  0
 31 32  1  0
 31 20  1  0
 33 31  2  0
M  END
$$$$
