HMW.pdb
     RDKit          3D

 33 35  0  0  1  0  0  0  0  0999 V2000
   21.6045  -18.4746  -15.6180 N   0  0  0  0  0  0  0  0  0  0  0  0
   22.7454  -18.0919  -14.8498 C   0  0  1  0  0  0  0  0  0  0  0  0
   22.5997  -16.7700  -14.1516 C   0  0  0  0  0  0  0  0  0  0  0  0
   22.9407  -15.6497  -15.0698 C   0  0  0  0  0  0  0  0  0  0  0  0
   22.0468  -14.7190  -15.5384 C   0  0  0  0  0  0  0  0  0  0  0  0
   22.7214  -13.8681  -16.3407 N   0  0  0  0  0  0  0  0  0  0  0  0
   23.9981  -14.2486  -16.3770 C   0  0  0  0  0  0  0  0  0  0  0  0
   24.1561  -15.3417  -15.6031 N   0  0  0  0  0  0  0  0  0  0  0  0
   23.1210  -19.1288  -13.8385 C   0  0  0  0  0  0  0  0  0  0  0  0
   22.2814  -19.4360  -12.9339 O   0  0  0  0  0  0  0  0  0  0  0  0
   24.5286  -25.3995  -13.5130 C   0  0  0  0  0  0  0  0  0  0  0  0
   23.2172  -24.1575  -13.6591 S   0  0  0  0  0  0  0  0  0  0  0  0
   23.8649  -22.6490  -14.3824 C   0  0  0  0  0  0  0  0  0  0  0  0
   25.0111  -22.1557  -13.5220 C   0  0  0  0  0  0  0  0  0  0  0  0
   24.6283  -20.8380  -12.8824 C   0  0  2  0  0  0  0  0  0  0  0  0
   24.3648  -19.7989  -13.8216 N   0  0  0  0  0  0  0  0  0  0  0  0
   25.7240  -20.4803  -11.9469 C   0  0  0  0  0  0  0  0  0  0  0  0
   26.6997  -19.8623  -12.4503 O   0  0  0  0  0  0  0  0  0  0  0  0
   25.6850  -20.8096  -10.5696 N   0  0  0  0  0  0  0  0  0  0  0  0
   26.8785  -20.6310   -9.7989 C   0  0  1  0  0  0  0  0  0  0  0  0
   26.6896  -21.0198   -8.3468 C   0  0  0  0  0  0  0  0  0  0  0  0
   27.2272  -19.9285   -7.5020 C   0  0  0  0  0  0  0  0  0  0  0  0
   27.1742  -18.5541   -7.7352 C   0  0  0  0  0  0  0  0  0  0  0  0
   27.7836  -17.8990   -6.7297 N   0  0  0  0  0  0  0  0  0  0  0  0
   28.2482  -18.7834   -5.8223 C   0  0  0  0  0  0  0  0  0  0  0  0
   28.9319  -18.6881   -4.6307 C   0  0  0  0  0  0  0  0  0  0  0  0
   29.2926  -19.7944   -3.8851 C   0  0  0  0  0  0  0  0  0  0  0  0
   28.9395  -21.0354   -4.3800 C   0  0  0  0  0  0  0  0  0  0  0  0
   28.2554  -21.1740   -5.5684 C   0  0  0  0  0  0  0  0  0  0  0  0
   27.9129  -20.0376   -6.2847 C   0  0  0  0  0  0  0  0  0  0  0  0
   27.9416  -21.4641  -10.3961 C   0  0  0  0  0  0  0  0  0  0  0  0
   29.2511  -21.0433  -10.3590 O   0  0  0  0  0  0  0  0  0  0  0  0
   27.6640  -22.5505  -10.9365 O   0  0  0  0  0  0  0  0  0  0  0  0
  2  1  1  1
  2  3  1  0
  3  4  1  0
  4  8  1  0
  5  4  2  0
  5  6  1  0
  6  7  1  0
  8  7  2  0
  9  2  1  0
  9 10  2  0
 11 12  1  0
 12 13  1  0
 13 14  1  0
 15 16  1  0
 15 14  1  6
 16  9  1  0
 17 15  1  0
 18 17  2  0
 19 17  1  0
 20 19  1  0
 20 21  1  1
 21 22  1  0
 22 30  1  0
 23 24  1  0
 23 22  2  0
 24 25  1  0
 25 30  2  0
 25 26  1  0
 26 27  2  0
 27 28  1  0
 29 28  2  0
 30 29  1  0
 31 32  1  0
 31 20  1  0
 33 31  2  0
M  END
$$$$
