HMW.pdb
     RDKit          3D

 33 35  0  0  1  0  0  0  0  0999 V2000
   18.2914  -11.9946  -15.2923 N   0  0  0  0  0  0  0  0  0  0  0  0
   18.0802  -10.5826  -15.2918 C   0  0  1  0  0  0  0  0  0  0  0  0
   16.7104  -10.1670  -15.7469 C   0  0  0  0  0  0  0  0  0  0  0  0
   16.4783  -10.5764  -17.1586 C   0  0  0  0  0  0  0  0  0  0  0  0
   16.9663   -9.9150  -18.2582 C   0  0  0  0  0  0  0  0  0  0  0  0
   16.5489  -10.5793  -19.3569 N   0  0  0  0  0  0  0  0  0  0  0  0
   15.8221  -11.6250  -18.9641 C   0  0  0  0  0  0  0  0  0  0  0  0
   15.7651  -11.6432  -17.6168 N   0  0  0  0  0  0  0  0  0  0  0  0
   18.3461   -9.9706  -13.9525 C   0  0  0  0  0  0  0  0  0  0  0  0
   17.8324  -10.5068  -12.9200 O   0  0  0  0  0  0  0  0  0  0  0  0
   21.6109   -4.0401  -14.3377 C   0  0  0  0  0  0  0  0  0  0  0  0
   21.0627   -5.0867  -12.9638 S   0  0  0  0  0  0  0  0  0  0  0  0
   21.0611   -6.8117  -13.4561 C   0  0  0  0  0  0  0  0  0  0  0  0
   20.7037   -7.6567  -12.2496 C   0  0  0  0  0  0  0  0  0  0  0  0
   19.3358   -8.2723  -12.4546 C   0  0  2  0  0  0  0  0  0  0  0  0
   19.1416   -8.8195  -13.7562 N   0  0  0  0  0  0  0  0  0  0  0  0
   18.3389   -7.2193  -12.1372 C   0  0  0  0  0  0  0  0  0  0  0  0
   17.8496   -6.6073  -13.1237 O   0  0  0  0  0  0  0  0  0  0  0  0
   17.9541   -6.9128  -10.8086 N   0  0  0  0  0  0  0  0  0  0  0  0
   16.9798   -5.8828  -10.6087 C   0  0  1  0  0  0  0  0  0  0  0  0
   15.5837   -6.3286  -10.9926 C   0  0  0  0  0  0  0  0  0  0  0  0
   15.1506   -7.3707  -10.0334 C   0  0  0  0  0  0  0  0  0  0  0  0
   15.7846   -8.5750   -9.7269 C   0  0  0  0  0  0  0  0  0  0  0  0
   15.0663   -9.2450   -8.8068 N   0  0  0  0  0  0  0  0  0  0  0  0
   13.9662   -8.5352   -8.4789 C   0  0  0  0  0  0  0  0  0  0  0  0
   12.9058   -8.7229   -7.6206 C   0  0  0  0  0  0  0  0  0  0  0  0
   11.8850   -7.8021   -7.4808 C   0  0  0  0  0  0  0  0  0  0  0  0
   11.9571   -6.6540   -8.2467 C   0  0  0  0  0  0  0  0  0  0  0  0
   13.0012   -6.4280   -9.1175 C   0  0  0  0  0  0  0  0  0  0  0  0
   14.0047   -7.3782   -9.2267 C   0  0  0  0  0  0  0  0  0  0  0  0
   16.9988   -5.5012   -9.1822 C   0  0  0  0  0  0  0  0  0  0  0  0
   17.8820   -6.1058   -8.3175 O   0  0  0  0  0  0  0  0  0  0  0  0
   16.2190   -4.6323   -8.7505 O   0  0  0  0  0  0  0  0  0  0  0  0
  2  1  1  1
  2  3  1  0
  3  4  1  0
  4  8  1  0
  5  4  2  0
  5  6  1  0
  6  7  1  0
  8  7  2  0
  9  2  1  0
  9 10  2  0
 11 12  1  0
 12 13  1  0
 13 14  1  0
 15 16  1  0
 15 14  1  6
 16  9  1  0
 17 15  1  0
 18 17  2  0
 19 17  1  0
 20 19  1  0
 20 21  1  1
 21 22  1  0
 22 30  1  0
 23 24  1  0
 23 22  2  0
 24 25  1  0
 25 30  2  0
 25 26  1  0
 26 27  2  0
 27 28  1  0
 29 28  2  0
 30 29  1  0
 31 32  1  0
 31 20  1  0
 33 31  2  0
M  END
$$$$
