HMW.pdb
     RDKit          3D

 33 35  0  0  1  0  0  0  0  0999 V2000
   23.2166  -19.0536  -16.7700 N   0  0  0  0  0  0  0  0  0  0  0  0
   24.1830  -19.7501  -15.9832 C   0  0  1  0  0  0  0  0  0  0  0  0
   25.6059  -19.3777  -16.2879 C   0  0  0  0  0  0  0  0  0  0  0  0
   25.9886  -19.8340  -17.6516 C   0  0  0  0  0  0  0  0  0  0  0  0
   25.1879  -20.5749  -18.4850 C   0  0  0  0  0  0  0  0  0  0  0  0
   25.8740  -20.7947  -19.6268 N   0  0  0  0  0  0  0  0  0  0  0  0
   27.0675  -20.2118  -19.5180 C   0  0  0  0  0  0  0  0  0  0  0  0
   27.1602  -19.6151  -18.3120 N   0  0  0  0  0  0  0  0  0  0  0  0
   23.9473  -19.5801  -14.5154 C   0  0  0  0  0  0  0  0  0  0  0  0
   23.7998  -18.4058  -14.0497 O   0  0  0  0  0  0  0  0  0  0  0  0
   19.1760  -20.4323   -8.9729 C   0  0  0  0  0  0  0  0  0  0  0  0
   20.0314  -21.2704  -10.3330 S   0  0  0  0  0  0  0  0  0  0  0  0
   21.5451  -20.4015  -10.7473 C   0  0  0  0  0  0  0  0  0  0  0  0
   22.2857  -21.1999  -11.8015 C   0  0  0  0  0  0  0  0  0  0  0  0
   23.5180  -20.4358  -12.2370 C   0  0  2  0  0  0  0  0  0  0  0  0
   23.8770  -20.6533  -13.5991 N   0  0  0  0  0  0  0  0  0  0  0  0
   24.6096  -20.8138  -11.3048 C   0  0  0  0  0  0  0  0  0  0  0  0
   25.2509  -21.8572  -11.6000 O   0  0  0  0  0  0  0  0  0  0  0  0
   24.9196  -20.0542  -10.1498 N   0  0  0  0  0  0  0  0  0  0  0  0
   25.9893  -20.5058   -9.3120 C   0  0  1  0  0  0  0  0  0  0  0  0
   26.9520  -19.3912   -8.9564 C   0  0  0  0  0  0  0  0  0  0  0  0
   28.0314  -19.9621   -8.1182 C   0  0  0  0  0  0  0  0  0  0  0  0
   28.9810  -20.9204   -8.4732 C   0  0  0  0  0  0  0  0  0  0  0  0
   29.7840  -21.1747   -7.4235 N   0  0  0  0  0  0  0  0  0  0  0  0
   29.4107  -20.4207   -6.3682 C   0  0  0  0  0  0  0  0  0  0  0  0
   29.8552  -20.2686   -5.0738 C   0  0  0  0  0  0  0  0  0  0  0  0
   29.2657  -19.3967   -4.1783 C   0  0  0  0  0  0  0  0  0  0  0  0
   28.1867  -18.6593   -4.6278 C   0  0  0  0  0  0  0  0  0  0  0  0
   27.7109  -18.7821   -5.9154 C   0  0  0  0  0  0  0  0  0  0  0  0
   28.3321  -19.6687   -6.7813 C   0  0  0  0  0  0  0  0  0  0  0  0
   25.4032  -21.0618   -8.0757 C   0  0  0  0  0  0  0  0  0  0  0  0
   26.0331  -22.0916   -7.4156 O   0  0  0  0  0  0  0  0  0  0  0  0
   24.3381  -20.6055   -7.6212 O   0  0  0  0  0  0  0  0  0  0  0  0
  2  1  1  6
  2  3  1  0
  3  4  1  0
  4  8  1  0
  5  4  2  0
  5  6  1  0
  6  7  1  0
  8  7  2  0
  9  2  1  0
  9 10  2  0
 11 12  1  0
 12 13  1  0
 13 14  1  0
 15 16  1  0
 15 14  1  1
 16  9  1  0
 17 15  1  0
 18 17  2  0
 19 17  1  0
 20 19  1  0
 20 21  1  1
 21 22  1  0
 22 30  1  0
 23 24  1  0
 23 22  2  0
 24 25  1  0
 25 30  2  0
 25 26  1  0
 26 27  2  0
 27 28  1  0
 29 28  2  0
 30 29  1  0
 31 32  1  0
 31 20  1  0
 33 31  2  0
M  END
$$$$
