HMW.pdb
     RDKit          3D

 33 35  0  0  1  0  0  0  0  0999 V2000
   24.7457  -19.5464  -17.3232 N   0  0  0  0  0  0  0  0  0  0  0  0
   25.9720  -18.9319  -16.9275 C   0  0  1  0  0  0  0  0  0  0  0  0
   26.2417  -17.6142  -17.5961 C   0  0  0  0  0  0  0  0  0  0  0  0
   26.2121  -17.7598  -19.0768 C   0  0  0  0  0  0  0  0  0  0  0  0
   25.2787  -17.1853  -19.9035 C   0  0  0  0  0  0  0  0  0  0  0  0
   25.5766  -17.5421  -21.1711 N   0  0  0  0  0  0  0  0  0  0  0  0
   26.6617  -18.3154  -21.1454 C   0  0  0  0  0  0  0  0  0  0  0  0
   27.0697  -18.4629  -19.8684 N   0  0  0  0  0  0  0  0  0  0  0  0
   26.0589  -18.7436  -15.4456 C   0  0  0  0  0  0  0  0  0  0  0  0
   26.3675  -17.5970  -14.9899 O   0  0  0  0  0  0  0  0  0  0  0  0
   20.9507  -22.0231  -12.5665 C   0  0  0  0  0  0  0  0  0  0  0  0
   21.8832  -20.4995  -12.2620 S   0  0  0  0  0  0  0  0  0  0  0  0
   23.5651  -20.6672  -12.8630 C   0  0  0  0  0  0  0  0  0  0  0  0
   24.2991  -19.3653  -12.6100 C   0  0  0  0  0  0  0  0  0  0  0  0
   25.7222  -19.4850  -13.1122 C   0  0  2  0  0  0  0  0  0  0  0  0
   25.8175  -19.7703  -14.5054 N   0  0  0  0  0  0  0  0  0  0  0  0
   26.3845  -20.5230  -12.2832 C   0  0  0  0  0  0  0  0  0  0  0  0
   26.6252  -21.6179  -12.8582 O   0  0  0  0  0  0  0  0  0  0  0  0
   26.7290  -20.3062  -10.9262 N   0  0  0  0  0  0  0  0  0  0  0  0
   27.0655  -21.4442  -10.1251 C   0  0  1  0  0  0  0  0  0  0  0  0
   28.3442  -21.2374   -9.3393 C   0  0  0  0  0  0  0  0  0  0  0  0
   28.0498  -20.3288   -8.2074 C   0  0  0  0  0  0  0  0  0  0  0  0
   27.0371  -19.3741   -8.1112 C   0  0  0  0  0  0  0  0  0  0  0  0
   27.1115  -18.7515   -6.9202 N   0  0  0  0  0  0  0  0  0  0  0  0
   28.1410  -19.2522   -6.2054 C   0  0  0  0  0  0  0  0  0  0  0  0
   28.6739  -19.0042   -4.9601 C   0  0  0  0  0  0  0  0  0  0  0  0
   29.7679  -19.6882   -4.4652 C   0  0  0  0  0  0  0  0  0  0  0  0
   30.3305  -20.6561   -5.2755 C   0  0  0  0  0  0  0  0  0  0  0  0
   29.8275  -20.9346   -6.5281 C   0  0  0  0  0  0  0  0  0  0  0  0
   28.7283  -20.2246   -6.9856 C   0  0  0  0  0  0  0  0  0  0  0  0
   25.9500  -21.6960   -9.1907 C   0  0  0  0  0  0  0  0  0  0  0  0
   25.5492  -22.9853   -8.9254 O   0  0  0  0  0  0  0  0  0  0  0  0
   25.3643  -20.7478   -8.6363 O   0  0  0  0  0  0  0  0  0  0  0  0
  2  1  1  1
  2  3  1  0
  3  4  1  0
  4  8  1  0
  5  4  2  0
  5  6  1  0
  6  7  1  0
  8  7  2  0
  9  2  1  0
  9 10  2  0
 11 12  1  0
 12 13  1  0
 13 14  1  0
 15 16  1  0
 15 14  1  1
 16  9  1  0
 17 15  1  0
 18 17  2  0
 19 17  1  0
 20 19  1  0
 20 21  1  1
 21 22  1  0
 22 30  1  0
 23 24  1  0
 23 22  2  0
 24 25  1  0
 25 30  2  0
 25 26  1  0
 26 27  2  0
 27 28  1  0
 29 28  2  0
 30 29  1  0
 31 32  1  0
 31 20  1  0
 33 31  2  0
M  END
$$$$
