HMW.pdb
     RDKit          3D

 33 35  0  0  1  0  0  0  0  0999 V2000
   19.6218  -13.1760  -19.5466 N   0  0  0  0  0  0  0  0  0  0  0  0
   19.5614  -11.7497  -19.5461 C   0  0  1  0  0  0  0  0  0  0  0  0
   18.1661  -11.1946  -19.5795 C   0  0  0  0  0  0  0  0  0  0  0  0
   17.4905  -11.5463  -20.8579 C   0  0  0  0  0  0  0  0  0  0  0  0
   16.6749  -12.6353  -21.0410 C   0  0  0  0  0  0  0  0  0  0  0  0
   16.2519  -12.6217  -22.3231 N   0  0  0  0  0  0  0  0  0  0  0  0
   16.7822  -11.5596  -22.9287 C   0  0  0  0  0  0  0  0  0  0  0  0
   17.5473  -10.8839  -22.0472 N   0  0  0  0  0  0  0  0  0  0  0  0
   20.2867  -11.1524  -18.3815 C   0  0  0  0  0  0  0  0  0  0  0  0
   19.9540  -11.5045  -17.2055 O   0  0  0  0  0  0  0  0  0  0  0  0
   25.6910   -9.7114  -14.0622 C   0  0  0  0  0  0  0  0  0  0  0  0
   24.9361  -10.1849  -15.6400 S   0  0  0  0  0  0  0  0  0  0  0  0
   24.0911   -8.7823  -16.3727 C   0  0  0  0  0  0  0  0  0  0  0  0
   23.4298   -9.2365  -17.6588 C   0  0  0  0  0  0  0  0  0  0  0  0
   22.0327   -9.7350  -17.3568 C   0  0  2  0  0  0  0  0  0  0  0  0
   21.3318  -10.2094  -18.5035 N   0  0  0  0  0  0  0  0  0  0  0  0
   21.3155   -8.6226  -16.6848 C   0  0  0  0  0  0  0  0  0  0  0  0
   20.8137   -7.7512  -17.4439 O   0  0  0  0  0  0  0  0  0  0  0  0
   21.1969   -8.5361  -15.2757 N   0  0  0  0  0  0  0  0  0  0  0  0
   20.4446   -7.4485  -14.7271 C   0  0  1  0  0  0  0  0  0  0  0  0
   18.9610   -7.7493  -14.6627 C   0  0  0  0  0  0  0  0  0  0  0  0
   18.6713   -8.3691  -13.3492 C   0  0  0  0  0  0  0  0  0  0  0  0
   18.9019   -7.8409  -12.0788 C   0  0  0  0  0  0  0  0  0  0  0  0
   18.5029   -8.7209  -11.1417 N   0  0  0  0  0  0  0  0  0  0  0  0
   18.0092   -9.8284  -11.7344 C   0  0  0  0  0  0  0  0  0  0  0  0
   17.4752  -11.0164  -11.2876 C   0  0  0  0  0  0  0  0  0  0  0  0
   17.0358  -12.0077  -12.1443 C   0  0  0  0  0  0  0  0  0  0  0  0
   17.1491  -11.7698  -13.5009 C   0  0  0  0  0  0  0  0  0  0  0  0
   17.6779  -10.5943  -13.9889 C   0  0  0  0  0  0  0  0  0  0  0  0
   18.1066   -9.6261  -13.0941 C   0  0  0  0  0  0  0  0  0  0  0  0
   20.9505   -7.1782  -13.3662 C   0  0  0  0  0  0  0  0  0  0  0  0
   20.5989   -6.0173  -12.7168 O   0  0  0  0  0  0  0  0  0  0  0  0
   21.6968   -7.9952  -12.7962 O   0  0  0  0  0  0  0  0  0  0  0  0
  2  1  1  1
  2  3  1  0
  3  4  1  0
  4  8  1  0
  5  4  2  0
  5  6  1  0
  6  7  1  0
  8  7  2  0
  9  2  1  0
  9 10  2  0
 11 12  1  0
 12 13  1  0
 13 14  1  0
 15 16  1  0
 15 14  1  6
 16  9  1  0
 17 15  1  0
 18 17  2  0
 19 17  1  0
 20 19  1  0
 20 21  1  1
 21 22  1  0
 22 30  1  0
 23 24  1  0
 23 22  2  0
 24 25  1  0
 25 30  2  0
 25 26  1  0
 26 27  2  0
 27 28  1  0
 29 28  2  0
 30 29  1  0
 31 32  1  0
 31 20  1  0
 33 31  2  0
M  END
$$$$
