HMW.pdb
     RDKit          3D

 33 35  0  0  1  0  0  0  0  0999 V2000
   26.8948  -20.6860  -17.1853 N   0  0  0  0  0  0  0  0  0  0  0  0
   26.4994  -19.7896  -16.1469 C   0  0  1  0  0  0  0  0  0  0  0  0
   25.6034  -18.6750  -16.6065 C   0  0  0  0  0  0  0  0  0  0  0  0
   26.2856  -17.8408  -17.6327 C   0  0  0  0  0  0  0  0  0  0  0  0
   25.7999  -17.5933  -18.8927 C   0  0  0  0  0  0  0  0  0  0  0  0
   26.6903  -16.8027  -19.5290 N   0  0  0  0  0  0  0  0  0  0  0  0
   27.7037  -16.5591  -18.6986 C   0  0  0  0  0  0  0  0  0  0  0  0
   27.4765  -17.1871  -17.5269 N   0  0  0  0  0  0  0  0  0  0  0  0
   25.8361  -20.4988  -15.0085 C   0  0  0  0  0  0  0  0  0  0  0  0
   24.9185  -21.3422  -15.2621 O   0  0  0  0  0  0  0  0  0  0  0  0
   25.4878  -19.7370   -7.9035 C   0  0  0  0  0  0  0  0  0  0  0  0
   26.0052  -21.3252   -8.6060 S   0  0  0  0  0  0  0  0  0  0  0  0
   25.2652  -21.5625  -10.2229 C   0  0  0  0  0  0  0  0  0  0  0  0
   26.0437  -20.7441  -11.2337 C   0  0  0  0  0  0  0  0  0  0  0  0
   25.4412  -20.9388  -12.6089 C   0  0  2  0  0  0  0  0  0  0  0  0
   26.1663  -20.2904  -13.6505 N   0  0  0  0  0  0  0  0  0  0  0  0
   24.0350  -20.4697  -12.5320 C   0  0  0  0  0  0  0  0  0  0  0  0
   23.8641  -19.2235  -12.6041 O   0  0  0  0  0  0  0  0  0  0  0  0
   22.9434  -21.3610  -12.3861 N   0  0  0  0  0  0  0  0  0  0  0  0
   21.6877  -20.9909  -12.9659 C   0  0  1  0  0  0  0  0  0  0  0  0
   21.7797  -20.8015  -14.4662 C   0  0  0  0  0  0  0  0  0  0  0  0
   20.4504  -20.3754  -14.9612 C   0  0  0  0  0  0  0  0  0  0  0  0
   19.6906  -19.2793  -14.5518 C   0  0  0  0  0  0  0  0  0  0  0  0
   18.5369  -19.2426  -15.2440 N   0  0  0  0  0  0  0  0  0  0  0  0
   18.4889  -20.2772  -16.1092 C   0  0  0  0  0  0  0  0  0  0  0  0
   17.5794  -20.7270  -17.0403 C   0  0  0  0  0  0  0  0  0  0  0  0
   17.7948  -21.8524  -17.8128 C   0  0  0  0  0  0  0  0  0  0  0  0
   18.9809  -22.5354  -17.6219 C   0  0  0  0  0  0  0  0  0  0  0  0
   19.9171  -22.1185  -16.7003 C   0  0  0  0  0  0  0  0  0  0  0  0
   19.6608  -20.9838  -15.9462 C   0  0  0  0  0  0  0  0  0  0  0  0
   20.7093  -22.0553  -12.6642 C   0  0  0  0  0  0  0  0  0  0  0  0
   19.4103  -21.7296  -12.3484 O   0  0  0  0  0  0  0  0  0  0  0  0
   21.0495  -23.2523  -12.6929 O   0  0  0  0  0  0  0  0  0  0  0  0
  2  1  1  6
  2  3  1  0
  3  4  1  0
  4  8  1  0
  5  4  2  0
  5  6  1  0
  6  7  1  0
  8  7  2  0
  9  2  1  0
  9 10  2  0
 11 12  1  0
 12 13  1  0
 13 14  1  0
 15 16  1  0
 15 14  1  1
 16  9  1  0
 17 15  1  0
 18 17  2  0
 19 17  1  0
 20 19  1  0
 20 21  1  6
 21 22  1  0
 22 30  1  0
 23 24  1  0
 23 22  2  0
 24 25  1  0
 25 30  2  0
 25 26  1  0
 26 27  2  0
 27 28  1  0
 29 28  2  0
 30 29  1  0
 31 32  1  0
 31 20  1  0
 33 31  2  0
M  END
$$$$
