HMW.pdb
     RDKit          3D

 33 35  0  0  1  0  0  0  0  0999 V2000
   20.4247  -15.6284  -17.8968 N   0  0  0  0  0  0  0  0  0  0  0  0
   21.1878  -14.5534  -18.4450 C   0  0  1  0  0  0  0  0  0  0  0  0
   20.4834  -13.7927  -19.5319 C   0  0  0  0  0  0  0  0  0  0  0  0
   20.1521  -14.6899  -20.6720 C   0  0  0  0  0  0  0  0  0  0  0  0
   20.9936  -14.9716  -21.7195 C   0  0  0  0  0  0  0  0  0  0  0  0
   20.3472  -15.8164  -22.5509 N   0  0  0  0  0  0  0  0  0  0  0  0
   19.1386  -16.0599  -22.0452 C   0  0  0  0  0  0  0  0  0  0  0  0
   18.9965  -15.3780  -20.8904 N   0  0  0  0  0  0  0  0  0  0  0  0
   21.6366  -13.5850  -17.3963 C   0  0  0  0  0  0  0  0  0  0  0  0
   20.8768  -13.3627  -16.4010 O   0  0  0  0  0  0  0  0  0  0  0  0
   26.8199  -15.6865  -14.3020 C   0  0  0  0  0  0  0  0  0  0  0  0
   26.5957  -14.0097  -14.9515 S   0  0  0  0  0  0  0  0  0  0  0  0
   24.8958  -13.7637  -15.4693 C   0  0  0  0  0  0  0  0  0  0  0  0
   24.7383  -12.3318  -15.9407 C   0  0  0  0  0  0  0  0  0  0  0  0
   23.2987  -12.0904  -16.3423 C   0  0  2  0  0  0  0  0  0  0  0  0
   22.8666  -12.8910  -17.4394 N   0  0  0  0  0  0  0  0  0  0  0  0
   23.1693  -10.6390  -16.6252 C   0  0  0  0  0  0  0  0  0  0  0  0
   23.3947  -10.2861  -17.8135 O   0  0  0  0  0  0  0  0  0  0  0  0
   22.8147   -9.6987  -15.6267 N   0  0  0  0  0  0  0  0  0  0  0  0
   22.1910   -8.4779  -16.0400 C   0  0  1  0  0  0  0  0  0  0  0  0
   20.8800   -8.7166  -16.7611 C   0  0  0  0  0  0  0  0  0  0  0  0
   20.3353   -7.4038  -17.1772 C   0  0  0  0  0  0  0  0  0  0  0  0
   19.5850   -6.5042  -16.4196 C   0  0  0  0  0  0  0  0  0  0  0  0
   19.2780   -5.4271  -17.1662 N   0  0  0  0  0  0  0  0  0  0  0  0
   19.7951   -5.5663  -18.4049 C   0  0  0  0  0  0  0  0  0  0  0  0
   19.7973   -4.8028  -19.5510 C   0  0  0  0  0  0  0  0  0  0  0  0
   20.4258   -5.2031  -20.7149 C   0  0  0  0  0  0  0  0  0  0  0  0
   21.0712   -6.4249  -20.6993 C   0  0  0  0  0  0  0  0  0  0  0  0
   21.0923   -7.2192  -19.5731 C   0  0  0  0  0  0  0  0  0  0  0  0
   20.4491   -6.7792  -18.4266 C   0  0  0  0  0  0  0  0  0  0  0  0
   21.9478   -7.6548  -14.8382 C   0  0  0  0  0  0  0  0  0  0  0  0
   21.8553   -6.2862  -14.9460 O   0  0  0  0  0  0  0  0  0  0  0  0
   21.8245   -8.1895  -13.7209 O   0  0  0  0  0  0  0  0  0  0  0  0
  2  1  1  1
  2  3  1  0
  3  4  1  0
  4  8  1  0
  5  4  2  0
  5  6  1  0
  6  7  1  0
  8  7  2  0
  9  2  1  0
  9 10  2  0
 11 12  1  0
 12 13  1  0
 13 14  1  0
 15 16  1  0
 15 14  1  6
 16  9  1  0
 17 15  1  0
 18 17  2  0
 19 17  1  0
 20 19  1  0
 20 21  1  1
 21 22  1  0
 22 30  1  0
 23 24  1  0
 23 22  2  0
 24 25  1  0
 25 30  2  0
 25 26  1  0
 26 27  2  0
 27 28  1  0
 29 28  2  0
 30 29  1  0
 31 32  1  0
 31 20  1  0
 33 31  2  0
M  END
$$$$
