HMW.pdb
     RDKit          3D

 33 35  0  0  1  0  0  0  0  0999 V2000
   28.7133  -15.8770  -17.6392 N   0  0  0  0  0  0  0  0  0  0  0  0
   28.3893  -17.2639  -17.5403 C   0  0  1  0  0  0  0  0  0  0  0  0
   29.5799  -18.1778  -17.5980 C   0  0  0  0  0  0  0  0  0  0  0  0
   30.2012  -18.1477  -18.9499 C   0  0  0  0  0  0  0  0  0  0  0  0
   29.7281  -17.4226  -20.0153 C   0  0  0  0  0  0  0  0  0  0  0  0
   30.5491  -17.6475  -21.0632 N   0  0  0  0  0  0  0  0  0  0  0  0
   31.5083  -18.4860  -20.6724 C   0  0  0  0  0  0  0  0  0  0  0  0
   31.3146  -18.8070  -19.3769 N   0  0  0  0  0  0  0  0  0  0  0  0
   27.6056  -17.5758  -16.3044 C   0  0  0  0  0  0  0  0  0  0  0  0
   28.0852  -17.2446  -15.1740 O   0  0  0  0  0  0  0  0  0  0  0  0
   21.2809  -18.6748  -15.9634 C   0  0  0  0  0  0  0  0  0  0  0  0
   21.6594  -18.5295  -14.1972 S   0  0  0  0  0  0  0  0  0  0  0  0
   23.4345  -18.4924  -13.9410 C   0  0  0  0  0  0  0  0  0  0  0  0
   24.1134  -18.3627  -15.2900 C   0  0  0  0  0  0  0  0  0  0  0  0
   25.6149  -18.4148  -15.1041 C   0  0  2  0  0  0  0  0  0  0  0  0
   26.3499  -18.2235  -16.3101 N   0  0  0  0  0  0  0  0  0  0  0  0
   25.9234  -19.7176  -14.4630 C   0  0  0  0  0  0  0  0  0  0  0  0
   26.0070  -20.7078  -15.2375 O   0  0  0  0  0  0  0  0  0  0  0  0
   26.1139  -19.8507  -13.0654 N   0  0  0  0  0  0  0  0  0  0  0  0
   26.4151  -21.1505  -12.5460 C   0  0  1  0  0  0  0  0  0  0  0  0
   27.3558  -21.0926  -11.3597 C   0  0  0  0  0  0  0  0  0  0  0  0
   26.5501  -20.8441  -10.1421 C   0  0  0  0  0  0  0  0  0  0  0  0
   25.2040  -21.1398   -9.9258 C   0  0  0  0  0  0  0  0  0  0  0  0
   24.8468  -20.7506   -8.6878 N   0  0  0  0  0  0  0  0  0  0  0  0
   25.9059  -20.2008   -8.0573 C   0  0  0  0  0  0  0  0  0  0  0  0
   26.1200  -19.6472   -6.8147 C   0  0  0  0  0  0  0  0  0  0  0  0
   27.3454  -19.1434   -6.4217 C   0  0  0  0  0  0  0  0  0  0  0  0
   28.3812  -19.2112   -7.3340 C   0  0  0  0  0  0  0  0  0  0  0  0
   28.2084  -19.7574   -8.5875 C   0  0  0  0  0  0  0  0  0  0  0  0
   26.9623  -20.2514   -8.9409 C   0  0  0  0  0  0  0  0  0  0  0  0
   25.1475  -21.7884  -12.1370 C   0  0  0  0  0  0  0  0  0  0  0  0
   25.0755  -23.1556  -11.9997 O   0  0  0  0  0  0  0  0  0  0  0  0
   24.1363  -21.0978  -11.9135 O   0  0  0  0  0  0  0  0  0  0  0  0
  2  1  1  1
  2  3  1  0
  3  4  1  0
  4  8  1  0
  5  4  2  0
  5  6  1  0
  6  7  1  0
  8  7  2  0
  9  2  1  0
  9 10  2  0
 11 12  1  0
 12 13  1  0
 13 14  1  0
 15 16  1  0
 15 14  1  6
 16  9  1  0
 17 15  1  0
 18 17  2  0
 19 17  1  0
 20 19  1  0
 20 21  1  1
 21 22  1  0
 22 30  1  0
 23 24  1  0
 23 22  2  0
 24 25  1  0
 25 30  2  0
 25 26  1  0
 26 27  2  0
 27 28  1  0
 29 28  2  0
 30 29  1  0
 31 32  1  0
 31 20  1  0
 33 31  2  0
M  END
$$$$
