HMW.pdb
     RDKit          3D

 33 35  0  0  1  0  0  0  0  0999 V2000
   25.7738  -20.0850  -16.9306 N   0  0  0  0  0  0  0  0  0  0  0  0
   25.6765  -19.8032  -15.5344 C   0  0  1  0  0  0  0  0  0  0  0  0
   24.2695  -19.7844  -15.0088 C   0  0  0  0  0  0  0  0  0  0  0  0
   23.4755  -18.7129  -15.6692 C   0  0  0  0  0  0  0  0  0  0  0  0
   23.9651  -17.8379  -16.6069 C   0  0  0  0  0  0  0  0  0  0  0  0
   22.9562  -17.0178  -16.9708 N   0  0  0  0  0  0  0  0  0  0  0  0
   21.8665  -17.3637  -16.2861 C   0  0  0  0  0  0  0  0  0  0  0  0
   22.1622  -18.4035  -15.4797 N   0  0  0  0  0  0  0  0  0  0  0  0
   26.4840  -20.7533  -14.7072 C   0  0  0  0  0  0  0  0  0  0  0  0
   26.5435  -21.9744  -15.0579 O   0  0  0  0  0  0  0  0  0  0  0  0
   31.7584  -20.8408  -11.0065 C   0  0  0  0  0  0  0  0  0  0  0  0
   30.5911  -21.6715   -9.8970 S   0  0  0  0  0  0  0  0  0  0  0  0
   29.0866  -22.0941  -10.7779 C   0  0  0  0  0  0  0  0  0  0  0  0
   28.7514  -20.9626  -11.7291 C   0  0  0  0  0  0  0  0  0  0  0  0
   27.5351  -21.3385  -12.5484 C   0  0  2  0  0  0  0  0  0  0  0  0
   27.1951  -20.3783  -13.5452 N   0  0  0  0  0  0  0  0  0  0  0  0
   26.4247  -21.5652  -11.5898 C   0  0  0  0  0  0  0  0  0  0  0  0
   26.6042  -22.4816  -10.7440 O   0  0  0  0  0  0  0  0  0  0  0  0
   25.2307  -20.8031  -11.6158 N   0  0  0  0  0  0  0  0  0  0  0  0
   24.1878  -21.1509  -10.6985 C   0  0  1  0  0  0  0  0  0  0  0  0
   24.0056  -20.1104   -9.6125 C   0  0  0  0  0  0  0  0  0  0  0  0
   25.3460  -19.6446   -9.1884 C   0  0  0  0  0  0  0  0  0  0  0  0
   26.1979  -18.7588   -9.8486 C   0  0  0  0  0  0  0  0  0  0  0  0
   27.3281  -18.5988   -9.1354 N   0  0  0  0  0  0  0  0  0  0  0  0
   27.2711  -19.3468   -8.0135 C   0  0  0  0  0  0  0  0  0  0  0  0
   28.1140  -19.5696   -6.9475 C   0  0  0  0  0  0  0  0  0  0  0  0
   27.7909  -20.4143   -5.9026 C   0  0  0  0  0  0  0  0  0  0  0  0
   26.5643  -21.0486   -5.9559 C   0  0  0  0  0  0  0  0  0  0  0  0
   25.6920  -20.8528   -7.0048 C   0  0  0  0  0  0  0  0  0  0  0  0
   26.0559  -19.9966   -8.0325 C   0  0  0  0  0  0  0  0  0  0  0  0
   22.9309  -21.2903  -11.4611 C   0  0  0  0  0  0  0  0  0  0  0  0
   22.7118  -22.4083  -12.2327 O   0  0  0  0  0  0  0  0  0  0  0  0
   22.0612  -20.4011  -11.4131 O   0  0  0  0  0  0  0  0  0  0  0  0
  2  1  1  6
  2  3  1  0
  3  4  1  0
  4  8  1  0
  5  4  2  0
  5  6  1  0
  6  7  1  0
  8  7  2  0
  9  2  1  0
  9 10  2  0
 11 12  1  0
 12 13  1  0
 13 14  1  0
 15 16  1  0
 15 14  1  1
 16  9  1  0
 17 15  1  0
 18 17  2  0
 19 17  1  0
 20 19  1  0
 20 21  1  1
 21 22  1  0
 22 30  1  0
 23 24  1  0
 23 22  2  0
 24 25  1  0
 25 30  2  0
 25 26  1  0
 26 27  2  0
 27 28  1  0
 29 28  2  0
 30 29  1  0
 31 32  1  0
 31 20  1  0
 33 31  2  0
M  END
$$$$
