HMW.pdb
     RDKit          3D

 33 35  0  0  1  0  0  0  0  0999 V2000
   27.5444  -22.0776  -18.2521 N   0  0  0  0  0  0  0  0  0  0  0  0
   26.5261  -21.9692  -17.2574 C   0  0  1  0  0  0  0  0  0  0  0  0
   25.7157  -23.2200  -17.0700 C   0  0  0  0  0  0  0  0  0  0  0  0
   24.8190  -23.4454  -18.2360 C   0  0  0  0  0  0  0  0  0  0  0  0
   23.4654  -23.2164  -18.2411 C   0  0  0  0  0  0  0  0  0  0  0  0
   22.9986  -23.5354  -19.4671 N   0  0  0  0  0  0  0  0  0  0  0  0
   24.0231  -23.9514  -20.2110 C   0  0  0  0  0  0  0  0  0  0  0  0
   25.1522  -23.9045  -19.4748 N   0  0  0  0  0  0  0  0  0  0  0  0
   27.0738  -21.5501  -15.9295 C   0  0  0  0  0  0  0  0  0  0  0  0
   28.2687  -21.8673  -15.6309 O   0  0  0  0  0  0  0  0  0  0  0  0
   28.0435  -15.4606  -16.3413 C   0  0  0  0  0  0  0  0  0  0  0  0
   27.2492  -16.2664  -14.9259 S   0  0  0  0  0  0  0  0  0  0  0  0
   27.5751  -18.0303  -14.9489 C   0  0  0  0  0  0  0  0  0  0  0  0
   26.7880  -18.6803  -13.8284 C   0  0  0  0  0  0  0  0  0  0  0  0
   26.9926  -20.1796  -13.8746 C   0  0  2  0  0  0  0  0  0  0  0  0
   26.3407  -20.8147  -14.9713 N   0  0  0  0  0  0  0  0  0  0  0  0
   26.5368  -20.7158  -12.5676 C   0  0  0  0  0  0  0  0  0  0  0  0
   25.3303  -21.0738  -12.5085 O   0  0  0  0  0  0  0  0  0  0  0  0
   27.3980  -20.8223  -11.4478 N   0  0  0  0  0  0  0  0  0  0  0  0
   26.8611  -21.3536  -10.2315 C   0  0  1  0  0  0  0  0  0  0  0  0
   27.9272  -21.5665   -9.1762 C   0  0  0  0  0  0  0  0  0  0  0  0
   27.6317  -20.6723   -8.0331 C   0  0  0  0  0  0  0  0  0  0  0  0
   26.5043  -19.8754   -7.8330 C   0  0  0  0  0  0  0  0  0  0  0  0
   26.6211  -19.2071   -6.6706 N   0  0  0  0  0  0  0  0  0  0  0  0
   27.7902  -19.5242   -6.0755 C   0  0  0  0  0  0  0  0  0  0  0  0
   28.4200  -19.1563   -4.9075 C   0  0  0  0  0  0  0  0  0  0  0  0
   29.6548  -19.6528   -4.5354 C   0  0  0  0  0  0  0  0  0  0  0  0
   30.2597  -20.5546   -5.3903 C   0  0  0  0  0  0  0  0  0  0  0  0
   29.6630  -20.9485   -6.5686 C   0  0  0  0  0  0  0  0  0  0  0  0
   28.4235  -20.4258   -6.9034 C   0  0  0  0  0  0  0  0  0  0  0  0
   25.8483  -20.4070   -9.7226 C   0  0  0  0  0  0  0  0  0  0  0  0
   24.7554  -20.8725   -9.0282 O   0  0  0  0  0  0  0  0  0  0  0  0
   25.9735  -19.1838   -9.9163 O   0  0  0  0  0  0  0  0  0  0  0  0
  2  1  1  6
  2  3  1  0
  3  4  1  0
  4  8  1  0
  5  4  2  0
  5  6  1  0
  6  7  1  0
  8  7  2  0
  9  2  1  0
  9 10  2  0
 11 12  1  0
 12 13  1  0
 13 14  1  0
 15 16  1  0
 15 14  1  1
 16  9  1  0
 17 15  1  0
 18 17  2  0
 19 17  1  0
 20 19  1  0
 20 21  1  1
 21 22  1  0
 22 30  1  0
 23 24  1  0
 23 22  2  0
 24 25  1  0
 25 30  2  0
 25 26  1  0
 26 27  2  0
 27 28  1  0
 29 28  2  0
 30 29  1  0
 31 32  1  0
 31 20  1  0
 33 31  2  0
M  END
$$$$
