TPC.pdb
     RDKit          3D

 21 21  0  0  1  0  0  0  0  0999 V2000
   10.7838  -15.0914   20.0006 C   0  0  0  0  0  0  0  0  0  0  0  0
   10.1932  -13.7609   19.6096 C   0  0  1  0  0  0  0  0  0  0  0  0
   10.6983  -13.4845   18.3164 O   0  0  0  0  0  0  0  0  0  0  0  0
    8.6545  -13.8173   19.5360 C   0  0  2  0  0  0  0  0  0  0  0  0
    8.2600  -12.7253   18.7313 N   0  0  0  0  0  0  0  0  0  0  0  0
    8.1033  -13.9242   20.8862 C   0  0  0  0  0  0  0  0  0  0  0  0
    8.3551  -12.9003   21.6158 O   0  0  0  0  0  0  0  0  0  0  0  0
    7.3648  -14.9533   21.4696 N   0  0  0  0  0  0  0  0  0  0  0  0
    6.3198  -15.7873   20.7952 C   0  0  0  0  0  0  0  0  0  0  0  0
    6.7359  -17.1937   21.2622 C   0  0  0  0  0  0  0  0  0  0  0  0
    7.7362  -16.9713   22.3968 C   0  0  0  0  0  0  0  0  0  0  0  0
    7.3164  -15.5386   22.7767 C   0  0  1  0  0  0  0  0  0  0  0  0
    8.0313  -15.0093   23.8811 C   0  0  0  0  0  0  0  0  0  0  0  0
    9.2465  -14.8911   23.9924 O   0  0  0  0  0  0  0  0  0  0  0  0
    7.2592  -14.5494   25.0196 N   0  0  0  0  0  0  0  0  0  0  0  0
    7.9078  -14.0407   26.1844 C   0  0  1  0  0  0  0  0  0  0  0  0
    6.9521  -13.2532   27.0776 C   0  0  0  0  0  0  0  0  0  0  0  0
    6.0939  -12.0589   25.9857 S   0  0  0  0  0  0  0  0  0  0  0  0
    8.4269  -15.1573   26.9922 C   0  0  0  0  0  0  0  0  0  0  0  0
    8.0839  -16.3188   26.7442 O   0  0  0  0  0  0  0  0  0  0  0  0
    9.3025  -14.8653   28.0275 O   0  0  0  0  0  0  0  0  0  0  0  0
  2  1  1  6
  2  3  1  0
  4  2  1  0
  4  5  1  1
  6  4  1  0
  6  7  2  0
  8  6  1  0
  9  8  1  0
 10 11  1  0
 10  9  1  0
 11 12  1  0
 12  8  1  0
 12 13  1  1
 13 15  1  0
 14 13  2  0
 15 16  1  0
 16 19  1  0
 16 17  1  1
 17 18  1  0
 19 20  2  0
 19 21  1  0
M  END
$$$$
