TPC.pdb
     RDKit          3D

 21 21  0  0  1  0  0  0  0  0999 V2000
    6.6412  -18.1921   16.8079 C   0  0  0  0  0  0  0  0  0  0  0  0
    7.2257  -17.5889   18.0594 C   0  0  1  0  0  0  0  0  0  0  0  0
    7.7249  -18.6794   18.8114 O   0  0  0  0  0  0  0  0  0  0  0  0
    8.3931  -16.6332   17.7427 C   0  0  2  0  0  0  0  0  0  0  0  0
    9.2179  -17.3138   16.8197 N   0  0  0  0  0  0  0  0  0  0  0  0
    8.9878  -16.1565   18.9907 C   0  0  0  0  0  0  0  0  0  0  0  0
    9.7714  -17.0131   19.5350 O   0  0  0  0  0  0  0  0  0  0  0  0
    8.8254  -14.9372   19.6480 N   0  0  0  0  0  0  0  0  0  0  0  0
    8.8383  -13.5802   19.0150 C   0  0  0  0  0  0  0  0  0  0  0  0
    7.6048  -12.9456   19.6822 C   0  0  0  0  0  0  0  0  0  0  0  0
    7.2438  -13.8709   20.8444 C   0  0  0  0  0  0  0  0  0  0  0  0
    8.6156  -14.5518   21.0121 C   0  0  1  0  0  0  0  0  0  0  0  0
    8.6656  -15.4757   22.0866 C   0  0  0  0  0  0  0  0  0  0  0  0
    7.7561  -16.1880   22.4976 O   0  0  0  0  0  0  0  0  0  0  0  0
    9.9240  -15.6107   22.7950 N   0  0  0  0  0  0  0  0  0  0  0  0
   10.0598  -16.5359   23.8728 C   0  0  1  0  0  0  0  0  0  0  0  0
   10.7573  -17.8238   23.4413 C   0  0  0  0  0  0  0  0  0  0  0  0
   12.3862  -17.3258   22.7678 S   0  0  0  0  0  0  0  0  0  0  0  0
   10.8825  -15.9399   24.9392 C   0  0  0  0  0  0  0  0  0  0  0  0
   11.4449  -14.8538   24.7595 O   0  0  0  0  0  0  0  0  0  0  0  0
   11.0032  -16.6297   26.1363 O   0  0  0  0  0  0  0  0  0  0  0  0
  2  1  1  6
  2  3  1  0
  4  2  1  0
  4  5  1  6
  6  4  1  0
  6  7  2  0
  8  6  1  0
  9  8  1  0
 10 11  1  0
 10  9  1  0
 11 12  1  0
 12  8  1  0
 12 13  1  1
 13 15  1  0
 14 13  2  0
 15 16  1  0
 16 19  1  0
 16 17  1  6
 17 18  1  0
 19 20  2  0
 19 21  1  0
M  END
$$$$
