TPC.pdb
     RDKit          3D

 21 21  0  0  1  0  0  0  0  0999 V2000
   10.4154  -16.9917   17.6211 C   0  0  0  0  0  0  0  0  0  0  0  0
   11.7602  -16.4205   17.9915 C   0  0  1  0  0  0  0  0  0  0  0  0
   12.5623  -16.5507   16.8325 O   0  0  0  0  0  0  0  0  0  0  0  0
   11.6656  -14.9266   18.3600 C   0  0  2  0  0  0  0  0  0  0  0  0
   12.9860  -14.4269   18.3141 N   0  0  0  0  0  0  0  0  0  0  0  0
   10.9049  -14.7754   19.5997 C   0  0  0  0  0  0  0  0  0  0  0  0
   11.4183  -15.4127   20.5869 O   0  0  0  0  0  0  0  0  0  0  0  0
    9.7362  -14.0559   19.8475 N   0  0  0  0  0  0  0  0  0  0  0  0
    9.3820  -12.7168   19.2783 C   0  0  0  0  0  0  0  0  0  0  0  0
    7.9263  -12.9695   18.8467 C   0  0  0  0  0  0  0  0  0  0  0  0
    7.5208  -14.2831   19.5156 C   0  0  0  0  0  0  0  0  0  0  0  0
    8.5678  -14.2818   20.6457 C   0  0  1  0  0  0  0  0  0  0  0  0
    8.4472  -15.3794   21.5355 C   0  0  0  0  0  0  0  0  0  0  0  0
    8.5547  -16.5705   21.2656 O   0  0  0  0  0  0  0  0  0  0  0  0
    8.1646  -15.0845   22.9272 N   0  0  0  0  0  0  0  0  0  0  0  0
    8.0279  -16.1350   23.8831 C   0  0  1  0  0  0  0  0  0  0  0  0
    7.9028  -15.6031   25.3089 C   0  0  0  0  0  0  0  0  0  0  0  0
    9.3987  -14.5908   25.6132 S   0  0  0  0  0  0  0  0  0  0  0  0
    6.8037  -16.9049   23.6043 C   0  0  0  0  0  0  0  0  0  0  0  0
    5.9664  -16.4760   22.8024 O   0  0  0  0  0  0  0  0  0  0  0  0
    6.6244  -18.1119   24.2636 O   0  0  0  0  0  0  0  0  0  0  0  0
  2  1  1  6
  2  3  1  0
  4  2  1  0
  4  5  1  1
  6  4  1  0
  6  7  2  0
  8  6  1  0
  9  8  1  0
 10 11  1  0
 10  9  1  0
 11 12  1  0
 12  8  1  0
 12 13  1  6
 13 15  1  0
 14 13  2  0
 15 16  1  0
 16 19  1  0
 16 17  1  1
 17 18  1  0
 19 20  2  0
 19 21  1  0
M  END
$$$$
