TPC.pdb
     RDKit          3D

 21 21  0  0  1  0  0  0  0  0999 V2000
    5.5578  -18.5231   23.9237 C   0  0  0  0  0  0  0  0  0  0  0  0
    6.6994  -19.2654   23.2774 C   0  0  1  0  0  0  0  0  0  0  0  0
    6.1245  -20.4246   22.7034 O   0  0  0  0  0  0  0  0  0  0  0  0
    7.3598  -18.4367   22.1577 C   0  0  2  0  0  0  0  0  0  0  0  0
    7.9450  -19.3694   21.2726 N   0  0  0  0  0  0  0  0  0  0  0  0
    8.2122  -17.4062   22.7491 C   0  0  0  0  0  0  0  0  0  0  0  0
    8.9945  -17.8598   23.6583 O   0  0  0  0  0  0  0  0  0  0  0  0
    8.2889  -16.0423   22.4683 N   0  0  0  0  0  0  0  0  0  0  0  0
    8.3137  -15.4172   21.1077 C   0  0  0  0  0  0  0  0  0  0  0  0
    7.2888  -14.2847   21.2985 C   0  0  0  0  0  0  0  0  0  0  0  0
    7.0614  -14.1854   22.8070 C   0  0  0  0  0  0  0  0  0  0  0  0
    8.3701  -14.8555   23.2671 C   0  0  1  0  0  0  0  0  0  0  0  0
    8.5287  -14.8884   24.6759 C   0  0  0  0  0  0  0  0  0  0  0  0
    7.6432  -14.9230   25.5232 O   0  0  0  0  0  0  0  0  0  0  0  0
    9.8823  -14.8807   25.1971 N   0  0  0  0  0  0  0  0  0  0  0  0
   10.1664  -14.3321   26.4833 C   0  0  1  0  0  0  0  0  0  0  0  0
    8.9165  -14.2297   27.3543 C   0  0  0  0  0  0  0  0  0  0  0  0
    9.4778  -13.6282   28.9908 S   0  0  0  0  0  0  0  0  0  0  0  0
   11.1155  -15.2032   27.1970 C   0  0  0  0  0  0  0  0  0  0  0  0
   11.4853  -16.2689   26.6913 O   0  0  0  0  0  0  0  0  0  0  0  0
   11.5744  -14.7927   28.4398 O   0  0  0  0  0  0  0  0  0  0  0  0
  2  1  1  6
  2  3  1  0
  4  2  1  0
  4  5  1  6
  6  4  1  0
  6  7  2  0
  8  6  1  0
  9  8  1  0
 10 11  1  0
 10  9  1  0
 11 12  1  0
 12  8  1  0
 12 13  1  1
 13 15  1  0
 14 13  2  0
 15 16  1  0
 16 19  1  0
 16 17  1  1
 17 18  1  0
 19 20  2  0
 19 21  1  0
M  END
$$$$
