TPC.pdb
     RDKit          3D

 21 21  0  0  1  0  0  0  0  0999 V2000
    5.9630  -15.4944   20.9849 C   0  0  0  0  0  0  0  0  0  0  0  0
    7.2093  -15.0505   20.2627 C   0  0  1  0  0  0  0  0  0  0  0  0
    6.8057  -14.7872   18.9317 O   0  0  0  0  0  0  0  0  0  0  0  0
    7.7903  -13.7565   20.8665 C   0  0  2  0  0  0  0  0  0  0  0  0
    8.4706  -13.1037   19.8145 N   0  0  0  0  0  0  0  0  0  0  0  0
    8.5323  -14.0752   22.0856 C   0  0  0  0  0  0  0  0  0  0  0  0
    9.5433  -14.8355   21.8760 O   0  0  0  0  0  0  0  0  0  0  0  0
    8.2989  -13.6778   23.4019 N   0  0  0  0  0  0  0  0  0  0  0  0
    8.0189  -12.2834   23.8706 C   0  0  0  0  0  0  0  0  0  0  0  0
    6.8241  -12.5350   24.8079 C   0  0  0  0  0  0  0  0  0  0  0  0
    6.7830  -14.0478   25.0251 C   0  0  0  0  0  0  0  0  0  0  0  0
    8.2478  -14.3577   24.6622 C   0  0  1  0  0  0  0  0  0  0  0  0
    8.5947  -15.7246   24.8110 C   0  0  0  0  0  0  0  0  0  0  0  0
    8.2502  -16.6609   24.0983 O   0  0  0  0  0  0  0  0  0  0  0  0
    9.4530  -16.0796   25.9250 N   0  0  0  0  0  0  0  0  0  0  0  0
   10.0517  -17.3726   26.0026 C   0  0  1  0  0  0  0  0  0  0  0  0
   11.1466  -17.5635   24.9557 C   0  0  0  0  0  0  0  0  0  0  0  0
   11.7757  -19.2698   25.1748 S   0  0  0  0  0  0  0  0  0  0  0  0
   10.6840  -17.5496   27.3209 C   0  0  0  0  0  0  0  0  0  0  0  0
   11.4166  -16.6684   27.7845 O   0  0  0  0  0  0  0  0  0  0  0  0
   10.4328  -18.7234   28.0156 O   0  0  0  0  0  0  0  0  0  0  0  0
  2  1  1  1
  2  3  1  0
  4  2  1  0
  4  5  1  6
  6  4  1  0
  6  7  2  0
  8  6  1  0
  9  8  1  0
 10 11  1  0
 10  9  1  0
 11 12  1  0
 12  8  1  0
 12 13  1  6
 13 15  1  0
 14 13  2  0
 15 16  1  0
 16 19  1  0
 16 17  1  6
 17 18  1  0
 19 20  2  0
 19 21  1  0
M  END
$$$$
