TPC.pdb
     RDKit          3D

 21 21  0  0  1  0  0  0  0  0999 V2000
   10.1792  -19.2736   21.3912 C   0  0  0  0  0  0  0  0  0  0  0  0
   11.0829  -18.3531   20.6115 C   0  0  1  0  0  0  0  0  0  0  0  0
   11.4420  -19.0694   19.4446 O   0  0  0  0  0  0  0  0  0  0  0  0
   10.3573  -17.0593   20.1918 C   0  0  2  0  0  0  0  0  0  0  0  0
   11.0834  -16.5399   19.0969 N   0  0  0  0  0  0  0  0  0  0  0  0
   10.1576  -16.2078   21.3637 C   0  0  0  0  0  0  0  0  0  0  0  0
   11.2028  -16.1108   22.1001 O   0  0  0  0  0  0  0  0  0  0  0  0
    9.0233  -15.5091   21.7761 N   0  0  0  0  0  0  0  0  0  0  0  0
    8.0743  -14.7591   20.8933 C   0  0  0  0  0  0  0  0  0  0  0  0
    6.7249  -15.2535   21.4448 C   0  0  0  0  0  0  0  0  0  0  0  0
    7.0500  -15.9447   22.7691 C   0  0  0  0  0  0  0  0  0  0  0  0
    8.4026  -15.2601   23.0434 C   0  0  1  0  0  0  0  0  0  0  0  0
    8.9941  -15.6399   24.2750 C   0  0  0  0  0  0  0  0  0  0  0  0
    9.6655  -16.6408   24.4999 O   0  0  0  0  0  0  0  0  0  0  0  0
    8.7961  -14.7608   25.4116 N   0  0  0  0  0  0  0  0  0  0  0  0
    9.3462  -15.0825   26.6883 C   0  0  1  0  0  0  0  0  0  0  0  0
    8.9922  -14.0404   27.7466 C   0  0  0  0  0  0  0  0  0  0  0  0
    9.4023  -12.4097   27.0202 S   0  0  0  0  0  0  0  0  0  0  0  0
    8.8014  -16.3688   27.1547 C   0  0  0  0  0  0  0  0  0  0  0  0
    7.7215  -16.7835   26.7188 O   0  0  0  0  0  0  0  0  0  0  0  0
    9.5317  -17.0898   28.0876 O   0  0  0  0  0  0  0  0  0  0  0  0
  2  1  1  1
  2  3  1  0
  4  2  1  0
  4  5  1  6
  6  4  1  0
  6  7  2  0
  8  6  1  0
  9  8  1  0
 10 11  1  0
 10  9  1  0
 11 12  1  0
 12  8  1  0
 12 13  1  1
 13 15  1  0
 14 13  2  0
 15 16  1  0
 16 19  1  0
 16 17  1  1
 17 18  1  0
 19 20  2  0
 19 21  1  0
M  END
$$$$
