TPC.pdb
     RDKit          3D

 21 21  0  0  1  0  0  0  0  0999 V2000
    6.8915  -17.4646   17.5532 C   0  0  0  0  0  0  0  0  0  0  0  0
    8.1289  -17.3114   16.7064 C   0  0  1  0  0  0  0  0  0  0  0  0
    7.7343  -17.6488   15.3895 O   0  0  0  0  0  0  0  0  0  0  0  0
    8.6477  -15.8597   16.7086 C   0  0  2  0  0  0  0  0  0  0  0  0
    9.4252  -15.7192   15.5376 N   0  0  0  0  0  0  0  0  0  0  0  0
    9.2695  -15.5640   17.9987 C   0  0  0  0  0  0  0  0  0  0  0  0
   10.1742  -16.4109   18.3280 O   0  0  0  0  0  0  0  0  0  0  0  0
    9.0218  -14.5207   18.8904 N   0  0  0  0  0  0  0  0  0  0  0  0
    8.8226  -13.0796   18.5356 C   0  0  0  0  0  0  0  0  0  0  0  0
    7.5841  -12.7476   19.3872 C   0  0  0  0  0  0  0  0  0  0  0  0
    7.4332  -13.9126   20.3656 C   0  0  0  0  0  0  0  0  0  0  0  0
    8.8843  -14.4273   20.3137 C   0  0  1  0  0  0  0  0  0  0  0  0
    9.1325  -15.5208   21.1817 C   0  0  0  0  0  0  0  0  0  0  0  0
    8.4887  -16.5605   21.2706 O   0  0  0  0  0  0  0  0  0  0  0  0
   10.2710  -15.4212   22.0748 N   0  0  0  0  0  0  0  0  0  0  0  0
   10.6194  -16.5031   22.9375 C   0  0  1  0  0  0  0  0  0  0  0  0
   12.1004  -16.8618   22.8414 C   0  0  0  0  0  0  0  0  0  0  0  0
   12.3676  -17.4935   21.1431 S   0  0  0  0  0  0  0  0  0  0  0  0
   10.3598  -16.1265   24.3374 C   0  0  0  0  0  0  0  0  0  0  0  0
    9.9535  -14.9919   24.6128 O   0  0  0  0  0  0  0  0  0  0  0  0
   10.5838  -17.0756   25.3235 O   0  0  0  0  0  0  0  0  0  0  0  0
  2  1  1  1
  2  3  1  0
  4  2  1  0
  4  5  1  6
  6  4  1  0
  6  7  2  0
  8  6  1  0
  9  8  1  0
 10 11  1  0
 10  9  1  0
 11 12  1  0
 12  8  1  0
 12 13  1  1
 13 15  1  0
 14 13  2  0
 15 16  1  0
 16 19  1  0
 16 17  1  1
 17 18  1  0
 19 20  2  0
 19 21  1  0
M  END
$$$$
