TPC.pdb
     RDKit          3D

 21 21  0  0  1  0  0  0  0  0999 V2000
    7.1923  -17.2911   16.9553 C   0  0  0  0  0  0  0  0  0  0  0  0
    8.4716  -17.0544   16.1943 C   0  0  1  0  0  0  0  0  0  0  0  0
    8.1577  -17.2970   14.8355 O   0  0  0  0  0  0  0  0  0  0  0  0
    8.9602  -15.5991   16.3350 C   0  0  2  0  0  0  0  0  0  0  0  0
    9.8330  -15.3715   15.2478 N   0  0  0  0  0  0  0  0  0  0  0  0
    9.4625  -15.3802   17.6908 C   0  0  0  0  0  0  0  0  0  0  0  0
   10.3289  -16.2527   18.0542 O   0  0  0  0  0  0  0  0  0  0  0  0
    9.1393  -14.3845   18.6121 N   0  0  0  0  0  0  0  0  0  0  0  0
    8.9455  -12.9298   18.3141 C   0  0  0  0  0  0  0  0  0  0  0  0
    7.6465  -12.6527   19.0920 C   0  0  0  0  0  0  0  0  0  0  0  0
    7.4440  -13.8657   20.0002 C   0  0  0  0  0  0  0  0  0  0  0  0
    8.9021  -14.3623   20.0251 C   0  0  1  0  0  0  0  0  0  0  0  0
    9.1044  -15.4944   20.8548 C   0  0  0  0  0  0  0  0  0  0  0  0
    8.4292  -16.5170   20.8946 O   0  0  0  0  0  0  0  0  0  0  0  0
   10.2309  -15.4622   21.7678 N   0  0  0  0  0  0  0  0  0  0  0  0
   10.5679  -16.6054   22.5525 C   0  0  1  0  0  0  0  0  0  0  0  0
   12.0566  -16.9361   22.4777 C   0  0  0  0  0  0  0  0  0  0  0  0
   12.9461  -15.4300   23.0213 S   0  0  0  0  0  0  0  0  0  0  0  0
   10.2575  -16.3457   23.9686 C   0  0  0  0  0  0  0  0  0  0  0  0
    9.8523  -15.2332   24.3243 O   0  0  0  0  0  0  0  0  0  0  0  0
   10.4330  -17.3782   24.8778 O   0  0  0  0  0  0  0  0  0  0  0  0
  2  1  1  1
  2  3  1  0
  4  2  1  0
  4  5  1  6
  6  4  1  0
  6  7  2  0
  8  6  1  0
  9  8  1  0
 10 11  1  0
 10  9  1  0
 11 12  1  0
 12  8  1  0
 12 13  1  6
 13 15  1  0
 14 13  2  0
 15 16  1  0
 16 19  1  0
 16 17  1  1
 17 18  1  0
 19 20  2  0
 19 21  1  0
M  END
$$$$
