TPC.pdb
     RDKit          3D

 21 21  0  0  1  0  0  0  0  0999 V2000
    8.0859  -17.3235   16.7449 C   0  0  0  0  0  0  0  0  0  0  0  0
    8.5988  -16.0766   16.0712 C   0  0  1  0  0  0  0  0  0  0  0  0
    8.0905  -16.1198   14.7507 O   0  0  0  0  0  0  0  0  0  0  0  0
    8.0772  -14.7991   16.7584 C   0  0  2  0  0  0  0  0  0  0  0  0
    8.1212  -13.7813   15.7797 N   0  0  0  0  0  0  0  0  0  0  0  0
    8.7960  -14.5906   18.0147 C   0  0  0  0  0  0  0  0  0  0  0  0
   10.0639  -14.7452   17.9015 O   0  0  0  0  0  0  0  0  0  0  0  0
    8.3074  -14.2568   19.2775 N   0  0  0  0  0  0  0  0  0  0  0  0
    7.2472  -13.2429   19.5784 C   0  0  0  0  0  0  0  0  0  0  0  0
    6.3725  -14.0340   20.5676 C   0  0  0  0  0  0  0  0  0  0  0  0
    7.2044  -15.2521   20.9694 C   0  0  0  0  0  0  0  0  0  0  0  0
    8.5942  -14.6914   20.6125 C   0  0  1  0  0  0  0  0  0  0  0  0
    9.6607  -15.5742   20.9193 C   0  0  0  0  0  0  0  0  0  0  0  0
   10.1678  -16.4122   20.1818 O   0  0  0  0  0  0  0  0  0  0  0  0
   10.2326  -15.4956   22.2499 N   0  0  0  0  0  0  0  0  0  0  0  0
   11.2035  -16.4466   22.6848 C   0  0  1  0  0  0  0  0  0  0  0  0
   12.2606  -15.8172   23.5891 C   0  0  0  0  0  0  0  0  0  0  0  0
   13.3560  -17.1829   24.1276 S   0  0  0  0  0  0  0  0  0  0  0  0
   10.5457  -17.5062   23.4681 C   0  0  0  0  0  0  0  0  0  0  0  0
   10.8762  -18.6881   23.3194 O   0  0  0  0  0  0  0  0  0  0  0  0
    9.5557  -17.1378   24.3668 O   0  0  0  0  0  0  0  0  0  0  0  0
  2  1  1  1
  2  3  1  0
  4  2  1  0
  4  5  1  6
  6  4  1  0
  6  7  2  0
  8  6  1  0
  9  8  1  0
 10 11  1  0
 10  9  1  0
 11 12  1  0
 12  8  1  0
 12 13  1  6
 13 15  1  0
 14 13  2  0
 15 16  1  0
 16 19  1  0
 16 17  1  1
 17 18  1  0
 19 20  2  0
 19 21  1  0
M  END
$$$$
