TPC.pdb
     RDKit          3D

 21 21  0  0  1  0  0  0  0  0999 V2000
    7.2293  -19.1668   19.4971 C   0  0  0  0  0  0  0  0  0  0  0  0
    8.4410  -18.8673   18.6522 C   0  0  1  0  0  0  0  0  0  0  0  0
    8.1511  -19.3917   17.3698 O   0  0  0  0  0  0  0  0  0  0  0  0
    8.6863  -17.3511   18.5207 C   0  0  2  0  0  0  0  0  0  0  0  0
    9.4639  -17.1793   17.3538 N   0  0  0  0  0  0  0  0  0  0  0  0
    9.2003  -16.8267   19.7853 C   0  0  0  0  0  0  0  0  0  0  0  0
   10.2281  -17.4625   20.2139 O   0  0  0  0  0  0  0  0  0  0  0  0
    8.7413  -15.7641   20.5630 N   0  0  0  0  0  0  0  0  0  0  0  0
    8.2676  -14.4360   20.0588 C   0  0  0  0  0  0  0  0  0  0  0  0
    6.9773  -14.2657   20.8806 C   0  0  0  0  0  0  0  0  0  0  0  0
    7.0456  -15.3274   21.9785 C   0  0  0  0  0  0  0  0  0  0  0  0
    8.5700  -15.5494   21.9694 C   0  0  1  0  0  0  0  0  0  0  0  0
    9.0170  -16.4747   22.9467 C   0  0  0  0  0  0  0  0  0  0  0  0
    8.6982  -17.6536   23.0550 O   0  0  0  0  0  0  0  0  0  0  0  0
    9.9577  -15.9954   23.9412 N   0  0  0  0  0  0  0  0  0  0  0  0
   10.4033  -16.8475   24.9955 C   0  0  1  0  0  0  0  0  0  0  0  0
   11.3511  -16.1299   25.9537 C   0  0  0  0  0  0  0  0  0  0  0  0
   11.8999  -17.3847   27.1700 S   0  0  0  0  0  0  0  0  0  0  0  0
    9.2495  -17.2983   25.7920 C   0  0  0  0  0  0  0  0  0  0  0  0
    8.3211  -16.5206   26.0403 O   0  0  0  0  0  0  0  0  0  0  0  0
    9.2398  -18.6080   26.2481 O   0  0  0  0  0  0  0  0  0  0  0  0
  2  1  1  1
  2  3  1  0
  4  2  1  0
  4  5  1  6
  6  4  1  0
  6  7  2  0
  8  6  1  0
  9  8  1  0
 10 11  1  0
 10  9  1  0
 11 12  1  0
 12  8  1  0
 12 13  1  1
 13 15  1  0
 14 13  2  0
 15 16  1  0
 16 19  1  0
 16 17  1  1
 17 18  1  0
 19 20  2  0
 19 21  1  0
M  END
$$$$
