TPC.pdb
     RDKit          3D

 21 21  0  0  1  0  0  0  0  0999 V2000
    6.3904  -16.8015   22.5831 C   0  0  0  0  0  0  0  0  0  0  0  0
    7.6089  -16.5043   21.7470 C   0  0  1  0  0  0  0  0  0  0  0  0
    7.2070  -16.7003   20.4039 O   0  0  0  0  0  0  0  0  0  0  0  0
    8.0751  -15.0444   21.9138 C   0  0  2  0  0  0  0  0  0  0  0  0
    8.8589  -14.7505   20.7759 N   0  0  0  0  0  0  0  0  0  0  0  0
    8.6726  -14.8694   23.2369 C   0  0  0  0  0  0  0  0  0  0  0  0
    9.7173  -15.5906   23.4174 O   0  0  0  0  0  0  0  0  0  0  0  0
    8.2753  -14.0517   24.2944 N   0  0  0  0  0  0  0  0  0  0  0  0
    7.7019  -12.6729   24.1820 C   0  0  0  0  0  0  0  0  0  0  0  0
    6.5139  -12.7809   25.1549 C   0  0  0  0  0  0  0  0  0  0  0  0
    6.7470  -14.0670   25.9479 C   0  0  0  0  0  0  0  0  0  0  0  0
    8.2659  -14.1881   25.7208 C   0  0  1  0  0  0  0  0  0  0  0  0
    8.8560  -15.2904   26.3899 C   0  0  0  0  0  0  0  0  0  0  0  0
    8.5989  -16.4790   26.2340 O   0  0  0  0  0  0  0  0  0  0  0  0
    9.8819  -15.0043   27.3745 N   0  0  0  0  0  0  0  0  0  0  0  0
   10.6609  -16.0555   27.9440 C   0  0  1  0  0  0  0  0  0  0  0  0
   12.1264  -15.6605   28.1105 C   0  0  0  0  0  0  0  0  0  0  0  0
   12.1275  -14.0211   28.9276 S   0  0  0  0  0  0  0  0  0  0  0  0
   10.1502  -16.3819   29.2862 C   0  0  0  0  0  0  0  0  0  0  0  0
    9.2674  -15.6879   29.8033 O   0  0  0  0  0  0  0  0  0  0  0  0
   10.6864  -17.4801   29.9420 O   0  0  0  0  0  0  0  0  0  0  0  0
  2  1  1  1
  2  3  1  0
  4  2  1  0
  4  5  1  6
  6  4  1  0
  6  7  2  0
  8  6  1  0
  9  8  1  0
 10 11  1  0
 10  9  1  0
 11 12  1  0
 12  8  1  0
 12 13  1  6
 13 15  1  0
 14 13  2  0
 15 16  1  0
 16 19  1  0
 16 17  1  1
 17 18  1  0
 19 20  2  0
 19 21  1  0
M  END
$$$$
