TPC.pdb
     RDKit          3D

 21 21  0  0  1  0  0  0  0  0999 V2000
    8.7537  -12.5290   19.8032 C   0  0  0  0  0  0  0  0  0  0  0  0
    7.9339  -13.5464   19.0518 C   0  0  1  0  0  0  0  0  0  0  0  0
    7.1459  -12.8035   18.1403 O   0  0  0  0  0  0  0  0  0  0  0  0
    8.8228  -14.5211   18.2540 C   0  0  2  0  0  0  0  0  0  0  0  0
    7.9536  -15.2338   17.3983 N   0  0  0  0  0  0  0  0  0  0  0  0
    9.6697  -15.2773   19.1756 C   0  0  0  0  0  0  0  0  0  0  0  0
    9.0075  -15.8566   20.1085 O   0  0  0  0  0  0  0  0  0  0  0  0
   11.0536  -15.4497   19.1783 N   0  0  0  0  0  0  0  0  0  0  0  0
   11.9352  -15.5633   17.9732 C   0  0  0  0  0  0  0  0  0  0  0  0
   13.0745  -14.6054   18.3654 C   0  0  0  0  0  0  0  0  0  0  0  0
   12.8851  -14.3297   19.8572 C   0  0  0  0  0  0  0  0  0  0  0  0
   12.0480  -15.5761   20.2023 C   0  0  1  0  0  0  0  0  0  0  0  0
   11.7228  -15.6809   21.5785 C   0  0  0  0  0  0  0  0  0  0  0  0
   11.4088  -14.7723   22.3395 O   0  0  0  0  0  0  0  0  0  0  0  0
   11.7589  -17.0021   22.1759 N   0  0  0  0  0  0  0  0  0  0  0  0
   11.5566  -17.1756   23.5777 C   0  0  1  0  0  0  0  0  0  0  0  0
   10.2994  -17.9869   23.8816 C   0  0  0  0  0  0  0  0  0  0  0  0
    8.8784  -16.8971   23.4966 S   0  0  0  0  0  0  0  0  0  0  0  0
   12.6925  -17.9130   24.1566 C   0  0  0  0  0  0  0  0  0  0  0  0
   13.5619  -18.3958   23.4223 O   0  0  0  0  0  0  0  0  0  0  0  0
   12.7528  -18.0457   25.5359 O   0  0  0  0  0  0  0  0  0  0  0  0
  2  1  1  6
  2  3  1  0
  4  2  1  0
  4  5  1  1
  6  4  1  0
  6  7  2  0
  8  6  1  0
  9  8  1  0
 10 11  1  0
 10  9  1  0
 11 12  1  0
 12  8  1  0
 12 13  1  1
 13 15  1  0
 14 13  2  0
 15 16  1  0
 16 19  1  0
 16 17  1  6
 17 18  1  0
 19 20  2  0
 19 21  1  0
M  END
$$$$
