TPC.pdb
     RDKit          3D

 21 21  0  0  1  0  0  0  0  0999 V2000
    7.2617  -19.1572   22.2723 C   0  0  0  0  0  0  0  0  0  0  0  0
    8.5382  -19.1045   21.4725 C   0  0  1  0  0  0  0  0  0  0  0  0
    8.3364  -19.9745   20.3742 O   0  0  0  0  0  0  0  0  0  0  0  0
    8.8178  -17.6875   20.9338 C   0  0  2  0  0  0  0  0  0  0  0  0
    9.6686  -17.8527   19.8183 N   0  0  0  0  0  0  0  0  0  0  0  0
    9.2622  -16.8262   22.0289 C   0  0  0  0  0  0  0  0  0  0  0  0
   10.1499  -17.3755   22.7735 O   0  0  0  0  0  0  0  0  0  0  0  0
    8.8662  -15.5314   22.3628 N   0  0  0  0  0  0  0  0  0  0  0  0
    8.4685  -14.4511   21.4051 C   0  0  0  0  0  0  0  0  0  0  0  0
    7.1915  -13.9263   22.0858 C   0  0  0  0  0  0  0  0  0  0  0  0
    7.2007  -14.5226   23.4934 C   0  0  0  0  0  0  0  0  0  0  0  0
    8.7099  -14.8150   23.5940 C   0  0  1  0  0  0  0  0  0  0  0  0
    9.1048  -15.3483   24.8472 C   0  0  0  0  0  0  0  0  0  0  0  0
    8.4878  -16.1476   25.5427 O   0  0  0  0  0  0  0  0  0  0  0  0
   10.3786  -14.9138   25.3879 N   0  0  0  0  0  0  0  0  0  0  0  0
   10.5592  -14.7558   26.7945 C   0  0  1  0  0  0  0  0  0  0  0  0
    9.6014  -13.7239   27.3854 C   0  0  0  0  0  0  0  0  0  0  0  0
    9.9798  -13.6367   29.1754 S   0  0  0  0  0  0  0  0  0  0  0  0
   10.2880  -16.0322   27.4772 C   0  0  0  0  0  0  0  0  0  0  0  0
    9.1514  -16.5181   27.4625 O   0  0  0  0  0  0  0  0  0  0  0  0
   11.3376  -16.6625   28.1289 O   0  0  0  0  0  0  0  0  0  0  0  0
  2  1  1  1
  2  3  1  0
  4  2  1  0
  4  5  1  6
  6  4  1  0
  6  7  2  0
  8  6  1  0
  9  8  1  0
 10 11  1  0
 10  9  1  0
 11 12  1  0
 12  8  1  0
 12 13  1  1
 13 15  1  0
 14 13  2  0
 15 16  1  0
 16 19  1  0
 16 17  1  1
 17 18  1  0
 19 20  2  0
 19 21  1  0
M  END
$$$$
