TPC.pdb
     RDKit          3D

 21 21  0  0  1  0  0  0  0  0999 V2000
    6.3324  -18.1335   19.1366 C   0  0  0  0  0  0  0  0  0  0  0  0
    7.5910  -18.2500   18.3155 C   0  0  1  0  0  0  0  0  0  0  0  0
    7.1818  -18.7604   17.0602 O   0  0  0  0  0  0  0  0  0  0  0  0
    8.2597  -16.8785   18.0956 C   0  0  2  0  0  0  0  0  0  0  0  0
    9.0231  -16.9994   16.9131 N   0  0  0  0  0  0  0  0  0  0  0  0
    8.9360  -16.4611   19.3231 C   0  0  0  0  0  0  0  0  0  0  0  0
    9.7293  -17.3539   19.7900 O   0  0  0  0  0  0  0  0  0  0  0  0
    8.8401  -15.2640   20.0320 N   0  0  0  0  0  0  0  0  0  0  0  0
    8.7317  -13.8913   19.4433 C   0  0  0  0  0  0  0  0  0  0  0  0
    7.5907  -13.3077   20.2958 C   0  0  0  0  0  0  0  0  0  0  0  0
    7.4196  -14.2718   21.4699 C   0  0  0  0  0  0  0  0  0  0  0  0
    8.8167  -14.9193   21.4226 C   0  0  1  0  0  0  0  0  0  0  0  0
    9.0398  -15.8687   22.4521 C   0  0  0  0  0  0  0  0  0  0  0  0
    8.3145  -16.8046   22.7703 O   0  0  0  0  0  0  0  0  0  0  0  0
   10.2568  -15.7381   23.2304 N   0  0  0  0  0  0  0  0  0  0  0  0
   10.5573  -16.6612   24.2762 C   0  0  1  0  0  0  0  0  0  0  0  0
   11.9067  -17.3452   24.0699 C   0  0  0  0  0  0  0  0  0  0  0  0
   12.1378  -18.4684   25.4982 S   0  0  0  0  0  0  0  0  0  0  0  0
   10.6308  -15.9483   25.5628 C   0  0  0  0  0  0  0  0  0  0  0  0
   10.8980  -14.7416   25.5928 O   0  0  0  0  0  0  0  0  0  0  0  0
   10.3933  -16.6673   26.7247 O   0  0  0  0  0  0  0  0  0  0  0  0
  2  1  1  1
  2  3  1  0
  4  2  1  0
  4  5  1  6
  6  4  1  0
  6  7  2  0
  8  6  1  0
  9  8  1  0
 10 11  1  0
 10  9  1  0
 11 12  1  0
 12  8  1  0
 12 13  1  1
 13 15  1  0
 14 13  2  0
 15 16  1  0
 16 19  1  0
 16 17  1  6
 17 18  1  0
 19 20  2  0
 19 21  1  0
M  END
$$$$
