TPC.pdb
     RDKit          3D

 21 21  0  0  1  0  0  0  0  0999 V2000
    7.0767  -17.4822   17.3504 C   0  0  0  0  0  0  0  0  0  0  0  0
    8.2535  -17.2550   16.4363 C   0  0  1  0  0  0  0  0  0  0  0  0
    7.7840  -17.5408   15.1318 O   0  0  0  0  0  0  0  0  0  0  0  0
    8.7353  -15.7912   16.4769 C   0  0  2  0  0  0  0  0  0  0  0  0
    9.5173  -15.6033   15.3155 N   0  0  0  0  0  0  0  0  0  0  0  0
    9.3404  -15.5109   17.7783 C   0  0  0  0  0  0  0  0  0  0  0  0
   10.2654  -16.3411   18.0933 O   0  0  0  0  0  0  0  0  0  0  0  0
    9.0587  -14.4970   18.6935 N   0  0  0  0  0  0  0  0  0  0  0  0
    8.7927  -13.0593   18.3698 C   0  0  0  0  0  0  0  0  0  0  0  0
    7.5517  -12.7983   19.2423 C   0  0  0  0  0  0  0  0  0  0  0  0
    7.4638  -13.9876   20.1990 C   0  0  0  0  0  0  0  0  0  0  0  0
    8.9351  -14.4373   20.1198 C   0  0  1  0  0  0  0  0  0  0  0  0
    9.2414  -15.5356   20.9629 C   0  0  0  0  0  0  0  0  0  0  0  0
    8.7320  -16.6507   20.9458 O   0  0  0  0  0  0  0  0  0  0  0  0
   10.2702  -15.3419   21.9669 N   0  0  0  0  0  0  0  0  0  0  0  0
   10.6773  -16.4170   22.8122 C   0  0  1  0  0  0  0  0  0  0  0  0
   12.1880  -16.6358   22.7778 C   0  0  0  0  0  0  0  0  0  0  0  0
   12.5468  -17.9422   24.0106 S   0  0  0  0  0  0  0  0  0  0  0  0
   10.3201  -16.1145   24.2085 C   0  0  0  0  0  0  0  0  0  0  0  0
   10.3804  -16.9964   25.0727 O   0  0  0  0  0  0  0  0  0  0  0  0
    9.9188  -14.8233   24.5171 O   0  0  0  0  0  0  0  0  0  0  0  0
  2  1  1  1
  2  3  1  0
  4  2  1  0
  4  5  1  6
  6  4  1  0
  6  7  2  0
  8  6  1  0
  9  8  1  0
 10 11  1  0
 10  9  1  0
 11 12  1  0
 12  8  1  0
 12 13  1  1
 13 15  1  0
 14 13  2  0
 15 16  1  0
 16 19  1  0
 16 17  1  1
 17 18  1  0
 19 20  2  0
 19 21  1  0
M  END
$$$$
