IRF.pdb
     RDKit          3D

 31 31  0  0  1  0  0  0  0  0999 V2000
    8.0389  -11.5889   18.8929 C   0  0  0  0  0  0  0  0  0  0  0  0
    8.2021  -13.0727   18.6863 C   0  0  0  0  0  0  0  0  0  0  0  0
    7.8192  -13.8589   19.9153 C   0  0  2  0  0  0  0  0  0  0  0  0
    8.6719  -13.4152   21.0509 C   0  0  0  0  0  0  0  0  0  0  0  0
    7.9460  -15.3471   19.6908 C   0  0  2  0  0  0  0  0  0  0  0  0
    7.0144  -15.7296   18.5899 N   0  0  0  0  0  0  0  0  0  0  0  0
    7.4925  -16.1540   20.8431 C   0  0  0  0  0  0  0  0  0  0  0  0
    6.2756  -16.1809   21.2271 O   0  0  0  0  0  0  0  0  0  0  0  0
    4.8809  -22.6747   24.0956 N   0  0  0  0  0  0  0  0  0  0  0  0
    6.1139  -22.8105   23.4005 C   0  0  0  0  0  0  0  0  0  0  0  0
    7.0082  -23.6432   23.8105 N   0  0  0  0  0  0  0  0  0  0  0  0
    6.4247  -22.0525   22.2358 N   0  0  0  0  0  0  0  0  0  0  0  0
    6.4123  -20.6111   22.2278 C   0  0  0  0  0  0  0  0  0  0  0  0
    7.3873  -20.0292   23.2237 C   0  0  0  0  0  0  0  0  0  0  0  0
    8.3885  -19.1135   22.5486 C   0  0  0  0  0  0  0  0  0  0  0  0
    8.0351  -17.6593   22.7771 C   0  0  2  0  0  0  0  0  0  0  0  0
    8.4009  -16.9379   21.5683 N   0  0  0  0  0  0  0  0  0  0  0  0
    8.7034  -17.0720   23.9243 C   0  0  0  0  0  0  0  0  0  0  0  0
    9.3326  -15.9801   23.7675 O   0  0  0  0  0  0  0  0  0  0  0  0
    7.8713  -23.8054   23.2447 N   0  0  0  0  0  0  0  0  0  0  0  0
    8.7028  -17.6443   25.2321 C   0  0  2  0  0  0  0  0  0  0  0  0
    8.5120  -16.7826   26.3898 C   0  0  0  0  0  0  0  0  0  0  0  0
    7.1425  -16.1645   26.3822 C   0  0  0  0  0  0  0  0  0  0  0  0
    7.1987  -14.7159   26.5357 C   0  0  0  0  0  0  0  0  0  0  0  0
    6.1508  -13.8748   26.1578 C   0  0  0  0  0  0  0  0  0  0  0  0
    6.2123  -12.5204   26.3077 C   0  0  0  0  0  0  0  0  0  0  0  0
    7.3247  -11.9130   26.8454 C   0  0  0  0  0  0  0  0  0  0  0  0
    8.3701  -12.7044   27.2264 C   0  0  0  0  0  0  0  0  0  0  0  0
    8.3145  -14.0761   27.0774 C   0  0  0  0  0  0  0  0  0  0  0  0
    8.7916  -17.5075   27.6378 O   0  0  0  0  0  0  0  0  0  0  0  0
    9.5879  -17.0738   28.6747 O   0  0  0  0  0  0  0  0  0  0  0  0
  2  1  1  0
  3  2  1  0
  3  4  1  1
  5  3  1  0
  5  6  1  6
  7  5  1  0
  8  7  2  0
  9 10  1  0
 10 12  1  0
 11 10  2  0
 12 13  1  0
 13 14  1  0
 14 15  1  0
 16 15  1  6
 16 18  1  0
 16 17  1  0
 17  7  1  0
 18 19  2  0
 20 21  1  0
 20 18  1  0
 21 22  1  6
 22 23  1  0
 23 28  2  0
 24 23  1  0
 24 25  2  0
 25 26  1  0
 26 27  2  0
 28 27  1  0
 29 30  1  0
 29 21  1  0
 31 29  2  0
M  END
$$$$
