IRF.pdb
     RDKit          3D

 31 31  0  0  1  0  0  0  0  0999 V2000
    5.7509  -11.4462   27.0474 C   0  0  0  0  0  0  0  0  0  0  0  0
    5.3620  -12.7864   26.4785 C   0  0  0  0  0  0  0  0  0  0  0  0
    6.5289  -13.4805   25.8211 C   0  0  2  0  0  0  0  0  0  0  0  0
    7.1055  -12.5740   24.7920 C   0  0  0  0  0  0  0  0  0  0  0  0
    6.1249  -14.8032   25.2142 C   0  0  2  0  0  0  0  0  0  0  0  0
    5.5998  -15.6723   26.3073 N   0  0  0  0  0  0  0  0  0  0  0  0
    7.2639  -15.5667   24.6625 C   0  0  0  0  0  0  0  0  0  0  0  0
    7.9163  -16.4211   25.3505 O   0  0  0  0  0  0  0  0  0  0  0  0
    9.2587  -15.3118   17.9731 N   0  0  0  0  0  0  0  0  0  0  0  0
    8.6190  -14.0556   17.7869 C   0  0  0  0  0  0  0  0  0  0  0  0
    8.7214  -13.4288   16.6653 N   0  0  0  0  0  0  0  0  0  0  0  0
    7.8438  -13.4317   18.8055 N   0  0  0  0  0  0  0  0  0  0  0  0
    7.3761  -14.1475   19.9659 C   0  0  0  0  0  0  0  0  0  0  0  0
    8.4884  -14.4235   20.9497 C   0  0  0  0  0  0  0  0  0  0  0  0
    8.6363  -15.9079   21.2166 C   0  0  0  0  0  0  0  0  0  0  0  0
    8.7035  -16.1887   22.7027 C   0  0  2  0  0  0  0  0  0  0  0  0
    7.6745  -15.3786   23.3353 N   0  0  0  0  0  0  0  0  0  0  0  0
    9.9968  -15.8932   23.2922 C   0  0  0  0  0  0  0  0  0  0  0  0
   10.6232  -14.8616   22.8968 O   0  0  0  0  0  0  0  0  0  0  0  0
    8.3342  -12.4634   16.5677 N   0  0  0  0  0  0  0  0  0  0  0  0
   10.6212  -16.6919   24.2972 C   0  0  1  0  0  0  0  0  0  0  0  0
   11.9680  -16.3608   24.7396 C   0  0  0  0  0  0  0  0  0  0  0  0
   12.1409  -16.6497   26.2039 C   0  0  0  0  0  0  0  0  0  0  0  0
   11.3043  -15.7885   27.0307 C   0  0  0  0  0  0  0  0  0  0  0  0
   11.2100  -14.4102   26.8318 C   0  0  0  0  0  0  0  0  0  0  0  0
   10.4223  -13.6133   27.6098 C   0  0  0  0  0  0  0  0  0  0  0  0
    9.6748  -14.1382   28.6399 C   0  0  0  0  0  0  0  0  0  0  0  0
    9.7423  -15.4834   28.8644 C   0  0  0  0  0  0  0  0  0  0  0  0
   10.5376  -16.2959   28.0807 C   0  0  0  0  0  0  0  0  0  0  0  0
   12.9760  -17.0399   23.9125 O   0  0  0  0  0  0  0  0  0  0  0  0
   14.3402  -16.8598   23.9737 O   0  0  0  0  0  0  0  0  0  0  0  0
  2  1  1  0
  3  2  1  0
  3  4  1  6
  5  3  1  0
  5  6  1  1
  7  5  1  0
  8  7  2  0
  9 10  1  0
 10 12  1  0
 11 10  2  0
 12 13  1  0
 13 14  1  0
 14 15  1  0
 16 15  1  6
 16 18  1  0
 16 17  1  0
 17  7  1  0
 18 19  2  0
 20 21  1  0
 20 18  1  0
 21 22  1  6
 22 23  1  0
 23 28  2  0
 24 23  1  0
 24 25  2  0
 25 26  1  0
 26 27  2  0
 28 27  1  0
 29 30  1  0
 29 21  1  0
 31 29  2  0
M  END
$$$$
