IRF.pdb
     RDKit          3D

 31 31  0  0  1  0  0  0  0  0999 V2000
    6.3035  -11.5639   26.4997 C   0  0  0  0  0  0  0  0  0  0  0  0
    5.8612  -12.8675   25.8865 C   0  0  0  0  0  0  0  0  0  0  0  0
    7.0306  -13.6918   25.4087 C   0  0  2  0  0  0  0  0  0  0  0  0
    7.8522  -12.8644   24.4847 C   0  0  0  0  0  0  0  0  0  0  0  0
    6.5802  -14.9684   24.7388 C   0  0  2  0  0  0  0  0  0  0  0  0
    5.7021  -15.7062   25.6931 N   0  0  0  0  0  0  0  0  0  0  0  0
    7.6872  -15.9092   24.4668 C   0  0  0  0  0  0  0  0  0  0  0  0
    8.0297  -16.8237   25.2886 O   0  0  0  0  0  0  0  0  0  0  0  0
    8.5496  -14.0362   17.4993 N   0  0  0  0  0  0  0  0  0  0  0  0
    7.7431  -13.7512   18.6353 C   0  0  0  0  0  0  0  0  0  0  0  0
    7.6028  -12.5392   19.0509 N   0  0  0  0  0  0  0  0  0  0  0  0
    7.0574  -14.7654   19.3624 N   0  0  0  0  0  0  0  0  0  0  0  0
    7.7437  -15.8825   19.9614 C   0  0  0  0  0  0  0  0  0  0  0  0
    8.8727  -15.4393   20.8614 C   0  0  0  0  0  0  0  0  0  0  0  0
    9.6552  -16.6234   21.3926 C   0  0  0  0  0  0  0  0  0  0  0  0
    9.3848  -16.8360   22.8669 C   0  0  2  0  0  0  0  0  0  0  0  0
    8.4133  -15.8315   23.2700 N   0  0  0  0  0  0  0  0  0  0  0  0
   10.5722  -16.7358   23.6961 C   0  0  0  0  0  0  0  0  0  0  0  0
   11.6591  -16.3596   23.1577 O   0  0  0  0  0  0  0  0  0  0  0  0
    7.0301  -12.3405   19.9017 N   0  0  0  0  0  0  0  0  0  0  0  0
   10.6032  -17.0351   25.0915 C   0  0  1  0  0  0  0  0  0  0  0  0
   11.8794  -17.0490   25.7919 C   0  0  0  0  0  0  0  0  0  0  0  0
   12.1862  -15.7010   26.3805 C   0  0  0  0  0  0  0  0  0  0  0  0
   11.2284  -15.3282   27.4143 C   0  0  0  0  0  0  0  0  0  0  0  0
   11.3589  -15.7285   28.7451 C   0  0  0  0  0  0  0  0  0  0  0  0
   10.4582  -15.3724   29.7056 C   0  0  0  0  0  0  0  0  0  0  0  0
    9.3651  -14.5919   29.4029 C   0  0  0  0  0  0  0  0  0  0  0  0
    9.2046  -14.1816   28.1105 C   0  0  0  0  0  0  0  0  0  0  0  0
   10.1125  -14.5385   27.1333 C   0  0  0  0  0  0  0  0  0  0  0  0
   11.9164  -18.1203   26.7979 O   0  0  0  0  0  0  0  0  0  0  0  0
   12.9921  -18.4650   27.5862 O   0  0  0  0  0  0  0  0  0  0  0  0
  2  1  1  0
  3  2  1  0
  3  4  1  6
  5  3  1  0
  5  6  1  1
  7  5  1  0
  8  7  2  0
  9 10  1  0
 10 12  1  0
 11 10  2  0
 12 13  1  0
 13 14  1  0
 14 15  1  0
 16 15  1  6
 16 18  1  0
 16 17  1  0
 17  7  1  0
 18 19  2  0
 20 21  1  0
 20 18  1  0
 21 22  1  6
 22 23  1  0
 23 28  2  0
 24 23  1  0
 24 25  2  0
 25 26  1  0
 26 27  2  0
 28 27  1  0
 29 30  1  0
 29 21  1  0
 31 29  2  0
M  END
$$$$
