IRF.pdb
     RDKit          3D

 31 31  0  0  1  0  0  0  0  0999 V2000
    7.6580  -11.4943   19.4685 C   0  0  0  0  0  0  0  0  0  0  0  0
    7.6485  -12.9706   19.1657 C   0  0  0  0  0  0  0  0  0  0  0  0
    7.8596  -13.8024   20.4062 C   0  0  2  0  0  0  0  0  0  0  0  0
    9.1637  -13.4275   21.0163 C   0  0  0  0  0  0  0  0  0  0  0  0
    7.8066  -15.2815   20.1051 C   0  0  2  0  0  0  0  0  0  0  0  0
    6.4664  -15.5874   19.5249 N   0  0  0  0  0  0  0  0  0  0  0  0
    7.8773  -16.1282   21.3145 C   0  0  0  0  0  0  0  0  0  0  0  0
    6.9249  -16.1983   22.1613 O   0  0  0  0  0  0  0  0  0  0  0  0
   12.6138  -18.9969   23.3336 N   0  0  0  0  0  0  0  0  0  0  0  0
   12.8986  -20.3162   23.7811 C   0  0  0  0  0  0  0  0  0  0  0  0
   13.9936  -20.5716   24.4113 N   0  0  0  0  0  0  0  0  0  0  0  0
   12.0096  -21.4074   23.5655 N   0  0  0  0  0  0  0  0  0  0  0  0
   10.6240  -21.2159   23.2173 C   0  0  0  0  0  0  0  0  0  0  0  0
   10.1229  -19.8470   23.6123 C   0  0  0  0  0  0  0  0  0  0  0  0
    9.8335  -18.9908   22.3959 C   0  0  0  0  0  0  0  0  0  0  0  0
    9.1750  -17.6869   22.7934 C   0  0  2  0  0  0  0  0  0  0  0  0
    9.0151  -16.9036   21.5784 N   0  0  0  0  0  0  0  0  0  0  0  0
    9.9311  -16.9290   23.7739 C   0  0  0  0  0  0  0  0  0  0  0  0
   11.1099  -16.5599   23.4790 O   0  0  0  0  0  0  0  0  0  0  0  0
   14.1972  -21.5439   24.7346 N   0  0  0  0  0  0  0  0  0  0  0  0
    9.4357  -16.5661   25.0626 C   0  0  1  0  0  0  0  0  0  0  0  0
   10.3064  -15.8591   25.9906 C   0  0  0  0  0  0  0  0  0  0  0  0
   10.3050  -14.3825   25.7128 C   0  0  0  0  0  0  0  0  0  0  0  0
    8.9954  -13.7863   25.9470 C   0  0  0  0  0  0  0  0  0  0  0  0
    8.4568  -13.6233   27.2243 C   0  0  0  0  0  0  0  0  0  0  0  0
    7.2312  -13.0621   27.4330 C   0  0  0  0  0  0  0  0  0  0  0  0
    6.4592  -12.6250   26.3801 C   0  0  0  0  0  0  0  0  0  0  0  0
    6.9538  -12.7686   25.1155 C   0  0  0  0  0  0  0  0  0  0  0  0
    8.1936  -13.3359   24.8971 C   0  0  0  0  0  0  0  0  0  0  0  0
    9.9518  -16.1666   27.3838 O   0  0  0  0  0  0  0  0  0  0  0  0
   10.6627  -15.8062   28.5072 O   0  0  0  0  0  0  0  0  0  0  0  0
  2  1  1  0
  3  2  1  0
  3  4  1  6
  5  3  1  0
  5  6  1  1
  7  5  1  0
  8  7  2  0
  9 10  1  0
 10 12  1  0
 11 10  2  0
 12 13  1  0
 13 14  1  0
 14 15  1  0
 16 15  1  6
 16 18  1  0
 16 17  1  0
 17  7  1  0
 18 19  2  0
 20 21  1  0
 20 18  1  0
 21 22  1  1
 22 23  1  0
 23 28  2  0
 24 23  1  0
 24 25  2  0
 25 26  1  0
 26 27  2  0
 28 27  1  0
 29 30  1  0
 29 21  1  0
 31 29  2  0
M  END
$$$$
