IRF.pdb
     RDKit          3D

 31 31  0  0  1  0  0  0  0  0999 V2000
    7.2439  -11.5751   19.2320 C   0  0  0  0  0  0  0  0  0  0  0  0
    7.8229  -12.8502   18.6753 C   0  0  0  0  0  0  0  0  0  0  0  0
    8.0264  -13.8924   19.7467 C   0  0  2  0  0  0  0  0  0  0  0  0
    8.8823  -13.3152   20.8179 C   0  0  0  0  0  0  0  0  0  0  0  0
    8.6340  -15.1580   19.1895 C   0  0  2  0  0  0  0  0  0  0  0  0
    7.6421  -15.7782   18.2635 N   0  0  0  0  0  0  0  0  0  0  0  0
    8.8677  -16.1963   20.2151 C   0  0  0  0  0  0  0  0  0  0  0  0
    7.9181  -16.7372   20.8744 O   0  0  0  0  0  0  0  0  0  0  0  0
    9.8716  -22.2213   18.4794 N   0  0  0  0  0  0  0  0  0  0  0  0
   11.0666  -21.7068   17.9057 C   0  0  0  0  0  0  0  0  0  0  0  0
   11.8424  -22.4700   17.2150 N   0  0  0  0  0  0  0  0  0  0  0  0
   11.4658  -20.3483   18.0558 N   0  0  0  0  0  0  0  0  0  0  0  0
   10.7842  -19.4377   18.9413 C   0  0  0  0  0  0  0  0  0  0  0  0
   11.1198  -19.6968   20.3908 C   0  0  0  0  0  0  0  0  0  0  0  0
   11.6188  -18.4411   21.0770 C   0  0  0  0  0  0  0  0  0  0  0  0
   10.4636  -17.5904   21.5604 C   0  0  2  0  0  0  0  0  0  0  0  0
   10.1672  -16.6360   20.5037 N   0  0  0  0  0  0  0  0  0  0  0  0
   10.7391  -16.8860   22.7995 C   0  0  0  0  0  0  0  0  0  0  0  0
   11.5602  -15.9174   22.7780 O   0  0  0  0  0  0  0  0  0  0  0  0
   12.7635  -22.1116   16.8764 N   0  0  0  0  0  0  0  0  0  0  0  0
   10.1443  -17.2110   24.0558 C   0  0  2  0  0  0  0  0  0  0  0  0
   10.4953  -16.4341   25.2358 C   0  0  0  0  0  0  0  0  0  0  0  0
    9.2866  -16.1744   26.0898 C   0  0  0  0  0  0  0  0  0  0  0  0
    9.6105  -15.3672   27.2597 C   0  0  0  0  0  0  0  0  0  0  0  0
    9.3438  -13.9990   27.3309 C   0  0  0  0  0  0  0  0  0  0  0  0
    9.6488  -13.2527   28.4313 C   0  0  0  0  0  0  0  0  0  0  0  0
   10.2411  -13.8219   29.5362 C   0  0  0  0  0  0  0  0  0  0  0  0
   10.5172  -15.1587   29.5023 C   0  0  0  0  0  0  0  0  0  0  0  0
   10.2112  -15.9199   28.3917 C   0  0  0  0  0  0  0  0  0  0  0  0
   11.5827  -17.0786   25.9865 O   0  0  0  0  0  0  0  0  0  0  0  0
   11.6500  -18.4051   26.3515 O   0  0  0  0  0  0  0  0  0  0  0  0
  2  1  1  0
  3  2  1  0
  3  4  1  1
  5  3  1  0
  5  6  1  6
  7  5  1  0
  8  7  2  0
  9 10  1  0
 10 12  1  0
 11 10  2  0
 12 13  1  0
 13 14  1  0
 14 15  1  0
 16 15  1  6
 16 18  1  0
 16 17  1  0
 17  7  1  0
 18 19  2  0
 20 21  1  0
 20 18  1  0
 21 22  1  1
 22 23  1  0
 23 28  2  0
 24 23  1  0
 24 25  2  0
 25 26  1  0
 26 27  2  0
 28 27  1  0
 29 30  1  0
 29 21  1  0
 31 29  2  0
M  END
$$$$
