IRF.pdb
     RDKit          3D

 31 31  0  0  1  0  0  0  0  0999 V2000
    8.4446  -11.5314   19.1845 C   0  0  0  0  0  0  0  0  0  0  0  0
    7.7099  -12.7142   18.6082 C   0  0  0  0  0  0  0  0  0  0  0  0
    7.4131  -13.7588   19.6552 C   0  0  2  0  0  0  0  0  0  0  0  0
    6.3047  -13.2687   20.5179 C   0  0  0  0  0  0  0  0  0  0  0  0
    8.6353  -14.0907   20.4782 C   0  0  2  0  0  0  0  0  0  0  0  0
    9.6285  -14.7541   19.5841 N   0  0  0  0  0  0  0  0  0  0  0  0
    8.3761  -15.0917   21.5343 C   0  0  0  0  0  0  0  0  0  0  0  0
    7.4366  -14.9623   22.3884 O   0  0  0  0  0  0  0  0  0  0  0  0
    8.8981  -23.3515   21.9773 N   0  0  0  0  0  0  0  0  0  0  0  0
    9.4123  -23.1382   23.2858 C   0  0  0  0  0  0  0  0  0  0  0  0
    9.2294  -24.0157   24.2120 N   0  0  0  0  0  0  0  0  0  0  0  0
   10.1444  -21.9696   23.6405 N   0  0  0  0  0  0  0  0  0  0  0  0
   10.3200  -20.8643   22.7321 C   0  0  0  0  0  0  0  0  0  0  0  0
    9.5227  -19.6521   23.1516 C   0  0  0  0  0  0  0  0  0  0  0  0
    9.6919  -18.5107   22.1692 C   0  0  0  0  0  0  0  0  0  0  0  0
    8.9263  -17.2857   22.6224 C   0  0  2  0  0  0  0  0  0  0  0  0
    9.1670  -16.2449   21.6355 N   0  0  0  0  0  0  0  0  0  0  0  0
    9.3106  -16.8149   23.9408 C   0  0  0  0  0  0  0  0  0  0  0  0
   10.4441  -16.2597   24.0810 O   0  0  0  0  0  0  0  0  0  0  0  0
    9.5635  -23.8286   25.1839 N   0  0  0  0  0  0  0  0  0  0  0  0
    8.4929  -16.9349   25.1048 C   0  0  2  0  0  0  0  0  0  0  0  0
    9.0119  -16.4952   26.3918 C   0  0  0  0  0  0  0  0  0  0  0  0
    7.9307  -15.8629   27.2218 C   0  0  0  0  0  0  0  0  0  0  0  0
    7.6305  -14.5060   26.7815 C   0  0  0  0  0  0  0  0  0  0  0  0
    8.5460  -13.4576   26.8865 C   0  0  0  0  0  0  0  0  0  0  0  0
    8.2561  -12.1916   26.4694 C   0  0  0  0  0  0  0  0  0  0  0  0
    7.0318  -11.8857   25.9188 C   0  0  0  0  0  0  0  0  0  0  0  0
    6.1105  -12.8865   25.8005 C   0  0  0  0  0  0  0  0  0  0  0  0
    6.3974  -14.1702   26.2207 C   0  0  0  0  0  0  0  0  0  0  0  0
    9.6829  -17.5988   27.0940 O   0  0  0  0  0  0  0  0  0  0  0  0
   10.5445  -17.4844   28.1626 O   0  0  0  0  0  0  0  0  0  0  0  0
  2  1  1  0
  3  2  1  0
  3  4  1  1
  5  3  1  0
  5  6  1  6
  7  5  1  0
  8  7  2  0
  9 10  1  0
 10 12  1  0
 11 10  2  0
 12 13  1  0
 13 14  1  0
 14 15  1  0
 16 15  1  6
 16 18  1  0
 16 17  1  0
 17  7  1  0
 18 19  2  0
 20 21  1  0
 20 18  1  0
 21 22  1  6
 22 23  1  0
 23 28  2  0
 24 23  1  0
 24 25  2  0
 25 26  1  0
 26 27  2  0
 28 27  1  0
 29 30  1  0
 29 21  1  0
 31 29  2  0
M  END
$$$$
