IRF.pdb
     RDKit          3D

 31 31  0  0  1  0  0  0  0  0999 V2000
    7.3052  -11.4032   19.6853 C   0  0  0  0  0  0  0  0  0  0  0  0
    7.6499  -12.8392   19.3854 C   0  0  0  0  0  0  0  0  0  0  0  0
    7.6668  -13.6878   20.6324 C   0  0  2  0  0  0  0  0  0  0  0  0
    8.6247  -13.0920   21.6023 C   0  0  0  0  0  0  0  0  0  0  0  0
    8.0243  -15.1235   20.3287 C   0  0  2  0  0  0  0  0  0  0  0  0
    6.9349  -15.7038   19.4906 N   0  0  0  0  0  0  0  0  0  0  0  0
    8.0540  -15.9860   21.5287 C   0  0  0  0  0  0  0  0  0  0  0  0
    6.9965  -16.3260   22.1571 O   0  0  0  0  0  0  0  0  0  0  0  0
   10.3078  -22.6461   22.0701 N   0  0  0  0  0  0  0  0  0  0  0  0
   10.6821  -22.4239   23.4238 C   0  0  0  0  0  0  0  0  0  0  0  0
   11.8057  -22.8674   23.8735 N   0  0  0  0  0  0  0  0  0  0  0  0
    9.8565  -21.7128   24.3405 N   0  0  0  0  0  0  0  0  0  0  0  0
    9.3864  -20.3758   24.0776 C   0  0  0  0  0  0  0  0  0  0  0  0
   10.5147  -19.3721   24.0496 C   0  0  0  0  0  0  0  0  0  0  0  0
   10.3704  -18.4088   22.8886 C   0  0  0  0  0  0  0  0  0  0  0  0
    9.3575  -17.3282   23.2019 C   0  0  2  0  0  0  0  0  0  0  0  0
    9.2697  -16.4746   22.0276 N   0  0  0  0  0  0  0  0  0  0  0  0
    9.6984  -16.5321   24.3670 C   0  0  0  0  0  0  0  0  0  0  0  0
   10.7351  -15.8001   24.3205 O   0  0  0  0  0  0  0  0  0  0  0  0
   12.0651  -22.7172   24.8742 N   0  0  0  0  0  0  0  0  0  0  0  0
    8.9401  -16.5153   25.5764 C   0  0  2  0  0  0  0  0  0  0  0  0
    9.4835  -15.8509   26.7522 C   0  0  0  0  0  0  0  0  0  0  0  0
    8.4062  -15.1255   27.5078 C   0  0  0  0  0  0  0  0  0  0  0  0
    7.8857  -13.9896   26.7568 C   0  0  0  0  0  0  0  0  0  0  0  0
    8.5642  -12.7738   26.6588 C   0  0  0  0  0  0  0  0  0  0  0  0
    8.0696  -11.7174   25.9516 C   0  0  0  0  0  0  0  0  0  0  0  0
    6.8632  -11.8029   25.2936 C   0  0  0  0  0  0  0  0  0  0  0  0
    6.1709  -12.9775   25.3675 C   0  0  0  0  0  0  0  0  0  0  0  0
    6.6658  -14.0507   26.0817 C   0  0  0  0  0  0  0  0  0  0  0  0
   10.2197  -16.7997   27.6002 O   0  0  0  0  0  0  0  0  0  0  0  0
   11.0243  -16.4840   28.6727 O   0  0  0  0  0  0  0  0  0  0  0  0
  2  1  1  0
  3  2  1  0
  3  4  1  1
  5  3  1  0
  5  6  1  6
  7  5  1  0
  8  7  2  0
  9 10  1  0
 10 12  1  0
 11 10  2  0
 12 13  1  0
 13 14  1  0
 14 15  1  0
 16 15  1  6
 16 18  1  0
 16 17  1  0
 17  7  1  0
 18 19  2  0
 20 21  1  0
 20 18  1  0
 21 22  1  6
 22 23  1  0
 23 28  2  0
 24 23  1  0
 24 25  2  0
 25 26  1  0
 26 27  2  0
 28 27  1  0
 29 30  1  0
 29 21  1  0
 31 29  2  0
M  END
$$$$
