IRF.pdb
     RDKit          3D

 31 31  0  0  1  0  0  0  0  0999 V2000
    6.4852  -21.1008   27.6251 C   0  0  0  0  0  0  0  0  0  0  0  0
    6.1323  -20.7573   26.2009 C   0  0  0  0  0  0  0  0  0  0  0  0
    7.0020  -19.6523   25.6549 C   0  0  2  0  0  0  0  0  0  0  0  0
    6.8471  -18.4515   26.5193 C   0  0  0  0  0  0  0  0  0  0  0  0
    6.6663  -19.3331   24.2173 C   0  0  2  0  0  0  0  0  0  0  0  0
    6.8496  -20.5762   23.4128 N   0  0  0  0  0  0  0  0  0  0  0  0
    7.5960  -18.3641   23.6000 C   0  0  0  0  0  0  0  0  0  0  0  0
    8.7768  -18.6817   23.2341 O   0  0  0  0  0  0  0  0  0  0  0  0
    8.4601  -14.6826   16.9639 N   0  0  0  0  0  0  0  0  0  0  0  0
    8.2645  -13.8621   18.1086 C   0  0  0  0  0  0  0  0  0  0  0  0
    8.5030  -12.5965   18.0553 N   0  0  0  0  0  0  0  0  0  0  0  0
    7.8024  -14.3790   19.3523 N   0  0  0  0  0  0  0  0  0  0  0  0
    7.4965  -15.7749   19.5412 C   0  0  0  0  0  0  0  0  0  0  0  0
    6.9361  -16.0527   20.9159 C   0  0  0  0  0  0  0  0  0  0  0  0
    7.5645  -15.1544   21.9622 C   0  0  0  0  0  0  0  0  0  0  0  0
    8.1503  -15.9684   23.0962 C   0  0  2  0  0  0  0  0  0  0  0  0
    7.2049  -17.0348   23.3866 N   0  0  0  0  0  0  0  0  0  0  0  0
    8.4049  -15.1933   24.2971 C   0  0  0  0  0  0  0  0  0  0  0  0
    7.4157  -14.7036   24.9251 O   0  0  0  0  0  0  0  0  0  0  0  0
    8.4047  -12.0085   18.9132 N   0  0  0  0  0  0  0  0  0  0  0  0
    9.7060  -14.9398   24.8268 C   0  0  1  0  0  0  0  0  0  0  0  0
    9.8917  -14.8796   26.2695 C   0  0  0  0  0  0  0  0  0  0  0  0
    8.5726  -14.9437   26.9861 C   0  0  0  0  0  0  0  0  0  0  0  0
    7.8337  -13.6917   26.8781 C   0  0  0  0  0  0  0  0  0  0  0  0
    6.4473  -13.6177   27.0222 C   0  0  0  0  0  0  0  0  0  0  0  0
    5.7653  -12.4406   26.9216 C   0  0  0  0  0  0  0  0  0  0  0  0
    6.4212  -11.2565   26.6701 C   0  0  0  0  0  0  0  0  0  0  0  0
    7.7782  -11.2904   26.5229 C   0  0  0  0  0  0  0  0  0  0  0  0
    8.4748  -12.4784   26.6235 C   0  0  0  0  0  0  0  0  0  0  0  0
   10.8263  -15.9194   26.7240 O   0  0  0  0  0  0  0  0  0  0  0  0
   11.4222  -15.9982   27.9634 O   0  0  0  0  0  0  0  0  0  0  0  0
  2  1  1  0
  3  2  1  0
  3  4  1  1
  5  3  1  0
  5  6  1  6
  7  5  1  0
  8  7  2  0
  9 10  1  0
 10 12  1  0
 11 10  2  0
 12 13  1  0
 13 14  1  0
 14 15  1  0
 16 15  1  6
 16 18  1  0
 16 17  1  0
 17  7  1  0
 18 19  2  0
 20 21  1  0
 20 18  1  0
 21 22  1  1
 22 23  1  0
 23 28  2  0
 24 23  1  0
 24 25  2  0
 25 26  1  0
 26 27  2  0
 28 27  1  0
 29 30  1  0
 29 21  1  0
 31 29  2  0
M  END
$$$$
