IRF.pdb
     RDKit          3D

 31 31  0  0  1  0  0  0  0  0999 V2000
    6.2341  -21.5620   26.8478 C   0  0  0  0  0  0  0  0  0  0  0  0
    5.9399  -21.1687   25.4231 C   0  0  0  0  0  0  0  0  0  0  0  0
    6.8459  -20.0617   24.9446 C   0  0  2  0  0  0  0  0  0  0  0  0
    6.7831  -18.9388   25.9185 C   0  0  0  0  0  0  0  0  0  0  0  0
    6.4776  -19.5967   23.5556 C   0  0  2  0  0  0  0  0  0  0  0  0
    6.6816  -20.7382   22.6167 N   0  0  0  0  0  0  0  0  0  0  0  0
    7.3700  -18.5391   23.0363 C   0  0  0  0  0  0  0  0  0  0  0  0
    8.5996  -18.7487   22.7658 O   0  0  0  0  0  0  0  0  0  0  0  0
    7.4816  -15.3762   18.2983 N   0  0  0  0  0  0  0  0  0  0  0  0
    8.1266  -14.1240   18.1034 C   0  0  0  0  0  0  0  0  0  0  0  0
    8.9052  -13.9391   17.0930 N   0  0  0  0  0  0  0  0  0  0  0  0
    7.9523  -13.0254   18.9924 N   0  0  0  0  0  0  0  0  0  0  0  0
    7.1744  -13.1279   20.2015 C   0  0  0  0  0  0  0  0  0  0  0  0
    7.8557  -13.9815   21.2447 C   0  0  0  0  0  0  0  0  0  0  0  0
    7.0048  -15.1766   21.6246 C   0  0  0  0  0  0  0  0  0  0  0  0
    7.7577  -16.1070   22.5516 C   0  0  2  0  0  0  0  0  0  0  0  0
    6.8868  -17.2419   22.8139 N   0  0  0  0  0  0  0  0  0  0  0  0
    8.1515  -15.4866   23.8036 C   0  0  0  0  0  0  0  0  0  0  0  0
    7.7260  -14.3186   24.0631 O   0  0  0  0  0  0  0  0  0  0  0  0
    9.3767  -13.0168   16.9571 N   0  0  0  0  0  0  0  0  0  0  0  0
    8.9948  -16.1059   24.7748 C   0  0  1  0  0  0  0  0  0  0  0  0
    9.8238  -15.2751   25.6360 C   0  0  0  0  0  0  0  0  0  0  0  0
    9.1288  -14.9840   26.9359 C   0  0  0  0  0  0  0  0  0  0  0  0
    8.1338  -13.9277   26.7960 C   0  0  0  0  0  0  0  0  0  0  0  0
    8.4642  -12.5717   26.8118 C   0  0  0  0  0  0  0  0  0  0  0  0
    7.5258  -11.5907   26.6777 C   0  0  0  0  0  0  0  0  0  0  0  0
    6.1929  -11.8969   26.5187 C   0  0  0  0  0  0  0  0  0  0  0  0
    5.8323  -13.2136   26.4988 C   0  0  0  0  0  0  0  0  0  0  0  0
    6.7770  -14.2116   26.6340 C   0  0  0  0  0  0  0  0  0  0  0  0
   11.1493  -15.8797   25.8335 O   0  0  0  0  0  0  0  0  0  0  0  0
   12.2148  -15.3149   26.4992 O   0  0  0  0  0  0  0  0  0  0  0  0
  2  1  1  0
  3  2  1  0
  3  4  1  1
  5  3  1  0
  5  6  1  6
  7  5  1  0
  8  7  2  0
  9 10  1  0
 10 12  1  0
 11 10  2  0
 12 13  1  0
 13 14  1  0
 14 15  1  0
 16 15  1  6
 16 18  1  0
 16 17  1  0
 17  7  1  0
 18 19  2  0
 20 21  1  0
 20 18  1  0
 21 22  1  1
 22 23  1  0
 23 28  2  0
 24 23  1  0
 24 25  2  0
 25 26  1  0
 26 27  2  0
 28 27  1  0
 29 30  1  0
 29 21  1  0
 31 29  2  0
M  END
$$$$
