IRF.pdb
     RDKit          3D

 31 31  0  0  1  0  0  0  0  0999 V2000
    7.6405  -11.5971   19.2998 C   0  0  0  0  0  0  0  0  0  0  0  0
    8.0948  -13.0262   19.1506 C   0  0  0  0  0  0  0  0  0  0  0  0
    7.9204  -13.8099   20.4276 C   0  0  2  0  0  0  0  0  0  0  0  0
    8.6774  -13.1294   21.5126 C   0  0  0  0  0  0  0  0  0  0  0  0
    8.3678  -15.2439   20.2708 C   0  0  2  0  0  0  0  0  0  0  0  0
    7.5343  -15.8744   19.2060 N   0  0  0  0  0  0  0  0  0  0  0  0
    8.1101  -16.0721   21.4676 C   0  0  0  0  0  0  0  0  0  0  0  0
    6.9339  -16.4118   21.8282 O   0  0  0  0  0  0  0  0  0  0  0  0
   11.7618  -18.7641   19.4554 N   0  0  0  0  0  0  0  0  0  0  0  0
   12.8939  -19.2370   20.1741 C   0  0  0  0  0  0  0  0  0  0  0  0
   14.0692  -19.1933   19.6465 N   0  0  0  0  0  0  0  0  0  0  0  0
   12.7976  -19.7727   21.4899 N   0  0  0  0  0  0  0  0  0  0  0  0
   11.5397  -19.8924   22.1834 C   0  0  0  0  0  0  0  0  0  0  0  0
   10.8836  -18.5503   22.4059 C   0  0  0  0  0  0  0  0  0  0  0  0
    9.5902  -18.6882   23.1834 C   0  0  0  0  0  0  0  0  0  0  0  0
    8.9745  -17.3327   23.4586 C   0  0  2  0  0  0  0  0  0  0  0  0
    9.1706  -16.5265   22.2641 N   0  0  0  0  0  0  0  0  0  0  0  0
    9.5460  -16.6576   24.6097 C   0  0  0  0  0  0  0  0  0  0  0  0
   10.6533  -16.0515   24.4706 O   0  0  0  0  0  0  0  0  0  0  0  0
   14.8884  -19.5897   20.1594 N   0  0  0  0  0  0  0  0  0  0  0  0
    8.9425  -16.6280   25.9030 C   0  0  1  0  0  0  0  0  0  0  0  0
    9.6166  -15.9345   26.9912 C   0  0  0  0  0  0  0  0  0  0  0  0
    8.6325  -15.1875   27.8462 C   0  0  0  0  0  0  0  0  0  0  0  0
    7.9173  -14.1682   27.0881 C   0  0  0  0  0  0  0  0  0  0  0  0
    8.4228  -12.8829   26.8864 C   0  0  0  0  0  0  0  0  0  0  0  0
    7.7466  -11.9367   26.1735 C   0  0  0  0  0  0  0  0  0  0  0  0
    6.5190  -12.2093   25.6130 C   0  0  0  0  0  0  0  0  0  0  0  0
    5.9927  -13.4568   25.7899 C   0  0  0  0  0  0  0  0  0  0  0  0
    6.6718  -14.4192   26.5105 C   0  0  0  0  0  0  0  0  0  0  0  0
   10.4460  -16.8626   27.7735 O   0  0  0  0  0  0  0  0  0  0  0  0
   11.3694  -16.5208   28.7367 O   0  0  0  0  0  0  0  0  0  0  0  0
  2  1  1  0
  3  2  1  0
  3  4  1  1
  5  3  1  0
  5  6  1  6
  7  5  1  0
  8  7  2  0
  9 10  1  0
 10 12  1  0
 11 10  2  0
 12 13  1  0
 13 14  1  0
 14 15  1  0
 16 15  1  6
 16 18  1  0
 16 17  1  0
 17  7  1  0
 18 19  2  0
 20 21  1  0
 20 18  1  0
 21 22  1  1
 22 23  1  0
 23 28  2  0
 24 23  1  0
 24 25  2  0
 25 26  1  0
 26 27  2  0
 28 27  1  0
 29 30  1  0
 29 21  1  0
 31 29  2  0
M  END
$$$$
