IRF.pdb
     RDKit          3D

 31 31  0  0  1  0  0  0  0  0999 V2000
    8.6817  -12.0444   18.5561 C   0  0  0  0  0  0  0  0  0  0  0  0
    7.3966  -12.7704   18.8602 C   0  0  0  0  0  0  0  0  0  0  0  0
    7.5079  -13.6184   20.1027 C   0  0  2  0  0  0  0  0  0  0  0  0
    8.2082  -12.8338   21.1550 C   0  0  0  0  0  0  0  0  0  0  0  0
    8.2231  -14.9206   19.8305 C   0  0  2  0  0  0  0  0  0  0  0  0
    7.4937  -15.6290   18.7385 N   0  0  0  0  0  0  0  0  0  0  0  0
    8.1747  -15.8641   20.9671 C   0  0  0  0  0  0  0  0  0  0  0  0
    7.0775  -16.2936   21.4578 O   0  0  0  0  0  0  0  0  0  0  0  0
   10.9644  -20.9990   21.0548 N   0  0  0  0  0  0  0  0  0  0  0  0
   10.4610  -22.0357   21.8878 C   0  0  0  0  0  0  0  0  0  0  0  0
   10.9251  -23.2345   21.7937 N   0  0  0  0  0  0  0  0  0  0  0  0
    9.4389  -21.8142   22.8541 N   0  0  0  0  0  0  0  0  0  0  0  0
    8.9859  -20.4924   23.2082 C   0  0  0  0  0  0  0  0  0  0  0  0
   10.1324  -19.5216   23.3637 C   0  0  0  0  0  0  0  0  0  0  0  0
   10.1276  -18.4781   22.2648 C   0  0  0  0  0  0  0  0  0  0  0  0
    9.3680  -17.2408   22.6937 C   0  0  2  0  0  0  0  0  0  0  0  0
    9.3567  -16.3337   21.5569 N   0  0  0  0  0  0  0  0  0  0  0  0
    9.9432  -16.5772   23.8496 C   0  0  0  0  0  0  0  0  0  0  0  0
   11.1650  -16.7871   24.1251 O   0  0  0  0  0  0  0  0  0  0  0  0
   10.6160  -23.9701   22.4680 N   0  0  0  0  0  0  0  0  0  0  0  0
    9.2216  -15.6949   24.7090 C   0  0  2  0  0  0  0  0  0  0  0  0
    9.3328  -15.8521   26.1520 C   0  0  0  0  0  0  0  0  0  0  0  0
    8.0063  -15.6315   26.8223 C   0  0  0  0  0  0  0  0  0  0  0  0
    7.5006  -14.2829   26.5967 C   0  0  0  0  0  0  0  0  0  0  0  0
    6.1488  -14.0088   26.3830 C   0  0  0  0  0  0  0  0  0  0  0  0
    5.6852  -12.7429   26.1751 C   0  0  0  0  0  0  0  0  0  0  0  0
    6.5401  -11.6637   26.1663 C   0  0  0  0  0  0  0  0  0  0  0  0
    7.8702  -11.8938   26.3717 C   0  0  0  0  0  0  0  0  0  0  0  0
    8.3462  -13.1727   26.5827 C   0  0  0  0  0  0  0  0  0  0  0  0
    9.9238  -17.1536   26.4960 O   0  0  0  0  0  0  0  0  0  0  0  0
   10.8210  -17.4015   27.5114 O   0  0  0  0  0  0  0  0  0  0  0  0
  2  1  1  0
  3  2  1  0
  3  4  1  1
  5  3  1  0
  5  6  1  6
  7  5  1  0
  8  7  2  0
  9 10  1  0
 10 12  1  0
 11 10  2  0
 12 13  1  0
 13 14  1  0
 14 15  1  0
 16 15  1  6
 16 18  1  0
 16 17  1  0
 17  7  1  0
 18 19  2  0
 20 21  1  0
 20 18  1  0
 21 22  1  6
 22 23  1  0
 23 28  2  0
 24 23  1  0
 24 25  2  0
 25 26  1  0
 26 27  2  0
 28 27  1  0
 29 30  1  0
 29 21  1  0
 31 29  2  0
M  END
$$$$
