IRF.pdb
     RDKit          3D

 31 31  0  0  1  0  0  0  0  0999 V2000
    7.9611  -12.0651   26.6472 C   0  0  0  0  0  0  0  0  0  0  0  0
    7.3978  -13.4127   26.2763 C   0  0  0  0  0  0  0  0  0  0  0  0
    7.1370  -13.5271   24.7950 C   0  0  2  0  0  0  0  0  0  0  0  0
    6.1253  -12.5071   24.4083 C   0  0  0  0  0  0  0  0  0  0  0  0
    6.6821  -14.9153   24.4114 C   0  0  2  0  0  0  0  0  0  0  0  0
    5.6218  -15.3365   25.3729 N   0  0  0  0  0  0  0  0  0  0  0  0
    7.7358  -15.9402   24.5653 C   0  0  0  0  0  0  0  0  0  0  0  0
    7.8198  -16.6906   25.5943 O   0  0  0  0  0  0  0  0  0  0  0  0
    6.5722  -18.7112   19.6275 N   0  0  0  0  0  0  0  0  0  0  0  0
    6.9783  -17.6166   18.8157 C   0  0  0  0  0  0  0  0  0  0  0  0
    6.1703  -17.1094   17.9489 N   0  0  0  0  0  0  0  0  0  0  0  0
    8.2717  -17.0290   18.9123 N   0  0  0  0  0  0  0  0  0  0  0  0
    9.2696  -17.5089   19.8351 C   0  0  0  0  0  0  0  0  0  0  0  0
    8.9237  -17.1795   21.2679 C   0  0  0  0  0  0  0  0  0  0  0  0
   10.0470  -17.5612   22.2108 C   0  0  0  0  0  0  0  0  0  0  0  0
    9.7194  -17.1648   23.6348 C   0  0  2  0  0  0  0  0  0  0  0  0
    8.6984  -16.1315   23.5641 N   0  0  0  0  0  0  0  0  0  0  0  0
   10.8654  -16.6769   24.3806 C   0  0  0  0  0  0  0  0  0  0  0  0
   11.4946  -15.6675   23.9359 O   0  0  0  0  0  0  0  0  0  0  0  0
    6.4786  -16.3107   17.3502 N   0  0  0  0  0  0  0  0  0  0  0  0
   11.3401  -17.2608   25.5937 C   0  0  1  0  0  0  0  0  0  0  0  0
   12.6892  -16.9615   26.0514 C   0  0  0  0  0  0  0  0  0  0  0  0
   12.8133  -15.5206   26.4588 C   0  0  0  0  0  0  0  0  0  0  0  0
   11.8410  -15.1594   27.4832 C   0  0  0  0  0  0  0  0  0  0  0  0
   10.8187  -14.2352   27.2622 C   0  0  0  0  0  0  0  0  0  0  0  0
    9.9123  -13.9056   28.2269 C   0  0  0  0  0  0  0  0  0  0  0  0
    9.9648  -14.4765   29.4786 C   0  0  0  0  0  0  0  0  0  0  0  0
   10.9522  -15.3851   29.7313 C   0  0  0  0  0  0  0  0  0  0  0  0
   11.8729  -15.7233   28.7594 C   0  0  0  0  0  0  0  0  0  0  0  0
   13.0988  -17.8827   27.1216 O   0  0  0  0  0  0  0  0  0  0  0  0
   14.3464  -17.9611   27.7000 O   0  0  0  0  0  0  0  0  0  0  0  0
  2  1  1  0
  3  2  1  0
  3  4  1  1
  5  3  1  0
  5  6  1  1
  7  5  1  0
  8  7  2  0
  9 10  1  0
 10 12  1  0
 11 10  2  0
 12 13  1  0
 13 14  1  0
 14 15  1  0
 16 15  1  6
 16 18  1  0
 16 17  1  0
 17  7  1  0
 18 19  2  0
 20 21  1  0
 20 18  1  0
 21 22  1  6
 22 23  1  0
 23 28  2  0
 24 23  1  0
 24 25  2  0
 25 26  1  0
 26 27  2  0
 28 27  1  0
 29 30  1  0
 29 21  1  0
 31 29  2  0
M  END
$$$$
