IRF.pdb
     RDKit          3D

 31 31  0  0  1  0  0  0  0  0999 V2000
    6.8270  -11.8829   21.3009 C   0  0  0  0  0  0  0  0  0  0  0  0
    6.6588  -13.3780   21.2153 C   0  0  0  0  0  0  0  0  0  0  0  0
    7.7969  -14.0323   20.4724 C   0  0  2  0  0  0  0  0  0  0  0  0
    7.8460  -13.4801   19.0918 C   0  0  0  0  0  0  0  0  0  0  0  0
    7.6611  -15.5364   20.4507 C   0  0  2  0  0  0  0  0  0  0  0  0
    6.3286  -15.8719   19.8693 N   0  0  0  0  0  0  0  0  0  0  0  0
    7.6285  -16.1410   21.7990 C   0  0  0  0  0  0  0  0  0  0  0  0
    6.5450  -16.3014   22.4544 O   0  0  0  0  0  0  0  0  0  0  0  0
   14.0953  -17.8103   22.9067 N   0  0  0  0  0  0  0  0  0  0  0  0
   13.8368  -18.5172   21.7003 C   0  0  0  0  0  0  0  0  0  0  0  0
   14.6145  -18.3796   20.6816 N   0  0  0  0  0  0  0  0  0  0  0  0
   12.7295  -19.3999   21.5513 N   0  0  0  0  0  0  0  0  0  0  0  0
   11.7367  -19.5723   22.5820 C   0  0  0  0  0  0  0  0  0  0  0  0
   10.9654  -18.3009   22.8462 C   0  0  0  0  0  0  0  0  0  0  0  0
    9.5918  -18.5944   23.4149 C   0  0  0  0  0  0  0  0  0  0  0  0
    8.8239  -17.3145   23.6683 C   0  0  2  0  0  0  0  0  0  0  0  0
    8.8103  -16.5723   22.4176 N   0  0  0  0  0  0  0  0  0  0  0  0
    9.3921  -16.4948   24.7232 C   0  0  0  0  0  0  0  0  0  0  0  0
   10.3506  -15.7131   24.4355 O   0  0  0  0  0  0  0  0  0  0  0  0
   14.4009  -18.8780   19.7887 N   0  0  0  0  0  0  0  0  0  0  0  0
    8.9429  -16.5074   26.0782 C   0  0  1  0  0  0  0  0  0  0  0  0
    9.7453  -15.8565   27.1037 C   0  0  0  0  0  0  0  0  0  0  0  0
    8.9125  -14.9083   27.9191 C   0  0  0  0  0  0  0  0  0  0  0  0
    8.4001  -13.8054   27.1152 C   0  0  0  0  0  0  0  0  0  0  0  0
    9.1338  -12.6432   26.8718 C   0  0  0  0  0  0  0  0  0  0  0  0
    8.6461  -11.6175   26.1162 C   0  0  0  0  0  0  0  0  0  0  0  0
    7.3920  -11.6822   25.5518 C   0  0  0  0  0  0  0  0  0  0  0  0
    6.6450  -12.8044   25.7688 C   0  0  0  0  0  0  0  0  0  0  0  0
    7.1325  -13.8463   26.5327 C   0  0  0  0  0  0  0  0  0  0  0  0
   10.4408  -16.8484   27.9367 O   0  0  0  0  0  0  0  0  0  0  0  0
   10.3486  -18.2183   27.8257 O   0  0  0  0  0  0  0  0  0  0  0  0
  2  1  1  0
  3  2  1  0
  3  4  1  6
  5  3  1  0
  5  6  1  1
  7  5  1  0
  8  7  2  0
  9 10  1  0
 10 12  1  0
 11 10  2  0
 12 13  1  0
 13 14  1  0
 14 15  1  0
 16 15  1  6
 16 18  1  0
 16 17  1  0
 17  7  1  0
 18 19  2  0
 20 21  1  0
 20 18  1  0
 21 22  1  1
 22 23  1  0
 23 28  2  0
 24 23  1  0
 24 25  2  0
 25 26  1  0
 26 27  2  0
 28 27  1  0
 29 30  1  0
 29 21  1  0
 31 29  2  0
M  END
$$$$
