IRF.pdb
     RDKit          3D

 31 31  0  0  1  0  0  0  0  0999 V2000
    6.5616  -11.3621   28.3796 C   0  0  0  0  0  0  0  0  0  0  0  0
    5.8697  -12.4111   27.5478 C   0  0  0  0  0  0  0  0  0  0  0  0
    6.8265  -13.1165   26.6191 C   0  0  2  0  0  0  0  0  0  0  0  0
    7.5620  -12.0952   25.8257 C   0  0  0  0  0  0  0  0  0  0  0  0
    6.1128  -14.0945   25.7162 C   0  0  2  0  0  0  0  0  0  0  0  0
    5.6265  -15.2283   26.5553 N   0  0  0  0  0  0  0  0  0  0  0  0
    7.0039  -14.7353   24.7263 C   0  0  0  0  0  0  0  0  0  0  0  0
    7.4943  -15.9013   24.8962 O   0  0  0  0  0  0  0  0  0  0  0  0
   10.0674  -15.8129   17.7807 N   0  0  0  0  0  0  0  0  0  0  0  0
    8.8900  -15.1448   17.3458 C   0  0  0  0  0  0  0  0  0  0  0  0
    8.1873  -15.6213   16.3759 N   0  0  0  0  0  0  0  0  0  0  0  0
    8.4279  -13.9382   17.9442 N   0  0  0  0  0  0  0  0  0  0  0  0
    9.1135  -13.3128   19.0473 C   0  0  0  0  0  0  0  0  0  0  0  0
    9.1622  -14.2048   20.2651 C   0  0  0  0  0  0  0  0  0  0  0  0
    8.2200  -13.7170   21.3471 C   0  0  0  0  0  0  0  0  0  0  0  0
    8.2407  -14.6438   22.5440 C   0  0  2  0  0  0  0  0  0  0  0  0
    7.3466  -14.0731   23.5390 N   0  0  0  0  0  0  0  0  0  0  0  0
    9.5629  -14.8266   23.1148 C   0  0  0  0  0  0  0  0  0  0  0  0
   10.2572  -13.7972   23.3813 O   0  0  0  0  0  0  0  0  0  0  0  0
    7.3309  -15.1178   16.0530 N   0  0  0  0  0  0  0  0  0  0  0  0
   10.1441  -16.0988   23.4001 C   0  0  1  0  0  0  0  0  0  0  0  0
   11.4324  -16.1615   24.0752 C   0  0  0  0  0  0  0  0  0  0  0  0
   11.3179  -16.8799   25.3899 C   0  0  0  0  0  0  0  0  0  0  0  0
   10.4987  -16.1418   26.3435 C   0  0  0  0  0  0  0  0  0  0  0  0
    9.2004  -16.5269   26.6814 C   0  0  0  0  0  0  0  0  0  0  0  0
    8.4427  -15.8305   27.5767 C   0  0  0  0  0  0  0  0  0  0  0  0
    8.9298  -14.7016   28.1962 C   0  0  0  0  0  0  0  0  0  0  0  0
   10.1965  -14.2944   27.8898 C   0  0  0  0  0  0  0  0  0  0  0  0
   10.9689  -14.9946   26.9844 C   0  0  0  0  0  0  0  0  0  0  0  0
   12.4564  -16.7529   23.2018 O   0  0  0  0  0  0  0  0  0  0  0  0
   13.8068  -16.8318   23.4620 O   0  0  0  0  0  0  0  0  0  0  0  0
  2  1  1  0
  3  2  1  0
  3  4  1  6
  5  3  1  0
  5  6  1  1
  7  5  1  0
  8  7  2  0
  9 10  1  0
 10 12  1  0
 11 10  2  0
 12 13  1  0
 13 14  1  0
 14 15  1  0
 16 15  1  6
 16 18  1  0
 16 17  1  0
 17  7  1  0
 18 19  2  0
 20 21  1  0
 20 18  1  0
 21 22  1  6
 22 23  1  0
 23 28  2  0
 24 23  1  0
 24 25  2  0
 25 26  1  0
 26 27  2  0
 28 27  1  0
 29 30  1  0
 29 21  1  0
 31 29  2  0
M  END
$$$$
