IRF.pdb
     RDKit          3D

 31 31  0  0  1  0  0  0  0  0999 V2000
    7.3867  -22.4521   22.3446 C   0  0  0  0  0  0  0  0  0  0  0  0
    7.1006  -21.2822   21.4387 C   0  0  0  0  0  0  0  0  0  0  0  0
    7.7579  -20.0157   21.9281 C   0  0  2  0  0  0  0  0  0  0  0  0
    7.2371  -19.7014   23.2857 C   0  0  0  0  0  0  0  0  0  0  0  0
    7.5299  -18.8631   20.9791 C   0  0  2  0  0  0  0  0  0  0  0  0
    8.0081  -19.2757   19.6273 N   0  0  0  0  0  0  0  0  0  0  0  0
    8.3422  -17.6707   21.3001 C   0  0  0  0  0  0  0  0  0  0  0  0
    9.6169  -17.6695   21.2350 O   0  0  0  0  0  0  0  0  0  0  0  0
    9.4368  -14.5198   16.0958 N   0  0  0  0  0  0  0  0  0  0  0  0
    8.5498  -13.9921   17.0739 C   0  0  0  0  0  0  0  0  0  0  0  0
    7.2796  -13.9606   16.8565 N   0  0  0  0  0  0  0  0  0  0  0  0
    9.0027  -13.4810   18.3234 N   0  0  0  0  0  0  0  0  0  0  0  0
    8.0959  -12.9828   19.3270 C   0  0  0  0  0  0  0  0  0  0  0  0
    7.3248  -14.0947   19.9980 C   0  0  0  0  0  0  0  0  0  0  0  0
    7.5526  -14.1009   21.4963 C   0  0  0  0  0  0  0  0  0  0  0  0
    8.4670  -15.2371   21.9021 C   0  0  2  0  0  0  0  0  0  0  0  0
    7.7289  -16.4726   21.6922 N   0  0  0  0  0  0  0  0  0  0  0  0
    8.9160  -15.1579   23.2804 C   0  0  0  0  0  0  0  0  0  0  0  0
    9.8853  -14.3866   23.5602 O   0  0  0  0  0  0  0  0  0  0  0  0
    6.6229  -13.7016   17.6266 N   0  0  0  0  0  0  0  0  0  0  0  0
    8.3369  -15.8966   24.3559 C   0  0  1  0  0  0  0  0  0  0  0  0
    8.9147  -15.7924   25.6880 C   0  0  0  0  0  0  0  0  0  0  0  0
    7.8751  -15.3946   26.6972 C   0  0  0  0  0  0  0  0  0  0  0  0
    7.5606  -13.9731   26.6228 C   0  0  0  0  0  0  0  0  0  0  0  0
    8.5303  -12.9771   26.7492 C   0  0  0  0  0  0  0  0  0  0  0  0
    8.2260  -11.6494   26.6757 C   0  0  0  0  0  0  0  0  0  0  0  0
    6.9323  -11.2253   26.4710 C   0  0  0  0  0  0  0  0  0  0  0  0
    5.9567  -12.1719   26.3430 C   0  0  0  0  0  0  0  0  0  0  0  0
    6.2577  -13.5175   26.4164 C   0  0  0  0  0  0  0  0  0  0  0  0
    9.6090  -17.0339   26.0596 O   0  0  0  0  0  0  0  0  0  0  0  0
   10.3131  -17.2607   27.2215 O   0  0  0  0  0  0  0  0  0  0  0  0
  2  1  1  0
  3  2  1  0
  3  4  1  1
  5  3  1  0
  5  6  1  6
  7  5  1  0
  8  7  2  0
  9 10  1  0
 10 12  1  0
 11 10  2  0
 12 13  1  0
 13 14  1  0
 14 15  1  0
 16 15  1  1
 16 18  1  0
 16 17  1  0
 17  7  1  0
 18 19  2  0
 20 21  1  0
 20 18  1  0
 21 22  1  1
 22 23  1  0
 23 28  2  0
 24 23  1  0
 24 25  2  0
 25 26  1  0
 26 27  2  0
 28 27  1  0
 29 30  1  0
 29 21  1  0
 31 29  2  0
M  END
$$$$
