HAI.pdb
     RDKit          3D

 24 24  0  0  1  0  0  0  0  0999 V2000
   21.6105  -12.9315  -17.4240 N   0  0  0  0  0  0  0  0  0  0  0  0
   22.1746  -12.1381  -16.3727 C   0  0  1  0  0  0  0  0  0  0  0  0
   23.6755  -12.1187  -16.3542 C   0  0  0  0  0  0  0  0  0  0  0  0
   24.2505  -13.4562  -16.0939 C   0  0  0  0  0  0  0  0  0  0  0  0
   23.9032  -14.6569  -16.6737 C   0  0  0  0  0  0  0  0  0  0  0  0
   24.7053  -15.5771  -16.1112 N   0  0  0  0  0  0  0  0  0  0  0  0
   25.5235  -14.9984  -15.2183 C   0  0  0  0  0  0  0  0  0  0  0  0
   25.2373  -13.6991  -15.2149 N   0  0  0  0  0  0  0  0  0  0  0  0
   21.6050  -10.7588  -16.3407 C   0  0  0  0  0  0  0  0  0  0  0  0
   21.9229   -9.8861  -17.1875 O   0  0  0  0  0  0  0  0  0  0  0  0
   18.7959   -9.0936  -14.5360 C   0  0  0  0  0  0  0  0  0  0  0  0
   20.0913   -9.0158  -15.3250 C   0  0  2  0  0  0  0  0  0  0  0  0
   20.6605  -10.3510  -15.3392 N   0  0  0  0  0  0  0  0  0  0  0  0
   21.0013   -8.0323  -14.7206 C   0  0  0  0  0  0  0  0  0  0  0  0
   21.7484   -8.3790  -13.7768 O   0  0  0  0  0  0  0  0  0  0  0  0
   23.2220   -4.6170  -18.2243 C   0  0  0  0  0  0  0  0  0  0  0  0
   23.0282   -5.5241  -17.0341 C   0  0  0  0  0  0  0  0  0  0  0  0
   22.4483   -4.8141  -15.8566 C   0  0  2  0  0  0  0  0  0  0  0  0
   23.4273   -3.7613  -15.3860 C   0  0  0  0  0  0  0  0  0  0  0  0
   22.0388   -5.7364  -14.7318 C   0  0  2  0  0  0  0  0  0  0  0  0
   21.0383   -6.6998  -15.1974 N   0  0  0  0  0  0  0  0  0  0  0  0
   21.5097   -4.9680  -13.6030 C   0  0  0  0  0  0  0  0  0  0  0  0
   20.3029   -4.6953  -13.4362 O   0  0  0  0  0  0  0  0  0  0  0  0
   22.3900   -4.4964  -12.6339 O   0  0  0  0  0  0  0  0  0  0  0  0
  2  1  1  6
  3  2  1  0
  4  3  1  0
  4  5  2  0
  6  5  1  0
  7  8  2  0
  7  6  1  0
  8  4  1  0
  9  2  1  0
 10  9  2  0
 12 11  1  1
 12 13  1  0
 12 14  1  0
 13  9  1  0
 14 21  1  0
 15 14  2  0
 17 16  1  0
 18 17  1  0
 18 19  1  1
 20 18  1  0
 20 22  1  0
 20 21  1  6
 22 23  2  0
 22 24  1  0
M  END
$$$$
