HAI.pdb
     RDKit          3D

 24 24  0  0  1  0  0  0  0  0999 V2000
   29.3803  -25.3591  -16.3474 N   0  0  0  0  0  0  0  0  0  0  0  0
   28.3245  -24.7890  -17.1306 C   0  0  1  0  0  0  0  0  0  0  0  0
   27.3575  -25.7947  -17.6845 C   0  0  0  0  0  0  0  0  0  0  0  0
   28.0197  -26.7876  -18.5578 C   0  0  0  0  0  0  0  0  0  0  0  0
   28.4716  -26.6156  -19.8480 C   0  0  0  0  0  0  0  0  0  0  0  0
   28.9941  -27.7997  -20.2105 N   0  0  0  0  0  0  0  0  0  0  0  0
   28.8838  -28.6842  -19.2071 C   0  0  0  0  0  0  0  0  0  0  0  0
   28.2856  -28.0549  -18.1990 N   0  0  0  0  0  0  0  0  0  0  0  0
   27.6215  -23.6866  -16.4105 C   0  0  0  0  0  0  0  0  0  0  0  0
   27.0054  -23.8807  -15.3323 O   0  0  0  0  0  0  0  0  0  0  0  0
   27.3258  -19.9699  -16.8672 C   0  0  0  0  0  0  0  0  0  0  0  0
   26.8994  -21.2774  -16.2229 C   0  0  2  0  0  0  0  0  0  0  0  0
   27.6097  -22.3405  -16.9100 N   0  0  0  0  0  0  0  0  0  0  0  0
   25.4411  -21.4398  -16.3092 C   0  0  0  0  0  0  0  0  0  0  0  0
   24.9458  -22.0841  -17.2625 O   0  0  0  0  0  0  0  0  0  0  0  0
   20.5197  -22.4127  -12.9893 C   0  0  0  0  0  0  0  0  0  0  0  0
   21.0683  -21.6917  -14.1960 C   0  0  0  0  0  0  0  0  0  0  0  0
   22.5579  -21.6031  -14.1866 C   0  0  2  0  0  0  0  0  0  0  0  0
   23.0008  -20.9001  -12.9225 C   0  0  0  0  0  0  0  0  0  0  0  0
   23.1357  -20.9481  -15.4198 C   0  0  2  0  0  0  0  0  0  0  0  0
   24.5956  -20.8742  -15.3246 N   0  0  0  0  0  0  0  0  0  0  0  0
   22.5752  -19.6074  -15.6009 C   0  0  0  0  0  0  0  0  0  0  0  0
   21.4127  -19.3729  -15.9909 O   0  0  0  0  0  0  0  0  0  0  0  0
   23.3709  -18.4990  -15.3270 O   0  0  0  0  0  0  0  0  0  0  0  0
  2  1  1  1
  3  2  1  0
  4  3  1  0
  4  5  2  0
  6  5  1  0
  7  8  2  0
  7  6  1  0
  8  4  1  0
  9  2  1  0
 10  9  2  0
 12 11  1  6
 12 13  1  0
 12 14  1  0
 13  9  1  0
 14 21  1  0
 15 14  2  0
 17 16  1  0
 18 17  1  0
 18 19  1  1
 20 18  1  0
 20 22  1  0
 20 21  1  1
 22 23  2  0
 22 24  1  0
M  END
$$$$
