HAI.pdb
     RDKit          3D

 24 24  0  0  1  0  0  0  0  0999 V2000
   18.9627  -25.2533   -8.8222 N   0  0  0  0  0  0  0  0  0  0  0  0
   17.8892  -25.9896   -8.2236 C   0  0  1  0  0  0  0  0  0  0  0  0
   17.7954  -27.4178   -8.6761 C   0  0  0  0  0  0  0  0  0  0  0  0
   17.6047  -27.5315  -10.1382 C   0  0  0  0  0  0  0  0  0  0  0  0
   18.5229  -27.9289  -11.0855 C   0  0  0  0  0  0  0  0  0  0  0  0
   17.8786  -27.8678  -12.2636 N   0  0  0  0  0  0  0  0  0  0  0  0
   16.6149  -27.4536  -12.0823 C   0  0  0  0  0  0  0  0  0  0  0  0
   16.4566  -27.2501  -10.7771 N   0  0  0  0  0  0  0  0  0  0  0  0
   17.8941  -25.8821   -6.7348 C   0  0  0  0  0  0  0  0  0  0  0  0
   18.9363  -26.0648   -6.0564 O   0  0  0  0  0  0  0  0  0  0  0  0
   15.4760  -24.6032   -4.1860 C   0  0  0  0  0  0  0  0  0  0  0  0
   16.7337  -25.3705   -4.5547 C   0  0  2  0  0  0  0  0  0  0  0  0
   16.7068  -25.5635   -5.9931 N   0  0  0  0  0  0  0  0  0  0  0  0
   16.7884  -26.6458   -3.8258 C   0  0  0  0  0  0  0  0  0  0  0  0
   16.1981  -27.6488   -4.2891 O   0  0  0  0  0  0  0  0  0  0  0  0
   21.0844  -27.5687   -0.3145 C   0  0  0  0  0  0  0  0  0  0  0  0
   19.6627  -27.2282   -0.6887 C   0  0  0  0  0  0  0  0  0  0  0  0
   18.9968  -28.3117   -1.4693 C   0  0  2  0  0  0  0  0  0  0  0  0
   19.8386  -28.6306   -2.6849 C   0  0  0  0  0  0  0  0  0  0  0  0
   17.5680  -27.9979   -1.8480 C   0  0  2  0  0  0  0  0  0  0  0  0
   17.5019  -26.7468   -2.6073 N   0  0  0  0  0  0  0  0  0  0  0  0
   16.7272  -27.9053   -0.6526 C   0  0  0  0  0  0  0  0  0  0  0  0
   16.2469  -26.8432   -0.2056 O   0  0  0  0  0  0  0  0  0  0  0  0
   16.4263  -29.0657    0.0543 O   0  0  0  0  0  0  0  0  0  0  0  0
  2  1  1  1
  3  2  1  0
  4  3  1  0
  4  5  2  0
  6  5  1  0
  7  8  2  0
  7  6  1  0
  8  4  1  0
  9  2  1  0
 10  9  2  0
 12 11  1  1
 12 13  1  0
 12 14  1  0
 13  9  1  0
 14 21  1  0
 15 14  2  0
 17 16  1  0
 18 17  1  0
 18 19  1  6
 20 18  1  0
 20 22  1  0
 20 21  1  1
 22 23  2  0
 22 24  1  0
M  END
$$$$
