HAI.pdb
     RDKit          3D

 24 24  0  0  1  0  0  0  0  0999 V2000
   17.6473  -12.3909  -17.2949 N   0  0  0  0  0  0  0  0  0  0  0  0
   18.8230  -11.8624  -16.6693 C   0  0  1  0  0  0  0  0  0  0  0  0
   20.1091  -12.4210  -17.2054 C   0  0  0  0  0  0  0  0  0  0  0  0
   20.1588  -13.8966  -17.1189 C   0  0  0  0  0  0  0  0  0  0  0  0
   20.0147  -14.6865  -15.9992 C   0  0  0  0  0  0  0  0  0  0  0  0
   20.1381  -15.9535  -16.4306 N   0  0  0  0  0  0  0  0  0  0  0  0
   20.3500  -15.9758  -17.7558 C   0  0  0  0  0  0  0  0  0  0  0  0
   20.3610  -14.7110  -18.1683 N   0  0  0  0  0  0  0  0  0  0  0  0
   18.8324  -10.3698  -16.6584 C   0  0  0  0  0  0  0  0  0  0  0  0
   19.0019   -9.6962  -17.7059 O   0  0  0  0  0  0  0  0  0  0  0  0
   17.4687   -7.6948  -14.6674 C   0  0  0  0  0  0  0  0  0  0  0  0
   18.6896   -8.1678  -15.4369 C   0  0  2  0  0  0  0  0  0  0  0  0
   18.6480   -9.6187  -15.4487 N   0  0  0  0  0  0  0  0  0  0  0  0
   19.9184   -7.6541  -14.8150 C   0  0  0  0  0  0  0  0  0  0  0  0
   20.4519   -8.2933  -13.8791 O   0  0  0  0  0  0  0  0  0  0  0  0
   25.1687   -5.4992  -16.5881 C   0  0  0  0  0  0  0  0  0  0  0  0
   24.1580   -5.4618  -15.4682 C   0  0  0  0  0  0  0  0  0  0  0  0
   22.8117   -5.9473  -15.8905 C   0  0  2  0  0  0  0  0  0  0  0  0
   22.3314   -5.1127  -17.0570 C   0  0  0  0  0  0  0  0  0  0  0  0
   21.7971   -5.9759  -14.7709 C   0  0  2  0  0  0  0  0  0  0  0  0
   20.5006   -6.4450  -15.2660 N   0  0  0  0  0  0  0  0  0  0  0  0
   21.6553   -4.6476  -14.1709 C   0  0  0  0  0  0  0  0  0  0  0  0
   20.7384   -3.8438  -14.4393 O   0  0  0  0  0  0  0  0  0  0  0  0
   22.5931   -4.2253  -13.2334 O   0  0  0  0  0  0  0  0  0  0  0  0
  2  1  1  6
  3  2  1  0
  4  3  1  0
  4  5  2  0
  6  5  1  0
  7  8  2  0
  7  6  1  0
  8  4  1  0
  9  2  1  0
 10  9  2  0
 12 11  1  1
 12 13  1  0
 12 14  1  0
 13  9  1  0
 14 21  1  0
 15 14  2  0
 17 16  1  0
 18 17  1  0
 18 19  1  6
 20 18  1  0
 20 22  1  0
 20 21  1  6
 22 23  2  0
 22 24  1  0
M  END
$$$$
