HAI.pdb
     RDKit          3D

 24 24  0  0  1  0  0  0  0  0999 V2000
   23.6574  -21.5607  -17.5064 N   0  0  0  0  0  0  0  0  0  0  0  0
   23.7333  -20.4703  -16.5799 C   0  0  1  0  0  0  0  0  0  0  0  0
   22.4058  -20.0386  -16.0278 C   0  0  0  0  0  0  0  0  0  0  0  0
   21.4881  -19.5598  -17.0840 C   0  0  0  0  0  0  0  0  0  0  0  0
   20.5113  -20.2711  -17.7461 C   0  0  0  0  0  0  0  0  0  0  0  0
   19.9520  -19.4042  -18.6077 N   0  0  0  0  0  0  0  0  0  0  0  0
   20.5382  -18.2012  -18.5043 C   0  0  0  0  0  0  0  0  0  0  0  0
   21.4779  -18.3065  -17.5684 N   0  0  0  0  0  0  0  0  0  0  0  0
   24.7264  -20.7220  -15.4943 C   0  0  0  0  0  0  0  0  0  0  0  0
   24.5192  -21.5617  -14.5823 O   0  0  0  0  0  0  0  0  0  0  0  0
   28.1308  -19.3645  -14.6356 C   0  0  0  0  0  0  0  0  0  0  0  0
   26.9057  -20.2095  -14.3328 C   0  0  2  0  0  0  0  0  0  0  0  0
   25.9761  -20.0178  -15.4310 N   0  0  0  0  0  0  0  0  0  0  0  0
   26.3229  -19.8227  -13.0400 C   0  0  0  0  0  0  0  0  0  0  0  0
   25.6901  -18.7459  -12.9442 O   0  0  0  0  0  0  0  0  0  0  0  0
   22.1912  -20.6946  -10.1728 C   0  0  0  0  0  0  0  0  0  0  0  0
   23.5127  -19.9850  -10.3377 C   0  0  0  0  0  0  0  0  0  0  0  0
   24.6785  -20.9136  -10.2641 C   0  0  2  0  0  0  0  0  0  0  0  0
   24.6950  -21.5756   -8.9042 C   0  0  0  0  0  0  0  0  0  0  0  0
   26.0015  -20.2544  -10.5787 C   0  0  2  0  0  0  0  0  0  0  0  0
   26.4720  -20.6572  -11.9063 N   0  0  0  0  0  0  0  0  0  0  0  0
   27.0014  -20.5978   -9.5654 C   0  0  0  0  0  0  0  0  0  0  0  0
   27.0191  -20.1390   -8.4045 O   0  0  0  0  0  0  0  0  0  0  0  0
   28.0138  -21.4953   -9.8912 O   0  0  0  0  0  0  0  0  0  0  0  0
  2  1  1  1
  3  2  1  0
  4  3  1  0
  4  5  2  0
  6  5  1  0
  7  8  2  0
  7  6  1  0
  8  4  1  0
  9  2  1  0
 10  9  2  0
 12 11  1  6
 12 13  1  0
 12 14  1  0
 13  9  1  0
 14 21  1  0
 15 14  2  0
 17 16  1  0
 18 17  1  0
 18 19  1  1
 20 18  1  0
 20 22  1  0
 20 21  1  6
 22 23  2  0
 22 24  1  0
M  END
$$$$
