HAI.pdb
     RDKit          3D

 24 24  0  0  1  0  0  0  0  0999 V2000
   18.4467  -14.8611  -18.3160 N   0  0  0  0  0  0  0  0  0  0  0  0
   18.0031  -14.0039  -17.2569 C   0  0  1  0  0  0  0  0  0  0  0  0
   18.1688  -14.5867  -15.8835 C   0  0  0  0  0  0  0  0  0  0  0  0
   17.5059  -15.9018  -15.7486 C   0  0  0  0  0  0  0  0  0  0  0  0
   16.1561  -16.1778  -15.7667 C   0  0  0  0  0  0  0  0  0  0  0  0
   16.0555  -17.5087  -15.6081 N   0  0  0  0  0  0  0  0  0  0  0  0
   17.2750  -18.0576  -15.4942 C   0  0  0  0  0  0  0  0  0  0  0  0
   18.1570  -17.0653  -15.5815 N   0  0  0  0  0  0  0  0  0  0  0  0
   18.5975  -12.6380  -17.3517 C   0  0  0  0  0  0  0  0  0  0  0  0
   19.8403  -12.4515  -17.3717 O   0  0  0  0  0  0  0  0  0  0  0  0
   17.2526   -9.1941  -17.9671 C   0  0  0  0  0  0  0  0  0  0  0  0
   18.3633  -10.1332  -17.5300 C   0  0  2  0  0  0  0  0  0  0  0  0
   17.7817  -11.4589  -17.4253 N   0  0  0  0  0  0  0  0  0  0  0  0
   18.9454   -9.6818  -16.2580 C   0  0  0  0  0  0  0  0  0  0  0  0
   18.4146  -10.0279  -15.1775 O   0  0  0  0  0  0  0  0  0  0  0  0
   23.6273  -10.8838  -14.7307 C   0  0  0  0  0  0  0  0  0  0  0  0
   22.2085  -10.3906  -14.8751 C   0  0  0  0  0  0  0  0  0  0  0  0
   22.1116   -8.9016  -14.8594 C   0  0  2  0  0  0  0  0  0  0  0  0
   22.7761   -8.3786  -13.6051 C   0  0  0  0  0  0  0  0  0  0  0  0
   20.6991   -8.3829  -14.9990 C   0  0  2  0  0  0  0  0  0  0  0  0
   20.0986   -8.8608  -16.2469 N   0  0  0  0  0  0  0  0  0  0  0  0
   20.6824   -6.9190  -14.9615 C   0  0  0  0  0  0  0  0  0  0  0  0
   20.6762   -6.1851  -15.9714 O   0  0  0  0  0  0  0  0  0  0  0  0
   20.6725   -6.2742  -13.7283 O   0  0  0  0  0  0  0  0  0  0  0  0
  2  1  1  6
  3  2  1  0
  4  3  1  0
  4  5  2  0
  6  5  1  0
  7  8  2  0
  7  6  1  0
  8  4  1  0
  9  2  1  0
 10  9  2  0
 12 11  1  1
 12 13  1  0
 12 14  1  0
 13  9  1  0
 14 21  1  0
 15 14  2  0
 17 16  1  0
 18 17  1  0
 18 19  1  1
 20 18  1  0
 20 22  1  0
 20 21  1  6
 22 23  2  0
 22 24  1  0
M  END
$$$$
