HAI.pdb
     RDKit          3D

 24 24  0  0  1  0  0  0  0  0999 V2000
   26.4791  -19.3696  -18.6214 N   0  0  0  0  0  0  0  0  0  0  0  0
   25.4139  -20.2004  -18.1437 C   0  0  1  0  0  0  0  0  0  0  0  0
   25.7235  -21.6691  -18.1629 C   0  0  0  0  0  0  0  0  0  0  0  0
   25.8888  -22.1896  -19.5373 C   0  0  0  0  0  0  0  0  0  0  0  0
   24.9087  -22.6156  -20.4071 C   0  0  0  0  0  0  0  0  0  0  0  0
   25.5540  -22.9934  -21.5240 N   0  0  0  0  0  0  0  0  0  0  0  0
   26.8769  -22.8193  -21.3791 C   0  0  0  0  0  0  0  0  0  0  0  0
   27.0721  -22.3266  -20.1588 N   0  0  0  0  0  0  0  0  0  0  0  0
   24.9118  -19.7601  -16.8089 C   0  0  0  0  0  0  0  0  0  0  0  0
   25.6617  -19.6952  -15.8023 O   0  0  0  0  0  0  0  0  0  0  0  0
   21.7523  -18.1730  -15.5842 C   0  0  0  0  0  0  0  0  0  0  0  0
   23.0778  -18.8675  -15.3253 C   0  0  2  0  0  0  0  0  0  0  0  0
   23.5416  -19.3854  -16.5994 N   0  0  0  0  0  0  0  0  0  0  0  0
   22.9129  -19.9296  -14.3227 C   0  0  0  0  0  0  0  0  0  0  0  0
   22.4948  -21.0558  -14.6778 O   0  0  0  0  0  0  0  0  0  0  0  0
   26.4337  -20.5048  -10.0744 C   0  0  0  0  0  0  0  0  0  0  0  0
   25.4639  -20.7572  -11.2026 C   0  0  0  0  0  0  0  0  0  0  0  0
   24.0460  -20.5065  -10.8106 C   0  0  2  0  0  0  0  0  0  0  0  0
   23.7110  -21.3576   -9.6058 C   0  0  0  0  0  0  0  0  0  0  0  0
   23.0581  -20.7186  -11.9344 C   0  0  2  0  0  0  0  0  0  0  0  0
   23.2226  -19.6882  -12.9626 N   0  0  0  0  0  0  0  0  0  0  0  0
   21.6860  -20.7039  -11.4230 C   0  0  0  0  0  0  0  0  0  0  0  0
   21.0129  -19.6699  -11.2317 O   0  0  0  0  0  0  0  0  0  0  0  0
   21.0639  -21.9114  -11.1205 O   0  0  0  0  0  0  0  0  0  0  0  0
  2  1  1  1
  3  2  1  0
  4  3  1  0
  4  5  2  0
  6  5  1  0
  7  8  2  0
  7  6  1  0
  8  4  1  0
  9  2  1  0
 10  9  2  0
 12 11  1  6
 12 13  1  0
 12 14  1  0
 13  9  1  0
 14 21  1  0
 15 14  2  0
 17 16  1  0
 18 17  1  0
 18 19  1  1
 20 18  1  0
 20 22  1  0
 20 21  1  6
 22 23  2  0
 22 24  1  0
M  END
$$$$
