HAI.pdb
     RDKit          3D

 24 24  0  0  1  0  0  0  0  0999 V2000
   23.9654  -22.3263  -12.9682 N   0  0  0  0  0  0  0  0  0  0  0  0
   23.2366  -21.0926  -12.9711 C   0  0  1  0  0  0  0  0  0  0  0  0
   23.3181  -20.3270  -11.6824 C   0  0  0  0  0  0  0  0  0  0  0  0
   22.4713  -20.9186  -10.6241 C   0  0  0  0  0  0  0  0  0  0  0  0
   21.6901  -22.0513  -10.6963 C   0  0  0  0  0  0  0  0  0  0  0  0
   21.1172  -22.1748   -9.4867 N   0  0  0  0  0  0  0  0  0  0  0  0
   21.5095  -21.1754   -8.6813 C   0  0  0  0  0  0  0  0  0  0  0  0
   22.3389  -20.4110   -9.3871 N   0  0  0  0  0  0  0  0  0  0  0  0
   23.5832  -20.2367  -14.1438 C   0  0  0  0  0  0  0  0  0  0  0  0
   24.7687  -19.9106  -14.4044 O   0  0  0  0  0  0  0  0  0  0  0  0
   21.7331  -19.0670  -17.1711 C   0  0  0  0  0  0  0  0  0  0  0  0
   22.9283  -18.9916  -16.2371 C   0  0  2  0  0  0  0  0  0  0  0  0
   22.5800  -19.7369  -15.0412 N   0  0  0  0  0  0  0  0  0  0  0  0
   23.2590  -17.5906  -15.9398 C   0  0  0  0  0  0  0  0  0  0  0  0
   22.6666  -16.9996  -15.0077 O   0  0  0  0  0  0  0  0  0  0  0  0
   27.0320  -13.5034  -14.9229 C   0  0  0  0  0  0  0  0  0  0  0  0
   26.4690  -13.8728  -16.2733 C   0  0  0  0  0  0  0  0  0  0  0  0
   26.0529  -15.3037  -16.3525 C   0  0  2  0  0  0  0  0  0  0  0  0
   26.7881  -15.9672  -17.4958 C   0  0  0  0  0  0  0  0  0  0  0  0
   24.5583  -15.4968  -16.4646 C   0  0  2  0  0  0  0  0  0  0  0  0
   24.2399  -16.9075  -16.6983 N   0  0  0  0  0  0  0  0  0  0  0  0
   24.0126  -14.6726  -17.5450 C   0  0  0  0  0  0  0  0  0  0  0  0
   23.7238  -13.4629  -17.4356 O   0  0  0  0  0  0  0  0  0  0  0  0
   23.7900  -15.2513  -18.7908 O   0  0  0  0  0  0  0  0  0  0  0  0
  2  1  1  1
  3  2  1  0
  4  3  1  0
  4  5  2  0
  6  5  1  0
  7  8  2  0
  7  6  1  0
  8  4  1  0
  9  2  1  0
 10  9  2  0
 12 11  1  6
 12 13  1  0
 12 14  1  0
 13  9  1  0
 14 21  1  0
 15 14  2  0
 17 16  1  0
 18 17  1  0
 18 19  1  6
 20 18  1  0
 20 22  1  0
 20 21  1  6
 22 23  2  0
 22 24  1  0
M  END
$$$$
