HAI.pdb
     RDKit          3D

 24 24  0  0  1  0  0  0  0  0999 V2000
   23.5747  -22.0371  -12.7001 N   0  0  0  0  0  0  0  0  0  0  0  0
   24.4418  -20.9515  -12.3497 C   0  0  1  0  0  0  0  0  0  0  0  0
   23.7508  -19.6235  -12.2385 C   0  0  0  0  0  0  0  0  0  0  0  0
   23.4254  -19.0481  -13.5615 C   0  0  0  0  0  0  0  0  0  0  0  0
   22.2440  -19.1485  -14.2634 C   0  0  0  0  0  0  0  0  0  0  0  0
   22.4392  -18.4622  -15.4025 N   0  0  0  0  0  0  0  0  0  0  0  0
   23.6790  -17.9489  -15.4304 C   0  0  0  0  0  0  0  0  0  0  0  0
   24.2754  -18.3132  -14.2983 N   0  0  0  0  0  0  0  0  0  0  0  0
   25.2578  -21.2518  -11.1364 C   0  0  0  0  0  0  0  0  0  0  0  0
   24.7497  -21.7370  -10.0943 O   0  0  0  0  0  0  0  0  0  0  0  0
   28.9277  -21.2916  -10.3660 C   0  0  0  0  0  0  0  0  0  0  0  0
   27.4729  -21.3573   -9.9350 C   0  0  2  0  0  0  0  0  0  0  0  0
   26.6711  -21.0026  -11.0918 N   0  0  0  0  0  0  0  0  0  0  0  0
   27.2338  -20.4567   -8.7983 C   0  0  0  0  0  0  0  0  0  0  0  0
   26.8031  -19.2990   -9.0063 O   0  0  0  0  0  0  0  0  0  0  0  0
   28.6109  -20.0070   -2.8668 C   0  0  0  0  0  0  0  0  0  0  0  0
   27.4456  -19.8851   -3.8177 C   0  0  0  0  0  0  0  0  0  0  0  0
   27.6055  -20.7306   -5.0368 C   0  0  2  0  0  0  0  0  0  0  0  0
   28.9588  -21.4049   -4.9936 C   0  0  0  0  0  0  0  0  0  0  0  0
   27.3997  -19.9770   -6.3304 C   0  0  2  0  0  0  0  0  0  0  0  0
   27.4866  -20.8885   -7.4740 N   0  0  0  0  0  0  0  0  0  0  0  0
   28.3892  -18.9059   -6.4650 C   0  0  0  0  0  0  0  0  0  0  0  0
   28.2725  -17.7677   -5.9655 O   0  0  0  0  0  0  0  0  0  0  0  0
   29.5497  -19.1449   -7.1949 O   0  0  0  0  0  0  0  0  0  0  0  0
  2  1  1  1
  3  2  1  0
  4  3  1  0
  4  5  2  0
  6  5  1  0
  7  8  2  0
  7  6  1  0
  8  4  1  0
  9  2  1  0
 10  9  2  0
 12 11  1  6
 12 13  1  0
 12 14  1  0
 13  9  1  0
 14 21  1  0
 15 14  2  0
 17 16  1  0
 18 17  1  0
 18 19  1  6
 20 18  1  0
 20 22  1  0
 20 21  1  6
 22 23  2  0
 22 24  1  0
M  END
$$$$
