HAI.pdb
     RDKit          3D

 24 24  0  0  1  0  0  0  0  0999 V2000
   24.7164  -34.0768  -13.5411 N   0  0  0  0  0  0  0  0  0  0  0  0
   23.8182  -33.1986  -12.8520 C   0  0  1  0  0  0  0  0  0  0  0  0
   22.3769  -33.3676  -13.2361 C   0  0  0  0  0  0  0  0  0  0  0  0
   22.1451  -33.1064  -14.6732 C   0  0  0  0  0  0  0  0  0  0  0  0
   21.8833  -34.0204  -15.6705 C   0  0  0  0  0  0  0  0  0  0  0  0
   21.7494  -33.2997  -16.7972 N   0  0  0  0  0  0  0  0  0  0  0  0
   21.9162  -31.9936  -16.5372 C   0  0  0  0  0  0  0  0  0  0  0  0
   22.1582  -31.8852  -15.2334 N   0  0  0  0  0  0  0  0  0  0  0  0
   24.0042  -33.2511  -11.3719 C   0  0  0  0  0  0  0  0  0  0  0  0
   24.3524  -34.3041  -10.7804 O   0  0  0  0  0  0  0  0  0  0  0  0
   24.2870  -30.6887   -8.6771 C   0  0  0  0  0  0  0  0  0  0  0  0
   24.0733  -32.1271   -9.1152 C   0  0  2  0  0  0  0  0  0  0  0  0
   23.7953  -32.1000  -10.5396 N   0  0  0  0  0  0  0  0  0  0  0  0
   22.9785  -32.7392   -8.3488 C   0  0  0  0  0  0  0  0  0  0  0  0
   21.7922  -32.5412   -8.6990 O   0  0  0  0  0  0  0  0  0  0  0  0
   24.1005  -37.5872   -5.7926 C   0  0  0  0  0  0  0  0  0  0  0  0
   23.8039  -36.1077   -5.8053 C   0  0  0  0  0  0  0  0  0  0  0  0
   22.5383  -35.7798   -6.5246 C   0  0  2  0  0  0  0  0  0  0  0  0
   22.6097  -36.3421   -7.9270 C   0  0  0  0  0  0  0  0  0  0  0  0
   22.2078  -34.3052   -6.5319 C   0  0  2  0  0  0  0  0  0  0  0  0
   23.2560  -33.5485   -7.2209 N   0  0  0  0  0  0  0  0  0  0  0  0
   22.0449  -33.8076   -5.1643 C   0  0  0  0  0  0  0  0  0  0  0  0
   22.8440  -33.0384   -4.5911 O   0  0  0  0  0  0  0  0  0  0  0  0
   20.9317  -34.2030   -4.4287 O   0  0  0  0  0  0  0  0  0  0  0  0
  2  1  1  6
  3  2  1  0
  4  3  1  0
  4  5  2  0
  6  5  1  0
  7  8  2  0
  7  6  1  0
  8  4  1  0
  9  2  1  0
 10  9  2  0
 12 11  1  1
 12 13  1  0
 12 14  1  0
 13  9  1  0
 14 21  1  0
 15 14  2  0
 17 16  1  0
 18 17  1  0
 18 19  1  6
 20 18  1  0
 20 22  1  0
 20 21  1  1
 22 23  2  0
 22 24  1  0
M  END
$$$$
