HAI.pdb
     RDKit          3D

 24 24  0  0  1  0  0  0  0  0999 V2000
   18.8071  -10.4745  -16.3888 N   0  0  0  0  0  0  0  0  0  0  0  0
   19.0181   -9.1260  -15.9530 C   0  0  1  0  0  0  0  0  0  0  0  0
   18.1901   -8.1074  -16.6813 C   0  0  0  0  0  0  0  0  0  0  0  0
   18.4897   -8.0726  -18.1292 C   0  0  0  0  0  0  0  0  0  0  0  0
   19.4434   -7.3213  -18.7807 C   0  0  0  0  0  0  0  0  0  0  0  0
   19.3269   -7.6363  -20.0821 N   0  0  0  0  0  0  0  0  0  0  0  0
   18.3510   -8.5411  -20.2567 C   0  0  0  0  0  0  0  0  0  0  0  0
   17.8441   -8.8021  -19.0546 N   0  0  0  0  0  0  0  0  0  0  0  0
   18.8880   -8.9858  -14.4726 C   0  0  0  0  0  0  0  0  0  0  0  0
   17.8624   -9.3672  -13.8542 O   0  0  0  0  0  0  0  0  0  0  0  0
   21.1160   -7.7895  -11.6930 C   0  0  0  0  0  0  0  0  0  0  0  0
   19.7547   -8.1680  -12.2498 C   0  0  2  0  0  0  0  0  0  0  0  0
   19.9287   -8.4063  -13.6710 N   0  0  0  0  0  0  0  0  0  0  0  0
   18.7773   -7.1032  -11.9824 C   0  0  0  0  0  0  0  0  0  0  0  0
   18.7259   -6.1064  -12.7393 O   0  0  0  0  0  0  0  0  0  0  0  0
   13.3720   -5.6966  -11.1879 C   0  0  0  0  0  0  0  0  0  0  0  0
   14.4515   -5.7958  -10.1382 C   0  0  0  0  0  0  0  0  0  0  0  0
   15.5181   -6.7750  -10.4991 C   0  0  2  0  0  0  0  0  0  0  0  0
   15.4824   -7.9252   -9.5173 C   0  0  0  0  0  0  0  0  0  0  0  0
   16.8974   -6.1647  -10.5921 C   0  0  2  0  0  0  0  0  0  0  0  0
   17.8966   -7.1972  -10.8780 N   0  0  0  0  0  0  0  0  0  0  0  0
   17.2365   -5.4674   -9.3497 C   0  0  0  0  0  0  0  0  0  0  0  0
   16.7045   -4.4050   -8.9664 O   0  0  0  0  0  0  0  0  0  0  0  0
   18.2161   -6.0033   -8.5191 O   0  0  0  0  0  0  0  0  0  0  0  0
  2  1  1  6
  3  2  1  0
  4  3  1  0
  4  5  2  0
  6  5  1  0
  7  8  2  0
  7  6  1  0
  8  4  1  0
  9  2  1  0
 10  9  2  0
 12 11  1  6
 12 13  1  0
 12 14  1  0
 13  9  1  0
 14 21  1  0
 15 14  2  0
 17 16  1  0
 18 17  1  0
 18 19  1  1
 20 18  1  0
 20 22  1  0
 20 21  1  1
 22 23  2  0
 22 24  1  0
M  END
$$$$
