HAI.pdb
     RDKit          3D

 24 24  0  0  1  0  0  0  0  0999 V2000
   19.3174  -14.5525  -19.8545 N   0  0  0  0  0  0  0  0  0  0  0  0
   18.7797  -13.9324  -18.6800 C   0  0  1  0  0  0  0  0  0  0  0  0
   18.8647  -14.7793  -17.4435 C   0  0  0  0  0  0  0  0  0  0  0  0
   18.1661  -16.0732  -17.6008 C   0  0  0  0  0  0  0  0  0  0  0  0
   16.9720  -16.3206  -18.2422 C   0  0  0  0  0  0  0  0  0  0  0  0
   16.7582  -17.6414  -18.1146 N   0  0  0  0  0  0  0  0  0  0  0  0
   17.7611  -18.2113  -17.4283 C   0  0  0  0  0  0  0  0  0  0  0  0
   18.6186  -17.2426  -17.1179 N   0  0  0  0  0  0  0  0  0  0  0  0
   19.3442  -12.5691  -18.4546 C   0  0  0  0  0  0  0  0  0  0  0  0
   20.5785  -12.3717  -18.3233 O   0  0  0  0  0  0  0  0  0  0  0  0
   17.9922   -9.0827  -18.5837 C   0  0  0  0  0  0  0  0  0  0  0  0
   19.0613  -10.0791  -18.1704 C   0  0  2  0  0  0  0  0  0  0  0  0
   18.5074  -11.4051  -18.3747 N   0  0  0  0  0  0  0  0  0  0  0  0
   19.4589   -9.8544  -16.7732 C   0  0  0  0  0  0  0  0  0  0  0  0
   18.8252  -10.4181  -15.8514 O   0  0  0  0  0  0  0  0  0  0  0  0
   23.8535  -11.3664  -14.9961 C   0  0  0  0  0  0  0  0  0  0  0  0
   22.4655  -10.8125  -15.2047 C   0  0  0  0  0  0  0  0  0  0  0  0
   22.3668   -9.3624  -14.8664 C   0  0  2  0  0  0  0  0  0  0  0  0
   22.8400   -9.1557  -13.4447 C   0  0  0  0  0  0  0  0  0  0  0  0
   20.9899   -8.7795  -15.0855 C   0  0  2  0  0  0  0  0  0  0  0  0
   20.5502   -9.0072  -16.4642 N   0  0  0  0  0  0  0  0  0  0  0  0
   20.9844   -7.3459  -14.7864 C   0  0  0  0  0  0  0  0  0  0  0  0
   21.2470   -6.4492  -15.6143 O   0  0  0  0  0  0  0  0  0  0  0  0
   20.6682   -6.9250  -13.4982 O   0  0  0  0  0  0  0  0  0  0  0  0
  2  1  1  6
  3  2  1  0
  4  3  1  0
  4  5  2  0
  6  5  1  0
  7  8  2  0
  7  6  1  0
  8  4  1  0
  9  2  1  0
 10  9  2  0
 12 11  1  1
 12 13  1  0
 12 14  1  0
 13  9  1  0
 14 21  1  0
 15 14  2  0
 17 16  1  0
 18 17  1  0
 18 19  1  1
 20 18  1  0
 20 22  1  0
 20 21  1  6
 22 23  2  0
 22 24  1  0
M  END
$$$$
