SNA.pdb
     RDKit          3D

 20 19  0  0  1  0  0  0  0  0999 V2000
   16.4749   -9.5533  -14.0450 O   0  0  0  0  0  0  0  0  0  0  0  0
   17.8596   -9.6205  -13.9339 C   0  0  0  0  0  0  0  0  0  0  0  0
   18.4479   -9.5645  -15.2971 C   0  0  2  0  0  0  0  0  0  0  0  0
   18.0288  -10.6741  -16.1077 N   0  0  0  0  0  0  0  0  0  0  0  0
   19.9318   -9.3675  -15.2917 C   0  0  0  0  0  0  0  0  0  0  0  0
   20.6184  -10.4173  -15.2737 O   0  0  0  0  0  0  0  0  0  0  0  0
   22.2010  -10.8147  -17.7939 N   0  0  0  0  0  0  0  0  0  0  0  0
   22.6145   -9.9313  -16.7392 C   0  0  0  0  0  0  0  0  0  0  0  0
   23.2113  -10.4473  -15.7529 O   0  0  0  0  0  0  0  0  0  0  0  0
   22.3252   -8.4814  -16.8497 C   0  0  0  0  0  0  0  0  0  0  0  0
   21.9417   -7.8980  -15.5163 C   0  0  2  0  0  0  0  0  0  0  0  0
   20.5232   -8.0887  -15.3060 N   0  0  0  0  0  0  0  0  0  0  0  0
   22.3063   -6.4564  -15.3978 C   0  0  0  0  0  0  0  0  0  0  0  0
   23.4427   -5.9998  -15.6296 O   0  0  0  0  0  0  0  0  0  0  0  0
   20.2061   -3.4300  -15.0490 C   0  0  0  0  0  0  0  0  0  0  0  0
   21.5558   -4.1039  -14.8197 C   0  0  2  0  0  0  0  0  0  0  0  0
   21.3111   -5.5309  -14.9995 N   0  0  0  0  0  0  0  0  0  0  0  0
   22.0126   -3.7656  -13.4841 C   0  0  0  0  0  0  0  0  0  0  0  0
   22.1270   -4.6143  -12.5872 O   0  0  0  0  0  0  0  0  0  0  0  0
   22.3431   -2.4321  -13.1788 O   0  0  0  0  0  0  0  0  0  0  0  0
  2  1  1  0
  3  2  1  0
  3  4  1  1
  5  3  1  0
  5  6  2  0
  8  7  1  0
  8 10  1  0
  9  8  2  0
 11 10  1  6
 11 12  1  0
 12  5  1  0
 13 11  1  0
 14 13  2  0
 16 15  1  1
 16 17  1  0
 17 13  1  0
 18 16  1  0
 18 20  1  0
 19 18  2  0
M  END
$$$$
