SNA.pdb
     RDKit          3D

 20 19  0  0  1  0  0  0  0  0999 V2000
   19.6996  -11.8966  -17.0400 O   0  0  0  0  0  0  0  0  0  0  0  0
   20.7547  -11.0550  -16.7042 C   0  0  0  0  0  0  0  0  0  0  0  0
   22.0082  -11.8525  -16.6806 C   0  0  2  0  0  0  0  0  0  0  0  0
   21.8061  -13.1516  -16.1014 N   0  0  0  0  0  0  0  0  0  0  0  0
   23.1653  -11.1152  -16.0819 C   0  0  0  0  0  0  0  0  0  0  0  0
   24.0503  -11.8310  -15.5545 O   0  0  0  0  0  0  0  0  0  0  0  0
   26.8549  -10.6585  -14.8024 N   0  0  0  0  0  0  0  0  0  0  0  0
   26.2553  -10.6403  -16.1077 C   0  0  0  0  0  0  0  0  0  0  0  0
   26.3267  -11.6994  -16.7922 O   0  0  0  0  0  0  0  0  0  0  0  0
   25.5952   -9.4024  -16.5875 C   0  0  0  0  0  0  0  0  0  0  0  0
   24.4535   -9.0091  -15.6891 C   0  0  2  0  0  0  0  0  0  0  0  0
   23.2587   -9.7096  -16.1070 N   0  0  0  0  0  0  0  0  0  0  0  0
   24.2245   -7.5352  -15.6690 C   0  0  0  0  0  0  0  0  0  0  0  0
   25.1247   -6.6885  -15.5072 O   0  0  0  0  0  0  0  0  0  0  0  0
   21.1302   -5.5488  -16.3326 C   0  0  0  0  0  0  0  0  0  0  0  0
   22.5510   -5.6330  -15.7823 C   0  0  2  0  0  0  0  0  0  0  0  0
   22.9070   -7.0465  -15.8454 N   0  0  0  0  0  0  0  0  0  0  0  0
   22.5479   -5.1035  -14.4309 C   0  0  0  0  0  0  0  0  0  0  0  0
   22.5556   -5.8369  -13.4309 O   0  0  0  0  0  0  0  0  0  0  0  0
   22.5371   -3.7106  -14.2293 O   0  0  0  0  0  0  0  0  0  0  0  0
  2  1  1  0
  3  2  1  0
  3  4  1  1
  5  3  1  0
  5  6  2  0
  8  7  1  0
  8 10  1  0
  9  8  2  0
 11 10  1  6
 11 12  1  0
 12  5  1  0
 13 11  1  0
 14 13  2  0
 16 15  1  1
 16 17  1  0
 17 13  1  0
 18 16  1  0
 18 20  1  0
 19 18  2  0
M  END
$$$$
