SNA.pdb
     RDKit          3D

 20 19  0  0  1  0  0  0  0  0999 V2000
   17.1746   -9.4852  -16.7626 O   0  0  0  0  0  0  0  0  0  0  0  0
   18.0640   -9.1100  -15.7614 C   0  0  0  0  0  0  0  0  0  0  0  0
   18.0958   -7.6264  -15.6870 C   0  0  2  0  0  0  0  0  0  0  0  0
   18.0752   -7.0238  -16.9911 N   0  0  0  0  0  0  0  0  0  0  0  0
   19.1936   -7.1027  -14.8145 C   0  0  0  0  0  0  0  0  0  0  0  0
   19.1880   -7.5147  -13.6295 O   0  0  0  0  0  0  0  0  0  0  0  0
   21.5711   -8.2553  -13.4209 N   0  0  0  0  0  0  0  0  0  0  0  0
   22.6169   -7.7916  -14.2898 C   0  0  0  0  0  0  0  0  0  0  0  0
   23.5759   -8.5823  -14.5142 O   0  0  0  0  0  0  0  0  0  0  0  0
   22.5294   -6.4305  -14.8712 C   0  0  0  0  0  0  0  0  0  0  0  0
   21.2584   -5.7399  -14.4552 C   0  0  2  0  0  0  0  0  0  0  0  0
   20.1715   -6.2059  -15.2885 N   0  0  0  0  0  0  0  0  0  0  0  0
   21.3711   -4.2536  -14.5129 C   0  0  0  0  0  0  0  0  0  0  0  0
   22.2522   -3.5946  -13.9272 O   0  0  0  0  0  0  0  0  0  0  0  0
   19.6871   -1.7685  -16.6924 C   0  0  0  0  0  0  0  0  0  0  0  0
   20.4209   -2.0716  -15.3892 C   0  0  2  0  0  0  0  0  0  0  0  0
   20.4272   -3.5264  -15.2784 N   0  0  0  0  0  0  0  0  0  0  0  0
   19.7115   -1.4182  -14.3046 C   0  0  0  0  0  0  0  0  0  0  0  0
   18.9069   -2.0219  -13.5792 O   0  0  0  0  0  0  0  0  0  0  0  0
   19.9331   -0.0516  -14.0518 O   0  0  0  0  0  0  0  0  0  0  0  0
  2  1  1  0
  3  2  1  0
  3  4  1  6
  5  3  1  0
  5  6  2  0
  8  7  1  0
  8 10  1  0
  9  8  2  0
 11 10  1  6
 11 12  1  0
 12  5  1  0
 13 11  1  0
 14 13  2  0
 16 15  1  6
 16 17  1  0
 17 13  1  0
 18 16  1  0
 18 20  1  0
 19 18  2  0
M  END
$$$$
