SNA.pdb
     RDKit          3D

 20 19  0  0  1  0  0  0  0  0999 V2000
   17.0246  -12.3660  -13.1539 O   0  0  0  0  0  0  0  0  0  0  0  0
   16.6765  -11.0365  -13.3669 C   0  0  0  0  0  0  0  0  0  0  0  0
   15.6540  -10.6473  -12.3614 C   0  0  2  0  0  0  0  0  0  0  0  0
   14.4120  -11.3402  -12.5642 N   0  0  0  0  0  0  0  0  0  0  0  0
   15.4865   -9.1652  -12.2336 C   0  0  0  0  0  0  0  0  0  0  0  0
   14.7493   -8.6264  -13.0940 O   0  0  0  0  0  0  0  0  0  0  0  0
   15.2045   -7.3691   -7.5171 N   0  0  0  0  0  0  0  0  0  0  0  0
   15.0182   -6.8504   -8.8437 C   0  0  0  0  0  0  0  0  0  0  0  0
   13.8304   -6.6638   -9.2306 O   0  0  0  0  0  0  0  0  0  0  0  0
   16.2044   -6.5657   -9.6864 C   0  0  0  0  0  0  0  0  0  0  0  0
   15.9730   -6.9838  -11.1137 C   0  0  2  0  0  0  0  0  0  0  0  0
   16.1134   -8.4200  -11.2154 N   0  0  0  0  0  0  0  0  0  0  0  0
   16.8892   -6.2926  -12.0666 C   0  0  0  0  0  0  0  0  0  0  0  0
   18.1319   -6.3845  -12.0352 O   0  0  0  0  0  0  0  0  0  0  0  0
   16.1146   -4.4163  -15.1939 C   0  0  0  0  0  0  0  0  0  0  0  0
   17.1185   -4.8178  -14.1171 C   0  0  2  0  0  0  0  0  0  0  0  0
   16.3309   -5.4766  -13.0805 N   0  0  0  0  0  0  0  0  0  0  0  0
   17.7897   -3.6185  -13.6502 C   0  0  0  0  0  0  0  0  0  0  0  0
   17.4893   -3.0629  -12.5830 O   0  0  0  0  0  0  0  0  0  0  0  0
   18.8211   -3.0530  -14.4228 O   0  0  0  0  0  0  0  0  0  0  0  0
  2  1  1  0
  3  2  1  0
  3  4  1  6
  5  3  1  0
  5  6  2  0
  8  7  1  0
  8 10  1  0
  9  8  2  0
 11 10  1  1
 11 12  1  0
 12  5  1  0
 13 11  1  0
 14 13  2  0
 16 15  1  6
 16 17  1  0
 17 13  1  0
 18 16  1  0
 18 20  1  0
 19 18  2  0
M  END
$$$$
