SNA.pdb
     RDKit          3D

 20 19  0  0  1  0  0  0  0  0999 V2000
   25.7471  -11.8312  -16.0889 O   0  0  0  0  0  0  0  0  0  0  0  0
   24.6971  -12.2080  -15.2584 C   0  0  0  0  0  0  0  0  0  0  0  0
   23.4642  -12.3298  -16.0786 C   0  0  2  0  0  0  0  0  0  0  0  0
   23.6365  -13.2450  -17.1725 N   0  0  0  0  0  0  0  0  0  0  0  0
   22.9033  -11.0077  -16.5006 C   0  0  0  0  0  0  0  0  0  0  0  0
   23.0590  -10.7135  -17.7102 O   0  0  0  0  0  0  0  0  0  0  0  0
   19.2380   -7.6605  -17.9651 N   0  0  0  0  0  0  0  0  0  0  0  0
   19.4937   -7.8211  -16.5607 C   0  0  0  0  0  0  0  0  0  0  0  0
   19.1410   -6.8790  -15.7969 O   0  0  0  0  0  0  0  0  0  0  0  0
   20.1511   -9.0593  -16.0781 C   0  0  0  0  0  0  0  0  0  0  0  0
   21.6468   -8.8990  -16.0271 C   0  0  2  0  0  0  0  0  0  0  0  0
   22.2428  -10.1467  -15.6019 N   0  0  0  0  0  0  0  0  0  0  0  0
   22.0709   -7.7786  -15.1382 C   0  0  0  0  0  0  0  0  0  0  0  0
   22.2046   -7.8766  -13.9028 O   0  0  0  0  0  0  0  0  0  0  0  0
   23.0224   -4.2539  -15.9735 C   0  0  0  0  0  0  0  0  0  0  0  0
   22.6801   -5.3246  -14.9415 C   0  0  2  0  0  0  0  0  0  0  0  0
   22.3458   -6.5152  -15.7159 N   0  0  0  0  0  0  0  0  0  0  0  0
   21.5772   -4.8405  -14.1316 C   0  0  0  0  0  0  0  0  0  0  0  0
   20.4002   -5.1621  -14.3531 O   0  0  0  0  0  0  0  0  0  0  0  0
   21.8344   -3.9754  -13.0517 O   0  0  0  0  0  0  0  0  0  0  0  0
  2  1  1  0
  3  2  1  0
  3  4  1  6
  5  3  1  0
  5  6  2  0
  8  7  1  0
  8 10  1  0
  9  8  2  0
 11 10  1  1
 11 12  1  0
 12  5  1  0
 13 11  1  0
 14 13  2  0
 16 15  1  6
 16 17  1  0
 17 13  1  0
 18 16  1  0
 18 20  1  0
 19 18  2  0
M  END
$$$$
