SNA.pdb
     RDKit          3D

 20 19  0  0  1  0  0  0  0  0999 V2000
   14.6641  -12.4488  -15.5240 O   0  0  0  0  0  0  0  0  0  0  0  0
   15.2668  -11.3734  -16.1678 C   0  0  0  0  0  0  0  0  0  0  0  0
   15.5396  -10.3124  -15.1640 C   0  0  2  0  0  0  0  0  0  0  0  0
   14.3379   -9.8669  -14.5149 N   0  0  0  0  0  0  0  0  0  0  0  0
   16.3677   -9.1883  -15.7039 C   0  0  0  0  0  0  0  0  0  0  0  0
   16.1644   -8.8937  -16.9063 O   0  0  0  0  0  0  0  0  0  0  0  0
   19.0415   -4.8865  -16.1177 N   0  0  0  0  0  0  0  0  0  0  0  0
   17.6122   -4.9458  -15.9872 C   0  0  0  0  0  0  0  0  0  0  0  0
   16.9595   -3.9093  -16.2956 O   0  0  0  0  0  0  0  0  0  0  0  0
   16.9774   -6.1947  -15.5020 C   0  0  0  0  0  0  0  0  0  0  0  0
   17.9834   -7.3079  -15.3829 C   0  0  2  0  0  0  0  0  0  0  0  0
   17.3146   -8.5030  -14.9171 N   0  0  0  0  0  0  0  0  0  0  0  0
   19.1225   -6.9544  -14.4871 C   0  0  0  0  0  0  0  0  0  0  0  0
   18.9946   -6.5843  -13.3038 O   0  0  0  0  0  0  0  0  0  0  0  0
   22.8096   -7.2030  -15.0705 C   0  0  0  0  0  0  0  0  0  0  0  0
   21.6352   -6.7607  -14.2023 C   0  0  2  0  0  0  0  0  0  0  0  0
   20.4421   -7.0401  -14.9942 N   0  0  0  0  0  0  0  0  0  0  0  0
   21.8012   -5.3518  -13.8952 C   0  0  0  0  0  0  0  0  0  0  0  0
   21.3344   -4.4564  -14.6151 O   0  0  0  0  0  0  0  0  0  0  0  0
   22.5133   -4.9700  -12.7429 O   0  0  0  0  0  0  0  0  0  0  0  0
  2  1  1  0
  3  2  1  0
  3  4  1  6
  5  3  1  0
  5  6  2  0
  8  7  1  0
  8 10  1  0
  9  8  2  0
 11 10  1  1
 11 12  1  0
 12  5  1  0
 13 11  1  0
 14 13  2  0
 16 15  1  6
 16 17  1  0
 17 13  1  0
 18 16  1  0
 18 20  1  0
 19 18  2  0
M  END
$$$$
