SNA.pdb
     RDKit          3D

 20 19  0  0  1  0  0  0  0  0999 V2000
   15.5301   -6.6382  -17.3459 O   0  0  0  0  0  0  0  0  0  0  0  0
   16.7654   -6.6982  -16.7098 C   0  0  0  0  0  0  0  0  0  0  0  0
   16.8882   -8.0169  -16.0362 C   0  0  2  0  0  0  0  0  0  0  0  0
   15.8166   -8.2460  -15.1071 N   0  0  0  0  0  0  0  0  0  0  0  0
   18.2419   -8.2522  -15.4423 C   0  0  0  0  0  0  0  0  0  0  0  0
   18.3562   -7.9726  -14.2246 O   0  0  0  0  0  0  0  0  0  0  0  0
   23.1216   -9.5556  -14.6546 N   0  0  0  0  0  0  0  0  0  0  0  0
   22.6298  -10.3970  -15.7100 C   0  0  0  0  0  0  0  0  0  0  0  0
   23.3888  -11.3223  -16.1136 O   0  0  0  0  0  0  0  0  0  0  0  0
   21.2810  -10.1455  -16.2717 C   0  0  0  0  0  0  0  0  0  0  0  0
   20.6360   -8.9477  -15.6278 C   0  0  2  0  0  0  0  0  0  0  0  0
   19.3202   -8.7547  -16.1972 N   0  0  0  0  0  0  0  0  0  0  0  0
   21.4602   -7.7121  -15.7664 C   0  0  0  0  0  0  0  0  0  0  0  0
   21.5934   -7.0744  -16.8290 O   0  0  0  0  0  0  0  0  0  0  0  0
   22.9981   -5.5133  -16.0463 C   0  0  0  0  0  0  0  0  0  0  0  0
   22.8124   -5.9196  -14.5871 C   0  0  2  0  0  0  0  0  0  0  0  0
   22.1413   -7.2146  -14.6288 N   0  0  0  0  0  0  0  0  0  0  0  0
   22.0313   -4.8915  -13.9240 C   0  0  0  0  0  0  0  0  0  0  0  0
   22.4743   -3.7518  -13.7172 O   0  0  0  0  0  0  0  0  0  0  0  0
   20.7225   -5.1804  -13.4948 O   0  0  0  0  0  0  0  0  0  0  0  0
  2  1  1  0
  3  2  1  0
  3  4  1  1
  5  3  1  0
  5  6  2  0
  8  7  1  0
  8 10  1  0
  9  8  2  0
 11 10  1  6
 11 12  1  0
 12  5  1  0
 13 11  1  0
 14 13  2  0
 16 15  1  6
 16 17  1  0
 17 13  1  0
 18 16  1  0
 18 20  1  0
 19 18  2  0
M  END
$$$$
