SNA.pdb
     RDKit          3D

 20 19  0  0  1  0  0  0  0  0999 V2000
   14.9237  -15.3642  -14.9353 O   0  0  0  0  0  0  0  0  0  0  0  0
   15.7874  -14.5885  -15.7011 C   0  0  0  0  0  0  0  0  0  0  0  0
   16.3639  -13.5267  -14.8362 C   0  0  2  0  0  0  0  0  0  0  0  0
   15.3436  -12.7586  -14.1784 N   0  0  0  0  0  0  0  0  0  0  0  0
   17.3771  -12.6784  -15.5395 C   0  0  0  0  0  0  0  0  0  0  0  0
   18.3083  -13.3013  -16.1041 O   0  0  0  0  0  0  0  0  0  0  0  0
   18.3188   -8.0264  -19.0431 N   0  0  0  0  0  0  0  0  0  0  0  0
   18.7250   -9.1915  -18.3075 C   0  0  0  0  0  0  0  0  0  0  0  0
   19.9451   -9.5137  -18.3615 O   0  0  0  0  0  0  0  0  0  0  0  0
   17.7141   -9.9529  -17.5351 C   0  0  0  0  0  0  0  0  0  0  0  0
   18.2845  -10.4556  -16.2361 C   0  0  2  0  0  0  0  0  0  0  0  0
   17.2945  -11.2721  -15.5684 N   0  0  0  0  0  0  0  0  0  0  0  0
   18.7450   -9.3486  -15.3486 C   0  0  0  0  0  0  0  0  0  0  0  0
   17.9811   -8.5616  -14.7564 O   0  0  0  0  0  0  0  0  0  0  0  0
   22.2147   -8.3324  -14.3635 C   0  0  0  0  0  0  0  0  0  0  0  0
   20.7022   -8.1570  -14.2617 C   0  0  2  0  0  0  0  0  0  0  0  0
   20.1353   -9.1646  -15.1517 N   0  0  0  0  0  0  0  0  0  0  0  0
   20.3740   -6.7983  -14.6530 C   0  0  0  0  0  0  0  0  0  0  0  0
   20.0769   -5.9232  -13.8260 O   0  0  0  0  0  0  0  0  0  0  0  0
   20.3897   -6.4434  -16.0148 O   0  0  0  0  0  0  0  0  0  0  0  0
  2  1  1  0
  3  2  1  0
  3  4  1  6
  5  3  1  0
  5  6  2  0
  8  7  1  0
  8 10  1  0
  9  8  2  0
 11 10  1  6
 11 12  1  0
 12  5  1  0
 13 11  1  0
 14 13  2  0
 16 15  1  6
 16 17  1  0
 17 13  1  0
 18 16  1  0
 18 20  1  0
 19 18  2  0
M  END
$$$$
