SNA.pdb
     RDKit          3D

 20 19  0  0  1  0  0  0  0  0999 V2000
   15.7456  -11.3589  -16.1437 O   0  0  0  0  0  0  0  0  0  0  0  0
   17.0185  -10.9891  -15.7225 C   0  0  0  0  0  0  0  0  0  0  0  0
   17.3138   -9.6293  -16.2434 C   0  0  2  0  0  0  0  0  0  0  0  0
   17.4534   -9.6217  -17.6732 N   0  0  0  0  0  0  0  0  0  0  0  0
   18.4528   -8.9618  -15.5378 C   0  0  0  0  0  0  0  0  0  0  0  0
   18.3468   -8.8831  -14.2902 O   0  0  0  0  0  0  0  0  0  0  0  0
   22.2586  -10.9920  -16.4155 N   0  0  0  0  0  0  0  0  0  0  0  0
   22.1087   -9.8970  -15.4978 C   0  0  0  0  0  0  0  0  0  0  0  0
   22.1005  -10.1720  -14.2651 O   0  0  0  0  0  0  0  0  0  0  0  0
   21.9687   -8.5190  -16.0266 C   0  0  0  0  0  0  0  0  0  0  0  0
   20.7024   -7.8713  -15.5344 C   0  0  2  0  0  0  0  0  0  0  0  0
   19.5728   -8.4537  -16.2254 N   0  0  0  0  0  0  0  0  0  0  0  0
   20.7180   -6.3888  -15.6993 C   0  0  0  0  0  0  0  0  0  0  0  0
   20.6867   -5.8061  -16.8006 O   0  0  0  0  0  0  0  0  0  0  0  0
   19.9303   -3.6192  -13.4873 C   0  0  0  0  0  0  0  0  0  0  0  0
   20.8719   -4.1186  -14.5792 C   0  0  2  0  0  0  0  0  0  0  0  0
   20.7695   -5.5736  -14.5423 N   0  0  0  0  0  0  0  0  0  0  0  0
   22.2075   -3.6315  -14.2867 C   0  0  0  0  0  0  0  0  0  0  0  0
   22.9857   -4.2388  -13.5359 O   0  0  0  0  0  0  0  0  0  0  0  0
   22.6525   -2.4294  -14.8679 O   0  0  0  0  0  0  0  0  0  0  0  0
  2  1  1  0
  3  2  1  0
  3  4  1  6
  5  3  1  0
  5  6  2  0
  8  7  1  0
  8 10  1  0
  9  8  2  0
 11 10  1  6
 11 12  1  0
 12  5  1  0
 13 11  1  0
 14 13  2  0
 16 15  1  1
 16 17  1  0
 17 13  1  0
 18 16  1  0
 18 20  1  0
 19 18  2  0
M  END
$$$$
