SNA.pdb
     RDKit          3D

 20 19  0  0  1  0  0  0  0  0999 V2000
   19.9920   -9.0988  -12.7993 O   0  0  0  0  0  0  0  0  0  0  0  0
   18.9985   -8.2222  -12.3766 C   0  0  0  0  0  0  0  0  0  0  0  0
   17.7675   -9.0035  -12.0902 C   0  0  2  0  0  0  0  0  0  0  0  0
   17.3063   -9.7200  -13.2468 N   0  0  0  0  0  0  0  0  0  0  0  0
   16.6938   -8.1929  -11.4337 C   0  0  0  0  0  0  0  0  0  0  0  0
   15.9244   -7.5798  -12.2121 O   0  0  0  0  0  0  0  0  0  0  0  0
   13.9178  -10.4817   -8.6198 N   0  0  0  0  0  0  0  0  0  0  0  0
   13.8239   -9.0671   -8.8517 C   0  0  0  0  0  0  0  0  0  0  0  0
   12.8341   -8.6546   -9.5191 O   0  0  0  0  0  0  0  0  0  0  0  0
   14.8740   -8.1704   -8.3119 C   0  0  0  0  0  0  0  0  0  0  0  0
   15.5039   -7.3481   -9.4039 C   0  0  2  0  0  0  0  0  0  0  0  0
   16.5525   -8.1205  -10.0337 N   0  0  0  0  0  0  0  0  0  0  0  0
   16.0318   -6.0451   -8.9050 C   0  0  0  0  0  0  0  0  0  0  0  0
   16.9450   -5.9351   -8.0639 O   0  0  0  0  0  0  0  0  0  0  0  0
   16.1293   -2.7917  -10.4052 C   0  0  0  0  0  0  0  0  0  0  0  0
   15.9713   -3.5152   -9.0710 C   0  0  2  0  0  0  0  0  0  0  0  0
   15.4741   -4.8447   -9.4086 N   0  0  0  0  0  0  0  0  0  0  0  0
   15.0522   -2.7530   -8.2458 C   0  0  0  0  0  0  0  0  0  0  0  0
   13.8596   -3.0676   -8.1166 O   0  0  0  0  0  0  0  0  0  0  0  0
   15.5138   -1.6142   -7.5596 O   0  0  0  0  0  0  0  0  0  0  0  0
  2  1  1  0
  3  2  1  0
  3  4  1  6
  5  3  1  0
  5  6  2  0
  8  7  1  0
  8 10  1  0
  9  8  2  0
 11 10  1  1
 11 12  1  0
 12  5  1  0
 13 11  1  0
 14 13  2  0
 16 15  1  6
 16 17  1  0
 17 13  1  0
 18 16  1  0
 18 20  1  0
 19 18  2  0
M  END
$$$$
