SNA.pdb
     RDKit          3D

 20 19  0  0  1  0  0  0  0  0999 V2000
   14.4968  -10.0224  -15.4956 O   0  0  0  0  0  0  0  0  0  0  0  0
   15.8062   -9.7553  -15.1105 C   0  0  0  0  0  0  0  0  0  0  0  0
   16.7136  -10.6715  -15.8486 C   0  0  2  0  0  0  0  0  0  0  0  0
   16.4013  -12.0514  -15.5989 N   0  0  0  0  0  0  0  0  0  0  0  0
   18.1627  -10.3516  -15.6518 C   0  0  0  0  0  0  0  0  0  0  0  0
   18.9278  -11.3407  -15.5514 O   0  0  0  0  0  0  0  0  0  0  0  0
   23.1263   -9.9073  -15.9737 N   0  0  0  0  0  0  0  0  0  0  0  0
   22.1996   -9.0719  -16.6858 C   0  0  0  0  0  0  0  0  0  0  0  0
   22.6734   -8.0759  -17.3013 O   0  0  0  0  0  0  0  0  0  0  0  0
   20.7552   -9.4058  -16.6649 C   0  0  0  0  0  0  0  0  0  0  0  0
   20.0530   -8.7208  -15.5234 C   0  0  2  0  0  0  0  0  0  0  0  0
   18.6407   -9.0280  -15.5832 N   0  0  0  0  0  0  0  0  0  0  0  0
   20.2752   -7.2457  -15.5193 C   0  0  0  0  0  0  0  0  0  0  0  0
   19.7696   -6.4588  -16.3431 O   0  0  0  0  0  0  0  0  0  0  0  0
   21.9652   -5.1109  -12.9630 C   0  0  0  0  0  0  0  0  0  0  0  0
   21.2722   -5.2485  -14.3156 C   0  0  2  0  0  0  0  0  0  0  0  0
   21.1093   -6.6836  -14.5223 N   0  0  0  0  0  0  0  0  0  0  0  0
   22.1066   -4.6166  -15.3212 C   0  0  0  0  0  0  0  0  0  0  0  0
   22.8076   -5.2704  -16.1080 O   0  0  0  0  0  0  0  0  0  0  0  0
   22.1326   -3.2131  -15.4221 O   0  0  0  0  0  0  0  0  0  0  0  0
  2  1  1  0
  3  2  1  0
  3  4  1  1
  5  3  1  0
  5  6  2  0
  8  7  1  0
  8 10  1  0
  9  8  2  0
 11 10  1  6
 11 12  1  0
 12  5  1  0
 13 11  1  0
 14 13  2  0
 16 15  1  1
 16 17  1  0
 17 13  1  0
 18 16  1  0
 18 20  1  0
 19 18  2  0
M  END
$$$$
