SNA.pdb
     RDKit          3D

 20 19  0  0  1  0  0  0  0  0999 V2000
   18.4148  -12.6796  -16.3009 O   0  0  0  0  0  0  0  0  0  0  0  0
   19.4824  -11.9181  -15.8378 C   0  0  0  0  0  0  0  0  0  0  0  0
   19.4431  -10.5912  -16.5054 C   0  0  2  0  0  0  0  0  0  0  0  0
   19.4648  -10.7106  -17.9368 N   0  0  0  0  0  0  0  0  0  0  0  0
   20.4682   -9.6356  -15.9793 C   0  0  0  0  0  0  0  0  0  0  0  0
   20.3899   -9.3761  -14.7544 O   0  0  0  0  0  0  0  0  0  0  0  0
   24.3904   -6.4080  -15.4526 N   0  0  0  0  0  0  0  0  0  0  0  0
   24.7485   -7.3432  -16.4825 C   0  0  0  0  0  0  0  0  0  0  0  0
   25.9381   -7.3107  -16.9056 O   0  0  0  0  0  0  0  0  0  0  0  0
   23.7256   -8.2850  -16.9973 C   0  0  0  0  0  0  0  0  0  0  0  0
   22.4039   -8.0875  -16.3048 C   0  0  2  0  0  0  0  0  0  0  0  0
   21.4581   -9.0625  -16.8021 N   0  0  0  0  0  0  0  0  0  0  0  0
   21.8743   -6.7028  -16.4698 C   0  0  0  0  0  0  0  0  0  0  0  0
   21.6939   -6.1483  -17.5715 O   0  0  0  0  0  0  0  0  0  0  0  0
   19.5287   -4.7639  -14.9328 C   0  0  0  0  0  0  0  0  0  0  0  0
   20.9883   -4.6071  -15.3494 C   0  0  2  0  0  0  0  0  0  0  0  0
   21.5476   -5.9542  -15.3128 N   0  0  0  0  0  0  0  0  0  0  0  0
   21.6314   -3.6952  -14.4212 C   0  0  0  0  0  0  0  0  0  0  0  0
   22.2007   -4.0883  -13.3920 O   0  0  0  0  0  0  0  0  0  0  0  0
   21.6192   -2.3125  -14.6832 O   0  0  0  0  0  0  0  0  0  0  0  0
  2  1  1  0
  3  2  1  0
  3  4  1  6
  5  3  1  0
  5  6  2  0
  8  7  1  0
  8 10  1  0
  9  8  2  0
 11 10  1  6
 11 12  1  0
 12  5  1  0
 13 11  1  0
 14 13  2  0
 16 15  1  1
 16 17  1  0
 17 13  1  0
 18 16  1  0
 18 20  1  0
 19 18  2  0
M  END
$$$$
