SNA.pdb
     RDKit          3D

 20 19  0  0  1  0  0  0  0  0999 V2000
   12.0902  -10.2077  -10.4030 O   0  0  0  0  0  0  0  0  0  0  0  0
   13.1427   -9.3164  -10.2238 C   0  0  0  0  0  0  0  0  0  0  0  0
   14.3164  -10.0667   -9.7068 C   0  0  2  0  0  0  0  0  0  0  0  0
   14.0588  -10.6414   -8.4157 N   0  0  0  0  0  0  0  0  0  0  0  0
   15.5886   -9.2793   -9.7569 C   0  0  0  0  0  0  0  0  0  0  0  0
   16.0171   -8.8700   -8.6512 O   0  0  0  0  0  0  0  0  0  0  0  0
   20.5065   -7.6811  -11.4619 N   0  0  0  0  0  0  0  0  0  0  0  0
   19.3867   -7.5213  -12.3473 C   0  0  0  0  0  0  0  0  0  0  0  0
   19.4480   -6.5870  -13.1950 O   0  0  0  0  0  0  0  0  0  0  0  0
   18.2284   -8.4391  -12.2279 C   0  0  0  0  0  0  0  0  0  0  0  0
   17.3752   -8.0895  -11.0383 C   0  0  2  0  0  0  0  0  0  0  0  0
   16.2642   -9.0130  -10.9644 N   0  0  0  0  0  0  0  0  0  0  0  0
   16.8907   -6.6792  -11.0780 C   0  0  0  0  0  0  0  0  0  0  0  0
   16.1577   -6.2152  -11.9730 O   0  0  0  0  0  0  0  0  0  0  0  0
   17.0963   -3.9910   -8.5079 C   0  0  0  0  0  0  0  0  0  0  0  0
   16.8361   -4.4070   -9.9528 C   0  0  2  0  0  0  0  0  0  0  0  0
   17.2757   -5.7955  -10.0405 N   0  0  0  0  0  0  0  0  0  0  0  0
   17.5794   -3.5155  -10.8243 C   0  0  0  0  0  0  0  0  0  0  0  0
   18.5718   -3.8904  -11.4665 O   0  0  0  0  0  0  0  0  0  0  0  0
   17.1728   -2.1748  -10.9583 O   0  0  0  0  0  0  0  0  0  0  0  0
  2  1  1  0
  3  2  1  0
  3  4  1  1
  5  3  1  0
  5  6  2  0
  8  7  1  0
  8 10  1  0
  9  8  2  0
 11 10  1  6
 11 12  1  0
 12  5  1  0
 13 11  1  0
 14 13  2  0
 16 15  1  1
 16 17  1  0
 17 13  1  0
 18 16  1  0
 18 20  1  0
 19 18  2  0
M  END
$$$$
