CVL.pdb
     RDKit          3D

 22 21  0  0  1  0  0  0  0  0999 V2000
    8.1640  -15.6593   17.8710 N   0  0  0  0  0  0  0  0  0  0  0  0
    8.5302  -14.8443   18.9894 C   0  0  1  0  0  0  0  0  0  0  0  0
    8.1833  -13.4003   18.7905 C   0  0  0  0  0  0  0  0  0  0  0  0
    8.5670  -12.3761   20.2101 S   0  0  0  0  0  0  0  0  0  0  0  0
    7.8260  -15.2872   20.2459 C   0  0  0  0  0  0  0  0  0  0  0  0
    6.5698  -15.3448   20.2650 O   0  0  0  0  0  0  0  0  0  0  0  0
    7.5868  -18.3497   21.4580 C   0  0  0  0  0  0  0  0  0  0  0  0
    8.2085  -17.6385   22.6376 C   0  0  1  0  0  0  0  0  0  0  0  0
    9.6655  -17.9467   22.6846 C   0  0  0  0  0  0  0  0  0  0  0  0
    7.8643  -16.1717   22.6046 C   0  0  2  0  0  0  0  0  0  0  0  0
    8.5574  -15.6417   21.4123 N   0  0  0  0  0  0  0  0  0  0  0  0
    8.5199  -15.4998   23.7849 C   0  0  0  0  0  0  0  0  0  0  0  0
    9.7221  -15.1222   23.7089 O   0  0  0  0  0  0  0  0  0  0  0  0
    7.6957  -11.8157   25.3230 C   0  0  0  0  0  0  0  0  0  0  0  0
    6.8526  -12.8343   26.0236 C   0  0  2  0  0  0  0  0  0  0  0  0
    5.6619  -12.2417   26.6731 C   0  0  0  0  0  0  0  0  0  0  0  0
    7.5617  -13.8246   26.8471 C   0  0  0  0  0  0  0  0  0  0  0  0
    8.5581  -14.6540   26.1197 C   0  0  2  0  0  0  0  0  0  0  0  0
    7.8246  -15.2739   24.9877 N   0  0  0  0  0  0  0  0  0  0  0  0
    9.2050  -15.7348   26.8411 C   0  0  0  0  0  0  0  0  0  0  0  0
    8.8203  -16.9524   26.6776 O   0  0  0  0  0  0  0  0  0  0  0  0
   10.2631  -15.6243   27.7431 O   0  0  0  0  0  0  0  0  0  0  0  0
  2  1  1  6
  2  3  1  0
  4  3  1  0
  5  2  1  0
  5  6  2  0
  8  7  1  6
  8 10  1  0
  9  8  1  0
 10 11  1  6
 10 12  1  0
 11  5  1  0
 12 19  1  0
 13 12  2  0
 15 16  1  1
 15 14  1  0
 17 15  1  0
 18 17  1  1
 19 18  1  0
 20 22  1  0
 20 18  1  0
 21 20  2  0
M  END
$$$$
