CVL.pdb
     RDKit          3D

 22 21  0  0  1  0  0  0  0  0999 V2000
    4.8741  -13.0688   26.6055 N   0  0  0  0  0  0  0  0  0  0  0  0
    6.1276  -12.7962   25.9701 C   0  0  1  0  0  0  0  0  0  0  0  0
    7.1203  -12.1644   26.8977 C   0  0  0  0  0  0  0  0  0  0  0  0
    8.5785  -11.5437   26.0609 S   0  0  0  0  0  0  0  0  0  0  0  0
    6.7663  -14.0585   25.4508 C   0  0  0  0  0  0  0  0  0  0  0  0
    6.7120  -15.1093   26.1396 O   0  0  0  0  0  0  0  0  0  0  0  0
    8.9995  -16.2900   21.6288 C   0  0  0  0  0  0  0  0  0  0  0  0
    8.3822  -15.0631   22.2593 C   0  0  1  0  0  0  0  0  0  0  0  0
    7.2071  -14.6337   21.4501 C   0  0  0  0  0  0  0  0  0  0  0  0
    8.0994  -15.3113   23.7186 C   0  0  2  0  0  0  0  0  0  0  0  0
    7.4303  -14.0827   24.1940 N   0  0  0  0  0  0  0  0  0  0  0  0
    9.4128  -15.3676   24.4576 C   0  0  0  0  0  0  0  0  0  0  0  0
   10.3268  -14.5407   24.1848 O   0  0  0  0  0  0  0  0  0  0  0  0
   10.6690  -13.6808   27.4448 C   0  0  0  0  0  0  0  0  0  0  0  0
   10.0866  -14.9712   27.9298 C   0  0  2  0  0  0  0  0  0  0  0  0
    9.6930  -14.9204   29.3558 C   0  0  0  0  0  0  0  0  0  0  0  0
   10.7907  -16.2014   27.5394 C   0  0  0  0  0  0  0  0  0  0  0  0
   11.0061  -16.3694   26.0781 C   0  0  2  0  0  0  0  0  0  0  0  0
    9.6574  -16.3258   25.4592 N   0  0  0  0  0  0  0  0  0  0  0  0
   11.6390  -17.5915   25.6165 C   0  0  0  0  0  0  0  0  0  0  0  0
   12.8230  -17.9047   26.0128 O   0  0  0  0  0  0  0  0  0  0  0  0
   11.0971  -18.5389   24.7480 O   0  0  0  0  0  0  0  0  0  0  0  0
  2  1  1  1
  2  3  1  0
  4  3  1  0
  5  2  1  0
  5  6  2  0
  8  7  1  6
  8 10  1  0
  9  8  1  0
 10 11  1  1
 10 12  1  0
 11  5  1  0
 12 19  1  0
 13 12  2  0
 15 16  1  1
 15 14  1  0
 17 15  1  0
 18 17  1  1
 19 18  1  0
 20 22  1  0
 20 18  1  0
 21 20  2  0
M  END
$$$$
