CVL.pdb
     RDKit          3D

 22 21  0  0  1  0  0  0  0  0999 V2000
    8.0614  -15.0741   17.6543 N   0  0  0  0  0  0  0  0  0  0  0  0
    8.5362  -14.4232   18.8376 C   0  0  1  0  0  0  0  0  0  0  0  0
    8.1909  -12.9656   18.8734 C   0  0  0  0  0  0  0  0  0  0  0  0
    8.7249  -12.1465   20.3753 S   0  0  0  0  0  0  0  0  0  0  0  0
    7.9415  -15.0372   20.0787 C   0  0  0  0  0  0  0  0  0  0  0  0
    6.6968  -14.9983   20.2542 O   0  0  0  0  0  0  0  0  0  0  0  0
    8.2994  -18.3642   23.5607 C   0  0  0  0  0  0  0  0  0  0  0  0
    8.5361  -17.7125   22.2180 C   0  0  1  0  0  0  0  0  0  0  0  0
    7.8408  -18.4993   21.1608 C   0  0  0  0  0  0  0  0  0  0  0  0
    8.1711  -16.2515   22.2741 C   0  0  2  0  0  0  0  0  0  0  0  0
    8.7638  -15.6609   21.0564 N   0  0  0  0  0  0  0  0  0  0  0  0
    8.9062  -15.6187   23.4289 C   0  0  0  0  0  0  0  0  0  0  0  0
   10.1675  -15.5652   23.4213 O   0  0  0  0  0  0  0  0  0  0  0  0
    6.1826  -12.8523   24.9600 C   0  0  0  0  0  0  0  0  0  0  0  0
    7.0107  -13.1612   26.1676 C   0  0  2  0  0  0  0  0  0  0  0  0
    6.5780  -12.4069   27.3655 C   0  0  0  0  0  0  0  0  0  0  0  0
    8.4674  -13.2078   25.9748 C   0  0  0  0  0  0  0  0  0  0  0  0
    9.0215  -14.5530   25.6692 C   0  0  2  0  0  0  0  0  0  0  0  0
    8.2222  -15.0749   24.5324 N   0  0  0  0  0  0  0  0  0  0  0  0
    8.9772  -15.5633   26.7106 C   0  0  0  0  0  0  0  0  0  0  0  0
    8.1813  -16.5702   26.6114 O   0  0  0  0  0  0  0  0  0  0  0  0
    9.7374  -15.5950   27.8796 O   0  0  0  0  0  0  0  0  0  0  0  0
  2  1  1  6
  2  3  1  0
  4  3  1  0
  5  2  1  0
  5  6  2  0
  8  7  1  1
  8 10  1  0
  9  8  1  0
 10 11  1  6
 10 12  1  0
 11  5  1  0
 12 19  1  0
 13 12  2  0
 15 16  1  1
 15 14  1  0
 17 15  1  0
 18 17  1  1
 19 18  1  0
 20 22  1  0
 20 18  1  0
 21 20  2  0
M  END
$$$$
