CVL.pdb
     RDKit          3D

 22 21  0  0  1  0  0  0  0  0999 V2000
    7.8626  -14.7131   17.8945 N   0  0  0  0  0  0  0  0  0  0  0  0
    8.4005  -14.1967   19.1164 C   0  0  1  0  0  0  0  0  0  0  0  0
    8.0055  -12.7729   19.3656 C   0  0  0  0  0  0  0  0  0  0  0  0
    8.6458  -12.1179   20.9060 S   0  0  0  0  0  0  0  0  0  0  0  0
    7.9235  -14.9902   20.3054 C   0  0  0  0  0  0  0  0  0  0  0  0
    6.7165  -15.3362   20.3760 O   0  0  0  0  0  0  0  0  0  0  0  0
    8.8999  -18.4532   23.4218 C   0  0  0  0  0  0  0  0  0  0  0  0
    9.1421  -17.5182   22.2596 C   0  0  1  0  0  0  0  0  0  0  0  0
    8.8722  -18.2398   20.9842 C   0  0  0  0  0  0  0  0  0  0  0  0
    8.3689  -16.2385   22.4480 C   0  0  2  0  0  0  0  0  0  0  0  0
    8.8152  -15.3555   21.3508 N   0  0  0  0  0  0  0  0  0  0  0  0
    8.8422  -15.5760   23.7174 C   0  0  0  0  0  0  0  0  0  0  0  0
   10.0559  -15.2540   23.8470 O   0  0  0  0  0  0  0  0  0  0  0  0
    7.6978  -11.8609   25.1434 C   0  0  0  0  0  0  0  0  0  0  0  0
    6.7601  -12.8561   25.7514 C   0  0  2  0  0  0  0  0  0  0  0  0
    5.5513  -12.2249   26.3270 C   0  0  0  0  0  0  0  0  0  0  0  0
    7.3606  -13.8978   26.5975 C   0  0  0  0  0  0  0  0  0  0  0  0
    8.5037  -14.6262   25.9871 C   0  0  2  0  0  0  0  0  0  0  0  0
    7.9614  -15.2982   24.7796 N   0  0  0  0  0  0  0  0  0  0  0  0
    9.1610  -15.6516   26.7769 C   0  0  0  0  0  0  0  0  0  0  0  0
    8.7877  -16.8807   26.6937 O   0  0  0  0  0  0  0  0  0  0  0  0
   10.2184  -15.4725   27.6687 O   0  0  0  0  0  0  0  0  0  0  0  0
  2  1  1  6
  2  3  1  0
  4  3  1  0
  5  2  1  0
  5  6  2  0
  8  7  1  1
  8 10  1  0
  9  8  1  0
 10 11  1  6
 10 12  1  0
 11  5  1  0
 12 19  1  0
 13 12  2  0
 15 16  1  1
 15 14  1  0
 17 15  1  0
 18 17  1  1
 19 18  1  0
 20 22  1  0
 20 18  1  0
 21 20  2  0
M  END
$$$$
