CVL.pdb
     RDKit          3D

 22 21  0  0  1  0  0  0  0  0999 V2000
    9.8078  -18.4468   19.0798 N   0  0  0  0  0  0  0  0  0  0  0  0
    8.9885  -18.2216   20.2319 C   0  0  1  0  0  0  0  0  0  0  0  0
    9.1608  -19.2793   21.2792 C   0  0  0  0  0  0  0  0  0  0  0  0
    8.6598  -20.9100   20.7302 S   0  0  0  0  0  0  0  0  0  0  0  0
    9.3159  -16.9062   20.8903 C   0  0  0  0  0  0  0  0  0  0  0  0
   10.5091  -16.5104   20.9248 O   0  0  0  0  0  0  0  0  0  0  0  0
    7.7832  -13.6174   20.1004 C   0  0  0  0  0  0  0  0  0  0  0  0
    7.5910  -13.8454   21.5819 C   0  0  1  0  0  0  0  0  0  0  0  0
    6.1769  -14.2383   21.8389 C   0  0  0  0  0  0  0  0  0  0  0  0
    8.6282  -14.8071   22.1019 C   0  0  2  0  0  0  0  0  0  0  0  0
    8.2983  -16.1033   21.4743 N   0  0  0  0  0  0  0  0  0  0  0  0
    8.3999  -15.0041   23.5795 C   0  0  0  0  0  0  0  0  0  0  0  0
    7.4900  -15.7824   23.9796 O   0  0  0  0  0  0  0  0  0  0  0  0
    8.4626  -11.7468   26.7604 C   0  0  0  0  0  0  0  0  0  0  0  0
    7.3926  -12.5457   26.0849 C   0  0  2  0  0  0  0  0  0  0  0  0
    6.0349  -12.0148   26.3417 C   0  0  0  0  0  0  0  0  0  0  0  0
    7.4994  -14.0087   26.1833 C   0  0  0  0  0  0  0  0  0  0  0  0
    8.8655  -14.5576   25.9778 C   0  0  2  0  0  0  0  0  0  0  0  0
    9.1812  -14.3401   24.5437 N   0  0  0  0  0  0  0  0  0  0  0  0
    9.0829  -15.9678   26.2449 C   0  0  0  0  0  0  0  0  0  0  0  0
    8.9542  -16.4349   27.4375 O   0  0  0  0  0  0  0  0  0  0  0  0
    9.4290  -16.9519   25.3190 O   0  0  0  0  0  0  0  0  0  0  0  0
  2  1  1  6
  2  3  1  0
  4  3  1  0
  5  2  1  0
  5  6  2  0
  8  7  1  6
  8 10  1  0
  9  8  1  0
 10 11  1  6
 10 12  1  0
 11  5  1  0
 12 19  1  0
 13 12  2  0
 15 16  1  1
 15 14  1  0
 17 15  1  0
 18 17  1  6
 19 18  1  0
 20 22  1  0
 20 18  1  0
 21 20  2  0
M  END
$$$$
