CVL.pdb
     RDKit          3D

 22 21  0  0  1  0  0  0  0  0999 V2000
   12.9392  -16.5222   20.0089 N   0  0  0  0  0  0  0  0  0  0  0  0
   12.0039  -17.1219   20.9116 C   0  0  1  0  0  0  0  0  0  0  0  0
   12.6707  -17.7863   22.0774 C   0  0  0  0  0  0  0  0  0  0  0  0
   13.5168  -19.3045   21.6405 S   0  0  0  0  0  0  0  0  0  0  0  0
   11.0578  -16.0977   21.4831 C   0  0  0  0  0  0  0  0  0  0  0  0
   11.5045  -14.9853   21.8635 O   0  0  0  0  0  0  0  0  0  0  0  0
    6.3664  -14.6517   21.7568 C   0  0  0  0  0  0  0  0  0  0  0  0
    7.4951  -15.5010   21.2197 C   0  0  1  0  0  0  0  0  0  0  0  0
    7.6698  -15.2233   19.7662 C   0  0  0  0  0  0  0  0  0  0  0  0
    8.7324  -15.3188   22.0604 C   0  0  2  0  0  0  0  0  0  0  0  0
    9.6667  -16.3667   21.6001 N   0  0  0  0  0  0  0  0  0  0  0  0
    8.3980  -15.6743   23.4873 C   0  0  0  0  0  0  0  0  0  0  0  0
    8.8805  -16.7185   24.0076 O   0  0  0  0  0  0  0  0  0  0  0  0
    8.5557  -12.6722   27.0532 C   0  0  0  0  0  0  0  0  0  0  0  0
    7.2940  -12.7993   26.2586 C   0  0  2  0  0  0  0  0  0  0  0  0
    6.3975  -11.6324   26.4190 C   0  0  0  0  0  0  0  0  0  0  0  0
    6.6102  -14.0998   26.3091 C   0  0  0  0  0  0  0  0  0  0  0  0
    7.3572  -15.2306   25.6982 C   0  0  2  0  0  0  0  0  0  0  0  0
    7.5536  -14.8670   24.2724 N   0  0  0  0  0  0  0  0  0  0  0  0
    6.7411  -16.5448   25.7138 C   0  0  0  0  0  0  0  0  0  0  0  0
    5.9588  -16.9116   24.7596 O   0  0  0  0  0  0  0  0  0  0  0  0
    6.8991  -17.5323   26.6861 O   0  0  0  0  0  0  0  0  0  0  0  0
  2  1  1  6
  2  3  1  0
  4  3  1  0
  5  2  1  0
  5  6  2  0
  8  7  1  1
  8 10  1  0
  9  8  1  0
 10 11  1  6
 10 12  1  0
 11  5  1  0
 12 19  1  0
 13 12  2  0
 15 16  1  1
 15 14  1  0
 17 15  1  0
 18 17  1  6
 19 18  1  0
 20 22  1  0
 20 18  1  0
 21 20  2  0
M  END
$$$$
