CVL.pdb
     RDKit          3D

 22 21  0  0  1  0  0  0  0  0999 V2000
    7.9918  -14.2337   17.5654 N   0  0  0  0  0  0  0  0  0  0  0  0
    8.5427  -13.8263   18.8223 C   0  0  1  0  0  0  0  0  0  0  0  0
    8.1289  -12.4400   19.2124 C   0  0  0  0  0  0  0  0  0  0  0  0
    8.7337  -11.9463   20.8255 S   0  0  0  0  0  0  0  0  0  0  0  0
    8.0998  -14.7377   19.9376 C   0  0  0  0  0  0  0  0  0  0  0  0
    6.9675  -15.2821   19.8806 O   0  0  0  0  0  0  0  0  0  0  0  0
    8.8100  -18.3436   22.6929 C   0  0  0  0  0  0  0  0  0  0  0  0
    9.1391  -17.2690   21.6826 C   0  0  1  0  0  0  0  0  0  0  0  0
    8.7550  -17.7399   20.3221 C   0  0  0  0  0  0  0  0  0  0  0  0
    8.5325  -15.9545   22.1008 C   0  0  2  0  0  0  0  0  0  0  0  0
    8.9404  -14.9937   21.0552 N   0  0  0  0  0  0  0  0  0  0  0  0
    9.2162  -15.4921   23.3630 C   0  0  0  0  0  0  0  0  0  0  0  0
    9.9256  -14.4479   23.3507 O   0  0  0  0  0  0  0  0  0  0  0  0
    8.3603  -12.7947   26.6672 C   0  0  0  0  0  0  0  0  0  0  0  0
    7.3316  -13.3462   25.7307 C   0  0  2  0  0  0  0  0  0  0  0  0
    5.9709  -12.8358   26.0115 C   0  0  0  0  0  0  0  0  0  0  0  0
    7.3928  -14.7898   25.4588 C   0  0  0  0  0  0  0  0  0  0  0  0
    8.6878  -15.4406   25.7892 C   0  0  2  0  0  0  0  0  0  0  0  0
    9.0864  -16.1960   24.5750 N   0  0  0  0  0  0  0  0  0  0  0  0
    8.7182  -16.3802   26.8952 C   0  0  0  0  0  0  0  0  0  0  0  0
    8.0700  -17.4904   26.8281 O   0  0  0  0  0  0  0  0  0  0  0  0
    9.4073  -16.2346   28.0991 O   0  0  0  0  0  0  0  0  0  0  0  0
  2  1  1  6
  2  3  1  0
  4  3  1  0
  5  2  1  0
  5  6  2  0
  8  7  1  1
  8 10  1  0
  9  8  1  0
 10 11  1  6
 10 12  1  0
 11  5  1  0
 12 19  1  0
 13 12  2  0
 15 16  1  1
 15 14  1  0
 17 15  1  0
 18 17  1  6
 19 18  1  0
 20 22  1  0
 20 18  1  0
 21 20  2  0
M  END
$$$$
