CVL.pdb
     RDKit          3D

 22 21  0  0  1  0  0  0  0  0999 V2000
    8.2404  -14.7282   17.6308 N   0  0  0  0  0  0  0  0  0  0  0  0
    8.6493  -14.1646   18.8815 C   0  0  1  0  0  0  0  0  0  0  0  0
    8.2769  -12.7192   19.0133 C   0  0  0  0  0  0  0  0  0  0  0  0
    8.7174  -12.0148   20.6012 S   0  0  0  0  0  0  0  0  0  0  0  0
    8.0099  -14.8816   20.0425 C   0  0  0  0  0  0  0  0  0  0  0  0
    6.7814  -15.1480   20.0059 O   0  0  0  0  0  0  0  0  0  0  0  0
    8.2328  -18.0690   20.8962 C   0  0  0  0  0  0  0  0  0  0  0  0
    8.7112  -17.4136   22.1710 C   0  0  1  0  0  0  0  0  0  0  0  0
   10.1967  -17.5055   22.2429 C   0  0  0  0  0  0  0  0  0  0  0  0
    8.1489  -16.0202   22.2856 C   0  0  2  0  0  0  0  0  0  0  0  0
    8.7720  -15.2630   21.1805 N   0  0  0  0  0  0  0  0  0  0  0  0
    8.6765  -15.3940   23.5520 C   0  0  0  0  0  0  0  0  0  0  0  0
    9.8597  -14.9559   23.5944 O   0  0  0  0  0  0  0  0  0  0  0  0
    7.7109  -11.8369   25.3816 C   0  0  0  0  0  0  0  0  0  0  0  0
    6.7790  -12.8795   25.9145 C   0  0  2  0  0  0  0  0  0  0  0  0
    5.5886  -12.2983   26.5749 C   0  0  0  0  0  0  0  0  0  0  0  0
    7.3899  -14.0000   26.6444 C   0  0  0  0  0  0  0  0  0  0  0  0
    8.4915  -14.6950   25.9280 C   0  0  2  0  0  0  0  0  0  0  0  0
    7.8805  -15.2777   24.7070 N   0  0  0  0  0  0  0  0  0  0  0  0
    9.1751  -15.7780   26.6114 C   0  0  0  0  0  0  0  0  0  0  0  0
    8.8575  -17.0032   26.3766 O   0  0  0  0  0  0  0  0  0  0  0  0
   10.2038  -15.6613   27.5461 O   0  0  0  0  0  0  0  0  0  0  0  0
  2  1  1  6
  2  3  1  0
  4  3  1  0
  5  2  1  0
  5  6  2  0
  8  7  1  6
  8 10  1  0
  9  8  1  0
 10 11  1  6
 10 12  1  0
 11  5  1  0
 12 19  1  0
 13 12  2  0
 15 16  1  1
 15 14  1  0
 17 15  1  0
 18 17  1  1
 19 18  1  0
 20 22  1  0
 20 18  1  0
 21 20  2  0
M  END
$$$$
