PVC.pdb
     RDKit          3D

 21 21  0  0  1  0  0  0  0  0999 V2000
    6.8292  -14.3899   21.2364 N   0  0  0  0  0  0  0  0  0  0  0  0
    6.2744  -13.2683   20.5235 C   0  0  0  0  0  0  0  0  0  0  0  0
    7.3822  -12.6797   19.6944 C   0  0  0  0  0  0  0  0  0  0  0  0
    8.6584  -13.1485   20.3334 C   0  0  0  0  0  0  0  0  0  0  0  0
    8.2545  -14.2598   21.2332 C   0  0  1  0  0  0  0  0  0  0  0  0
    8.7401  -14.1009   22.6326 C   0  0  0  0  0  0  0  0  0  0  0  0
    9.9510  -14.0419   22.8766 O   0  0  0  0  0  0  0  0  0  0  0  0
    5.9787  -13.6678   26.1096 C   0  0  0  0  0  0  0  0  0  0  0  0
    7.3603  -13.1138   25.9227 C   0  0  2  0  0  0  0  0  0  0  0  0
    7.3010  -11.6799   25.4898 C   0  0  0  0  0  0  0  0  0  0  0  0
    8.2532  -13.9851   25.1287 C   0  0  2  0  0  0  0  0  0  0  0  0
    7.8252  -14.0135   23.7135 N   0  0  0  0  0  0  0  0  0  0  0  0
    8.5208  -15.3406   25.6082 C   0  0  0  0  0  0  0  0  0  0  0  0
    7.6289  -16.2757   25.4932 O   0  0  0  0  0  0  0  0  0  0  0  0
    9.6949  -15.8241   26.2234 N   0  0  0  0  0  0  0  0  0  0  0  0
    9.8545  -17.2164   26.6877 C   0  0  1  0  0  0  0  0  0  0  0  0
   10.9403  -17.8124   25.8185 C   0  0  0  0  0  0  0  0  0  0  0  0
   11.3397  -19.4545   26.4697 S   0  0  0  0  0  0  0  0  0  0  0  0
   10.2443  -17.2616   28.0949 C   0  0  0  0  0  0  0  0  0  0  0  0
   10.6968  -16.2439   28.6742 O   0  0  0  0  0  0  0  0  0  0  0  0
   10.1204  -18.4287   28.8119 O   0  0  0  0  0  0  0  0  0  0  0  0
  2  3  1  0
  2  1  1  0
  4  3  1  0
  4  5  1  0
  5  1  1  0
  5  6  1  1
  7  6  2  0
  9  8  1  6
  9 11  1  0
 10  9  1  0
 11 13  1  0
 11 12  1  6
 12  6  1  0
 13 15  1  0
 14 13  2  0
 15 16  1  0
 16 17  1  6
 17 18  1  0
 19 16  1  0
 20 19  2  0
 21 19  1  0
M  END
$$$$
