PVC.pdb
     RDKit          3D

 21 21  0  0  1  0  0  0  0  0999 V2000
    6.7839  -14.6892   20.8516 N   0  0  0  0  0  0  0  0  0  0  0  0
    6.1688  -13.5128   20.2931 C   0  0  0  0  0  0  0  0  0  0  0  0
    7.2276  -12.7921   19.5052 C   0  0  0  0  0  0  0  0  0  0  0  0
    8.5396  -13.2860   20.0448 C   0  0  0  0  0  0  0  0  0  0  0  0
    8.2033  -14.5084   20.8197 C   0  0  1  0  0  0  0  0  0  0  0  0
    8.7320  -14.4963   22.2124 C   0  0  0  0  0  0  0  0  0  0  0  0
    9.9252  -14.2558   22.4314 O   0  0  0  0  0  0  0  0  0  0  0  0
    6.0484  -14.6960   25.7368 C   0  0  0  0  0  0  0  0  0  0  0  0
    7.3285  -13.9399   25.5361 C   0  0  2  0  0  0  0  0  0  0  0  0
    7.0486  -12.5276   25.1186 C   0  0  0  0  0  0  0  0  0  0  0  0
    8.3294  -14.6613   24.7207 C   0  0  2  0  0  0  0  0  0  0  0  0
    7.8794  -14.7595   23.3154 N   0  0  0  0  0  0  0  0  0  0  0  0
    8.8178  -15.9568   25.1919 C   0  0  0  0  0  0  0  0  0  0  0  0
    8.0582  -17.0079   25.1556 O   0  0  0  0  0  0  0  0  0  0  0  0
   10.0904  -16.2612   25.7195 N   0  0  0  0  0  0  0  0  0  0  0  0
   10.4510  -17.5884   26.2564 C   0  0  1  0  0  0  0  0  0  0  0  0
   11.9543  -17.6885   26.1159 C   0  0  0  0  0  0  0  0  0  0  0  0
   12.3763  -17.3730   24.3832 S   0  0  0  0  0  0  0  0  0  0  0  0
   10.0594  -17.7142   27.6583 C   0  0  0  0  0  0  0  0  0  0  0  0
    9.5154  -16.7602   28.2664 O   0  0  0  0  0  0  0  0  0  0  0  0
   10.2826  -18.8888   28.3381 O   0  0  0  0  0  0  0  0  0  0  0  0
  2  3  1  0
  2  1  1  0
  4  3  1  0
  4  5  1  0
  5  1  1  0
  5  6  1  1
  7  6  2  0
  9  8  1  6
  9 11  1  0
 10  9  1  0
 11 13  1  0
 11 12  1  6
 12  6  1  0
 13 15  1  0
 14 13  2  0
 15 16  1  0
 16 17  1  1
 17 18  1  0
 19 16  1  0
 20 19  2  0
 21 19  1  0
M  END
$$$$
