PVC.pdb
     RDKit          3D

 21 21  0  0  1  0  0  0  0  0999 V2000
    8.5173  -15.4124   20.4655 N   0  0  0  0  0  0  0  0  0  0  0  0
    9.2790  -16.5341   19.9798 C   0  0  0  0  0  0  0  0  0  0  0  0
    8.6763  -17.7724   20.5838 C   0  0  0  0  0  0  0  0  0  0  0  0
    7.9186  -17.3046   21.7936 C   0  0  0  0  0  0  0  0  0  0  0  0
    7.7941  -15.8334   21.6267 C   0  0  1  0  0  0  0  0  0  0  0  0
    8.2616  -15.0571   22.8091 C   0  0  0  0  0  0  0  0  0  0  0  0
    9.3719  -14.5124   22.8065 O   0  0  0  0  0  0  0  0  0  0  0  0
    6.1177  -12.5083   25.0501 C   0  0  0  0  0  0  0  0  0  0  0  0
    6.7644  -13.5849   25.8708 C   0  0  2  0  0  0  0  0  0  0  0  0
    7.0325  -13.0991   27.2634 C   0  0  0  0  0  0  0  0  0  0  0  0
    7.8989  -14.2525   25.1970 C   0  0  2  0  0  0  0  0  0  0  0  0
    7.4443  -14.9258   23.9613 N   0  0  0  0  0  0  0  0  0  0  0  0
    8.7544  -15.1444   25.9789 C   0  0  0  0  0  0  0  0  0  0  0  0
    8.5216  -16.4200   26.0240 O   0  0  0  0  0  0  0  0  0  0  0  0
    9.8847  -14.8015   26.7506 N   0  0  0  0  0  0  0  0  0  0  0  0
   10.7292  -15.7964   27.4411 C   0  0  1  0  0  0  0  0  0  0  0  0
   11.7132  -14.9931   28.2634 C   0  0  0  0  0  0  0  0  0  0  0  0
   10.7748  -13.7938   29.2438 S   0  0  0  0  0  0  0  0  0  0  0  0
    9.9275  -16.6604   28.3043 C   0  0  0  0  0  0  0  0  0  0  0  0
    8.7297  -16.3863   28.5615 O   0  0  0  0  0  0  0  0  0  0  0  0
   10.4771  -17.7958   28.8523 O   0  0  0  0  0  0  0  0  0  0  0  0
  2  3  1  0
  2  1  1  0
  4  3  1  0
  4  5  1  0
  5  1  1  0
  5  6  1  1
  7  6  2  0
  9  8  1  6
  9 11  1  0
 10  9  1  0
 11 13  1  0
 11 12  1  6
 12  6  1  0
 13 15  1  0
 14 13  2  0
 15 16  1  0
 16 17  1  1
 17 18  1  0
 19 16  1  0
 20 19  2  0
 21 19  1  0
M  END
$$$$
