PVC.pdb
     RDKit          3D

 21 21  0  0  1  0  0  0  0  0999 V2000
    8.1510  -15.0574   20.6815 N   0  0  0  0  0  0  0  0  0  0  0  0
    8.5496  -16.3193   20.1134 C   0  0  0  0  0  0  0  0  0  0  0  0
    7.6078  -17.3622   20.6487 C   0  0  0  0  0  0  0  0  0  0  0  0
    7.0189  -16.7721   21.8983 C   0  0  0  0  0  0  0  0  0  0  0  0
    7.3336  -15.3217   21.8263 C   0  0  1  0  0  0  0  0  0  0  0  0
    8.0065  -14.7958   23.0469 C   0  0  0  0  0  0  0  0  0  0  0  0
    9.2296  -14.6140   23.0634 O   0  0  0  0  0  0  0  0  0  0  0  0
    6.5072  -11.9459   25.4207 C   0  0  0  0  0  0  0  0  0  0  0  0
    6.9654  -13.1367   26.2100 C   0  0  2  0  0  0  0  0  0  0  0  0
    7.4225  -12.7216   27.5760 C   0  0  0  0  0  0  0  0  0  0  0  0
    7.8858  -14.0277   25.4710 C   0  0  2  0  0  0  0  0  0  0  0  0
    7.2597  -14.4923   24.2144 N   0  0  0  0  0  0  0  0  0  0  0  0
    8.4988  -15.1497   26.1811 C   0  0  0  0  0  0  0  0  0  0  0  0
    7.8020  -16.1968   26.4994 O   0  0  0  0  0  0  0  0  0  0  0  0
    9.8388  -15.2771   26.6037 N   0  0  0  0  0  0  0  0  0  0  0  0
   10.3481  -16.4455   27.3489 C   0  0  1  0  0  0  0  0  0  0  0  0
   11.7444  -16.6883   26.8187 C   0  0  0  0  0  0  0  0  0  0  0  0
   11.6475  -16.7881   25.0130 S   0  0  0  0  0  0  0  0  0  0  0  0
   10.3859  -16.1795   28.7849 C   0  0  0  0  0  0  0  0  0  0  0  0
   10.0791  -15.0515   29.2424 O   0  0  0  0  0  0  0  0  0  0  0  0
   10.7611  -17.1685   29.6639 O   0  0  0  0  0  0  0  0  0  0  0  0
  2  3  1  0
  2  1  1  0
  4  3  1  0
  4  5  1  0
  5  1  1  0
  5  6  1  1
  7  6  2  0
  9  8  1  6
  9 11  1  0
 10  9  1  0
 11 13  1  0
 11 12  1  6
 12  6  1  0
 13 15  1  0
 14 13  2  0
 15 16  1  0
 16 17  1  6
 17 18  1  0
 19 16  1  0
 20 19  2  0
 21 19  1  0
M  END
$$$$
