PVC.pdb
     RDKit          3D

 21 21  0  0  1  0  0  0  0  0999 V2000
    8.0124  -14.6082   20.4785 N   0  0  0  0  0  0  0  0  0  0  0  0
    8.1504  -15.8783   19.8137 C   0  0  0  0  0  0  0  0  0  0  0  0
    6.9571  -16.7095   20.1965 C   0  0  0  0  0  0  0  0  0  0  0  0
    6.4298  -16.1002   21.4643 C   0  0  0  0  0  0  0  0  0  0  0  0
    7.0743  -14.7641   21.5482 C   0  0  1  0  0  0  0  0  0  0  0  0
    7.7588  -14.5123   22.8472 C   0  0  0  0  0  0  0  0  0  0  0  0
    8.9884  -14.6060   22.9401 O   0  0  0  0  0  0  0  0  0  0  0  0
    6.3367  -11.7217   25.3921 C   0  0  0  0  0  0  0  0  0  0  0  0
    6.7739  -12.9663   26.1067 C   0  0  2  0  0  0  0  0  0  0  0  0
    7.2718  -12.6390   27.4822 C   0  0  0  0  0  0  0  0  0  0  0  0
    7.6506  -13.8434   25.3011 C   0  0  2  0  0  0  0  0  0  0  0  0
    7.0160  -14.1597   24.0034 N   0  0  0  0  0  0  0  0  0  0  0  0
    8.1869  -15.0571   25.9163 C   0  0  0  0  0  0  0  0  0  0  0  0
    7.4269  -16.0865   26.1305 O   0  0  0  0  0  0  0  0  0  0  0  0
    9.5097  -15.2979   26.3437 N   0  0  0  0  0  0  0  0  0  0  0  0
    9.9652  -16.5936   26.8856 C   0  0  1  0  0  0  0  0  0  0  0  0
   11.3447  -16.8144   26.3043 C   0  0  0  0  0  0  0  0  0  0  0  0
   11.2314  -16.6234   24.5069 S   0  0  0  0  0  0  0  0  0  0  0  0
   10.0246  -16.5633   28.3450 C   0  0  0  0  0  0  0  0  0  0  0  0
    9.7608  -15.5140   28.9818 O   0  0  0  0  0  0  0  0  0  0  0  0
   10.3729  -17.6924   29.0487 O   0  0  0  0  0  0  0  0  0  0  0  0
  2  3  1  0
  2  1  1  0
  4  3  1  0
  4  5  1  0
  5  1  1  0
  5  6  1  1
  7  6  2  0
  9  8  1  6
  9 11  1  0
 10  9  1  0
 11 13  1  0
 11 12  1  6
 12  6  1  0
 13 15  1  0
 14 13  2  0
 15 16  1  0
 16 17  1  6
 17 18  1  0
 19 16  1  0
 20 19  2  0
 21 19  1  0
M  END
$$$$
