PVC.pdb
     RDKit          3D

 21 21  0  0  1  0  0  0  0  0999 V2000
    7.9208  -14.3945   20.3915 N   0  0  0  0  0  0  0  0  0  0  0  0
    8.1413  -15.6369   19.6974 C   0  0  0  0  0  0  0  0  0  0  0  0
    7.0433  -16.5765   20.1133 C   0  0  0  0  0  0  0  0  0  0  0  0
    6.5194  -16.0359   21.4133 C   0  0  0  0  0  0  0  0  0  0  0  0
    7.0469  -14.6493   21.4959 C   0  0  1  0  0  0  0  0  0  0  0  0
    7.7617  -14.3578   22.7700 C   0  0  0  0  0  0  0  0  0  0  0  0
    8.9977  -14.3494   22.8114 O   0  0  0  0  0  0  0  0  0  0  0  0
    6.4544  -11.7414   25.5437 C   0  0  0  0  0  0  0  0  0  0  0  0
    6.8578  -13.0514   26.1536 C   0  0  2  0  0  0  0  0  0  0  0  0
    7.3790  -12.8490   27.5445 C   0  0  0  0  0  0  0  0  0  0  0  0
    7.6981  -13.8898   25.2716 C   0  0  2  0  0  0  0  0  0  0  0  0
    7.0411  -14.0836   23.9610 N   0  0  0  0  0  0  0  0  0  0  0  0
    8.2011  -15.1640   25.7837 C   0  0  0  0  0  0  0  0  0  0  0  0
    7.4026  -16.1703   25.9655 O   0  0  0  0  0  0  0  0  0  0  0  0
    9.5276  -15.4913   26.1358 N   0  0  0  0  0  0  0  0  0  0  0  0
    9.9211  -16.8016   26.6907 C   0  0  1  0  0  0  0  0  0  0  0  0
   11.2422  -17.1401   26.0353 C   0  0  0  0  0  0  0  0  0  0  0  0
   11.0378  -16.9691   24.2439 S   0  0  0  0  0  0  0  0  0  0  0  0
   10.0730  -16.7354   28.1422 C   0  0  0  0  0  0  0  0  0  0  0  0
    9.9145  -15.6547   28.7609 O   0  0  0  0  0  0  0  0  0  0  0  0
   10.3944  -17.8648   28.8583 O   0  0  0  0  0  0  0  0  0  0  0  0
  2  3  1  0
  2  1  1  0
  4  3  1  0
  4  5  1  0
  5  1  1  0
  5  6  1  1
  7  6  2  0
  9  8  1  6
  9 11  1  0
 10  9  1  0
 11 13  1  0
 11 12  1  6
 12  6  1  0
 13 15  1  0
 14 13  2  0
 15 16  1  0
 16 17  1  6
 17 18  1  0
 19 16  1  0
 20 19  2  0
 21 19  1  0
M  END
$$$$
