PVC.pdb
     RDKit          3D

 21 21  0  0  1  0  0  0  0  0999 V2000
    7.9407  -14.4457   20.3230 N   0  0  0  0  0  0  0  0  0  0  0  0
    8.1196  -15.6977   19.6341 C   0  0  0  0  0  0  0  0  0  0  0  0
    6.9699  -16.5850   20.0242 C   0  0  0  0  0  0  0  0  0  0  0  0
    6.4414  -16.0196   21.3117 C   0  0  0  0  0  0  0  0  0  0  0  0
    7.0305  -14.6587   21.4068 C   0  0  1  0  0  0  0  0  0  0  0  0
    7.7282  -14.3994   22.6972 C   0  0  0  0  0  0  0  0  0  0  0  0
    8.9620  -14.4450   22.7667 O   0  0  0  0  0  0  0  0  0  0  0  0
    6.3374  -11.7029   25.4278 C   0  0  0  0  0  0  0  0  0  0  0  0
    6.7446  -13.0134   26.0343 C   0  0  2  0  0  0  0  0  0  0  0  0
    7.2056  -12.8214   27.4477 C   0  0  0  0  0  0  0  0  0  0  0  0
    7.6373  -13.8201   25.1745 C   0  0  2  0  0  0  0  0  0  0  0  0
    6.9933  -14.0945   23.8719 N   0  0  0  0  0  0  0  0  0  0  0  0
    8.2231  -15.0433   25.7219 C   0  0  0  0  0  0  0  0  0  0  0  0
    7.5009  -16.1068   25.8972 O   0  0  0  0  0  0  0  0  0  0  0  0
    9.5600  -15.2599   26.1173 N   0  0  0  0  0  0  0  0  0  0  0  0
   10.0439  -16.5357   26.6812 C   0  0  1  0  0  0  0  0  0  0  0  0
   11.3858  -16.7854   26.0281 C   0  0  0  0  0  0  0  0  0  0  0  0
   12.1291  -18.2375   26.8148 S   0  0  0  0  0  0  0  0  0  0  0  0
   10.1901  -16.4491   28.1322 C   0  0  0  0  0  0  0  0  0  0  0  0
   10.4094  -15.3491   28.6961 O   0  0  0  0  0  0  0  0  0  0  0  0
   10.0887  -17.5800   28.9084 O   0  0  0  0  0  0  0  0  0  0  0  0
  2  3  1  0
  2  1  1  0
  4  3  1  0
  4  5  1  0
  5  1  1  0
  5  6  1  1
  7  6  2  0
  9  8  1  6
  9 11  1  0
 10  9  1  0
 11 13  1  0
 11 12  1  6
 12  6  1  0
 13 15  1  0
 14 13  2  0
 15 16  1  0
 16 17  1  6
 17 18  1  0
 19 16  1  0
 20 19  2  0
 21 19  1  0
M  END
$$$$
