PVC.pdb
     RDKit          3D

 21 21  0  0  1  0  0  0  0  0999 V2000
    7.0512  -15.8670   21.8119 N   0  0  0  0  0  0  0  0  0  0  0  0
    6.3142  -15.1808   20.7823 C   0  0  0  0  0  0  0  0  0  0  0  0
    7.3216  -14.6142   19.8205 C   0  0  0  0  0  0  0  0  0  0  0  0
    8.6139  -14.5438   20.5832 C   0  0  0  0  0  0  0  0  0  0  0  0
    8.4035  -15.3993   21.7798 C   0  0  1  0  0  0  0  0  0  0  0  0
    8.7215  -14.7163   23.0650 C   0  0  0  0  0  0  0  0  0  0  0  0
    9.8821  -14.3819   23.3305 O   0  0  0  0  0  0  0  0  0  0  0  0
    6.3950  -12.0051   24.9440 C   0  0  0  0  0  0  0  0  0  0  0  0
    6.8207  -13.1193   25.8540 C   0  0  2  0  0  0  0  0  0  0  0  0
    6.9228  -12.6364   27.2694 C   0  0  0  0  0  0  0  0  0  0  0  0
    7.9805  -13.8900   25.3561 C   0  0  2  0  0  0  0  0  0  0  0  0
    7.7013  -14.4348   24.0099 N   0  0  0  0  0  0  0  0  0  0  0  0
    8.5588  -14.9230   26.2148 C   0  0  0  0  0  0  0  0  0  0  0  0
    7.9296  -16.0365   26.4329 O   0  0  0  0  0  0  0  0  0  0  0  0
    9.7951  -14.8907   26.8937 N   0  0  0  0  0  0  0  0  0  0  0  0
   10.2324  -15.9401   27.8357 C   0  0  1  0  0  0  0  0  0  0  0  0
   11.5180  -16.4926   27.2598 C   0  0  0  0  0  0  0  0  0  0  0  0
   12.2129  -17.6577   28.4596 S   0  0  0  0  0  0  0  0  0  0  0  0
   10.4651  -15.3887   29.1684 C   0  0  0  0  0  0  0  0  0  0  0  0
   10.6064  -16.1402   30.1641 O   0  0  0  0  0  0  0  0  0  0  0  0
   10.5335  -14.0277   29.3538 O   0  0  0  0  0  0  0  0  0  0  0  0
  2  3  1  0
  2  1  1  0
  4  3  1  0
  4  5  1  0
  5  1  1  0
  5  6  1  1
  7  6  2  0
  9  8  1  6
  9 11  1  0
 10  9  1  0
 11 13  1  0
 11 12  1  6
 12  6  1  0
 13 15  1  0
 14 13  2  0
 15 16  1  0
 16 17  1  6
 17 18  1  0
 19 16  1  0
 20 19  2  0
 21 19  1  0
M  END
$$$$
