PVC.pdb
     RDKit          3D

 21 21  0  0  1  0  0  0  0  0999 V2000
    6.7265  -14.5559   21.1026 N   0  0  0  0  0  0  0  0  0  0  0  0
    6.3738  -13.4719   20.2224 C   0  0  0  0  0  0  0  0  0  0  0  0
    7.5935  -13.1537   19.4024 C   0  0  0  0  0  0  0  0  0  0  0  0
    8.7566  -13.7049   20.1769 C   0  0  0  0  0  0  0  0  0  0  0  0
    8.1542  -14.6234   21.1776 C   0  0  1  0  0  0  0  0  0  0  0  0
    8.5897  -14.3509   22.5759 C   0  0  0  0  0  0  0  0  0  0  0  0
    9.7820  -14.4371   22.8927 O   0  0  0  0  0  0  0  0  0  0  0  0
    7.5348  -12.1605   26.8730 C   0  0  0  0  0  0  0  0  0  0  0  0
    7.0480  -12.7931   25.6026 C   0  0  2  0  0  0  0  0  0  0  0  0
    5.6680  -13.3495   25.7840 C   0  0  0  0  0  0  0  0  0  0  0  0
    8.0276  -13.7049   24.9734 C   0  0  2  0  0  0  0  0  0  0  0  0
    7.6475  -13.9867   23.5723 N   0  0  0  0  0  0  0  0  0  0  0  0
    8.3797  -14.9441   25.6657 C   0  0  0  0  0  0  0  0  0  0  0  0
    7.5861  -15.9701   25.6393 O   0  0  0  0  0  0  0  0  0  0  0  0
    9.5440  -15.2150   26.4151 N   0  0  0  0  0  0  0  0  0  0  0  0
    9.7683  -16.4826   27.1380 C   0  0  1  0  0  0  0  0  0  0  0  0
   10.7310  -17.2745   26.2802 C   0  0  0  0  0  0  0  0  0  0  0  0
   11.1726  -18.7822   27.1812 S   0  0  0  0  0  0  0  0  0  0  0  0
   10.3415  -16.2415   28.4600 C   0  0  0  0  0  0  0  0  0  0  0  0
   10.8206  -15.1214   28.7632 O   0  0  0  0  0  0  0  0  0  0  0  0
   10.3649  -17.2456   29.3995 O   0  0  0  0  0  0  0  0  0  0  0  0
  2  3  1  0
  2  1  1  0
  4  3  1  0
  4  5  1  0
  5  1  1  0
  5  6  1  1
  7  6  2  0
  9  8  1  1
  9 11  1  0
 10  9  1  0
 11 13  1  0
 11 12  1  6
 12  6  1  0
 13 15  1  0
 14 13  2  0
 15 16  1  0
 16 17  1  6
 17 18  1  0
 19 16  1  0
 20 19  2  0
 21 19  1  0
M  END
$$$$
