PVC.pdb
     RDKit          3D

 21 21  0  0  1  0  0  0  0  0999 V2000
    8.0803  -14.8756   20.7404 N   0  0  0  0  0  0  0  0  0  0  0  0
    8.4016  -16.1385   20.1271 C   0  0  0  0  0  0  0  0  0  0  0  0
    7.3874  -17.1366   20.6130 C   0  0  0  0  0  0  0  0  0  0  0  0
    6.8243  -16.5572   21.8794 C   0  0  0  0  0  0  0  0  0  0  0  0
    7.2343  -15.1290   21.8668 C   0  0  1  0  0  0  0  0  0  0  0  0
    7.9264  -14.6959   23.1128 C   0  0  0  0  0  0  0  0  0  0  0  0
    9.1599  -14.6177   23.1539 O   0  0  0  0  0  0  0  0  0  0  0  0
    6.3426  -11.8565   25.4292 C   0  0  0  0  0  0  0  0  0  0  0  0
    6.8929  -12.9821   26.2545 C   0  0  2  0  0  0  0  0  0  0  0  0
    7.3919  -12.4753   27.5741 C   0  0  0  0  0  0  0  0  0  0  0  0
    7.8198  -13.8682   25.5179 C   0  0  2  0  0  0  0  0  0  0  0  0
    7.1864  -14.3639   24.2769 N   0  0  0  0  0  0  0  0  0  0  0  0
    8.4618  -14.9676   26.2375 C   0  0  0  0  0  0  0  0  0  0  0  0
    7.7768  -15.9985   26.6266 O   0  0  0  0  0  0  0  0  0  0  0  0
    9.8201  -15.0877   26.5995 N   0  0  0  0  0  0  0  0  0  0  0  0
   10.3517  -16.2091   27.3993 C   0  0  1  0  0  0  0  0  0  0  0  0
   11.7312  -16.4866   26.8429 C   0  0  0  0  0  0  0  0  0  0  0  0
   11.6015  -16.5621   25.0381 S   0  0  0  0  0  0  0  0  0  0  0  0
   10.4333  -15.8554   28.8144 C   0  0  0  0  0  0  0  0  0  0  0  0
   10.8050  -16.6947   29.6709 O   0  0  0  0  0  0  0  0  0  0  0  0
   10.1016  -14.5880   29.2329 O   0  0  0  0  0  0  0  0  0  0  0  0
  2  3  1  0
  2  1  1  0
  4  3  1  0
  4  5  1  0
  5  1  1  0
  5  6  1  1
  7  6  2  0
  9  8  1  6
  9 11  1  0
 10  9  1  0
 11 13  1  0
 11 12  1  6
 12  6  1  0
 13 15  1  0
 14 13  2  0
 15 16  1  0
 16 17  1  6
 17 18  1  0
 19 16  1  0
 20 19  2  0
 21 19  1  0
M  END
$$$$
