PVC.pdb
     RDKit          3D

 21 21  0  0  1  0  0  0  0  0999 V2000
    8.8001  -17.3312   15.9986 N   0  0  0  0  0  0  0  0  0  0  0  0
    9.1907  -18.6866   15.7081 C   0  0  0  0  0  0  0  0  0  0  0  0
    8.1984  -19.5882   16.3891 C   0  0  0  0  0  0  0  0  0  0  0  0
    7.5692  -18.7545   17.4688 C   0  0  0  0  0  0  0  0  0  0  0  0
    7.9249  -17.3520   17.1309 C   0  0  1  0  0  0  0  0  0  0  0  0
    8.5554  -16.6084   18.2574 C   0  0  0  0  0  0  0  0  0  0  0  0
    9.7747  -16.6756   18.4526 O   0  0  0  0  0  0  0  0  0  0  0  0
    7.1312  -12.9849   19.5712 C   0  0  0  0  0  0  0  0  0  0  0  0
    7.4410  -13.9585   20.6698 C   0  0  2  0  0  0  0  0  0  0  0  0
    7.8223  -13.2347   21.9258 C   0  0  0  0  0  0  0  0  0  0  0  0
    8.3476  -15.0535   20.2624 C   0  0  2  0  0  0  0  0  0  0  0  0
    7.7719  -15.8082   19.1284 N   0  0  0  0  0  0  0  0  0  0  0  0
    8.8451  -15.9716   21.2863 C   0  0  0  0  0  0  0  0  0  0  0  0
    8.2183  -17.0762   21.5513 O   0  0  0  0  0  0  0  0  0  0  0  0
    9.9947  -15.8280   22.0915 N   0  0  0  0  0  0  0  0  0  0  0  0
   10.5226  -16.9043   22.9534 C   0  0  1  0  0  0  0  0  0  0  0  0
   11.3390  -17.7924   22.0400 C   0  0  0  0  0  0  0  0  0  0  0  0
   12.0974  -19.0888   23.0520 S   0  0  0  0  0  0  0  0  0  0  0  0
   11.3596  -16.3622   24.0210 C   0  0  0  0  0  0  0  0  0  0  0  0
   11.8409  -15.2054   23.9419 O   0  0  0  0  0  0  0  0  0  0  0  0
   11.6352  -17.1167   25.1373 O   0  0  0  0  0  0  0  0  0  0  0  0
  2  3  1  0
  2  1  1  0
  4  3  1  0
  4  5  1  0
  5  1  1  0
  5  6  1  1
  7  6  2  0
  9  8  1  6
  9 11  1  0
 10  9  1  0
 11 13  1  0
 11 12  1  6
 12  6  1  0
 13 15  1  0
 14 13  2  0
 15 16  1  0
 16 17  1  6
 17 18  1  0
 19 16  1  0
 20 19  2  0
 21 19  1  0
M  END
$$$$
