PVC.pdb
     RDKit          3D

 21 21  0  0  1  0  0  0  0  0999 V2000
    8.2525  -14.9540   20.4442 N   0  0  0  0  0  0  0  0  0  0  0  0
    8.4335  -16.2330   19.8073 C   0  0  0  0  0  0  0  0  0  0  0  0
    7.2589  -17.0890   20.1930 C   0  0  0  0  0  0  0  0  0  0  0  0
    6.6995  -16.4692   21.4418 C   0  0  0  0  0  0  0  0  0  0  0  0
    7.3060  -15.1142   21.5059 C   0  0  1  0  0  0  0  0  0  0  0  0
    7.9673  -14.8174   22.8074 C   0  0  0  0  0  0  0  0  0  0  0  0
    9.1934  -14.9228   22.9297 O   0  0  0  0  0  0  0  0  0  0  0  0
    6.5995  -11.9081   25.2581 C   0  0  0  0  0  0  0  0  0  0  0  0
    6.9505  -13.1619   26.0034 C   0  0  2  0  0  0  0  0  0  0  0  0
    7.4115  -12.8396   27.3929 C   0  0  0  0  0  0  0  0  0  0  0  0
    7.8144  -14.0899   25.2421 C   0  0  2  0  0  0  0  0  0  0  0  0
    7.2060  -14.4075   23.9322 N   0  0  0  0  0  0  0  0  0  0  0  0
    8.2827  -15.3109   25.8969 C   0  0  0  0  0  0  0  0  0  0  0  0
    7.4969  -16.3335   26.0389 O   0  0  0  0  0  0  0  0  0  0  0  0
    9.5603  -15.5663   26.4382 N   0  0  0  0  0  0  0  0  0  0  0  0
    9.9455  -16.8602   27.0360 C   0  0  1  0  0  0  0  0  0  0  0  0
   11.0871  -17.3759   26.1872 C   0  0  0  0  0  0  0  0  0  0  0  0
   11.6611  -18.9344   26.9092 S   0  0  0  0  0  0  0  0  0  0  0  0
   10.3746  -16.6935   28.4225 C   0  0  0  0  0  0  0  0  0  0  0  0
   10.8169  -15.5936   28.8353 O   0  0  0  0  0  0  0  0  0  0  0  0
   10.2997  -17.7472   29.3032 O   0  0  0  0  0  0  0  0  0  0  0  0
  2  3  1  0
  2  1  1  0
  4  3  1  0
  4  5  1  0
  5  1  1  0
  5  6  1  1
  7  6  2  0
  9  8  1  6
  9 11  1  0
 10  9  1  0
 11 13  1  0
 11 12  1  6
 12  6  1  0
 13 15  1  0
 14 13  2  0
 15 16  1  0
 16 17  1  6
 17 18  1  0
 19 16  1  0
 20 19  2  0
 21 19  1  0
M  END
$$$$
