PVC.pdb
     RDKit          3D

 21 21  0  0  1  0  0  0  0  0999 V2000
    8.2127  -14.9135   20.7573 N   0  0  0  0  0  0  0  0  0  0  0  0
    8.6278  -16.1543   20.1555 C   0  0  0  0  0  0  0  0  0  0  0  0
    7.6983  -17.2231   20.6603 C   0  0  0  0  0  0  0  0  0  0  0  0
    7.1003  -16.6749   21.9246 C   0  0  0  0  0  0  0  0  0  0  0  0
    7.3969  -15.2192   21.8929 C   0  0  1  0  0  0  0  0  0  0  0  0
    8.0614  -14.7187   23.1287 C   0  0  0  0  0  0  0  0  0  0  0  0
    9.2827  -14.5256   23.1534 O   0  0  0  0  0  0  0  0  0  0  0  0
    6.4527  -11.9118   25.4521 C   0  0  0  0  0  0  0  0  0  0  0  0
    6.9593  -13.0656   26.2663 C   0  0  2  0  0  0  0  0  0  0  0  0
    7.3985  -12.6030   27.6228 C   0  0  0  0  0  0  0  0  0  0  0  0
    7.9158  -13.9335   25.5459 C   0  0  2  0  0  0  0  0  0  0  0  0
    7.3086  -14.4527   24.3015 N   0  0  0  0  0  0  0  0  0  0  0  0
    8.5764  -15.0121   26.2801 C   0  0  0  0  0  0  0  0  0  0  0  0
    7.9250  -16.0806   26.6227 O   0  0  0  0  0  0  0  0  0  0  0  0
    9.9208  -15.0727   26.7037 N   0  0  0  0  0  0  0  0  0  0  0  0
   10.4713  -16.1852   27.5032 C   0  0  1  0  0  0  0  0  0  0  0  0
   11.8749  -16.4041   26.9820 C   0  0  0  0  0  0  0  0  0  0  0  0
   11.7748  -16.6463   25.1901 S   0  0  0  0  0  0  0  0  0  0  0  0
   10.5007  -15.8489   28.9246 C   0  0  0  0  0  0  0  0  0  0  0  0
   10.1699  -14.7065   29.3263 O   0  0  0  0  0  0  0  0  0  0  0  0
   10.8943  -16.7860   29.8511 O   0  0  0  0  0  0  0  0  0  0  0  0
  2  3  1  0
  2  1  1  0
  4  3  1  0
  4  5  1  0
  5  1  1  0
  5  6  1  1
  7  6  2  0
  9  8  1  6
  9 11  1  0
 10  9  1  0
 11 13  1  0
 11 12  1  6
 12  6  1  0
 13 15  1  0
 14 13  2  0
 15 16  1  0
 16 17  1  6
 17 18  1  0
 19 16  1  0
 20 19  2  0
 21 19  1  0
M  END
$$$$
