YHE.pdb
     RDKit          3D

 32 33  0  0  1  0  0  0  0  0999 V2000
   21.3729  -12.7292  -20.9446 O   0  0  0  0  0  0  0  0  0  0  0  0
   21.4180  -14.0041  -20.3540 C   0  0  0  0  0  0  0  0  0  0  0  0
   21.4080  -15.1395  -21.1359 C   0  0  0  0  0  0  0  0  0  0  0  0
   21.4526  -16.4139  -20.5560 C   0  0  0  0  0  0  0  0  0  0  0  0
   21.5070  -16.5305  -19.1912 C   0  0  0  0  0  0  0  0  0  0  0  0
   21.5544  -17.8682  -18.5748 C   0  0  0  0  0  0  0  0  0  0  0  0
   23.0254  -18.2203  -18.3465 C   0  0  2  0  0  0  0  0  0  0  0  0
   23.6776  -18.5727  -19.5922 N   0  0  0  0  0  0  0  0  0  0  0  0
   23.0586  -19.3445  -17.3778 C   0  0  0  0  0  0  0  0  0  0  0  0
   23.1871  -20.5184  -17.8055 O   0  0  0  0  0  0  0  0  0  0  0  0
   21.5170  -15.4097  -18.4129 C   0  0  0  0  0  0  0  0  0  0  0  0
   21.4729  -14.1361  -18.9812 C   0  0  0  0  0  0  0  0  0  0  0  0
   22.9428  -19.0434  -15.9982 N   0  0  0  0  0  0  0  0  0  0  0  0
   23.0758  -20.0752  -14.9994 C   0  0  1  0  0  0  0  0  0  0  0  0
   24.2902  -19.9351  -14.1747 C   0  0  0  0  0  0  0  0  0  0  0  0
   25.5116  -20.3287  -14.8773 C   0  0  0  0  0  0  0  0  0  0  0  0
   25.6807  -20.8664  -16.1026 C   0  0  0  0  0  0  0  0  0  0  0  0
   27.0144  -21.0805  -16.3115 N   0  0  0  0  0  0  0  0  0  0  0  0
   27.6789  -20.6783  -15.2194 C   0  0  0  0  0  0  0  0  0  0  0  0
   26.7708  -20.2252  -14.3554 N   0  0  0  0  0  0  0  0  0  0  0  0
   21.8232  -20.0602  -14.1790 C   0  0  0  0  0  0  0  0  0  0  0  0
   21.3415  -18.9417  -13.9064 O   0  0  0  0  0  0  0  0  0  0  0  0
   21.1793  -21.2137  -13.7124 N   0  0  0  0  0  0  0  0  0  0  0  0
   19.9681  -21.2221  -12.9188 C   0  0  1  0  0  0  0  0  0  0  0  0
   19.2955  -22.5448  -12.8649 C   0  0  0  0  0  0  0  0  0  0  0  0
   18.0328  -22.6403  -12.0934 C   0  0  0  0  0  0  0  0  0  0  0  0
   17.4625  -24.0018  -12.0512 C   0  0  0  0  0  0  0  0  0  0  0  0
   18.0051  -24.9900  -11.5028 O   0  0  0  0  0  0  0  0  0  0  0  0
   20.2334  -20.5686  -11.6371 C   0  0  0  0  0  0  0  0  0  0  0  0
   21.3197  -20.7183  -11.0313 O   0  0  0  0  0  0  0  0  0  0  0  0
   16.2205  -24.2568  -12.6577 O   0  0  0  0  0  0  0  0  0  0  0  0
   19.2790  -19.7599  -11.0534 O   0  0  0  0  0  0  0  0  0  0  0  0
  2 12  2  0
  2  1  1  0
  3  2  1  0
  4  5  1  0
  4  3  2  0
  5 11  2  0
  6  5  1  0
  7  9  1  0
  7  6  1  0
  7  8  1  6
  9 10  2  0
 11 12  1  0
 13  9  1  0
 14 13  1  0
 14 15  1  1
 16 15  1  0
 16 17  2  0
 18 17  1  0
 19 18  1  0
 20 19  2  0
 20 16  1  0
 21 14  1  0
 22 21  2  0
 23 21  1  0
 24 23  1  0
 24 25  1  1
 26 25  1  0
 27 31  1  0
 27 26  1  0
 28 27  2  0
 29 24  1  0
 29 32  1  0
 30 29  2  0
M  END
$$$$
