YHE.pdb
     RDKit          3D

 32 33  0  0  1  0  0  0  0  0999 V2000
   46.3314   -8.0355   -0.7215 O   0  0  0  0  0  0  0  0  0  0  0  0
   45.6590   -8.0394   -1.9561 C   0  0  0  0  0  0  0  0  0  0  0  0
   44.4631   -7.3698   -2.1050 C   0  0  0  0  0  0  0  0  0  0  0  0
   43.7863   -7.3683   -3.3314 C   0  0  0  0  0  0  0  0  0  0  0  0
   44.3232   -8.0431   -4.3971 C   0  0  0  0  0  0  0  0  0  0  0  0
   43.6164   -8.0452   -5.6901 C   0  0  0  0  0  0  0  0  0  0  0  0
   42.3357   -8.8635   -5.5159 C   0  0  2  0  0  0  0  0  0  0  0  0
   42.6346  -10.2721   -5.3488 N   0  0  0  0  0  0  0  0  0  0  0  0
   41.4989   -8.6236   -6.7181 C   0  0  0  0  0  0  0  0  0  0  0  0
   41.9259   -8.9819   -7.8435 O   0  0  0  0  0  0  0  0  0  0  0  0
   45.5066   -8.7074   -4.2547 C   0  0  0  0  0  0  0  0  0  0  0  0
   46.1882   -8.7147   -3.0372 C   0  0  0  0  0  0  0  0  0  0  0  0
   40.2414   -7.9943   -6.5440 N   0  0  0  0  0  0  0  0  0  0  0  0
   39.3471   -7.8016   -7.6589 C   0  0  1  0  0  0  0  0  0  0  0  0
   38.0210   -8.4138   -7.4550 C   0  0  0  0  0  0  0  0  0  0  0  0
   38.0623   -9.8756   -7.4130 C   0  0  0  0  0  0  0  0  0  0  0  0
   39.0956  -10.7262   -7.5799 C   0  0  0  0  0  0  0  0  0  0  0  0
   38.6350  -12.0084   -7.4709 N   0  0  0  0  0  0  0  0  0  0  0  0
   37.3164  -11.9610   -7.2366 C   0  0  0  0  0  0  0  0  0  0  0  0
   36.9727  -10.6737   -7.2021 N   0  0  0  0  0  0  0  0  0  0  0  0
   39.2634   -6.3275   -7.9087 C   0  0  0  0  0  0  0  0  0  0  0  0
   39.0276   -5.6012   -6.9217 O   0  0  0  0  0  0  0  0  0  0  0  0
   39.4330   -5.7361   -9.1675 N   0  0  0  0  0  0  0  0  0  0  0  0
   39.3001   -4.3204   -9.4417 C   0  0  1  0  0  0  0  0  0  0  0  0
   40.0826   -3.8612  -10.6171 C   0  0  0  0  0  0  0  0  0  0  0  0
   39.9759   -2.4314  -10.9949 C   0  0  0  0  0  0  0  0  0  0  0  0
   40.7229   -2.0819  -12.2199 C   0  0  0  0  0  0  0  0  0  0  0  0
   40.6566   -0.9778  -12.8099 O   0  0  0  0  0  0  0  0  0  0  0  0
   37.8822   -3.9611   -9.4168 C   0  0  0  0  0  0  0  0  0  0  0  0
   37.4954   -2.8205   -9.0720 O   0  0  0  0  0  0  0  0  0  0  0  0
   41.5850   -3.0258  -12.8041 O   0  0  0  0  0  0  0  0  0  0  0  0
   36.9203   -4.8838   -9.7761 O   0  0  0  0  0  0  0  0  0  0  0  0
  2 12  2  0
  2  1  1  0
  3  2  1  0
  4  5  1  0
  4  3  2  0
  5 11  2  0
  6  5  1  0
  7  9  1  0
  7  6  1  0
  7  8  1  6
  9 10  2  0
 11 12  1  0
 13  9  1  0
 14 13  1  0
 14 15  1  1
 16 15  1  0
 16 17  2  0
 18 17  1  0
 19 18  1  0
 20 19  2  0
 20 16  1  0
 21 14  1  0
 22 21  2  0
 23 21  1  0
 24 23  1  0
 24 25  1  6
 26 25  1  0
 27 31  1  0
 27 26  1  0
 28 27  2  0
 29 24  1  0
 29 32  1  0
 30 29  2  0
M  END
$$$$
