YHE.pdb
     RDKit          3D

 32 33  0  0  1  0  0  0  0  0999 V2000
   26.4705  -16.5720  -19.7670 O   0  0  0  0  0  0  0  0  0  0  0  0
   25.5565  -17.3119  -18.9967 C   0  0  0  0  0  0  0  0  0  0  0  0
   24.9413  -16.7434  -17.9016 C   0  0  0  0  0  0  0  0  0  0  0  0
   24.0293  -17.4732  -17.1284 C   0  0  0  0  0  0  0  0  0  0  0  0
   23.7464  -18.7709  -17.4678 C   0  0  0  0  0  0  0  0  0  0  0  0
   22.7876  -19.5439  -16.6587 C   0  0  0  0  0  0  0  0  0  0  0  0
   23.5695  -20.2071  -15.5234 C   0  0  2  0  0  0  0  0  0  0  0  0
   24.5642  -21.1257  -16.0413 N   0  0  0  0  0  0  0  0  0  0  0  0
   22.5808  -20.9039  -14.6630 C   0  0  0  0  0  0  0  0  0  0  0  0
   22.2390  -22.0780  -14.9493 O   0  0  0  0  0  0  0  0  0  0  0  0
   24.3527  -19.3379  -18.5508 C   0  0  0  0  0  0  0  0  0  0  0  0
   25.2624  -18.6193  -19.3271 C   0  0  0  0  0  0  0  0  0  0  0  0
   22.0593  -20.2085  -13.5441 N   0  0  0  0  0  0  0  0  0  0  0  0
   21.1165  -20.8379  -12.6525 C   0  0  1  0  0  0  0  0  0  0  0  0
   21.0064  -20.1600  -11.3475 C   0  0  0  0  0  0  0  0  0  0  0  0
   20.0063  -20.7648  -10.4674 C   0  0  0  0  0  0  0  0  0  0  0  0
   18.8403  -20.2730  -10.0010 C   0  0  0  0  0  0  0  0  0  0  0  0
   18.2590  -21.2071   -9.1900 N   0  0  0  0  0  0  0  0  0  0  0  0
   19.0594  -22.2811   -9.1482 C   0  0  0  0  0  0  0  0  0  0  0  0
   20.1128  -22.0125   -9.9193 N   0  0  0  0  0  0  0  0  0  0  0  0
   19.8055  -20.9069  -13.3728 C   0  0  0  0  0  0  0  0  0  0  0  0
   19.4800  -19.9090  -14.0477 O   0  0  0  0  0  0  0  0  0  0  0  0
   18.9449  -22.0117  -13.3278 N   0  0  0  0  0  0  0  0  0  0  0  0
   17.6234  -22.0563  -13.9183 C   0  0  1  0  0  0  0  0  0  0  0  0
   17.0254  -23.4151  -13.9480 C   0  0  0  0  0  0  0  0  0  0  0  0
   15.7227  -23.5752  -14.6378 C   0  0  0  0  0  0  0  0  0  0  0  0
   14.7044  -24.2778  -13.8314 C   0  0  0  0  0  0  0  0  0  0  0  0
   14.8721  -24.6785  -12.6555 O   0  0  0  0  0  0  0  0  0  0  0  0
   16.8052  -20.9921  -13.3368 C   0  0  0  0  0  0  0  0  0  0  0  0
   16.1072  -20.2322  -14.0471 O   0  0  0  0  0  0  0  0  0  0  0  0
   13.4376  -24.5388  -14.3814 O   0  0  0  0  0  0  0  0  0  0  0  0
   16.7826  -20.7944  -11.9708 O   0  0  0  0  0  0  0  0  0  0  0  0
  2 12  2  0
  2  1  1  0
  3  2  1  0
  4  5  1  0
  4  3  2  0
  5 11  2  0
  6  5  1  0
  7  9  1  0
  7  6  1  0
  7  8  1  6
  9 10  2  0
 11 12  1  0
 13  9  1  0
 14 13  1  0
 14 15  1  1
 16 15  1  0
 16 17  2  0
 18 17  1  0
 19 18  1  0
 20 19  2  0
 20 16  1  0
 21 14  1  0
 22 21  2  0
 23 21  1  0
 24 23  1  0
 24 25  1  1
 26 25  1  0
 27 31  1  0
 27 26  1  0
 28 27  2  0
 29 24  1  0
 29 32  1  0
 30 29  2  0
M  END
$$$$
