YHE.pdb
     RDKit          3D

 32 33  0  0  1  0  0  0  0  0999 V2000
   18.8463  -12.5573  -18.3993 O   0  0  0  0  0  0  0  0  0  0  0  0
   19.3995  -13.7311  -17.8589 C   0  0  0  0  0  0  0  0  0  0  0  0
   18.8311  -14.9594  -18.1217 C   0  0  0  0  0  0  0  0  0  0  0  0
   19.3757  -16.1342  -17.5874 C   0  0  0  0  0  0  0  0  0  0  0  0
   20.4898  -16.0584  -16.7922 C   0  0  0  0  0  0  0  0  0  0  0  0
   21.0679  -17.2906  -16.2273 C   0  0  0  0  0  0  0  0  0  0  0  0
   22.2435  -17.6998  -17.1163 C   0  0  2  0  0  0  0  0  0  0  0  0
   21.7805  -18.2249  -18.3857 N   0  0  0  0  0  0  0  0  0  0  0  0
   23.0279  -18.7100  -16.3630 C   0  0  0  0  0  0  0  0  0  0  0  0
   22.6324  -19.9019  -16.3419 O   0  0  0  0  0  0  0  0  0  0  0  0
   21.0561  -14.8451  -16.5292 C   0  0  0  0  0  0  0  0  0  0  0  0
   20.5210  -13.6694  -17.0568 C   0  0  0  0  0  0  0  0  0  0  0  0
   24.2011  -18.2833  -15.6929 N   0  0  0  0  0  0  0  0  0  0  0  0
   25.0363  -19.2235  -14.9869 C   0  0  1  0  0  0  0  0  0  0  0  0
   26.4687  -18.8754  -15.0271 C   0  0  0  0  0  0  0  0  0  0  0  0
   27.1278  -19.2928  -16.2647 C   0  0  0  0  0  0  0  0  0  0  0  0
   26.6375  -19.9420  -17.3404 C   0  0  0  0  0  0  0  0  0  0  0  0
   27.6471  -20.1284  -18.2428 N   0  0  0  0  0  0  0  0  0  0  0  0
   28.7670  -19.5975  -17.7332 C   0  0  0  0  0  0  0  0  0  0  0  0
   28.4520  -19.0940  -16.5401 N   0  0  0  0  0  0  0  0  0  0  0  0
   24.5104  -19.3179  -13.5880 C   0  0  0  0  0  0  0  0  0  0  0  0
   24.2879  -18.2423  -12.9957 O   0  0  0  0  0  0  0  0  0  0  0  0
   24.2612  -20.5271  -12.9255 N   0  0  0  0  0  0  0  0  0  0  0  0
   23.7103  -20.6418  -11.5911 C   0  0  1  0  0  0  0  0  0  0  0  0
   22.2638  -20.9762  -11.5662 C   0  0  0  0  0  0  0  0  0  0  0  0
   21.6187  -21.1285  -10.2398 C   0  0  0  0  0  0  0  0  0  0  0  0
   20.1730  -21.4209  -10.3110 C   0  0  0  0  0  0  0  0  0  0  0  0
   19.5262  -21.5864  -11.3720 O   0  0  0  0  0  0  0  0  0  0  0  0
   24.5921  -21.4832  -10.7820 C   0  0  0  0  0  0  0  0  0  0  0  0
   24.4621  -21.5735   -9.5393 O   0  0  0  0  0  0  0  0  0  0  0  0
   19.4247  -21.5312   -9.1264 O   0  0  0  0  0  0  0  0  0  0  0  0
   25.6056  -22.2082  -11.3759 O   0  0  0  0  0  0  0  0  0  0  0  0
  2 12  2  0
  2  1  1  0
  3  2  1  0
  4  5  1  0
  4  3  2  0
  5 11  2  0
  6  5  1  0
  7  9  1  0
  7  6  1  0
  7  8  1  6
  9 10  2  0
 11 12  1  0
 13  9  1  0
 14 13  1  0
 14 15  1  1
 16 15  1  0
 16 17  2  0
 18 17  1  0
 19 18  1  0
 20 19  2  0
 20 16  1  0
 21 14  1  0
 22 21  2  0
 23 21  1  0
 24 23  1  0
 24 25  1  6
 26 25  1  0
 27 31  1  0
 27 26  1  0
 28 27  2  0
 29 24  1  0
 29 32  1  0
 30 29  2  0
M  END
$$$$
