YHE.pdb
     RDKit          3D

 32 33  0  0  1  0  0  0  0  0999 V2000
   25.9056  -23.1933  -17.4586 O   0  0  0  0  0  0  0  0  0  0  0  0
   25.6934  -24.5823  -17.4167 C   0  0  0  0  0  0  0  0  0  0  0  0
   25.2634  -25.2598  -18.5378 C   0  0  0  0  0  0  0  0  0  0  0  0
   25.0495  -26.6438  -18.5052 C   0  0  0  0  0  0  0  0  0  0  0  0
   25.2716  -27.3317  -17.3405 C   0  0  0  0  0  0  0  0  0  0  0  0
   25.0487  -28.7878  -17.2996 C   0  0  0  0  0  0  0  0  0  0  0  0
   26.4171  -29.4675  -17.3734 C   0  0  2  0  0  0  0  0  0  0  0  0
   26.9489  -29.4261  -18.7213 N   0  0  0  0  0  0  0  0  0  0  0  0
   26.2358  -30.8634  -16.9025 C   0  0  0  0  0  0  0  0  0  0  0  0
   26.0758  -31.7791  -17.7469 O   0  0  0  0  0  0  0  0  0  0  0  0
   25.6972  -26.6657  -16.2281 C   0  0  0  0  0  0  0  0  0  0  0  0
   25.9132  -25.2874  -16.2507 C   0  0  0  0  0  0  0  0  0  0  0  0
   26.2510  -31.1065  -15.5067 N   0  0  0  0  0  0  0  0  0  0  0  0
   26.0677  -32.4377  -14.9831 C   0  0  1  0  0  0  0  0  0  0  0  0
   27.2402  -32.9394  -14.2425 C   0  0  0  0  0  0  0  0  0  0  0  0
   28.4117  -33.1489  -15.0934 C   0  0  0  0  0  0  0  0  0  0  0  0
   28.8040  -34.2358  -15.7889 C   0  0  0  0  0  0  0  0  0  0  0  0
   29.9835  -33.9553  -16.4199 N   0  0  0  0  0  0  0  0  0  0  0  0
   30.3293  -32.6958  -16.1200 C   0  0  0  0  0  0  0  0  0  0  0  0
   29.3801  -32.2110  -15.3197 N   0  0  0  0  0  0  0  0  0  0  0  0
   24.8283  -32.4154  -14.1431 C   0  0  0  0  0  0  0  0  0  0  0  0
   24.5944  -31.3649  -13.5114 O   0  0  0  0  0  0  0  0  0  0  0  0
   23.9377  -33.4915  -14.0333 N   0  0  0  0  0  0  0  0  0  0  0  0
   22.6365  -33.4280  -13.4009 C   0  0  1  0  0  0  0  0  0  0  0  0
   21.8040  -32.2854  -13.8551 C   0  0  0  0  0  0  0  0  0  0  0  0
   20.4338  -32.1729  -13.2999 C   0  0  0  0  0  0  0  0  0  0  0  0
   19.6901  -30.9927  -13.7846 C   0  0  0  0  0  0  0  0  0  0  0  0
   18.7770  -31.0232  -14.6430 O   0  0  0  0  0  0  0  0  0  0  0  0
   22.0166  -34.7522  -13.4518 C   0  0  0  0  0  0  0  0  0  0  0  0
   22.2426  -35.5521  -14.3891 O   0  0  0  0  0  0  0  0  0  0  0  0
   19.9940  -29.7190  -13.2740 O   0  0  0  0  0  0  0  0  0  0  0  0
   21.1531  -35.1591  -12.4547 O   0  0  0  0  0  0  0  0  0  0  0  0
  2 12  2  0
  2  1  1  0
  3  2  1  0
  4  5  1  0
  4  3  2  0
  5 11  2  0
  6  5  1  0
  7  9  1  0
  7  6  1  0
  7  8  1  6
  9 10  2  0
 11 12  1  0
 13  9  1  0
 14 13  1  0
 14 15  1  1
 16 15  1  0
 16 17  2  0
 18 17  1  0
 19 18  1  0
 20 19  2  0
 20 16  1  0
 21 14  1  0
 22 21  2  0
 23 21  1  0
 24 23  1  0
 24 25  1  6
 26 25  1  0
 27 31  1  0
 27 26  1  0
 28 27  2  0
 29 24  1  0
 29 32  1  0
 30 29  2  0
M  END
$$$$
