YHE.pdb
     RDKit          3D

 32 33  0  0  1  0  0  0  0  0999 V2000
   29.6831  -29.0385  -16.5820 O   0  0  0  0  0  0  0  0  0  0  0  0
   29.5594  -27.6434  -16.4616 C   0  0  0  0  0  0  0  0  0  0  0  0
   30.6617  -26.8273  -16.6022 C   0  0  0  0  0  0  0  0  0  0  0  0
   30.5477  -25.4361  -16.4838 C   0  0  0  0  0  0  0  0  0  0  0  0
   29.3213  -24.8812  -16.2244 C   0  0  0  0  0  0  0  0  0  0  0  0
   29.1945  -23.4184  -16.0990 C   0  0  0  0  0  0  0  0  0  0  0  0
   28.7951  -22.8695  -17.4698 C   0  0  2  0  0  0  0  0  0  0  0  0
   29.9393  -22.7969  -18.3569 N   0  0  0  0  0  0  0  0  0  0  0  0
   28.1952  -21.5306  -17.2447 C   0  0  0  0  0  0  0  0  0  0  0  0
   28.9387  -20.5185  -17.2420 O   0  0  0  0  0  0  0  0  0  0  0  0
   28.2274  -25.6847  -16.0843 C   0  0  0  0  0  0  0  0  0  0  0  0
   28.3308  -27.0714  -16.2005 C   0  0  0  0  0  0  0  0  0  0  0  0
   26.7955  -21.4498  -17.0404 N   0  0  0  0  0  0  0  0  0  0  0  0
   26.1046  -20.1867  -17.1252 C   0  0  1  0  0  0  0  0  0  0  0  0
   26.3262  -19.4857  -18.4036 C   0  0  0  0  0  0  0  0  0  0  0  0
   27.4016  -18.4960  -18.3382 C   0  0  0  0  0  0  0  0  0  0  0  0
   28.1897  -18.1280  -17.3075 C   0  0  0  0  0  0  0  0  0  0  0  0
   29.0389  -17.1435  -17.7293 N   0  0  0  0  0  0  0  0  0  0  0  0
   28.7829  -16.8953  -19.0211 C   0  0  0  0  0  0  0  0  0  0  0  0
   27.7950  -17.7119  -19.3867 N   0  0  0  0  0  0  0  0  0  0  0  0
   24.6549  -20.4578  -16.8662 C   0  0  0  0  0  0  0  0  0  0  0  0
   24.0423  -21.1193  -17.7290 O   0  0  0  0  0  0  0  0  0  0  0  0
   23.9670  -20.0155  -15.7285 N   0  0  0  0  0  0  0  0  0  0  0  0
   22.5259  -19.9985  -15.5869 C   0  0  1  0  0  0  0  0  0  0  0  0
   22.0326  -19.0133  -14.5915 C   0  0  0  0  0  0  0  0  0  0  0  0
   20.5661  -18.9096  -14.3990 C   0  0  0  0  0  0  0  0  0  0  0  0
   20.1250  -19.1967  -13.0192 C   0  0  0  0  0  0  0  0  0  0  0  0
   20.8250  -19.0286  -11.9929 O   0  0  0  0  0  0  0  0  0  0  0  0
   21.9168  -19.9490  -16.9161 C   0  0  0  0  0  0  0  0  0  0  0  0
   21.0797  -20.8019  -17.2917 O   0  0  0  0  0  0  0  0  0  0  0  0
   18.8317  -19.6971  -12.7904 O   0  0  0  0  0  0  0  0  0  0  0  0
   22.2553  -18.9475  -17.8038 O   0  0  0  0  0  0  0  0  0  0  0  0
  2 12  2  0
  2  1  1  0
  3  2  1  0
  4  5  1  0
  4  3  2  0
  5 11  2  0
  6  5  1  0
  7  9  1  0
  7  6  1  0
  7  8  1  6
  9 10  2  0
 11 12  1  0
 13  9  1  0
 14 13  1  0
 14 15  1  6
 16 15  1  0
 16 17  2  0
 18 17  1  0
 19 18  1  0
 20 19  2  0
 20 16  1  0
 21 14  1  0
 22 21  2  0
 23 21  1  0
 24 23  1  0
 24 25  1  1
 26 25  1  0
 27 31  1  0
 27 26  1  0
 28 27  2  0
 29 24  1  0
 29 32  1  0
 30 29  2  0
M  END
$$$$
