YHE.pdb
     RDKit          3D

 32 33  0  0  1  0  0  0  0  0999 V2000
   16.5996  -18.8283  -17.9162 O   0  0  0  0  0  0  0  0  0  0  0  0
   17.4677  -17.8074  -17.4916 C   0  0  0  0  0  0  0  0  0  0  0  0
   18.0036  -16.9200  -18.4005 C   0  0  0  0  0  0  0  0  0  0  0  0
   18.8695  -15.8997  -17.9864 C   0  0  0  0  0  0  0  0  0  0  0  0
   19.1868  -15.7844  -16.6577 C   0  0  0  0  0  0  0  0  0  0  0  0
   20.0968  -14.7131  -16.2155 C   0  0  0  0  0  0  0  0  0  0  0  0
   21.5276  -15.1772  -16.4942 C   0  0  2  0  0  0  0  0  0  0  0  0
   21.8480  -16.3683  -15.7326 N   0  0  0  0  0  0  0  0  0  0  0  0
   22.4270  -14.0494  -16.1444 C   0  0  0  0  0  0  0  0  0  0  0  0
   22.9433  -14.0093  -15.0003 O   0  0  0  0  0  0  0  0  0  0  0  0
   18.6590  -16.6603  -15.7543 C   0  0  0  0  0  0  0  0  0  0  0  0
   17.7956  -17.6798  -16.1570 C   0  0  0  0  0  0  0  0  0  0  0  0
   22.6675  -13.0557  -17.1254 N   0  0  0  0  0  0  0  0  0  0  0  0
   23.5949  -11.9790  -16.8796 C   0  0  1  0  0  0  0  0  0  0  0  0
   24.8892  -12.1568  -17.5637 C   0  0  0  0  0  0  0  0  0  0  0  0
   25.8322  -11.0691  -17.3027 C   0  0  0  0  0  0  0  0  0  0  0  0
   25.7231   -9.9913  -16.4994 C   0  0  0  0  0  0  0  0  0  0  0  0
   26.8625   -9.2437  -16.6050 N   0  0  0  0  0  0  0  0  0  0  0  0
   27.6830   -9.8517  -17.4727 C   0  0  0  0  0  0  0  0  0  0  0  0
   27.0599  -10.9526  -17.8926 N   0  0  0  0  0  0  0  0  0  0  0  0
   22.9102  -10.7072  -17.2743 C   0  0  0  0  0  0  0  0  0  0  0  0
   22.2864  -10.7149  -18.3551 O   0  0  0  0  0  0  0  0  0  0  0  0
   22.9343   -9.5347  -16.5076 N   0  0  0  0  0  0  0  0  0  0  0  0
   22.2090   -8.3223  -16.8258 C   0  0  1  0  0  0  0  0  0  0  0  0
   21.5295   -7.7060  -15.6583 C   0  0  0  0  0  0  0  0  0  0  0  0
   20.5200   -8.5233  -14.9432 C   0  0  0  0  0  0  0  0  0  0  0  0
   19.8844   -7.8249  -13.8078 C   0  0  0  0  0  0  0  0  0  0  0  0
   20.1539   -6.6561  -13.4431 O   0  0  0  0  0  0  0  0  0  0  0  0
   23.0699   -7.4468  -17.6212 C   0  0  0  0  0  0  0  0  0  0  0  0
   24.3029   -7.6451  -17.7206 O   0  0  0  0  0  0  0  0  0  0  0  0
   18.8981   -8.4796  -13.0502 O   0  0  0  0  0  0  0  0  0  0  0  0
   22.5379   -6.3630  -18.2906 O   0  0  0  0  0  0  0  0  0  0  0  0
  2 12  2  0
  2  1  1  0
  3  2  1  0
  4  5  1  0
  4  3  2  0
  5 11  2  0
  6  5  1  0
  7  9  1  0
  7  6  1  0
  7  8  1  1
  9 10  2  0
 11 12  1  0
 13  9  1  0
 14 13  1  0
 14 15  1  6
 16 15  1  0
 16 17  2  0
 18 17  1  0
 19 18  1  0
 20 19  2  0
 20 16  1  0
 21 14  1  0
 22 21  2  0
 23 21  1  0
 24 23  1  0
 24 25  1  1
 26 25  1  0
 27 31  1  0
 27 26  1  0
 28 27  2  0
 29 24  1  0
 29 32  1  0
 30 29  2  0
M  END
$$$$
