YHE.pdb
     RDKit          3D

 32 33  0  0  1  0  0  0  0  0999 V2000
   32.9650  -22.7746  -10.1549 O   0  0  0  0  0  0  0  0  0  0  0  0
   31.7283  -22.2604  -10.5820 C   0  0  0  0  0  0  0  0  0  0  0  0
   30.9679  -21.4753   -9.7416 C   0  0  0  0  0  0  0  0  0  0  0  0
   29.7345  -20.9587  -10.1587 C   0  0  0  0  0  0  0  0  0  0  0  0
   29.2796  -21.2394  -11.4211 C   0  0  0  0  0  0  0  0  0  0  0  0
   27.9830  -20.6988  -11.8661 C   0  0  0  0  0  0  0  0  0  0  0  0
   28.1658  -20.1723  -13.2907 C   0  0  2  0  0  0  0  0  0  0  0  0
   29.1821  -19.1397  -13.3395 N   0  0  0  0  0  0  0  0  0  0  0  0
   26.8467  -19.6593  -13.7379 C   0  0  0  0  0  0  0  0  0  0  0  0
   26.5033  -18.4934  -13.4215 O   0  0  0  0  0  0  0  0  0  0  0  0
   30.0286  -22.0160  -12.2565 C   0  0  0  0  0  0  0  0  0  0  0  0
   31.2583  -22.5352  -11.8502 C   0  0  0  0  0  0  0  0  0  0  0  0
   26.0224  -20.5145  -14.5102 N   0  0  0  0  0  0  0  0  0  0  0  0
   24.7497  -20.0616  -15.0152 C   0  0  1  0  0  0  0  0  0  0  0  0
   24.6566  -20.1073  -16.4863 C   0  0  0  0  0  0  0  0  0  0  0  0
   23.3479  -19.6939  -16.9931 C   0  0  0  0  0  0  0  0  0  0  0  0
   22.3575  -20.4194  -17.5513 C   0  0  0  0  0  0  0  0  0  0  0  0
   21.3306  -19.5819  -17.8866 N   0  0  0  0  0  0  0  0  0  0  0  0
   21.6774  -18.3349  -17.5396 C   0  0  0  0  0  0  0  0  0  0  0  0
   22.8945  -18.4043  -17.0009 N   0  0  0  0  0  0  0  0  0  0  0  0
   23.6916  -20.8863  -14.3499 C   0  0  0  0  0  0  0  0  0  0  0  0
   23.9883  -22.0661  -14.0721 O   0  0  0  0  0  0  0  0  0  0  0  0
   22.4132  -20.4098  -14.0309 N   0  0  0  0  0  0  0  0  0  0  0  0
   21.3320  -21.2226  -13.5138 C   0  0  1  0  0  0  0  0  0  0  0  0
   20.5353  -20.5562  -12.4527 C   0  0  0  0  0  0  0  0  0  0  0  0
   19.4368  -21.3339  -11.8305 C   0  0  0  0  0  0  0  0  0  0  0  0
   18.0895  -20.9136  -12.2651 C   0  0  0  0  0  0  0  0  0  0  0  0
   17.7014  -20.8696  -13.4563 O   0  0  0  0  0  0  0  0  0  0  0  0
   20.5846  -21.7913  -14.6355 C   0  0  0  0  0  0  0  0  0  0  0  0
   20.4421  -23.0280  -14.7754 O   0  0  0  0  0  0  0  0  0  0  0  0
   17.1373  -20.5253  -11.3071 O   0  0  0  0  0  0  0  0  0  0  0  0
   20.0107  -20.9677  -15.5831 O   0  0  0  0  0  0  0  0  0  0  0  0
  2 12  2  0
  2  1  1  0
  3  2  1  0
  4  5  1  0
  4  3  2  0
  5 11  2  0
  6  5  1  0
  7  9  1  0
  7  6  1  0
  7  8  1  1
  9 10  2  0
 11 12  1  0
 13  9  1  0
 14 13  1  0
 14 15  1  6
 16 15  1  0
 16 17  2  0
 18 17  1  0
 19 18  1  0
 20 19  2  0
 20 16  1  0
 21 14  1  0
 22 21  2  0
 23 21  1  0
 24 23  1  0
 24 25  1  6
 26 25  1  0
 27 31  1  0
 27 26  1  0
 28 27  2  0
 29 24  1  0
 29 32  1  0
 30 29  2  0
M  END
$$$$
