YHE.pdb
     RDKit          3D

 32 33  0  0  1  0  0  0  0  0999 V2000
   16.6661  -16.6678  -18.1125 O   0  0  0  0  0  0  0  0  0  0  0  0
   17.2759  -15.4596  -17.7322 C   0  0  0  0  0  0  0  0  0  0  0  0
   16.9760  -14.8742  -16.5205 C   0  0  0  0  0  0  0  0  0  0  0  0
   17.5788  -13.6704  -16.1333 C   0  0  0  0  0  0  0  0  0  0  0  0
   18.4793  -13.0682  -16.9734 C   0  0  0  0  0  0  0  0  0  0  0  0
   19.1171  -11.8019  -16.5720 C   0  0  0  0  0  0  0  0  0  0  0  0
   20.5836  -12.1021  -16.2571 C   0  0  2  0  0  0  0  0  0  0  0  0
   20.6999  -13.0750  -15.1887 N   0  0  0  0  0  0  0  0  0  0  0  0
   21.2231  -10.8134  -15.8917 C   0  0  0  0  0  0  0  0  0  0  0  0
   20.9968  -10.3159  -14.7609 O   0  0  0  0  0  0  0  0  0  0  0  0
   18.7794  -13.6436  -18.1737 C   0  0  0  0  0  0  0  0  0  0  0  0
   18.1842  -14.8425  -18.5682 C   0  0  0  0  0  0  0  0  0  0  0  0
   22.0700  -10.1927  -16.8429 N   0  0  0  0  0  0  0  0  0  0  0  0
   22.7997   -8.9925  -16.5157 C   0  0  1  0  0  0  0  0  0  0  0  0
   24.1399   -8.9397  -17.1287 C   0  0  0  0  0  0  0  0  0  0  0  0
   25.0760   -9.9034  -16.5495 C   0  0  0  0  0  0  0  0  0  0  0  0
   24.9317  -10.7419  -15.5031 C   0  0  0  0  0  0  0  0  0  0  0  0
   26.0962  -11.4358  -15.3284 N   0  0  0  0  0  0  0  0  0  0  0  0
   26.9678  -11.0326  -16.2630 C   0  0  0  0  0  0  0  0  0  0  0  0
   26.3508  -10.1082  -16.9986 N   0  0  0  0  0  0  0  0  0  0  0  0
   21.9427   -7.8315  -16.9154 C   0  0  0  0  0  0  0  0  0  0  0  0
   21.4370   -7.8703  -18.0556 O   0  0  0  0  0  0  0  0  0  0  0  0
   21.6858   -6.7279  -16.0912 N   0  0  0  0  0  0  0  0  0  0  0  0
   20.5069   -5.8908  -16.1721 C   0  0  1  0  0  0  0  0  0  0  0  0
   19.2373   -6.6522  -16.2863 C   0  0  0  0  0  0  0  0  0  0  0  0
   17.9700   -5.8863  -16.2104 C   0  0  0  0  0  0  0  0  0  0  0  0
   16.7597   -6.7276  -16.3009 C   0  0  0  0  0  0  0  0  0  0  0  0
   16.7603   -7.9677  -16.4839 O   0  0  0  0  0  0  0  0  0  0  0  0
   20.5703   -4.8753  -15.1209 C   0  0  0  0  0  0  0  0  0  0  0  0
   20.1133   -3.7210  -15.2886 O   0  0  0  0  0  0  0  0  0  0  0  0
   15.4897   -6.1378  -16.1785 O   0  0  0  0  0  0  0  0  0  0  0  0
   21.1454   -5.1670  -13.9003 O   0  0  0  0  0  0  0  0  0  0  0  0
  2 12  2  0
  2  1  1  0
  3  2  1  0
  4  5  1  0
  4  3  2  0
  5 11  2  0
  6  5  1  0
  7  9  1  0
  7  6  1  0
  7  8  1  1
  9 10  2  0
 11 12  1  0
 13  9  1  0
 14 13  1  0
 14 15  1  6
 16 15  1  0
 16 17  2  0
 18 17  1  0
 19 18  1  0
 20 19  2  0
 20 16  1  0
 21 14  1  0
 22 21  2  0
 23 21  1  0
 24 23  1  0
 24 25  1  1
 26 25  1  0
 27 31  1  0
 27 26  1  0
 28 27  2  0
 29 24  1  0
 29 32  1  0
 30 29  2  0
M  END
$$$$
