YHE.pdb
     RDKit          3D

 32 33  0  0  1  0  0  0  0  0999 V2000
   16.2955  -14.7369  -16.7082 O   0  0  0  0  0  0  0  0  0  0  0  0
   17.1014  -13.5909  -16.5934 C   0  0  0  0  0  0  0  0  0  0  0  0
   17.0514  -12.8096  -15.4585 C   0  0  0  0  0  0  0  0  0  0  0  0
   17.8510  -11.6660  -15.3355 C   0  0  0  0  0  0  0  0  0  0  0  0
   18.6942  -11.3212  -16.3599 C   0  0  0  0  0  0  0  0  0  0  0  0
   19.5382  -10.1195  -16.2367 C   0  0  0  0  0  0  0  0  0  0  0  0
   20.9732  -10.5859  -15.9851 C   0  0  2  0  0  0  0  0  0  0  0  0
   21.0605  -11.3765  -14.7731 N   0  0  0  0  0  0  0  0  0  0  0  0
   21.8185   -9.3686  -15.9029 C   0  0  0  0  0  0  0  0  0  0  0  0
   21.7516   -8.6439  -14.8793 O   0  0  0  0  0  0  0  0  0  0  0  0
   18.7473  -12.0912  -17.4852 C   0  0  0  0  0  0  0  0  0  0  0  0
   17.9549  -13.2321  -17.6170 C   0  0  0  0  0  0  0  0  0  0  0  0
   22.6736   -9.0723  -16.9931 N   0  0  0  0  0  0  0  0  0  0  0  0
   23.5116   -7.8986  -16.9815 C   0  0  1  0  0  0  0  0  0  0  0  0
   24.8618   -8.1410  -17.5226 C   0  0  0  0  0  0  0  0  0  0  0  0
   25.6428   -9.0826  -16.7203 C   0  0  0  0  0  0  0  0  0  0  0  0
   25.3510   -9.6855  -15.5497 C   0  0  0  0  0  0  0  0  0  0  0  0
   26.4089  -10.4677  -15.1792 N   0  0  0  0  0  0  0  0  0  0  0  0
   27.3610  -10.3546  -16.1154 C   0  0  0  0  0  0  0  0  0  0  0  0
   26.8972   -9.5187  -17.0442 N   0  0  0  0  0  0  0  0  0  0  0  0
   22.7807   -6.8264  -17.7288 C   0  0  0  0  0  0  0  0  0  0  0  0
   22.1862   -7.1707  -18.7706 O   0  0  0  0  0  0  0  0  0  0  0  0
   22.7320   -5.4854  -17.3256 N   0  0  0  0  0  0  0  0  0  0  0  0
   21.8944   -4.4695  -17.9286 C   0  0  1  0  0  0  0  0  0  0  0  0
   20.4566   -4.5924  -17.5789 C   0  0  0  0  0  0  0  0  0  0  0  0
   19.5409   -3.5312  -18.0624 C   0  0  0  0  0  0  0  0  0  0  0  0
   18.1323   -3.7356  -17.6690 C   0  0  0  0  0  0  0  0  0  0  0  0
   17.4777   -4.7863  -17.8668 O   0  0  0  0  0  0  0  0  0  0  0  0
   22.5103   -3.1589  -17.7207 C   0  0  0  0  0  0  0  0  0  0  0  0
   23.4040   -2.9774  -16.8618 O   0  0  0  0  0  0  0  0  0  0  0  0
   17.4320   -2.7030  -17.0219 O   0  0  0  0  0  0  0  0  0  0  0  0
   22.1151   -2.0727  -18.4755 O   0  0  0  0  0  0  0  0  0  0  0  0
  2 12  2  0
  2  1  1  0
  3  2  1  0
  4  5  1  0
  4  3  2  0
  5 11  2  0
  6  5  1  0
  7  9  1  0
  7  6  1  0
  7  8  1  1
  9 10  2  0
 11 12  1  0
 13  9  1  0
 14 13  1  0
 14 15  1  6
 16 15  1  0
 16 17  2  0
 18 17  1  0
 19 18  1  0
 20 19  2  0
 20 16  1  0
 21 14  1  0
 22 21  2  0
 23 21  1  0
 24 23  1  0
 24 25  1  1
 26 25  1  0
 27 31  1  0
 27 26  1  0
 28 27  2  0
 29 24  1  0
 29 32  1  0
 30 29  2  0
M  END
$$$$
