GGE.pdb
     RDKit          3D

 18 17  0  0  1  0  0  0  0  0999 V2000
   10.5992  -20.2727   12.8985 N   0  0  0  0  0  0  0  0  0  0  0  0
    9.7939  -21.3372   13.4403 C   0  0  0  0  0  0  0  0  0  0  0  0
    9.6932  -21.1582   14.9214 C   0  0  0  0  0  0  0  0  0  0  0  0
   10.3050  -20.2011   15.4938 O   0  0  0  0  0  0  0  0  0  0  0  0
    8.9243  -22.0334   15.7347 N   0  0  0  0  0  0  0  0  0  0  0  0
    8.7418  -21.8258   17.1365 C   0  0  0  0  0  0  0  0  0  0  0  0
    9.7874  -22.5382   17.9196 C   0  0  0  0  0  0  0  0  0  0  0  0
   10.1350  -23.6870   17.5549 O   0  0  0  0  0  0  0  0  0  0  0  0
   10.4112  -21.9862   19.0556 N   0  0  0  0  0  0  0  0  0  0  0  0
   11.4064  -22.7368   19.8673 C   0  0  1  0  0  0  0  0  0  0  0  0
   12.5741  -21.8565   20.1038 C   0  0  0  0  0  0  0  0  0  0  0  0
   13.2667  -21.4123   18.8797 C   0  0  0  0  0  0  0  0  0  0  0  0
   14.4247  -20.5435   19.1695 C   0  0  0  0  0  0  0  0  0  0  0  0
   14.3987  -19.7984   20.1894 O   0  0  0  0  0  0  0  0  0  0  0  0
   10.7470  -23.2869   21.0236 C   0  0  0  0  0  0  0  0  0  0  0  0
    9.4257  -23.0460   21.4052 O   0  0  0  0  0  0  0  0  0  0  0  0
   15.5514  -20.5024   18.3711 O   0  0  0  0  0  0  0  0  0  0  0  0
   11.3958  -24.0621   21.8022 O   0  0  0  0  0  0  0  0  0  0  0  0
  2  1  1  0
  3  2  1  0
  4  3  2  0
  5  3  1  0
  6  5  1  0
  7  9  1  0
  7  6  1  0
  8  7  2  0
 10 11  1  1
 10  9  1  0
 12 13  1  0
 12 11  1  0
 13 14  2  0
 15 16  1  0
 15 10  1  0
 17 13  1  0
 18 15  2  0
M  END
$$$$
