GGE.pdb
     RDKit          3D

 18 17  0  0  1  0  0  0  0  0999 V2000
   -0.1813  -21.1779   19.2307 N   0  0  0  0  0  0  0  0  0  0  0  0
    0.6334  -21.0762   20.4144 C   0  0  0  0  0  0  0  0  0  0  0  0
    1.6007  -19.9498   20.2374 C   0  0  0  0  0  0  0  0  0  0  0  0
    2.0644  -19.6792   19.0843 O   0  0  0  0  0  0  0  0  0  0  0  0
    2.0332  -19.1505   21.3295 N   0  0  0  0  0  0  0  0  0  0  0  0
    3.1461  -18.2587   21.2422 C   0  0  0  0  0  0  0  0  0  0  0  0
    4.0574  -18.4310   22.4058 C   0  0  0  0  0  0  0  0  0  0  0  0
    3.6442  -19.0660   23.4057 O   0  0  0  0  0  0  0  0  0  0  0  0
    5.3677  -17.9154   22.4431 N   0  0  0  0  0  0  0  0  0  0  0  0
    6.4060  -18.4324   23.3743 C   0  0  1  0  0  0  0  0  0  0  0  0
    6.4658  -19.9059   23.2340 C   0  0  0  0  0  0  0  0  0  0  0  0
    7.4715  -20.5642   24.0887 C   0  0  0  0  0  0  0  0  0  0  0  0
    6.8600  -21.4314   25.1153 C   0  0  0  0  0  0  0  0  0  0  0  0
    5.6311  -21.7127   25.0347 O   0  0  0  0  0  0  0  0  0  0  0  0
    7.6272  -17.6974   23.1674 C   0  0  0  0  0  0  0  0  0  0  0  0
    8.5179  -17.2914   24.1631 O   0  0  0  0  0  0  0  0  0  0  0  0
    7.5727  -21.9585   26.1749 O   0  0  0  0  0  0  0  0  0  0  0  0
    7.9582  -17.3578   21.9828 O   0  0  0  0  0  0  0  0  0  0  0  0
  2  1  1  0
  3  2  1  0
  4  3  2  0
  5  3  1  0
  6  5  1  0
  7  9  1  0
  7  6  1  0
  8  7  2  0
 10 11  1  6
 10  9  1  0
 12 13  1  0
 12 11  1  0
 13 14  2  0
 15 16  1  0
 15 10  1  0
 17 13  1  0
 18 15  2  0
M  END
$$$$
