GGE.pdb
     RDKit          3D

 18 17  0  0  1  0  0  0  0  0999 V2000
    8.9840  -17.7853   13.1212 N   0  0  0  0  0  0  0  0  0  0  0  0
   10.0715  -17.2661   13.9104 C   0  0  0  0  0  0  0  0  0  0  0  0
   10.1665  -18.0554   15.1768 C   0  0  0  0  0  0  0  0  0  0  0  0
    9.3777  -19.0315   15.3837 O   0  0  0  0  0  0  0  0  0  0  0  0
   11.1241  -17.7531   16.1820 N   0  0  0  0  0  0  0  0  0  0  0  0
   11.2876  -18.5476   17.3582 C   0  0  0  0  0  0  0  0  0  0  0  0
   12.3875  -18.0174   18.2086 C   0  0  0  0  0  0  0  0  0  0  0  0
   13.2956  -17.3422   17.6672 O   0  0  0  0  0  0  0  0  0  0  0  0
   12.4624  -18.2352   19.5983 N   0  0  0  0  0  0  0  0  0  0  0  0
   13.5136  -17.6180   20.4507 C   0  0  1  0  0  0  0  0  0  0  0  0
   12.8901  -17.1932   21.7256 C   0  0  0  0  0  0  0  0  0  0  0  0
   13.8131  -16.5427   22.6743 C   0  0  0  0  0  0  0  0  0  0  0  0
   13.1277  -16.0641   23.8912 C   0  0  0  0  0  0  0  0  0  0  0  0
   11.8807  -16.2315   24.0048 O   0  0  0  0  0  0  0  0  0  0  0  0
   14.6376  -18.5150   20.5298 C   0  0  0  0  0  0  0  0  0  0  0  0
   14.6478  -19.8529   20.1305 O   0  0  0  0  0  0  0  0  0  0  0  0
   13.7892  -15.4332   24.9270 O   0  0  0  0  0  0  0  0  0  0  0  0
   15.7410  -18.0921   21.0113 O   0  0  0  0  0  0  0  0  0  0  0  0
  2  1  1  0
  3  2  1  0
  4  3  2  0
  5  3  1  0
  6  5  1  0
  7  9  1  0
  7  6  1  0
  8  7  2  0
 10 11  1  1
 10  9  1  0
 12 13  1  0
 12 11  1  0
 13 14  2  0
 15 16  1  0
 15 10  1  0
 17 13  1  0
 18 15  2  0
M  END
$$$$
