GGE.pdb
     RDKit          3D

 18 17  0  0  1  0  0  0  0  0999 V2000
    6.9185  -14.8568   18.7451 N   0  0  0  0  0  0  0  0  0  0  0  0
    7.6901  -15.7031   19.6187 C   0  0  0  0  0  0  0  0  0  0  0  0
    7.7657  -15.0611   20.9671 C   0  0  0  0  0  0  0  0  0  0  0  0
    6.7236  -14.5605   21.4973 O   0  0  0  0  0  0  0  0  0  0  0  0
    8.9821  -14.9856   21.6976 N   0  0  0  0  0  0  0  0  0  0  0  0
    9.0231  -14.8264   23.1169 C   0  0  0  0  0  0  0  0  0  0  0  0
    9.8015  -15.9240   23.7521 C   0  0  0  0  0  0  0  0  0  0  0  0
    9.4055  -17.1055   23.6069 O   0  0  0  0  0  0  0  0  0  0  0  0
   10.9668  -15.7042   24.5123 N   0  0  0  0  0  0  0  0  0  0  0  0
   11.7511  -16.8146   25.1159 C   0  0  1  0  0  0  0  0  0  0  0  0
   13.1916  -16.5173   24.9399 C   0  0  0  0  0  0  0  0  0  0  0  0
   13.6091  -16.3058   23.5412 C   0  0  0  0  0  0  0  0  0  0  0  0
   15.0523  -16.0194   23.4195 C   0  0  0  0  0  0  0  0  0  0  0  0
   15.8608  -16.5652   24.2223 O   0  0  0  0  0  0  0  0  0  0  0  0
   11.2813  -17.0431   26.4581 C   0  0  0  0  0  0  0  0  0  0  0  0
   11.5278  -18.1801   27.2300 O   0  0  0  0  0  0  0  0  0  0  0  0
   15.5718  -15.1729   22.4593 O   0  0  0  0  0  0  0  0  0  0  0  0
   10.5631  -16.1553   27.0275 O   0  0  0  0  0  0  0  0  0  0  0  0
  2  1  1  0
  3  2  1  0
  4  3  2  0
  5  3  1  0
  6  5  1  0
  7  9  1  0
  7  6  1  0
  8  7  2  0
 10 11  1  1
 10  9  1  0
 12 13  1  0
 12 11  1  0
 13 14  2  0
 15 16  1  0
 15 10  1  0
 17 13  1  0
 18 15  2  0
M  END
$$$$
