GGE.pdb
     RDKit          3D

 18 17  0  0  1  0  0  0  0  0999 V2000
    8.1339  -12.8887   18.1576 N   0  0  0  0  0  0  0  0  0  0  0  0
    7.9195  -14.1417   18.8351 C   0  0  0  0  0  0  0  0  0  0  0  0
    7.9713  -13.9057   20.3108 C   0  0  0  0  0  0  0  0  0  0  0  0
    9.0054  -13.3882   20.8405 O   0  0  0  0  0  0  0  0  0  0  0  0
    6.8877  -14.2436   21.1655 N   0  0  0  0  0  0  0  0  0  0  0  0
    6.9438  -14.0857   22.5845 C   0  0  0  0  0  0  0  0  0  0  0  0
    7.6494  -15.2318   23.2189 C   0  0  0  0  0  0  0  0  0  0  0  0
    6.9926  -16.2632   23.4991 O   0  0  0  0  0  0  0  0  0  0  0  0
    9.0248  -15.2190   23.5229 N   0  0  0  0  0  0  0  0  0  0  0  0
    9.6967  -16.3336   24.2432 C   0  0  1  0  0  0  0  0  0  0  0  0
   11.1539  -16.2381   23.9943 C   0  0  0  0  0  0  0  0  0  0  0  0
   11.6963  -17.2867   23.1103 C   0  0  0  0  0  0  0  0  0  0  0  0
   13.1215  -17.0735   22.7893 C   0  0  0  0  0  0  0  0  0  0  0  0
   13.4596  -16.0541   22.1241 O   0  0  0  0  0  0  0  0  0  0  0  0
    9.2579  -16.3353   25.6151 C   0  0  0  0  0  0  0  0  0  0  0  0
    8.9495  -15.2073   26.3780 O   0  0  0  0  0  0  0  0  0  0  0  0
   14.1188  -17.9440   23.1842 O   0  0  0  0  0  0  0  0  0  0  0  0
    9.1358  -17.4467   26.2299 O   0  0  0  0  0  0  0  0  0  0  0  0
  2  1  1  0
  3  2  1  0
  4  3  2  0
  5  3  1  0
  6  5  1  0
  7  9  1  0
  7  6  1  0
  8  7  2  0
 10 11  1  1
 10  9  1  0
 12 13  1  0
 12 11  1  0
 13 14  2  0
 15 16  1  0
 15 10  1  0
 17 13  1  0
 18 15  2  0
M  END
$$$$
