GGE.pdb
     RDKit          3D

 18 17  0  0  1  0  0  0  0  0999 V2000
    3.7432  -21.8337   21.0434 N   0  0  0  0  0  0  0  0  0  0  0  0
    4.6518  -22.5052   21.9370 C   0  0  0  0  0  0  0  0  0  0  0  0
    5.2095  -21.5042   22.8977 C   0  0  0  0  0  0  0  0  0  0  0  0
    4.7113  -20.3359   22.9662 O   0  0  0  0  0  0  0  0  0  0  0  0
    6.2984  -21.8114   23.7572 N   0  0  0  0  0  0  0  0  0  0  0  0
    6.7323  -20.9352   24.7990 C   0  0  0  0  0  0  0  0  0  0  0  0
    7.9262  -21.4874   25.4946 C   0  0  0  0  0  0  0  0  0  0  0  0
    7.9944  -22.7257   25.6833 O   0  0  0  0  0  0  0  0  0  0  0  0
    8.9904  -20.6872   25.9546 N   0  0  0  0  0  0  0  0  0  0  0  0
   10.1583  -21.2494   26.6841 C   0  0  1  0  0  0  0  0  0  0  0  0
   11.3645  -20.4827   26.2943 C   0  0  0  0  0  0  0  0  0  0  0  0
   11.6564  -20.4896   24.8486 C   0  0  0  0  0  0  0  0  0  0  0  0
   12.8251  -19.6559   24.5042 C   0  0  0  0  0  0  0  0  0  0  0  0
   12.6502  -18.4434   24.1954 O   0  0  0  0  0  0  0  0  0  0  0  0
    9.8432  -21.3194   28.0878 C   0  0  0  0  0  0  0  0  0  0  0  0
    8.8057  -20.6401   28.7294 O   0  0  0  0  0  0  0  0  0  0  0  0
   14.1189  -20.1402   24.5020 O   0  0  0  0  0  0  0  0  0  0  0  0
   10.5579  -22.0494   28.8522 O   0  0  0  0  0  0  0  0  0  0  0  0
  2  1  1  0
  3  2  1  0
  4  3  2  0
  5  3  1  0
  6  5  1  0
  7  9  1  0
  7  6  1  0
  8  7  2  0
 10 11  1  1
 10  9  1  0
 12 13  1  0
 12 11  1  0
 13 14  2  0
 15 16  1  0
 15 10  1  0
 17 13  1  0
 18 15  2  0
M  END
$$$$
