GGE.pdb
     RDKit          3D

 18 17  0  0  1  0  0  0  0  0999 V2000
    0.3229  -23.4738   21.5688 N   0  0  0  0  0  0  0  0  0  0  0  0
    1.7466  -23.5580   21.7716 C   0  0  0  0  0  0  0  0  0  0  0  0
    2.0540  -23.1846   23.1865 C   0  0  0  0  0  0  0  0  0  0  0  0
    1.1463  -22.6951   23.9311 O   0  0  0  0  0  0  0  0  0  0  0  0
    3.3482  -23.3581   23.7466 N   0  0  0  0  0  0  0  0  0  0  0  0
    3.6430  -23.0732   25.1153 C   0  0  0  0  0  0  0  0  0  0  0  0
    5.0177  -23.5212   25.4668 C   0  0  0  0  0  0  0  0  0  0  0  0
    5.6407  -24.2472   24.6554 O   0  0  0  0  0  0  0  0  0  0  0  0
    5.6599  -23.1702   26.6705 N   0  0  0  0  0  0  0  0  0  0  0  0
    7.0583  -23.5722   26.9794 C   0  0  1  0  0  0  0  0  0  0  0  0
    7.9152  -22.3656   26.9145 C   0  0  0  0  0  0  0  0  0  0  0  0
    7.3805  -21.1928   27.6314 C   0  0  0  0  0  0  0  0  0  0  0  0
    8.2397  -20.0011   27.4852 C   0  0  0  0  0  0  0  0  0  0  0  0
    8.8813  -19.5748   28.4866 O   0  0  0  0  0  0  0  0  0  0  0  0
    7.0677  -24.3259   28.2067 C   0  0  0  0  0  0  0  0  0  0  0  0
    8.1373  -25.0761   28.6992 O   0  0  0  0  0  0  0  0  0  0  0  0
    8.3803  -19.3181   26.2926 O   0  0  0  0  0  0  0  0  0  0  0  0
    6.0206  -24.3446   28.9356 O   0  0  0  0  0  0  0  0  0  0  0  0
  2  1  1  0
  3  2  1  0
  4  3  2  0
  5  3  1  0
  6  5  1  0
  7  9  1  0
  7  6  1  0
  8  7  2  0
 10 11  1  1
 10  9  1  0
 12 13  1  0
 12 11  1  0
 13 14  2  0
 15 16  1  0
 15 10  1  0
 17 13  1  0
 18 15  2  0
M  END
$$$$
