GGE.pdb
     RDKit          3D

 18 17  0  0  1  0  0  0  0  0999 V2000
    3.9285  -20.7383   20.2580 N   0  0  0  0  0  0  0  0  0  0  0  0
    4.6392  -21.3723   21.3387 C   0  0  0  0  0  0  0  0  0  0  0  0
    4.9349  -20.3475   22.3867 C   0  0  0  0  0  0  0  0  0  0  0  0
    4.0126  -19.5815   22.8115 O   0  0  0  0  0  0  0  0  0  0  0  0
    6.2338  -20.1905   22.9406 N   0  0  0  0  0  0  0  0  0  0  0  0
    6.5150  -19.2830   24.0077 C   0  0  0  0  0  0  0  0  0  0  0  0
    7.9409  -19.3764   24.4226 C   0  0  0  0  0  0  0  0  0  0  0  0
    8.6588  -20.2709   23.9145 O   0  0  0  0  0  0  0  0  0  0  0  0
    8.5302  -18.5072   25.3615 N   0  0  0  0  0  0  0  0  0  0  0  0
   10.0033  -18.3929   25.5333 C   0  0  1  0  0  0  0  0  0  0  0  0
   10.4999  -17.3436   24.6131 C   0  0  0  0  0  0  0  0  0  0  0  0
   11.9662  -17.1856   24.5952 C   0  0  0  0  0  0  0  0  0  0  0  0
   12.4173  -16.2120   23.5812 C   0  0  0  0  0  0  0  0  0  0  0  0
   13.5810  -15.7274   23.6641 O   0  0  0  0  0  0  0  0  0  0  0  0
   10.3000  -18.2396   26.9343 C   0  0  0  0  0  0  0  0  0  0  0  0
    9.3708  -17.9894   27.9460 O   0  0  0  0  0  0  0  0  0  0  0  0
   11.6209  -15.7973   22.5314 O   0  0  0  0  0  0  0  0  0  0  0  0
   11.5106  -18.3231   27.3286 O   0  0  0  0  0  0  0  0  0  0  0  0
  2  1  1  0
  3  2  1  0
  4  3  2  0
  5  3  1  0
  6  5  1  0
  7  9  1  0
  7  6  1  0
  8  7  2  0
 10 11  1  6
 10  9  1  0
 12 13  1  0
 12 11  1  0
 13 14  2  0
 15 16  1  0
 15 10  1  0
 17 13  1  0
 18 15  2  0
M  END
$$$$
