GGE.pdb
     RDKit          3D

 18 17  0  0  1  0  0  0  0  0999 V2000
   10.0971  -19.2495   19.9447 N   0  0  0  0  0  0  0  0  0  0  0  0
   11.3479  -18.5354   19.9687 C   0  0  0  0  0  0  0  0  0  0  0  0
   12.4421  -19.4932   20.3170 C   0  0  0  0  0  0  0  0  0  0  0  0
   12.1622  -20.6440   20.7808 O   0  0  0  0  0  0  0  0  0  0  0  0
   13.8136  -19.1632   20.1471 N   0  0  0  0  0  0  0  0  0  0  0  0
   14.8727  -20.0592   20.4890 C   0  0  0  0  0  0  0  0  0  0  0  0
   15.5585  -19.6203   21.7344 C   0  0  0  0  0  0  0  0  0  0  0  0
   16.5336  -20.2893   22.1530 O   0  0  0  0  0  0  0  0  0  0  0  0
   15.1675  -18.4858   22.4722 N   0  0  0  0  0  0  0  0  0  0  0  0
   15.7201  -18.1755   23.8179 C   0  0  1  0  0  0  0  0  0  0  0  0
   16.4276  -16.8761   23.7430 C   0  0  0  0  0  0  0  0  0  0  0  0
   17.6194  -16.8745   22.8742 C   0  0  0  0  0  0  0  0  0  0  0  0
   18.2663  -15.5492   22.8051 C   0  0  0  0  0  0  0  0  0  0  0  0
   17.5663  -14.5102   22.9681 O   0  0  0  0  0  0  0  0  0  0  0  0
   14.6697  -18.3023   24.7951 C   0  0  0  0  0  0  0  0  0  0  0  0
   14.8458  -18.4852   26.1681 O   0  0  0  0  0  0  0  0  0  0  0  0
   19.6172  -15.3841   22.5678 O   0  0  0  0  0  0  0  0  0  0  0  0
   13.4531  -18.2588   24.4129 O   0  0  0  0  0  0  0  0  0  0  0  0
  2  1  1  0
  3  2  1  0
  4  3  2  0
  5  3  1  0
  6  5  1  0
  7  9  1  0
  7  6  1  0
  8  7  2  0
 10 11  1  6
 10  9  1  0
 12 13  1  0
 12 11  1  0
 13 14  2  0
 15 16  1  0
 15 10  1  0
 17 13  1  0
 18 15  2  0
M  END
$$$$
