FVT.pdb
     RDKit          3D

 26 26  0  0  1  0  0  0  0  0999 V2000
   24.0981  -20.3896  -10.7156 N   0  0  0  0  0  0  0  0  0  0  0  0
   23.6221  -20.3798  -12.0685 C   0  0  1  0  0  0  0  0  0  0  0  0
   22.1130  -20.1731  -12.0207 C   0  0  0  0  0  0  0  0  0  0  0  0
   21.5362  -21.4242  -11.4438 C   0  0  0  0  0  0  0  0  0  0  0  0
   21.4013  -22.5762  -12.1904 C   0  0  0  0  0  0  0  0  0  0  0  0
   20.8708  -23.7472  -11.6802 C   0  0  0  0  0  0  0  0  0  0  0  0
   20.4521  -23.7625  -10.3457 C   0  0  0  0  0  0  0  0  0  0  0  0
   20.5731  -22.6283   -9.5725 C   0  0  0  0  0  0  0  0  0  0  0  0
   21.1086  -21.4833  -10.1253 C   0  0  0  0  0  0  0  0  0  0  0  0
   24.2743  -19.3087  -12.8818 C   0  0  0  0  0  0  0  0  0  0  0  0
   24.3686  -18.1168  -12.4894 O   0  0  0  0  0  0  0  0  0  0  0  0
   26.9932  -20.4017  -15.8852 C   0  0  0  0  0  0  0  0  0  0  0  0
   26.9103  -19.0559  -15.2142 C   0  0  1  0  0  0  0  0  0  0  0  0
   27.6920  -18.0055  -15.9315 C   0  0  0  0  0  0  0  0  0  0  0  0
   25.5134  -18.6033  -14.9590 C   0  0  2  0  0  0  0  0  0  0  0  0
   24.8229  -19.6117  -14.1579 N   0  0  0  0  0  0  0  0  0  0  0  0
   24.8141  -18.4819  -16.2686 C   0  0  0  0  0  0  0  0  0  0  0  0
   24.7395  -19.4776  -17.0551 O   0  0  0  0  0  0  0  0  0  0  0  0
   21.2284  -17.0296  -17.0275 C   0  0  0  0  0  0  0  0  0  0  0  0
   22.2712  -16.2543  -17.8013 C   0  0  1  0  0  0  0  0  0  0  0  0
   22.6151  -15.1391  -17.0384 O   0  0  0  0  0  0  0  0  0  0  0  0
   23.4849  -17.1418  -17.9517 C   0  0  2  0  0  0  0  0  0  0  0  0
   24.2067  -17.2809  -16.7029 N   0  0  0  0  0  0  0  0  0  0  0  0
   24.3835  -16.4942  -18.9422 C   0  0  0  0  0  0  0  0  0  0  0  0
   25.5730  -15.8779  -18.5765 O   0  0  0  0  0  0  0  0  0  0  0  0
   24.1062  -16.4724  -20.1803 O   0  0  0  0  0  0  0  0  0  0  0  0
  2  1  1  1
  2 10  1  0
  3  2  1  0
  3  4  1  0
  4  9  2  0
  4  5  1  0
  5  6  2  0
  6  7  1  0
  8  7  2  0
  9  8  1  0
 10 11  2  0
 13 12  1  6
 13 15  1  0
 14 13  1  0
 15 17  1  0
 15 16  1  1
 16 10  1  0
 17 18  2  0
 20 19  1  1
 20 22  1  0
 21 20  1  0
 22 24  1  0
 22 23  1  1
 23 17  1  0
 24 26  2  0
 24 25  1  0
M  END
$$$$
