FVT.pdb
     RDKit          3D

 26 26  0  0  1  0  0  0  0  0999 V2000
   27.1891  -22.1671  -11.5055 N   0  0  0  0  0  0  0  0  0  0  0  0
   26.1640  -21.1718  -11.3811 C   0  0  1  0  0  0  0  0  0  0  0  0
   26.8412  -19.8646  -10.9877 C   0  0  0  0  0  0  0  0  0  0  0  0
   27.1706  -19.9831   -9.5358 C   0  0  0  0  0  0  0  0  0  0  0  0
   26.1891  -20.0444   -8.5685 C   0  0  0  0  0  0  0  0  0  0  0  0
   26.4674  -20.1543   -7.2182 C   0  0  0  0  0  0  0  0  0  0  0  0
   27.8061  -20.2054   -6.8163 C   0  0  0  0  0  0  0  0  0  0  0  0
   28.8108  -20.1464   -7.7575 C   0  0  0  0  0  0  0  0  0  0  0  0
   28.4844  -20.0369   -9.0935 C   0  0  0  0  0  0  0  0  0  0  0  0
   25.3927  -21.0036  -12.6504 C   0  0  0  0  0  0  0  0  0  0  0  0
   25.9324  -21.0441  -13.7864 O   0  0  0  0  0  0  0  0  0  0  0  0
   21.1989  -21.2736  -12.3519 C   0  0  0  0  0  0  0  0  0  0  0  0
   21.9691  -21.6524  -13.5896 C   0  0  1  0  0  0  0  0  0  0  0  0
   21.1084  -21.7114  -14.8081 C   0  0  0  0  0  0  0  0  0  0  0  0
   23.1723  -20.8049  -13.8244 C   0  0  2  0  0  0  0  0  0  0  0  0
   23.9883  -20.7867  -12.6121 N   0  0  0  0  0  0  0  0  0  0  0  0
   22.7179  -19.4149  -14.1075 C   0  0  0  0  0  0  0  0  0  0  0  0
   22.2704  -18.6792  -13.1725 O   0  0  0  0  0  0  0  0  0  0  0  0
   24.4661  -16.5337  -16.3034 C   0  0  0  0  0  0  0  0  0  0  0  0
   23.1004  -16.8944  -16.8437 C   0  0  1  0  0  0  0  0  0  0  0  0
   23.2841  -17.8533  -17.8392 O   0  0  0  0  0  0  0  0  0  0  0  0
   22.3058  -17.5045  -15.7125 C   0  0  2  0  0  0  0  0  0  0  0  0
   22.7569  -18.8461  -15.4016 N   0  0  0  0  0  0  0  0  0  0  0  0
   20.8904  -17.5783  -16.1587 C   0  0  0  0  0  0  0  0  0  0  0  0
   20.1200  -16.4445  -16.3808 O   0  0  0  0  0  0  0  0  0  0  0  0
   20.3115  -18.6895  -16.3603 O   0  0  0  0  0  0  0  0  0  0  0  0
  2  1  1  6
  2 10  1  0
  3  2  1  0
  3  4  1  0
  4  9  2  0
  4  5  1  0
  5  6  2  0
  6  7  1  0
  8  7  2  0
  9  8  1  0
 10 11  2  0
 13 12  1  1
 13 15  1  0
 14 13  1  0
 15 17  1  0
 15 16  1  1
 16 10  1  0
 17 18  2  0
 20 19  1  1
 20 22  1  0
 21 20  1  0
 22 24  1  0
 22 23  1  6
 23 17  1  0
 24 26  2  0
 24 25  1  0
M  END
$$$$
