FVT.pdb
     RDKit          3D

 26 26  0  0  1  0  0  0  0  0999 V2000
   21.4941  -12.7322  -17.8720 N   0  0  0  0  0  0  0  0  0  0  0  0
   21.9947  -11.8400  -16.8669 C   0  0  1  0  0  0  0  0  0  0  0  0
   23.4966  -11.7019  -17.0852 C   0  0  0  0  0  0  0  0  0  0  0  0
   24.0913  -13.0338  -16.7642 C   0  0  0  0  0  0  0  0  0  0  0  0
   24.3426  -13.4259  -15.4658 C   0  0  0  0  0  0  0  0  0  0  0  0
   24.8924  -14.6531  -15.1420 C   0  0  0  0  0  0  0  0  0  0  0  0
   25.2075  -15.5361  -16.1799 C   0  0  0  0  0  0  0  0  0  0  0  0
   24.9689  -15.1751  -17.4881 C   0  0  0  0  0  0  0  0  0  0  0  0
   24.4189  -13.9400  -17.7624 C   0  0  0  0  0  0  0  0  0  0  0  0
   21.3293  -10.5028  -16.9263 C   0  0  0  0  0  0  0  0  0  0  0  0
   21.1195   -9.8933  -18.0070 O   0  0  0  0  0  0  0  0  0  0  0  0
   18.1879   -7.4407  -14.7635 C   0  0  0  0  0  0  0  0  0  0  0  0
   18.8912   -8.7460  -15.0278 C   0  0  1  0  0  0  0  0  0  0  0  0
   18.0133   -9.7470  -15.7032 C   0  0  0  0  0  0  0  0  0  0  0  0
   20.1827   -8.5895  -15.7550 C   0  0  2  0  0  0  0  0  0  0  0  0
   20.9018   -9.8615  -15.7318 N   0  0  0  0  0  0  0  0  0  0  0  0
   21.0023   -7.5718  -15.0397 C   0  0  0  0  0  0  0  0  0  0  0  0
   21.4515   -7.8080  -13.8744 O   0  0  0  0  0  0  0  0  0  0  0  0
   23.9021   -5.4111  -16.7696 C   0  0  0  0  0  0  0  0  0  0  0  0
   22.9304   -4.5165  -16.0329 C   0  0  1  0  0  0  0  0  0  0  0  0
   21.9937   -4.0624  -16.9606 O   0  0  0  0  0  0  0  0  0  0  0  0
   22.2271   -5.3597  -14.9948 C   0  0  2  0  0  0  0  0  0  0  0  0
   21.3209   -6.3139  -15.6018 N   0  0  0  0  0  0  0  0  0  0  0  0
   21.4331   -4.4369  -14.1427 C   0  0  0  0  0  0  0  0  0  0  0  0
   22.0241   -3.5702  -13.2329 O   0  0  0  0  0  0  0  0  0  0  0  0
   20.1663   -4.3953  -14.2048 O   0  0  0  0  0  0  0  0  0  0  0  0
  2  1  1  6
  2 10  1  0
  3  2  1  0
  3  4  1  0
  4  9  2  0
  4  5  1  0
  5  6  2  0
  6  7  1  0
  8  7  2  0
  9  8  1  0
 10 11  2  0
 13 12  1  6
 13 15  1  0
 14 13  1  0
 15 17  1  0
 15 16  1  1
 16 10  1  0
 17 18  2  0
 20 19  1  6
 20 22  1  0
 21 20  1  0
 22 24  1  0
 22 23  1  6
 23 17  1  0
 24 26  2  0
 24 25  1  0
M  END
$$$$
