FVT.pdb
     RDKit          3D

 26 26  0  0  1  0  0  0  0  0999 V2000
   39.7834   -4.1913   -5.9011 N   0  0  0  0  0  0  0  0  0  0  0  0
   40.7924   -4.8991   -6.6345 C   0  0  1  0  0  0  0  0  0  0  0  0
   42.1357   -4.5773   -5.9910 C   0  0  0  0  0  0  0  0  0  0  0  0
   42.4549   -3.1680   -6.3686 C   0  0  0  0  0  0  0  0  0  0  0  0
   42.5447   -2.1639   -5.4271 C   0  0  0  0  0  0  0  0  0  0  0  0
   42.8388   -0.8516   -5.7504 C   0  0  0  0  0  0  0  0  0  0  0  0
   43.0548   -0.5294   -7.0942 C   0  0  0  0  0  0  0  0  0  0  0  0
   42.9725   -1.5092   -8.0596 C   0  0  0  0  0  0  0  0  0  0  0  0
   42.6764   -2.8047   -7.6891 C   0  0  0  0  0  0  0  0  0  0  0  0
   40.5497   -6.3740   -6.6362 C   0  0  0  0  0  0  0  0  0  0  0  0
   40.2364   -7.0145   -5.5993 O   0  0  0  0  0  0  0  0  0  0  0  0
   39.2044  -10.3855   -9.0226 C   0  0  0  0  0  0  0  0  0  0  0  0
   39.3817   -8.9053   -8.8074 C   0  0  1  0  0  0  0  0  0  0  0  0
   38.1151   -8.2263   -8.4030 C   0  0  0  0  0  0  0  0  0  0  0  0
   40.4920   -8.5688   -7.8720 C   0  0  2  0  0  0  0  0  0  0  0  0
   40.6686   -7.1185   -7.8414 N   0  0  0  0  0  0  0  0  0  0  0  0
   41.7448   -9.1852   -8.3914 C   0  0  0  0  0  0  0  0  0  0  0  0
   42.1748   -8.8931   -9.5513 O   0  0  0  0  0  0  0  0  0  0  0  0
   44.8492  -10.1416   -5.9372 C   0  0  0  0  0  0  0  0  0  0  0  0
   44.5580  -11.2487   -6.9254 C   0  0  1  0  0  0  0  0  0  0  0  0
   43.7537  -12.1863   -6.2786 O   0  0  0  0  0  0  0  0  0  0  0  0
   43.7848  -10.6458   -8.0752 C   0  0  2  0  0  0  0  0  0  0  0  0
   42.5104  -10.1087   -7.6426 N   0  0  0  0  0  0  0  0  0  0  0  0
   43.5261  -11.7360   -9.0512 C   0  0  0  0  0  0  0  0  0  0  0  0
   44.5461  -12.3613   -9.7562 O   0  0  0  0  0  0  0  0  0  0  0  0
   42.3515  -12.1525   -9.2904 O   0  0  0  0  0  0  0  0  0  0  0  0
  2  1  1  1
  2 10  1  0
  3  2  1  0
  3  4  1  0
  4  9  2  0
  4  5  1  0
  5  6  2  0
  6  7  1  0
  8  7  2  0
  9  8  1  0
 10 11  2  0
 13 12  1  1
 13 15  1  0
 14 13  1  0
 15 17  1  0
 15 16  1  6
 16 10  1  0
 17 18  2  0
 20 19  1  1
 20 22  1  0
 21 20  1  0
 22 24  1  0
 22 23  1  1
 23 17  1  0
 24 26  2  0
 24 25  1  0
M  END
$$$$
