FVT.pdb
     RDKit          3D

 26 26  0  0  1  0  0  0  0  0999 V2000
   23.0734  -12.3926  -18.5480 N   0  0  0  0  0  0  0  0  0  0  0  0
   22.2095  -11.2521  -18.6473 C   0  0  1  0  0  0  0  0  0  0  0  0
   20.7950  -11.7209  -18.3284 C   0  0  0  0  0  0  0  0  0  0  0  0
   20.3529  -12.5436  -19.4939 C   0  0  0  0  0  0  0  0  0  0  0  0
   19.9465  -11.9681  -20.6798 C   0  0  0  0  0  0  0  0  0  0  0  0
   19.5328  -12.7070  -21.7733 C   0  0  0  0  0  0  0  0  0  0  0  0
   19.5267  -14.1019  -21.6705 C   0  0  0  0  0  0  0  0  0  0  0  0
   19.9267  -14.7083  -20.4996 C   0  0  0  0  0  0  0  0  0  0  0  0
   20.3313  -13.9295  -19.4352 C   0  0  0  0  0  0  0  0  0  0  0  0
   22.6227  -10.1565  -17.7182 C   0  0  0  0  0  0  0  0  0  0  0  0
   22.8885  -10.3560  -16.5045 O   0  0  0  0  0  0  0  0  0  0  0  0
   25.3147   -8.3675  -18.5983 C   0  0  0  0  0  0  0  0  0  0  0  0
   24.5582   -7.2908  -17.8655 C   0  0  1  0  0  0  0  0  0  0  0  0
   24.4184   -6.0384  -18.6660 C   0  0  0  0  0  0  0  0  0  0  0  0
   23.2377   -7.7423  -17.3425 C   0  0  2  0  0  0  0  0  0  0  0  0
   22.7308   -8.8198  -18.1897 N   0  0  0  0  0  0  0  0  0  0  0  0
   22.2880   -6.5972  -17.4177 C   0  0  0  0  0  0  0  0  0  0  0  0
   22.0271   -6.0476  -18.5337 O   0  0  0  0  0  0  0  0  0  0  0  0
   18.7434   -6.6066  -16.3607 C   0  0  0  0  0  0  0  0  0  0  0  0
   19.3632   -5.4572  -15.5978 C   0  0  1  0  0  0  0  0  0  0  0  0
   19.7143   -5.9338  -14.3353 O   0  0  0  0  0  0  0  0  0  0  0  0
   20.6157   -5.0407  -16.3333 C   0  0  2  0  0  0  0  0  0  0  0  0
   21.6367   -6.0676  -16.2797 N   0  0  0  0  0  0  0  0  0  0  0  0
   21.1389   -3.8249  -15.6579 C   0  0  0  0  0  0  0  0  0  0  0  0
   20.4522   -2.6179  -15.6613 O   0  0  0  0  0  0  0  0  0  0  0  0
   22.2473   -3.8297  -15.0400 O   0  0  0  0  0  0  0  0  0  0  0  0
  2  1  1  1
  2 10  1  0
  3  2  1  0
  3  4  1  0
  4  9  2  0
  4  5  1  0
  5  6  2  0
  6  7  1  0
  8  7  2  0
  9  8  1  0
 10 11  2  0
 13 12  1  6
 13 15  1  0
 14 13  1  0
 15 17  1  0
 15 16  1  6
 16 10  1  0
 17 18  2  0
 20 19  1  6
 20 22  1  0
 21 20  1  0
 22 24  1  0
 22 23  1  1
 23 17  1  0
 24 26  2  0
 24 25  1  0
M  END
$$$$
