FVT.pdb
     RDKit          3D

 26 26  0  0  1  0  0  0  0  0999 V2000
   28.6016  -21.1653  -15.7136 N   0  0  0  0  0  0  0  0  0  0  0  0
   27.6360  -20.3153  -15.0796 C   0  0  1  0  0  0  0  0  0  0  0  0
   26.8969  -19.5630  -16.1797 C   0  0  0  0  0  0  0  0  0  0  0  0
   27.7831  -18.4299  -16.5813 C   0  0  0  0  0  0  0  0  0  0  0  0
   28.5904  -18.4964  -17.6978 C   0  0  0  0  0  0  0  0  0  0  0  0
   29.4196  -17.4617  -18.0911 C   0  0  0  0  0  0  0  0  0  0  0  0
   29.4395  -16.2947  -17.3204 C   0  0  0  0  0  0  0  0  0  0  0  0
   28.6450  -16.1960  -16.1989 C   0  0  0  0  0  0  0  0  0  0  0  0
   27.8338  -17.2546  -15.8458 C   0  0  0  0  0  0  0  0  0  0  0  0
   26.6762  -21.0924  -14.2374 C   0  0  0  0  0  0  0  0  0  0  0  0
   26.2292  -22.2189  -14.5763 O   0  0  0  0  0  0  0  0  0  0  0  0
   27.0729  -21.1044  -10.4087 C   0  0  0  0  0  0  0  0  0  0  0  0
   25.6010  -21.0287  -10.7189 C   0  0  1  0  0  0  0  0  0  0  0  0
   24.9801  -19.7517  -10.2576 C   0  0  0  0  0  0  0  0  0  0  0  0
   25.2801  -21.2939  -12.1499 C   0  0  2  0  0  0  0  0  0  0  0  0
   26.2267  -20.5687  -12.9946 N   0  0  0  0  0  0  0  0  0  0  0  0
   23.9104  -20.7774  -12.4260 C   0  0  0  0  0  0  0  0  0  0  0  0
   23.6462  -19.5420  -12.2857 O   0  0  0  0  0  0  0  0  0  0  0  0
   22.0295  -21.2774  -15.6260 C   0  0  0  0  0  0  0  0  0  0  0  0
   21.0806  -21.7370  -14.5417 C   0  0  1  0  0  0  0  0  0  0  0  0
   21.1855  -23.1246  -14.4542 O   0  0  0  0  0  0  0  0  0  0  0  0
   21.5412  -21.1248  -13.2393 C   0  0  2  0  0  0  0  0  0  0  0  0
   22.8498  -21.6109  -12.8503 N   0  0  0  0  0  0  0  0  0  0  0  0
   20.5635  -21.5258  -12.1946 C   0  0  0  0  0  0  0  0  0  0  0  0
   19.2715  -21.0186  -12.1505 O   0  0  0  0  0  0  0  0  0  0  0  0
   20.8633  -22.3576  -11.2844 O   0  0  0  0  0  0  0  0  0  0  0  0
  2  1  1  6
  2 10  1  0
  3  2  1  0
  3  4  1  0
  4  9  2  0
  4  5  1  0
  5  6  2  0
  6  7  1  0
  8  7  2  0
  9  8  1  0
 10 11  2  0
 13 12  1  6
 13 15  1  0
 14 13  1  0
 15 17  1  0
 15 16  1  6
 16 10  1  0
 17 18  2  0
 20 19  1  6
 20 22  1  0
 21 20  1  0
 22 24  1  0
 22 23  1  1
 23 17  1  0
 24 26  2  0
 24 25  1  0
M  END
$$$$
