FVT.pdb
     RDKit          3D

 26 26  0  0  1  0  0  0  0  0999 V2000
   28.3162  -25.3050  -16.4636 N   0  0  0  0  0  0  0  0  0  0  0  0
   26.9188  -25.4418  -16.7560 C   0  0  1  0  0  0  0  0  0  0  0  0
   26.4375  -26.7284  -16.0961 C   0  0  0  0  0  0  0  0  0  0  0  0
   26.9819  -27.8504  -16.9179 C   0  0  0  0  0  0  0  0  0  0  0  0
   26.4782  -28.1504  -18.1665 C   0  0  0  0  0  0  0  0  0  0  0  0
   26.9643  -29.1835  -18.9471 C   0  0  0  0  0  0  0  0  0  0  0  0
   28.0151  -29.9588  -18.4462 C   0  0  0  0  0  0  0  0  0  0  0  0
   28.5411  -29.6854  -17.2023 C   0  0  0  0  0  0  0  0  0  0  0  0
   28.0233  -28.6443  -16.4597 C   0  0  0  0  0  0  0  0  0  0  0  0
   26.1289  -24.2715  -16.2653 C   0  0  0  0  0  0  0  0  0  0  0  0
   26.4006  -23.6656  -15.1964 O   0  0  0  0  0  0  0  0  0  0  0  0
   25.7746  -21.6988  -18.3716 C   0  0  0  0  0  0  0  0  0  0  0  0
   24.5228  -21.5052  -17.5567 C   0  0  1  0  0  0  0  0  0  0  0  0
   23.3225  -21.2308  -18.4011 C   0  0  0  0  0  0  0  0  0  0  0  0
   24.2601  -22.6146  -16.5969 C   0  0  2  0  0  0  0  0  0  0  0  0
   25.0166  -23.7944  -17.0110 N   0  0  0  0  0  0  0  0  0  0  0  0
   22.8083  -22.9439  -16.6480 C   0  0  0  0  0  0  0  0  0  0  0  0
   22.2878  -23.4031  -17.7128 O   0  0  0  0  0  0  0  0  0  0  0  0
   20.8497  -25.0338  -13.9899 C   0  0  0  0  0  0  0  0  0  0  0  0
   20.1357  -23.7151  -14.1856 C   0  0  1  0  0  0  0  0  0  0  0  0
   20.5736  -22.8494  -13.1842 O   0  0  0  0  0  0  0  0  0  0  0  0
   20.5506  -23.1637  -15.5299 C   0  0  2  0  0  0  0  0  0  0  0  0
   21.9450  -22.7694  -15.5416 N   0  0  0  0  0  0  0  0  0  0  0  0
   19.7211  -21.9578  -15.7859 C   0  0  0  0  0  0  0  0  0  0  0  0
   18.3404  -22.0193  -15.9216 O   0  0  0  0  0  0  0  0  0  0  0  0
   20.2374  -20.8035  -15.8940 O   0  0  0  0  0  0  0  0  0  0  0  0
  2  1  1  1
  2 10  1  0
  3  2  1  0
  3  4  1  0
  4  9  2  0
  4  5  1  0
  5  6  2  0
  6  7  1  0
  8  7  2  0
  9  8  1  0
 10 11  2  0
 13 12  1  6
 13 15  1  0
 14 13  1  0
 15 17  1  0
 15 16  1  6
 16 10  1  0
 17 18  2  0
 20 19  1  1
 20 22  1  0
 21 20  1  0
 22 24  1  0
 22 23  1  1
 23 17  1  0
 24 26  2  0
 24 25  1  0
M  END
$$$$
