FVT.pdb
     RDKit          3D

 26 26  0  0  1  0  0  0  0  0999 V2000
   28.5479  -21.1279   -9.0268 N   0  0  0  0  0  0  0  0  0  0  0  0
   27.1998  -20.6526   -9.1431 C   0  0  1  0  0  0  0  0  0  0  0  0
   27.1530  -19.2568   -8.5334 C   0  0  0  0  0  0  0  0  0  0  0  0
   27.3321  -19.4357   -7.0615 C   0  0  0  0  0  0  0  0  0  0  0  0
   28.4743  -19.0185   -6.4103 C   0  0  0  0  0  0  0  0  0  0  0  0
   28.6646  -19.1724   -5.0490 C   0  0  0  0  0  0  0  0  0  0  0  0
   27.6515  -19.7791   -4.2994 C   0  0  0  0  0  0  0  0  0  0  0  0
   26.4978  -20.2071   -4.9195 C   0  0  0  0  0  0  0  0  0  0  0  0
   26.3529  -20.0322   -6.2803 C   0  0  0  0  0  0  0  0  0  0  0  0
   26.7399  -20.6213  -10.5651 C   0  0  0  0  0  0  0  0  0  0  0  0
   27.4311  -20.1290  -11.4943 O   0  0  0  0  0  0  0  0  0  0  0  0
   23.5839  -23.2456  -12.5572 C   0  0  0  0  0  0  0  0  0  0  0  0
   24.9421  -22.6247  -12.7529 C   0  0  1  0  0  0  0  0  0  0  0  0
   25.4493  -22.7771  -14.1488 C   0  0  0  0  0  0  0  0  0  0  0  0
   25.0166  -21.2042  -12.3081 C   0  0  2  0  0  0  0  0  0  0  0  0
   25.4738  -21.1609  -10.9207 N   0  0  0  0  0  0  0  0  0  0  0  0
   23.6473  -20.6213  -12.3715 C   0  0  0  0  0  0  0  0  0  0  0  0
   22.8893  -20.6420  -11.3513 O   0  0  0  0  0  0  0  0  0  0  0  0
   22.4880  -17.3623  -14.8239 C   0  0  0  0  0  0  0  0  0  0  0  0
   21.6522  -18.6199  -14.9086 C   0  0  1  0  0  0  0  0  0  0  0  0
   22.1573  -19.3884  -15.9567 O   0  0  0  0  0  0  0  0  0  0  0  0
   21.8292  -19.3766  -13.6128 C   0  0  2  0  0  0  0  0  0  0  0  0
   23.1232  -20.0250  -13.5418 N   0  0  0  0  0  0  0  0  0  0  0  0
   20.7773  -20.4252  -13.5683 C   0  0  0  0  0  0  0  0  0  0  0  0
   19.4876  -20.1671  -13.1226 O   0  0  0  0  0  0  0  0  0  0  0  0
   21.0074  -21.6171  -13.9380 O   0  0  0  0  0  0  0  0  0  0  0  0
  2  1  1  6
  2 10  1  0
  3  2  1  0
  3  4  1  0
  4  9  2  0
  4  5  1  0
  5  6  2  0
  6  7  1  0
  8  7  2  0
  9  8  1  0
 10 11  2  0
 13 12  1  6
 13 15  1  0
 14 13  1  0
 15 17  1  0
 15 16  1  1
 16 10  1  0
 17 18  2  0
 20 19  1  1
 20 22  1  0
 21 20  1  0
 22 24  1  0
 22 23  1  6
 23 17  1  0
 24 26  2  0
 24 25  1  0
M  END
$$$$
