FVT.pdb
     RDKit          3D

 26 26  0  0  1  0  0  0  0  0999 V2000
   24.2555  -12.5792  -16.1494 N   0  0  0  0  0  0  0  0  0  0  0  0
   23.7753  -11.5093  -15.3239 C   0  0  1  0  0  0  0  0  0  0  0  0
   24.9150  -11.0977  -14.3999 C   0  0  0  0  0  0  0  0  0  0  0  0
   26.1036  -10.8706  -15.2753 C   0  0  0  0  0  0  0  0  0  0  0  0
   27.0350  -11.8604  -15.5107 C   0  0  0  0  0  0  0  0  0  0  0  0
   28.1437  -11.6758  -16.3169 C   0  0  0  0  0  0  0  0  0  0  0  0
   28.3276  -10.4276  -16.9205 C   0  0  0  0  0  0  0  0  0  0  0  0
   27.4154   -9.4173  -16.7057 C   0  0  0  0  0  0  0  0  0  0  0  0
   26.3246   -9.6484  -15.8934 C   0  0  0  0  0  0  0  0  0  0  0  0
   23.3094  -10.3439  -16.1359 C   0  0  0  0  0  0  0  0  0  0  0  0
   23.6458  -10.1714  -17.3361 O   0  0  0  0  0  0  0  0  0  0  0  0
   20.2535   -9.9053  -17.4516 C   0  0  0  0  0  0  0  0  0  0  0  0
   20.4225   -8.6493  -16.6377 C   0  0  1  0  0  0  0  0  0  0  0  0
   19.6222   -8.6676  -15.3775 C   0  0  0  0  0  0  0  0  0  0  0  0
   21.8464   -8.3054  -16.3629 C   0  0  2  0  0  0  0  0  0  0  0  0
   22.4491   -9.3686  -15.5618 N   0  0  0  0  0  0  0  0  0  0  0  0
   21.8790   -7.0434  -15.5722 C   0  0  0  0  0  0  0  0  0  0  0  0
   21.8385   -7.0765  -14.3022 O   0  0  0  0  0  0  0  0  0  0  0  0
   24.1563   -3.8513  -16.4400 C   0  0  0  0  0  0  0  0  0  0  0  0
   22.7166   -3.4370  -16.2330 C   0  0  1  0  0  0  0  0  0  0  0  0
   22.1190   -3.3574  -17.4903 O   0  0  0  0  0  0  0  0  0  0  0  0
   22.0371   -4.5233  -15.4322 C   0  0  2  0  0  0  0  0  0  0  0  0
   21.9552   -5.7658  -16.1735 N   0  0  0  0  0  0  0  0  0  0  0  0
   20.6555   -4.0585  -15.1437 C   0  0  0  0  0  0  0  0  0  0  0  0
   20.3931   -2.9652  -14.3288 O   0  0  0  0  0  0  0  0  0  0  0  0
   19.6398   -4.6422  -15.6315 O   0  0  0  0  0  0  0  0  0  0  0  0
  2  1  1  6
  2 10  1  0
  3  2  1  0
  3  4  1  0
  4  9  2  0
  4  5  1  0
  5  6  2  0
  6  7  1  0
  8  7  2  0
  9  8  1  0
 10 11  2  0
 13 12  1  1
 13 15  1  0
 14 13  1  0
 15 17  1  0
 15 16  1  1
 16 10  1  0
 17 18  2  0
 20 19  1  6
 20 22  1  0
 21 20  1  0
 22 24  1  0
 22 23  1  6
 23 17  1  0
 24 26  2  0
 24 25  1  0
M  END
$$$$
