FVT.pdb
     RDKit          3D

 26 26  0  0  1  0  0  0  0  0999 V2000
   29.1285  -19.8286  -12.3288 N   0  0  0  0  0  0  0  0  0  0  0  0
   28.0078  -20.7008  -12.1287 C   0  0  1  0  0  0  0  0  0  0  0  0
   27.9280  -21.0081  -10.6382 C   0  0  0  0  0  0  0  0  0  0  0  0
   29.2602  -21.5622  -10.2523 C   0  0  0  0  0  0  0  0  0  0  0  0
   29.9898  -21.0420   -9.2036 C   0  0  0  0  0  0  0  0  0  0  0  0
   31.2251  -21.5367   -8.8262 C   0  0  0  0  0  0  0  0  0  0  0  0
   31.7576  -22.6141   -9.5416 C   0  0  0  0  0  0  0  0  0  0  0  0
   31.0541  -23.1571  -10.5947 C   0  0  0  0  0  0  0  0  0  0  0  0
   29.8253  -22.6299  -10.9345 C   0  0  0  0  0  0  0  0  0  0  0  0
   26.7314  -20.0884  -12.6086 C   0  0  0  0  0  0  0  0  0  0  0  0
   26.4401  -18.8797  -12.4144 O   0  0  0  0  0  0  0  0  0  0  0  0
   26.1435  -20.1211  -15.8311 C   0  0  0  0  0  0  0  0  0  0  0  0
   24.7131  -20.2160  -15.3691 C   0  0  1  0  0  0  0  0  0  0  0  0
   23.9648  -21.3228  -16.0354 C   0  0  0  0  0  0  0  0  0  0  0  0
   24.5699  -20.2888  -13.8874 C   0  0  2  0  0  0  0  0  0  0  0  0
   25.7822  -20.8735  -13.3181 N   0  0  0  0  0  0  0  0  0  0  0  0
   23.4218  -21.1838  -13.5714 C   0  0  0  0  0  0  0  0  0  0  0  0
   23.5376  -22.4448  -13.6806 O   0  0  0  0  0  0  0  0  0  0  0  0
   20.6127  -20.4642  -10.6343 C   0  0  0  0  0  0  0  0  0  0  0  0
   20.0088  -20.7856  -11.9830 C   0  0  1  0  0  0  0  0  0  0  0  0
   19.7368  -19.5750  -12.6191 O   0  0  0  0  0  0  0  0  0  0  0  0
   21.0459  -21.5401  -12.7821 C   0  0  2  0  0  0  0  0  0  0  0  0
   22.1665  -20.6947  -13.1417 N   0  0  0  0  0  0  0  0  0  0  0  0
   20.3880  -22.0020  -14.0319 C   0  0  0  0  0  0  0  0  0  0  0  0
   19.4468  -23.0230  -14.0440 O   0  0  0  0  0  0  0  0  0  0  0  0
   20.6560  -21.4822  -15.1582 O   0  0  0  0  0  0  0  0  0  0  0  0
  2  1  1  1
  2 10  1  0
  3  2  1  0
  3  4  1  0
  4  9  2  0
  4  5  1  0
  5  6  2  0
  6  7  1  0
  8  7  2  0
  9  8  1  0
 10 11  2  0
 13 12  1  1
 13 15  1  0
 14 13  1  0
 15 17  1  0
 15 16  1  1
 16 10  1  0
 17 18  2  0
 20 19  1  1
 20 22  1  0
 21 20  1  0
 22 24  1  0
 22 23  1  6
 23 17  1  0
 24 26  2  0
 24 25  1  0
M  END
$$$$
