FVT.pdb
     RDKit          3D

 26 26  0  0  1  0  0  0  0  0999 V2000
   27.5191  -19.2416  -16.5834 N   0  0  0  0  0  0  0  0  0  0  0  0
   26.7786  -18.7447  -15.4602 C   0  0  1  0  0  0  0  0  0  0  0  0
   25.7564  -17.7472  -15.9916 C   0  0  0  0  0  0  0  0  0  0  0  0
   26.5083  -16.4893  -16.2798 C   0  0  0  0  0  0  0  0  0  0  0  0
   26.8025  -16.0951  -17.5685 C   0  0  0  0  0  0  0  0  0  0  0  0
   27.4970  -14.9356  -17.8621 C   0  0  0  0  0  0  0  0  0  0  0  0
   27.9197  -14.1263  -16.8025 C   0  0  0  0  0  0  0  0  0  0  0  0
   27.6419  -14.4915  -15.5032 C   0  0  0  0  0  0  0  0  0  0  0  0
   26.9461  -15.6576  -15.2593 C   0  0  0  0  0  0  0  0  0  0  0  0
   26.0994  -19.8442  -14.7091 C   0  0  0  0  0  0  0  0  0  0  0  0
   25.7597  -20.9293  -15.2481 O   0  0  0  0  0  0  0  0  0  0  0  0
   25.0686  -21.7499  -10.2540 C   0  0  0  0  0  0  0  0  0  0  0  0
   25.7567  -20.7853  -11.1838 C   0  0  1  0  0  0  0  0  0  0  0  0
   27.2341  -20.9932  -11.2391 C   0  0  0  0  0  0  0  0  0  0  0  0
   25.1684  -20.7559  -12.5528 C   0  0  2  0  0  0  0  0  0  0  0  0
   25.8086  -19.6937  -13.3257 N   0  0  0  0  0  0  0  0  0  0  0  0
   23.7173  -20.4418  -12.4321 C   0  0  0  0  0  0  0  0  0  0  0  0
   23.3156  -19.5492  -11.6212 O   0  0  0  0  0  0  0  0  0  0  0  0
   21.3082  -19.1446  -14.8869 C   0  0  0  0  0  0  0  0  0  0  0  0
   20.7217  -20.4701  -14.4554 C   0  0  1  0  0  0  0  0  0  0  0  0
   21.1251  -21.4286  -15.3842 O   0  0  0  0  0  0  0  0  0  0  0  0
   21.3084  -20.8140  -13.1060 C   0  0  2  0  0  0  0  0  0  0  0  0
   22.7258  -21.1021  -13.1941 N   0  0  0  0  0  0  0  0  0  0  0  0
   20.6121  -22.0339  -12.6212 C   0  0  0  0  0  0  0  0  0  0  0  0
   19.2802  -22.0240  -12.2281 O   0  0  0  0  0  0  0  0  0  0  0  0
   21.2047  -23.1533  -12.5420 O   0  0  0  0  0  0  0  0  0  0  0  0
  2  1  1  6
  2 10  1  0
  3  2  1  0
  3  4  1  0
  4  9  2  0
  4  5  1  0
  5  6  2  0
  6  7  1  0
  8  7  2  0
  9  8  1  0
 10 11  2  0
 13 12  1  1
 13 15  1  0
 14 13  1  0
 15 17  1  0
 15 16  1  6
 16 10  1  0
 17 18  2  0
 20 19  1  6
 20 22  1  0
 21 20  1  0
 22 24  1  0
 22 23  1  6
 23 17  1  0
 24 26  2  0
 24 25  1  0
M  END
$$$$
