FVT.pdb
     RDKit          3D

 26 26  0  0  1  0  0  0  0  0999 V2000
   24.5450  -19.9936  -18.2468 N   0  0  0  0  0  0  0  0  0  0  0  0
   24.8376  -19.2421  -17.0609 C   0  0  1  0  0  0  0  0  0  0  0  0
   23.5329  -18.6168  -16.5824 C   0  0  0  0  0  0  0  0  0  0  0  0
   23.1533  -17.6008  -17.6092 C   0  0  0  0  0  0  0  0  0  0  0  0
   22.0559  -17.7672  -18.4282 C   0  0  0  0  0  0  0  0  0  0  0  0
   21.6831  -16.8419  -19.3863 C   0  0  0  0  0  0  0  0  0  0  0  0
   22.4554  -15.6847  -19.5303 C   0  0  0  0  0  0  0  0  0  0  0  0
   23.5582  -15.4880  -18.7278 C   0  0  0  0  0  0  0  0  0  0  0  0
   23.8911  -16.4392  -17.7857 C   0  0  0  0  0  0  0  0  0  0  0  0
   25.4340  -20.0984  -15.9906 C   0  0  0  0  0  0  0  0  0  0  0  0
   24.9607  -21.2201  -15.6722 O   0  0  0  0  0  0  0  0  0  0  0  0
   28.7211  -18.4851  -13.8537 C   0  0  0  0  0  0  0  0  0  0  0  0
   28.4773  -19.9712  -13.8299 C   0  0  1  0  0  0  0  0  0  0  0  0
   28.9931  -20.6197  -12.5880 C   0  0  0  0  0  0  0  0  0  0  0  0
   27.0563  -20.3452  -14.0788 C   0  0  2  0  0  0  0  0  0  0  0  0
   26.5850  -19.6602  -15.2807 N   0  0  0  0  0  0  0  0  0  0  0  0
   26.2407  -19.8816  -12.9218 C   0  0  0  0  0  0  0  0  0  0  0  0
   26.0321  -18.6418  -12.7348 O   0  0  0  0  0  0  0  0  0  0  0  0
   22.8971  -19.9097  -12.1897 C   0  0  0  0  0  0  0  0  0  0  0  0
   23.4198  -20.6922  -11.0058 C   0  0  1  0  0  0  0  0  0  0  0  0
   23.2997  -22.0468  -11.3134 O   0  0  0  0  0  0  0  0  0  0  0  0
   24.8828  -20.3521  -10.8408 C   0  0  2  0  0  0  0  0  0  0  0  0
   25.6644  -20.7721  -11.9865 N   0  0  0  0  0  0  0  0  0  0  0  0
   25.3731  -21.0859   -9.6453 C   0  0  0  0  0  0  0  0  0  0  0  0
   24.8440  -20.8815   -8.3778 O   0  0  0  0  0  0  0  0  0  0  0  0
   26.3066  -21.9420   -9.7244 O   0  0  0  0  0  0  0  0  0  0  0  0
  2  1  1  6
  2 10  1  0
  3  2  1  0
  3  4  1  0
  4  9  2  0
  4  5  1  0
  5  6  2  0
  6  7  1  0
  8  7  2  0
  9  8  1  0
 10 11  2  0
 13 12  1  1
 13 15  1  0
 14 13  1  0
 15 17  1  0
 15 16  1  6
 16 10  1  0
 17 18  2  0
 20 19  1  6
 20 22  1  0
 21 20  1  0
 22 24  1  0
 22 23  1  6
 23 17  1  0
 24 26  2  0
 24 25  1  0
M  END
$$$$
