AEA.pdb
     RDKit          3D

 20 19  0  0  1  0  0  0  0  0999 V2000
    8.3317  -12.3144   19.4876 C   0  0  0  0  0  0  0  0  0  0  0  0
    8.4609  -13.8385   19.5279 C   0  0  2  0  0  0  0  0  0  0  0  0
    7.8261  -14.4366   18.3838 N   0  0  0  0  0  0  0  0  0  0  0  0
    7.8738  -14.3778   20.7598 C   0  0  0  0  0  0  0  0  0  0  0  0
    6.6876  -14.7906   20.7617 O   0  0  0  0  0  0  0  0  0  0  0  0
    8.6051  -14.4541   21.9744 N   0  0  0  0  0  0  0  0  0  0  0  0
    8.0536  -15.1249   23.1765 C   0  0  1  0  0  0  0  0  0  0  0  0
    8.6989  -16.4690   23.1901 C   0  0  0  0  0  0  0  0  0  0  0  0
   10.1846  -16.3996   23.3587 C   0  0  0  0  0  0  0  0  0  0  0  0
   10.6823  -17.8219   23.4193 C   0  0  0  0  0  0  0  0  0  0  0  0
   11.1055  -18.3175   24.4784 O   0  0  0  0  0  0  0  0  0  0  0  0
    8.3219  -14.2693   24.3313 C   0  0  0  0  0  0  0  0  0  0  0  0
    9.5045  -13.8160   24.5021 O   0  0  0  0  0  0  0  0  0  0  0  0
   10.6608  -18.5767   22.2646 O   0  0  0  0  0  0  0  0  0  0  0  0
    6.4438  -12.3759   26.9587 C   0  0  0  0  0  0  0  0  0  0  0  0
    7.7036  -12.9948   26.3662 C   0  0  2  0  0  0  0  0  0  0  0  0
    7.3485  -13.8857   25.3053 N   0  0  0  0  0  0  0  0  0  0  0  0
    8.4262  -13.6975   27.4589 C   0  0  0  0  0  0  0  0  0  0  0  0
    9.0885  -13.0397   28.4695 O   0  0  0  0  0  0  0  0  0  0  0  0
    8.4499  -14.9711   27.4863 O   0  0  0  0  0  0  0  0  0  0  0  0
  2  1  1  6
  2  4  1  0
  3  2  1  0
  4  6  1  0
  4  5  2  0
  6  7  1  0
  7 12  1  0
  7  8  1  1
  9 10  1  0
  9  8  1  0
 10 14  1  0
 11 10  2  0
 12 17  1  0
 12 13  2  0
 16 15  1  1
 16 18  1  0
 17 16  1  0
 18 19  1  0
 20 18  2  0
M  END
$$$$
