AEA.pdb
     RDKit          3D

 20 19  0  0  1  0  0  0  0  0999 V2000
    8.0938  -12.1444   19.8354 C   0  0  0  0  0  0  0  0  0  0  0  0
    8.2393  -13.6576   19.6620 C   0  0  2  0  0  0  0  0  0  0  0  0
    7.4296  -14.1281   18.5700 N   0  0  0  0  0  0  0  0  0  0  0  0
    7.8669  -14.3605   20.8950 C   0  0  0  0  0  0  0  0  0  0  0  0
    6.6808  -14.7343   21.0709 O   0  0  0  0  0  0  0  0  0  0  0  0
    8.8100  -14.6416   21.9185 N   0  0  0  0  0  0  0  0  0  0  0  0
    8.4282  -15.3685   23.1533 C   0  0  1  0  0  0  0  0  0  0  0  0
    9.3500  -16.5393   23.2043 C   0  0  0  0  0  0  0  0  0  0  0  0
    9.1342  -17.3979   24.4114 C   0  0  0  0  0  0  0  0  0  0  0  0
   10.1284  -18.5285   24.3242 C   0  0  0  0  0  0  0  0  0  0  0  0
    9.7951  -19.6570   23.9218 O   0  0  0  0  0  0  0  0  0  0  0  0
    8.5148  -14.4307   24.2716 C   0  0  0  0  0  0  0  0  0  0  0  0
    9.6208  -13.8279   24.4875 O   0  0  0  0  0  0  0  0  0  0  0  0
   11.4331  -18.2887   24.7033 O   0  0  0  0  0  0  0  0  0  0  0  0
    6.2792  -12.6114   26.6460 C   0  0  0  0  0  0  0  0  0  0  0  0
    7.6279  -13.1757   26.2174 C   0  0  2  0  0  0  0  0  0  0  0  0
    7.4396  -14.1219   25.1617 N   0  0  0  0  0  0  0  0  0  0  0  0
    8.2641  -13.7967   27.4088 C   0  0  0  0  0  0  0  0  0  0  0  0
    8.7660  -13.0673   28.4616 O   0  0  0  0  0  0  0  0  0  0  0  0
    8.3629  -15.0647   27.4857 O   0  0  0  0  0  0  0  0  0  0  0  0
  2  1  1  1
  2  4  1  0
  3  2  1  0
  4  6  1  0
  4  5  2  0
  6  7  1  0
  7 12  1  0
  7  8  1  1
  9 10  1  0
  9  8  1  0
 10 14  1  0
 11 10  2  0
 12 17  1  0
 12 13  2  0
 16 15  1  1
 16 18  1  0
 17 16  1  0
 18 19  1  0
 20 18  2  0
M  END
$$$$
