AEA.pdb
     RDKit          3D

 20 19  0  0  1  0  0  0  0  0999 V2000
    8.5192  -12.0672   19.6247 C   0  0  0  0  0  0  0  0  0  0  0  0
    8.4921  -13.5896   19.4732 C   0  0  2  0  0  0  0  0  0  0  0  0
    7.5675  -13.9854   18.4447 N   0  0  0  0  0  0  0  0  0  0  0  0
    8.1287  -14.2320   20.7414 C   0  0  0  0  0  0  0  0  0  0  0  0
    6.9228  -14.4637   21.0050 O   0  0  0  0  0  0  0  0  0  0  0  0
    9.1027  -14.6103   21.7027 N   0  0  0  0  0  0  0  0  0  0  0  0
    8.7388  -15.3611   22.9286 C   0  0  1  0  0  0  0  0  0  0  0  0
    9.7761  -16.4261   23.0428 C   0  0  0  0  0  0  0  0  0  0  0  0
    9.6311  -17.2491   24.2846 C   0  0  0  0  0  0  0  0  0  0  0  0
   10.7743  -18.2325   24.2906 C   0  0  0  0  0  0  0  0  0  0  0  0
   11.6749  -18.1765   25.1464 O   0  0  0  0  0  0  0  0  0  0  0  0
    8.6689  -14.4080   24.0351 C   0  0  0  0  0  0  0  0  0  0  0  0
    9.6763  -13.6565   24.2669 O   0  0  0  0  0  0  0  0  0  0  0  0
   10.8069  -19.2104   23.3179 O   0  0  0  0  0  0  0  0  0  0  0  0
    6.1634  -12.8263   26.2877 C   0  0  0  0  0  0  0  0  0  0  0  0
    7.5794  -13.2796   25.9552 C   0  0  2  0  0  0  0  0  0  0  0  0
    7.5405  -14.2402   24.8964 N   0  0  0  0  0  0  0  0  0  0  0  0
    8.1817  -13.8443   27.1915 C   0  0  0  0  0  0  0  0  0  0  0  0
    8.6084  -15.1481   27.2946 O   0  0  0  0  0  0  0  0  0  0  0  0
    8.3220  -13.1076   28.2215 O   0  0  0  0  0  0  0  0  0  0  0  0
  2  1  1  1
  2  4  1  0
  3  2  1  0
  4  6  1  0
  4  5  2  0
  6  7  1  0
  7 12  1  0
  7  8  1  1
  9 10  1  0
  9  8  1  0
 10 14  1  0
 11 10  2  0
 12 17  1  0
 12 13  2  0
 16 15  1  1
 16 18  1  0
 17 16  1  0
 18 19  1  0
 20 18  2  0
M  END
$$$$
