AEA.pdb
     RDKit          3D

 20 19  0  0  1  0  0  0  0  0999 V2000
    7.4403  -12.9854   19.9400 C   0  0  0  0  0  0  0  0  0  0  0  0
    8.7338  -13.4821   20.5891 C   0  0  2  0  0  0  0  0  0  0  0  0
    9.3838  -14.4572   19.7547 N   0  0  0  0  0  0  0  0  0  0  0  0
    8.4637  -14.0604   21.9104 C   0  0  0  0  0  0  0  0  0  0  0  0
    7.6909  -13.4725   22.7071 O   0  0  0  0  0  0  0  0  0  0  0  0
    9.0512  -15.2813   22.3349 N   0  0  0  0  0  0  0  0  0  0  0  0
    8.6921  -15.9120   23.6281 C   0  0  1  0  0  0  0  0  0  0  0  0
    8.9391  -17.3678   23.4212 C   0  0  0  0  0  0  0  0  0  0  0  0
    9.0490  -17.7400   21.9755 C   0  0  0  0  0  0  0  0  0  0  0  0
    9.5316  -19.1680   21.9294 C   0  0  0  0  0  0  0  0  0  0  0  0
    8.7369  -20.1193   21.8300 O   0  0  0  0  0  0  0  0  0  0  0  0
    9.4806  -15.2670   24.6768 C   0  0  0  0  0  0  0  0  0  0  0  0
   10.7394  -15.1285   24.5057 O   0  0  0  0  0  0  0  0  0  0  0  0
   10.8885  -19.4070   22.0002 O   0  0  0  0  0  0  0  0  0  0  0  0
    9.1777  -12.9905   27.5274 C   0  0  0  0  0  0  0  0  0  0  0  0
    9.8203  -14.2206   26.8987 C   0  0  2  0  0  0  0  0  0  0  0  0
    8.9478  -14.7635   25.9040 N   0  0  0  0  0  0  0  0  0  0  0  0
   10.0966  -15.1982   27.9841 C   0  0  0  0  0  0  0  0  0  0  0  0
   10.9810  -14.9560   29.0096 O   0  0  0  0  0  0  0  0  0  0  0  0
    9.4994  -16.3237   27.9902 O   0  0  0  0  0  0  0  0  0  0  0  0
  2  1  1  6
  2  4  1  0
  3  2  1  0
  4  6  1  0
  4  5  2  0
  6  7  1  0
  7 12  1  0
  7  8  1  6
  9 10  1  0
  9  8  1  0
 10 14  1  0
 11 10  2  0
 12 17  1  0
 12 13  2  0
 16 15  1  1
 16 18  1  0
 17 16  1  0
 18 19  1  0
 20 18  2  0
M  END
$$$$
