AEA.pdb
     RDKit          3D

 20 19  0  0  1  0  0  0  0  0999 V2000
    8.0909  -12.3719   20.7319 C   0  0  0  0  0  0  0  0  0  0  0  0
    8.3267  -13.8532   20.4296 C   0  0  2  0  0  0  0  0  0  0  0  0
    7.4225  -14.3184   19.4121 N   0  0  0  0  0  0  0  0  0  0  0  0
    8.1681  -14.6631   21.6428 C   0  0  0  0  0  0  0  0  0  0  0  0
    7.0265  -15.0526   21.9929 O   0  0  0  0  0  0  0  0  0  0  0  0
    9.2732  -15.0326   22.4541 N   0  0  0  0  0  0  0  0  0  0  0  0
    9.1030  -15.8515   23.6787 C   0  0  1  0  0  0  0  0  0  0  0  0
    9.7793  -17.1435   23.3677 C   0  0  0  0  0  0  0  0  0  0  0  0
   11.1727  -16.9618   22.8521 C   0  0  0  0  0  0  0  0  0  0  0  0
   11.7328  -18.3420   22.6167 C   0  0  0  0  0  0  0  0  0  0  0  0
   11.9277  -19.1329   23.5564 O   0  0  0  0  0  0  0  0  0  0  0  0
    9.6468  -15.0940   24.8048 C   0  0  0  0  0  0  0  0  0  0  0  0
   10.8358  -14.6331   24.7220 O   0  0  0  0  0  0  0  0  0  0  0  0
   12.0302  -18.7202   21.3237 O   0  0  0  0  0  0  0  0  0  0  0  0
    8.7027  -13.0906   27.6891 C   0  0  0  0  0  0  0  0  0  0  0  0
    9.6067  -14.1688   27.1048 C   0  0  2  0  0  0  0  0  0  0  0  0
    8.9416  -14.8165   26.0169 N   0  0  0  0  0  0  0  0  0  0  0  0
    9.9434  -15.1236   28.1934 C   0  0  0  0  0  0  0  0  0  0  0  0
    9.6681  -16.4698   28.1273 O   0  0  0  0  0  0  0  0  0  0  0  0
   10.5156  -14.7024   29.2511 O   0  0  0  0  0  0  0  0  0  0  0  0
  2  1  1  1
  2  4  1  0
  3  2  1  0
  4  6  1  0
  4  5  2  0
  6  7  1  0
  7 12  1  0
  7  8  1  6
  9 10  1  0
  9  8  1  0
 10 14  1  0
 11 10  2  0
 12 17  1  0
 12 13  2  0
 16 15  1  1
 16 18  1  0
 17 16  1  0
 18 19  1  0
 20 18  2  0
M  END
$$$$
