AEA.pdb
     RDKit          3D

 20 19  0  0  1  0  0  0  0  0999 V2000
    8.1404  -12.3713   19.7160 C   0  0  0  0  0  0  0  0  0  0  0  0
    8.4142  -13.4791   18.6967 C   0  0  2  0  0  0  0  0  0  0  0  0
    7.2413  -13.7524   17.9099 N   0  0  0  0  0  0  0  0  0  0  0  0
    8.8582  -14.7058   19.3685 C   0  0  0  0  0  0  0  0  0  0  0  0
    8.0177  -15.5752   19.7079 O   0  0  0  0  0  0  0  0  0  0  0  0
   10.2256  -14.9564   19.6569 N   0  0  0  0  0  0  0  0  0  0  0  0
   10.6717  -16.2253   20.2814 C   0  0  1  0  0  0  0  0  0  0  0  0
   11.8921  -16.6147   19.5184 C   0  0  0  0  0  0  0  0  0  0  0  0
   12.4255  -17.9549   19.9181 C   0  0  0  0  0  0  0  0  0  0  0  0
   13.6379  -18.2142   19.0596 C   0  0  0  0  0  0  0  0  0  0  0  0
   13.5768  -18.1678   17.8184 O   0  0  0  0  0  0  0  0  0  0  0  0
   10.8557  -15.9821   21.7112 C   0  0  0  0  0  0  0  0  0  0  0  0
   11.6035  -15.0142   22.0815 O   0  0  0  0  0  0  0  0  0  0  0  0
   14.8341  -18.5080   19.6810 O   0  0  0  0  0  0  0  0  0  0  0  0
    9.1782  -16.3079   24.8703 C   0  0  0  0  0  0  0  0  0  0  0  0
   10.5009  -16.4288   24.1241 C   0  0  2  0  0  0  0  0  0  0  0  0
   10.2519  -16.7520   22.7534 N   0  0  0  0  0  0  0  0  0  0  0  0
   11.3138  -17.4745   24.7993 C   0  0  0  0  0  0  0  0  0  0  0  0
   11.8204  -17.3318   26.0702 O   0  0  0  0  0  0  0  0  0  0  0  0
   11.5694  -18.5667   24.1950 O   0  0  0  0  0  0  0  0  0  0  0  0
  2  1  1  1
  2  4  1  0
  3  2  1  0
  4  6  1  0
  4  5  2  0
  6  7  1  0
  7 12  1  0
  7  8  1  6
  9 10  1  0
  9  8  1  0
 10 14  1  0
 11 10  2  0
 12 17  1  0
 12 13  2  0
 16 15  1  1
 16 18  1  0
 17 16  1  0
 18 19  1  0
 20 18  2  0
M  END
$$$$
