AEA.pdb
     RDKit          3D

 20 19  0  0  1  0  0  0  0  0999 V2000
    7.5753  -12.4275   19.8065 C   0  0  0  0  0  0  0  0  0  0  0  0
    8.2562  -13.0612   18.5917 C   0  0  2  0  0  0  0  0  0  0  0  0
    7.2805  -13.5774   17.6692 N   0  0  0  0  0  0  0  0  0  0  0  0
    9.1646  -14.1363   19.0066 C   0  0  0  0  0  0  0  0  0  0  0  0
    8.7613  -15.3256   19.0284 O   0  0  0  0  0  0  0  0  0  0  0  0
   10.5074  -13.8836   19.3924 N   0  0  0  0  0  0  0  0  0  0  0  0
   11.4421  -14.9838   19.7316 C   0  0  1  0  0  0  0  0  0  0  0  0
   12.7610  -14.5391   19.1966 C   0  0  0  0  0  0  0  0  0  0  0  0
   13.8557  -15.5276   19.4517 C   0  0  0  0  0  0  0  0  0  0  0  0
   15.1312  -14.9050   18.9421 C   0  0  0  0  0  0  0  0  0  0  0  0
   16.0316  -14.5405   19.7187 O   0  0  0  0  0  0  0  0  0  0  0  0
   11.3729  -15.2029   21.1755 C   0  0  0  0  0  0  0  0  0  0  0  0
   11.5792  -14.2156   21.9602 O   0  0  0  0  0  0  0  0  0  0  0  0
   15.2869  -14.7434   17.5808 O   0  0  0  0  0  0  0  0  0  0  0  0
    9.9580  -17.4941   23.6649 C   0  0  0  0  0  0  0  0  0  0  0  0
   11.0882  -16.5733   23.2220 C   0  0  2  0  0  0  0  0  0  0  0  0
   11.0834  -16.4575   21.7966 N   0  0  0  0  0  0  0  0  0  0  0  0
   12.3661  -17.1418   23.7257 C   0  0  0  0  0  0  0  0  0  0  0  0
   12.6959  -17.1893   25.0604 O   0  0  0  0  0  0  0  0  0  0  0  0
   13.2164  -17.6156   22.9035 O   0  0  0  0  0  0  0  0  0  0  0  0
  2  1  1  1
  2  4  1  0
  3  2  1  0
  4  6  1  0
  4  5  2  0
  6  7  1  0
  7 12  1  0
  7  8  1  1
  9 10  1  0
  9  8  1  0
 10 14  1  0
 11 10  2  0
 12 17  1  0
 12 13  2  0
 16 15  1  6
 16 18  1  0
 17 16  1  0
 18 19  1  0
 20 18  2  0
M  END
$$$$
