AEA.pdb
     RDKit          3D

 20 19  0  0  1  0  0  0  0  0999 V2000
   12.2881  -23.7682   23.9595 C   0  0  0  0  0  0  0  0  0  0  0  0
   12.2988  -22.4664   24.7635 C   0  0  2  0  0  0  0  0  0  0  0  0
   13.0191  -21.4374   24.0621 N   0  0  0  0  0  0  0  0  0  0  0  0
   12.8971  -22.6772   26.0866 C   0  0  0  0  0  0  0  0  0  0  0  0
   12.4275  -23.5521   26.8558 O   0  0  0  0  0  0  0  0  0  0  0  0
   14.0069  -21.9186   26.5433 N   0  0  0  0  0  0  0  0  0  0  0  0
   14.6493  -22.1861   27.8528 C   0  0  1  0  0  0  0  0  0  0  0  0
   16.1116  -22.1999   27.5619 C   0  0  0  0  0  0  0  0  0  0  0  0
   16.6047  -23.5428   27.1212 C   0  0  0  0  0  0  0  0  0  0  0  0
   18.0931  -23.4135   26.9153 C   0  0  0  0  0  0  0  0  0  0  0  0
   18.9044  -23.9908   27.6603 O   0  0  0  0  0  0  0  0  0  0  0  0
   14.1892  -21.1675   28.7953 C   0  0  0  0  0  0  0  0  0  0  0  0
   14.1134  -19.9534   28.4037 O   0  0  0  0  0  0  0  0  0  0  0  0
   18.5482  -22.6335   25.8724 O   0  0  0  0  0  0  0  0  0  0  0  0
   12.7445  -20.9319   32.2617 C   0  0  0  0  0  0  0  0  0  0  0  0
   13.3190  -20.3595   30.9719 C   0  0  2  0  0  0  0  0  0  0  0  0
   13.8047  -21.4230   30.1482 N   0  0  0  0  0  0  0  0  0  0  0  0
   14.3991  -19.4051   31.3355 C   0  0  0  0  0  0  0  0  0  0  0  0
   14.1563  -18.1420   31.8236 O   0  0  0  0  0  0  0  0  0  0  0  0
   15.6190  -19.7466   31.1988 O   0  0  0  0  0  0  0  0  0  0  0  0
  2  1  1  6
  2  4  1  0
  3  2  1  0
  4  6  1  0
  4  5  2  0
  6  7  1  0
  7 12  1  0
  7  8  1  6
  9 10  1  0
  9  8  1  0
 10 14  1  0
 11 10  2  0
 12 17  1  0
 12 13  2  0
 16 15  1  1
 16 18  1  0
 17 16  1  0
 18 19  1  0
 20 18  2  0
M  END
$$$$
