AEA.pdb
     RDKit          3D

 20 19  0  0  1  0  0  0  0  0999 V2000
    8.1710  -12.2244   19.3895 C   0  0  0  0  0  0  0  0  0  0  0  0
    8.2579  -13.5904   18.7058 C   0  0  2  0  0  0  0  0  0  0  0  0
    7.0843  -13.8418   17.9129 N   0  0  0  0  0  0  0  0  0  0  0  0
    8.4249  -14.6587   19.6978 C   0  0  0  0  0  0  0  0  0  0  0  0
    7.4165  -15.1775   20.2377 O   0  0  0  0  0  0  0  0  0  0  0  0
    9.7044  -15.1404   20.0808 N   0  0  0  0  0  0  0  0  0  0  0  0
    9.8611  -16.2971   20.9955 C   0  0  1  0  0  0  0  0  0  0  0  0
   11.0656  -17.0177   20.4923 C   0  0  0  0  0  0  0  0  0  0  0  0
   10.7622  -17.9258   19.3418 C   0  0  0  0  0  0  0  0  0  0  0  0
   12.0577  -18.6005   18.9668 C   0  0  0  0  0  0  0  0  0  0  0  0
   12.3114  -19.7641   19.3248 O   0  0  0  0  0  0  0  0  0  0  0  0
    9.9420  -15.7820   22.3614 C   0  0  0  0  0  0  0  0  0  0  0  0
   10.8268  -14.9024   22.6380 O   0  0  0  0  0  0  0  0  0  0  0  0
   12.9711  -17.8971   18.2090 O   0  0  0  0  0  0  0  0  0  0  0  0
    8.0302  -15.0993   25.3136 C   0  0  0  0  0  0  0  0  0  0  0  0
    9.3193  -15.6932   24.7597 C   0  0  2  0  0  0  0  0  0  0  0  0
    9.0917  -16.1869   23.4369 N   0  0  0  0  0  0  0  0  0  0  0  0
    9.7608  -16.7713   25.6832 C   0  0  0  0  0  0  0  0  0  0  0  0
   10.1981  -16.5332   26.9656 O   0  0  0  0  0  0  0  0  0  0  0  0
    9.7438  -17.9847   25.2948 O   0  0  0  0  0  0  0  0  0  0  0  0
  2  1  1  1
  2  4  1  0
  3  2  1  0
  4  6  1  0
  4  5  2  0
  6  7  1  0
  7 12  1  0
  7  8  1  6
  9 10  1  0
  9  8  1  0
 10 14  1  0
 11 10  2  0
 12 17  1  0
 12 13  2  0
 16 15  1  1
 16 18  1  0
 17 16  1  0
 18 19  1  0
 20 18  2  0
M  END
$$$$
