AEA.pdb
     RDKit          3D

 20 19  0  0  1  0  0  0  0  0999 V2000
    7.8194  -17.8565   16.5596 C   0  0  0  0  0  0  0  0  0  0  0  0
    9.0981  -17.3010   17.1902 C   0  0  2  0  0  0  0  0  0  0  0  0
   10.2583  -17.7227   16.4515 N   0  0  0  0  0  0  0  0  0  0  0  0
    9.2170  -17.7297   18.5885 C   0  0  0  0  0  0  0  0  0  0  0  0
    8.2266  -18.2277   19.1789 O   0  0  0  0  0  0  0  0  0  0  0  0
   10.4292  -17.6029   19.3168 N   0  0  0  0  0  0  0  0  0  0  0  0
   10.5835  -18.1672   20.6795 C   0  0  1  0  0  0  0  0  0  0  0  0
   11.8283  -18.9853   20.6121 C   0  0  0  0  0  0  0  0  0  0  0  0
   12.9144  -18.3284   19.8188 C   0  0  0  0  0  0  0  0  0  0  0  0
   14.0889  -19.2742   19.8230 C   0  0  0  0  0  0  0  0  0  0  0  0
   15.2589  -18.8567   19.8808 O   0  0  0  0  0  0  0  0  0  0  0  0
   10.5940  -17.0546   21.6280 C   0  0  0  0  0  0  0  0  0  0  0  0
   11.4147  -16.0928   21.4422 O   0  0  0  0  0  0  0  0  0  0  0  0
   13.8425  -20.6302   19.7610 O   0  0  0  0  0  0  0  0  0  0  0  0
    8.4604  -15.5789   24.2918 C   0  0  0  0  0  0  0  0  0  0  0  0
    9.8078  -15.7971   23.6149 C   0  0  2  0  0  0  0  0  0  0  0  0
    9.7404  -16.9488   22.7698 N   0  0  0  0  0  0  0  0  0  0  0  0
   10.8350  -15.9518   24.6785 C   0  0  0  0  0  0  0  0  0  0  0  0
   11.3240  -14.8967   25.4134 O   0  0  0  0  0  0  0  0  0  0  0  0
   11.3032  -17.1067   24.9439 O   0  0  0  0  0  0  0  0  0  0  0  0
  2  1  1  6
  2  4  1  0
  3  2  1  0
  4  6  1  0
  4  5  2  0
  6  7  1  0
  7 12  1  0
  7  8  1  6
  9 10  1  0
  9  8  1  0
 10 14  1  0
 11 10  2  0
 12 17  1  0
 12 13  2  0
 16 15  1  1
 16 18  1  0
 17 16  1  0
 18 19  1  0
 20 18  2  0
M  END
$$$$
