AEA.pdb
     RDKit          3D

 20 19  0  0  1  0  0  0  0  0999 V2000
    8.5146  -12.3344   20.5121 C   0  0  0  0  0  0  0  0  0  0  0  0
    8.4876  -13.8562   20.3550 C   0  0  2  0  0  0  0  0  0  0  0  0
    7.5554  -14.2488   19.3321 N   0  0  0  0  0  0  0  0  0  0  0  0
    8.1345  -14.5037   21.6235 C   0  0  0  0  0  0  0  0  0  0  0  0
    6.9285  -14.7012   21.9133 O   0  0  0  0  0  0  0  0  0  0  0  0
    9.1188  -14.9251   22.5560 N   0  0  0  0  0  0  0  0  0  0  0  0
    8.7639  -15.7045   23.7666 C   0  0  1  0  0  0  0  0  0  0  0  0
    9.0571  -17.1210   23.4050 C   0  0  0  0  0  0  0  0  0  0  0  0
   10.5070  -17.3610   23.1206 C   0  0  0  0  0  0  0  0  0  0  0  0
   10.6560  -18.8340   22.8339 C   0  0  0  0  0  0  0  0  0  0  0  0
   10.2290  -19.6956   23.6224 O   0  0  0  0  0  0  0  0  0  0  0  0
    9.5203  -15.1566   24.8914 C   0  0  0  0  0  0  0  0  0  0  0  0
   10.7392  -14.8186   24.7094 O   0  0  0  0  0  0  0  0  0  0  0  0
   11.2826  -19.2174   21.6661 O   0  0  0  0  0  0  0  0  0  0  0  0
    9.1372  -13.3268   27.9808 C   0  0  0  0  0  0  0  0  0  0  0  0
    9.8399  -14.4645   27.2507 C   0  0  2  0  0  0  0  0  0  0  0  0
    8.9968  -14.9594   26.2069 N   0  0  0  0  0  0  0  0  0  0  0  0
   10.1614  -15.5192   28.2478 C   0  0  0  0  0  0  0  0  0  0  0  0
   11.0055  -15.3157   29.3149 O   0  0  0  0  0  0  0  0  0  0  0  0
    9.6441  -16.6780   28.1336 O   0  0  0  0  0  0  0  0  0  0  0  0
  2  1  1  1
  2  4  1  0
  3  2  1  0
  4  6  1  0
  4  5  2  0
  6  7  1  0
  7 12  1  0
  7  8  1  6
  9 10  1  0
  9  8  1  0
 10 14  1  0
 11 10  2  0
 12 17  1  0
 12 13  2  0
 16 15  1  1
 16 18  1  0
 17 16  1  0
 18 19  1  0
 20 18  2  0
M  END
$$$$
