AEA.pdb
     RDKit          3D

 20 19  0  0  1  0  0  0  0  0999 V2000
    8.2890  -12.0552   19.3233 C   0  0  0  0  0  0  0  0  0  0  0  0
    8.2831  -13.3944   18.5833 C   0  0  2  0  0  0  0  0  0  0  0  0
    7.1192  -13.5115   17.7460 N   0  0  0  0  0  0  0  0  0  0  0  0
    8.3267  -14.5130   19.5320 C   0  0  0  0  0  0  0  0  0  0  0  0
    7.2611  -14.9634   20.0210 O   0  0  0  0  0  0  0  0  0  0  0  0
    9.5475  -15.1198   19.9285 N   0  0  0  0  0  0  0  0  0  0  0  0
    9.5782  -16.2849   20.8455 C   0  0  1  0  0  0  0  0  0  0  0  0
   10.6896  -17.1386   20.3365 C   0  0  0  0  0  0  0  0  0  0  0  0
   10.3619  -17.8080   19.0384 C   0  0  0  0  0  0  0  0  0  0  0  0
   11.5469  -18.6699   18.6821 C   0  0  0  0  0  0  0  0  0  0  0  0
   12.1853  -18.4937   17.6295 O   0  0  0  0  0  0  0  0  0  0  0  0
    9.7262  -15.7794   22.2093 C   0  0  0  0  0  0  0  0  0  0  0  0
   10.6880  -14.9793   22.4701 O   0  0  0  0  0  0  0  0  0  0  0  0
   11.9181  -19.6721   19.5546 O   0  0  0  0  0  0  0  0  0  0  0  0
    7.8231  -15.1857   25.2734 C   0  0  0  0  0  0  0  0  0  0  0  0
    9.1297  -15.6019   24.6093 C   0  0  2  0  0  0  0  0  0  0  0  0
    8.8627  -16.1102   23.2995 N   0  0  0  0  0  0  0  0  0  0  0  0
    9.7792  -16.6208   25.4753 C   0  0  0  0  0  0  0  0  0  0  0  0
   10.2350  -16.3510   26.7449 O   0  0  0  0  0  0  0  0  0  0  0  0
    9.9345  -17.8106   25.0466 O   0  0  0  0  0  0  0  0  0  0  0  0
  2  1  1  1
  2  4  1  0
  3  2  1  0
  4  6  1  0
  4  5  2  0
  6  7  1  0
  7 12  1  0
  7  8  1  6
  9 10  1  0
  9  8  1  0
 10 14  1  0
 11 10  2  0
 12 17  1  0
 12 13  2  0
 16 15  1  1
 16 18  1  0
 17 16  1  0
 18 19  1  0
 20 18  2  0
M  END
$$$$
