HTR.pdb
     RDKit          3D

 29 29  0  0  1  0  0  0  0  0999 V2000
    8.4006  -15.0268   13.4688 N   0  0  0  0  0  0  0  0  0  0  0  0
    8.2089  -15.6928   14.7372 C   0  0  1  0  0  0  0  0  0  0  0  0
    8.8116  -17.0913   14.5906 C   0  0  0  0  0  0  0  0  0  0  0  0
    7.9293  -17.8616   13.6603 C   0  0  0  0  0  0  0  0  0  0  0  0
    6.7862  -17.3792   13.0245 C   0  0  0  0  0  0  0  0  0  0  0  0
    6.2734  -18.3683   12.2744 N   0  0  0  0  0  0  0  0  0  0  0  0
    7.0526  -19.4588   12.4142 C   0  0  0  0  0  0  0  0  0  0  0  0
    8.0525  -19.1324   13.2589 N   0  0  0  0  0  0  0  0  0  0  0  0
    8.9266  -15.0118   15.8398 C   0  0  0  0  0  0  0  0  0  0  0  0
   10.0687  -14.5514   15.5890 O   0  0  0  0  0  0  0  0  0  0  0  0
    6.9101  -13.1313   18.9364 C   0  0  0  0  0  0  0  0  0  0  0  0
    8.1463  -13.9122   19.3418 C   0  0  1  0  0  0  0  0  0  0  0  0
    7.7101  -15.1605   19.7964 O   0  0  0  0  0  0  0  0  0  0  0  0
    9.0399  -14.1747   18.1436 C   0  0  2  0  0  0  0  0  0  0  0  0
    8.3219  -14.8977   17.1217 N   0  0  0  0  0  0  0  0  0  0  0  0
   10.2465  -14.9462   18.5363 C   0  0  0  0  0  0  0  0  0  0  0  0
   10.4196  -16.0816   17.9866 O   0  0  0  0  0  0  0  0  0  0  0  0
   18.1842  -12.5818   16.8623 N   0  0  0  0  0  0  0  0  0  0  0  0
   18.3742  -13.8022   17.5990 C   0  0  0  0  0  0  0  0  0  0  0  0
   19.5340  -14.3530   17.7010 N   0  0  0  0  0  0  0  0  0  0  0  0
   17.2794  -14.4432   18.2400 N   0  0  0  0  0  0  0  0  0  0  0  0
   15.9659  -13.8700   18.2594 C   0  0  0  0  0  0  0  0  0  0  0  0
   14.9192  -14.7085   18.9167 C   0  0  0  0  0  0  0  0  0  0  0  0
   13.5308  -14.2283   18.9178 C   0  0  0  0  0  0  0  0  0  0  0  0
   12.4981  -15.0076   19.6394 C   0  0  2  0  0  0  0  0  0  0  0  0
   11.1676  -14.4460   19.4803 N   0  0  0  0  0  0  0  0  0  0  0  0
   12.7265  -15.1855   21.0762 C   0  0  0  0  0  0  0  0  0  0  0  0
   12.8373  -16.3332   21.5522 O   0  0  0  0  0  0  0  0  0  0  0  0
   12.8218  -14.1011   21.9291 O   0  0  0  0  0  0  0  0  0  0  0  0
  2  9  1  0
  2  1  1  6
  3  2  1  0
  4  8  1  0
  4  3  1  0
  5  4  2  0
  6  5  1  0
  6  7  1  0
  7  8  2  0
  9 10  2  0
 12 13  1  0
 12 14  1  0
 12 11  1  6
 14 16  1  0
 15  9  1  0
 14 15  1  6
 16 17  2  0
 18 19  1  0
 19 20  2  0
 21 19  1  0
 22 21  1  0
 22 23  1  0
 23 24  1  0
 25 24  1  1
 25 27  1  0
 26 25  1  0
 26 16  1  0
 27 28  2  0
 27 29  1  0
M  END
$$$$
