HTR.pdb
     RDKit          3D

 29 29  0  0  1  0  0  0  0  0999 V2000
   11.2942  -15.6599   16.1097 N   0  0  0  0  0  0  0  0  0  0  0  0
   10.4195  -16.4152   16.9778 C   0  0  1  0  0  0  0  0  0  0  0  0
   11.0760  -17.7830   17.1747 C   0  0  0  0  0  0  0  0  0  0  0  0
   10.7631  -18.6059   15.9655 C   0  0  0  0  0  0  0  0  0  0  0  0
    9.9196  -18.2386   14.9180 C   0  0  0  0  0  0  0  0  0  0  0  0
    9.8984  -19.2411   14.0242 N   0  0  0  0  0  0  0  0  0  0  0  0
   10.6990  -20.2288   14.4706 C   0  0  0  0  0  0  0  0  0  0  0  0
   11.2151  -19.8255   15.6500 N   0  0  0  0  0  0  0  0  0  0  0  0
   10.2826  -15.7902   18.3138 C   0  0  0  0  0  0  0  0  0  0  0  0
   11.2711  -15.8561   19.0871 O   0  0  0  0  0  0  0  0  0  0  0  0
    7.9356  -12.4330   19.1029 C   0  0  0  0  0  0  0  0  0  0  0  0
    7.8002  -13.5976   20.0661 C   0  0  1  0  0  0  0  0  0  0  0  0
    6.6933  -14.3444   19.6510 O   0  0  0  0  0  0  0  0  0  0  0  0
    9.0031  -14.5186   19.9772 C   0  0  2  0  0  0  0  0  0  0  0  0
    9.0684  -15.1470   18.6798 N   0  0  0  0  0  0  0  0  0  0  0  0
    8.9527  -15.5657   21.0290 C   0  0  0  0  0  0  0  0  0  0  0  0
    8.5938  -16.7347   20.6743 O   0  0  0  0  0  0  0  0  0  0  0  0
   12.3945  -18.6416   28.4640 N   0  0  0  0  0  0  0  0  0  0  0  0
   12.6496  -19.5384   27.3690 C   0  0  0  0  0  0  0  0  0  0  0  0
   13.5566  -20.4499   27.4433 N   0  0  0  0  0  0  0  0  0  0  0  0
   11.9045  -19.4440   26.1624 N   0  0  0  0  0  0  0  0  0  0  0  0
   11.9034  -18.2576   25.3582 C   0  0  0  0  0  0  0  0  0  0  0  0
   10.5550  -17.7998   24.9075 C   0  0  0  0  0  0  0  0  0  0  0  0
   10.4679  -16.6269   24.0272 C   0  0  0  0  0  0  0  0  0  0  0  0
    9.1612  -16.2704   23.4270 C   0  0  2  0  0  0  0  0  0  0  0  0
    9.2878  -15.2821   22.3696 N   0  0  0  0  0  0  0  0  0  0  0  0
    8.1462  -15.7788   24.3631 C   0  0  0  0  0  0  0  0  0  0  0  0
    7.8521  -14.5668   24.3833 O   0  0  0  0  0  0  0  0  0  0  0  0
    7.4995  -16.6336   25.2368 O   0  0  0  0  0  0  0  0  0  0  0  0
  2  9  1  0
  2  1  1  6
  3  2  1  0
  4  8  1  0
  4  3  1  0
  5  4  2  0
  6  5  1  0
  6  7  1  0
  7  8  2  0
  9 10  2  0
 12 13  1  0
 12 14  1  0
 12 11  1  6
 14 16  1  0
 15  9  1  0
 14 15  1  6
 16 17  2  0
 18 19  1  0
 19 20  2  0
 21 19  1  0
 22 21  1  0
 22 23  1  0
 23 24  1  0
 25 24  1  1
 25 27  1  0
 26 25  1  0
 26 16  1  0
 27 28  2  0
 27 29  1  0
M  END
$$$$
