HTR.pdb
     RDKit          3D

 29 29  0  0  1  0  0  0  0  0999 V2000
   10.2509  -16.0740   15.0842 N   0  0  0  0  0  0  0  0  0  0  0  0
    9.2885  -16.4997   16.0751 C   0  0  1  0  0  0  0  0  0  0  0  0
    9.4553  -18.0133   16.2225 C   0  0  0  0  0  0  0  0  0  0  0  0
    8.2331  -18.5313   16.9116 C   0  0  0  0  0  0  0  0  0  0  0  0
    7.1284  -17.7761   17.3028 C   0  0  0  0  0  0  0  0  0  0  0  0
    6.2419  -18.5992   17.8864 N   0  0  0  0  0  0  0  0  0  0  0  0
    6.7479  -19.8480   17.8777 C   0  0  0  0  0  0  0  0  0  0  0  0
    7.9569  -19.7875   17.2822 N   0  0  0  0  0  0  0  0  0  0  0  0
    9.5461  -15.8919   17.4012 C   0  0  0  0  0  0  0  0  0  0  0  0
   10.7224  -15.9404   17.8410 O   0  0  0  0  0  0  0  0  0  0  0  0
    7.8452  -12.4192   18.6664 C   0  0  0  0  0  0  0  0  0  0  0  0
    7.7829  -13.5458   19.6809 C   0  0  1  0  0  0  0  0  0  0  0  0
    6.5256  -14.1438   19.5506 O   0  0  0  0  0  0  0  0  0  0  0  0
    8.8086  -14.6186   19.3649 C   0  0  2  0  0  0  0  0  0  0  0  0
    8.4846  -15.2836   18.1259 N   0  0  0  0  0  0  0  0  0  0  0  0
    8.8851  -15.6224   20.4566 C   0  0  0  0  0  0  0  0  0  0  0  0
    8.1968  -16.6853   20.3235 O   0  0  0  0  0  0  0  0  0  0  0  0
   12.2545  -20.8741   25.8451 N   0  0  0  0  0  0  0  0  0  0  0  0
   13.2086  -20.6442   24.7939 C   0  0  0  0  0  0  0  0  0  0  0  0
   14.2389  -21.4023   24.6428 N   0  0  0  0  0  0  0  0  0  0  0  0
   13.0432  -19.5645   23.8844 N   0  0  0  0  0  0  0  0  0  0  0  0
   12.7597  -18.2314   24.3277 C   0  0  0  0  0  0  0  0  0  0  0  0
   11.3646  -17.7628   24.0724 C   0  0  0  0  0  0  0  0  0  0  0  0
   11.1279  -16.8277   22.9644 C   0  0  0  0  0  0  0  0  0  0  0  0
    9.7466  -16.3673   22.6911 C   0  0  2  0  0  0  0  0  0  0  0  0
    9.6865  -15.4120   21.5982 N   0  0  0  0  0  0  0  0  0  0  0  0
    9.0396  -15.7723   23.8288 C   0  0  0  0  0  0  0  0  0  0  0  0
    8.7017  -16.4857   24.7947 O   0  0  0  0  0  0  0  0  0  0  0  0
    8.7317  -14.4244   23.8592 O   0  0  0  0  0  0  0  0  0  0  0  0
  2  9  1  0
  2  1  1  6
  3  2  1  0
  4  8  1  0
  4  3  1  0
  5  4  2  0
  6  5  1  0
  6  7  1  0
  7  8  2  0
  9 10  2  0
 12 13  1  0
 12 14  1  0
 12 11  1  6
 14 16  1  0
 15  9  1  0
 14 15  1  6
 16 17  2  0
 18 19  1  0
 19 20  2  0
 21 19  1  0
 22 21  1  0
 22 23  1  0
 23 24  1  0
 25 24  1  1
 25 27  1  0
 26 25  1  0
 26 16  1  0
 27 28  2  0
 27 29  1  0
M  END
$$$$
