HTR.pdb
     RDKit          3D

 29 29  0  0  1  0  0  0  0  0999 V2000
   10.0423  -15.6326   14.5531 N   0  0  0  0  0  0  0  0  0  0  0  0
    9.2453  -16.0913   15.6683 C   0  0  1  0  0  0  0  0  0  0  0  0
    9.4636  -17.6023   15.7676 C   0  0  0  0  0  0  0  0  0  0  0  0
    8.5707  -18.2490   14.7568 C   0  0  0  0  0  0  0  0  0  0  0  0
    7.8542  -17.5946   13.7558 C   0  0  0  0  0  0  0  0  0  0  0  0
    7.1744  -18.5165   13.0543 N   0  0  0  0  0  0  0  0  0  0  0  0
    7.4365  -19.7304   13.5772 C   0  0  0  0  0  0  0  0  0  0  0  0
    8.2857  -19.5484   14.6095 N   0  0  0  0  0  0  0  0  0  0  0  0
    9.6825  -15.4928   16.9509 C   0  0  0  0  0  0  0  0  0  0  0  0
   10.8967  -15.1887   17.0631 O   0  0  0  0  0  0  0  0  0  0  0  0
    7.5644  -12.6499   18.7263 C   0  0  0  0  0  0  0  0  0  0  0  0
    8.0195  -13.7105   19.7113 C   0  0  1  0  0  0  0  0  0  0  0  0
    6.9519  -14.5980   19.8781 O   0  0  0  0  0  0  0  0  0  0  0  0
    9.1717  -14.5193   19.1446 C   0  0  2  0  0  0  0  0  0  0  0  0
    8.7427  -15.2817   17.9970 N   0  0  0  0  0  0  0  0  0  0  0  0
    9.7306  -15.4407   20.1663 C   0  0  0  0  0  0  0  0  0  0  0  0
    9.3577  -16.6575   20.1235 O   0  0  0  0  0  0  0  0  0  0  0  0
   15.8937  -14.1985   18.5026 N   0  0  0  0  0  0  0  0  0  0  0  0
   16.1710  -14.2661   19.9121 C   0  0  0  0  0  0  0  0  0  0  0  0
   17.1945  -13.6763   20.4254 N   0  0  0  0  0  0  0  0  0  0  0  0
   15.3187  -14.9926   20.7873 N   0  0  0  0  0  0  0  0  0  0  0  0
   14.0995  -15.5963   20.3365 C   0  0  0  0  0  0  0  0  0  0  0  0
   13.4123  -16.4615   21.3415 C   0  0  0  0  0  0  0  0  0  0  0  0
   12.5798  -15.8217   22.3690 C   0  0  0  0  0  0  0  0  0  0  0  0
   11.1058  -15.8489   22.2237 C   0  0  2  0  0  0  0  0  0  0  0  0
   10.6387  -14.9915   21.1478 N   0  0  0  0  0  0  0  0  0  0  0  0
   10.3434  -15.4951   23.4244 C   0  0  0  0  0  0  0  0  0  0  0  0
    9.6744  -14.4426   23.4502 O   0  0  0  0  0  0  0  0  0  0  0  0
   10.3479  -16.3065   24.5443 O   0  0  0  0  0  0  0  0  0  0  0  0
  2  9  1  0
  2  1  1  6
  3  2  1  0
  4  8  1  0
  4  3  1  0
  5  4  2  0
  6  5  1  0
  6  7  1  0
  7  8  2  0
  9 10  2  0
 12 13  1  0
 12 14  1  0
 12 11  1  6
 14 16  1  0
 15  9  1  0
 14 15  1  6
 16 17  2  0
 18 19  1  0
 19 20  2  0
 21 19  1  0
 22 21  1  0
 22 23  1  0
 23 24  1  0
 25 24  1  1
 25 27  1  0
 26 25  1  0
 26 16  1  0
 27 28  2  0
 27 29  1  0
M  END
$$$$
