HTR.pdb
     RDKit          3D

 29 29  0  0  1  0  0  0  0  0999 V2000
    9.4603  -15.1358   14.1539 N   0  0  0  0  0  0  0  0  0  0  0  0
    8.9763  -15.8052   15.3400 C   0  0  1  0  0  0  0  0  0  0  0  0
    9.5047  -17.2395   15.2771 C   0  0  0  0  0  0  0  0  0  0  0  0
    8.7782  -17.9340   14.1694 C   0  0  0  0  0  0  0  0  0  0  0  0
    9.3640  -18.6084   13.0990 C   0  0  0  0  0  0  0  0  0  0  0  0
    8.3830  -19.0956   12.3216 N   0  0  0  0  0  0  0  0  0  0  0  0
    7.1979  -18.7525   12.8635 C   0  0  0  0  0  0  0  0  0  0  0  0
    7.4576  -18.0480   13.9843 N   0  0  0  0  0  0  0  0  0  0  0  0
    9.5013  -15.1910   16.5815 C   0  0  0  0  0  0  0  0  0  0  0  0
   10.7349  -14.9568   16.6341 O   0  0  0  0  0  0  0  0  0  0  0  0
    7.5013  -12.4094   18.8517 C   0  0  0  0  0  0  0  0  0  0  0  0
    8.0961  -13.5663   19.6327 C   0  0  1  0  0  0  0  0  0  0  0  0
    7.0733  -14.5011   19.8205 O   0  0  0  0  0  0  0  0  0  0  0  0
    9.1793  -14.2634   18.8304 C   0  0  2  0  0  0  0  0  0  0  0  0
    8.6203  -14.8885   17.6560 N   0  0  0  0  0  0  0  0  0  0  0  0
    9.8745  -15.2885   19.6496 C   0  0  0  0  0  0  0  0  0  0  0  0
    9.6869  -16.5097   19.3414 O   0  0  0  0  0  0  0  0  0  0  0  0
   18.0766  -16.4761   21.7543 N   0  0  0  0  0  0  0  0  0  0  0  0
   17.3782  -15.6017   22.6576 C   0  0  0  0  0  0  0  0  0  0  0  0
   18.0011  -14.7086   23.3457 N   0  0  0  0  0  0  0  0  0  0  0  0
   15.9696  -15.6985   22.8208 N   0  0  0  0  0  0  0  0  0  0  0  0
   15.1809  -16.6449   22.0884 C   0  0  0  0  0  0  0  0  0  0  0  0
   13.7136  -16.5929   22.3629 C   0  0  0  0  0  0  0  0  0  0  0  0
   12.8726  -15.7208   21.5321 C   0  0  0  0  0  0  0  0  0  0  0  0
   11.4045  -15.9186   21.5343 C   0  0  2  0  0  0  0  0  0  0  0  0
   10.7104  -14.9296   20.7276 N   0  0  0  0  0  0  0  0  0  0  0  0
   10.7678  -15.9281   22.8545 C   0  0  0  0  0  0  0  0  0  0  0  0
   10.0089  -14.9957   23.1871 O   0  0  0  0  0  0  0  0  0  0  0  0
   10.9906  -16.9554   23.7531 O   0  0  0  0  0  0  0  0  0  0  0  0
  2  9  1  0
  2  1  1  6
  3  2  1  0
  4  8  1  0
  4  3  1  0
  5  4  2  0
  6  5  1  0
  6  7  1  0
  7  8  2  0
  9 10  2  0
 12 13  1  0
 12 14  1  0
 12 11  1  6
 14 16  1  0
 15  9  1  0
 14 15  1  6
 16 17  2  0
 18 19  1  0
 19 20  2  0
 21 19  1  0
 22 21  1  0
 22 23  1  0
 23 24  1  0
 25 24  1  1
 25 27  1  0
 26 25  1  0
 26 16  1  0
 27 28  2  0
 27 29  1  0
M  END
$$$$
