HTR.pdb
     RDKit          3D

 29 29  0  0  1  0  0  0  0  0999 V2000
    8.8421  -15.8393   18.2592 N   0  0  0  0  0  0  0  0  0  0  0  0
    8.7337  -14.7025   19.1452 C   0  0  1  0  0  0  0  0  0  0  0  0
    7.4491  -13.9681   18.7565 C   0  0  0  0  0  0  0  0  0  0  0  0
    7.4221  -13.8768   17.2639 C   0  0  0  0  0  0  0  0  0  0  0  0
    7.9671  -12.8502   16.4938 C   0  0  0  0  0  0  0  0  0  0  0  0
    7.7401  -13.1296   15.1998 N   0  0  0  0  0  0  0  0  0  0  0  0
    7.0707  -14.2968   15.1255 C   0  0  0  0  0  0  0  0  0  0  0  0
    6.8867  -14.7354   16.3878 N   0  0  0  0  0  0  0  0  0  0  0  0
    8.6021  -15.1101   20.5633 C   0  0  0  0  0  0  0  0  0  0  0  0
    8.4191  -14.2012   21.4117 O   0  0  0  0  0  0  0  0  0  0  0  0
    6.3038  -17.3285   22.3751 C   0  0  0  0  0  0  0  0  0  0  0  0
    7.6970  -17.8436   22.6847 C   0  0  1  0  0  0  0  0  0  0  0  0
    7.9185  -18.9467   21.8544 O   0  0  0  0  0  0  0  0  0  0  0  0
    8.7499  -16.8115   22.3253 C   0  0  2  0  0  0  0  0  0  0  0  0
    8.6834  -16.4838   20.9215 N   0  0  0  0  0  0  0  0  0  0  0  0
   10.1127  -17.3031   22.6516 C   0  0  0  0  0  0  0  0  0  0  0  0
   10.7620  -17.8864   21.7244 O   0  0  0  0  0  0  0  0  0  0  0  0
   16.0208  -15.5811   18.0861 N   0  0  0  0  0  0  0  0  0  0  0  0
   15.6001  -15.0998   19.3744 C   0  0  0  0  0  0  0  0  0  0  0  0
   15.7188  -13.8595   19.7009 N   0  0  0  0  0  0  0  0  0  0  0  0
   15.0381  -15.9851   20.3339 N   0  0  0  0  0  0  0  0  0  0  0  0
   14.2838  -15.5122   21.4571 C   0  0  0  0  0  0  0  0  0  0  0  0
   13.7405  -16.5799   22.3492 C   0  0  0  0  0  0  0  0  0  0  0  0
   12.8694  -16.1885   23.4655 C   0  0  0  0  0  0  0  0  0  0  0  0
   12.0994  -17.2327   24.1807 C   0  0  2  0  0  0  0  0  0  0  0  0
   10.6708  -17.1337   23.9360 N   0  0  0  0  0  0  0  0  0  0  0  0
   12.2902  -17.2783   25.6332 C   0  0  0  0  0  0  0  0  0  0  0  0
   13.4388  -17.3855   26.1078 O   0  0  0  0  0  0  0  0  0  0  0  0
   11.2168  -17.2066   26.5022 O   0  0  0  0  0  0  0  0  0  0  0  0
  2  9  1  0
  2  1  1  6
  3  2  1  0
  4  8  1  0
  4  3  1  0
  5  4  2  0
  6  5  1  0
  6  7  1  0
  7  8  2  0
  9 10  2  0
 12 13  1  0
 12 14  1  0
 12 11  1  6
 14 16  1  0
 15  9  1  0
 14 15  1  6
 16 17  2  0
 18 19  1  0
 19 20  2  0
 21 19  1  0
 22 21  1  0
 22 23  1  0
 23 24  1  0
 25 24  1  1
 25 27  1  0
 26 25  1  0
 26 16  1  0
 27 28  2  0
 27 29  1  0
M  END
$$$$
