HTR.pdb
     RDKit          3D

 29 29  0  0  1  0  0  0  0  0999 V2000
   10.2578  -16.9529   16.3823 N   0  0  0  0  0  0  0  0  0  0  0  0
    9.1155  -16.8777   17.2647 C   0  0  1  0  0  0  0  0  0  0  0  0
    8.7487  -18.3183   17.6263 C   0  0  0  0  0  0  0  0  0  0  0  0
    7.9145  -18.8597   16.5091 C   0  0  0  0  0  0  0  0  0  0  0  0
    7.5424  -18.1726   15.3545 C   0  0  0  0  0  0  0  0  0  0  0  0
    6.7987  -18.9956   14.5970 N   0  0  0  0  0  0  0  0  0  0  0  0
    6.6879  -20.1784   15.2328 C   0  0  0  0  0  0  0  0  0  0  0  0
    7.3714  -20.0773   16.3914 N   0  0  0  0  0  0  0  0  0  0  0  0
    9.4300  -16.1680   18.5263 C   0  0  0  0  0  0  0  0  0  0  0  0
   10.6330  -16.1380   18.8886 O   0  0  0  0  0  0  0  0  0  0  0  0
    7.7879  -12.6782   19.4586 C   0  0  0  0  0  0  0  0  0  0  0  0
    7.7833  -13.6291   20.6410 C   0  0  1  0  0  0  0  0  0  0  0  0
    6.5105  -14.2053   20.6969 O   0  0  0  0  0  0  0  0  0  0  0  0
    8.7655  -14.7660   20.4274 C   0  0  2  0  0  0  0  0  0  0  0  0
    8.3908  -15.5532   19.2775 N   0  0  0  0  0  0  0  0  0  0  0  0
    8.8343  -15.6439   21.6232 C   0  0  0  0  0  0  0  0  0  0  0  0
    8.0420  -16.6399   21.6643 O   0  0  0  0  0  0  0  0  0  0  0  0
   15.4521  -19.2674   23.1526 N   0  0  0  0  0  0  0  0  0  0  0  0
   14.2699  -20.0860   23.1774 C   0  0  0  0  0  0  0  0  0  0  0  0
   14.3082  -21.3113   23.5724 N   0  0  0  0  0  0  0  0  0  0  0  0
   13.0148  -19.5642   22.7620 N   0  0  0  0  0  0  0  0  0  0  0  0
   12.6662  -18.1855   22.9397 C   0  0  0  0  0  0  0  0  0  0  0  0
   11.7180  -17.9119   24.0609 C   0  0  0  0  0  0  0  0  0  0  0  0
   11.2133  -16.5437   24.2379 C   0  0  0  0  0  0  0  0  0  0  0  0
    9.8163  -16.2343   23.8542 C   0  0  2  0  0  0  0  0  0  0  0  0
    9.7392  -15.3893   22.6749 N   0  0  0  0  0  0  0  0  0  0  0  0
    8.9972  -15.6057   24.8945 C   0  0  0  0  0  0  0  0  0  0  0  0
    8.7000  -14.3973   24.8082 O   0  0  0  0  0  0  0  0  0  0  0  0
    8.5413  -16.3254   25.9838 O   0  0  0  0  0  0  0  0  0  0  0  0
  2  9  1  0
  2  1  1  6
  3  2  1  0
  4  8  1  0
  4  3  1  0
  5  4  2  0
  6  5  1  0
  6  7  1  0
  7  8  2  0
  9 10  2  0
 12 13  1  0
 12 14  1  0
 12 11  1  6
 14 16  1  0
 15  9  1  0
 14 15  1  6
 16 17  2  0
 18 19  1  0
 19 20  2  0
 21 19  1  0
 22 21  1  0
 22 23  1  0
 23 24  1  0
 25 24  1  1
 25 27  1  0
 26 25  1  0
 26 16  1  0
 27 28  2  0
 27 29  1  0
M  END
$$$$
