HTR.pdb
     RDKit          3D

 29 29  0  0  1  0  0  0  0  0999 V2000
    9.6645  -16.0833   17.2165 N   0  0  0  0  0  0  0  0  0  0  0  0
   10.4148  -15.1524   18.0288 C   0  0  1  0  0  0  0  0  0  0  0  0
    9.6032  -14.9377   19.3077 C   0  0  0  0  0  0  0  0  0  0  0  0
    8.4909  -13.9942   18.9767 C   0  0  0  0  0  0  0  0  0  0  0  0
    8.1697  -13.5164   17.7069 C   0  0  0  0  0  0  0  0  0  0  0  0
    7.1125  -12.6959   17.8216 N   0  0  0  0  0  0  0  0  0  0  0  0
    6.7547  -12.6385   19.1194 C   0  0  0  0  0  0  0  0  0  0  0  0
    7.6024  -13.4327   19.8053 N   0  0  0  0  0  0  0  0  0  0  0  0
   11.7351  -15.6949   18.4248 C   0  0  0  0  0  0  0  0  0  0  0  0
   11.8273  -16.9390   18.5768 O   0  0  0  0  0  0  0  0  0  0  0  0
   14.8226  -15.3431   16.4895 C   0  0  0  0  0  0  0  0  0  0  0  0
   15.1640  -14.9067   17.9019 C   0  0  1  0  0  0  0  0  0  0  0  0
   15.0977  -13.5101   17.9253 O   0  0  0  0  0  0  0  0  0  0  0  0
   14.1271  -15.4069   18.8906 C   0  0  2  0  0  0  0  0  0  0  0  0
   12.8381  -14.8183   18.6179 N   0  0  0  0  0  0  0  0  0  0  0  0
   14.5255  -15.0938   20.2865 C   0  0  0  0  0  0  0  0  0  0  0  0
   14.4175  -13.8839   20.6684 O   0  0  0  0  0  0  0  0  0  0  0  0
   11.0707  -20.4237   23.3333 N   0  0  0  0  0  0  0  0  0  0  0  0
   11.6205  -19.5989   22.2913 C   0  0  0  0  0  0  0  0  0  0  0  0
   11.3337  -19.8003   21.0519 N   0  0  0  0  0  0  0  0  0  0  0  0
   12.5050  -18.5299   22.5999 N   0  0  0  0  0  0  0  0  0  0  0  0
   12.9383  -18.2620   23.9395 C   0  0  0  0  0  0  0  0  0  0  0  0
   13.7575  -17.0239   24.1040 C   0  0  0  0  0  0  0  0  0  0  0  0
   15.0663  -16.9527   23.4406 C   0  0  0  0  0  0  0  0  0  0  0  0
   15.3581  -15.8129   22.5403 C   0  0  2  0  0  0  0  0  0  0  0  0
   15.0053  -16.0929   21.1590 N   0  0  0  0  0  0  0  0  0  0  0  0
   16.7445  -15.3376   22.5479 C   0  0  0  0  0  0  0  0  0  0  0  0
   17.5030  -15.6135   21.5968 O   0  0  0  0  0  0  0  0  0  0  0  0
   17.2406  -14.5835   23.5955 O   0  0  0  0  0  0  0  0  0  0  0  0
  2  9  1  0
  2  1  1  6
  3  2  1  0
  4  8  1  0
  4  3  1  0
  5  4  2  0
  6  5  1  0
  6  7  1  0
  7  8  2  0
  9 10  2  0
 12 13  1  0
 12 14  1  0
 12 11  1  6
 14 16  1  0
 15  9  1  0
 14 15  1  6
 16 17  2  0
 18 19  1  0
 19 20  2  0
 21 19  1  0
 22 21  1  0
 22 23  1  0
 23 24  1  0
 25 24  1  1
 25 27  1  0
 26 25  1  0
 26 16  1  0
 27 28  2  0
 27 29  1  0
M  END
$$$$
