HTR.pdb
     RDKit          3D

 29 29  0  0  1  0  0  0  0  0999 V2000
    9.7769  -15.3345   13.6098 N   0  0  0  0  0  0  0  0  0  0  0  0
    9.1866  -16.0406   14.7244 C   0  0  1  0  0  0  0  0  0  0  0  0
    9.8842  -17.4002   14.7976 C   0  0  0  0  0  0  0  0  0  0  0  0
    9.3857  -18.2194   13.6497 C   0  0  0  0  0  0  0  0  0  0  0  0
   10.0999  -18.5354   12.4949 C   0  0  0  0  0  0  0  0  0  0  0  0
    9.3128  -19.2852   11.7059 N   0  0  0  0  0  0  0  0  0  0  0  0
    8.1263  -19.4538   12.3220 C   0  0  0  0  0  0  0  0  0  0  0  0
    8.1890  -18.8000   13.5003 N   0  0  0  0  0  0  0  0  0  0  0  0
    9.4232  -15.3486   16.0125 C   0  0  0  0  0  0  0  0  0  0  0  0
   10.5530  -14.8277   16.1902 O   0  0  0  0  0  0  0  0  0  0  0  0
    7.8618  -12.7829   19.7617 C   0  0  0  0  0  0  0  0  0  0  0  0
    7.5331  -13.6191   18.5391 C   0  0  1  0  0  0  0  0  0  0  0  0
    7.4311  -12.7388   17.4574 O   0  0  0  0  0  0  0  0  0  0  0  0
    8.6657  -14.5757   18.2148 C   0  0  2  0  0  0  0  0  0  0  0  0
    8.3935  -15.2910   16.9915 N   0  0  0  0  0  0  0  0  0  0  0  0
    8.8753  -15.5483   19.3172 C   0  0  0  0  0  0  0  0  0  0  0  0
    8.1506  -16.5952   19.3196 O   0  0  0  0  0  0  0  0  0  0  0  0
   15.8537  -17.3666   20.1301 N   0  0  0  0  0  0  0  0  0  0  0  0
   15.2038  -18.3570   19.3146 C   0  0  0  0  0  0  0  0  0  0  0  0
   15.8373  -18.9841   18.3848 N   0  0  0  0  0  0  0  0  0  0  0  0
   13.8323  -18.6747   19.5102 N   0  0  0  0  0  0  0  0  0  0  0  0
   13.1104  -18.2509   20.6736 C   0  0  0  0  0  0  0  0  0  0  0  0
   12.3780  -16.9574   20.5276 C   0  0  0  0  0  0  0  0  0  0  0  0
   11.5257  -16.5024   21.6342 C   0  0  0  0  0  0  0  0  0  0  0  0
   10.0810  -16.2838   21.3898 C   0  0  2  0  0  0  0  0  0  0  0  0
    9.8374  -15.3263   20.3246 N   0  0  0  0  0  0  0  0  0  0  0  0
    9.2996  -15.8506   22.5517 C   0  0  0  0  0  0  0  0  0  0  0  0
    8.8358  -14.6935   22.5944 O   0  0  0  0  0  0  0  0  0  0  0  0
    9.0618  -16.7009   23.6161 O   0  0  0  0  0  0  0  0  0  0  0  0
  2  9  1  0
  2  1  1  6
  3  2  1  0
  4  8  1  0
  4  3  1  0
  5  4  2  0
  6  5  1  0
  6  7  1  0
  7  8  2  0
  9 10  2  0
 12 13  1  0
 12 14  1  0
 12 11  1  1
 14 16  1  0
 15  9  1  0
 14 15  1  6
 16 17  2  0
 18 19  1  0
 19 20  2  0
 21 19  1  0
 22 21  1  0
 22 23  1  0
 23 24  1  0
 25 24  1  1
 25 27  1  0
 26 25  1  0
 26 16  1  0
 27 28  2  0
 27 29  1  0
M  END
$$$$
