HTR.pdb
     RDKit          3D

 29 29  0  0  1  0  0  0  0  0999 V2000
    8.6768  -18.5895   18.0314 N   0  0  0  0  0  0  0  0  0  0  0  0
    7.6041  -18.1903   18.9141 C   0  0  1  0  0  0  0  0  0  0  0  0
    7.2402  -19.4235   19.7432 C   0  0  0  0  0  0  0  0  0  0  0  0
    6.4726  -20.3484   18.8530 C   0  0  0  0  0  0  0  0  0  0  0  0
    5.3651  -20.0102   18.0766 C   0  0  0  0  0  0  0  0  0  0  0  0
    4.9604  -21.1099   17.4201 N   0  0  0  0  0  0  0  0  0  0  0  0
    5.7734  -22.1311   17.7549 C   0  0  0  0  0  0  0  0  0  0  0  0
    6.6850  -21.6501   18.6253 N   0  0  0  0  0  0  0  0  0  0  0  0
    8.0229  -17.1273   19.8570 C   0  0  0  0  0  0  0  0  0  0  0  0
    8.9924  -17.3771   20.6166 O   0  0  0  0  0  0  0  0  0  0  0  0
    7.8896  -12.4173   21.2715 C   0  0  0  0  0  0  0  0  0  0  0  0
    7.3158  -13.4977   20.3739 C   0  0  1  0  0  0  0  0  0  0  0  0
    7.8197  -13.2717   19.0893 O   0  0  0  0  0  0  0  0  0  0  0  0
    7.8045  -14.8709   20.7963 C   0  0  2  0  0  0  0  0  0  0  0  0
    7.3365  -15.8821   19.8794 N   0  0  0  0  0  0  0  0  0  0  0  0
    7.3458  -15.2018   22.1694 C   0  0  0  0  0  0  0  0  0  0  0  0
    6.2488  -15.8383   22.2825 O   0  0  0  0  0  0  0  0  0  0  0  0
    6.4541  -21.6033   26.0811 N   0  0  0  0  0  0  0  0  0  0  0  0
    7.1376  -20.7629   27.0271 C   0  0  0  0  0  0  0  0  0  0  0  0
    6.8874  -20.8284   28.2889 N   0  0  0  0  0  0  0  0  0  0  0  0
    8.1157  -19.8266   26.5948 N   0  0  0  0  0  0  0  0  0  0  0  0
    7.8358  -18.8395   25.5941 C   0  0  0  0  0  0  0  0  0  0  0  0
    9.0067  -18.0111   25.1773 C   0  0  0  0  0  0  0  0  0  0  0  0
    8.8195  -17.0100   24.1187 C   0  0  0  0  0  0  0  0  0  0  0  0
    8.2292  -15.6959   24.4642 C   0  0  2  0  0  0  0  0  0  0  0  0
    8.0916  -14.8283   23.3070 N   0  0  0  0  0  0  0  0  0  0  0  0
    8.9370  -14.9346   25.4974 C   0  0  0  0  0  0  0  0  0  0  0  0
    9.7780  -14.0733   25.1706 O   0  0  0  0  0  0  0  0  0  0  0  0
    8.6956  -15.1501   26.8419 O   0  0  0  0  0  0  0  0  0  0  0  0
  2  9  1  0
  2  1  1  6
  3  2  1  0
  4  8  1  0
  4  3  1  0
  5  4  2  0
  6  5  1  0
  6  7  1  0
  7  8  2  0
  9 10  2  0
 12 13  1  0
 12 14  1  0
 12 11  1  1
 14 16  1  0
 15  9  1  0
 14 15  1  6
 16 17  2  0
 18 19  1  0
 19 20  2  0
 21 19  1  0
 22 21  1  0
 22 23  1  0
 23 24  1  0
 25 24  1  6
 25 27  1  0
 26 25  1  0
 26 16  1  0
 27 28  2  0
 27 29  1  0
M  END
$$$$
