HTR.pdb
     RDKit          3D

 29 29  0  0  1  0  0  0  0  0999 V2000
    9.5476  -15.2481   14.6625 N   0  0  0  0  0  0  0  0  0  0  0  0
    9.0160  -15.9073   15.8338 C   0  0  1  0  0  0  0  0  0  0  0  0
    9.5639  -17.3356   15.8163 C   0  0  0  0  0  0  0  0  0  0  0  0
    8.7696  -18.1053   14.8095 C   0  0  0  0  0  0  0  0  0  0  0  0
    7.6504  -17.6428   14.1188 C   0  0  0  0  0  0  0  0  0  0  0  0
    7.2217  -18.6241   13.3079 N   0  0  0  0  0  0  0  0  0  0  0  0
    8.0309  -19.6904   13.4624 C   0  0  0  0  0  0  0  0  0  0  0  0
    8.9644  -19.3571   14.3776 N   0  0  0  0  0  0  0  0  0  0  0  0
    9.4744  -15.2697   17.0899 C   0  0  0  0  0  0  0  0  0  0  0  0
   10.6665  -14.8746   17.1364 O   0  0  0  0  0  0  0  0  0  0  0  0
    7.2216  -12.7708   19.3052 C   0  0  0  0  0  0  0  0  0  0  0  0
    7.9186  -13.8295   20.1392 C   0  0  1  0  0  0  0  0  0  0  0  0
    6.9865  -14.8457   20.3714 O   0  0  0  0  0  0  0  0  0  0  0  0
    9.0648  -14.4595   19.3696 C   0  0  2  0  0  0  0  0  0  0  0  0
    8.5782  -15.1231   18.1842 N   0  0  0  0  0  0  0  0  0  0  0  0
    9.8013  -15.4354   20.2126 C   0  0  0  0  0  0  0  0  0  0  0  0
    9.5537  -16.6709   20.0294 O   0  0  0  0  0  0  0  0  0  0  0  0
   14.3717  -14.8239   18.1295 N   0  0  0  0  0  0  0  0  0  0  0  0
   15.4824  -14.5454   18.9995 C   0  0  0  0  0  0  0  0  0  0  0  0
   16.4698  -13.8124   18.6164 N   0  0  0  0  0  0  0  0  0  0  0  0
   15.5252  -15.0758   20.3174 N   0  0  0  0  0  0  0  0  0  0  0  0
   14.9468  -16.3450   20.6472 C   0  0  0  0  0  0  0  0  0  0  0  0
   13.4564  -16.3550   20.7451 C   0  0  0  0  0  0  0  0  0  0  0  0
   12.8315  -15.9521   22.0120 C   0  0  0  0  0  0  0  0  0  0  0  0
   11.3538  -15.9406   22.1164 C   0  0  2  0  0  0  0  0  0  0  0  0
   10.7389  -15.0161   21.1795 N   0  0  0  0  0  0  0  0  0  0  0  0
   10.8142  -15.6372   23.4450 C   0  0  0  0  0  0  0  0  0  0  0  0
   11.1009  -16.3666   24.4154 O   0  0  0  0  0  0  0  0  0  0  0  0
    9.9837  -14.5513   23.6532 O   0  0  0  0  0  0  0  0  0  0  0  0
  2  9  1  0
  2  1  1  6
  3  2  1  0
  4  8  1  0
  4  3  1  0
  5  4  2  0
  6  5  1  0
  6  7  1  0
  7  8  2  0
  9 10  2  0
 12 13  1  0
 12 14  1  0
 12 11  1  6
 14 16  1  0
 15  9  1  0
 14 15  1  6
 16 17  2  0
 18 19  1  0
 19 20  2  0
 21 19  1  0
 22 21  1  0
 22 23  1  0
 23 24  1  0
 25 24  1  1
 25 27  1  0
 26 25  1  0
 26 16  1  0
 27 28  2  0
 27 29  1  0
M  END
$$$$
