HTR.pdb
     RDKit          3D

 29 29  0  0  1  0  0  0  0  0999 V2000
   11.8412  -17.4248   17.0660 N   0  0  0  0  0  0  0  0  0  0  0  0
   11.9489  -17.5496   18.5020 C   0  0  1  0  0  0  0  0  0  0  0  0
   13.2453  -16.8441   18.9047 C   0  0  0  0  0  0  0  0  0  0  0  0
   14.3802  -17.6544   18.3639 C   0  0  0  0  0  0  0  0  0  0  0  0
   15.3483  -17.2133   17.4628 C   0  0  0  0  0  0  0  0  0  0  0  0
   16.1928  -18.2297   17.2221 N   0  0  0  0  0  0  0  0  0  0  0  0
   15.7919  -19.2975   17.9396 C   0  0  0  0  0  0  0  0  0  0  0  0
   14.6906  -18.9297   18.6263 N   0  0  0  0  0  0  0  0  0  0  0  0
   10.8357  -16.8722   19.2066 C   0  0  0  0  0  0  0  0  0  0  0  0
   10.8975  -15.6220   19.3184 O   0  0  0  0  0  0  0  0  0  0  0  0
    7.0334  -17.5881   18.4856 C   0  0  0  0  0  0  0  0  0  0  0  0
    7.3293  -17.6264   19.9733 C   0  0  1  0  0  0  0  0  0  0  0  0
    7.5137  -18.9688   20.3187 O   0  0  0  0  0  0  0  0  0  0  0  0
    8.6326  -16.9148   20.2863 C   0  0  2  0  0  0  0  0  0  0  0  0
    9.7519  -17.6325   19.7257 N   0  0  0  0  0  0  0  0  0  0  0  0
    8.8242  -16.7717   21.7519 C   0  0  0  0  0  0  0  0  0  0  0  0
    9.8068  -17.3885   22.2766 O   0  0  0  0  0  0  0  0  0  0  0  0
    5.9166  -10.9041   27.5601 N   0  0  0  0  0  0  0  0  0  0  0  0
    5.7922  -11.2951   26.1818 C   0  0  0  0  0  0  0  0  0  0  0  0
    5.4078  -10.4617   25.2781 N   0  0  0  0  0  0  0  0  0  0  0  0
    6.0900  -12.6232   25.7724 N   0  0  0  0  0  0  0  0  0  0  0  0
    6.7625  -13.5527   26.6315 C   0  0  0  0  0  0  0  0  0  0  0  0
    6.9734  -14.9126   26.0509 C   0  0  0  0  0  0  0  0  0  0  0  0
    7.0239  -15.0539   24.5896 C   0  0  0  0  0  0  0  0  0  0  0  0
    8.0734  -15.9053   23.9826 C   0  0  2  0  0  0  0  0  0  0  0  0
    7.9552  -15.9852   22.5367 N   0  0  0  0  0  0  0  0  0  0  0  0
    8.1481  -17.2784   24.4898 C   0  0  0  0  0  0  0  0  0  0  0  0
    7.4828  -18.1814   23.9440 O   0  0  0  0  0  0  0  0  0  0  0  0
    8.9452  -17.6029   25.5723 O   0  0  0  0  0  0  0  0  0  0  0  0
  2  9  1  0
  2  1  1  6
  3  2  1  0
  4  8  1  0
  4  3  1  0
  5  4  2  0
  6  5  1  0
  6  7  1  0
  7  8  2  0
  9 10  2  0
 12 13  1  0
 12 14  1  0
 12 11  1  6
 14 16  1  0
 15  9  1  0
 14 15  1  1
 16 17  2  0
 18 19  1  0
 19 20  2  0
 21 19  1  0
 22 21  1  0
 22 23  1  0
 23 24  1  0
 25 24  1  1
 25 27  1  0
 26 25  1  0
 26 16  1  0
 27 28  2  0
 27 29  1  0
M  END
$$$$
