HTR.pdb
     RDKit          3D

 29 29  0  0  1  0  0  0  0  0999 V2000
    8.3638  -16.1039   18.5310 N   0  0  0  0  0  0  0  0  0  0  0  0
    8.9846  -14.9349   19.1119 C   0  0  1  0  0  0  0  0  0  0  0  0
    8.1097  -13.7403   18.7272 C   0  0  0  0  0  0  0  0  0  0  0  0
    8.0463  -13.6971   17.2335 C   0  0  0  0  0  0  0  0  0  0  0  0
    8.2799  -12.5794   16.4335 C   0  0  0  0  0  0  0  0  0  0  0  0
    8.1284  -12.9426   15.1493 N   0  0  0  0  0  0  0  0  0  0  0  0
    7.8070  -14.2506   15.1101 C   0  0  0  0  0  0  0  0  0  0  0  0
    7.7618  -14.6916   16.3841 N   0  0  0  0  0  0  0  0  0  0  0  0
    9.0239  -15.0003   20.5913 C   0  0  0  0  0  0  0  0  0  0  0  0
    9.5021  -14.0111   21.2014 O   0  0  0  0  0  0  0  0  0  0  0  0
    7.8730  -16.9933   24.8891 C   0  0  0  0  0  0  0  0  0  0  0  0
    7.6303  -16.9271   23.3928 C   0  0  1  0  0  0  0  0  0  0  0  0
    6.5194  -16.1011   23.1953 O   0  0  0  0  0  0  0  0  0  0  0  0
    8.7959  -16.2639   22.6824 C   0  0  2  0  0  0  0  0  0  0  0  0
    8.5320  -16.1500   21.2682 N   0  0  0  0  0  0  0  0  0  0  0  0
   10.0519  -17.0290   22.8884 C   0  0  0  0  0  0  0  0  0  0  0  0
   10.1015  -18.2105   22.4163 O   0  0  0  0  0  0  0  0  0  0  0  0
   19.8609  -16.7480   23.5270 N   0  0  0  0  0  0  0  0  0  0  0  0
   18.6044  -16.1018   23.2587 C   0  0  0  0  0  0  0  0  0  0  0  0
   18.5503  -14.8938   22.8150 N   0  0  0  0  0  0  0  0  0  0  0  0
   17.3753  -16.7810   23.4782 N   0  0  0  0  0  0  0  0  0  0  0  0
   16.1078  -16.1703   23.2050 C   0  0  0  0  0  0  0  0  0  0  0  0
   14.9166  -16.9892   23.5810 C   0  0  0  0  0  0  0  0  0  0  0  0
   13.5775  -16.4300   23.3524 C   0  0  0  0  0  0  0  0  0  0  0  0
   12.3893  -17.2042   23.7806 C   0  0  2  0  0  0  0  0  0  0  0  0
   11.1495  -16.4740   23.5790 N   0  0  0  0  0  0  0  0  0  0  0  0
   12.4010  -17.6666   25.1714 C   0  0  0  0  0  0  0  0  0  0  0  0
   11.7439  -17.0545   26.0371 O   0  0  0  0  0  0  0  0  0  0  0  0
   13.1321  -18.7762   25.5543 O   0  0  0  0  0  0  0  0  0  0  0  0
  2  9  1  0
  2  1  1  6
  3  2  1  0
  4  8  1  0
  4  3  1  0
  5  4  2  0
  6  5  1  0
  6  7  1  0
  7  8  2  0
  9 10  2  0
 12 13  1  0
 12 14  1  0
 12 11  1  1
 14 16  1  0
 15  9  1  0
 14 15  1  6
 16 17  2  0
 18 19  1  0
 19 20  2  0
 21 19  1  0
 22 21  1  0
 22 23  1  0
 23 24  1  0
 25 24  1  1
 25 27  1  0
 26 25  1  0
 26 16  1  0
 27 28  2  0
 27 29  1  0
M  END
$$$$
