HTR.pdb
     RDKit          3D

 29 29  0  0  1  0  0  0  0  0999 V2000
    8.7905  -16.3548   16.7839 N   0  0  0  0  0  0  0  0  0  0  0  0
    9.5128  -15.5808   17.7680 C   0  0  1  0  0  0  0  0  0  0  0  0
    8.6542  -15.5758   19.0342 C   0  0  0  0  0  0  0  0  0  0  0  0
    8.1321  -14.1856   19.2132 C   0  0  0  0  0  0  0  0  0  0  0  0
    7.1733  -13.5597   18.4179 C   0  0  0  0  0  0  0  0  0  0  0  0
    6.9722  -12.3215   18.8981 N   0  0  0  0  0  0  0  0  0  0  0  0
    7.7706  -12.1434   19.9689 C   0  0  0  0  0  0  0  0  0  0  0  0
    8.4671  -13.2851   20.1450 N   0  0  0  0  0  0  0  0  0  0  0  0
   10.8153  -16.1949   18.1155 C   0  0  0  0  0  0  0  0  0  0  0  0
   10.9085  -17.4448   18.0230 O   0  0  0  0  0  0  0  0  0  0  0  0
   15.6295  -15.9051   18.2593 C   0  0  0  0  0  0  0  0  0  0  0  0
   14.2901  -15.2120   18.0921 C   0  0  1  0  0  0  0  0  0  0  0  0
   14.0108  -15.1880   16.7222 O   0  0  0  0  0  0  0  0  0  0  0  0
   13.1793  -16.0117   18.7475 C   0  0  2  0  0  0  0  0  0  0  0  0
   11.9009  -15.3773   18.5338 N   0  0  0  0  0  0  0  0  0  0  0  0
   13.4171  -16.1602   20.2058 C   0  0  0  0  0  0  0  0  0  0  0  0
   13.2547  -15.1279   20.9333 O   0  0  0  0  0  0  0  0  0  0  0  0
   10.8365  -21.5627   23.6540 N   0  0  0  0  0  0  0  0  0  0  0  0
   10.4180  -21.6449   22.2806 C   0  0  0  0  0  0  0  0  0  0  0  0
    9.6918  -22.6201   21.8557 N   0  0  0  0  0  0  0  0  0  0  0  0
   10.7973  -20.6460   21.3433 N   0  0  0  0  0  0  0  0  0  0  0  0
   12.1199  -20.0949   21.3104 C   0  0  0  0  0  0  0  0  0  0  0  0
   12.6072  -19.5408   22.6090 C   0  0  0  0  0  0  0  0  0  0  0  0
   13.9426  -18.9306   22.6571 C   0  0  0  0  0  0  0  0  0  0  0  0
   14.1179  -17.5390   22.1801 C   0  0  2  0  0  0  0  0  0  0  0  0
   13.8077  -17.3934   20.7683 N   0  0  0  0  0  0  0  0  0  0  0  0
   15.4455  -16.9568   22.3965 C   0  0  0  0  0  0  0  0  0  0  0  0
   15.8816  -16.8136   23.5563 O   0  0  0  0  0  0  0  0  0  0  0  0
   16.2364  -16.5553   21.3355 O   0  0  0  0  0  0  0  0  0  0  0  0
  2  9  1  0
  2  1  1  6
  3  2  1  0
  4  8  1  0
  4  3  1  0
  5  4  2  0
  6  5  1  0
  6  7  1  0
  7  8  2  0
  9 10  2  0
 12 13  1  0
 12 14  1  0
 12 11  1  6
 14 16  1  0
 15  9  1  0
 14 15  1  1
 16 17  2  0
 18 19  1  0
 19 20  2  0
 21 19  1  0
 22 21  1  0
 22 23  1  0
 23 24  1  0
 25 24  1  6
 25 27  1  0
 26 25  1  0
 26 16  1  0
 27 28  2  0
 27 29  1  0
M  END
$$$$
