WAH.pdb
     RDKit          3D

 30 32  0  0  1  0  0  0  0  0999 V2000
   23.9132  -20.4115  -12.3903 N   0  0  0  0  0  0  0  0  0  0  0  0
   25.3716  -20.3921  -12.4280 C   0  0  1  0  0  0  0  0  0  0  0  0
   25.9224  -21.6589  -11.8662 C   0  0  0  0  0  0  0  0  0  0  0  0
   26.3577  -21.4178  -10.4644 C   0  0  0  0  0  0  0  0  0  0  0  0
   25.5369  -21.1454   -9.3636 C   0  0  0  0  0  0  0  0  0  0  0  0
   26.2853  -20.9835   -8.2618 N   0  0  0  0  0  0  0  0  0  0  0  0
   27.5815  -21.1390   -8.5907 C   0  0  0  0  0  0  0  0  0  0  0  0
   28.7576  -21.0818   -7.8683 C   0  0  0  0  0  0  0  0  0  0  0  0
   29.9810  -21.2824   -8.4524 C   0  0  0  0  0  0  0  0  0  0  0  0
   30.0348  -21.5483   -9.7979 C   0  0  0  0  0  0  0  0  0  0  0  0
   28.8729  -21.6088  -10.5331 C   0  0  0  0  0  0  0  0  0  0  0  0
   27.6357  -21.4055   -9.9397 C   0  0  0  0  0  0  0  0  0  0  0  0
   25.7645  -20.0880  -13.8003 C   0  0  0  0  0  0  0  0  0  0  0  0
   24.9263  -20.3793  -14.7112 O   0  0  0  0  0  0  0  0  0  0  0  0
   28.5838  -18.2704  -15.5044 C   0  0  0  0  0  0  0  0  0  0  0  0
   27.3611  -19.1846  -15.5498 C   0  0  2  0  0  0  0  0  0  0  0  0
   26.9715  -19.5080  -14.2105 N   0  0  0  0  0  0  0  0  0  0  0  0
   27.5962  -20.3351  -16.4140 C   0  0  0  0  0  0  0  0  0  0  0  0
   27.9311  -20.1613  -17.6104 O   0  0  0  0  0  0  0  0  0  0  0  0
   27.4437  -21.6426  -15.8938 N   0  0  0  0  0  0  0  0  0  0  0  0
   27.6603  -22.8473  -16.6711 C   0  0  1  0  0  0  0  0  0  0  0  0
   28.5173  -23.8391  -15.9350 C   0  0  0  0  0  0  0  0  0  0  0  0
   29.9455  -23.6825  -16.2579 C   0  0  0  0  0  0  0  0  0  0  0  0
   30.4686  -22.7882  -17.1740 C   0  0  0  0  0  0  0  0  0  0  0  0
   31.8141  -22.9182  -17.2121 N   0  0  0  0  0  0  0  0  0  0  0  0
   32.1407  -23.8853  -16.3293 C   0  0  0  0  0  0  0  0  0  0  0  0
   31.0004  -24.3418  -15.7563 N   0  0  0  0  0  0  0  0  0  0  0  0
   26.3416  -23.4714  -16.9185 C   0  0  0  0  0  0  0  0  0  0  0  0
   25.5595  -24.0908  -15.9629 O   0  0  0  0  0  0  0  0  0  0  0  0
   25.8669  -23.4536  -18.0853 O   0  0  0  0  0  0  0  0  0  0  0  0
  2  1  1  6
  2  3  1  0
  3  4  1  0
  4  5  2  0
  5  6  1  0
  7  6  1  0
  8  7  2  0
  9  8  1  0
 10 11  1  0
 10  9  2  0
 11 12  2  0
 12  4  1  0
 12  7  1  0
 13  2  1  0
 13 14  2  0
 16 15  1  1
 16 17  1  0
 17 13  1  0
 18 20  1  0
 18 16  1  0
 19 18  2  0
 21 20  1  0
 21 28  1  0
 21 22  1  1
 23 22  1  0
 23 24  2  0
 25 24  1  0
 26 27  2  0
 26 25  1  0
 27 23  1  0
 28 30  2  0
 28 29  1  0
M  END
$$$$
