WAH.pdb
     RDKit          3D

 30 32  0  0  1  0  0  0  0  0999 V2000
   28.4910  -20.0167  -11.2896 N   0  0  0  0  0  0  0  0  0  0  0  0
   27.6050  -21.1125  -11.6679 C   0  0  1  0  0  0  0  0  0  0  0  0
   27.0558  -21.7794  -10.4523 C   0  0  0  0  0  0  0  0  0  0  0  0
   27.8870  -21.4042   -9.2772 C   0  0  0  0  0  0  0  0  0  0  0  0
   27.4532  -20.7665   -8.1089 C   0  0  0  0  0  0  0  0  0  0  0  0
   28.4864  -20.5903   -7.2713 N   0  0  0  0  0  0  0  0  0  0  0  0
   29.5985  -21.0901   -7.8424 C   0  0  0  0  0  0  0  0  0  0  0  0
   30.9165  -21.1768   -7.4379 C   0  0  0  0  0  0  0  0  0  0  0  0
   31.8830  -21.7476   -8.2241 C   0  0  0  0  0  0  0  0  0  0  0  0
   31.5258  -22.2476   -9.4514 C   0  0  0  0  0  0  0  0  0  0  0  0
   30.2172  -22.1694   -9.8705 C   0  0  0  0  0  0  0  0  0  0  0  0
   29.2405  -21.5914   -9.0730 C   0  0  0  0  0  0  0  0  0  0  0  0
   26.6136  -20.5680  -12.5903 C   0  0  0  0  0  0  0  0  0  0  0  0
   25.8236  -19.6876  -12.1235 O   0  0  0  0  0  0  0  0  0  0  0  0
   25.7245  -20.7657  -16.2288 C   0  0  0  0  0  0  0  0  0  0  0  0
   25.3105  -20.6527  -14.7629 C   0  0  2  0  0  0  0  0  0  0  0  0
   26.4482  -20.9198  -13.9357 N   0  0  0  0  0  0  0  0  0  0  0  0
   24.1414  -21.4772  -14.4813 C   0  0  0  0  0  0  0  0  0  0  0  0
   24.2540  -22.7255  -14.4276 O   0  0  0  0  0  0  0  0  0  0  0  0
   22.8852  -20.8600  -14.2708 N   0  0  0  0  0  0  0  0  0  0  0  0
   21.8792  -21.3740  -13.3618 C   0  0  1  0  0  0  0  0  0  0  0  0
   22.3316  -21.2999  -11.9302 C   0  0  0  0  0  0  0  0  0  0  0  0
   21.3252  -21.8452  -11.0036 C   0  0  0  0  0  0  0  0  0  0  0  0
   20.0816  -22.3313  -11.3636 C   0  0  0  0  0  0  0  0  0  0  0  0
   19.4250  -22.7508  -10.2584 N   0  0  0  0  0  0  0  0  0  0  0  0
   20.2440  -22.5328   -9.2081 C   0  0  0  0  0  0  0  0  0  0  0  0
   21.3934  -21.9835   -9.6711 N   0  0  0  0  0  0  0  0  0  0  0  0
   20.6669  -20.5379  -13.5063 C   0  0  0  0  0  0  0  0  0  0  0  0
   19.3762  -21.0163  -13.6233 O   0  0  0  0  0  0  0  0  0  0  0  0
   20.7890  -19.2842  -13.5290 O   0  0  0  0  0  0  0  0  0  0  0  0
  2  1  1  1
  2  3  1  0
  3  4  1  0
  4  5  2  0
  5  6  1  0
  7  6  1  0
  8  7  2  0
  9  8  1  0
 10 11  1  0
 10  9  2  0
 11 12  2  0
 12  4  1  0
 12  7  1  0
 13  2  1  0
 13 14  2  0
 16 15  1  6
 16 17  1  0
 17 13  1  0
 18 20  1  0
 18 16  1  0
 19 18  2  0
 21 20  1  0
 21 28  1  0
 21 22  1  1
 23 22  1  0
 23 24  2  0
 25 24  1  0
 26 27  2  0
 26 25  1  0
 27 23  1  0
 28 30  2  0
 28 29  1  0
M  END
$$$$
