WAH.pdb
     RDKit          3D

 30 32  0  0  1  0  0  0  0  0999 V2000
   27.0164  -19.2988  -11.3203 N   0  0  0  0  0  0  0  0  0  0  0  0
   26.5924  -20.6903  -11.4342 C   0  0  1  0  0  0  0  0  0  0  0  0
   25.9297  -21.1358  -10.1748 C   0  0  0  0  0  0  0  0  0  0  0  0
   26.7509  -20.6975   -9.0145 C   0  0  0  0  0  0  0  0  0  0  0  0
   26.3325  -19.9047   -7.9393 C   0  0  0  0  0  0  0  0  0  0  0  0
   27.3498  -19.7157   -7.0851 N   0  0  0  0  0  0  0  0  0  0  0  0
   28.4362  -20.3571   -7.5550 C   0  0  0  0  0  0  0  0  0  0  0  0
   29.7300  -20.4977   -7.0916 C   0  0  0  0  0  0  0  0  0  0  0  0
   30.6725  -21.2222   -7.7734 C   0  0  0  0  0  0  0  0  0  0  0  0
   30.3154  -21.8256   -8.9534 C   0  0  0  0  0  0  0  0  0  0  0  0
   29.0308  -21.6959   -9.4299 C   0  0  0  0  0  0  0  0  0  0  0  0
   28.0784  -20.9622   -8.7381 C   0  0  0  0  0  0  0  0  0  0  0  0
   25.7834  -20.7980  -12.6442 C   0  0  0  0  0  0  0  0  0  0  0  0
   25.1843  -19.7431  -13.0253 O   0  0  0  0  0  0  0  0  0  0  0  0
   24.9968  -23.4728  -15.1878 C   0  0  0  0  0  0  0  0  0  0  0  0
   24.8448  -22.0576  -14.6337 C   0  0  2  0  0  0  0  0  0  0  0  0
   25.6035  -21.9471  -13.4244 N   0  0  0  0  0  0  0  0  0  0  0  0
   23.4395  -21.6889  -14.5109 C   0  0  0  0  0  0  0  0  0  0  0  0
   22.7494  -22.1559  -13.5730 O   0  0  0  0  0  0  0  0  0  0  0  0
   22.8640  -20.8047  -15.4544 N   0  0  0  0  0  0  0  0  0  0  0  0
   21.4727  -20.3971  -15.4298 C   0  0  1  0  0  0  0  0  0  0  0  0
   21.1726  -19.3744  -16.4899 C   0  0  0  0  0  0  0  0  0  0  0  0
   19.8061  -18.8387  -16.3701 C   0  0  0  0  0  0  0  0  0  0  0  0
   18.8751  -19.2176  -15.4201 C   0  0  0  0  0  0  0  0  0  0  0  0
   17.7314  -18.5210  -15.6078 N   0  0  0  0  0  0  0  0  0  0  0  0
   17.9351  -17.7088  -16.6662 C   0  0  0  0  0  0  0  0  0  0  0  0
   19.1961  -17.9094  -17.1207 N   0  0  0  0  0  0  0  0  0  0  0  0
   20.6441  -21.5939  -15.6959 C   0  0  0  0  0  0  0  0  0  0  0  0
   19.4312  -21.8746  -15.0971 O   0  0  0  0  0  0  0  0  0  0  0  0
   21.0514  -22.4452  -16.5304 O   0  0  0  0  0  0  0  0  0  0  0  0
  2  1  1  1
  2  3  1  0
  3  4  1  0
  4  5  2  0
  5  6  1  0
  7  6  1  0
  8  7  2  0
  9  8  1  0
 10 11  1  0
 10  9  2  0
 11 12  2  0
 12  4  1  0
 12  7  1  0
 13  2  1  0
 13 14  2  0
 16 15  1  1
 16 17  1  0
 17 13  1  0
 18 20  1  0
 18 16  1  0
 19 18  2  0
 21 20  1  0
 21 28  1  0
 21 22  1  6
 23 22  1  0
 23 24  2  0
 25 24  1  0
 26 27  2  0
 26 25  1  0
 27 23  1  0
 28 30  2  0
 28 29  1  0
M  END
$$$$
