WAH.pdb
     RDKit          3D

 30 32  0  0  1  0  0  0  0  0999 V2000
   18.7745   -9.2682  -15.6734 N   0  0  0  0  0  0  0  0  0  0  0  0
   17.9736   -8.5546  -16.6623 C   0  0  1  0  0  0  0  0  0  0  0  0
   16.6336   -9.1935  -16.8041 C   0  0  0  0  0  0  0  0  0  0  0  0
   16.7954  -10.5154  -17.4668 C   0  0  0  0  0  0  0  0  0  0  0  0
   16.8677  -11.7663  -16.8424 C   0  0  0  0  0  0  0  0  0  0  0  0
   17.0153  -12.7311  -17.7632 N   0  0  0  0  0  0  0  0  0  0  0  0
   17.0443  -12.1651  -18.9844 C   0  0  0  0  0  0  0  0  0  0  0  0
   17.1734  -12.6722  -20.2629 C   0  0  0  0  0  0  0  0  0  0  0  0
   17.1724  -11.8642  -21.3698 C   0  0  0  0  0  0  0  0  0  0  0  0
   17.0386  -10.5090  -21.1981 C   0  0  0  0  0  0  0  0  0  0  0  0
   16.9090   -9.9866  -19.9315 C   0  0  0  0  0  0  0  0  0  0  0  0
   16.9102  -10.8062  -18.8125 C   0  0  0  0  0  0  0  0  0  0  0  0
   17.9629   -7.1472  -16.2758 C   0  0  0  0  0  0  0  0  0  0  0  0
   17.7116   -6.8930  -15.0554 O   0  0  0  0  0  0  0  0  0  0  0  0
   18.3812   -3.8279  -18.0240 C   0  0  0  0  0  0  0  0  0  0  0  0
   17.9981   -4.6691  -16.8080 C   0  0  2  0  0  0  0  0  0  0  0  0
   18.2021   -6.0525  -17.1159 N   0  0  0  0  0  0  0  0  0  0  0  0
   16.6577   -4.3370  -16.3398 C   0  0  0  0  0  0  0  0  0  0  0  0
   15.6782   -5.0324  -16.7013 O   0  0  0  0  0  0  0  0  0  0  0  0
   16.4728   -3.2289  -15.4788 N   0  0  0  0  0  0  0  0  0  0  0  0
   15.1802   -2.8128  -14.9704 C   0  0  1  0  0  0  0  0  0  0  0  0
   14.7116   -3.6968  -13.8486 C   0  0  0  0  0  0  0  0  0  0  0  0
   13.4234   -3.2489  -13.2930 C   0  0  0  0  0  0  0  0  0  0  0  0
   13.2580   -2.5495  -12.1114 C   0  0  0  0  0  0  0  0  0  0  0  0
   11.9429   -2.3045  -11.9138 N   0  0  0  0  0  0  0  0  0  0  0  0
   11.2812   -2.8432  -12.9594 C   0  0  0  0  0  0  0  0  0  0  0  0
   12.1883   -3.4132  -13.7896 N   0  0  0  0  0  0  0  0  0  0  0  0
   15.3205   -1.4365  -14.4452 C   0  0  0  0  0  0  0  0  0  0  0  0
   14.3907   -0.4258  -14.5955 O   0  0  0  0  0  0  0  0  0  0  0  0
   16.3617   -1.1302  -13.8057 O   0  0  0  0  0  0  0  0  0  0  0  0
  2  1  1  1
  2  3  1  0
  3  4  1  0
  4  5  2  0
  5  6  1  0
  7  6  1  0
  8  7  2  0
  9  8  1  0
 10 11  1  0
 10  9  2  0
 11 12  2  0
 12  4  1  0
 12  7  1  0
 13  2  1  0
 13 14  2  0
 16 15  1  6
 16 17  1  0
 17 13  1  0
 18 20  1  0
 18 16  1  0
 19 18  2  0
 21 20  1  0
 21 28  1  0
 21 22  1  1
 23 22  1  0
 23 24  2  0
 25 24  1  0
 26 27  2  0
 26 25  1  0
 27 23  1  0
 28 30  2  0
 28 29  1  0
M  END
$$$$
