WAH.pdb
     RDKit          3D

 30 32  0  0  1  0  0  0  0  0999 V2000
   21.8082  -19.5656  -15.5756 N   0  0  0  0  0  0  0  0  0  0  0  0
   20.6865  -19.4175  -14.6544 C   0  0  1  0  0  0  0  0  0  0  0  0
   19.4999  -18.8615  -15.3663 C   0  0  0  0  0  0  0  0  0  0  0  0
   19.8408  -17.5139  -15.8957 C   0  0  0  0  0  0  0  0  0  0  0  0
   20.1220  -17.1787  -17.2255 C   0  0  0  0  0  0  0  0  0  0  0  0
   20.3864  -15.8668  -17.3223 N   0  0  0  0  0  0  0  0  0  0  0  0
   20.2911  -15.3133  -16.0987 C   0  0  0  0  0  0  0  0  0  0  0  0
   20.4565  -14.0268  -15.6233 C   0  0  0  0  0  0  0  0  0  0  0  0
   20.2981  -13.7146  -14.2984 C   0  0  0  0  0  0  0  0  0  0  0  0
   19.9648  -14.7148  -13.4195 C   0  0  0  0  0  0  0  0  0  0  0  0
   19.7963  -16.0022  -13.8758 C   0  0  0  0  0  0  0  0  0  0  0  0
   19.9569  -16.3160  -15.2173 C   0  0  0  0  0  0  0  0  0  0  0  0
   20.4848  -20.7102  -14.0077 C   0  0  0  0  0  0  0  0  0  0  0  0
   19.5925  -21.4653  -14.5085 O   0  0  0  0  0  0  0  0  0  0  0  0
   20.8409  -19.4858  -11.2313 C   0  0  0  0  0  0  0  0  0  0  0  0
   20.8496  -20.9867  -11.5145 C   0  0  2  0  0  0  0  0  0  0  0  0
   21.1766  -21.1988  -12.8922 N   0  0  0  0  0  0  0  0  0  0  0  0
   19.6072  -21.6119  -11.0765 C   0  0  0  0  0  0  0  0  0  0  0  0
   19.1692  -21.3924   -9.9217 O   0  0  0  0  0  0  0  0  0  0  0  0
   18.9041  -22.4641  -11.9612 N   0  0  0  0  0  0  0  0  0  0  0  0
   17.6303  -23.0792  -11.6424 C   0  0  1  0  0  0  0  0  0  0  0  0
   17.8041  -24.4652  -11.0870 C   0  0  0  0  0  0  0  0  0  0  0  0
   18.4242  -25.3778  -12.0624 C   0  0  0  0  0  0  0  0  0  0  0  0
   18.7955  -25.0434  -13.3519 C   0  0  0  0  0  0  0  0  0  0  0  0
   19.3328  -26.1250  -13.9604 N   0  0  0  0  0  0  0  0  0  0  0  0
   19.3023  -27.1349  -13.0656 C   0  0  0  0  0  0  0  0  0  0  0  0
   18.7496  -26.6711  -11.9183 N   0  0  0  0  0  0  0  0  0  0  0  0
   16.9705  -22.2484  -10.6108 C   0  0  0  0  0  0  0  0  0  0  0  0
   15.6468  -21.8535  -10.6300 O   0  0  0  0  0  0  0  0  0  0  0  0
   17.6444  -21.8523   -9.6228 O   0  0  0  0  0  0  0  0  0  0  0  0
  2  1  1  6
  2  3  1  0
  3  4  1  0
  4  5  2  0
  5  6  1  0
  7  6  1  0
  8  7  2  0
  9  8  1  0
 10 11  1  0
 10  9  2  0
 11 12  2  0
 12  4  1  0
 12  7  1  0
 13  2  1  0
 13 14  2  0
 16 15  1  6
 16 17  1  0
 17 13  1  0
 18 20  1  0
 18 16  1  0
 19 18  2  0
 21 20  1  0
 21 28  1  0
 21 22  1  1
 23 22  1  0
 23 24  2  0
 25 24  1  0
 26 27  2  0
 26 25  1  0
 27 23  1  0
 28 30  2  0
 28 29  1  0
M  END
$$$$
