WAH.pdb
     RDKit          3D

 30 32  0  0  1  0  0  0  0  0999 V2000
   27.0606  -19.1703  -13.5428 N   0  0  0  0  0  0  0  0  0  0  0  0
   26.7447  -20.5748  -13.3053 C   0  0  1  0  0  0  0  0  0  0  0  0
   25.7427  -20.7034  -12.2083 C   0  0  0  0  0  0  0  0  0  0  0  0
   26.2806  -20.0539  -10.9830 C   0  0  0  0  0  0  0  0  0  0  0  0
   25.9160  -18.8064  -10.4628 C   0  0  0  0  0  0  0  0  0  0  0  0
   26.6147  -18.5528   -9.3457 N   0  0  0  0  0  0  0  0  0  0  0  0
   27.4356  -19.5916   -9.1018 C   0  0  0  0  0  0  0  0  0  0  0  0
   28.3575  -19.8602   -8.1087 C   0  0  0  0  0  0  0  0  0  0  0  0
   29.0843  -21.0218   -8.0851 C   0  0  0  0  0  0  0  0  0  0  0  0
   28.8867  -21.9448   -9.0817 C   0  0  0  0  0  0  0  0  0  0  0  0
   27.9722  -21.6936  -10.0791 C   0  0  0  0  0  0  0  0  0  0  0  0
   27.2376  -20.5172  -10.1009 C   0  0  0  0  0  0  0  0  0  0  0  0
   26.3534  -21.1526  -14.5872 C   0  0  0  0  0  0  0  0  0  0  0  0
   25.6251  -20.4308  -15.3393 O   0  0  0  0  0  0  0  0  0  0  0  0
   26.9062  -24.4080  -16.4157 C   0  0  0  0  0  0  0  0  0  0  0  0
   26.2130  -23.0566  -16.2548 C   0  0  2  0  0  0  0  0  0  0  0  0
   26.7011  -22.4212  -15.0682 N   0  0  0  0  0  0  0  0  0  0  0  0
   24.7633  -23.1977  -16.3219 C   0  0  0  0  0  0  0  0  0  0  0  0
   24.2278  -23.6743  -17.3514 O   0  0  0  0  0  0  0  0  0  0  0  0
   23.9702  -22.7940  -15.2214 N   0  0  0  0  0  0  0  0  0  0  0  0
   22.5238  -22.8925  -15.1938 C   0  0  1  0  0  0  0  0  0  0  0  0
   21.9596  -22.4440  -13.8746 C   0  0  0  0  0  0  0  0  0  0  0  0
   20.4894  -22.5234  -13.8464 C   0  0  0  0  0  0  0  0  0  0  0  0
   19.6884  -22.9589  -14.8863 C   0  0  0  0  0  0  0  0  0  0  0  0
   18.3908  -22.8996  -14.5103 N   0  0  0  0  0  0  0  0  0  0  0  0
   18.3693  -22.4312  -13.2448 C   0  0  0  0  0  0  0  0  0  0  0  0
   19.6469  -22.2064  -12.8520 N   0  0  0  0  0  0  0  0  0  0  0  0
   21.9880  -22.0055  -16.2500 C   0  0  0  0  0  0  0  0  0  0  0  0
   20.8904  -22.2802  -17.0427 O   0  0  0  0  0  0  0  0  0  0  0  0
   22.5579  -20.9035  -16.4690 O   0  0  0  0  0  0  0  0  0  0  0  0
  2  1  1  6
  2  3  1  0
  3  4  1  0
  4  5  2  0
  5  6  1  0
  7  6  1  0
  8  7  2  0
  9  8  1  0
 10 11  1  0
 10  9  2  0
 11 12  2  0
 12  4  1  0
 12  7  1  0
 13  2  1  0
 13 14  2  0
 16 15  1  1
 16 17  1  0
 17 13  1  0
 18 20  1  0
 18 16  1  0
 19 18  2  0
 21 20  1  0
 21 28  1  0
 21 22  1  1
 23 22  1  0
 23 24  2  0
 25 24  1  0
 26 27  2  0
 26 25  1  0
 27 23  1  0
 28 30  2  0
 28 29  1  0
M  END
$$$$
