WAH.pdb
     RDKit          3D

 30 32  0  0  1  0  0  0  0  0999 V2000
   28.1422  -20.6611  -10.4101 N   0  0  0  0  0  0  0  0  0  0  0  0
   26.8565  -21.2367  -10.0298 C   0  0  1  0  0  0  0  0  0  0  0  0
   26.4005  -20.6731   -8.7266 C   0  0  0  0  0  0  0  0  0  0  0  0
   27.5913  -20.3475   -7.8969 C   0  0  0  0  0  0  0  0  0  0  0  0
   28.8363  -19.8975   -8.3521 C   0  0  0  0  0  0  0  0  0  0  0  0
   29.6648  -19.7106   -7.3133 N   0  0  0  0  0  0  0  0  0  0  0  0
   29.0133  -20.0216   -6.1769 C   0  0  0  0  0  0  0  0  0  0  0  0
   29.3738  -20.0137   -4.8434 C   0  0  0  0  0  0  0  0  0  0  0  0
   28.5033  -20.3843   -3.8519 C   0  0  0  0  0  0  0  0  0  0  0  0
   27.2342  -20.7750   -4.1993 C   0  0  0  0  0  0  0  0  0  0  0  0
   26.8581  -20.7891   -5.5231 C   0  0  0  0  0  0  0  0  0  0  0  0
   27.7407  -20.4134   -6.5250 C   0  0  0  0  0  0  0  0  0  0  0  0
   25.9461  -21.0416  -11.1538 C   0  0  0  0  0  0  0  0  0  0  0  0
   25.9625  -19.8976  -11.7088 O   0  0  0  0  0  0  0  0  0  0  0  0
   23.8915  -23.0177  -13.5192 C   0  0  0  0  0  0  0  0  0  0  0  0
   24.0383  -21.7648  -12.6580 C   0  0  2  0  0  0  0  0  0  0  0  0
   25.0590  -21.9893  -11.6794 N   0  0  0  0  0  0  0  0  0  0  0  0
   22.7514  -21.3454  -12.1157 C   0  0  0  0  0  0  0  0  0  0  0  0
   22.1149  -22.1102  -11.3516 O   0  0  0  0  0  0  0  0  0  0  0  0
   22.2295  -20.0750  -12.4576 N   0  0  0  0  0  0  0  0  0  0  0  0
   20.8442  -19.8459  -12.8196 C   0  0  1  0  0  0  0  0  0  0  0  0
   20.7169  -19.2772  -14.2052 C   0  0  0  0  0  0  0  0  0  0  0  0
   21.1015  -17.8566  -14.2572 C   0  0  0  0  0  0  0  0  0  0  0  0
   21.0640  -16.9748  -13.1926 C   0  0  0  0  0  0  0  0  0  0  0  0
   21.4866  -15.7571  -13.6015 N   0  0  0  0  0  0  0  0  0  0  0  0
   21.7889  -15.8658  -14.9123 C   0  0  0  0  0  0  0  0  0  0  0  0
   21.5519  -17.1428  -15.2997 N   0  0  0  0  0  0  0  0  0  0  0  0
   20.1456  -21.1500  -12.7902 C   0  0  0  0  0  0  0  0  0  0  0  0
   19.0083  -21.4304  -12.0578 O   0  0  0  0  0  0  0  0  0  0  0  0
   20.6012  -22.1023  -13.4777 O   0  0  0  0  0  0  0  0  0  0  0  0
  2  1  1  6
  2  3  1  0
  3  4  1  0
  4  5  2  0
  5  6  1  0
  7  6  1  0
  8  7  2  0
  9  8  1  0
 10 11  1  0
 10  9  2  0
 11 12  2  0
 12  4  1  0
 12  7  1  0
 13  2  1  0
 13 14  2  0
 16 15  1  1
 16 17  1  0
 17 13  1  0
 18 20  1  0
 18 16  1  0
 19 18  2  0
 21 20  1  0
 21 28  1  0
 21 22  1  6
 23 22  1  0
 23 24  2  0
 25 24  1  0
 26 27  2  0
 26 25  1  0
 27 23  1  0
 28 30  2  0
 28 29  1  0
M  END
$$$$
