WAH.pdb
     RDKit          3D

 30 32  0  0  1  0  0  0  0  0999 V2000
   16.5210  -18.5185    2.4506 N   0  0  0  0  0  0  0  0  0  0  0  0
   17.8736  -18.4722    2.9957 C   0  0  1  0  0  0  0  0  0  0  0  0
   18.7050  -17.4923    2.2392 C   0  0  0  0  0  0  0  0  0  0  0  0
   19.3700  -18.1931    1.1081 C   0  0  0  0  0  0  0  0  0  0  0  0
   18.7568  -18.9943    0.1376 C   0  0  0  0  0  0  0  0  0  0  0  0
   19.6764  -19.4588   -0.7221 N   0  0  0  0  0  0  0  0  0  0  0  0
   20.8859  -18.9935   -0.3574 C   0  0  0  0  0  0  0  0  0  0  0  0
   22.1581  -19.1501   -0.8725 C   0  0  0  0  0  0  0  0  0  0  0  0
   23.2528  -18.5551   -0.3018 C   0  0  0  0  0  0  0  0  0  0  0  0
   23.0749  -17.7800    0.8169 C   0  0  0  0  0  0  0  0  0  0  0  0
   21.8145  -17.6133    1.3438 C   0  0  0  0  0  0  0  0  0  0  0  0
   20.7078  -18.2163    0.7643 C   0  0  0  0  0  0  0  0  0  0  0  0
   17.7537  -18.2232    4.4288 C   0  0  0  0  0  0  0  0  0  0  0  0
   17.1034  -17.1868    4.7750 O   0  0  0  0  0  0  0  0  0  0  0  0
   18.5763  -19.9122    7.6731 C   0  0  0  0  0  0  0  0  0  0  0  0
   18.4434  -18.6445    6.8314 C   0  0  2  0  0  0  0  0  0  0  0  0
   18.2838  -19.0128    5.4570 N   0  0  0  0  0  0  0  0  0  0  0  0
   19.5405  -17.7209    7.0946 C   0  0  0  0  0  0  0  0  0  0  0  0
   20.5210  -17.6747    6.3134 O   0  0  0  0  0  0  0  0  0  0  0  0
   19.4897  -16.8819    8.2334 N   0  0  0  0  0  0  0  0  0  0  0  0
   20.5143  -15.9101    8.5622 C   0  0  1  0  0  0  0  0  0  0  0  0
   19.9227  -14.6350    9.0950 C   0  0  0  0  0  0  0  0  0  0  0  0
   19.8830  -13.5749    8.0735 C   0  0  0  0  0  0  0  0  0  0  0  0
   20.2871  -13.7115    6.7580 C   0  0  0  0  0  0  0  0  0  0  0  0
   20.1095  -12.5388    6.1085 N   0  0  0  0  0  0  0  0  0  0  0  0
   19.5980  -11.6675    7.0032 C   0  0  0  0  0  0  0  0  0  0  0  0
   19.4647  -12.3059    8.1913 N   0  0  0  0  0  0  0  0  0  0  0  0
   21.3737  -16.4950    9.6153 C   0  0  0  0  0  0  0  0  0  0  0  0
   22.6824  -16.1334    9.8703 O   0  0  0  0  0  0  0  0  0  0  0  0
   20.9027  -17.3993   10.3553 O   0  0  0  0  0  0  0  0  0  0  0  0
  2  1  1  6
  2  3  1  0
  3  4  1  0
  4  5  2  0
  5  6  1  0
  7  6  1  0
  8  7  2  0
  9  8  1  0
 10 11  1  0
 10  9  2  0
 11 12  2  0
 12  4  1  0
 12  7  1  0
 13  2  1  0
 13 14  2  0
 16 15  1  1
 16 17  1  0
 17 13  1  0
 18 20  1  0
 18 16  1  0
 19 18  2  0
 21 20  1  0
 21 28  1  0
 21 22  1  1
 23 22  1  0
 23 24  2  0
 25 24  1  0
 26 27  2  0
 26 25  1  0
 27 23  1  0
 28 30  2  0
 28 29  1  0
M  END
$$$$
