WAH.pdb
     RDKit          3D

 30 32  0  0  1  0  0  0  0  0999 V2000
   26.7283  -22.5397  -13.8520 N   0  0  0  0  0  0  0  0  0  0  0  0
   25.6835  -21.8010  -13.1508 C   0  0  1  0  0  0  0  0  0  0  0  0
   26.2045  -20.4853  -12.6804 C   0  0  0  0  0  0  0  0  0  0  0  0
   27.2317  -20.7189  -11.6302 C   0  0  0  0  0  0  0  0  0  0  0  0
   28.6090  -20.8803  -11.8216 C   0  0  0  0  0  0  0  0  0  0  0  0
   29.2171  -21.0729  -10.6412 N   0  0  0  0  0  0  0  0  0  0  0  0
   28.2898  -21.0456   -9.6655 C   0  0  0  0  0  0  0  0  0  0  0  0
   28.3521  -21.1848   -8.2925 C   0  0  0  0  0  0  0  0  0  0  0  0
   27.2346  -21.1142   -7.5024 C   0  0  0  0  0  0  0  0  0  0  0  0
   26.0171  -20.8982   -8.0983 C   0  0  0  0  0  0  0  0  0  0  0  0
   25.9365  -20.7574   -9.4649 C   0  0  0  0  0  0  0  0  0  0  0  0
   27.0690  -20.8290  -10.2627 C   0  0  0  0  0  0  0  0  0  0  0  0
   24.5269  -21.7399  -14.0389 C   0  0  0  0  0  0  0  0  0  0  0  0
   24.7670  -21.5796  -15.2774 O   0  0  0  0  0  0  0  0  0  0  0  0
   21.9379  -23.3918  -15.0213 C   0  0  0  0  0  0  0  0  0  0  0  0
   22.0488  -21.9502  -14.5289 C   0  0  2  0  0  0  0  0  0  0  0  0
   23.1822  -21.8405  -13.6609 N   0  0  0  0  0  0  0  0  0  0  0  0
   20.7898  -21.4927  -13.9531 C   0  0  0  0  0  0  0  0  0  0  0  0
   19.7166  -21.6612  -14.5806 O   0  0  0  0  0  0  0  0  0  0  0  0
   20.7894  -20.8598  -12.6871 N   0  0  0  0  0  0  0  0  0  0  0  0
   19.5944  -20.3495  -12.0438 C   0  0  1  0  0  0  0  0  0  0  0  0
   19.7362  -20.3196  -10.5476 C   0  0  0  0  0  0  0  0  0  0  0  0
   19.7948  -21.6733   -9.9707 C   0  0  0  0  0  0  0  0  0  0  0  0
   19.6325  -22.8535  -10.6731 C   0  0  0  0  0  0  0  0  0  0  0  0
   19.7498  -23.9011   -9.8262 N   0  0  0  0  0  0  0  0  0  0  0  0
   19.9841  -23.3903   -8.5992 C   0  0  0  0  0  0  0  0  0  0  0  0
   20.0094  -22.0388   -8.6981 N   0  0  0  0  0  0  0  0  0  0  0  0
   19.3820  -18.9629  -12.5147 C   0  0  0  0  0  0  0  0  0  0  0  0
   20.2113  -18.2783  -13.3821 O   0  0  0  0  0  0  0  0  0  0  0  0
   18.3726  -18.3279  -12.1087 O   0  0  0  0  0  0  0  0  0  0  0  0
  2  1  1  6
  2  3  1  0
  3  4  1  0
  4  5  2  0
  5  6  1  0
  7  6  1  0
  8  7  2  0
  9  8  1  0
 10 11  1  0
 10  9  2  0
 11 12  2  0
 12  4  1  0
 12  7  1  0
 13  2  1  0
 13 14  2  0
 16 15  1  1
 16 17  1  0
 17 13  1  0
 18 20  1  0
 18 16  1  0
 19 18  2  0
 21 20  1  0
 21 28  1  0
 21 22  1  1
 23 22  1  0
 23 24  2  0
 25 24  1  0
 26 27  2  0
 26 25  1  0
 27 23  1  0
 28 30  2  0
 28 29  1  0
M  END
$$$$
