WAH.pdb
     RDKit          3D

 30 32  0  0  1  0  0  0  0  0999 V2000
   26.1024  -19.5431  -11.1315 N   0  0  0  0  0  0  0  0  0  0  0  0
   26.2725  -20.9503  -11.4776 C   0  0  1  0  0  0  0  0  0  0  0  0
   26.0364  -21.8110  -10.2829 C   0  0  0  0  0  0  0  0  0  0  0  0
   26.6849  -21.1850   -9.0996 C   0  0  0  0  0  0  0  0  0  0  0  0
   26.0452  -20.6281   -7.9859 C   0  0  0  0  0  0  0  0  0  0  0  0
   26.9564  -20.1577   -7.1206 N   0  0  0  0  0  0  0  0  0  0  0  0
   28.1862  -20.3822   -7.6203 C   0  0  0  0  0  0  0  0  0  0  0  0
   29.4610  -20.1124   -7.1618 C   0  0  0  0  0  0  0  0  0  0  0  0
   30.5791  -20.4521   -7.8777 C   0  0  0  0  0  0  0  0  0  0  0  0
   30.4227  -21.0801   -9.0881 C   0  0  0  0  0  0  0  0  0  0  0  0
   29.1599  -21.3565   -9.5604 C   0  0  0  0  0  0  0  0  0  0  0  0
   28.0296  -21.0119   -8.8340 C   0  0  0  0  0  0  0  0  0  0  0  0
   25.4150  -21.2193  -12.6275 C   0  0  0  0  0  0  0  0  0  0  0  0
   24.4121  -20.4529  -12.7826 O   0  0  0  0  0  0  0  0  0  0  0  0
   25.3997  -23.6357  -15.5268 C   0  0  0  0  0  0  0  0  0  0  0  0
   24.8086  -22.4581  -14.7543 C   0  0  2  0  0  0  0  0  0  0  0  0
   25.5888  -22.2364  -13.5744 N   0  0  0  0  0  0  0  0  0  0  0  0
   23.3820  -22.6463  -14.5189 C   0  0  0  0  0  0  0  0  0  0  0  0
   22.9943  -23.4013  -13.5951 O   0  0  0  0  0  0  0  0  0  0  0  0
   22.4439  -21.9735  -15.3378 N   0  0  0  0  0  0  0  0  0  0  0  0
   21.0087  -22.0491  -15.1452 C   0  0  1  0  0  0  0  0  0  0  0  0
   20.3444  -20.7208  -15.3777 C   0  0  0  0  0  0  0  0  0  0  0  0
   20.6956  -19.7378  -14.3390 C   0  0  0  0  0  0  0  0  0  0  0  0
   20.3618  -19.8299  -13.0001 C   0  0  0  0  0  0  0  0  0  0  0  0
   20.8473  -18.7541  -12.3401 N   0  0  0  0  0  0  0  0  0  0  0  0
   21.4825  -17.9876  -13.2514 C   0  0  0  0  0  0  0  0  0  0  0  0
   21.3845  -18.5932  -14.4600 N   0  0  0  0  0  0  0  0  0  0  0  0
   20.4687  -23.0134  -16.1291 C   0  0  0  0  0  0  0  0  0  0  0  0
   19.1740  -23.4951  -16.1474 O   0  0  0  0  0  0  0  0  0  0  0  0
   21.2268  -23.4500  -17.0356 O   0  0  0  0  0  0  0  0  0  0  0  0
  2  1  1  1
  2  3  1  0
  3  4  1  0
  4  5  2  0
  5  6  1  0
  7  6  1  0
  8  7  2  0
  9  8  1  0
 10 11  1  0
 10  9  2  0
 11 12  2  0
 12  4  1  0
 12  7  1  0
 13  2  1  0
 13 14  2  0
 16 15  1  1
 16 17  1  0
 17 13  1  0
 18 20  1  0
 18 16  1  0
 19 18  2  0
 21 20  1  0
 21 28  1  0
 21 22  1  6
 23 22  1  0
 23 24  2  0
 25 24  1  0
 26 27  2  0
 26 25  1  0
 27 23  1  0
 28 30  2  0
 28 29  1  0
M  END
$$$$
