WAH.pdb
     RDKit          3D

 30 32  0  0  1  0  0  0  0  0999 V2000
   26.8994  -21.9037  -13.9792 N   0  0  0  0  0  0  0  0  0  0  0  0
   25.9443  -21.2335  -13.1031 C   0  0  1  0  0  0  0  0  0  0  0  0
   26.4806  -19.9133  -12.6637 C   0  0  0  0  0  0  0  0  0  0  0  0
   27.4835  -20.1323  -11.5872 C   0  0  0  0  0  0  0  0  0  0  0  0
   28.8694  -20.2566  -11.7410 C   0  0  0  0  0  0  0  0  0  0  0  0
   29.4488  -20.4467  -10.5458 N   0  0  0  0  0  0  0  0  0  0  0  0
   28.4941  -20.4536   -9.5966 C   0  0  0  0  0  0  0  0  0  0  0  0
   28.5212  -20.6064   -8.2240 C   0  0  0  0  0  0  0  0  0  0  0  0
   27.3805  -20.5729   -7.4652 C   0  0  0  0  0  0  0  0  0  0  0  0
   26.1751  -20.3813   -8.0932 C   0  0  0  0  0  0  0  0  0  0  0  0
   26.1295  -20.2274   -9.4600 C   0  0  0  0  0  0  0  0  0  0  0  0
   27.2853  -20.2616  -10.2260 C   0  0  0  0  0  0  0  0  0  0  0  0
   24.6668  -21.1919  -13.8076 C   0  0  0  0  0  0  0  0  0  0  0  0
   24.6747  -20.6827  -14.9729 O   0  0  0  0  0  0  0  0  0  0  0  0
   21.1759  -22.4883  -13.3922 C   0  0  0  0  0  0  0  0  0  0  0  0
   22.1435  -21.4179  -13.8931 C   0  0  2  0  0  0  0  0  0  0  0  0
   23.4365  -21.6571  -13.3266 N   0  0  0  0  0  0  0  0  0  0  0  0
   21.6122  -20.0796  -13.6634 C   0  0  0  0  0  0  0  0  0  0  0  0
   22.2259  -19.2826  -12.9138 O   0  0  0  0  0  0  0  0  0  0  0  0
   20.4043  -19.6902  -14.2900 N   0  0  0  0  0  0  0  0  0  0  0  0
   19.9271  -18.3217  -14.3355 C   0  0  1  0  0  0  0  0  0  0  0  0
   20.8888  -17.4198  -15.0576 C   0  0  0  0  0  0  0  0  0  0  0  0
   20.4507  -16.0140  -15.0361 C   0  0  0  0  0  0  0  0  0  0  0  0
   19.3352  -15.5303  -14.3771 C   0  0  0  0  0  0  0  0  0  0  0  0
   19.2406  -14.1956  -14.5723 N   0  0  0  0  0  0  0  0  0  0  0  0
   20.2855  -13.8367  -15.3474 C   0  0  0  0  0  0  0  0  0  0  0  0
   21.0128  -14.9467  -15.6227 N   0  0  0  0  0  0  0  0  0  0  0  0
   18.6441  -18.3125  -15.0726 C   0  0  0  0  0  0  0  0  0  0  0  0
   17.5062  -17.6307  -14.6865 O   0  0  0  0  0  0  0  0  0  0  0  0
   18.5497  -18.9712  -16.1423 O   0  0  0  0  0  0  0  0  0  0  0  0
  2  1  1  6
  2  3  1  0
  3  4  1  0
  4  5  2  0
  5  6  1  0
  7  6  1  0
  8  7  2  0
  9  8  1  0
 10 11  1  0
 10  9  2  0
 11 12  2  0
 12  4  1  0
 12  7  1  0
 13  2  1  0
 13 14  2  0
 16 15  1  1
 16 17  1  0
 17 13  1  0
 18 20  1  0
 18 16  1  0
 19 18  2  0
 21 20  1  0
 21 28  1  0
 21 22  1  6
 23 22  1  0
 23 24  2  0
 25 24  1  0
 26 27  2  0
 26 25  1  0
 27 23  1  0
 28 30  2  0
 28 29  1  0
M  END
$$$$
