WAH.pdb
     RDKit          3D

 30 32  0  0  1  0  0  0  0  0999 V2000
   22.9447  -18.8712  -15.3301 N   0  0  0  0  0  0  0  0  0  0  0  0
   23.2804  -19.7271  -16.4630 C   0  0  1  0  0  0  0  0  0  0  0  0
   22.8387  -19.0955  -17.7397 C   0  0  0  0  0  0  0  0  0  0  0  0
   21.4088  -18.7044  -17.6168 C   0  0  0  0  0  0  0  0  0  0  0  0
   20.3210  -19.5545  -17.3848 C   0  0  0  0  0  0  0  0  0  0  0  0
   19.1844  -18.8429  -17.3368 N   0  0  0  0  0  0  0  0  0  0  0  0
   19.4774  -17.5431  -17.5295 C   0  0  0  0  0  0  0  0  0  0  0  0
   18.7116  -16.3944  -17.5778 C   0  0  0  0  0  0  0  0  0  0  0  0
   19.2650  -15.1592  -17.7928 C   0  0  0  0  0  0  0  0  0  0  0  0
   20.6235  -15.0651  -17.9650 C   0  0  0  0  0  0  0  0  0  0  0  0
   21.4018  -16.1993  -17.9200 C   0  0  0  0  0  0  0  0  0  0  0  0
   20.8395  -17.4485  -17.7022 C   0  0  0  0  0  0  0  0  0  0  0  0
   24.7052  -20.0293  -16.3693 C   0  0  0  0  0  0  0  0  0  0  0  0
   25.2408  -20.5728  -17.3866 O   0  0  0  0  0  0  0  0  0  0  0  0
   27.2617  -19.9990  -13.6024 C   0  0  0  0  0  0  0  0  0  0  0  0
   26.3048  -20.7386  -14.5353 C   0  0  2  0  0  0  0  0  0  0  0  0
   25.5376  -19.7794  -15.2711 N   0  0  0  0  0  0  0  0  0  0  0  0
   25.5160  -21.7244  -13.8059 C   0  0  0  0  0  0  0  0  0  0  0  0
   24.3774  -22.0472  -14.2222 O   0  0  0  0  0  0  0  0  0  0  0  0
   26.0433  -22.3102  -12.6303 N   0  0  0  0  0  0  0  0  0  0  0  0
   25.8779  -21.7436  -11.3059 C   0  0  1  0  0  0  0  0  0  0  0  0
   26.9033  -20.6817  -11.0219 C   0  0  0  0  0  0  0  0  0  0  0  0
   26.7803  -20.1459   -9.6557 C   0  0  0  0  0  0  0  0  0  0  0  0
   25.9035  -20.6037   -8.6891 C   0  0  0  0  0  0  0  0  0  0  0  0
   26.0650  -19.8822   -7.5569 N   0  0  0  0  0  0  0  0  0  0  0  0
   27.0343  -18.9760   -7.8031 C   0  0  0  0  0  0  0  0  0  0  0  0
   27.4611  -19.1446   -9.0784 N   0  0  0  0  0  0  0  0  0  0  0  0
   24.5378  -21.1191  -11.2434 C   0  0  0  0  0  0  0  0  0  0  0  0
   23.6849  -21.1659  -10.1576 O   0  0  0  0  0  0  0  0  0  0  0  0
   24.1113  -20.4871  -12.2463 O   0  0  0  0  0  0  0  0  0  0  0  0
  2  1  1  1
  2  3  1  0
  3  4  1  0
  4  5  2  0
  5  6  1  0
  7  6  1  0
  8  7  2  0
  9  8  1  0
 10 11  1  0
 10  9  2  0
 11 12  2  0
 12  4  1  0
 12  7  1  0
 13  2  1  0
 13 14  2  0
 16 15  1  1
 16 17  1  0
 17 13  1  0
 18 20  1  0
 18 16  1  0
 19 18  2  0
 21 20  1  0
 21 28  1  0
 21 22  1  6
 23 22  1  0
 23 24  2  0
 25 24  1  0
 26 27  2  0
 26 25  1  0
 27 23  1  0
 28 30  2  0
 28 29  1  0
M  END
$$$$
