WAH.pdb
     RDKit          3D

 30 32  0  0  1  0  0  0  0  0999 V2000
   27.5454  -19.9844  -16.8680 N   0  0  0  0  0  0  0  0  0  0  0  0
   26.8987  -19.4232  -15.6867 C   0  0  1  0  0  0  0  0  0  0  0  0
   25.5904  -18.8088  -16.0535 C   0  0  0  0  0  0  0  0  0  0  0  0
   25.8407  -17.5515  -16.8079 C   0  0  0  0  0  0  0  0  0  0  0  0
   25.9173  -17.4055  -18.1981 C   0  0  0  0  0  0  0  0  0  0  0  0
   26.1572  -16.1234  -18.5125 N   0  0  0  0  0  0  0  0  0  0  0  0
   26.2438  -15.4065  -17.3762 C   0  0  0  0  0  0  0  0  0  0  0  0
   26.4719  -14.0699  -17.1121 C   0  0  0  0  0  0  0  0  0  0  0  0
   26.5127  -13.5772  -15.8340 C   0  0  0  0  0  0  0  0  0  0  0  0
   26.3203  -14.4427  -14.7861 C   0  0  0  0  0  0  0  0  0  0  0  0
   26.0920  -15.7777  -15.0310 C   0  0  0  0  0  0  0  0  0  0  0  0
   26.0510  -16.2741  -16.3255 C   0  0  0  0  0  0  0  0  0  0  0  0
   26.8388  -20.4812  -14.6830 C   0  0  0  0  0  0  0  0  0  0  0  0
   26.6121  -21.6581  -15.1081 O   0  0  0  0  0  0  0  0  0  0  0  0
   26.8727  -20.6019  -10.9112 C   0  0  0  0  0  0  0  0  0  0  0  0
   26.5502  -21.2131  -12.2733 C   0  0  2  0  0  0  0  0  0  0  0  0
   27.0064  -20.3268  -13.3012 N   0  0  0  0  0  0  0  0  0  0  0  0
   25.1428  -21.5832  -12.3639 C   0  0  0  0  0  0  0  0  0  0  0  0
   24.7827  -22.7501  -12.0768 O   0  0  0  0  0  0  0  0  0  0  0  0
   24.1920  -20.6194  -12.7766 N   0  0  0  0  0  0  0  0  0  0  0  0
   22.7637  -20.8662  -12.8191 C   0  0  1  0  0  0  0  0  0  0  0  0
   21.9805  -19.5882  -12.9328 C   0  0  0  0  0  0  0  0  0  0  0  0
   20.5321  -19.8347  -13.0336 C   0  0  0  0  0  0  0  0  0  0  0  0
   19.9267  -21.0781  -13.0310 C   0  0  0  0  0  0  0  0  0  0  0  0
   18.5872  -20.9269  -13.1379 N   0  0  0  0  0  0  0  0  0  0  0  0
   18.3457  -19.6009  -13.2078 C   0  0  0  0  0  0  0  0  0  0  0  0
   19.5317  -18.9479  -13.1436 N   0  0  0  0  0  0  0  0  0  0  0  0
   22.4805  -21.6887  -14.0161 C   0  0  0  0  0  0  0  0  0  0  0  0
   21.4718  -22.6270  -14.1199 O   0  0  0  0  0  0  0  0  0  0  0  0
   23.2009  -21.5457  -15.0397 O   0  0  0  0  0  0  0  0  0  0  0  0
  2  1  1  6
  2  3  1  0
  3  4  1  0
  4  5  2  0
  5  6  1  0
  7  6  1  0
  8  7  2  0
  9  8  1  0
 10 11  1  0
 10  9  2  0
 11 12  2  0
 12  4  1  0
 12  7  1  0
 13  2  1  0
 13 14  2  0
 16 15  1  1
 16 17  1  0
 17 13  1  0
 18 20  1  0
 18 16  1  0
 19 18  2  0
 21 20  1  0
 21 28  1  0
 21 22  1  6
 23 22  1  0
 23 24  2  0
 25 24  1  0
 26 27  2  0
 26 25  1  0
 27 23  1  0
 28 30  2  0
 28 29  1  0
M  END
$$$$
