IMQ.pdb
     RDKit          3D

 26 25  0  0  1  0  0  0  0  0999 V2000
    7.2441  -12.0814   18.6672 C   0  0  0  0  0  0  0  0  0  0  0  0
    7.2763  -13.5302   19.0976 C   0  0  0  0  0  0  0  0  0  0  0  0
    8.0892  -13.6164   20.3720 C   0  0  2  0  0  0  0  0  0  0  0  0
    9.5160  -13.1340   20.1352 C   0  0  0  0  0  0  0  0  0  0  0  0
    8.1773  -15.0591   20.8356 C   0  0  2  0  0  0  0  0  0  0  0  0
    6.8627  -15.6456   20.7221 N   0  0  0  0  0  0  0  0  0  0  0  0
    8.6300  -15.0220   22.2646 C   0  0  0  0  0  0  0  0  0  0  0  0
    9.8216  -14.7533   22.5491 O   0  0  0  0  0  0  0  0  0  0  0  0
    6.5889  -10.8200   26.4802 C   0  0  0  0  0  0  0  0  0  0  0  0
    6.6402  -12.5822   26.8434 S   0  0  0  0  0  0  0  0  0  0  0  0
    6.3722  -13.5268   25.2912 C   0  0  0  0  0  0  0  0  0  0  0  0
    6.9344  -14.8879   25.5258 C   0  0  0  0  0  0  0  0  0  0  0  0
    8.1505  -15.2356   24.7410 C   0  0  2  0  0  0  0  0  0  0  0  0
    7.7422  -15.2853   23.3358 N   0  0  0  0  0  0  0  0  0  0  0  0
    8.7340  -16.5648   25.0623 C   0  0  0  0  0  0  0  0  0  0  0  0
    8.0359  -17.5659   24.7468 O   0  0  0  0  0  0  0  0  0  0  0  0
   13.9889  -21.2783   24.0806 N   0  0  0  0  0  0  0  0  0  0  0  0
   13.4052  -19.9529   24.0595 C   0  0  0  0  0  0  0  0  0  0  0  0
   13.9170  -19.1853   23.2208 O   0  0  0  0  0  0  0  0  0  0  0  0
   12.3133  -19.6636   24.9943 C   0  0  0  0  0  0  0  0  0  0  0  0
   11.6341  -18.3612   24.9043 C   0  0  0  0  0  0  0  0  0  0  0  0
   10.5358  -18.0639   25.8668 C   0  0  2  0  0  0  0  0  0  0  0  0
    9.9734  -16.7507   25.6749 N   0  0  0  0  0  0  0  0  0  0  0  0
   10.7725  -18.3982   27.2681 C   0  0  0  0  0  0  0  0  0  0  0  0
   11.0838  -19.6018   27.5857 O   0  0  0  0  0  0  0  0  0  0  0  0
   10.6820  -17.4873   28.2974 O   0  0  0  0  0  0  0  0  0  0  0  0
  1  2  1  0
  3  4  1  6
  3  2  1  0
  5  3  1  0
  5  6  1  1
  7  5  1  0
  8  7  2  0
  9 10  1  0
 10 11  1  0
 11 12  1  0
 13 12  1  1
 13 14  1  0
 14  7  1  0
 15 13  1  0
 15 16  2  0
 17 18  1  0
 18 19  2  0
 18 20  1  0
 20 21  1  0
 22 21  1  6
 22 23  1  0
 23 15  1  0
 24 22  1  0
 24 26  1  0
 25 24  2  0
M  END
$$$$
