IMQ.pdb
     RDKit          3D

 26 25  0  0  1  0  0  0  0  0999 V2000
    7.1685  -20.0616   19.1900 C   0  0  0  0  0  0  0  0  0  0  0  0
    6.7306  -18.6184   19.0871 C   0  0  0  0  0  0  0  0  0  0  0  0
    7.4486  -17.8387   20.1682 C   0  0  2  0  0  0  0  0  0  0  0  0
    7.1497  -18.4238   21.5439 C   0  0  0  0  0  0  0  0  0  0  0  0
    6.9639  -16.4003   20.1804 C   0  0  2  0  0  0  0  0  0  0  0  0
    7.1855  -15.8433   18.8667 N   0  0  0  0  0  0  0  0  0  0  0  0
    7.7790  -15.6833   21.2148 C   0  0  0  0  0  0  0  0  0  0  0  0
    8.9974  -15.4565   21.0216 O   0  0  0  0  0  0  0  0  0  0  0  0
    6.5522  -12.4313   28.0714 C   0  0  0  0  0  0  0  0  0  0  0  0
    5.9990  -12.4720   26.3590 S   0  0  0  0  0  0  0  0  0  0  0  0
    7.4403  -12.7908   25.2661 C   0  0  0  0  0  0  0  0  0  0  0  0
    6.9310  -13.6084   24.1277 C   0  0  0  0  0  0  0  0  0  0  0  0
    7.9461  -14.4204   23.4023 C   0  0  2  0  0  0  0  0  0  0  0  0
    7.2135  -15.2395   22.4347 N   0  0  0  0  0  0  0  0  0  0  0  0
    8.7141  -15.3602   24.2611 C   0  0  0  0  0  0  0  0  0  0  0  0
    8.0987  -16.3941   24.6370 O   0  0  0  0  0  0  0  0  0  0  0  0
   15.7407  -17.4161   24.4171 N   0  0  0  0  0  0  0  0  0  0  0  0
   14.5363  -17.0268   23.7130 C   0  0  0  0  0  0  0  0  0  0  0  0
   14.7366  -16.6081   22.5558 O   0  0  0  0  0  0  0  0  0  0  0  0
   13.2539  -17.1605   24.4111 C   0  0  0  0  0  0  0  0  0  0  0  0
   12.2137  -16.1465   24.1761 C   0  0  0  0  0  0  0  0  0  0  0  0
   10.9264  -16.2630   24.9179 C   0  0  2  0  0  0  0  0  0  0  0  0
   10.0365  -15.1595   24.6570 N   0  0  0  0  0  0  0  0  0  0  0  0
   11.0042  -16.6288   26.3292 C   0  0  0  0  0  0  0  0  0  0  0  0
   10.4906  -15.8516   27.2115 O   0  0  0  0  0  0  0  0  0  0  0  0
   11.6063  -17.7792   26.7890 O   0  0  0  0  0  0  0  0  0  0  0  0
  1  2  1  0
  3  4  1  1
  3  2  1  0
  5  3  1  0
  5  6  1  6
  7  5  1  0
  8  7  2  0
  9 10  1  0
 10 11  1  0
 11 12  1  0
 13 12  1  1
 13 14  1  0
 14  7  1  0
 15 13  1  0
 15 16  2  0
 17 18  1  0
 18 19  2  0
 18 20  1  0
 20 21  1  0
 22 21  1  1
 22 23  1  0
 23 15  1  0
 24 22  1  0
 24 26  1  0
 25 24  2  0
M  END
$$$$
