IMQ.pdb
     RDKit          3D

 26 25  0  0  1  0  0  0  0  0999 V2000
    8.2034  -18.2299   18.0740 C   0  0  0  0  0  0  0  0  0  0  0  0
    7.9049  -16.7693   18.3248 C   0  0  0  0  0  0  0  0  0  0  0  0
    8.2112  -16.4774   19.7785 C   0  0  2  0  0  0  0  0  0  0  0  0
    7.3527  -17.3422   20.6947 C   0  0  0  0  0  0  0  0  0  0  0  0
    7.8853  -15.0296   20.0976 C   0  0  2  0  0  0  0  0  0  0  0  0
    8.6203  -14.1934   19.1780 N   0  0  0  0  0  0  0  0  0  0  0  0
    8.3262  -14.7938   21.5113 C   0  0  0  0  0  0  0  0  0  0  0  0
    9.5454  -14.7814   21.8052 O   0  0  0  0  0  0  0  0  0  0  0  0
    7.6365  -11.6336   28.1773 C   0  0  0  0  0  0  0  0  0  0  0  0
    7.4400  -11.8706   26.4038 S   0  0  0  0  0  0  0  0  0  0  0  0
    6.7293  -13.5352   26.0919 C   0  0  0  0  0  0  0  0  0  0  0  0
    6.6337  -13.6800   24.6109 C   0  0  0  0  0  0  0  0  0  0  0  0
    7.7976  -14.3231   23.9417 C   0  0  2  0  0  0  0  0  0  0  0  0
    7.3961  -14.5785   22.5571 N   0  0  0  0  0  0  0  0  0  0  0  0
    8.1950  -15.6344   24.5189 C   0  0  0  0  0  0  0  0  0  0  0  0
    7.3270  -16.5471   24.4670 O   0  0  0  0  0  0  0  0  0  0  0  0
   12.1643  -19.6974   23.1633 N   0  0  0  0  0  0  0  0  0  0  0  0
   12.1657  -18.2724   22.9041 C   0  0  0  0  0  0  0  0  0  0  0  0
   12.8885  -17.9303   21.9474 O   0  0  0  0  0  0  0  0  0  0  0  0
   11.3468  -17.4127   23.7643 C   0  0  0  0  0  0  0  0  0  0  0  0
   10.5892  -18.0314   24.8638 C   0  0  0  0  0  0  0  0  0  0  0  0
    9.7367  -17.1584   25.7195 C   0  0  2  0  0  0  0  0  0  0  0  0
    9.4386  -15.8940   25.0950 N   0  0  0  0  0  0  0  0  0  0  0  0
   10.1087  -17.0410   27.1264 C   0  0  0  0  0  0  0  0  0  0  0  0
   10.1697  -15.8794   27.6680 O   0  0  0  0  0  0  0  0  0  0  0  0
   10.4059  -18.1186   27.9313 O   0  0  0  0  0  0  0  0  0  0  0  0
  1  2  1  0
  3  4  1  1
  3  2  1  0
  5  3  1  0
  5  6  1  6
  7  5  1  0
  8  7  2  0
  9 10  1  0
 10 11  1  0
 11 12  1  0
 13 12  1  1
 13 14  1  0
 14  7  1  0
 15 13  1  0
 15 16  2  0
 17 18  1  0
 18 19  2  0
 18 20  1  0
 20 21  1  0
 22 21  1  6
 22 23  1  0
 23 15  1  0
 24 22  1  0
 24 26  1  0
 25 24  2  0
M  END
$$$$
