IMQ.pdb
     RDKit          3D

 26 25  0  0  1  0  0  0  0  0999 V2000
    7.1586  -12.4738   18.1389 C   0  0  0  0  0  0  0  0  0  0  0  0
    7.2744  -13.8612   18.7281 C   0  0  0  0  0  0  0  0  0  0  0  0
    8.3276  -13.8160   19.8149 C   0  0  2  0  0  0  0  0  0  0  0  0
    9.7040  -13.5387   19.2208 C   0  0  0  0  0  0  0  0  0  0  0  0
    8.4074  -15.1594   20.5172 C   0  0  2  0  0  0  0  0  0  0  0  0
    7.0840  -15.7370   20.5277 N   0  0  0  0  0  0  0  0  0  0  0  0
    8.8873  -14.8851   21.9111 C   0  0  0  0  0  0  0  0  0  0  0  0
   10.1063  -14.6996   22.1406 O   0  0  0  0  0  0  0  0  0  0  0  0
    5.3510  -12.1923   27.9428 C   0  0  0  0  0  0  0  0  0  0  0  0
    6.8867  -12.0869   27.0097 S   0  0  0  0  0  0  0  0  0  0  0  0
    7.4362  -13.7802   26.5578 C   0  0  0  0  0  0  0  0  0  0  0  0
    7.3319  -13.8730   25.0732 C   0  0  0  0  0  0  0  0  0  0  0  0
    8.4388  -14.5923   24.3851 C   0  0  2  0  0  0  0  0  0  0  0  0
    7.9955  -14.8252   23.0092 N   0  0  0  0  0  0  0  0  0  0  0  0
    8.7611  -15.9250   24.9602 C   0  0  0  0  0  0  0  0  0  0  0  0
    7.8672  -16.8066   24.8472 O   0  0  0  0  0  0  0  0  0  0  0  0
   13.0287  -21.6276   24.9437 N   0  0  0  0  0  0  0  0  0  0  0  0
   12.8520  -20.1956   24.8167 C   0  0  0  0  0  0  0  0  0  0  0  0
   13.6357  -19.6562   24.0107 O   0  0  0  0  0  0  0  0  0  0  0  0
   11.8079  -19.5540   25.6215 C   0  0  0  0  0  0  0  0  0  0  0  0
   11.3399  -18.2144   25.2314 C   0  0  0  0  0  0  0  0  0  0  0  0
   10.2637  -17.5739   26.0392 C   0  0  2  0  0  0  0  0  0  0  0  0
    9.9629  -16.2355   25.5966 N   0  0  0  0  0  0  0  0  0  0  0  0
   10.3580  -17.7011   27.4905 C   0  0  0  0  0  0  0  0  0  0  0  0
   10.5451  -18.8587   28.0115 O   0  0  0  0  0  0  0  0  0  0  0  0
   10.2571  -16.6372   28.3596 O   0  0  0  0  0  0  0  0  0  0  0  0
  1  2  1  0
  3  4  1  6
  3  2  1  0
  5  3  1  0
  5  6  1  1
  7  5  1  0
  8  7  2  0
  9 10  1  0
 10 11  1  0
 11 12  1  0
 13 12  1  1
 13 14  1  0
 14  7  1  0
 15 13  1  0
 15 16  2  0
 17 18  1  0
 18 19  2  0
 18 20  1  0
 20 21  1  0
 22 21  1  6
 22 23  1  0
 23 15  1  0
 24 22  1  0
 24 26  1  0
 25 24  2  0
M  END
$$$$
