IMQ.pdb
     RDKit          3D

 26 25  0  0  1  0  0  0  0  0999 V2000
    7.7789  -16.6764   17.4139 C   0  0  0  0  0  0  0  0  0  0  0  0
    7.3346  -15.3689   18.0289 C   0  0  0  0  0  0  0  0  0  0  0  0
    7.9491  -15.2744   19.4095 C   0  0  2  0  0  0  0  0  0  0  0  0
    7.5637  -16.4830   20.2551 C   0  0  0  0  0  0  0  0  0  0  0  0
    7.4272  -14.0430   20.1273 C   0  0  2  0  0  0  0  0  0  0  0  0
    7.6981  -12.8935   19.2965 N   0  0  0  0  0  0  0  0  0  0  0  0
    8.1720  -13.9575   21.4260 C   0  0  0  0  0  0  0  0  0  0  0  0
    9.3987  -13.6970   21.4414 O   0  0  0  0  0  0  0  0  0  0  0  0
    5.6587  -12.5732   27.4489 C   0  0  0  0  0  0  0  0  0  0  0  0
    6.5992  -11.4424   26.4112 S   0  0  0  0  0  0  0  0  0  0  0  0
    6.7940  -12.1773   24.7393 C   0  0  0  0  0  0  0  0  0  0  0  0
    7.2560  -13.5796   24.9484 C   0  0  0  0  0  0  0  0  0  0  0  0
    8.2324  -14.1001   23.9526 C   0  0  2  0  0  0  0  0  0  0  0  0
    7.5287  -14.1648   22.6703 N   0  0  0  0  0  0  0  0  0  0  0  0
    8.7305  -15.4723   24.2349 C   0  0  0  0  0  0  0  0  0  0  0  0
    7.9695  -16.4176   23.8941 O   0  0  0  0  0  0  0  0  0  0  0  0
   14.0063  -17.2346   22.1543 N   0  0  0  0  0  0  0  0  0  0  0  0
   13.6117  -18.4493   22.8374 C   0  0  0  0  0  0  0  0  0  0  0  0
   14.3586  -19.4228   22.6158 O   0  0  0  0  0  0  0  0  0  0  0  0
   12.4173  -18.4078   23.6868 C   0  0  0  0  0  0  0  0  0  0  0  0
   11.6996  -17.1314   23.8327 C   0  0  0  0  0  0  0  0  0  0  0  0
   10.5485  -17.0666   24.7770 C   0  0  2  0  0  0  0  0  0  0  0  0
    9.9566  -15.7537   24.8376 N   0  0  0  0  0  0  0  0  0  0  0  0
   10.7284  -17.6865   26.0866 C   0  0  0  0  0  0  0  0  0  0  0  0
   10.4880  -17.0039   27.1461 O   0  0  0  0  0  0  0  0  0  0  0  0
   11.1491  -18.9858   26.2663 O   0  0  0  0  0  0  0  0  0  0  0  0
  1  2  1  0
  3  4  1  1
  3  2  1  0
  5  3  1  0
  5  6  1  6
  7  5  1  0
  8  7  2  0
  9 10  1  0
 10 11  1  0
 11 12  1  0
 13 12  1  1
 13 14  1  0
 14  7  1  0
 15 13  1  0
 15 16  2  0
 17 18  1  0
 18 19  2  0
 18 20  1  0
 20 21  1  0
 22 21  1  1
 22 23  1  0
 23 15  1  0
 24 22  1  0
 24 26  1  0
 25 24  2  0
M  END
$$$$
