IMQ.pdb
     RDKit          3D

 26 25  0  0  1  0  0  0  0  0999 V2000
    5.0855  -18.2997   18.8942 C   0  0  0  0  0  0  0  0  0  0  0  0
    5.9887  -18.6638   20.0504 C   0  0  0  0  0  0  0  0  0  0  0  0
    6.9869  -17.5396   20.2297 C   0  0  2  0  0  0  0  0  0  0  0  0
    7.8481  -17.3791   18.9819 C   0  0  0  0  0  0  0  0  0  0  0  0
    7.9244  -17.8559   21.3809 C   0  0  2  0  0  0  0  0  0  0  0  0
    7.2851  -18.8427   22.2190 N   0  0  0  0  0  0  0  0  0  0  0  0
    8.1357  -16.5714   22.1252 C   0  0  0  0  0  0  0  0  0  0  0  0
    8.8133  -15.6453   21.6188 O   0  0  0  0  0  0  0  0  0  0  0  0
    6.6475  -11.2809   25.5332 C   0  0  0  0  0  0  0  0  0  0  0  0
    5.7953  -12.8037   25.9747 S   0  0  0  0  0  0  0  0  0  0  0  0
    7.0372  -14.1021   26.3559 C   0  0  0  0  0  0  0  0  0  0  0  0
    6.8602  -15.1670   25.3272 C   0  0  0  0  0  0  0  0  0  0  0  0
    7.8027  -15.1250   24.1758 C   0  0  2  0  0  0  0  0  0  0  0  0
    7.5862  -16.3553   23.4121 N   0  0  0  0  0  0  0  0  0  0  0  0
    9.2403  -15.1062   24.5546 C   0  0  0  0  0  0  0  0  0  0  0  0
    9.6213  -14.1117   25.2290 O   0  0  0  0  0  0  0  0  0  0  0  0
    8.9568  -19.1736   27.8912 N   0  0  0  0  0  0  0  0  0  0  0  0
   10.3312  -18.8763   28.2386 C   0  0  0  0  0  0  0  0  0  0  0  0
   10.7757  -19.5581   29.1831 O   0  0  0  0  0  0  0  0  0  0  0  0
   11.0296  -17.8408   27.4707 C   0  0  0  0  0  0  0  0  0  0  0  0
   10.2897  -17.1203   26.4224 C   0  0  0  0  0  0  0  0  0  0  0  0
   11.0214  -16.7070   25.1916 C   0  0  2  0  0  0  0  0  0  0  0  0
   10.1557  -16.1012   24.2112 N   0  0  0  0  0  0  0  0  0  0  0  0
   11.9624  -17.6684   24.6244 C   0  0  0  0  0  0  0  0  0  0  0  0
   13.2188  -17.5253   24.8422 O   0  0  0  0  0  0  0  0  0  0  0  0
   11.5840  -18.7447   23.8523 O   0  0  0  0  0  0  0  0  0  0  0  0
  1  2  1  0
  3  4  1  6
  3  2  1  0
  5  3  1  0
  5  6  1  1
  7  5  1  0
  8  7  2  0
  9 10  1  0
 10 11  1  0
 11 12  1  0
 13 12  1  1
 13 14  1  0
 14  7  1  0
 15 13  1  0
 15 16  2  0
 17 18  1  0
 18 19  2  0
 18 20  1  0
 20 21  1  0
 22 21  1  1
 22 23  1  0
 23 15  1  0
 24 22  1  0
 24 26  1  0
 25 24  2  0
M  END
$$$$
