IMQ.pdb
     RDKit          3D

 26 25  0  0  1  0  0  0  0  0999 V2000
    7.0508  -11.9379   28.1139 C   0  0  0  0  0  0  0  0  0  0  0  0
    6.1779  -12.9255   27.3735 C   0  0  0  0  0  0  0  0  0  0  0  0
    7.0593  -13.6892   26.4080 C   0  0  2  0  0  0  0  0  0  0  0  0
    7.7706  -12.7340   25.4561 C   0  0  0  0  0  0  0  0  0  0  0  0
    6.2138  -14.6194   25.5572 C   0  0  2  0  0  0  0  0  0  0  0  0
    5.6764  -15.6467   26.4179 N   0  0  0  0  0  0  0  0  0  0  0  0
    7.1300  -15.2053   24.5248 C   0  0  0  0  0  0  0  0  0  0  0  0
    7.7640  -16.2614   24.7610 O   0  0  0  0  0  0  0  0  0  0  0  0
    6.8854  -13.4123   18.1827 C   0  0  0  0  0  0  0  0  0  0  0  0
    8.6329  -13.3202   18.6046 S   0  0  0  0  0  0  0  0  0  0  0  0
    9.0054  -14.5582   19.9092 C   0  0  0  0  0  0  0  0  0  0  0  0
    8.1489  -14.2065   21.0782 C   0  0  0  0  0  0  0  0  0  0  0  0
    8.2302  -15.1255   22.2464 C   0  0  2  0  0  0  0  0  0  0  0  0
    7.3136  -14.5980   23.2590 N   0  0  0  0  0  0  0  0  0  0  0  0
    9.5719  -15.1984   22.8829 C   0  0  0  0  0  0  0  0  0  0  0  0
   10.0096  -14.1234   23.3747 O   0  0  0  0  0  0  0  0  0  0  0  0
   10.9978  -17.2747   27.6557 N   0  0  0  0  0  0  0  0  0  0  0  0
   10.7759  -18.3302   26.6890 C   0  0  0  0  0  0  0  0  0  0  0  0
   10.2604  -19.3591   27.1689 O   0  0  0  0  0  0  0  0  0  0  0  0
   11.1679  -18.0864   25.2974 C   0  0  0  0  0  0  0  0  0  0  0  0
   11.7083  -16.7658   24.9378 C   0  0  0  0  0  0  0  0  0  0  0  0
   11.6758  -16.3495   23.5071 C   0  0  2  0  0  0  0  0  0  0  0  0
   10.3426  -16.3586   22.9592 N   0  0  0  0  0  0  0  0  0  0  0  0
   12.6748  -16.9398   22.6212 C   0  0  0  0  0  0  0  0  0  0  0  0
   12.3009  -17.4751   21.5166 O   0  0  0  0  0  0  0  0  0  0  0  0
   14.0242  -16.9620   22.8972 O   0  0  0  0  0  0  0  0  0  0  0  0
  1  2  1  0
  3  4  1  6
  3  2  1  0
  5  3  1  0
  5  6  1  1
  7  5  1  0
  8  7  2  0
  9 10  1  0
 10 11  1  0
 11 12  1  0
 13 12  1  6
 13 14  1  0
 14  7  1  0
 15 13  1  0
 15 16  2  0
 17 18  1  0
 18 19  2  0
 18 20  1  0
 20 21  1  0
 22 21  1  1
 22 23  1  0
 23 15  1  0
 24 22  1  0
 24 26  1  0
 25 24  2  0
M  END
$$$$
