IMQ.pdb
     RDKit          3D

 26 25  0  0  1  0  0  0  0  0999 V2000
    7.3872  -16.7503   17.3287 C   0  0  0  0  0  0  0  0  0  0  0  0
    7.2714  -15.3396   17.8595 C   0  0  0  0  0  0  0  0  0  0  0  0
    7.7480  -15.3454   19.2966 C   0  0  2  0  0  0  0  0  0  0  0  0
    6.9983  -16.3950   20.1092 C   0  0  0  0  0  0  0  0  0  0  0  0
    7.4701  -13.9996   19.9416 C   0  0  2  0  0  0  0  0  0  0  0  0
    8.0867  -12.9786   19.1277 N   0  0  0  0  0  0  0  0  0  0  0  0
    8.0859  -14.0452   21.3080 C   0  0  0  0  0  0  0  0  0  0  0  0
    9.3289  -14.1421   21.4441 O   0  0  0  0  0  0  0  0  0  0  0  0
    6.5579  -10.4614   26.7031 C   0  0  0  0  0  0  0  0  0  0  0  0
    6.0663  -12.1701   26.9836 S   0  0  0  0  0  0  0  0  0  0  0  0
    7.2761  -13.2878   26.1706 C   0  0  0  0  0  0  0  0  0  0  0  0
    6.9356  -13.2900   24.7188 C   0  0  0  0  0  0  0  0  0  0  0  0
    7.8718  -14.0315   23.8303 C   0  0  2  0  0  0  0  0  0  0  0  0
    7.2992  -13.9816   22.4836 N   0  0  0  0  0  0  0  0  0  0  0  0
    8.0373  -15.4696   24.1698 C   0  0  0  0  0  0  0  0  0  0  0  0
    7.3801  -16.2829   23.4659 O   0  0  0  0  0  0  0  0  0  0  0  0
   13.2472  -17.8540   21.4713 N   0  0  0  0  0  0  0  0  0  0  0  0
   11.9428  -18.1356   22.0346 C   0  0  0  0  0  0  0  0  0  0  0  0
   11.1585  -18.6976   21.2448 O   0  0  0  0  0  0  0  0  0  0  0  0
   11.6909  -17.7431   23.4246 C   0  0  0  0  0  0  0  0  0  0  0  0
   10.5774  -16.8233   23.7071 C   0  0  0  0  0  0  0  0  0  0  0  0
    9.8119  -17.0011   24.9734 C   0  0  2  0  0  0  0  0  0  0  0  0
    8.8560  -15.9451   25.1942 N   0  0  0  0  0  0  0  0  0  0  0  0
   10.5752  -17.3560   26.1663 C   0  0  0  0  0  0  0  0  0  0  0  0
   11.0043  -16.4269   26.9402 O   0  0  0  0  0  0  0  0  0  0  0  0
   10.8733  -18.6519   26.5260 O   0  0  0  0  0  0  0  0  0  0  0  0
  1  2  1  0
  3  4  1  1
  3  2  1  0
  5  3  1  0
  5  6  1  6
  7  5  1  0
  8  7  2  0
  9 10  1  0
 10 11  1  0
 11 12  1  0
 13 12  1  1
 13 14  1  0
 14  7  1  0
 15 13  1  0
 15 16  2  0
 17 18  1  0
 18 19  2  0
 18 20  1  0
 20 21  1  0
 22 21  1  6
 22 23  1  0
 23 15  1  0
 24 22  1  0
 24 26  1  0
 25 24  2  0
M  END
$$$$
