IMQ.pdb
     RDKit          3D

 26 25  0  0  1  0  0  0  0  0999 V2000
    8.0476  -16.7379   17.5743 C   0  0  0  0  0  0  0  0  0  0  0  0
    7.5838  -15.4043   18.1143 C   0  0  0  0  0  0  0  0  0  0  0  0
    8.0884  -15.2799   19.5364 C   0  0  2  0  0  0  0  0  0  0  0  0
    7.6954  -16.5033   20.3569 C   0  0  0  0  0  0  0  0  0  0  0  0
    7.4595  -14.0721   20.2071 C   0  0  2  0  0  0  0  0  0  0  0  0
    7.7768  -12.9065   19.4161 N   0  0  0  0  0  0  0  0  0  0  0  0
    8.0674  -13.9779   21.5746 C   0  0  0  0  0  0  0  0  0  0  0  0
    9.2823  -13.6996   21.7143 O   0  0  0  0  0  0  0  0  0  0  0  0
    6.9045  -10.7272   26.4445 C   0  0  0  0  0  0  0  0  0  0  0  0
    6.1448  -12.2174   27.1093 S   0  0  0  0  0  0  0  0  0  0  0  0
    7.0264  -13.6891   26.4531 C   0  0  0  0  0  0  0  0  0  0  0  0
    6.7135  -13.7508   24.9964 C   0  0  0  0  0  0  0  0  0  0  0  0
    7.8577  -14.0603   24.0959 C   0  0  2  0  0  0  0  0  0  0  0  0
    7.3044  -14.1964   22.7472 N   0  0  0  0  0  0  0  0  0  0  0  0
    8.5560  -15.3371   24.4007 C   0  0  0  0  0  0  0  0  0  0  0  0
    7.9860  -16.3879   24.0010 O   0  0  0  0  0  0  0  0  0  0  0  0
   13.7473  -17.3816   22.3423 N   0  0  0  0  0  0  0  0  0  0  0  0
   13.8196  -17.9279   23.6818 C   0  0  0  0  0  0  0  0  0  0  0  0
   14.9347  -18.4000   23.9789 O   0  0  0  0  0  0  0  0  0  0  0  0
   12.6161  -17.8710   24.5173 C   0  0  0  0  0  0  0  0  0  0  0  0
   11.7313  -16.7009   24.4011 C   0  0  0  0  0  0  0  0  0  0  0  0
   10.4804  -16.6719   25.2106 C   0  0  2  0  0  0  0  0  0  0  0  0
    9.7690  -15.4246   25.0839 N   0  0  0  0  0  0  0  0  0  0  0  0
   10.5676  -17.1568   26.5849 C   0  0  0  0  0  0  0  0  0  0  0  0
    9.9425  -18.2270   26.9172 O   0  0  0  0  0  0  0  0  0  0  0  0
   11.2928  -16.5283   27.5731 O   0  0  0  0  0  0  0  0  0  0  0  0
  1  2  1  0
  3  4  1  1
  3  2  1  0
  5  3  1  0
  5  6  1  6
  7  5  1  0
  8  7  2  0
  9 10  1  0
 10 11  1  0
 11 12  1  0
 13 12  1  1
 13 14  1  0
 14  7  1  0
 15 13  1  0
 15 16  2  0
 17 18  1  0
 18 19  2  0
 18 20  1  0
 20 21  1  0
 22 21  1  1
 22 23  1  0
 23 15  1  0
 24 22  1  0
 24 26  1  0
 25 24  2  0
M  END
$$$$
