IMQ.pdb
     RDKit          3D

 26 25  0  0  1  0  0  0  0  0999 V2000
    8.8534  -19.3307   18.8053 C   0  0  0  0  0  0  0  0  0  0  0  0
    8.7773  -17.8234   18.8933 C   0  0  0  0  0  0  0  0  0  0  0  0
    8.9233  -17.4370   20.3499 C   0  0  2  0  0  0  0  0  0  0  0  0
    7.8840  -18.1535   21.2048 C   0  0  0  0  0  0  0  0  0  0  0  0
    8.6885  -15.9467   20.5182 C   0  0  2  0  0  0  0  0  0  0  0  0
    9.5718  -15.2506   19.6125 N   0  0  0  0  0  0  0  0  0  0  0  0
    9.0133  -15.6213   21.9454 C   0  0  0  0  0  0  0  0  0  0  0  0
   10.1852  -15.7419   22.3759 O   0  0  0  0  0  0  0  0  0  0  0  0
    7.4859  -11.0178   26.1768 C   0  0  0  0  0  0  0  0  0  0  0  0
    6.3002  -12.3283   26.5186 S   0  0  0  0  0  0  0  0  0  0  0  0
    7.1161  -13.9571   26.2844 C   0  0  0  0  0  0  0  0  0  0  0  0
    7.1005  -14.2272   24.8179 C   0  0  0  0  0  0  0  0  0  0  0  0
    8.2900  -14.9371   24.2727 C   0  0  2  0  0  0  0  0  0  0  0  0
    8.0235  -15.1708   22.8521 N   0  0  0  0  0  0  0  0  0  0  0  0
    8.5481  -16.2683   24.8824 C   0  0  0  0  0  0  0  0  0  0  0  0
    8.3047  -17.2670   24.1528 O   0  0  0  0  0  0  0  0  0  0  0  0
   13.2631  -16.8081   23.4173 N   0  0  0  0  0  0  0  0  0  0  0  0
   12.5743  -18.0799   23.4946 C   0  0  0  0  0  0  0  0  0  0  0  0
   12.9786  -18.9278   22.6746 O   0  0  0  0  0  0  0  0  0  0  0  0
   11.5111  -18.2305   24.4929 C   0  0  0  0  0  0  0  0  0  0  0  0
   11.2518  -17.1180   25.4206 C   0  0  0  0  0  0  0  0  0  0  0  0
   10.1825  -17.2812   26.4457 C   0  0  2  0  0  0  0  0  0  0  0  0
    9.0298  -16.4583   26.1777 N   0  0  0  0  0  0  0  0  0  0  0  0
   10.5970  -17.2667   27.8455 C   0  0  0  0  0  0  0  0  0  0  0  0
   11.5324  -18.0541   28.2347 O   0  0  0  0  0  0  0  0  0  0  0  0
   10.0385  -16.4454   28.8000 O   0  0  0  0  0  0  0  0  0  0  0  0
  1  2  1  0
  3  4  1  1
  3  2  1  0
  5  3  1  0
  5  6  1  6
  7  5  1  0
  8  7  2  0
  9 10  1  0
 10 11  1  0
 11 12  1  0
 13 12  1  1
 13 14  1  0
 14  7  1  0
 15 13  1  0
 15 16  2  0
 17 18  1  0
 18 19  2  0
 18 20  1  0
 20 21  1  0
 22 21  1  6
 22 23  1  0
 23 15  1  0
 24 22  1  0
 24 26  1  0
 25 24  2  0
M  END
$$$$
