IMQ.pdb
     RDKit          3D

 26 25  0  0  1  0  0  0  0  0999 V2000
    7.6811  -12.6536   18.3461 C   0  0  0  0  0  0  0  0  0  0  0  0
    8.1327  -14.0960   18.3736 C   0  0  0  0  0  0  0  0  0  0  0  0
    8.2281  -14.5234   19.8229 C   0  0  2  0  0  0  0  0  0  0  0  0
    6.8429  -14.5990   20.4552 C   0  0  0  0  0  0  0  0  0  0  0  0
    9.0246  -13.5020   20.6145 C   0  0  2  0  0  0  0  0  0  0  0  0
   10.3359  -13.3993   20.0187 N   0  0  0  0  0  0  0  0  0  0  0  0
    9.1092  -14.0212   22.0188 C   0  0  0  0  0  0  0  0  0  0  0  0
   10.0361  -14.7953   22.3575 O   0  0  0  0  0  0  0  0  0  0  0  0
    6.6325  -10.5052   26.9354 C   0  0  0  0  0  0  0  0  0  0  0  0
    6.0617  -12.1734   27.2977 S   0  0  0  0  0  0  0  0  0  0  0  0
    7.2782  -13.3836   26.6427 C   0  0  0  0  0  0  0  0  0  0  0  0
    7.3176  -13.1817   25.1658 C   0  0  0  0  0  0  0  0  0  0  0  0
    8.3134  -14.0005   24.4217 C   0  0  2  0  0  0  0  0  0  0  0  0
    8.1588  -13.6630   23.0054 N   0  0  0  0  0  0  0  0  0  0  0  0
    8.1129  -15.4695   24.5340 C   0  0  0  0  0  0  0  0  0  0  0  0
    7.3338  -15.9871   23.6890 O   0  0  0  0  0  0  0  0  0  0  0  0
    9.7138  -18.9618   21.7461 N   0  0  0  0  0  0  0  0  0  0  0  0
   10.8897  -19.2229   22.5506 C   0  0  0  0  0  0  0  0  0  0  0  0
   11.4164  -20.3325   22.3361 O   0  0  0  0  0  0  0  0  0  0  0  0
   11.3208  -18.1916   23.4994 C   0  0  0  0  0  0  0  0  0  0  0  0
   10.3516  -17.1646   23.9136 C   0  0  0  0  0  0  0  0  0  0  0  0
    9.5303  -17.4122   25.1322 C   0  0  2  0  0  0  0  0  0  0  0  0
    8.7240  -16.2739   25.4958 N   0  0  0  0  0  0  0  0  0  0  0  0
   10.1997  -18.0396   26.2678 C   0  0  0  0  0  0  0  0  0  0  0  0
   10.5402  -19.2746   26.1958 O   0  0  0  0  0  0  0  0  0  0  0  0
   10.4977  -17.3799   27.4398 O   0  0  0  0  0  0  0  0  0  0  0  0
  1  2  1  0
  3  4  1  1
  3  2  1  0
  5  3  1  0
  5  6  1  6
  7  5  1  0
  8  7  2  0
  9 10  1  0
 10 11  1  0
 11 12  1  0
 13 12  1  1
 13 14  1  0
 14  7  1  0
 15 13  1  0
 15 16  2  0
 17 18  1  0
 18 19  2  0
 18 20  1  0
 20 21  1  0
 22 21  1  6
 22 23  1  0
 23 15  1  0
 24 22  1  0
 24 26  1  0
 25 24  2  0
M  END
$$$$
