IMQ.pdb
     RDKit          3D

 26 25  0  0  1  0  0  0  0  0999 V2000
    7.8315  -21.6582   22.2764 C   0  0  0  0  0  0  0  0  0  0  0  0
    6.9906  -20.4826   21.8336 C   0  0  0  0  0  0  0  0  0  0  0  0
    7.6448  -19.2220   22.3581 C   0  0  2  0  0  0  0  0  0  0  0  0
    7.7571  -19.2648   23.8779 C   0  0  0  0  0  0  0  0  0  0  0  0
    6.7975  -18.0123   22.0073 C   0  0  2  0  0  0  0  0  0  0  0  0
    6.5980  -18.0065   20.5772 N   0  0  0  0  0  0  0  0  0  0  0  0
    7.5711  -16.8061   22.4490 C   0  0  0  0  0  0  0  0  0  0  0  0
    8.5079  -16.3570   21.7462 O   0  0  0  0  0  0  0  0  0  0  0  0
    6.3402  -11.8308   27.9941 C   0  0  0  0  0  0  0  0  0  0  0  0
    5.9844  -12.0546   26.2439 S   0  0  0  0  0  0  0  0  0  0  0  0
    7.4344  -12.8319   25.4273 C   0  0  0  0  0  0  0  0  0  0  0  0
    6.9303  -14.0703   24.7671 C   0  0  0  0  0  0  0  0  0  0  0  0
    7.9514  -14.9005   24.0714 C   0  0  2  0  0  0  0  0  0  0  0  0
    7.2789  -16.1346   23.6609 N   0  0  0  0  0  0  0  0  0  0  0  0
    9.1023  -15.3050   24.9214 C   0  0  0  0  0  0  0  0  0  0  0  0
    8.9352  -15.1968   26.1661 O   0  0  0  0  0  0  0  0  0  0  0  0
    9.0534  -18.9955   28.0711 N   0  0  0  0  0  0  0  0  0  0  0  0
   10.4220  -19.3678   27.7774 C   0  0  0  0  0  0  0  0  0  0  0  0
   10.9403  -20.1141   28.6311 O   0  0  0  0  0  0  0  0  0  0  0  0
   11.0322  -18.8454   26.5509 C   0  0  0  0  0  0  0  0  0  0  0  0
   10.3257  -17.7918   25.8048 C   0  0  0  0  0  0  0  0  0  0  0  0
   11.1292  -16.7088   25.1705 C   0  0  2  0  0  0  0  0  0  0  0  0
   10.3156  -15.7816   24.4248 N   0  0  0  0  0  0  0  0  0  0  0  0
   12.3477  -17.1081   24.4724 C   0  0  0  0  0  0  0  0  0  0  0  0
   13.1995  -17.8593   25.0695 O   0  0  0  0  0  0  0  0  0  0  0  0
   12.6525  -16.7237   23.1852 O   0  0  0  0  0  0  0  0  0  0  0  0
  1  2  1  0
  3  4  1  1
  3  2  1  0
  5  3  1  0
  5  6  1  6
  7  5  1  0
  8  7  2  0
  9 10  1  0
 10 11  1  0
 11 12  1  0
 13 12  1  1
 13 14  1  0
 14  7  1  0
 15 13  1  0
 15 16  2  0
 17 18  1  0
 18 19  2  0
 18 20  1  0
 20 21  1  0
 22 21  1  6
 22 23  1  0
 23 15  1  0
 24 22  1  0
 24 26  1  0
 25 24  2  0
M  END
$$$$
