APQ.pdb
     RDKit          3D

 22 22  0  0  1  0  0  0  0  0999 V2000
   17.3922  -11.7288  -15.8594 C   0  0  0  0  0  0  0  0  0  0  0  0
   18.3521  -10.8677  -16.6663 C   0  0  2  0  0  0  0  0  0  0  0  0
   19.0788  -11.6075  -17.6316 N   0  0  0  0  0  0  0  0  0  0  0  0
   19.1798  -10.0141  -15.7821 C   0  0  0  0  0  0  0  0  0  0  0  0
   18.4677   -9.3457  -14.9378 O   0  0  0  0  0  0  0  0  0  0  0  0
   20.5717   -9.8945  -15.7997 N   0  0  0  0  0  0  0  0  0  0  0  0
   21.6300  -10.8647  -16.0533 C   0  0  0  0  0  0  0  0  0  0  0  0
   22.4680  -10.0778  -17.0620 C   0  0  0  0  0  0  0  0  0  0  0  0
   22.0536   -8.5978  -16.8923 C   0  0  0  0  0  0  0  0  0  0  0  0
   21.3492   -8.6958  -15.5695 C   0  0  1  0  0  0  0  0  0  0  0  0
   20.7091   -7.5262  -15.0461 C   0  0  0  0  0  0  0  0  0  0  0  0
   19.5094   -7.1755  -15.3196 O   0  0  0  0  0  0  0  0  0  0  0  0
   17.7396   -5.3314  -10.7972 N   0  0  0  0  0  0  0  0  0  0  0  0
   18.7661   -6.2698  -10.5917 C   0  0  0  0  0  0  0  0  0  0  0  0
   18.8211   -6.8951   -9.5052 O   0  0  0  0  0  0  0  0  0  0  0  0
   19.8010   -6.5565  -11.6182 C   0  0  0  0  0  0  0  0  0  0  0  0
   19.5565   -5.7350  -12.8433 C   0  0  0  0  0  0  0  0  0  0  0  0
   20.7717   -5.4205  -13.6503 C   0  0  2  0  0  0  0  0  0  0  0  0
   21.4054   -6.6491  -14.1624 N   0  0  0  0  0  0  0  0  0  0  0  0
   21.7780   -4.5905  -12.9502 C   0  0  0  0  0  0  0  0  0  0  0  0
   21.5446   -3.2777  -12.5949 O   0  0  0  0  0  0  0  0  0  0  0  0
   22.9247   -5.0501  -12.6368 O   0  0  0  0  0  0  0  0  0  0  0  0
  2  1  1  1
  2  3  1  0
  4  2  1  0
  5  4  2  0
  6  4  1  0
  6  7  1  0
  8  7  1  0
  9 10  1  0
  9  8  1  0
 10  6  1  0
 10 11  1  6
 11 19  1  0
 12 11  2  0
 14 16  1  0
 14 13  1  0
 15 14  2  0
 17 16  1  0
 18 20  1  0
 18 17  1  1
 19 18  1  0
 20 21  1  0
 22 20  2  0
M  END
$$$$
