APQ.pdb
     RDKit          3D

 22 22  0  0  1  0  0  0  0  0999 V2000
   26.6749  -13.2324  -20.1770 C   0  0  0  0  0  0  0  0  0  0  0  0
   26.3061  -13.6967  -18.7762 C   0  0  2  0  0  0  0  0  0  0  0  0
   25.4954  -14.8586  -18.7755 N   0  0  0  0  0  0  0  0  0  0  0  0
   25.7887  -12.5748  -17.9581 C   0  0  0  0  0  0  0  0  0  0  0  0
   24.6607  -12.1260  -18.3974 O   0  0  0  0  0  0  0  0  0  0  0  0
   26.3932  -12.0144  -16.8300 N   0  0  0  0  0  0  0  0  0  0  0  0
   27.1964  -12.5993  -15.7631 C   0  0  0  0  0  0  0  0  0  0  0  0
   28.3647  -11.6126  -15.7462 C   0  0  0  0  0  0  0  0  0  0  0  0
   27.8536  -10.3405  -16.4613 C   0  0  0  0  0  0  0  0  0  0  0  0
   26.3791  -10.6236  -16.4305 C   0  0  1  0  0  0  0  0  0  0  0  0
   25.4920   -9.7082  -17.0838 C   0  0  0  0  0  0  0  0  0  0  0  0
   25.5404   -9.4196  -18.3293 O   0  0  0  0  0  0  0  0  0  0  0  0
   20.5134  -10.1464  -19.1600 N   0  0  0  0  0  0  0  0  0  0  0  0
   20.4813   -8.7409  -19.1634 C   0  0  0  0  0  0  0  0  0  0  0  0
   19.5776   -8.1467  -19.7997 O   0  0  0  0  0  0  0  0  0  0  0  0
   21.4833   -7.9190  -18.4373 C   0  0  0  0  0  0  0  0  0  0  0  0
   22.4727   -8.8011  -17.7454 C   0  0  0  0  0  0  0  0  0  0  0  0
   23.5561   -8.0856  -17.0097 C   0  0  2  0  0  0  0  0  0  0  0  0
   24.4706   -9.0350  -16.3499 N   0  0  0  0  0  0  0  0  0  0  0  0
   23.0775   -7.0851  -16.0290 C   0  0  0  0  0  0  0  0  0  0  0  0
   22.6965   -5.8093  -16.3913 O   0  0  0  0  0  0  0  0  0  0  0  0
   22.9924   -7.3529  -14.7859 O   0  0  0  0  0  0  0  0  0  0  0  0
  2  1  1  6
  2  3  1  0
  4  2  1  0
  5  4  2  0
  6  4  1  0
  6  7  1  0
  8  7  1  0
  9 10  1  0
  9  8  1  0
 10  6  1  0
 10 11  1  6
 11 19  1  0
 12 11  2  0
 14 16  1  0
 14 13  1  0
 15 14  2  0
 17 16  1  0
 18 20  1  0
 18 17  1  1
 19 18  1  0
 20 21  1  0
 22 20  2  0
M  END
$$$$
