APQ.pdb
     RDKit          3D

 22 22  0  0  1  0  0  0  0  0999 V2000
   16.0368  -28.5900   -2.5057 C   0  0  0  0  0  0  0  0  0  0  0  0
   17.0139  -27.5770   -3.0828 C   0  0  2  0  0  0  0  0  0  0  0  0
   18.3685  -27.9352   -2.8724 N   0  0  0  0  0  0  0  0  0  0  0  0
   16.6624  -26.1978   -2.6710 C   0  0  0  0  0  0  0  0  0  0  0  0
   16.7874  -26.0182   -1.3986 O   0  0  0  0  0  0  0  0  0  0  0  0
   16.2382  -25.1591   -3.5037 N   0  0  0  0  0  0  0  0  0  0  0  0
   16.5503  -24.8322   -4.8898 C   0  0  0  0  0  0  0  0  0  0  0  0
   15.1365  -24.6117   -5.4297 C   0  0  0  0  0  0  0  0  0  0  0  0
   14.2439  -24.3705   -4.1904 C   0  0  0  0  0  0  0  0  0  0  0  0
   15.3142  -24.0956   -3.1734 C   0  0  1  0  0  0  0  0  0  0  0  0
   14.9269  -23.8922   -1.8094 C   0  0  0  0  0  0  0  0  0  0  0  0
   14.6123  -24.8317   -0.9998 O   0  0  0  0  0  0  0  0  0  0  0  0
   17.0037  -19.4391    1.9546 N   0  0  0  0  0  0  0  0  0  0  0  0
   15.9750  -19.9953    2.7350 C   0  0  0  0  0  0  0  0  0  0  0  0
   15.7701  -19.5523    3.8910 O   0  0  0  0  0  0  0  0  0  0  0  0
   15.1096  -21.0984    2.2440 C   0  0  0  0  0  0  0  0  0  0  0  0
   15.4222  -21.4042    0.8141 C   0  0  0  0  0  0  0  0  0  0  0  0
   14.4860  -22.3569    0.1488 C   0  0  2  0  0  0  0  0  0  0  0  0
   14.8602  -22.5774   -1.2599 N   0  0  0  0  0  0  0  0  0  0  0  0
   13.0574  -21.9783    0.2358 C   0  0  0  0  0  0  0  0  0  0  0  0
   12.2566  -22.3302    1.3031 O   0  0  0  0  0  0  0  0  0  0  0  0
   12.4868  -21.3010   -0.6807 O   0  0  0  0  0  0  0  0  0  0  0  0
  2  1  1  1
  2  3  1  0
  4  2  1  0
  5  4  2  0
  6  4  1  0
  6  7  1  0
  8  7  1  0
  9 10  1  0
  9  8  1  0
 10  6  1  0
 10 11  1  1
 11 19  1  0
 12 11  2  0
 14 16  1  0
 14 13  1  0
 15 14  2  0
 17 16  1  0
 18 20  1  0
 18 17  1  6
 19 18  1  0
 20 21  1  0
 22 20  2  0
M  END
$$$$
