APQ.pdb
     RDKit          3D

 22 22  0  0  1  0  0  0  0  0999 V2000
   19.1694  -12.5139    4.2081 C   0  0  0  0  0  0  0  0  0  0  0  0
   17.7543  -13.0670    4.2825 C   0  0  2  0  0  0  0  0  0  0  0  0
   16.8383  -12.1615    4.8727 N   0  0  0  0  0  0  0  0  0  0  0  0
   17.7413  -14.4317    4.8593 C   0  0  0  0  0  0  0  0  0  0  0  0
   18.2020  -14.4597    6.0651 O   0  0  0  0  0  0  0  0  0  0  0  0
   17.2975  -15.5996    4.2339 N   0  0  0  0  0  0  0  0  0  0  0  0
   16.1874  -15.8562    3.3243 C   0  0  0  0  0  0  0  0  0  0  0  0
   16.9184  -16.6469    2.2384 C   0  0  0  0  0  0  0  0  0  0  0  0
   18.2276  -17.1487    2.8901 C   0  0  0  0  0  0  0  0  0  0  0  0
   17.8804  -16.9204    4.3332 C   0  0  1  0  0  0  0  0  0  0  0  0
   18.8782  -17.1810    5.3273 C   0  0  0  0  0  0  0  0  0  0  0  0
   19.9698  -16.5241    5.4451 O   0  0  0  0  0  0  0  0  0  0  0  0
   19.5068  -15.5002   10.3567 N   0  0  0  0  0  0  0  0  0  0  0  0
   20.4927  -16.4949   10.4788 C   0  0  0  0  0  0  0  0  0  0  0  0
   21.2979  -16.4499   11.4401 O   0  0  0  0  0  0  0  0  0  0  0  0
   20.6239  -17.6107    9.5068 C   0  0  0  0  0  0  0  0  0  0  0  0
   19.6297  -17.4534    8.4011 C   0  0  0  0  0  0  0  0  0  0  0  0
   19.7056  -18.4863    7.3268 C   0  0  2  0  0  0  0  0  0  0  0  0
   18.7059  -18.2352    6.2728 N   0  0  0  0  0  0  0  0  0  0  0  0
   19.5907  -19.8824    7.8057 C   0  0  0  0  0  0  0  0  0  0  0  0
   18.4213  -20.6088    7.7121 O   0  0  0  0  0  0  0  0  0  0  0  0
   20.5765  -20.4921    8.3358 O   0  0  0  0  0  0  0  0  0  0  0  0
  2  1  1  1
  2  3  1  0
  4  2  1  0
  5  4  2  0
  6  4  1  0
  6  7  1  0
  8  7  1  0
  9 10  1  0
  9  8  1  0
 10  6  1  0
 10 11  1  1
 11 19  1  0
 12 11  2  0
 14 16  1  0
 14 13  1  0
 15 14  2  0
 17 16  1  0
 18 20  1  0
 18 17  1  1
 19 18  1  0
 20 21  1  0
 22 20  2  0
M  END
$$$$
