APQ.pdb
     RDKit          3D

 22 22  0  0  1  0  0  0  0  0999 V2000
   25.0928  -19.1276  -18.6179 C   0  0  0  0  0  0  0  0  0  0  0  0
   25.0798  -19.1766  -17.0976 C   0  0  2  0  0  0  0  0  0  0  0  0
   24.6278  -20.4194  -16.5893 N   0  0  0  0  0  0  0  0  0  0  0  0
   24.4040  -17.9872  -16.5283 C   0  0  0  0  0  0  0  0  0  0  0  0
   23.1563  -17.9279  -16.8550 O   0  0  0  0  0  0  0  0  0  0  0  0
   24.9822  -17.0024  -15.7234 N   0  0  0  0  0  0  0  0  0  0  0  0
   26.0441  -17.0586  -14.7261 C   0  0  0  0  0  0  0  0  0  0  0  0
   26.9026  -15.8825  -15.1938 C   0  0  0  0  0  0  0  0  0  0  0  0
   25.9849  -15.0197  -16.0905 C   0  0  0  0  0  0  0  0  0  0  0  0
   24.6545  -15.5931  -15.6946 C   0  0  1  0  0  0  0  0  0  0  0  0
   23.4795  -15.1255  -16.3673 C   0  0  0  0  0  0  0  0  0  0  0  0
   23.1988  -15.3765  -17.5901 O   0  0  0  0  0  0  0  0  0  0  0  0
   17.8987  -16.0994  -15.2338 N   0  0  0  0  0  0  0  0  0  0  0  0
   17.7134  -15.0534  -16.1547 C   0  0  0  0  0  0  0  0  0  0  0  0
   16.5706  -14.8458  -16.6297 O   0  0  0  0  0  0  0  0  0  0  0  0
   18.8257  -14.1728  -16.5951 C   0  0  0  0  0  0  0  0  0  0  0  0
   20.1057  -14.5915  -15.9455 C   0  0  0  0  0  0  0  0  0  0  0  0
   21.3135  -13.8238  -16.3681 C   0  0  2  0  0  0  0  0  0  0  0  0
   22.5243  -14.3147  -15.6853 N   0  0  0  0  0  0  0  0  0  0  0  0
   21.2012  -12.3573  -16.1993 C   0  0  0  0  0  0  0  0  0  0  0  0
   22.0173  -11.6402  -15.3484 O   0  0  0  0  0  0  0  0  0  0  0  0
   20.3350  -11.6738  -16.8373 O   0  0  0  0  0  0  0  0  0  0  0  0
  2  1  1  6
  2  3  1  0
  4  2  1  0
  5  4  2  0
  6  4  1  0
  6  7  1  0
  8  7  1  0
  9 10  1  0
  9  8  1  0
 10  6  1  0
 10 11  1  6
 11 19  1  0
 12 11  2  0
 14 16  1  0
 14 13  1  0
 15 14  2  0
 17 16  1  0
 18 20  1  0
 18 17  1  1
 19 18  1  0
 20 21  1  0
 22 20  2  0
M  END
$$$$
