APQ.pdb
     RDKit          3D

 22 22  0  0  1  0  0  0  0  0999 V2000
   31.9558   -6.5835  -16.1976 C   0  0  0  0  0  0  0  0  0  0  0  0
   32.1572   -5.0972  -16.4509 C   0  0  2  0  0  0  0  0  0  0  0  0
   32.5743   -4.3920  -15.2951 N   0  0  0  0  0  0  0  0  0  0  0  0
   30.9921   -4.5099  -17.1532 C   0  0  0  0  0  0  0  0  0  0  0  0
   29.8960   -4.6460  -16.4847 O   0  0  0  0  0  0  0  0  0  0  0  0
   31.0004   -3.8679  -18.3941 N   0  0  0  0  0  0  0  0  0  0  0  0
   32.0202   -3.0815  -19.0775 C   0  0  0  0  0  0  0  0  0  0  0  0
   31.9849   -3.7489  -20.4531 C   0  0  0  0  0  0  0  0  0  0  0  0
   30.6339   -4.4975  -20.5248 C   0  0  0  0  0  0  0  0  0  0  0  0
   29.9331   -3.8395  -19.3710 C   0  0  1  0  0  0  0  0  0  0  0  0
   28.6278   -4.3041  -19.0073 C   0  0  0  0  0  0  0  0  0  0  0  0
   28.3819   -5.4629  -18.5240 O   0  0  0  0  0  0  0  0  0  0  0  0
   24.1941   -1.0388  -16.3379 N   0  0  0  0  0  0  0  0  0  0  0  0
   23.4626   -2.1784  -16.7157 C   0  0  0  0  0  0  0  0  0  0  0  0
   22.2658   -2.2899  -16.3554 O   0  0  0  0  0  0  0  0  0  0  0  0
   24.0527   -3.2695  -17.5330 C   0  0  0  0  0  0  0  0  0  0  0  0
   25.4528   -2.9221  -17.9265 C   0  0  0  0  0  0  0  0  0  0  0  0
   26.1384   -3.9282  -18.7895 C   0  0  2  0  0  0  0  0  0  0  0  0
   27.4840   -3.4692  -19.1792 N   0  0  0  0  0  0  0  0  0  0  0  0
   25.3757   -4.3282  -19.9937 C   0  0  0  0  0  0  0  0  0  0  0  0
   25.7947   -4.0308  -21.2743 O   0  0  0  0  0  0  0  0  0  0  0  0
   24.2805   -4.9745  -19.9090 O   0  0  0  0  0  0  0  0  0  0  0  0
  2  1  1  1
  2  3  1  0
  4  2  1  0
  5  4  2  0
  6  4  1  0
  6  7  1  0
  8  7  1  0
  9 10  1  0
  9  8  1  0
 10  6  1  0
 10 11  1  1
 11 19  1  0
 12 11  2  0
 14 16  1  0
 14 13  1  0
 15 14  2  0
 17 16  1  0
 18 20  1  0
 18 17  1  6
 19 18  1  0
 20 21  1  0
 22 20  2  0
M  END
$$$$
