APQ.pdb
     RDKit          3D

 22 22  0  0  1  0  0  0  0  0999 V2000
   15.2182  -24.2174   -1.9142 C   0  0  0  0  0  0  0  0  0  0  0  0
   14.0235  -24.1091   -0.9788 C   0  0  2  0  0  0  0  0  0  0  0  0
   12.9374  -23.4015   -1.5506 N   0  0  0  0  0  0  0  0  0  0  0  0
   14.4352  -23.6400    0.3650 C   0  0  0  0  0  0  0  0  0  0  0  0
   14.6433  -22.3662    0.3981 O   0  0  0  0  0  0  0  0  0  0  0  0
   14.5996  -24.4235    1.5100 N   0  0  0  0  0  0  0  0  0  0  0  0
   14.0543  -25.7214    1.8891 C   0  0  0  0  0  0  0  0  0  0  0  0
   15.3368  -26.4197    2.3434 C   0  0  0  0  0  0  0  0  0  0  0  0
   16.3580  -25.2914    2.6172 C   0  0  0  0  0  0  0  0  0  0  0  0
   15.4167  -24.1222    2.6658 C   0  0  1  0  0  0  0  0  0  0  0  0
   15.9644  -22.8080    2.8225 C   0  0  0  0  0  0  0  0  0  0  0  0
   16.5904  -22.1720    1.9057 O   0  0  0  0  0  0  0  0  0  0  0  0
   13.8113  -17.8649    2.4359 N   0  0  0  0  0  0  0  0  0  0  0  0
   14.8979  -17.3940    3.1936 C   0  0  0  0  0  0  0  0  0  0  0  0
   15.0752  -16.1577    3.3145 O   0  0  0  0  0  0  0  0  0  0  0  0
   15.8570  -18.3083    3.8653 C   0  0  0  0  0  0  0  0  0  0  0  0
   15.4648  -19.7321    3.6318 C   0  0  0  0  0  0  0  0  0  0  0  0
   16.3803  -20.7491    4.2275 C   0  0  2  0  0  0  0  0  0  0  0  0
   15.8441  -22.1123    4.0621 N   0  0  0  0  0  0  0  0  0  0  0  0
   16.7221  -20.5126    5.6484 C   0  0  0  0  0  0  0  0  0  0  0  0
   17.6802  -19.6014    6.0429 O   0  0  0  0  0  0  0  0  0  0  0  0
   16.1434  -21.1458    6.5910 O   0  0  0  0  0  0  0  0  0  0  0  0
  2  1  1  6
  2  3  1  0
  4  2  1  0
  5  4  2  0
  6  4  1  0
  6  7  1  0
  8  7  1  0
  9 10  1  0
  9  8  1  0
 10  6  1  0
 10 11  1  6
 11 19  1  0
 12 11  2  0
 14 16  1  0
 14 13  1  0
 15 14  2  0
 17 16  1  0
 18 20  1  0
 18 17  1  1
 19 18  1  0
 20 21  1  0
 22 20  2  0
M  END
$$$$
