APQ.pdb
     RDKit          3D

 22 22  0  0  1  0  0  0  0  0999 V2000
   24.6004  -18.5395  -18.4373 C   0  0  0  0  0  0  0  0  0  0  0  0
   24.6070  -18.4996  -16.9167 C   0  0  2  0  0  0  0  0  0  0  0  0
   23.9479  -19.6095  -16.3327 N   0  0  0  0  0  0  0  0  0  0  0  0
   24.1674  -17.1774  -16.4128 C   0  0  0  0  0  0  0  0  0  0  0  0
   22.9902  -16.8574  -16.8355 O   0  0  0  0  0  0  0  0  0  0  0  0
   24.8861  -16.3207  -15.5752 N   0  0  0  0  0  0  0  0  0  0  0  0
   25.8425  -16.5797  -14.5057 C   0  0  0  0  0  0  0  0  0  0  0  0
   26.9606  -15.6216  -14.9189 C   0  0  0  0  0  0  0  0  0  0  0  0
   26.3093  -14.6029  -15.8827 C   0  0  0  0  0  0  0  0  0  0  0  0
   24.8640  -14.8737  -15.5776 C   0  0  1  0  0  0  0  0  0  0  0  0
   23.8630  -14.1822  -16.3337 C   0  0  0  0  0  0  0  0  0  0  0  0
   23.6889  -14.3156  -17.5942 O   0  0  0  0  0  0  0  0  0  0  0  0
   16.9860  -12.3637  -16.1392 N   0  0  0  0  0  0  0  0  0  0  0  0
   18.1425  -13.1092  -16.4278 C   0  0  0  0  0  0  0  0  0  0  0  0
   18.1047  -14.3609  -16.3484 O   0  0  0  0  0  0  0  0  0  0  0  0
   19.4230  -12.4710  -16.8276 C   0  0  0  0  0  0  0  0  0  0  0  0
   20.5704  -13.1352  -16.1361 C   0  0  0  0  0  0  0  0  0  0  0  0
   21.9160  -12.5760  -16.4579 C   0  0  2  0  0  0  0  0  0  0  0  0
   22.9757  -13.2637  -15.6981 N   0  0  0  0  0  0  0  0  0  0  0  0
   22.0346  -11.1120  -16.2730 C   0  0  0  0  0  0  0  0  0  0  0  0
   21.4260  -10.2027  -17.1138 O   0  0  0  0  0  0  0  0  0  0  0  0
   22.7130  -10.6101  -15.3179 O   0  0  0  0  0  0  0  0  0  0  0  0
  2  1  1  6
  2  3  1  0
  4  2  1  0
  5  4  2  0
  6  4  1  0
  6  7  1  0
  8  7  1  0
  9 10  1  0
  9  8  1  0
 10  6  1  0
 10 11  1  6
 11 19  1  0
 12 11  2  0
 14 16  1  0
 14 13  1  0
 15 14  2  0
 17 16  1  0
 18 20  1  0
 18 17  1  1
 19 18  1  0
 20 21  1  0
 22 20  2  0
M  END
$$$$
