APQ.pdb
     RDKit          3D

 22 22  0  0  1  0  0  0  0  0999 V2000
   27.4488  -18.8314  -14.2744 C   0  0  0  0  0  0  0  0  0  0  0  0
   27.3143  -20.3261  -14.0259 C   0  0  2  0  0  0  0  0  0  0  0  0
   27.8038  -21.1103  -15.0996 N   0  0  0  0  0  0  0  0  0  0  0  0
   25.9471  -20.6737  -13.5725 C   0  0  0  0  0  0  0  0  0  0  0  0
   25.0725  -20.5563  -14.5149 O   0  0  0  0  0  0  0  0  0  0  0  0
   25.5710  -21.0884  -12.2924 N   0  0  0  0  0  0  0  0  0  0  0  0
   26.2511  -21.9036  -11.2932 C   0  0  0  0  0  0  0  0  0  0  0  0
   26.0637  -21.0159  -10.0620 C   0  0  0  0  0  0  0  0  0  0  0  0
   24.9023  -20.0552  -10.4067 C   0  0  0  0  0  0  0  0  0  0  0  0
   24.3402  -20.7757  -11.5985 C   0  0  1  0  0  0  0  0  0  0  0  0
   23.2567  -20.1724  -12.3154 C   0  0  0  0  0  0  0  0  0  0  0  0
   23.3450  -19.0773  -12.9710 O   0  0  0  0  0  0  0  0  0  0  0  0
   21.6493  -19.9586  -17.2813 N   0  0  0  0  0  0  0  0  0  0  0  0
   21.4742  -21.2351  -16.7187 C   0  0  0  0  0  0  0  0  0  0  0  0
   21.5671  -22.2495  -17.4514 O   0  0  0  0  0  0  0  0  0  0  0  0
   21.1804  -21.4370  -15.2766 C   0  0  0  0  0  0  0  0  0  0  0  0
   21.1886  -20.1257  -14.5582 C   0  0  0  0  0  0  0  0  0  0  0  0
   20.8563  -20.1954  -13.1050 C   0  0  2  0  0  0  0  0  0  0  0  0
   21.9662  -20.7801  -12.3308 N   0  0  0  0  0  0  0  0  0  0  0  0
   19.5968  -20.9089  -12.7949 C   0  0  0  0  0  0  0  0  0  0  0  0
   18.3524  -20.3690  -13.0480 O   0  0  0  0  0  0  0  0  0  0  0  0
   19.5965  -22.0711  -12.2718 O   0  0  0  0  0  0  0  0  0  0  0  0
  2  1  1  6
  2  3  1  0
  4  2  1  0
  5  4  2  0
  6  4  1  0
  6  7  1  0
  8  7  1  0
  9 10  1  0
  9  8  1  0
 10  6  1  0
 10 11  1  6
 11 19  1  0
 12 11  2  0
 14 16  1  0
 14 13  1  0
 15 14  2  0
 17 16  1  0
 18 20  1  0
 18 17  1  6
 19 18  1  0
 20 21  1  0
 22 20  2  0
M  END
$$$$
