APQ.pdb
     RDKit          3D

 22 22  0  0  1  0  0  0  0  0999 V2000
   23.6225  -10.8333  -16.2868 C   0  0  0  0  0  0  0  0  0  0  0  0
   22.1039  -10.7637  -16.3396 C   0  0  2  0  0  0  0  0  0  0  0  0
   21.5735  -11.2124  -17.5744 N   0  0  0  0  0  0  0  0  0  0  0  0
   21.6118   -9.4389  -15.8942 C   0  0  0  0  0  0  0  0  0  0  0  0
   22.3515   -8.4711  -16.3219 O   0  0  0  0  0  0  0  0  0  0  0  0
   20.4875   -9.1872  -15.1039 N   0  0  0  0  0  0  0  0  0  0  0  0
   19.1806   -9.8298  -15.0359 C   0  0  0  0  0  0  0  0  0  0  0  0
   19.0638  -10.0222  -13.5233 C   0  0  0  0  0  0  0  0  0  0  0  0
   20.0835   -9.0456  -12.8932 C   0  0  0  0  0  0  0  0  0  0  0  0
   20.3451   -8.1697  -14.0847 C   0  0  1  0  0  0  0  0  0  0  0  0
   21.3315   -7.1371  -13.9724 C   0  0  0  0  0  0  0  0  0  0  0  0
   22.5928   -7.3292  -14.0682 O   0  0  0  0  0  0  0  0  0  0  0  0
   23.9937   -4.7339  -17.5273 N   0  0  0  0  0  0  0  0  0  0  0  0
   24.3951   -3.7906  -16.5652 C   0  0  0  0  0  0  0  0  0  0  0  0
   25.3570   -3.0250  -16.8166 O   0  0  0  0  0  0  0  0  0  0  0  0
   23.7214   -3.6597  -15.2477 C   0  0  0  0  0  0  0  0  0  0  0  0
   22.6904   -4.7304  -15.0850 C   0  0  0  0  0  0  0  0  0  0  0  0
   21.9259   -4.6867  -13.8041 C   0  0  2  0  0  0  0  0  0  0  0  0
   20.9458   -5.7854  -13.7295 N   0  0  0  0  0  0  0  0  0  0  0  0
   21.2550   -3.3955  -13.5312 C   0  0  0  0  0  0  0  0  0  0  0  0
   21.8840   -2.3504  -12.8862 O   0  0  0  0  0  0  0  0  0  0  0  0
   20.0484   -3.1804  -13.8809 O   0  0  0  0  0  0  0  0  0  0  0  0
  2  1  1  6
  2  3  1  0
  4  2  1  0
  5  4  2  0
  6  4  1  0
  6  7  1  0
  8  7  1  0
  9 10  1  0
  9  8  1  0
 10  6  1  0
 10 11  1  1
 11 19  1  0
 12 11  2  0
 14 16  1  0
 14 13  1  0
 15 14  2  0
 17 16  1  0
 18 20  1  0
 18 17  1  6
 19 18  1  0
 20 21  1  0
 22 20  2  0
M  END
$$$$
