APQ.pdb
     RDKit          3D

 22 22  0  0  1  0  0  0  0  0999 V2000
   14.0136  -21.0041    0.5236 C   0  0  0  0  0  0  0  0  0  0  0  0
   15.3759  -21.6767    0.5979 C   0  0  2  0  0  0  0  0  0  0  0  0
   15.3162  -23.0720    0.3593 N   0  0  0  0  0  0  0  0  0  0  0  0
   16.1011  -21.2851    1.8292 C   0  0  0  0  0  0  0  0  0  0  0  0
   15.5625  -21.7777    2.8941 O   0  0  0  0  0  0  0  0  0  0  0  0
   17.2410  -20.4810    1.9082 N   0  0  0  0  0  0  0  0  0  0  0  0
   18.4127  -20.3646    1.0486 C   0  0  0  0  0  0  0  0  0  0  0  0
   18.4723  -18.8442    0.8946 C   0  0  0  0  0  0  0  0  0  0  0  0
   17.6323  -18.2685    2.0581 C   0  0  0  0  0  0  0  0  0  0  0  0
   17.5463  -19.4942    2.9217 C   0  0  1  0  0  0  0  0  0  0  0  0
   16.7564  -19.4372    4.1152 C   0  0  0  0  0  0  0  0  0  0  0  0
   15.4772  -19.4181    4.1349 O   0  0  0  0  0  0  0  0  0  0  0  0
   18.2776  -22.8536    7.2809 N   0  0  0  0  0  0  0  0  0  0  0  0
   16.9367  -22.4407    7.1921 C   0  0  0  0  0  0  0  0  0  0  0  0
   16.1645  -23.0222    6.3920 O   0  0  0  0  0  0  0  0  0  0  0  0
   16.3878  -21.3322    8.0147 C   0  0  0  0  0  0  0  0  0  0  0  0
   17.1317  -20.0650    7.7380 C   0  0  0  0  0  0  0  0  0  0  0  0
   16.5801  -19.2340    6.6279 C   0  0  2  0  0  0  0  0  0  0  0  0
   17.3783  -19.3879    5.3981 N   0  0  0  0  0  0  0  0  0  0  0  0
   16.4276  -17.7974    6.9514 C   0  0  0  0  0  0  0  0  0  0  0  0
   17.1280  -16.8068    6.2939 O   0  0  0  0  0  0  0  0  0  0  0  0
   15.6335  -17.3968    7.8643 O   0  0  0  0  0  0  0  0  0  0  0  0
  2  1  1  1
  2  3  1  0
  4  2  1  0
  5  4  2  0
  6  4  1  0
  6  7  1  0
  8  7  1  0
  9 10  1  0
  9  8  1  0
 10  6  1  0
 10 11  1  1
 11 19  1  0
 12 11  2  0
 14 16  1  0
 14 13  1  0
 15 14  2  0
 17 16  1  0
 18 20  1  0
 18 17  1  1
 19 18  1  0
 20 21  1  0
 22 20  2  0
M  END
$$$$
