APQ.pdb
     RDKit          3D

 22 22  0  0  1  0  0  0  0  0999 V2000
   13.8784  -26.2670   -6.3075 C   0  0  0  0  0  0  0  0  0  0  0  0
   14.5394  -27.5524   -5.8334 C   0  0  2  0  0  0  0  0  0  0  0  0
   13.7435  -28.7009   -6.0672 N   0  0  0  0  0  0  0  0  0  0  0  0
   15.0454  -27.4159   -4.4475 C   0  0  0  0  0  0  0  0  0  0  0  0
   14.1024  -27.1617   -3.6032 O   0  0  0  0  0  0  0  0  0  0  0  0
   16.3722  -27.5355   -4.0263 N   0  0  0  0  0  0  0  0  0  0  0  0
   17.4945  -28.3060   -4.5481 C   0  0  0  0  0  0  0  0  0  0  0  0
   18.5663  -27.2155   -4.5799 C   0  0  0  0  0  0  0  0  0  0  0  0
   18.0629  -26.1007   -3.6340 C   0  0  0  0  0  0  0  0  0  0  0  0
   16.9972  -26.8675   -2.9049 C   0  0  1  0  0  0  0  0  0  0  0  0
   16.1842  -26.1728   -1.9519 C   0  0  0  0  0  0  0  0  0  0  0  0
   15.4103  -25.1951   -2.2386 O   0  0  0  0  0  0  0  0  0  0  0  0
   11.3180  -27.1711    0.1774 N   0  0  0  0  0  0  0  0  0  0  0  0
   11.6189  -26.1449    1.0900 C   0  0  0  0  0  0  0  0  0  0  0  0
   10.7015  -25.6579    1.7942 O   0  0  0  0  0  0  0  0  0  0  0  0
   12.9928  -25.6057    1.2587 C   0  0  0  0  0  0  0  0  0  0  0  0
   13.9344  -26.2843    0.3160 C   0  0  0  0  0  0  0  0  0  0  0  0
   15.3573  -25.8452    0.4135 C   0  0  2  0  0  0  0  0  0  0  0  0
   16.2004  -26.5429   -0.5743 N   0  0  0  0  0  0  0  0  0  0  0  0
   15.9512  -25.9768    1.7632 C   0  0  0  0  0  0  0  0  0  0  0  0
   15.8080  -25.0108    2.7380 O   0  0  0  0  0  0  0  0  0  0  0  0
   16.6336  -26.9999    2.0980 O   0  0  0  0  0  0  0  0  0  0  0  0
  2  1  1  1
  2  3  1  0
  4  2  1  0
  5  4  2  0
  6  4  1  0
  6  7  1  0
  8  7  1  0
  9 10  1  0
  9  8  1  0
 10  6  1  0
 10 11  1  6
 11 19  1  0
 12 11  2  0
 14 16  1  0
 14 13  1  0
 15 14  2  0
 17 16  1  0
 18 20  1  0
 18 17  1  1
 19 18  1  0
 20 21  1  0
 22 20  2  0
M  END
$$$$
