APQ.pdb
     RDKit          3D

 22 22  0  0  1  0  0  0  0  0999 V2000
   23.8936  -16.7542  -16.8033 C   0  0  0  0  0  0  0  0  0  0  0  0
   24.4451  -18.0703  -17.3304 C   0  0  2  0  0  0  0  0  0  0  0  0
   23.5168  -18.7743  -18.1366 N   0  0  0  0  0  0  0  0  0  0  0  0
   25.0582  -18.8688  -16.2432 C   0  0  0  0  0  0  0  0  0  0  0  0
   24.2092  -19.1754  -15.3202 O   0  0  0  0  0  0  0  0  0  0  0  0
   26.3906  -19.2806  -16.1576 N   0  0  0  0  0  0  0  0  0  0  0  0
   27.3505  -19.6922  -17.1748 C   0  0  0  0  0  0  0  0  0  0  0  0
   28.5484  -18.8349  -16.7640 C   0  0  0  0  0  0  0  0  0  0  0  0
   28.2830  -18.4116  -15.3008 C   0  0  0  0  0  0  0  0  0  0  0  0
   27.1965  -19.3909  -14.9607 C   0  0  1  0  0  0  0  0  0  0  0  0
   26.5710  -19.3011  -13.6752 C   0  0  0  0  0  0  0  0  0  0  0  0
   26.1191  -18.2179  -13.1657 O   0  0  0  0  0  0  0  0  0  0  0  0
   21.7638  -21.0127  -12.1052 N   0  0  0  0  0  0  0  0  0  0  0  0
   22.0910  -20.4448  -10.8614 C   0  0  0  0  0  0  0  0  0  0  0  0
   21.2353  -20.4361   -9.9437 O   0  0  0  0  0  0  0  0  0  0  0  0
   23.4224  -19.8472  -10.5835 C   0  0  0  0  0  0  0  0  0  0  0  0
   24.2793  -19.9006  -11.8077 C   0  0  0  0  0  0  0  0  0  0  0  0
   25.6663  -20.4066  -11.5907 C   0  0  2  0  0  0  0  0  0  0  0  0
   26.4196  -20.4596  -12.8567 N   0  0  0  0  0  0  0  0  0  0  0  0
   25.7436  -21.7164  -10.9049 C   0  0  0  0  0  0  0  0  0  0  0  0
   25.7287  -21.8403   -9.5307 O   0  0  0  0  0  0  0  0  0  0  0  0
   25.8296  -22.8091  -11.5553 O   0  0  0  0  0  0  0  0  0  0  0  0
  2  1  1  1
  2  3  1  0
  4  2  1  0
  5  4  2  0
  6  4  1  0
  6  7  1  0
  8  7  1  0
  9 10  1  0
  9  8  1  0
 10  6  1  0
 10 11  1  1
 11 19  1  0
 12 11  2  0
 14 16  1  0
 14 13  1  0
 15 14  2  0
 17 16  1  0
 18 20  1  0
 18 17  1  6
 19 18  1  0
 20 21  1  0
 22 20  2  0
M  END
$$$$
