APQ.pdb
     RDKit          3D

 22 22  0  0  1  0  0  0  0  0999 V2000
   27.3686  -18.6516  -14.2857 C   0  0  0  0  0  0  0  0  0  0  0  0
   27.1669  -20.1540  -14.1592 C   0  0  2  0  0  0  0  0  0  0  0  0
   27.5158  -20.8588  -15.3377 N   0  0  0  0  0  0  0  0  0  0  0  0
   25.8248  -20.4713  -13.6171 C   0  0  0  0  0  0  0  0  0  0  0  0
   24.8775  -20.1571  -14.4360 O   0  0  0  0  0  0  0  0  0  0  0  0
   25.5388  -21.0441  -12.3753 N   0  0  0  0  0  0  0  0  0  0  0  0
   26.2847  -21.9742  -11.5362 C   0  0  0  0  0  0  0  0  0  0  0  0
   26.1889  -21.2477  -10.1939 C   0  0  0  0  0  0  0  0  0  0  0  0
   25.0099  -20.2571  -10.3328 C   0  0  0  0  0  0  0  0  0  0  0  0
   24.3617  -20.8261  -11.5622 C   0  0  1  0  0  0  0  0  0  0  0  0
   23.2325  -20.1434  -12.1196 C   0  0  0  0  0  0  0  0  0  0  0  0
   23.2107  -18.8963  -12.4047 O   0  0  0  0  0  0  0  0  0  0  0  0
   19.7589  -19.6601  -16.7220 N   0  0  0  0  0  0  0  0  0  0  0  0
   20.8086  -20.5909  -16.6315 C   0  0  0  0  0  0  0  0  0  0  0  0
   21.0590  -21.3347  -17.6107 O   0  0  0  0  0  0  0  0  0  0  0  0
   21.6444  -20.7336  -15.4117 C   0  0  0  0  0  0  0  0  0  0  0  0
   21.2904  -19.6765  -14.4152 C   0  0  0  0  0  0  0  0  0  0  0  0
   20.8908  -20.1808  -13.0688 C   0  0  2  0  0  0  0  0  0  0  0  0
   22.0193  -20.8434  -12.3901 N   0  0  0  0  0  0  0  0  0  0  0  0
   19.7111  -21.0753  -13.0715 C   0  0  0  0  0  0  0  0  0  0  0  0
   19.8009  -22.4283  -12.8158 O   0  0  0  0  0  0  0  0  0  0  0  0
   18.5389  -20.6374  -13.3136 O   0  0  0  0  0  0  0  0  0  0  0  0
  2  1  1  6
  2  3  1  0
  4  2  1  0
  5  4  2  0
  6  4  1  0
  6  7  1  0
  8  7  1  0
  9 10  1  0
  9  8  1  0
 10  6  1  0
 10 11  1  6
 11 19  1  0
 12 11  2  0
 14 16  1  0
 14 13  1  0
 15 14  2  0
 17 16  1  0
 18 20  1  0
 18 17  1  6
 19 18  1  0
 20 21  1  0
 22 20  2  0
M  END
$$$$
