CIK.pdb
     RDKit          3D

 24 23  0  0  1  0  0  0  0  0999 V2000
    7.4130  -15.2054   19.8854 N   0  0  0  0  0  0  0  0  0  0  0  0
    6.7412  -15.5044   21.1132 C   0  0  1  0  0  0  0  0  0  0  0  0
    6.3977  -16.9572   21.1696 C   0  0  0  0  0  0  0  0  0  0  0  0
    5.4966  -17.2571   22.7240 S   0  0  0  0  0  0  0  0  0  0  0  0
    7.6064  -15.1212   22.2780 C   0  0  0  0  0  0  0  0  0  0  0  0
    8.8602  -15.3437   22.1726 O   0  0  0  0  0  0  0  0  0  0  0  0
    7.3671  -11.5608   27.3416 C   0  0  0  0  0  0  0  0  0  0  0  0
    8.1026  -12.5548   26.4691 C   0  0  0  0  0  0  0  0  0  0  0  0
    7.1881  -13.0960   25.3743 C   0  0  2  0  0  0  0  0  0  0  0  0
    6.0856  -13.8548   26.0795 C   0  0  0  0  0  0  0  0  0  0  0  0
    7.9419  -14.0520   24.4754 C   0  0  2  0  0  0  0  0  0  0  0  0
    7.0397  -14.5410   23.4315 N   0  0  0  0  0  0  0  0  0  0  0  0
    8.3415  -15.2483   25.2667 C   0  0  0  0  0  0  0  0  0  0  0  0
    7.3910  -16.0798   25.5303 O   0  0  0  0  0  0  0  0  0  0  0  0
    9.6192  -15.5483   25.7347 N   0  0  0  0  0  0  0  0  0  0  0  0
    9.9183  -16.8974   26.2505 C   0  0  1  0  0  0  0  0  0  0  0  0
   11.0168  -17.4783   25.4286 C   0  0  0  0  0  0  0  0  0  0  0  0
   10.6588  -18.4610   24.3898 C   0  0  0  0  0  0  0  0  0  0  0  0
   11.7958  -18.9749   23.5833 C   0  0  0  0  0  0  0  0  0  0  0  0
   11.3228  -19.8580   22.4490 C   0  0  0  0  0  0  0  0  0  0  0  0
   12.4474  -20.3452   21.6764 N   0  0  0  0  0  0  0  0  0  0  0  0
   10.0898  -16.8373   27.6875 C   0  0  0  0  0  0  0  0  0  0  0  0
    9.9770  -17.9736   28.4708 O   0  0  0  0  0  0  0  0  0  0  0  0
   10.3473  -15.7684   28.2826 O   0  0  0  0  0  0  0  0  0  0  0  0
  2  5  1  0
  2  1  1  6
  3  2  1  0
  4  3  1  0
  5  6  2  0
  8  7  1  0
  9 11  1  0
  9  8  1  0
  9 10  1  1
 12  5  1  0
 11 12  1  6
 13 11  1  0
 13 14  2  0
 15 13  1  0
 16 22  1  0
 16 15  1  0
 16 17  1  6
 18 17  1  0
 19 18  1  0
 20 19  1  0
 21 20  1  0
 22 23  1  0
 24 22  2  0
M  END
$$$$
