CIK.pdb
     RDKit          3D

 24 23  0  0  1  0  0  0  0  0999 V2000
    8.5295  -15.3917   19.8896 N   0  0  0  0  0  0  0  0  0  0  0  0
    7.6767  -15.5967   21.0204 C   0  0  1  0  0  0  0  0  0  0  0  0
    7.3688  -17.0505   21.1742 C   0  0  0  0  0  0  0  0  0  0  0  0
    6.0935  -17.4832   19.9477 S   0  0  0  0  0  0  0  0  0  0  0  0
    8.3313  -15.0620   22.2604 C   0  0  0  0  0  0  0  0  0  0  0  0
    9.6044  -15.1449   22.3312 O   0  0  0  0  0  0  0  0  0  0  0  0
    7.1115  -11.6547   27.2947 C   0  0  0  0  0  0  0  0  0  0  0  0
    7.9871  -12.6501   26.5649 C   0  0  0  0  0  0  0  0  0  0  0  0
    7.3329  -13.0929   25.2596 C   0  0  2  0  0  0  0  0  0  0  0  0
    6.0724  -13.8341   25.6473 C   0  0  0  0  0  0  0  0  0  0  0  0
    8.2416  -14.0366   24.5021 C   0  0  2  0  0  0  0  0  0  0  0  0
    7.5558  -14.4956   23.2930 N   0  0  0  0  0  0  0  0  0  0  0  0
    8.4750  -15.2527   25.3288 C   0  0  0  0  0  0  0  0  0  0  0  0
    7.5151  -16.1148   25.3279 O   0  0  0  0  0  0  0  0  0  0  0  0
    9.6105  -15.5416   26.0830 N   0  0  0  0  0  0  0  0  0  0  0  0
    9.8181  -16.9024   26.6127 C   0  0  1  0  0  0  0  0  0  0  0  0
   10.7563  -17.6189   25.7037 C   0  0  0  0  0  0  0  0  0  0  0  0
   11.2043  -18.9678   26.0944 C   0  0  0  0  0  0  0  0  0  0  0  0
   12.1438  -19.6235   25.1486 C   0  0  0  0  0  0  0  0  0  0  0  0
   12.5872  -20.9803   25.6514 C   0  0  0  0  0  0  0  0  0  0  0  0
   13.5903  -21.5486   24.7740 N   0  0  0  0  0  0  0  0  0  0  0  0
   10.1456  -16.8269   28.0215 C   0  0  0  0  0  0  0  0  0  0  0  0
   10.2568  -15.6070   28.6671 O   0  0  0  0  0  0  0  0  0  0  0  0
   10.3395  -17.8490   28.7151 O   0  0  0  0  0  0  0  0  0  0  0  0
  2  5  1  0
  2  1  1  6
  3  2  1  0
  4  3  1  0
  5  6  2  0
  8  7  1  0
  9 11  1  0
  9  8  1  0
  9 10  1  1
 12  5  1  0
 11 12  1  6
 13 11  1  0
 13 14  2  0
 15 13  1  0
 16 22  1  0
 16 15  1  0
 16 17  1  6
 18 17  1  0
 19 18  1  0
 20 19  1  0
 21 20  1  0
 22 23  1  0
 24 22  2  0
M  END
$$$$
