CIK.pdb
     RDKit          3D

 24 23  0  0  1  0  0  0  0  0999 V2000
    7.7421  -14.8056   20.2135 N   0  0  0  0  0  0  0  0  0  0  0  0
    7.1195  -15.3185   21.3956 C   0  0  1  0  0  0  0  0  0  0  0  0
    6.9380  -16.7969   21.2799 C   0  0  0  0  0  0  0  0  0  0  0  0
    5.6793  -17.1057   20.0000 S   0  0  0  0  0  0  0  0  0  0  0  0
    7.9489  -14.9814   22.5999 C   0  0  0  0  0  0  0  0  0  0  0  0
    9.2185  -15.0497   22.4728 O   0  0  0  0  0  0  0  0  0  0  0  0
    5.9090  -11.5029   26.3467 C   0  0  0  0  0  0  0  0  0  0  0  0
    6.8849  -12.1681   25.4004 C   0  0  0  0  0  0  0  0  0  0  0  0
    7.3706  -13.4979   25.9692 C   0  0  2  0  0  0  0  0  0  0  0  0
    8.2554  -13.1571   27.1479 C   0  0  0  0  0  0  0  0  0  0  0  0
    8.1914  -14.2479   24.9425 C   0  0  2  0  0  0  0  0  0  0  0  0
    7.3333  -14.6072   23.8122 N   0  0  0  0  0  0  0  0  0  0  0  0
    8.6506  -15.5344   25.5350 C   0  0  0  0  0  0  0  0  0  0  0  0
    7.7268  -16.4128   25.7338 O   0  0  0  0  0  0  0  0  0  0  0  0
    9.9571  -15.8715   25.8827 N   0  0  0  0  0  0  0  0  0  0  0  0
   10.2630  -17.2275   26.3758 C   0  0  1  0  0  0  0  0  0  0  0  0
   11.3090  -17.8194   25.4953 C   0  0  0  0  0  0  0  0  0  0  0  0
   11.9290  -19.0896   25.9140 C   0  0  0  0  0  0  0  0  0  0  0  0
   13.0680  -19.5465   25.0766 C   0  0  0  0  0  0  0  0  0  0  0  0
   13.6748  -20.8268   25.6084 C   0  0  0  0  0  0  0  0  0  0  0  0
   14.6148  -21.3820   24.6560 N   0  0  0  0  0  0  0  0  0  0  0  0
   10.5096  -17.1779   27.8022 C   0  0  0  0  0  0  0  0  0  0  0  0
   10.7666  -15.9781   28.4438 O   0  0  0  0  0  0  0  0  0  0  0  0
   10.5001  -18.2050   28.5150 O   0  0  0  0  0  0  0  0  0  0  0  0
  2  5  1  0
  2  1  1  6
  3  2  1  0
  4  3  1  0
  5  6  2  0
  8  7  1  0
  9 11  1  0
  9  8  1  0
  9 10  1  1
 12  5  1  0
 11 12  1  6
 13 11  1  0
 13 14  2  0
 15 13  1  0
 16 22  1  0
 16 15  1  0
 16 17  1  6
 18 17  1  0
 19 18  1  0
 20 19  1  0
 21 20  1  0
 22 23  1  0
 24 22  2  0
M  END
$$$$
