CIK.pdb
     RDKit          3D

 24 23  0  0  1  0  0  0  0  0999 V2000
    8.4100  -16.5759   20.7656 N   0  0  0  0  0  0  0  0  0  0  0  0
    7.7596  -16.7647   22.0264 C   0  0  1  0  0  0  0  0  0  0  0  0
    7.3853  -18.2005   22.2008 C   0  0  0  0  0  0  0  0  0  0  0  0
    6.3787  -18.3345   23.7130 S   0  0  0  0  0  0  0  0  0  0  0  0
    8.6590  -16.3148   23.1402 C   0  0  0  0  0  0  0  0  0  0  0  0
    9.9151  -16.4886   22.9833 O   0  0  0  0  0  0  0  0  0  0  0  0
    8.5981  -12.7212   28.1758 C   0  0  0  0  0  0  0  0  0  0  0  0
    9.2512  -13.8161   27.3603 C   0  0  0  0  0  0  0  0  0  0  0  0
    8.3816  -14.1936   26.1648 C   0  0  2  0  0  0  0  0  0  0  0  0
    7.0890  -14.7346   26.7348 C   0  0  0  0  0  0  0  0  0  0  0  0
    9.0461  -15.2782   25.3448 C   0  0  2  0  0  0  0  0  0  0  0  0
    8.1204  -15.7271   24.3034 N   0  0  0  0  0  0  0  0  0  0  0  0
    9.2916  -16.4616   26.2144 C   0  0  0  0  0  0  0  0  0  0  0  0
    8.2369  -17.1119   26.5742 O   0  0  0  0  0  0  0  0  0  0  0  0
   10.5274  -16.9240   26.6619 N   0  0  0  0  0  0  0  0  0  0  0  0
   10.6132  -18.1886   27.4162 C   0  0  1  0  0  0  0  0  0  0  0  0
   11.7658  -18.9705   26.8871 C   0  0  0  0  0  0  0  0  0  0  0  0
   11.5201  -19.8906   25.7619 C   0  0  0  0  0  0  0  0  0  0  0  0
   12.3313  -19.6347   24.5438 C   0  0  0  0  0  0  0  0  0  0  0  0
   11.9465  -20.5614   23.4109 C   0  0  0  0  0  0  0  0  0  0  0  0
   12.7909  -20.3355   22.2555 N   0  0  0  0  0  0  0  0  0  0  0  0
   10.5643  -17.9076   28.8362 C   0  0  0  0  0  0  0  0  0  0  0  0
   10.3090  -18.9099   29.7568 O   0  0  0  0  0  0  0  0  0  0  0  0
   10.7505  -16.7590   29.2938 O   0  0  0  0  0  0  0  0  0  0  0  0
  2  5  1  0
  2  1  1  6
  3  2  1  0
  4  3  1  0
  5  6  2  0
  8  7  1  0
  9 11  1  0
  9  8  1  0
  9 10  1  1
 12  5  1  0
 11 12  1  6
 13 11  1  0
 13 14  2  0
 15 13  1  0
 16 22  1  0
 16 15  1  0
 16 17  1  1
 18 17  1  0
 19 18  1  0
 20 19  1  0
 21 20  1  0
 22 23  1  0
 24 22  2  0
M  END
$$$$
