CIK.pdb
     RDKit          3D

 24 23  0  0  1  0  0  0  0  0999 V2000
    7.6330  -15.8014   20.7164 N   0  0  0  0  0  0  0  0  0  0  0  0
    7.0191  -16.0697   21.9810 C   0  0  1  0  0  0  0  0  0  0  0  0
    6.8880  -17.5438   22.1854 C   0  0  0  0  0  0  0  0  0  0  0  0
    6.0785  -17.8137   23.7947 S   0  0  0  0  0  0  0  0  0  0  0  0
    7.8277  -15.4538   23.0850 C   0  0  0  0  0  0  0  0  0  0  0  0
    9.0995  -15.4850   22.9651 O   0  0  0  0  0  0  0  0  0  0  0  0
    5.6853  -11.4202   26.1217 C   0  0  0  0  0  0  0  0  0  0  0  0
    6.7252  -12.2004   25.3469 C   0  0  0  0  0  0  0  0  0  0  0  0
    7.1942  -13.4156   26.1412 C   0  0  2  0  0  0  0  0  0  0  0  0
    8.0594  -12.8818   27.2614 C   0  0  0  0  0  0  0  0  0  0  0  0
    8.0296  -14.3299   25.2715 C   0  0  2  0  0  0  0  0  0  0  0  0
    7.1914  -14.8700   24.1997 N   0  0  0  0  0  0  0  0  0  0  0  0
    8.4679  -15.5008   26.0800 C   0  0  0  0  0  0  0  0  0  0  0  0
    7.5220  -16.2808   26.4819 O   0  0  0  0  0  0  0  0  0  0  0  0
    9.7762  -15.8274   26.4312 N   0  0  0  0  0  0  0  0  0  0  0  0
   10.0476  -17.0487   27.2123 C   0  0  1  0  0  0  0  0  0  0  0  0
   10.9401  -17.9290   26.4070 C   0  0  0  0  0  0  0  0  0  0  0  0
   11.4372  -19.1683   27.0317 C   0  0  0  0  0  0  0  0  0  0  0  0
   12.3420  -19.9874   26.1846 C   0  0  0  0  0  0  0  0  0  0  0  0
   12.8747  -21.1890   26.9348 C   0  0  0  0  0  0  0  0  0  0  0  0
   13.6602  -22.0332   26.0576 N   0  0  0  0  0  0  0  0  0  0  0  0
   10.4645  -16.6829   28.5503 C   0  0  0  0  0  0  0  0  0  0  0  0
   10.8091  -15.3785   28.8621 O   0  0  0  0  0  0  0  0  0  0  0  0
   10.5305  -17.5182   29.4783 O   0  0  0  0  0  0  0  0  0  0  0  0
  2  5  1  0
  2  1  1  6
  3  2  1  0
  4  3  1  0
  5  6  2  0
  8  7  1  0
  9 11  1  0
  9  8  1  0
  9 10  1  1
 12  5  1  0
 11 12  1  6
 13 11  1  0
 13 14  2  0
 15 13  1  0
 16 22  1  0
 16 15  1  0
 16 17  1  6
 18 17  1  0
 19 18  1  0
 20 19  1  0
 21 20  1  0
 22 23  1  0
 24 22  2  0
M  END
$$$$
