CIK.pdb
     RDKit          3D

 24 23  0  0  1  0  0  0  0  0999 V2000
    5.1003  -19.6158   24.8464 N   0  0  0  0  0  0  0  0  0  0  0  0
    5.9619  -18.8948   25.7330 C   0  0  1  0  0  0  0  0  0  0  0  0
    7.0783  -19.7749   26.1922 C   0  0  0  0  0  0  0  0  0  0  0  0
    7.9074  -18.9430   27.5845 S   0  0  0  0  0  0  0  0  0  0  0  0
    6.5006  -17.6745   25.0454 C   0  0  0  0  0  0  0  0  0  0  0  0
    6.6561  -17.7383   23.7788 O   0  0  0  0  0  0  0  0  0  0  0  0
    6.0100  -12.5920   27.2949 C   0  0  0  0  0  0  0  0  0  0  0  0
    6.0186  -13.6755   26.2382 C   0  0  0  0  0  0  0  0  0  0  0  0
    7.4371  -14.1799   25.9906 C   0  0  2  0  0  0  0  0  0  0  0  0
    8.1731  -13.0533   25.2997 C   0  0  0  0  0  0  0  0  0  0  0  0
    7.4210  -15.3862   25.0768 C   0  0  2  0  0  0  0  0  0  0  0  0
    6.8160  -16.5159   25.7846 N   0  0  0  0  0  0  0  0  0  0  0  0
    8.8236  -15.7896   24.7820 C   0  0  0  0  0  0  0  0  0  0  0  0
    9.5027  -16.2105   25.7950 O   0  0  0  0  0  0  0  0  0  0  0  0
    9.4551  -15.7594   23.5403 N   0  0  0  0  0  0  0  0  0  0  0  0
   10.7661  -16.4117   23.3631 C   0  0  1  0  0  0  0  0  0  0  0  0
   10.9071  -16.7942   21.9300 C   0  0  0  0  0  0  0  0  0  0  0  0
   10.0645  -17.8909   21.4200 C   0  0  0  0  0  0  0  0  0  0  0  0
   10.2973  -18.2630   20.0006 C   0  0  0  0  0  0  0  0  0  0  0  0
    9.3666  -19.3691   19.5525 C   0  0  0  0  0  0  0  0  0  0  0  0
    9.6201  -19.7230   18.1707 N   0  0  0  0  0  0  0  0  0  0  0  0
   11.7981  -15.5912   23.9626 C   0  0  0  0  0  0  0  0  0  0  0  0
   13.0083  -16.1365   24.3570 O   0  0  0  0  0  0  0  0  0  0  0  0
   11.6480  -14.3641   24.1488 O   0  0  0  0  0  0  0  0  0  0  0  0
  2  5  1  0
  2  1  1  6
  3  2  1  0
  4  3  1  0
  5  6  2  0
  8  7  1  0
  9 11  1  0
  9  8  1  0
  9 10  1  6
 12  5  1  0
 11 12  1  1
 13 11  1  0
 13 14  2  0
 15 13  1  0
 16 22  1  0
 16 15  1  0
 16 17  1  6
 18 17  1  0
 19 18  1  0
 20 19  1  0
 21 20  1  0
 22 23  1  0
 24 22  2  0
M  END
$$$$
