CIK.pdb
     RDKit          3D

 24 23  0  0  1  0  0  0  0  0999 V2000
    7.1706  -15.5762   20.3406 N   0  0  0  0  0  0  0  0  0  0  0  0
    6.5966  -15.9140   21.6073 C   0  0  1  0  0  0  0  0  0  0  0  0
    6.3661  -17.3878   21.6897 C   0  0  0  0  0  0  0  0  0  0  0  0
    5.6445  -17.7488   23.3228 S   0  0  0  0  0  0  0  0  0  0  0  0
    7.4980  -15.4581   22.7171 C   0  0  0  0  0  0  0  0  0  0  0  0
    8.7573  -15.5613   22.5267 O   0  0  0  0  0  0  0  0  0  0  0  0
    6.0551  -11.3793   26.0460 C   0  0  0  0  0  0  0  0  0  0  0  0
    6.9222  -12.2848   25.1983 C   0  0  0  0  0  0  0  0  0  0  0  0
    7.2001  -13.6001   25.9198 C   0  0  2  0  0  0  0  0  0  0  0  0
    8.1420  -13.2694   27.0564 C   0  0  0  0  0  0  0  0  0  0  0  0
    7.8802  -14.5830   24.9914 C   0  0  2  0  0  0  0  0  0  0  0  0
    6.9578  -14.9404   23.9123 N   0  0  0  0  0  0  0  0  0  0  0  0
    8.1512  -15.8441   25.7350 C   0  0  0  0  0  0  0  0  0  0  0  0
    7.1114  -16.4362   26.2173 O   0  0  0  0  0  0  0  0  0  0  0  0
    9.3956  -16.4332   25.9497 N   0  0  0  0  0  0  0  0  0  0  0  0
    9.4913  -17.7096   26.6826 C   0  0  1  0  0  0  0  0  0  0  0  0
   10.0353  -18.7408   25.7550 C   0  0  0  0  0  0  0  0  0  0  0  0
   10.3310  -20.0773   26.3021 C   0  0  0  0  0  0  0  0  0  0  0  0
   11.0486  -20.9959   25.3809 C   0  0  0  0  0  0  0  0  0  0  0  0
   11.1808  -22.3848   25.9670 C   0  0  0  0  0  0  0  0  0  0  0  0
   12.0171  -23.2176   25.1267 N   0  0  0  0  0  0  0  0  0  0  0  0
   10.1677  -17.4916   27.9447 C   0  0  0  0  0  0  0  0  0  0  0  0
   10.0663  -18.4061   28.9795 O   0  0  0  0  0  0  0  0  0  0  0  0
   10.8698  -16.4791   28.1569 O   0  0  0  0  0  0  0  0  0  0  0  0
  2  5  1  0
  2  1  1  6
  3  2  1  0
  4  3  1  0
  5  6  2  0
  8  7  1  0
  9 11  1  0
  9  8  1  0
  9 10  1  1
 12  5  1  0
 11 12  1  6
 13 11  1  0
 13 14  2  0
 15 13  1  0
 16 22  1  0
 16 15  1  0
 16 17  1  6
 18 17  1  0
 19 18  1  0
 20 19  1  0
 21 20  1  0
 22 23  1  0
 24 22  2  0
M  END
$$$$
