CIK.pdb
     RDKit          3D

 24 23  0  0  1  0  0  0  0  0999 V2000
    8.0024  -14.8574   19.7324 N   0  0  0  0  0  0  0  0  0  0  0  0
    7.2222  -15.2111   20.8789 C   0  0  1  0  0  0  0  0  0  0  0  0
    6.8804  -16.6649   20.8384 C   0  0  0  0  0  0  0  0  0  0  0  0
    5.8110  -17.0262   22.2680 S   0  0  0  0  0  0  0  0  0  0  0  0
    7.9756  -14.8810   22.1340 C   0  0  0  0  0  0  0  0  0  0  0  0
    9.2346  -15.0990   22.1341 O   0  0  0  0  0  0  0  0  0  0  0  0
    7.2978  -11.5394   27.3006 C   0  0  0  0  0  0  0  0  0  0  0  0
    8.0860  -12.5361   26.4786 C   0  0  0  0  0  0  0  0  0  0  0  0
    7.2874  -12.9845   25.2584 C   0  0  2  0  0  0  0  0  0  0  0  0
    6.0776  -13.7205   25.7906 C   0  0  0  0  0  0  0  0  0  0  0  0
    8.1028  -13.9346   24.4084 C   0  0  2  0  0  0  0  0  0  0  0  0
    7.3034  -14.3531   23.2556 N   0  0  0  0  0  0  0  0  0  0  0  0
    8.3758  -15.1719   25.1902 C   0  0  0  0  0  0  0  0  0  0  0  0
    7.4183  -16.0365   25.2096 O   0  0  0  0  0  0  0  0  0  0  0  0
    9.5449  -15.4777   25.8838 N   0  0  0  0  0  0  0  0  0  0  0  0
    9.7705  -16.8474   26.3824 C   0  0  1  0  0  0  0  0  0  0  0  0
   10.8296  -17.4798   25.5468 C   0  0  0  0  0  0  0  0  0  0  0  0
   11.3237  -18.8102   25.9453 C   0  0  0  0  0  0  0  0  0  0  0  0
   12.4729  -19.3233   25.1558 C   0  0  0  0  0  0  0  0  0  0  0  0
   12.9728  -20.6474   25.6917 C   0  0  0  0  0  0  0  0  0  0  0  0
   14.0914  -21.1281   24.9064 N   0  0  0  0  0  0  0  0  0  0  0  0
    9.9536  -16.8139   27.8187 C   0  0  0  0  0  0  0  0  0  0  0  0
    9.9944  -17.9807   28.5634 O   0  0  0  0  0  0  0  0  0  0  0  0
   10.0843  -15.7414   28.4478 O   0  0  0  0  0  0  0  0  0  0  0  0
  2  5  1  0
  2  1  1  6
  3  2  1  0
  4  3  1  0
  5  6  2  0
  8  7  1  0
  9 11  1  0
  9  8  1  0
  9 10  1  1
 12  5  1  0
 11 12  1  6
 13 11  1  0
 13 14  2  0
 15 13  1  0
 16 22  1  0
 16 15  1  0
 16 17  1  6
 18 17  1  0
 19 18  1  0
 20 19  1  0
 21 20  1  0
 22 23  1  0
 24 22  2  0
M  END
$$$$
