CIK.pdb
     RDKit          3D

 24 23  0  0  1  0  0  0  0  0999 V2000
    7.7686  -15.0889   19.8504 N   0  0  0  0  0  0  0  0  0  0  0  0
    7.1139  -15.3986   21.0847 C   0  0  1  0  0  0  0  0  0  0  0  0
    6.9047  -16.8735   21.1987 C   0  0  0  0  0  0  0  0  0  0  0  0
    5.5528  -17.3340   20.0681 S   0  0  0  0  0  0  0  0  0  0  0  0
    7.9273  -14.8904   22.2388 C   0  0  0  0  0  0  0  0  0  0  0  0
    9.1917  -14.8105   22.0721 O   0  0  0  0  0  0  0  0  0  0  0  0
    7.3013  -11.4780   27.3210 C   0  0  0  0  0  0  0  0  0  0  0  0
    8.1223  -12.4518   26.5036 C   0  0  0  0  0  0  0  0  0  0  0  0
    7.3219  -12.9688   25.3120 C   0  0  2  0  0  0  0  0  0  0  0  0
    6.1130  -13.6735   25.8868 C   0  0  0  0  0  0  0  0  0  0  0  0
    8.1362  -13.9656   24.5160 C   0  0  2  0  0  0  0  0  0  0  0  0
    7.3032  -14.5215   23.4482 N   0  0  0  0  0  0  0  0  0  0  0  0
    8.4948  -15.1115   25.3963 C   0  0  0  0  0  0  0  0  0  0  0  0
    7.5499  -15.9645   25.6064 O   0  0  0  0  0  0  0  0  0  0  0  0
    9.7300  -15.3452   25.9973 N   0  0  0  0  0  0  0  0  0  0  0  0
   10.0166  -16.6561   26.6097 C   0  0  1  0  0  0  0  0  0  0  0  0
   11.2030  -17.2418   25.9247 C   0  0  0  0  0  0  0  0  0  0  0  0
   10.9749  -18.3202   24.9459 C   0  0  0  0  0  0  0  0  0  0  0  0
   12.1899  -18.8068   24.2428 C   0  0  0  0  0  0  0  0  0  0  0  0
   11.8802  -19.9795   23.3377 C   0  0  0  0  0  0  0  0  0  0  0  0
   13.0908  -20.4857   22.7235 N   0  0  0  0  0  0  0  0  0  0  0  0
   10.0510  -16.5180   28.0511 C   0  0  0  0  0  0  0  0  0  0  0  0
   10.2046  -17.6216   28.8733 O   0  0  0  0  0  0  0  0  0  0  0  0
    9.9468  -15.4074   28.6157 O   0  0  0  0  0  0  0  0  0  0  0  0
  2  5  1  0
  2  1  1  6
  3  2  1  0
  4  3  1  0
  5  6  2  0
  8  7  1  0
  9 11  1  0
  9  8  1  0
  9 10  1  1
 12  5  1  0
 11 12  1  6
 13 11  1  0
 13 14  2  0
 15 13  1  0
 16 22  1  0
 16 15  1  0
 16 17  1  6
 18 17  1  0
 19 18  1  0
 20 19  1  0
 21 20  1  0
 22 23  1  0
 24 22  2  0
M  END
$$$$
