CIK.pdb
     RDKit          3D

 24 23  0  0  1  0  0  0  0  0999 V2000
    8.1002  -15.0890   20.4519 N   0  0  0  0  0  0  0  0  0  0  0  0
    7.4960  -15.6052   21.6421 C   0  0  1  0  0  0  0  0  0  0  0  0
    7.5389  -17.0986   21.6333 C   0  0  0  0  0  0  0  0  0  0  0  0
    6.0875  -17.6926   20.7068 S   0  0  0  0  0  0  0  0  0  0  0  0
    8.2009  -15.0643   22.8515 C   0  0  0  0  0  0  0  0  0  0  0  0
    9.4474  -14.8084   22.7355 O   0  0  0  0  0  0  0  0  0  0  0  0
    5.7049  -11.7509   26.3912 C   0  0  0  0  0  0  0  0  0  0  0  0
    6.7259  -12.4167   25.4941 C   0  0  0  0  0  0  0  0  0  0  0  0
    7.3019  -13.6627   26.1600 C   0  0  2  0  0  0  0  0  0  0  0  0
    8.0810  -13.1788   27.3630 C   0  0  0  0  0  0  0  0  0  0  0  0
    8.2479  -14.3790   25.2206 C   0  0  2  0  0  0  0  0  0  0  0  0
    7.4987  -14.8545   24.0562 N   0  0  0  0  0  0  0  0  0  0  0  0
    8.7726  -15.5972   25.8971 C   0  0  0  0  0  0  0  0  0  0  0  0
    7.8779  -16.4351   26.2997 O   0  0  0  0  0  0  0  0  0  0  0  0
   10.1106  -15.9111   26.1265 N   0  0  0  0  0  0  0  0  0  0  0  0
   10.4658  -17.1547   26.8357 C   0  0  1  0  0  0  0  0  0  0  0  0
   11.6232  -17.7777   26.1342 C   0  0  0  0  0  0  0  0  0  0  0  0
   11.5333  -17.9561   24.6737 C   0  0  0  0  0  0  0  0  0  0  0  0
   12.7667  -18.4635   24.0190 C   0  0  0  0  0  0  0  0  0  0  0  0
   12.5701  -18.6591   22.5313 C   0  0  0  0  0  0  0  0  0  0  0  0
   13.7901  -19.1355   21.9120 N   0  0  0  0  0  0  0  0  0  0  0  0
   10.5828  -16.8847   28.2539 C   0  0  0  0  0  0  0  0  0  0  0  0
   10.5882  -17.9131   29.1811 O   0  0  0  0  0  0  0  0  0  0  0  0
   10.6857  -15.7227   28.7036 O   0  0  0  0  0  0  0  0  0  0  0  0
  2  5  1  0
  2  1  1  6
  3  2  1  0
  4  3  1  0
  5  6  2  0
  8  7  1  0
  9 11  1  0
  9  8  1  0
  9 10  1  1
 12  5  1  0
 11 12  1  6
 13 11  1  0
 13 14  2  0
 15 13  1  0
 16 22  1  0
 16 15  1  0
 16 17  1  6
 18 17  1  0
 19 18  1  0
 20 19  1  0
 21 20  1  0
 22 23  1  0
 24 22  2  0
M  END
$$$$
