CIK.pdb
     RDKit          3D

 24 23  0  0  1  0  0  0  0  0999 V2000
    7.6240  -14.9608   20.3212 N   0  0  0  0  0  0  0  0  0  0  0  0
    7.0211  -15.4636   21.5178 C   0  0  1  0  0  0  0  0  0  0  0  0
    6.9328  -16.9539   21.4609 C   0  0  0  0  0  0  0  0  0  0  0  0
    6.1615  -17.5262   23.0086 S   0  0  0  0  0  0  0  0  0  0  0  0
    7.8145  -15.0275   22.7146 C   0  0  0  0  0  0  0  0  0  0  0  0
    9.0871  -15.0179   22.6000 O   0  0  0  0  0  0  0  0  0  0  0  0
    5.7300  -11.3841   26.2753 C   0  0  0  0  0  0  0  0  0  0  0  0
    6.7296  -12.1011   25.3936 C   0  0  0  0  0  0  0  0  0  0  0  0
    7.1341  -13.4375   26.0086 C   0  0  2  0  0  0  0  0  0  0  0  0
    7.9595  -13.1083   27.2329 C   0  0  0  0  0  0  0  0  0  0  0  0
    7.9871  -14.2313   25.0429 C   0  0  2  0  0  0  0  0  0  0  0  0
    7.1636  -14.6479   23.9065 N   0  0  0  0  0  0  0  0  0  0  0  0
    8.4334  -15.4860   25.7088 C   0  0  0  0  0  0  0  0  0  0  0  0
    7.4924  -16.3119   26.0202 O   0  0  0  0  0  0  0  0  0  0  0  0
    9.7443  -15.8447   26.0160 N   0  0  0  0  0  0  0  0  0  0  0  0
   10.0261  -17.1563   26.6293 C   0  0  1  0  0  0  0  0  0  0  0  0
   11.0334  -17.8590   25.7859 C   0  0  0  0  0  0  0  0  0  0  0  0
   11.5319  -19.1670   26.2480 C   0  0  0  0  0  0  0  0  0  0  0  0
   12.5763  -19.7869   25.3923 C   0  0  0  0  0  0  0  0  0  0  0  0
   12.9743  -21.1562   25.8990 C   0  0  0  0  0  0  0  0  0  0  0  0
   13.9818  -21.7465   25.0414 N   0  0  0  0  0  0  0  0  0  0  0  0
   10.3097  -16.9790   28.0385 C   0  0  0  0  0  0  0  0  0  0  0  0
   10.2510  -18.0445   28.9209 O   0  0  0  0  0  0  0  0  0  0  0  0
   10.6197  -15.8676   28.5200 O   0  0  0  0  0  0  0  0  0  0  0  0
  2  5  1  0
  2  1  1  6
  3  2  1  0
  4  3  1  0
  5  6  2  0
  8  7  1  0
  9 11  1  0
  9  8  1  0
  9 10  1  1
 12  5  1  0
 11 12  1  6
 13 11  1  0
 13 14  2  0
 15 13  1  0
 16 22  1  0
 16 15  1  0
 16 17  1  6
 18 17  1  0
 19 18  1  0
 20 19  1  0
 21 20  1  0
 22 23  1  0
 24 22  2  0
M  END
$$$$
