CIK.pdb
     RDKit          3D

 24 23  0  0  1  0  0  0  0  0999 V2000
    7.3202  -14.7051   20.1915 N   0  0  0  0  0  0  0  0  0  0  0  0
    6.8810  -15.3196   21.4070 C   0  0  1  0  0  0  0  0  0  0  0  0
    6.9300  -16.8071   21.2771 C   0  0  0  0  0  0  0  0  0  0  0  0
    5.2957  -17.3708   20.7032 S   0  0  0  0  0  0  0  0  0  0  0  0
    7.7363  -14.8615   22.5518 C   0  0  0  0  0  0  0  0  0  0  0  0
    8.9923  -14.7617   22.3393 O   0  0  0  0  0  0  0  0  0  0  0  0
    5.8536  -11.4427   26.4556 C   0  0  0  0  0  0  0  0  0  0  0  0
    6.7868  -12.0987   25.4609 C   0  0  0  0  0  0  0  0  0  0  0  0
    7.2436  -13.4643   25.9652 C   0  0  2  0  0  0  0  0  0  0  0  0
    8.1363  -13.1991   27.1573 C   0  0  0  0  0  0  0  0  0  0  0  0
    8.0472  -14.1824   24.9027 C   0  0  2  0  0  0  0  0  0  0  0  0
    7.1585  -14.5589   23.8020 N   0  0  0  0  0  0  0  0  0  0  0  0
    8.5656  -15.4589   25.4673 C   0  0  0  0  0  0  0  0  0  0  0  0
    7.6658  -16.3118   25.8241 O   0  0  0  0  0  0  0  0  0  0  0  0
    9.9028  -15.8114   25.6381 N   0  0  0  0  0  0  0  0  0  0  0  0
   10.2560  -17.1717   26.0859 C   0  0  1  0  0  0  0  0  0  0  0  0
   11.4406  -17.6271   25.3054 C   0  0  0  0  0  0  0  0  0  0  0  0
   12.0886  -18.8898   25.7039 C   0  0  0  0  0  0  0  0  0  0  0  0
   12.3558  -19.8433   24.5963 C   0  0  0  0  0  0  0  0  0  0  0  0
   12.9894  -21.1220   25.0999 C   0  0  0  0  0  0  0  0  0  0  0  0
   13.2315  -22.0392   24.0049 N   0  0  0  0  0  0  0  0  0  0  0  0
   10.3308  -17.1994   27.5320 C   0  0  0  0  0  0  0  0  0  0  0  0
   10.5371  -16.0404   28.2613 O   0  0  0  0  0  0  0  0  0  0  0  0
   10.2119  -18.2594   28.1842 O   0  0  0  0  0  0  0  0  0  0  0  0
  2  5  1  0
  2  1  1  6
  3  2  1  0
  4  3  1  0
  5  6  2  0
  8  7  1  0
  9 11  1  0
  9  8  1  0
  9 10  1  1
 12  5  1  0
 11 12  1  6
 13 11  1  0
 13 14  2  0
 15 13  1  0
 16 22  1  0
 16 15  1  0
 16 17  1  6
 18 17  1  0
 19 18  1  0
 20 19  1  0
 21 20  1  0
 22 23  1  0
 24 22  2  0
M  END
$$$$
