CIK.pdb
     RDKit          3D

 24 23  0  0  1  0  0  0  0  0999 V2000
    4.7008  -18.8230   23.1168 N   0  0  0  0  0  0  0  0  0  0  0  0
    5.4259  -18.5225   24.3134 C   0  0  1  0  0  0  0  0  0  0  0  0
    6.2216  -19.7115   24.7437 C   0  0  0  0  0  0  0  0  0  0  0  0
    6.9818  -19.3212   26.3523 S   0  0  0  0  0  0  0  0  0  0  0  0
    6.3233  -17.3412   24.0867 C   0  0  0  0  0  0  0  0  0  0  0  0
    6.8597  -17.2280   22.9325 O   0  0  0  0  0  0  0  0  0  0  0  0
    5.8384  -12.4328   26.7700 C   0  0  0  0  0  0  0  0  0  0  0  0
    6.0794  -13.4284   25.6560 C   0  0  0  0  0  0  0  0  0  0  0  0
    7.3300  -14.2578   25.9313 C   0  0  2  0  0  0  0  0  0  0  0  0
    8.4985  -13.2997   25.8593 C   0  0  0  0  0  0  0  0  0  0  0  0
    7.5058  -15.3236   24.8713 C   0  0  2  0  0  0  0  0  0  0  0  0
    6.5519  -16.4066   25.1175 N   0  0  0  0  0  0  0  0  0  0  0  0
    8.8591  -15.9283   25.0117 C   0  0  0  0  0  0  0  0  0  0  0  0
    9.0123  -16.7125   26.0246 O   0  0  0  0  0  0  0  0  0  0  0  0
    9.9498  -15.7334   24.1668 N   0  0  0  0  0  0  0  0  0  0  0  0
   11.0569  -16.7079   24.1540 C   0  0  1  0  0  0  0  0  0  0  0  0
   11.6892  -16.6784   22.8052 C   0  0  0  0  0  0  0  0  0  0  0  0
   12.8329  -17.5746   22.5569 C   0  0  0  0  0  0  0  0  0  0  0  0
   13.3828  -17.5348   21.1773 C   0  0  0  0  0  0  0  0  0  0  0  0
   14.4329  -18.6032   20.9628 C   0  0  0  0  0  0  0  0  0  0  0  0
   14.9238  -18.5723   19.6001 N   0  0  0  0  0  0  0  0  0  0  0  0
   11.8977  -16.4982   25.3145 C   0  0  0  0  0  0  0  0  0  0  0  0
   12.6910  -17.5153   25.8181 O   0  0  0  0  0  0  0  0  0  0  0  0
   11.9484  -15.3997   25.9094 O   0  0  0  0  0  0  0  0  0  0  0  0
  2  5  1  0
  2  1  1  6
  3  2  1  0
  4  3  1  0
  5  6  2  0
  8  7  1  0
  9 11  1  0
  9  8  1  0
  9 10  1  6
 12  5  1  0
 11 12  1  1
 13 11  1  0
 13 14  2  0
 15 13  1  0
 16 22  1  0
 16 15  1  0
 16 17  1  6
 18 17  1  0
 19 18  1  0
 20 19  1  0
 21 20  1  0
 22 23  1  0
 24 22  2  0
M  END
$$$$
