CIK.pdb
     RDKit          3D

 24 23  0  0  1  0  0  0  0  0999 V2000
    5.6739  -19.6642   25.4440 N   0  0  0  0  0  0  0  0  0  0  0  0
    5.8757  -18.4869   26.2323 C   0  0  1  0  0  0  0  0  0  0  0  0
    6.6984  -18.8106   27.4367 C   0  0  0  0  0  0  0  0  0  0  0  0
    8.0472  -19.9157   26.9100 S   0  0  0  0  0  0  0  0  0  0  0  0
    6.5426  -17.4252   25.4077 C   0  0  0  0  0  0  0  0  0  0  0  0
    6.8758  -17.7358   24.2139 O   0  0  0  0  0  0  0  0  0  0  0  0
    6.0794  -12.0602   26.8617 C   0  0  0  0  0  0  0  0  0  0  0  0
    6.1105  -13.2441   25.9194 C   0  0  0  0  0  0  0  0  0  0  0  0
    7.5149  -13.8343   25.8367 C   0  0  2  0  0  0  0  0  0  0  0  0
    8.3383  -12.8575   25.0266 C   0  0  0  0  0  0  0  0  0  0  0  0
    7.4909  -15.1665   25.1189 C   0  0  2  0  0  0  0  0  0  0  0  0
    6.7827  -16.1444   25.9466 N   0  0  0  0  0  0  0  0  0  0  0  0
    8.8854  -15.6718   24.9883 C   0  0  0  0  0  0  0  0  0  0  0  0
    9.4867  -15.9298   26.1002 O   0  0  0  0  0  0  0  0  0  0  0  0
    9.5838  -15.8912   23.8028 N   0  0  0  0  0  0  0  0  0  0  0  0
   10.9455  -16.4567   23.8423 C   0  0  1  0  0  0  0  0  0  0  0  0
   10.9690  -17.6772   22.9881 C   0  0  0  0  0  0  0  0  0  0  0  0
   10.1890  -18.8471   23.4305 C   0  0  0  0  0  0  0  0  0  0  0  0
   10.3413  -20.0651   22.5935 C   0  0  0  0  0  0  0  0  0  0  0  0
    9.5548  -21.2305   23.1537 C   0  0  0  0  0  0  0  0  0  0  0  0
    9.7516  -22.4166   22.3454 N   0  0  0  0  0  0  0  0  0  0  0  0
   11.9105  -15.4099   23.5760 C   0  0  0  0  0  0  0  0  0  0  0  0
   13.2349  -15.5419   23.9583 O   0  0  0  0  0  0  0  0  0  0  0  0
   11.5976  -14.3494   22.9927 O   0  0  0  0  0  0  0  0  0  0  0  0
  2  5  1  0
  2  1  1  6
  3  2  1  0
  4  3  1  0
  5  6  2  0
  8  7  1  0
  9 11  1  0
  9  8  1  0
  9 10  1  6
 12  5  1  0
 11 12  1  1
 13 11  1  0
 13 14  2  0
 15 13  1  0
 16 22  1  0
 16 15  1  0
 16 17  1  6
 18 17  1  0
 19 18  1  0
 20 19  1  0
 21 20  1  0
 22 23  1  0
 24 22  2  0
M  END
$$$$
