CIK.pdb
     RDKit          3D

 24 23  0  0  1  0  0  0  0  0999 V2000
    8.3416  -15.1224   20.1508 N   0  0  0  0  0  0  0  0  0  0  0  0
    7.3449  -15.0209   21.1728 C   0  0  1  0  0  0  0  0  0  0  0  0
    6.5114  -16.2604   21.2017 C   0  0  0  0  0  0  0  0  0  0  0  0
    7.6033  -17.6569   21.6208 S   0  0  0  0  0  0  0  0  0  0  0  0
    7.9972  -14.7926   22.5049 C   0  0  0  0  0  0  0  0  0  0  0  0
    9.2557  -14.9996   22.5824 O   0  0  0  0  0  0  0  0  0  0  0  0
    5.6365  -11.2543   25.9821 C   0  0  0  0  0  0  0  0  0  0  0  0
    6.6849  -11.9779   25.1650 C   0  0  0  0  0  0  0  0  0  0  0  0
    7.0270  -13.3255   25.7934 C   0  0  2  0  0  0  0  0  0  0  0  0
    7.7752  -13.0194   27.0720 C   0  0  0  0  0  0  0  0  0  0  0  0
    7.9290  -14.1256   24.8787 C   0  0  2  0  0  0  0  0  0  0  0  0
    7.2351  -14.3673   23.6125 N   0  0  0  0  0  0  0  0  0  0  0  0
    8.1636  -15.4667   25.4813 C   0  0  0  0  0  0  0  0  0  0  0  0
    7.1152  -16.2081   25.6062 O   0  0  0  0  0  0  0  0  0  0  0  0
    9.3841  -15.9854   25.9090 N   0  0  0  0  0  0  0  0  0  0  0  0
    9.4604  -17.3669   26.4201 C   0  0  1  0  0  0  0  0  0  0  0  0
   10.0147  -18.2333   25.3422 C   0  0  0  0  0  0  0  0  0  0  0  0
   11.3250  -17.8741   24.7703 C   0  0  0  0  0  0  0  0  0  0  0  0
   11.8592  -18.8245   23.7610 C   0  0  0  0  0  0  0  0  0  0  0  0
   13.2156  -18.3915   23.2480 C   0  0  0  0  0  0  0  0  0  0  0  0
   13.7777  -19.3999   22.3728 N   0  0  0  0  0  0  0  0  0  0  0  0
   10.1163  -17.3679   27.7115 C   0  0  0  0  0  0  0  0  0  0  0  0
   10.5626  -16.1915   28.2896 O   0  0  0  0  0  0  0  0  0  0  0  0
   10.3069  -18.4198   28.3599 O   0  0  0  0  0  0  0  0  0  0  0  0
  2  5  1  0
  2  1  1  6
  3  2  1  0
  4  3  1  0
  5  6  2  0
  8  7  1  0
  9 11  1  0
  9  8  1  0
  9 10  1  1
 12  5  1  0
 11 12  1  6
 13 11  1  0
 13 14  2  0
 15 13  1  0
 16 22  1  0
 16 15  1  0
 16 17  1  6
 18 17  1  0
 19 18  1  0
 20 19  1  0
 21 20  1  0
 22 23  1  0
 24 22  2  0
M  END
$$$$
