CIK.pdb
     RDKit          3D

 24 23  0  0  1  0  0  0  0  0999 V2000
    7.1286  -15.6130   20.7210 N   0  0  0  0  0  0  0  0  0  0  0  0
    6.6937  -15.9651   22.0382 C   0  0  1  0  0  0  0  0  0  0  0  0
    6.6766  -17.4510   22.1930 C   0  0  0  0  0  0  0  0  0  0  0  0
    6.1076  -17.8291   23.8815 S   0  0  0  0  0  0  0  0  0  0  0  0
    7.5955  -15.3385   23.0610 C   0  0  0  0  0  0  0  0  0  0  0  0
    8.8442  -15.2986   22.7928 O   0  0  0  0  0  0  0  0  0  0  0  0
    5.8030  -11.3880   26.4736 C   0  0  0  0  0  0  0  0  0  0  0  0
    6.7537  -12.1419   25.5690 C   0  0  0  0  0  0  0  0  0  0  0  0
    7.2358  -13.4253   26.2385 C   0  0  2  0  0  0  0  0  0  0  0  0
    8.1740  -12.9992   27.3460 C   0  0  0  0  0  0  0  0  0  0  0  0
    7.9997  -14.2844   25.2542 C   0  0  2  0  0  0  0  0  0  0  0  0
    7.0671  -14.8212   24.2616 N   0  0  0  0  0  0  0  0  0  0  0  0
    8.5592  -15.4629   25.9718 C   0  0  0  0  0  0  0  0  0  0  0  0
    7.6933  -16.3382   26.3572 O   0  0  0  0  0  0  0  0  0  0  0  0
    9.9018  -15.7047   26.2555 N   0  0  0  0  0  0  0  0  0  0  0  0
   10.3134  -16.9999   26.8286 C   0  0  1  0  0  0  0  0  0  0  0  0
   11.4546  -17.5236   26.0267 C   0  0  0  0  0  0  0  0  0  0  0  0
   12.0966  -18.7741   26.4705 C   0  0  0  0  0  0  0  0  0  0  0  0
   13.2557  -19.2173   25.6536 C   0  0  0  0  0  0  0  0  0  0  0  0
   13.8635  -20.4944   26.1920 C   0  0  0  0  0  0  0  0  0  0  0  0
   14.9144  -20.9704   25.3156 N   0  0  0  0  0  0  0  0  0  0  0  0
   10.4826  -16.8620   28.2605 C   0  0  0  0  0  0  0  0  0  0  0  0
   10.5954  -17.9730   29.0791 O   0  0  0  0  0  0  0  0  0  0  0  0
   10.5364  -15.7449   28.8194 O   0  0  0  0  0  0  0  0  0  0  0  0
  2  5  1  0
  2  1  1  6
  3  2  1  0
  4  3  1  0
  5  6  2  0
  8  7  1  0
  9 11  1  0
  9  8  1  0
  9 10  1  1
 12  5  1  0
 11 12  1  6
 13 11  1  0
 13 14  2  0
 15 13  1  0
 16 22  1  0
 16 15  1  0
 16 17  1  6
 18 17  1  0
 19 18  1  0
 20 19  1  0
 21 20  1  0
 22 23  1  0
 24 22  2  0
M  END
$$$$
