TIR.pdb
     RDKit          3D

 27 26  0  0  1  0  0  0  0  0999 V2000
   28.4557  -18.4840  -17.3316 C   0  0  0  0  0  0  0  0  0  0  0  0
   28.1193  -19.2514  -16.0689 C   0  0  1  0  0  0  0  0  0  0  0  0
   26.8641  -19.8470  -16.1454 O   0  0  0  0  0  0  0  0  0  0  0  0
   29.1181  -20.3927  -15.8406 C   0  0  2  0  0  0  0  0  0  0  0  0
   29.0754  -21.3234  -16.9254 N   0  0  0  0  0  0  0  0  0  0  0  0
   28.8443  -21.0321  -14.5289 C   0  0  0  0  0  0  0  0  0  0  0  0
   28.1412  -22.0956  -14.5599 O   0  0  0  0  0  0  0  0  0  0  0  0
   31.2010  -22.8071  -10.7629 C   0  0  0  0  0  0  0  0  0  0  0  0
   31.2361  -21.3403  -11.2551 C   0  0  0  0  0  0  0  0  0  0  0  0
   29.8944  -20.7565  -10.9508 C   0  0  2  0  0  0  0  0  0  0  0  0
   29.4450  -21.0253   -9.5356 C   0  0  0  0  0  0  0  0  0  0  0  0
   28.8772  -21.0464  -11.9978 C   0  0  2  0  0  0  0  0  0  0  0  0
   29.3132  -20.5293  -13.2959 N   0  0  0  0  0  0  0  0  0  0  0  0
   27.5249  -20.5654  -11.7737 C   0  0  0  0  0  0  0  0  0  0  0  0
   27.2726  -19.3323  -11.8792 O   0  0  0  0  0  0  0  0  0  0  0  0
   19.6761  -23.0792  -12.6375 N   0  0  0  0  0  0  0  0  0  0  0  0
   19.4840  -21.6773  -12.7969 C   0  0  0  0  0  0  0  0  0  0  0  0
   18.2826  -21.2365  -12.6121 N   0  0  0  0  0  0  0  0  0  0  0  0
   20.5365  -20.8039  -13.1374 N   0  0  0  0  0  0  0  0  0  0  0  0
   21.8685  -21.3286  -13.2514 C   0  0  0  0  0  0  0  0  0  0  0  0
   22.7516  -20.7769  -12.1245 C   0  0  0  0  0  0  0  0  0  0  0  0
   24.1417  -21.3057  -12.3016 C   0  0  0  0  0  0  0  0  0  0  0  0
   25.0751  -20.7787  -11.2390 C   0  0  2  0  0  0  0  0  0  0  0  0
   26.4076  -21.3738  -11.4375 N   0  0  0  0  0  0  0  0  0  0  0  0
   24.6240  -21.0364   -9.8631 C   0  0  0  0  0  0  0  0  0  0  0  0
   25.3790  -21.8948   -9.0531 O   0  0  0  0  0  0  0  0  0  0  0  0
   23.5911  -20.5393   -9.3367 O   0  0  0  0  0  0  0  0  0  0  0  0
  2  1  1  6
  2  4  1  0
  3  2  1  0
  4  6  1  0
  4  5  1  6
  6  7  2  0
  9  8  1  0
 10  9  1  0
 10 11  1  1
 12 10  1  0
 12 13  1  6
 13  6  1  0
 14 15  2  0
 14 12  1  0
 16 17  1  0
 17 18  2  0
 19 17  1  0
 19 20  1  0
 21 20  1  0
 21 22  1  0
 23 22  1  6
 23 24  1  0
 24 14  1  0
 25 23  1  0
 25 26  1  0
 27 25  2  0
M  END
$$$$
