TIR.pdb
     RDKit          3D

 27 26  0  0  1  0  0  0  0  0999 V2000
   24.1413  -22.1583   -6.2766 C   0  0  0  0  0  0  0  0  0  0  0  0
   24.5512  -21.5907   -7.6206 C   0  0  1  0  0  0  0  0  0  0  0  0
   23.6321  -20.6566   -8.0888 O   0  0  0  0  0  0  0  0  0  0  0  0
   25.8916  -20.8527   -7.5164 C   0  0  2  0  0  0  0  0  0  0  0  0
   25.8048  -19.7824   -6.5719 N   0  0  0  0  0  0  0  0  0  0  0  0
   26.3062  -20.3911   -8.8653 C   0  0  0  0  0  0  0  0  0  0  0  0
   26.2986  -19.1297   -9.0527 O   0  0  0  0  0  0  0  0  0  0  0  0
   30.8219  -21.8076  -10.9065 C   0  0  0  0  0  0  0  0  0  0  0  0
   29.5622  -20.9844  -10.5453 C   0  0  0  0  0  0  0  0  0  0  0  0
   28.5019  -21.3770  -11.5227 C   0  0  2  0  0  0  0  0  0  0  0  0
   28.9427  -21.2269  -12.9580 C   0  0  0  0  0  0  0  0  0  0  0  0
   27.1702  -20.7904  -11.2109 C   0  0  2  0  0  0  0  0  0  0  0  0
   26.6935  -21.2594   -9.9088 N   0  0  0  0  0  0  0  0  0  0  0  0
   26.0983  -21.0084  -12.1670 C   0  0  0  0  0  0  0  0  0  0  0  0
   25.6917  -22.1822  -12.3959 O   0  0  0  0  0  0  0  0  0  0  0  0
   21.7625  -17.9765  -18.0047 N   0  0  0  0  0  0  0  0  0  0  0  0
   20.5191  -18.2160  -17.3534 C   0  0  0  0  0  0  0  0  0  0  0  0
   19.4949  -18.4042  -18.1197 N   0  0  0  0  0  0  0  0  0  0  0  0
   20.3951  -18.2492  -15.9497 N   0  0  0  0  0  0  0  0  0  0  0  0
   21.5596  -18.0192  -15.1414 C   0  0  0  0  0  0  0  0  0  0  0  0
   22.3195  -19.3342  -14.9237 C   0  0  0  0  0  0  0  0  0  0  0  0
   23.4789  -19.0732  -14.0121 C   0  0  0  0  0  0  0  0  0  0  0  0
   24.2972  -20.3209  -13.7844 C   0  0  2  0  0  0  0  0  0  0  0  0
   25.4284  -19.9941  -12.8997 N   0  0  0  0  0  0  0  0  0  0  0  0
   24.8040  -20.9394  -15.0187 C   0  0  0  0  0  0  0  0  0  0  0  0
   26.0154  -20.4841  -15.5557 O   0  0  0  0  0  0  0  0  0  0  0  0
   24.2282  -21.8666  -15.6510 O   0  0  0  0  0  0  0  0  0  0  0  0
  2  1  1  1
  2  4  1  0
  3  2  1  0
  4  6  1  0
  4  5  1  1
  6  7  2  0
  9  8  1  0
 10  9  1  0
 10 11  1  6
 12 10  1  0
 12 13  1  1
 13  6  1  0
 14 15  2  0
 14 12  1  0
 16 17  1  0
 17 18  2  0
 19 17  1  0
 19 20  1  0
 21 20  1  0
 21 22  1  0
 23 22  1  6
 23 24  1  0
 24 14  1  0
 25 23  1  0
 25 26  1  0
 27 25  2  0
M  END
$$$$
