TIR.pdb
     RDKit          3D

 27 26  0  0  1  0  0  0  0  0999 V2000
   25.6868  -21.7721  -17.7993 C   0  0  0  0  0  0  0  0  0  0  0  0
   26.6232  -20.7144  -17.2508 C   0  0  1  0  0  0  0  0  0  0  0  0
   25.9272  -19.6222  -16.7417 O   0  0  0  0  0  0  0  0  0  0  0  0
   27.4530  -21.2697  -16.0866 C   0  0  2  0  0  0  0  0  0  0  0  0
   28.3087  -22.3236  -16.5361 N   0  0  0  0  0  0  0  0  0  0  0  0
   26.5436  -21.6995  -14.9944 C   0  0  0  0  0  0  0  0  0  0  0  0
   26.0762  -22.8823  -15.0874 O   0  0  0  0  0  0  0  0  0  0  0  0
   28.0077  -20.9398  -10.0959 C   0  0  0  0  0  0  0  0  0  0  0  0
   27.3587  -21.6239  -11.3230 C   0  0  0  0  0  0  0  0  0  0  0  0
   26.0033  -21.0148  -11.4830 C   0  0  2  0  0  0  0  0  0  0  0  0
   25.1249  -21.2120  -10.2721 C   0  0  0  0  0  0  0  0  0  0  0  0
   25.3613  -21.3456  -12.7843 C   0  0  2  0  0  0  0  0  0  0  0  0
   26.1894  -20.8826  -13.8990 N   0  0  0  0  0  0  0  0  0  0  0  0
   24.0139  -20.8536  -13.0142 C   0  0  0  0  0  0  0  0  0  0  0  0
   23.8278  -19.6298  -13.2654 O   0  0  0  0  0  0  0  0  0  0  0  0
   16.7255  -20.6918  -16.3958 N   0  0  0  0  0  0  0  0  0  0  0  0
   17.7632  -21.3269  -17.1357 C   0  0  0  0  0  0  0  0  0  0  0  0
   17.8564  -21.0087  -18.3854 N   0  0  0  0  0  0  0  0  0  0  0  0
   18.6493  -22.2546  -16.5517 N   0  0  0  0  0  0  0  0  0  0  0  0
   18.5397  -22.5343  -15.1473 C   0  0  0  0  0  0  0  0  0  0  0  0
   19.3191  -21.4891  -14.3385 C   0  0  0  0  0  0  0  0  0  0  0  0
   20.6939  -22.0187  -14.0686 C   0  0  0  0  0  0  0  0  0  0  0  0
   21.5170  -21.0412  -13.2653 C   0  0  2  0  0  0  0  0  0  0  0  0
   22.8333  -21.6411  -12.9886 N   0  0  0  0  0  0  0  0  0  0  0  0
   20.8915  -20.6283  -12.0000 C   0  0  0  0  0  0  0  0  0  0  0  0
   20.0299  -19.5234  -12.0000 O   0  0  0  0  0  0  0  0  0  0  0  0
   21.0681  -21.1966  -10.8878 O   0  0  0  0  0  0  0  0  0  0  0  0
  2  1  1  1
  2  4  1  0
  3  2  1  0
  4  6  1  0
  4  5  1  6
  6  7  2  0
  9  8  1  0
 10  9  1  0
 10 11  1  1
 12 10  1  0
 12 13  1  6
 13  6  1  0
 14 15  2  0
 14 12  1  0
 16 17  1  0
 17 18  2  0
 19 17  1  0
 19 20  1  0
 21 20  1  0
 21 22  1  0
 23 22  1  1
 23 24  1  0
 24 14  1  0
 25 23  1  0
 25 26  1  0
 27 25  2  0
M  END
$$$$
