TIR.pdb
     RDKit          3D

 27 26  0  0  1  0  0  0  0  0999 V2000
   28.4873  -18.4717  -15.7822 C   0  0  0  0  0  0  0  0  0  0  0  0
   27.2919  -19.1312  -15.1246 C   0  0  1  0  0  0  0  0  0  0  0  0
   26.2783  -19.3945  -16.0411 O   0  0  0  0  0  0  0  0  0  0  0  0
   27.6796  -20.4858  -14.5189 C   0  0  2  0  0  0  0  0  0  0  0  0
   28.1208  -21.3856  -15.5390 N   0  0  0  0  0  0  0  0  0  0  0  0
   26.5353  -21.0229  -13.7400 C   0  0  0  0  0  0  0  0  0  0  0  0
   25.9216  -22.0140  -14.2571 O   0  0  0  0  0  0  0  0  0  0  0  0
   26.6920  -20.8211   -8.3748 C   0  0  0  0  0  0  0  0  0  0  0  0
   26.4294  -21.4486   -9.7649 C   0  0  0  0  0  0  0  0  0  0  0  0
   25.1749  -20.8240  -10.2841 C   0  0  2  0  0  0  0  0  0  0  0  0
   23.9695  -21.1311   -9.4298 C   0  0  0  0  0  0  0  0  0  0  0  0
   24.9776  -21.0305  -11.7447 C   0  0  2  0  0  0  0  0  0  0  0  0
   26.1154  -20.5004  -12.4976 N   0  0  0  0  0  0  0  0  0  0  0  0
   23.7717  -20.4858  -12.3446 C   0  0  0  0  0  0  0  0  0  0  0  0
   23.7893  -19.3263  -12.8451 O   0  0  0  0  0  0  0  0  0  0  0  0
   19.0577  -18.4934  -17.4699 N   0  0  0  0  0  0  0  0  0  0  0  0
   20.3830  -18.1640  -17.8734 C   0  0  0  0  0  0  0  0  0  0  0  0
   20.5474  -17.0016  -18.4152 N   0  0  0  0  0  0  0  0  0  0  0  0
   21.4679  -19.0467  -17.6984 N   0  0  0  0  0  0  0  0  0  0  0  0
   21.2378  -20.3185  -17.0723 C   0  0  0  0  0  0  0  0  0  0  0  0
   20.7928  -20.1181  -15.6177 C   0  0  0  0  0  0  0  0  0  0  0  0
   21.8700  -20.6298  -14.7115 C   0  0  0  0  0  0  0  0  0  0  0  0
   21.4338  -20.6129  -13.2667 C   0  0  2  0  0  0  0  0  0  0  0  0
   22.5220  -21.1526  -12.4339 N   0  0  0  0  0  0  0  0  0  0  0  0
   20.1975  -21.3651  -13.0045 C   0  0  0  0  0  0  0  0  0  0  0  0
   18.9651  -20.7176  -13.1620 O   0  0  0  0  0  0  0  0  0  0  0  0
   20.1499  -22.5722  -12.6413 O   0  0  0  0  0  0  0  0  0  0  0  0
  2  1  1  6
  2  4  1  0
  3  2  1  0
  4  6  1  0
  4  5  1  6
  6  7  2  0
  9  8  1  0
 10  9  1  0
 10 11  1  1
 12 10  1  0
 12 13  1  6
 13  6  1  0
 14 15  2  0
 14 12  1  0
 16 17  1  0
 17 18  2  0
 19 17  1  0
 19 20  1  0
 21 20  1  0
 21 22  1  0
 23 22  1  6
 23 24  1  0
 24 14  1  0
 25 23  1  0
 25 26  1  0
 27 25  2  0
M  END
$$$$
