TIR.pdb
     RDKit          3D

 27 26  0  0  1  0  0  0  0  0999 V2000
   26.2189  -20.1479  -16.9242 C   0  0  0  0  0  0  0  0  0  0  0  0
   27.1232  -19.2079  -16.1528 C   0  0  1  0  0  0  0  0  0  0  0  0
   26.3952  -18.3214  -15.3650 O   0  0  0  0  0  0  0  0  0  0  0  0
   28.0281  -19.9871  -15.1904 C   0  0  2  0  0  0  0  0  0  0  0  0
   28.9176  -20.8404  -15.9154 N   0  0  0  0  0  0  0  0  0  0  0  0
   27.1883  -20.7320  -14.2186 C   0  0  0  0  0  0  0  0  0  0  0  0
   26.8296  -21.9039  -14.5708 O   0  0  0  0  0  0  0  0  0  0  0  0
   26.0578  -20.9432   -8.2787 C   0  0  0  0  0  0  0  0  0  0  0  0
   25.2985  -21.1100   -9.6169 C   0  0  0  0  0  0  0  0  0  0  0  0
   26.0878  -20.3722  -10.6495 C   0  0  2  0  0  0  0  0  0  0  0  0
   25.8818  -18.8786  -10.5887 C   0  0  0  0  0  0  0  0  0  0  0  0
   25.9750  -20.9663  -12.0094 C   0  0  2  0  0  0  0  0  0  0  0  0
   26.7864  -20.2146  -12.9681 N   0  0  0  0  0  0  0  0  0  0  0  0
   24.6447  -21.0967  -12.5785 C   0  0  0  0  0  0  0  0  0  0  0  0
   24.1618  -20.1535  -13.2660 O   0  0  0  0  0  0  0  0  0  0  0  0
   20.4406  -27.9695  -15.6700 N   0  0  0  0  0  0  0  0  0  0  0  0
   21.6555  -27.2278  -15.7116 C   0  0  0  0  0  0  0  0  0  0  0  0
   22.6678  -27.8122  -16.2643 N   0  0  0  0  0  0  0  0  0  0  0  0
   21.7648  -25.9258  -15.1830 N   0  0  0  0  0  0  0  0  0  0  0  0
   20.6493  -25.3660  -14.4724 C   0  0  0  0  0  0  0  0  0  0  0  0
   20.8966  -23.8786  -14.1887 C   0  0  0  0  0  0  0  0  0  0  0  0
   22.2048  -23.7376  -13.4731 C   0  0  0  0  0  0  0  0  0  0  0  0
   22.5062  -22.2949  -13.1474 C   0  0  2  0  0  0  0  0  0  0  0  0
   23.7957  -22.2256  -12.4392 N   0  0  0  0  0  0  0  0  0  0  0  0
   21.4692  -21.6326  -12.3420 C   0  0  0  0  0  0  0  0  0  0  0  0
   20.2911  -21.2094  -12.9714 O   0  0  0  0  0  0  0  0  0  0  0  0
   21.5507  -21.4071  -11.1036 O   0  0  0  0  0  0  0  0  0  0  0  0
  2  1  1  1
  2  4  1  0
  3  2  1  0
  4  6  1  0
  4  5  1  6
  6  7  2  0
  9  8  1  0
 10  9  1  0
 10 11  1  6
 12 10  1  0
 12 13  1  6
 13  6  1  0
 14 15  2  0
 14 12  1  0
 16 17  1  0
 17 18  2  0
 19 17  1  0
 19 20  1  0
 21 20  1  0
 21 22  1  0
 23 22  1  1
 23 24  1  0
 24 14  1  0
 25 23  1  0
 25 26  1  0
 27 25  2  0
M  END
$$$$
