TIR.pdb
     RDKit          3D

 27 26  0  0  1  0  0  0  0  0999 V2000
   28.4891  -17.8622  -15.3046 C   0  0  0  0  0  0  0  0  0  0  0  0
   27.3999  -18.7225  -14.6962 C   0  0  1  0  0  0  0  0  0  0  0  0
   26.4274  -19.0624  -15.6316 O   0  0  0  0  0  0  0  0  0  0  0  0
   27.9744  -20.0474  -14.1799 C   0  0  2  0  0  0  0  0  0  0  0  0
   28.4361  -20.8536  -15.2670 N   0  0  0  0  0  0  0  0  0  0  0  0
   26.9539  -20.7374  -13.3510 C   0  0  0  0  0  0  0  0  0  0  0  0
   26.4003  -21.7579  -13.8785 O   0  0  0  0  0  0  0  0  0  0  0  0
   26.9875  -20.3404   -7.8428 C   0  0  0  0  0  0  0  0  0  0  0  0
   26.9256  -20.9988   -9.2419 C   0  0  0  0  0  0  0  0  0  0  0  0
   25.6176  -20.5982   -9.8438 C   0  0  2  0  0  0  0  0  0  0  0  0
   24.4348  -21.0004   -8.9977 C   0  0  0  0  0  0  0  0  0  0  0  0
   25.5043  -20.9463  -11.2864 C   0  0  2  0  0  0  0  0  0  0  0  0
   26.5858  -20.3246  -12.0521 N   0  0  0  0  0  0  0  0  0  0  0  0
   24.2581  -20.6249  -11.9604 C   0  0  0  0  0  0  0  0  0  0  0  0
   23.9562  -19.4178  -12.1774 O   0  0  0  0  0  0  0  0  0  0  0  0
   19.9388  -22.3934  -18.7068 N   0  0  0  0  0  0  0  0  0  0  0  0
   21.1132  -22.9638  -18.1385 C   0  0  0  0  0  0  0  0  0  0  0  0
   22.0488  -23.2984  -18.9660 N   0  0  0  0  0  0  0  0  0  0  0  0
   21.2632  -23.1598  -16.7508 N   0  0  0  0  0  0  0  0  0  0  0  0
   20.1381  -22.9288  -15.8886 C   0  0  0  0  0  0  0  0  0  0  0  0
   20.4625  -21.8150  -14.8844 C   0  0  0  0  0  0  0  0  0  0  0  0
   21.7361  -22.1627  -14.1770 C   0  0  0  0  0  0  0  0  0  0  0  0
   22.0902  -21.1314  -13.1333 C   0  0  2  0  0  0  0  0  0  0  0  0
   23.3047  -21.5685  -12.4243 N   0  0  0  0  0  0  0  0  0  0  0  0
   21.0201  -20.8733  -12.1580 C   0  0  0  0  0  0  0  0  0  0  0  0
   19.9808  -20.0016  -12.5086 O   0  0  0  0  0  0  0  0  0  0  0  0
   20.9558  -21.3813  -11.0051 O   0  0  0  0  0  0  0  0  0  0  0  0
  2  1  1  6
  2  4  1  0
  3  2  1  0
  4  6  1  0
  4  5  1  6
  6  7  2  0
  9  8  1  0
 10  9  1  0
 10 11  1  1
 12 10  1  0
 12 13  1  6
 13  6  1  0
 14 15  2  0
 14 12  1  0
 16 17  1  0
 17 18  2  0
 19 17  1  0
 19 20  1  0
 21 20  1  0
 21 22  1  0
 23 22  1  6
 23 24  1  0
 24 14  1  0
 25 23  1  0
 25 26  1  0
 27 25  2  0
M  END
$$$$
