TIR.pdb
     RDKit          3D

 27 26  0  0  1  0  0  0  0  0999 V2000
   22.0170  -14.4701  -16.5954 C   0  0  0  0  0  0  0  0  0  0  0  0
   22.5691  -15.8144  -16.1660 C   0  0  1  0  0  0  0  0  0  0  0  0
   21.5738  -16.7847  -16.1011 O   0  0  0  0  0  0  0  0  0  0  0  0
   23.6001  -16.3302  -17.1776 C   0  0  2  0  0  0  0  0  0  0  0  0
   22.9762  -16.6111  -18.4333 N   0  0  0  0  0  0  0  0  0  0  0  0
   24.2987  -17.5113  -16.6106 C   0  0  0  0  0  0  0  0  0  0  0  0
   23.7903  -18.6481  -16.8853 O   0  0  0  0  0  0  0  0  0  0  0  0
   28.5473  -17.1981  -17.4391 C   0  0  0  0  0  0  0  0  0  0  0  0
   28.0088  -18.5824  -17.0048 C   0  0  0  0  0  0  0  0  0  0  0  0
   27.6403  -18.4625  -15.5614 C   0  0  2  0  0  0  0  0  0  0  0  0
   28.5202  -19.2937  -14.6604 C   0  0  0  0  0  0  0  0  0  0  0  0
   26.1793  -18.6033  -15.3151 C   0  0  2  0  0  0  0  0  0  0  0  0
   25.4586  -17.4294  -15.8102 N   0  0  0  0  0  0  0  0  0  0  0  0
   25.7464  -18.8303  -13.9470 C   0  0  0  0  0  0  0  0  0  0  0  0
   25.1037  -17.9312  -13.3356 O   0  0  0  0  0  0  0  0  0  0  0  0
   19.6348  -19.9066   -9.9402 N   0  0  0  0  0  0  0  0  0  0  0  0
   20.4799  -20.4874   -8.9523 C   0  0  0  0  0  0  0  0  0  0  0  0
   19.8916  -21.0049   -7.9238 N   0  0  0  0  0  0  0  0  0  0  0  0
   21.8841  -20.5053   -9.0743 N   0  0  0  0  0  0  0  0  0  0  0  0
   22.4911  -19.9035  -10.2283 C   0  0  0  0  0  0  0  0  0  0  0  0
   22.9533  -20.9895  -11.2087 C   0  0  0  0  0  0  0  0  0  0  0  0
   23.7456  -20.3425  -12.3028 C   0  0  0  0  0  0  0  0  0  0  0  0
   25.2155  -20.2867  -11.9647 C   0  0  2  0  0  0  0  0  0  0  0  0
   25.9774  -20.0115  -13.1947 N   0  0  0  0  0  0  0  0  0  0  0  0
   25.7323  -21.5097  -11.3322 C   0  0  0  0  0  0  0  0  0  0  0  0
   25.8983  -21.5338   -9.9411 O   0  0  0  0  0  0  0  0  0  0  0  0
   26.0467  -22.5643  -11.9488 O   0  0  0  0  0  0  0  0  0  0  0  0
  2  1  1  6
  2  4  1  0
  3  2  1  0
  4  6  1  0
  4  5  1  6
  6  7  2  0
  9  8  1  0
 10  9  1  0
 10 11  1  1
 12 10  1  0
 12 13  1  1
 13  6  1  0
 14 15  2  0
 14 12  1  0
 16 17  1  0
 17 18  2  0
 19 17  1  0
 19 20  1  0
 21 20  1  0
 21 22  1  0
 23 22  1  6
 23 24  1  0
 24 14  1  0
 25 23  1  0
 25 26  1  0
 27 25  2  0
M  END
$$$$
