TIR.pdb
     RDKit          3D

 27 26  0  0  1  0  0  0  0  0999 V2000
   22.6853  -21.6716   -8.4796 C   0  0  0  0  0  0  0  0  0  0  0  0
   23.5151  -21.0312   -9.5740 C   0  0  1  0  0  0  0  0  0  0  0  0
   23.1178  -19.7212   -9.8238 O   0  0  0  0  0  0  0  0  0  0  0  0
   24.9921  -20.9572   -9.1676 C   0  0  2  0  0  0  0  0  0  0  0  0
   25.1489  -20.1763   -7.9800 N   0  0  0  0  0  0  0  0  0  0  0  0
   25.7904  -20.4333  -10.3046 C   0  0  0  0  0  0  0  0  0  0  0  0
   26.1082  -19.1998  -10.2447 O   0  0  0  0  0  0  0  0  0  0  0  0
   29.9310  -20.4418  -11.6617 C   0  0  0  0  0  0  0  0  0  0  0  0
   29.1059  -21.7508  -11.6877 C   0  0  0  0  0  0  0  0  0  0  0  0
   28.1323  -21.6184  -12.8138 C   0  0  2  0  0  0  0  0  0  0  0  0
   28.8034  -21.3864  -14.1452 C   0  0  0  0  0  0  0  0  0  0  0  0
   27.0055  -20.6949  -12.5098 C   0  0  2  0  0  0  0  0  0  0  0  0
   26.1962  -21.2161  -11.4071 N   0  0  0  0  0  0  0  0  0  0  0  0
   26.0963  -20.3631  -13.5932 C   0  0  0  0  0  0  0  0  0  0  0  0
   25.3288  -21.2504  -14.0613 O   0  0  0  0  0  0  0  0  0  0  0  0
   21.7478  -13.8595  -17.0099 N   0  0  0  0  0  0  0  0  0  0  0  0
   22.4758  -14.1170  -15.8135 C   0  0  0  0  0  0  0  0  0  0  0  0
   22.0508  -13.5286  -14.7435 N   0  0  0  0  0  0  0  0  0  0  0  0
   23.6012  -14.9650  -15.7809 N   0  0  0  0  0  0  0  0  0  0  0  0
   24.0448  -15.5817  -16.9997 C   0  0  0  0  0  0  0  0  0  0  0  0
   24.1377  -17.1025  -16.8185 C   0  0  0  0  0  0  0  0  0  0  0  0
   24.8828  -17.3901  -15.5515 C   0  0  0  0  0  0  0  0  0  0  0  0
   25.0458  -18.8740  -15.3286 C   0  0  2  0  0  0  0  0  0  0  0  0
   25.9729  -19.0881  -14.2045 N   0  0  0  0  0  0  0  0  0  0  0  0
   25.5287  -19.6081  -16.5079 C   0  0  0  0  0  0  0  0  0  0  0  0
   24.6032  -20.3011  -17.2993 O   0  0  0  0  0  0  0  0  0  0  0  0
   26.7333  -19.6693  -16.8773 O   0  0  0  0  0  0  0  0  0  0  0  0
  2  1  1  1
  2  4  1  0
  3  2  1  0
  4  6  1  0
  4  5  1  1
  6  7  2  0
  9  8  1  0
 10  9  1  0
 10 11  1  6
 12 10  1  0
 12 13  1  1
 13  6  1  0
 14 15  2  0
 14 12  1  0
 16 17  1  0
 17 18  2  0
 19 17  1  0
 19 20  1  0
 21 20  1  0
 21 22  1  0
 23 22  1  6
 23 24  1  0
 24 14  1  0
 25 23  1  0
 25 26  1  0
 27 25  2  0
M  END
$$$$
