TIR.pdb
     RDKit          3D

 27 26  0  0  1  0  0  0  0  0999 V2000
   26.2119  -25.6083  -16.4672 C   0  0  0  0  0  0  0  0  0  0  0  0
   26.6892  -24.6927  -17.5764 C   0  0  1  0  0  0  0  0  0  0  0  0
   25.6374  -23.9855  -18.1507 O   0  0  0  0  0  0  0  0  0  0  0  0
   27.6636  -23.6396  -17.0344 C   0  0  2  0  0  0  0  0  0  0  0  0
   28.8240  -24.2653  -16.4804 N   0  0  0  0  0  0  0  0  0  0  0  0
   26.9592  -22.7743  -16.0548 C   0  0  0  0  0  0  0  0  0  0  0  0
   27.0463  -23.1262  -14.8321 O   0  0  0  0  0  0  0  0  0  0  0  0
   27.8718  -17.6922  -15.9257 C   0  0  0  0  0  0  0  0  0  0  0  0
   27.5606  -19.1631  -15.5590 C   0  0  0  0  0  0  0  0  0  0  0  0
   26.0774  -19.3208  -15.6525 C   0  0  2  0  0  0  0  0  0  0  0  0
   25.3255  -18.2726  -14.8696 C   0  0  0  0  0  0  0  0  0  0  0  0
   25.6208  -20.7194  -15.4277 C   0  0  2  0  0  0  0  0  0  0  0  0
   26.2248  -21.6219  -16.4090 N   0  0  0  0  0  0  0  0  0  0  0  0
   24.1897  -20.9693  -15.4349 C   0  0  0  0  0  0  0  0  0  0  0  0
   23.5418  -20.8717  -16.5148 O   0  0  0  0  0  0  0  0  0  0  0  0
   18.8734  -25.1315  -10.0177 N   0  0  0  0  0  0  0  0  0  0  0  0
   19.7036  -25.4728  -11.1231 C   0  0  0  0  0  0  0  0  0  0  0  0
   20.1062  -26.7000  -11.1831 N   0  0  0  0  0  0  0  0  0  0  0  0
   20.0754  -24.5348  -12.1073 N   0  0  0  0  0  0  0  0  0  0  0  0
   19.4932  -23.2224  -12.0746 C   0  0  0  0  0  0  0  0  0  0  0  0
   19.9453  -22.4137  -13.2976 C   0  0  0  0  0  0  0  0  0  0  0  0
   21.4305  -22.2316  -13.2302 C   0  0  0  0  0  0  0  0  0  0  0  0
   21.9430  -21.4188  -14.3942 C   0  0  2  0  0  0  0  0  0  0  0  0
   23.4105  -21.3318  -14.3053 N   0  0  0  0  0  0  0  0  0  0  0  0
   21.3764  -20.0641  -14.4755 C   0  0  0  0  0  0  0  0  0  0  0  0
   20.3286  -19.8217  -15.3735 O   0  0  0  0  0  0  0  0  0  0  0  0
   21.7617  -19.0778  -13.7901 O   0  0  0  0  0  0  0  0  0  0  0  0
  2  1  1  1
  2  4  1  0
  3  2  1  0
  4  6  1  0
  4  5  1  1
  6  7  2  0
  9  8  1  0
 10  9  1  0
 10 11  1  1
 12 10  1  0
 12 13  1  6
 13  6  1  0
 14 15  2  0
 14 12  1  0
 16 17  1  0
 17 18  2  0
 19 17  1  0
 19 20  1  0
 21 20  1  0
 21 22  1  0
 23 22  1  1
 23 24  1  0
 24 14  1  0
 25 23  1  0
 25 26  1  0
 27 25  2  0
M  END
$$$$
