TIR.pdb
     RDKit          3D

 27 26  0  0  1  0  0  0  0  0999 V2000
   28.4889  -17.8333  -16.8654 C   0  0  0  0  0  0  0  0  0  0  0  0
   28.1664  -18.6991  -15.6643 C   0  0  1  0  0  0  0  0  0  0  0  0
   26.8163  -19.0327  -15.6156 O   0  0  0  0  0  0  0  0  0  0  0  0
   28.9304  -20.0275  -15.7271 C   0  0  2  0  0  0  0  0  0  0  0  0
   28.5701  -20.7602  -16.9011 N   0  0  0  0  0  0  0  0  0  0  0  0
   28.6886  -20.7945  -14.4790 C   0  0  0  0  0  0  0  0  0  0  0  0
   27.8856  -21.7805  -14.5741 O   0  0  0  0  0  0  0  0  0  0  0  0
   32.4211  -21.5844  -10.5104 C   0  0  0  0  0  0  0  0  0  0  0  0
   31.2971  -21.8349  -11.5442 C   0  0  0  0  0  0  0  0  0  0  0  0
   30.0847  -21.1238  -11.0362 C   0  0  2  0  0  0  0  0  0  0  0  0
   29.7419  -21.4918   -9.6136 C   0  0  0  0  0  0  0  0  0  0  0  0
   28.9406  -21.1619  -11.9872 C   0  0  2  0  0  0  0  0  0  0  0  0
   29.2891  -20.4877  -13.2388 N   0  0  0  0  0  0  0  0  0  0  0  0
   27.6737  -20.6106  -11.5382 C   0  0  0  0  0  0  0  0  0  0  0  0
   27.4380  -19.3787  -11.6880 O   0  0  0  0  0  0  0  0  0  0  0  0
   20.1624  -21.0704  -14.8810 N   0  0  0  0  0  0  0  0  0  0  0  0
   20.3639  -19.8373  -14.1980 C   0  0  0  0  0  0  0  0  0  0  0  0
   19.6858  -18.8238  -14.6279 N   0  0  0  0  0  0  0  0  0  0  0  0
   21.2514  -19.7118  -13.1102 N   0  0  0  0  0  0  0  0  0  0  0  0
   22.1529  -20.7909  -12.8181 C   0  0  0  0  0  0  0  0  0  0  0  0
   23.0367  -20.4301  -11.6169 C   0  0  0  0  0  0  0  0  0  0  0  0
   24.3942  -21.0283  -11.8231 C   0  0  0  0  0  0  0  0  0  0  0  0
   25.3157  -20.7245  -10.6669 C   0  0  2  0  0  0  0  0  0  0  0  0
   26.6257  -21.3459  -10.9255 N   0  0  0  0  0  0  0  0  0  0  0  0
   24.8091  -21.1753   -9.3619 C   0  0  0  0  0  0  0  0  0  0  0  0
   23.7102  -20.5142   -8.7975 O   0  0  0  0  0  0  0  0  0  0  0  0
   25.2903  -22.1286   -8.6905 O   0  0  0  0  0  0  0  0  0  0  0  0
  2  1  1  6
  2  4  1  0
  3  2  1  0
  4  6  1  0
  4  5  1  6
  6  7  2  0
  9  8  1  0
 10  9  1  0
 10 11  1  1
 12 10  1  0
 12 13  1  6
 13  6  1  0
 14 15  2  0
 14 12  1  0
 16 17  1  0
 17 18  2  0
 19 17  1  0
 19 20  1  0
 21 20  1  0
 21 22  1  0
 23 22  1  6
 23 24  1  0
 24 14  1  0
 25 23  1  0
 25 26  1  0
 27 25  2  0
M  END
$$$$
