TIR.pdb
     RDKit          3D

 27 26  0  0  1  0  0  0  0  0999 V2000
   31.8343   -8.7246  -20.5041 C   0  0  0  0  0  0  0  0  0  0  0  0
   30.5779   -9.4431  -20.0554 C   0  0  1  0  0  0  0  0  0  0  0  0
   30.8337  -10.7686  -19.7174 O   0  0  0  0  0  0  0  0  0  0  0  0
   29.9940   -8.7888  -18.7971 C   0  0  2  0  0  0  0  0  0  0  0  0
   30.9471   -8.8082  -17.7312 N   0  0  0  0  0  0  0  0  0  0  0  0
   28.7210   -9.4628  -18.4367 C   0  0  0  0  0  0  0  0  0  0  0  0
   27.9166   -9.6924  -19.3992 O   0  0  0  0  0  0  0  0  0  0  0  0
   27.5211  -13.4699  -16.9470 C   0  0  0  0  0  0  0  0  0  0  0  0
   28.2334  -12.5137  -15.9604 C   0  0  0  0  0  0  0  0  0  0  0  0
   27.2628  -11.4203  -15.6511 C   0  0  2  0  0  0  0  0  0  0  0  0
   25.9753  -11.9308  -15.0522 C   0  0  0  0  0  0  0  0  0  0  0  0
   27.0942  -10.4518  -16.7685 C   0  0  2  0  0  0  0  0  0  0  0  0
   28.3786   -9.8450  -17.1216 N   0  0  0  0  0  0  0  0  0  0  0  0
   26.1421   -9.3702  -16.5837 C   0  0  0  0  0  0  0  0  0  0  0  0
   26.3657   -8.4798  -15.7163 O   0  0  0  0  0  0  0  0  0  0  0  0
   20.0906   -5.4325  -21.7324 N   0  0  0  0  0  0  0  0  0  0  0  0
   20.0315   -4.7573  -20.4801 C   0  0  0  0  0  0  0  0  0  0  0  0
   19.2539   -3.7261  -20.4185 N   0  0  0  0  0  0  0  0  0  0  0  0
   20.7746   -5.1778  -19.3586 N   0  0  0  0  0  0  0  0  0  0  0  0
   21.6302   -6.3249  -19.4797 C   0  0  0  0  0  0  0  0  0  0  0  0
   22.3985   -6.5509  -18.1710 C   0  0  0  0  0  0  0  0  0  0  0  0
   23.2842   -7.7476  -18.3350 C   0  0  0  0  0  0  0  0  0  0  0  0
   24.0670   -8.0349  -17.0769 C   0  0  2  0  0  0  0  0  0  0  0  0
   24.9356   -9.2008  -17.3119 N   0  0  0  0  0  0  0  0  0  0  0  0
   23.2302   -8.2787  -15.8924 C   0  0  0  0  0  0  0  0  0  0  0  0
   22.8326   -7.1876  -15.1085 O   0  0  0  0  0  0  0  0  0  0  0  0
   22.8299   -9.4129  -15.5119 O   0  0  0  0  0  0  0  0  0  0  0  0
  2  1  1  1
  2  4  1  0
  3  2  1  0
  4  6  1  0
  4  5  1  1
  6  7  2  0
  9  8  1  0
 10  9  1  0
 10 11  1  6
 12 10  1  0
 12 13  1  1
 13  6  1  0
 14 15  2  0
 14 12  1  0
 16 17  1  0
 17 18  2  0
 19 17  1  0
 19 20  1  0
 21 20  1  0
 21 22  1  0
 23 22  1  6
 23 24  1  0
 24 14  1  0
 25 23  1  0
 25 26  1  0
 27 25  2  0
M  END
$$$$
