TIR.pdb
     RDKit          3D

 27 26  0  0  1  0  0  0  0  0999 V2000
   27.1580  -23.9582  -18.6632 C   0  0  0  0  0  0  0  0  0  0  0  0
   26.3892  -23.0956  -17.6827 C   0  0  1  0  0  0  0  0  0  0  0  0
   25.8130  -23.8545  -16.6686 O   0  0  0  0  0  0  0  0  0  0  0  0
   27.3209  -22.0950  -16.9878 C   0  0  2  0  0  0  0  0  0  0  0  0
   28.4143  -22.7743  -16.3649 N   0  0  0  0  0  0  0  0  0  0  0  0
   26.5372  -21.2759  -16.0289 C   0  0  0  0  0  0  0  0  0  0  0  0
   26.8231  -21.4303  -14.7958 O   0  0  0  0  0  0  0  0  0  0  0  0
   26.9066  -17.4608  -14.3608 C   0  0  0  0  0  0  0  0  0  0  0  0
   26.5118  -17.6557  -15.8444 C   0  0  0  0  0  0  0  0  0  0  0  0
   25.0705  -18.0510  -15.8534 C   0  0  2  0  0  0  0  0  0  0  0  0
   24.1854  -17.0575  -15.1417 C   0  0  0  0  0  0  0  0  0  0  0  0
   24.8497  -19.4729  -15.4733 C   0  0  2  0  0  0  0  0  0  0  0  0
   25.5269  -20.3678  -16.4129 N   0  0  0  0  0  0  0  0  0  0  0  0
   23.4765  -19.9319  -15.3535 C   0  0  0  0  0  0  0  0  0  0  0  0
   22.7566  -20.0315  -16.3865 O   0  0  0  0  0  0  0  0  0  0  0  0
   18.7524  -24.4530   -9.3082 N   0  0  0  0  0  0  0  0  0  0  0  0
   17.9189  -24.3090  -10.4537 C   0  0  0  0  0  0  0  0  0  0  0  0
   16.7612  -24.8822  -10.3987 N   0  0  0  0  0  0  0  0  0  0  0  0
   18.3198  -23.5839  -11.5940 N   0  0  0  0  0  0  0  0  0  0  0  0
   19.6176  -22.9690  -11.6083 C   0  0  0  0  0  0  0  0  0  0  0  0
   19.8052  -22.1620  -12.8997 C   0  0  0  0  0  0  0  0  0  0  0  0
   21.1839  -21.5767  -12.9037 C   0  0  0  0  0  0  0  0  0  0  0  0
   21.4278  -20.7404  -14.1363 C   0  0  2  0  0  0  0  0  0  0  0  0
   22.8332  -20.3001  -14.1431 N   0  0  0  0  0  0  0  0  0  0  0  0
   20.5470  -19.5681  -14.2496 C   0  0  0  0  0  0  0  0  0  0  0  0
   19.3789  -19.6709  -15.0163 O   0  0  0  0  0  0  0  0  0  0  0  0
   20.7576  -18.4509  -13.7029 O   0  0  0  0  0  0  0  0  0  0  0  0
  2  1  1  6
  2  4  1  0
  3  2  1  0
  4  6  1  0
  4  5  1  1
  6  7  2  0
  9  8  1  0
 10  9  1  0
 10 11  1  1
 12 10  1  0
 12 13  1  6
 13  6  1  0
 14 15  2  0
 14 12  1  0
 16 17  1  0
 17 18  2  0
 19 17  1  0
 19 20  1  0
 21 20  1  0
 21 22  1  0
 23 22  1  1
 23 24  1  0
 24 14  1  0
 25 23  1  0
 25 26  1  0
 27 25  2  0
M  END
$$$$
