TIR.pdb
     RDKit          3D

 27 26  0  0  1  0  0  0  0  0999 V2000
   22.1997  -15.0021  -20.3758 C   0  0  0  0  0  0  0  0  0  0  0  0
   22.3672  -13.9912  -19.2594 C   0  0  1  0  0  0  0  0  0  0  0  0
   21.1403  -13.5662  -18.7591 O   0  0  0  0  0  0  0  0  0  0  0  0
   23.1197  -14.6068  -18.0732 C   0  0  2  0  0  0  0  0  0  0  0  0
   22.4384  -15.7688  -17.5932 N   0  0  0  0  0  0  0  0  0  0  0  0
   23.3046  -13.5775  -17.0192 C   0  0  0  0  0  0  0  0  0  0  0  0
   22.5514  -13.6823  -15.9955 O   0  0  0  0  0  0  0  0  0  0  0  0
   28.2645  -12.0229  -15.8062 C   0  0  0  0  0  0  0  0  0  0  0  0
   26.7924  -12.4865  -15.6925 C   0  0  0  0  0  0  0  0  0  0  0  0
   25.9459  -11.2739  -15.9089 C   0  0  2  0  0  0  0  0  0  0  0  0
   26.2907  -10.1429  -14.9713 C   0  0  0  0  0  0  0  0  0  0  0  0
   24.4937  -11.5828  -16.0119 C   0  0  2  0  0  0  0  0  0  0  0  0
   24.2447  -12.5276  -17.1017 N   0  0  0  0  0  0  0  0  0  0  0  0
   23.5796  -10.4678  -16.1899 C   0  0  0  0  0  0  0  0  0  0  0  0
   23.6182   -9.7895  -17.2547 O   0  0  0  0  0  0  0  0  0  0  0  0
   15.0823   -9.4778  -15.7514 N   0  0  0  0  0  0  0  0  0  0  0  0
   15.5535   -8.1520  -15.9701 C   0  0  0  0  0  0  0  0  0  0  0  0
   14.6557   -7.2564  -16.2221 N   0  0  0  0  0  0  0  0  0  0  0  0
   16.9219   -7.8178  -15.9180 N   0  0  0  0  0  0  0  0  0  0  0  0
   17.8771   -8.8397  -15.5928 C   0  0  0  0  0  0  0  0  0  0  0  0
   19.3025   -8.2808  -15.6918 C   0  0  0  0  0  0  0  0  0  0  0  0
   20.2731   -9.3982  -15.4622 C   0  0  0  0  0  0  0  0  0  0  0  0
   21.7016   -8.9192  -15.5513 C   0  0  2  0  0  0  0  0  0  0  0  0
   22.6017  -10.0458  -15.2517 N   0  0  0  0  0  0  0  0  0  0  0  0
   22.0133   -7.7928  -14.6585 C   0  0  0  0  0  0  0  0  0  0  0  0
   22.7390   -8.0398  -13.4858 O   0  0  0  0  0  0  0  0  0  0  0  0
   21.6754   -6.5947  -14.8624 O   0  0  0  0  0  0  0  0  0  0  0  0
  2  1  1  6
  2  4  1  0
  3  2  1  0
  4  6  1  0
  4  5  1  1
  6  7  2  0
  9  8  1  0
 10  9  1  0
 10 11  1  1
 12 10  1  0
 12 13  1  6
 13  6  1  0
 14 15  2  0
 14 12  1  0
 16 17  1  0
 17 18  2  0
 19 17  1  0
 19 20  1  0
 21 20  1  0
 21 22  1  0
 23 22  1  1
 23 24  1  0
 24 14  1  0
 25 23  1  0
 25 26  1  0
 27 25  2  0
M  END
$$$$
