TIR.pdb
     RDKit          3D

 27 26  0  0  1  0  0  0  0  0999 V2000
   30.7435  -20.1337  -12.9559 C   0  0  0  0  0  0  0  0  0  0  0  0
   29.6405  -20.5278  -11.9944 C   0  0  1  0  0  0  0  0  0  0  0  0
   28.7791  -21.4668  -12.5535 O   0  0  0  0  0  0  0  0  0  0  0  0
   30.2215  -21.1812  -10.7344 C   0  0  2  0  0  0  0  0  0  0  0  0
   30.9142  -22.3874  -11.0665 N   0  0  0  0  0  0  0  0  0  0  0  0
   29.1344  -21.4008   -9.7472 C   0  0  0  0  0  0  0  0  0  0  0  0
   28.5998  -22.5585   -9.7508 O   0  0  0  0  0  0  0  0  0  0  0  0
   28.7142  -19.3158   -4.7332 C   0  0  0  0  0  0  0  0  0  0  0  0
   28.6813  -20.2414   -5.9730 C   0  0  0  0  0  0  0  0  0  0  0  0
   27.5191  -19.8007   -6.8030 C   0  0  2  0  0  0  0  0  0  0  0  0
   26.2314  -19.7316   -6.0195 C   0  0  0  0  0  0  0  0  0  0  0  0
   27.4236  -20.5151   -8.1051 C   0  0  2  0  0  0  0  0  0  0  0  0
   28.6859  -20.4169   -8.8396 N   0  0  0  0  0  0  0  0  0  0  0  0
   26.3630  -20.1172   -9.0147 C   0  0  0  0  0  0  0  0  0  0  0  0
   26.5804  -19.2205   -9.8772 O   0  0  0  0  0  0  0  0  0  0  0  0
   22.7858  -20.5951  -15.5537 N   0  0  0  0  0  0  0  0  0  0  0  0
   24.1417  -20.2129  -15.7607 C   0  0  0  0  0  0  0  0  0  0  0  0
   24.3633  -19.3745  -16.7198 N   0  0  0  0  0  0  0  0  0  0  0  0
   25.1971  -20.7127  -14.9712 N   0  0  0  0  0  0  0  0  0  0  0  0
   24.8872  -21.5031  -13.8129 C   0  0  0  0  0  0  0  0  0  0  0  0
   24.3880  -20.6013  -12.6764 C   0  0  0  0  0  0  0  0  0  0  0  0
   24.7211  -21.2495  -11.3679 C   0  0  0  0  0  0  0  0  0  0  0  0
   24.1718  -20.4621  -10.2032 C   0  0  2  0  0  0  0  0  0  0  0  0
   25.0511  -20.6586   -9.0381 N   0  0  0  0  0  0  0  0  0  0  0  0
   22.7911  -20.8140   -9.8392 C   0  0  0  0  0  0  0  0  0  0  0  0
   21.7525  -20.4739  -10.7160 O   0  0  0  0  0  0  0  0  0  0  0  0
   22.4528  -21.4099   -8.7801 O   0  0  0  0  0  0  0  0  0  0  0  0
  2  1  1  6
  2  4  1  0
  3  2  1  0
  4  6  1  0
  4  5  1  6
  6  7  2  0
  9  8  1  0
 10  9  1  0
 10 11  1  1
 12 10  1  0
 12 13  1  6
 13  6  1  0
 14 15  2  0
 14 12  1  0
 16 17  1  0
 17 18  2  0
 19 17  1  0
 19 20  1  0
 21 20  1  0
 21 22  1  0
 23 22  1  6
 23 24  1  0
 24 14  1  0
 25 23  1  0
 25 26  1  0
 27 25  2  0
M  END
$$$$
