RWW.pdb
     RDKit          3D

 40 43  0  0  1  0  0  0  0  0999 V2000
   26.7839  -23.5241  -23.6432 N   0  0  0  0  0  0  0  0  0  0  0  0
   27.6186  -24.5091  -23.0529 C   0  0  0  0  0  0  0  0  0  0  0  0
   28.2027  -25.3764  -23.8004 N   0  0  0  0  0  0  0  0  0  0  0  0
   27.8368  -24.5747  -21.6483 N   0  0  0  0  0  0  0  0  0  0  0  0
   27.0486  -23.8137  -20.7169 C   0  0  0  0  0  0  0  0  0  0  0  0
   27.8467  -22.6444  -20.1936 C   0  0  0  0  0  0  0  0  0  0  0  0
   28.5055  -22.9356  -18.8597 C   0  0  0  0  0  0  0  0  0  0  0  0
   27.4008  -23.1507  -17.8479 C   0  0  2  0  0  0  0  0  0  0  0  0
   26.1398  -22.5783  -18.2663 N   0  0  0  0  0  0  0  0  0  0  0  0
   27.7609  -22.6171  -16.5101 C   0  0  0  0  0  0  0  0  0  0  0  0
   28.8659  -22.8924  -15.9720 O   0  0  0  0  0  0  0  0  0  0  0  0
   28.8080  -26.1312  -23.4652 N   0  0  0  0  0  0  0  0  0  0  0  0
   26.8656  -21.7807  -15.8035 C   0  0  1  0  0  0  0  0  0  0  0  0
   27.0821  -21.2822  -14.4659 C   0  0  0  0  0  0  0  0  0  0  0  0
   27.6054  -19.8883  -14.4632 C   0  0  0  0  0  0  0  0  0  0  0  0
   28.0692  -19.4067  -13.1495 C   0  0  0  0  0  0  0  0  0  0  0  0
   27.4698  -18.3800  -12.4105 N   0  0  0  0  0  0  0  0  0  0  0  0
   28.1682  -18.1976  -11.2798 C   0  0  0  0  0  0  0  0  0  0  0  0
   29.2172  -19.0569  -11.2171 C   0  0  0  0  0  0  0  0  0  0  0  0
   30.1874  -19.2440  -10.2640 C   0  0  0  0  0  0  0  0  0  0  0  0
   31.1408  -20.2102  -10.4534 C   0  0  0  0  0  0  0  0  0  0  0  0
   31.0835  -20.9668  -11.6140 C   0  0  0  0  0  0  0  0  0  0  0  0
   30.1104  -20.7751  -12.5649 C   0  0  0  0  0  0  0  0  0  0  0  0
   29.1455  -19.8069  -12.3890 C   0  0  0  0  0  0  0  0  0  0  0  0
   25.8881  -21.5036  -13.6240 O   0  0  0  0  0  0  0  0  0  0  0  0
   24.7931  -21.0033  -14.0094 N   0  0  0  0  0  0  0  0  0  0  0  0
   25.8618  -22.2283  -12.4255 C   0  0  2  0  0  0  0  0  0  0  0  0
   25.5951  -21.6510  -11.1078 C   0  0  0  0  0  0  0  0  0  0  0  0
   26.8814  -21.1640  -10.5074 C   0  0  0  0  0  0  0  0  0  0  0  0
   26.7627  -20.5356   -9.1960 C   0  0  0  0  0  0  0  0  0  0  0  0
   25.6230  -19.8905   -8.7480 N   0  0  0  0  0  0  0  0  0  0  0  0
   25.8383  -19.4542   -7.4977 C   0  0  0  0  0  0  0  0  0  0  0  0
   27.0742  -19.7872   -7.1082 C   0  0  0  0  0  0  0  0  0  0  0  0
   27.7267  -19.5449   -5.9171 C   0  0  0  0  0  0  0  0  0  0  0  0
   29.0201  -19.9922   -5.7636 C   0  0  0  0  0  0  0  0  0  0  0  0
   29.6275  -20.6651   -6.7946 C   0  0  0  0  0  0  0  0  0  0  0  0
   28.9578  -20.8932   -7.9681 C   0  0  0  0  0  0  0  0  0  0  0  0
   27.6540  -20.4642   -8.1717 C   0  0  0  0  0  0  0  0  0  0  0  0
   24.4604  -20.7531  -11.0550 O   0  0  0  0  0  0  0  0  0  0  0  0
   24.3224  -19.6024  -11.8553 O   0  0  0  0  0  0  0  0  0  0  0  0
  2  3  2  0
  2  1  1  0
  4  2  1  0
  5  4  1  0
  6  5  1  0
  7  6  1  0
  8  7  1  0
  8  9  1  6
 10 12  1  0
 10  8  1  0
 11 10  2  0
 13 14  1  1
 13 24  1  0
 13 12  1  0
 14 15  1  0
 15 16  2  0
 15 23  1  0
 16 17  1  0
 17 18  1  0
 18 19  2  0
 20 19  1  0
 21 20  2  0
 22 23  2  0
 22 21  1  0
 23 18  1  0
 24 26  1  0
 25 24  2  0
 26 27  1  0
 27 38  1  0
 27 28  1  6
 29 28  1  0
 29 30  2  0
 31 30  1  0
 32 31  1  0
 33 32  2  0
 34 33  1  0
 35 34  2  0
 35 36  1  0
 36 37  2  0
 37 32  1  0
 37 29  1  0
 38 40  2  0
 38 39  1  0
M  END
$$$$
