RWW.pdb
     RDKit          3D

 40 43  0  0  1  0  0  0  0  0999 V2000
   28.3369  -28.1510  -17.9629 N   0  0  0  0  0  0  0  0  0  0  0  0
   29.6111  -27.5382  -18.0905 C   0  0  0  0  0  0  0  0  0  0  0  0
   30.5867  -28.2031  -18.5988 N   0  0  0  0  0  0  0  0  0  0  0  0
   29.8538  -26.1999  -17.6723 N   0  0  0  0  0  0  0  0  0  0  0  0
   28.8355  -25.3982  -17.0492 C   0  0  0  0  0  0  0  0  0  0  0  0
   28.1747  -24.5082  -18.0733 C   0  0  0  0  0  0  0  0  0  0  0  0
   27.6539  -23.2155  -17.4764 C   0  0  0  0  0  0  0  0  0  0  0  0
   27.0886  -23.5440  -16.1116 C   0  0  2  0  0  0  0  0  0  0  0  0
   25.7301  -24.0378  -16.1728 N   0  0  0  0  0  0  0  0  0  0  0  0
   27.1455  -22.3801  -15.1917 C   0  0  0  0  0  0  0  0  0  0  0  0
   28.1985  -21.7019  -15.0595 O   0  0  0  0  0  0  0  0  0  0  0  0
   31.5334  -27.8413  -18.7455 N   0  0  0  0  0  0  0  0  0  0  0  0
   26.0105  -22.0024  -14.4371 C   0  0  1  0  0  0  0  0  0  0  0  0
   25.9428  -20.8528  -13.5662 C   0  0  0  0  0  0  0  0  0  0  0  0
   24.9392  -19.8551  -14.0291 C   0  0  0  0  0  0  0  0  0  0  0  0
   23.5355  -20.2833  -13.8909 C   0  0  0  0  0  0  0  0  0  0  0  0
   22.8344  -20.3676  -12.6823 N   0  0  0  0  0  0  0  0  0  0  0  0
   21.5932  -20.8104  -12.9333 C   0  0  0  0  0  0  0  0  0  0  0  0
   21.4192  -21.0307  -14.2613 C   0  0  0  0  0  0  0  0  0  0  0  0
   20.3342  -21.4699  -14.9787 C   0  0  0  0  0  0  0  0  0  0  0  0
   20.4317  -21.5937  -16.3402 C   0  0  0  0  0  0  0  0  0  0  0  0
   21.6371  -21.2657  -16.9419 C   0  0  0  0  0  0  0  0  0  0  0  0
   22.7202  -20.8270  -16.2191 C   0  0  0  0  0  0  0  0  0  0  0  0
   22.6376  -20.6981  -14.8494 C   0  0  0  0  0  0  0  0  0  0  0  0
   25.8045  -21.2708  -12.1557 O   0  0  0  0  0  0  0  0  0  0  0  0
   25.3128  -22.4119  -11.9236 N   0  0  0  0  0  0  0  0  0  0  0  0
   26.1760  -20.5072  -11.0416 C   0  0  1  0  0  0  0  0  0  0  0  0
   25.9116  -20.8777   -9.6511 C   0  0  0  0  0  0  0  0  0  0  0  0
   27.1603  -20.6915   -8.8396 C   0  0  0  0  0  0  0  0  0  0  0  0
   26.9692  -20.6605   -7.3935 C   0  0  0  0  0  0  0  0  0  0  0  0
   26.0060  -21.3959   -6.7248 N   0  0  0  0  0  0  0  0  0  0  0  0
   26.1203  -21.1599   -5.4090 C   0  0  0  0  0  0  0  0  0  0  0  0
   27.1199  -20.2984   -5.1884 C   0  0  0  0  0  0  0  0  0  0  0  0
   27.5927  -19.7689   -4.0055 C   0  0  0  0  0  0  0  0  0  0  0  0
   28.6455  -18.8822   -4.0468 C   0  0  0  0  0  0  0  0  0  0  0  0
   29.1973  -18.5468   -5.2584 C   0  0  0  0  0  0  0  0  0  0  0  0
   28.7095  -19.0866   -6.4195 C   0  0  0  0  0  0  0  0  0  0  0  0
   27.6519  -19.9847   -6.4312 C   0  0  0  0  0  0  0  0  0  0  0  0
   24.6823  -20.3448   -9.1023 O   0  0  0  0  0  0  0  0  0  0  0  0
   23.7654  -21.0929   -8.3386 O   0  0  0  0  0  0  0  0  0  0  0  0
  2  3  2  0
  2  1  1  0
  4  2  1  0
  5  4  1  0
  6  5  1  0
  7  6  1  0
  8  7  1  0
  8  9  1  6
 10 12  1  0
 10  8  1  0
 11 10  2  0
 13 14  1  6
 13 24  1  0
 13 12  1  0
 14 15  1  0
 15 16  2  0
 15 23  1  0
 16 17  1  0
 17 18  1  0
 18 19  2  0
 20 19  1  0
 21 20  2  0
 22 23  2  0
 22 21  1  0
 23 18  1  0
 24 26  1  0
 25 24  2  0
 26 27  1  0
 27 38  1  0
 27 28  1  1
 29 28  1  0
 29 30  2  0
 31 30  1  0
 32 31  1  0
 33 32  2  0
 34 33  1  0
 35 34  2  0
 35 36  1  0
 36 37  2  0
 37 32  1  0
 37 29  1  0
 38 40  2  0
 38 39  1  0
M  END
$$$$
