RWW.pdb
     RDKit          3D

 40 43  0  0  1  0  0  0  0  0999 V2000
   26.1244  -15.9365  -14.6982 N   0  0  0  0  0  0  0  0  0  0  0  0
   26.9629  -16.1156  -15.8296 C   0  0  0  0  0  0  0  0  0  0  0  0
   26.7828  -15.3885  -16.8741 N   0  0  0  0  0  0  0  0  0  0  0  0
   28.0083  -17.0808  -15.8530 N   0  0  0  0  0  0  0  0  0  0  0  0
   28.1663  -18.0604  -14.8123 C   0  0  0  0  0  0  0  0  0  0  0  0
   27.7165  -19.4158  -15.3008 C   0  0  0  0  0  0  0  0  0  0  0  0
   26.8239  -20.1302  -14.3052 C   0  0  0  0  0  0  0  0  0  0  0  0
   27.7116  -20.6510  -13.1957 C   0  0  2  0  0  0  0  0  0  0  0  0
   28.5434  -21.7570  -13.6172 N   0  0  0  0  0  0  0  0  0  0  0  0
   26.9284  -21.0549  -12.0008 C   0  0  0  0  0  0  0  0  0  0  0  0
   26.4122  -22.2004  -11.9139 O   0  0  0  0  0  0  0  0  0  0  0  0
   27.3472  -15.4326  -17.7274 N   0  0  0  0  0  0  0  0  0  0  0  0
   26.7425  -20.1567  -10.9242 C   0  0  2  0  0  0  0  0  0  0  0  0
   25.7573  -20.3114   -9.8802 C   0  0  0  0  0  0  0  0  0  0  0  0
   26.1865  -19.6768   -8.6035 C   0  0  0  0  0  0  0  0  0  0  0  0
   27.4672  -20.1734   -8.0686 C   0  0  0  0  0  0  0  0  0  0  0  0
   28.4375  -20.8592   -8.8087 N   0  0  0  0  0  0  0  0  0  0  0  0
   29.4575  -21.1739   -7.9962 C   0  0  0  0  0  0  0  0  0  0  0  0
   29.2232  -20.7312   -6.7346 C   0  0  0  0  0  0  0  0  0  0  0  0
   29.9713  -20.8112   -5.5862 C   0  0  0  0  0  0  0  0  0  0  0  0
   29.4902  -20.2572   -4.4285 C   0  0  0  0  0  0  0  0  0  0  0  0
   28.2532  -19.6320   -4.4676 C   0  0  0  0  0  0  0  0  0  0  0  0
   27.5084  -19.5552   -5.6197 C   0  0  0  0  0  0  0  0  0  0  0  0
   27.9785  -20.1080   -6.7914 C   0  0  0  0  0  0  0  0  0  0  0  0
   24.4183  -19.9097  -10.3590 O   0  0  0  0  0  0  0  0  0  0  0  0
   24.3392  -18.8940  -11.1072 N   0  0  0  0  0  0  0  0  0  0  0  0
   23.2169  -20.5631  -10.0557 C   0  0  1  0  0  0  0  0  0  0  0  0
   21.9218  -20.2500  -10.6601 C   0  0  0  0  0  0  0  0  0  0  0  0
   22.0861  -20.1084  -12.1452 C   0  0  0  0  0  0  0  0  0  0  0  0
   22.3345  -21.3503  -12.8695 C   0  0  0  0  0  0  0  0  0  0  0  0
   21.5248  -22.4696  -12.7857 N   0  0  0  0  0  0  0  0  0  0  0  0
   22.0180  -23.4197  -13.5945 C   0  0  0  0  0  0  0  0  0  0  0  0
   23.1195  -22.9678  -14.2050 C   0  0  0  0  0  0  0  0  0  0  0  0
   23.9542  -23.5913  -15.1092 C   0  0  0  0  0  0  0  0  0  0  0  0
   25.0445  -22.9031  -15.5930 C   0  0  0  0  0  0  0  0  0  0  0  0
   25.2749  -21.6189  -15.1659 C   0  0  0  0  0  0  0  0  0  0  0  0
   24.4307  -21.0217  -14.2669 C   0  0  0  0  0  0  0  0  0  0  0  0
   23.3187  -21.6717  -13.7510 C   0  0  0  0  0  0  0  0  0  0  0  0
   20.8192  -21.0638  -10.1927 O   0  0  0  0  0  0  0  0  0  0  0  0
   19.4675  -20.8232  -10.5072 O   0  0  0  0  0  0  0  0  0  0  0  0
  2  3  2  0
  2  1  1  0
  4  2  1  0
  5  4  1  0
  6  5  1  0
  7  6  1  0
  8  7  1  0
  8  9  1  6
 10 12  1  0
 10  8  1  0
 11 10  2  0
 13 14  1  6
 13 24  1  0
 13 12  1  0
 14 15  1  0
 15 16  2  0
 15 23  1  0
 16 17  1  0
 17 18  1  0
 18 19  2  0
 20 19  1  0
 21 20  2  0
 22 23  2  0
 22 21  1  0
 23 18  1  0
 24 26  1  0
 25 24  2  0
 26 27  1  0
 27 38  1  0
 27 28  1  6
 29 28  1  0
 29 30  2  0
 31 30  1  0
 32 31  1  0
 33 32  2  0
 34 33  1  0
 35 34  2  0
 35 36  1  0
 36 37  2  0
 37 32  1  0
 37 29  1  0
 38 40  2  0
 38 39  1  0
M  END
$$$$
