RWW.pdb
     RDKit          3D

 40 43  0  0  1  0  0  0  0  0999 V2000
   31.9113  -25.3077  -17.8331 N   0  0  0  0  0  0  0  0  0  0  0  0
   30.8897  -26.2820  -17.6832 C   0  0  0  0  0  0  0  0  0  0  0  0
   31.2086  -27.5036  -17.4421 N   0  0  0  0  0  0  0  0  0  0  0  0
   29.5089  -25.9551  -17.7907 N   0  0  0  0  0  0  0  0  0  0  0  0
   29.0620  -24.6291  -18.1220 C   0  0  0  0  0  0  0  0  0  0  0  0
   29.3394  -23.6853  -16.9773 C   0  0  0  0  0  0  0  0  0  0  0  0
   28.3076  -23.7874  -15.8713 C   0  0  0  0  0  0  0  0  0  0  0  0
   27.4797  -22.5210  -15.9079 C   0  0  2  0  0  0  0  0  0  0  0  0
   28.2610  -21.3514  -16.2462 N   0  0  0  0  0  0  0  0  0  0  0  0
   26.7718  -22.2827  -14.6248 C   0  0  0  0  0  0  0  0  0  0  0  0
   25.9981  -23.1471  -14.1344 O   0  0  0  0  0  0  0  0  0  0  0  0
   30.5440  -28.2726  -17.3173 N   0  0  0  0  0  0  0  0  0  0  0  0
   26.9510  -21.0710  -13.9177 C   0  0  1  0  0  0  0  0  0  0  0  0
   26.2184  -20.6895  -12.7335 C   0  0  0  0  0  0  0  0  0  0  0  0
   26.9612  -19.6981  -11.9077 C   0  0  0  0  0  0  0  0  0  0  0  0
   27.8805  -20.2866  -10.9171 C   0  0  0  0  0  0  0  0  0  0  0  0
   29.0033  -21.0647  -11.2228 N   0  0  0  0  0  0  0  0  0  0  0  0
   29.5897  -21.4449  -10.0777 C   0  0  0  0  0  0  0  0  0  0  0  0
   28.9143  -20.9584   -9.0054 C   0  0  0  0  0  0  0  0  0  0  0  0
   29.1389  -21.0754   -7.6561 C   0  0  0  0  0  0  0  0  0  0  0  0
   28.2880  -20.4600   -6.7754 C   0  0  0  0  0  0  0  0  0  0  0  0
   27.2236  -19.7365   -7.2916 C   0  0  0  0  0  0  0  0  0  0  0  0
   27.0032  -19.6230   -8.6431 C   0  0  0  0  0  0  0  0  0  0  0  0
   27.8498  -20.2367   -9.5410 C   0  0  0  0  0  0  0  0  0  0  0  0
   24.8327  -20.3062  -13.0748 O   0  0  0  0  0  0  0  0  0  0  0  0
   24.6467  -19.6519  -14.1402 N   0  0  0  0  0  0  0  0  0  0  0  0
   23.6952  -20.6089  -12.3153 C   0  0  1  0  0  0  0  0  0  0  0  0
   22.3391  -20.7207  -12.8530 C   0  0  0  0  0  0  0  0  0  0  0  0
   22.3700  -21.5248  -14.1198 C   0  0  0  0  0  0  0  0  0  0  0  0
   21.1061  -21.6014  -14.8446 C   0  0  0  0  0  0  0  0  0  0  0  0
   20.7439  -20.7348  -15.8612 N   0  0  0  0  0  0  0  0  0  0  0  0
   19.5408  -21.0993  -16.3298 C   0  0  0  0  0  0  0  0  0  0  0  0
   19.0994  -22.1703  -15.6603 C   0  0  0  0  0  0  0  0  0  0  0  0
   17.9237  -22.8797  -15.7932 C   0  0  0  0  0  0  0  0  0  0  0  0
   17.6988  -23.9569  -14.9653 C   0  0  0  0  0  0  0  0  0  0  0  0
   18.6451  -24.2981  -14.0310 C   0  0  0  0  0  0  0  0  0  0  0  0
   19.8051  -23.5774  -13.9188 C   0  0  0  0  0  0  0  0  0  0  0  0
   20.0792  -22.4852  -14.7295 C   0  0  0  0  0  0  0  0  0  0  0  0
   21.3242  -21.0628  -11.8787 O   0  0  0  0  0  0  0  0  0  0  0  0
   20.0427  -20.4804  -11.8313 O   0  0  0  0  0  0  0  0  0  0  0  0
  2  3  2  0
  2  1  1  0
  4  2  1  0
  5  4  1  0
  6  5  1  0
  7  6  1  0
  8  7  1  0
  8  9  1  1
 10 12  1  0
 10  8  1  0
 11 10  2  0
 13 14  1  1
 13 24  1  0
 13 12  1  0
 14 15  1  0
 15 16  2  0
 15 23  1  0
 16 17  1  0
 17 18  1  0
 18 19  2  0
 20 19  1  0
 21 20  2  0
 22 23  2  0
 22 21  1  0
 23 18  1  0
 24 26  1  0
 25 24  2  0
 26 27  1  0
 27 38  1  0
 27 28  1  1
 29 28  1  0
 29 30  2  0
 31 30  1  0
 32 31  1  0
 33 32  2  0
 34 33  1  0
 35 34  2  0
 35 36  1  0
 36 37  2  0
 37 32  1  0
 37 29  1  0
 38 40  2  0
 38 39  1  0
M  END
$$$$
