RWW.pdb
     RDKit          3D

 40 43  0  0  1  0  0  0  0  0999 V2000
   22.9808  -27.3364  -19.3555 N   0  0  0  0  0  0  0  0  0  0  0  0
   24.0372  -26.9088  -18.5090 C   0  0  0  0  0  0  0  0  0  0  0  0
   24.9000  -27.7643  -18.0896 N   0  0  0  0  0  0  0  0  0  0  0  0
   24.1801  -25.5530  -18.1012 N   0  0  0  0  0  0  0  0  0  0  0  0
   23.2390  -24.5365  -18.4871 C   0  0  0  0  0  0  0  0  0  0  0  0
   23.9693  -23.3154  -18.9906 C   0  0  0  0  0  0  0  0  0  0  0  0
   25.1211  -22.9103  -18.0921 C   0  0  0  0  0  0  0  0  0  0  0  0
   24.5274  -22.4337  -16.7841 C   0  0  2  0  0  0  0  0  0  0  0  0
   23.9921  -21.0923  -16.8686 N   0  0  0  0  0  0  0  0  0  0  0  0
   25.5082  -22.5003  -15.6716 C   0  0  0  0  0  0  0  0  0  0  0  0
   26.2439  -23.5094  -15.5080 O   0  0  0  0  0  0  0  0  0  0  0  0
   25.6665  -27.5595  -17.4422 N   0  0  0  0  0  0  0  0  0  0  0  0
   25.6408  -21.4246  -14.7630 C   0  0  1  0  0  0  0  0  0  0  0  0
   26.5051  -21.4220  -13.6065 C   0  0  0  0  0  0  0  0  0  0  0  0
   27.7413  -20.6229  -13.8302 C   0  0  0  0  0  0  0  0  0  0  0  0
   28.8756  -20.9866  -12.9620 C   0  0  0  0  0  0  0  0  0  0  0  0
   29.7085  -22.0963  -13.1475 N   0  0  0  0  0  0  0  0  0  0  0  0
   30.6161  -22.1246  -12.1600 C   0  0  0  0  0  0  0  0  0  0  0  0
   30.4370  -21.0812  -11.3104 C   0  0  0  0  0  0  0  0  0  0  0  0
   31.1158  -20.6982  -10.1803 C   0  0  0  0  0  0  0  0  0  0  0  0
   30.7213  -19.5719   -9.5063 C   0  0  0  0  0  0  0  0  0  0  0  0
   29.6401  -18.8587  -10.0012 C   0  0  0  0  0  0  0  0  0  0  0  0
   28.9639  -19.2468  -11.1327 C   0  0  0  0  0  0  0  0  0  0  0  0
   29.3484  -20.3773  -11.8207 C   0  0  0  0  0  0  0  0  0  0  0  0
   25.7475  -21.0738  -12.3865 O   0  0  0  0  0  0  0  0  0  0  0  0
   25.1143  -19.9798  -12.3769 N   0  0  0  0  0  0  0  0  0  0  0  0
   25.6665  -21.8581  -11.2286 C   0  0  2  0  0  0  0  0  0  0  0  0
   25.5094  -21.3300   -9.8732 C   0  0  0  0  0  0  0  0  0  0  0  0
   26.8365  -21.3521   -9.1727 C   0  0  0  0  0  0  0  0  0  0  0  0
   26.8283  -20.8615   -7.7987 C   0  0  0  0  0  0  0  0  0  0  0  0
   25.7246  -20.9148   -6.9652 N   0  0  0  0  0  0  0  0  0  0  0  0
   26.0634  -20.4100   -5.7691 C   0  0  0  0  0  0  0  0  0  0  0  0
   27.3453  -20.0272   -5.7855 C   0  0  0  0  0  0  0  0  0  0  0  0
   28.1151  -19.4548   -4.7942 C   0  0  0  0  0  0  0  0  0  0  0  0
   29.4280  -19.1420   -5.0678 C   0  0  0  0  0  0  0  0  0  0  0  0
   29.9378  -19.4054   -6.3150 C   0  0  0  0  0  0  0  0  0  0  0  0
   29.1525  -19.9747   -7.2828 C   0  0  0  0  0  0  0  0  0  0  0  0
   27.8250  -20.3093   -7.0568 C   0  0  0  0  0  0  0  0  0  0  0  0
   24.7348  -20.1102   -9.7812 O   0  0  0  0  0  0  0  0  0  0  0  0
   23.5446  -19.9812   -9.0392 O   0  0  0  0  0  0  0  0  0  0  0  0
  2  3  2  0
  2  1  1  0
  4  2  1  0
  5  4  1  0
  6  5  1  0
  7  6  1  0
  8  7  1  0
  8  9  1  6
 10 12  1  0
 10  8  1  0
 11 10  2  0
 13 14  1  1
 13 24  1  0
 13 12  1  0
 14 15  1  0
 15 16  2  0
 15 23  1  0
 16 17  1  0
 17 18  1  0
 18 19  2  0
 20 19  1  0
 21 20  2  0
 22 23  2  0
 22 21  1  0
 23 18  1  0
 24 26  1  0
 25 24  2  0
 26 27  1  0
 27 38  1  0
 27 28  1  6
 29 28  1  0
 29 30  2  0
 31 30  1  0
 32 31  1  0
 33 32  2  0
 34 33  1  0
 35 34  2  0
 35 36  1  0
 36 37  2  0
 37 32  1  0
 37 29  1  0
 38 40  2  0
 38 39  1  0
M  END
$$$$
