RWW.pdb
     RDKit          3D

 40 43  0  0  1  0  0  0  0  0999 V2000
   31.4821  -22.9301  -18.8572 N   0  0  0  0  0  0  0  0  0  0  0  0
   31.8480  -24.1934  -18.3229 C   0  0  0  0  0  0  0  0  0  0  0  0
   32.9406  -24.7517  -18.7058 N   0  0  0  0  0  0  0  0  0  0  0  0
   31.0424  -24.8745  -17.3679 N   0  0  0  0  0  0  0  0  0  0  0  0
   30.0142  -24.2036  -16.6193 C   0  0  0  0  0  0  0  0  0  0  0  0
   28.6517  -24.6267  -17.1119 C   0  0  0  0  0  0  0  0  0  0  0  0
   27.5770  -24.4882  -16.0517 C   0  0  0  0  0  0  0  0  0  0  0  0
   27.1358  -23.0406  -16.0425 C   0  0  2  0  0  0  0  0  0  0  0  0
   28.2428  -22.1175  -16.1666 N   0  0  0  0  0  0  0  0  0  0  0  0
   26.3533  -22.7059  -14.8260 C   0  0  0  0  0  0  0  0  0  0  0  0
   25.4161  -23.4467  -14.4269 O   0  0  0  0  0  0  0  0  0  0  0  0
   33.2642  -25.6775  -18.4111 N   0  0  0  0  0  0  0  0  0  0  0  0
   26.6439  -21.5393  -14.0810 C   0  0  1  0  0  0  0  0  0  0  0  0
   25.9160  -21.1022  -12.9133 C   0  0  0  0  0  0  0  0  0  0  0  0
   26.6050  -19.9881  -12.2056 C   0  0  0  0  0  0  0  0  0  0  0  0
   27.6949  -20.4094  -11.3071 C   0  0  0  0  0  0  0  0  0  0  0  0
   28.9429  -20.8874  -11.7236 N   0  0  0  0  0  0  0  0  0  0  0  0
   29.6718  -21.1927  -10.6396 C   0  0  0  0  0  0  0  0  0  0  0  0
   28.9736  -20.9424   -9.5028 C   0  0  0  0  0  0  0  0  0  0  0  0
   29.3043  -21.0881   -8.1784 C   0  0  0  0  0  0  0  0  0  0  0  0
   28.3941  -20.7411   -7.2143 C   0  0  0  0  0  0  0  0  0  0  0  0
   27.1629  -20.2517   -7.6233 C   0  0  0  0  0  0  0  0  0  0  0  0
   26.8368  -20.1083   -8.9504 C   0  0  0  0  0  0  0  0  0  0  0  0
   27.7414  -20.4535   -9.9312 C   0  0  0  0  0  0  0  0  0  0  0  0
   24.4976  -20.8513  -13.2429 O   0  0  0  0  0  0  0  0  0  0  0  0
   24.2425  -20.0108  -14.1519 N   0  0  0  0  0  0  0  0  0  0  0  0
   23.3995  -21.4708  -12.6323 C   0  0  1  0  0  0  0  0  0  0  0  0
   21.9996  -21.1892  -12.9514 C   0  0  0  0  0  0  0  0  0  0  0  0
   21.2432  -22.4811  -13.0581 C   0  0  0  0  0  0  0  0  0  0  0  0
   19.8121  -22.3505  -13.3100 C   0  0  0  0  0  0  0  0  0  0  0  0
   19.2402  -22.4081  -14.5691 N   0  0  0  0  0  0  0  0  0  0  0  0
   17.9103  -22.2825  -14.4443 C   0  0  0  0  0  0  0  0  0  0  0  0
   17.5875  -22.1444  -13.1532 C   0  0  0  0  0  0  0  0  0  0  0  0
   16.3539  -21.9815  -12.5576 C   0  0  0  0  0  0  0  0  0  0  0  0
   16.2876  -21.8524  -11.1881 C   0  0  0  0  0  0  0  0  0  0  0  0
   17.4452  -21.8878  -10.4509 C   0  0  0  0  0  0  0  0  0  0  0  0
   18.6586  -22.0507  -11.0665 C   0  0  0  0  0  0  0  0  0  0  0  0
   18.7784  -22.1864  -12.4421 C   0  0  0  0  0  0  0  0  0  0  0  0
   21.3963  -20.1342  -12.1644 O   0  0  0  0  0  0  0  0  0  0  0  0
   20.3192  -19.3378  -12.5997 O   0  0  0  0  0  0  0  0  0  0  0  0
  2  3  2  0
  2  1  1  0
  4  2  1  0
  5  4  1  0
  6  5  1  0
  7  6  1  0
  8  7  1  0
  8  9  1  1
 10 12  1  0
 10  8  1  0
 11 10  2  0
 13 14  1  1
 13 24  1  0
 13 12  1  0
 14 15  1  0
 15 16  2  0
 15 23  1  0
 16 17  1  0
 17 18  1  0
 18 19  2  0
 20 19  1  0
 21 20  2  0
 22 23  2  0
 22 21  1  0
 23 18  1  0
 24 26  1  0
 25 24  2  0
 26 27  1  0
 27 38  1  0
 27 28  1  1
 29 28  1  0
 29 30  2  0
 31 30  1  0
 32 31  1  0
 33 32  2  0
 34 33  1  0
 35 34  2  0
 35 36  1  0
 36 37  2  0
 37 32  1  0
 37 29  1  0
 38 40  2  0
 38 39  1  0
M  END
$$$$
