RWW.pdb
     RDKit          3D

 40 43  0  0  1  0  0  0  0  0999 V2000
   31.5162  -25.3425  -17.9216 N   0  0  0  0  0  0  0  0  0  0  0  0
   30.3734  -25.8563  -17.2541 C   0  0  0  0  0  0  0  0  0  0  0  0
   30.4778  -26.9268  -16.5503 N   0  0  0  0  0  0  0  0  0  0  0  0
   29.1008  -25.2248  -17.3348 N   0  0  0  0  0  0  0  0  0  0  0  0
   28.9576  -23.7939  -17.3406 C   0  0  0  0  0  0  0  0  0  0  0  0
   29.6575  -23.1961  -16.1445 C   0  0  0  0  0  0  0  0  0  0  0  0
   29.1943  -21.7850  -15.8402 C   0  0  0  0  0  0  0  0  0  0  0  0
   27.6977  -21.7436  -16.0610 C   0  0  2  0  0  0  0  0  0  0  0  0
   27.3393  -21.2558  -17.3749 N   0  0  0  0  0  0  0  0  0  0  0  0
   27.0064  -20.9284  -15.0306 C   0  0  0  0  0  0  0  0  0  0  0  0
   27.2868  -19.7121  -14.8626 O   0  0  0  0  0  0  0  0  0  0  0  0
   29.7190  -27.3544  -16.0118 N   0  0  0  0  0  0  0  0  0  0  0  0
   26.0093  -21.5023  -14.2078 C   0  0  2  0  0  0  0  0  0  0  0  0
   25.3607  -20.8315  -13.1061 C   0  0  0  0  0  0  0  0  0  0  0  0
   23.9226  -20.5607  -13.3808 C   0  0  0  0  0  0  0  0  0  0  0  0
   23.6641  -19.7972  -14.6150 C   0  0  0  0  0  0  0  0  0  0  0  0
   23.4169  -20.3592  -15.8729 N   0  0  0  0  0  0  0  0  0  0  0  0
   23.2464  -19.3693  -16.7620 C   0  0  0  0  0  0  0  0  0  0  0  0
   23.3664  -18.1571  -16.1629 C   0  0  0  0  0  0  0  0  0  0  0  0
   23.2649  -16.8808  -16.6582 C   0  0  0  0  0  0  0  0  0  0  0  0
   23.4229  -15.8147  -15.8114 C   0  0  0  0  0  0  0  0  0  0  0  0
   23.6814  -16.0746  -14.4741 C   0  0  0  0  0  0  0  0  0  0  0  0
   23.7824  -17.3541  -13.9837 C   0  0  0  0  0  0  0  0  0  0  0  0
   23.6267  -18.4362  -14.8230 C   0  0  0  0  0  0  0  0  0  0  0  0
   25.6334  -21.5300  -11.8329 O   0  0  0  0  0  0  0  0  0  0  0  0
   25.5073  -22.7876  -11.8108 N   0  0  0  0  0  0  0  0  0  0  0  0
   26.0254  -20.9156  -10.6366 C   0  0  1  0  0  0  0  0  0  0  0  0
   26.0463  -21.5729   -9.3296 C   0  0  0  0  0  0  0  0  0  0  0  0
   27.3963  -21.3884   -8.7004 C   0  0  0  0  0  0  0  0  0  0  0  0
   27.5413  -20.2015   -7.8645 C   0  0  0  0  0  0  0  0  0  0  0  0
   26.8909  -19.0033   -8.1033 N   0  0  0  0  0  0  0  0  0  0  0  0
   27.2202  -18.1341   -7.1357 C   0  0  0  0  0  0  0  0  0  0  0  0
   28.0612  -18.7147   -6.2722 C   0  0  0  0  0  0  0  0  0  0  0  0
   28.6608  -18.2080   -5.1378 C   0  0  0  0  0  0  0  0  0  0  0  0
   29.5056  -19.0185   -4.4127 C   0  0  0  0  0  0  0  0  0  0  0  0
   29.7309  -20.3057   -4.8337 C   0  0  0  0  0  0  0  0  0  0  0  0
   29.1231  -20.7855   -5.9642 C   0  0  0  0  0  0  0  0  0  0  0  0
   28.2632  -20.0097   -6.7283 C   0  0  0  0  0  0  0  0  0  0  0  0
   24.8897  -21.3122   -8.4985 O   0  0  0  0  0  0  0  0  0  0  0  0
   24.6055  -21.9939   -7.2992 O   0  0  0  0  0  0  0  0  0  0  0  0
  2  3  2  0
  2  1  1  0
  4  2  1  0
  5  4  1  0
  6  5  1  0
  7  6  1  0
  8  7  1  0
  8  9  1  6
 10 12  1  0
 10  8  1  0
 11 10  2  0
 13 14  1  6
 13 24  1  0
 13 12  1  0
 14 15  1  0
 15 16  2  0
 15 23  1  0
 16 17  1  0
 17 18  1  0
 18 19  2  0
 20 19  1  0
 21 20  2  0
 22 23  2  0
 22 21  1  0
 23 18  1  0
 24 26  1  0
 25 24  2  0
 26 27  1  0
 27 38  1  0
 27 28  1  1
 29 28  1  0
 29 30  2  0
 31 30  1  0
 32 31  1  0
 33 32  2  0
 34 33  1  0
 35 34  2  0
 35 36  1  0
 36 37  2  0
 37 32  1  0
 37 29  1  0
 38 40  2  0
 38 39  1  0
M  END
$$$$
