RWW.pdb
     RDKit          3D

 40 43  0  0  1  0  0  0  0  0999 V2000
   30.1279  -20.2176  -19.8563 N   0  0  0  0  0  0  0  0  0  0  0  0
   29.1896  -21.2670  -20.0401 C   0  0  0  0  0  0  0  0  0  0  0  0
   28.9517  -21.7050  -21.2249 N   0  0  0  0  0  0  0  0  0  0  0  0
   28.4933  -21.8606  -18.9502 N   0  0  0  0  0  0  0  0  0  0  0  0
   28.7006  -21.4387  -17.5912 C   0  0  0  0  0  0  0  0  0  0  0  0
   27.3801  -21.0964  -16.9455 C   0  0  0  0  0  0  0  0  0  0  0  0
   27.5350  -20.6139  -15.5166 C   0  0  0  0  0  0  0  0  0  0  0  0
   27.8228  -21.8273  -14.6591 C   0  0  2  0  0  0  0  0  0  0  0  0
   27.5620  -23.0730  -15.3468 N   0  0  0  0  0  0  0  0  0  0  0  0
   27.0596  -21.8017  -13.3860 C   0  0  0  0  0  0  0  0  0  0  0  0
   25.8379  -22.1058  -13.3497 O   0  0  0  0  0  0  0  0  0  0  0  0
   28.2730  -22.4356  -21.4580 N   0  0  0  0  0  0  0  0  0  0  0  0
   27.6908  -21.4329  -12.1752 C   0  0  2  0  0  0  0  0  0  0  0  0
   27.0303  -21.3386  -10.8947 C   0  0  0  0  0  0  0  0  0  0  0  0
   27.9724  -20.9710   -9.8019 C   0  0  0  0  0  0  0  0  0  0  0  0
   27.3262  -20.6023   -8.5294 C   0  0  0  0  0  0  0  0  0  0  0  0
   25.9442  -20.5560   -8.3115 N   0  0  0  0  0  0  0  0  0  0  0  0
   25.7193  -20.1631   -7.0488 C   0  0  0  0  0  0  0  0  0  0  0  0
   26.8892  -19.9404   -6.3974 C   0  0  0  0  0  0  0  0  0  0  0  0
   27.1555  -19.5412   -5.1111 C   0  0  0  0  0  0  0  0  0  0  0  0
   28.4569  -19.4035   -4.7039 C   0  0  0  0  0  0  0  0  0  0  0  0
   29.4612  -19.6768   -5.6202 C   0  0  0  0  0  0  0  0  0  0  0  0
   29.1890  -20.0757   -6.9066 C   0  0  0  0  0  0  0  0  0  0  0  0
   27.8855  -20.2179   -7.3308 C   0  0  0  0  0  0  0  0  0  0  0  0
   25.8216  -20.4938  -10.9890 O   0  0  0  0  0  0  0  0  0  0  0  0
   25.9817  -19.2468  -11.1196 N   0  0  0  0  0  0  0  0  0  0  0  0
   24.5005  -20.9579  -10.9483 C   0  0  1  0  0  0  0  0  0  0  0  0
   23.3150  -20.1123  -11.0905 C   0  0  0  0  0  0  0  0  0  0  0  0
   23.4933  -19.1980  -12.2672 C   0  0  0  0  0  0  0  0  0  0  0  0
   22.6219  -19.4653  -13.4064 C   0  0  0  0  0  0  0  0  0  0  0  0
   21.2460  -19.5853  -13.3162 N   0  0  0  0  0  0  0  0  0  0  0  0
   20.7508  -19.8001  -14.5445 C   0  0  0  0  0  0  0  0  0  0  0  0
   21.7476  -19.8263  -15.4366 C   0  0  0  0  0  0  0  0  0  0  0  0
   21.7142  -20.0211  -16.8019 C   0  0  0  0  0  0  0  0  0  0  0  0
   22.8981  -20.0103  -17.5051 C   0  0  0  0  0  0  0  0  0  0  0  0
   24.0787  -19.8074  -16.8345 C   0  0  0  0  0  0  0  0  0  0  0  0
   24.0853  -19.6163  -15.4776 C   0  0  0  0  0  0  0  0  0  0  0  0
   22.9201  -19.6172  -14.7243 C   0  0  0  0  0  0  0  0  0  0  0  0
   22.0519  -20.8120  -10.9838 O   0  0  0  0  0  0  0  0  0  0  0  0
   20.8734  -20.2449  -10.4611 O   0  0  0  0  0  0  0  0  0  0  0  0
  2  3  2  0
  2  1  1  0
  4  2  1  0
  5  4  1  0
  6  5  1  0
  7  6  1  0
  8  7  1  0
  8  9  1  6
 10 12  1  0
 10  8  1  0
 11 10  2  0
 13 14  1  1
 13 24  1  0
 13 12  1  0
 14 15  1  0
 15 16  2  0
 15 23  1  0
 16 17  1  0
 17 18  1  0
 18 19  2  0
 20 19  1  0
 21 20  2  0
 22 23  2  0
 22 21  1  0
 23 18  1  0
 24 26  1  0
 25 24  2  0
 26 27  1  0
 27 38  1  0
 27 28  1  1
 29 28  1  0
 29 30  2  0
 31 30  1  0
 32 31  1  0
 33 32  2  0
 34 33  1  0
 35 34  2  0
 35 36  1  0
 36 37  2  0
 37 32  1  0
 37 29  1  0
 38 40  2  0
 38 39  1  0
M  END
$$$$
