RWW.pdb
     RDKit          3D

 40 43  0  0  1  0  0  0  0  0999 V2000
   30.2377  -26.0049  -17.7693 N   0  0  0  0  0  0  0  0  0  0  0  0
   29.7627  -26.0133  -16.4315 C   0  0  0  0  0  0  0  0  0  0  0  0
   29.1840  -27.0643  -15.9703 N   0  0  0  0  0  0  0  0  0  0  0  0
   29.9037  -24.8893  -15.5702 N   0  0  0  0  0  0  0  0  0  0  0  0
   30.6835  -23.7386  -15.9382 C   0  0  0  0  0  0  0  0  0  0  0  0
   29.8320  -22.4937  -15.8832 C   0  0  0  0  0  0  0  0  0  0  0  0
   28.3834  -22.7590  -16.2431 C   0  0  0  0  0  0  0  0  0  0  0  0
   27.8367  -21.4970  -16.8747 C   0  0  2  0  0  0  0  0  0  0  0  0
   28.8776  -20.6240  -17.3720 N   0  0  0  0  0  0  0  0  0  0  0  0
   26.9674  -20.7393  -15.9396 C   0  0  0  0  0  0  0  0  0  0  0  0
   27.3889  -19.7156  -15.3390 O   0  0  0  0  0  0  0  0  0  0  0  0
   28.7791  -27.1513  -15.0338 N   0  0  0  0  0  0  0  0  0  0  0  0
   25.6359  -21.1516  -15.6999 C   0  0  2  0  0  0  0  0  0  0  0  0
   24.6672  -20.4087  -14.9290 C   0  0  0  0  0  0  0  0  0  0  0  0
   23.4186  -20.1474  -15.6968 C   0  0  0  0  0  0  0  0  0  0  0  0
   23.4911  -18.9998  -16.6190 C   0  0  0  0  0  0  0  0  0  0  0  0
   24.0347  -19.0357  -17.9085 N   0  0  0  0  0  0  0  0  0  0  0  0
   23.9501  -17.8100  -18.4469 C   0  0  0  0  0  0  0  0  0  0  0  0
   23.3716  -16.9410  -17.5792 C   0  0  0  0  0  0  0  0  0  0  0  0
   23.0722  -15.6057  -17.6889 C   0  0  0  0  0  0  0  0  0  0  0  0
   22.4651  -14.9629  -16.6417 C   0  0  0  0  0  0  0  0  0  0  0  0
   22.1756  -15.6981  -15.5024 C   0  0  0  0  0  0  0  0  0  0  0  0
   22.4777  -17.0345  -15.3977 C   0  0  0  0  0  0  0  0  0  0  0  0
   23.0888  -17.6944  -16.4419 C   0  0  0  0  0  0  0  0  0  0  0  0
   24.4675  -21.0270  -13.6019 O   0  0  0  0  0  0  0  0  0  0  0  0
   24.2171  -22.2652  -13.5591 N   0  0  0  0  0  0  0  0  0  0  0  0
   24.5341  -20.3556  -12.3742 C   0  0  1  0  0  0  0  0  0  0  0  0
   24.0833  -20.9077  -11.0964 C   0  0  0  0  0  0  0  0  0  0  0  0
   24.9048  -20.3246   -9.9840 C   0  0  0  0  0  0  0  0  0  0  0  0
   26.2781  -20.8099   -9.8981 C   0  0  0  0  0  0  0  0  0  0  0  0
   26.8896  -21.5768  -10.8746 N   0  0  0  0  0  0  0  0  0  0  0  0
   28.1530  -21.8262  -10.4981 C   0  0  0  0  0  0  0  0  0  0  0  0
   28.3940  -21.2536   -9.3131 C   0  0  0  0  0  0  0  0  0  0  0  0
   29.5396  -21.2483   -8.5446 C   0  0  0  0  0  0  0  0  0  0  0  0
   29.5301  -20.5813   -7.3398 C   0  0  0  0  0  0  0  0  0  0  0  0
   28.3860  -19.9407   -6.9330 C   0  0  0  0  0  0  0  0  0  0  0  0
   27.2608  -19.9607   -7.7147 C   0  0  0  0  0  0  0  0  0  0  0  0
   27.2197  -20.6171   -8.9364 C   0  0  0  0  0  0  0  0  0  0  0  0
   22.6470  -20.9286  -10.9152 O   0  0  0  0  0  0  0  0  0  0  0  0
   21.9911  -21.5882   -9.8576 O   0  0  0  0  0  0  0  0  0  0  0  0
  2  3  2  0
  2  1  1  0
  4  2  1  0
  5  4  1  0
  6  5  1  0
  7  6  1  0
  8  7  1  0
  8  9  1  1
 10 12  1  0
 10  8  1  0
 11 10  2  0
 13 14  1  6
 13 24  1  0
 13 12  1  0
 14 15  1  0
 15 16  2  0
 15 23  1  0
 16 17  1  0
 17 18  1  0
 18 19  2  0
 20 19  1  0
 21 20  2  0
 22 23  2  0
 22 21  1  0
 23 18  1  0
 24 26  1  0
 25 24  2  0
 26 27  1  0
 27 38  1  0
 27 28  1  1
 29 28  1  0
 29 30  2  0
 31 30  1  0
 32 31  1  0
 33 32  2  0
 34 33  1  0
 35 34  2  0
 35 36  1  0
 36 37  2  0
 37 32  1  0
 37 29  1  0
 38 40  2  0
 38 39  1  0
M  END
$$$$
