PHW.pdb
     RDKit          3D

 32 35  0  0  1  0  0  0  0  0999 V2000
   28.4766  -17.0739  -15.9297 N   0  0  0  0  0  0  0  0  0  0  0  0
   28.7570  -15.8216  -16.6432 C   0  0  0  0  0  0  0  0  0  0  0  0
   27.4531  -15.0667  -16.6975 C   0  0  0  0  0  0  0  0  0  0  0  0
   26.4692  -15.9676  -15.9402 C   0  0  0  0  0  0  0  0  0  0  0  0
   27.4229  -16.7082  -15.0288 C   0  0  1  0  0  0  0  0  0  0  0  0
   26.7552  -17.8797  -14.4207 C   0  0  0  0  0  0  0  0  0  0  0  0
   25.7589  -17.7883  -13.6632 O   0  0  0  0  0  0  0  0  0  0  0  0
   27.2054  -19.2222  -14.6577 N   0  0  0  0  0  0  0  0  0  0  0  0
   26.5060  -20.3849  -14.2600 C   0  0  1  0  0  0  0  0  0  0  0  0
   26.6190  -21.6010  -15.0715 C   0  0  0  0  0  0  0  0  0  0  0  0
   25.7486  -22.7268  -14.7561 C   0  0  0  0  0  0  0  0  0  0  0  0
   24.3954  -22.8826  -14.6440 C   0  0  0  0  0  0  0  0  0  0  0  0
   24.1077  -24.1563  -14.3476 N   0  0  0  0  0  0  0  0  0  0  0  0
   25.2549  -24.8227  -14.2675 C   0  0  0  0  0  0  0  0  0  0  0  0
   26.2607  -23.9732  -14.5122 N   0  0  0  0  0  0  0  0  0  0  0  0
   26.8162  -20.6300  -12.8075 C   0  0  0  0  0  0  0  0  0  0  0  0
   28.0042  -20.6129  -12.3821 O   0  0  0  0  0  0  0  0  0  0  0  0
   25.8162  -20.8914  -11.8388 N   0  0  0  0  0  0  0  0  0  0  0  0
   26.0982  -21.0937  -10.4263 C   0  0  1  0  0  0  0  0  0  0  0  0
   26.8100  -19.9347   -9.8157 C   0  0  0  0  0  0  0  0  0  0  0  0
   26.7827  -19.9270   -8.3357 C   0  0  0  0  0  0  0  0  0  0  0  0
   25.6713  -19.8012   -7.5254 C   0  0  0  0  0  0  0  0  0  0  0  0
   26.0850  -19.8446   -6.2471 N   0  0  0  0  0  0  0  0  0  0  0  0
   27.4123  -19.9923   -6.1630 C   0  0  0  0  0  0  0  0  0  0  0  0
   28.2658  -20.0832   -5.0844 C   0  0  0  0  0  0  0  0  0  0  0  0
   29.6136  -20.2322   -5.3284 C   0  0  0  0  0  0  0  0  0  0  0  0
   30.0852  -20.2878   -6.6151 C   0  0  0  0  0  0  0  0  0  0  0  0
   29.2030  -20.1937   -7.6918 C   0  0  0  0  0  0  0  0  0  0  0  0
   27.8643  -20.0457   -7.4737 C   0  0  0  0  0  0  0  0  0  0  0  0
   24.8366  -21.3116   -9.6579 C   0  0  0  0  0  0  0  0  0  0  0  0
   24.8989  -21.8042   -8.5076 O   0  0  0  0  0  0  0  0  0  0  0  0
   23.5993  -20.9846  -10.1793 O   0  0  0  0  0  0  0  0  0  0  0  0
  1  2  1  0
  3  2  1  0
  4  3  1  0
  5  4  1  0
  5  1  1  0
  6  7  2  0
  5  6  1  6
  8  6  1  0
  9  8  1  0
 10 11  1  0
  9 10  1  6
 11 15  1  0
 12 11  2  0
 12 13  1  0
 13 14  1  0
 15 14  2  0
 16 18  1  0
 16  9  1  0
 17 16  2  0
 19 18  1  0
 19 30  1  0
 19 20  1  1
 21 22  2  0
 21 20  1  0
 23 22  1  0
 24 29  2  0
 24 23  1  0
 25 24  1  0
 26 27  1  0
 26 25  2  0
 27 28  2  0
 28 29  1  0
 29 21  1  0
 30 32  1  0
 31 30  2  0
M  END
$$$$
