PHW.pdb
     RDKit          3D

 32 35  0  0  1  0  0  0  0  0999 V2000
   27.8197  -20.7861  -17.0907 N   0  0  0  0  0  0  0  0  0  0  0  0
   28.6638  -21.7001  -17.8703 C   0  0  0  0  0  0  0  0  0  0  0  0
   29.5048  -22.4527  -16.8708 C   0  0  0  0  0  0  0  0  0  0  0  0
   29.0363  -21.9176  -15.5116 C   0  0  0  0  0  0  0  0  0  0  0  0
   27.6265  -21.4912  -15.8572 C   0  0  1  0  0  0  0  0  0  0  0  0
   27.0664  -20.6355  -14.7885 C   0  0  0  0  0  0  0  0  0  0  0  0
   27.3254  -19.4127  -14.6786 O   0  0  0  0  0  0  0  0  0  0  0  0
   26.1745  -21.1505  -13.7882 N   0  0  0  0  0  0  0  0  0  0  0  0
   25.6190  -20.3842  -12.7377 C   0  0  1  0  0  0  0  0  0  0  0  0
   24.2715  -19.8272  -12.8933 C   0  0  0  0  0  0  0  0  0  0  0  0
   23.9944  -19.0026  -14.0628 C   0  0  0  0  0  0  0  0  0  0  0  0
   23.2229  -19.1619  -15.1796 C   0  0  0  0  0  0  0  0  0  0  0  0
   23.3072  -18.0698  -15.9497 N   0  0  0  0  0  0  0  0  0  0  0  0
   24.1208  -17.2098  -15.3454 C   0  0  0  0  0  0  0  0  0  0  0  0
   24.5472  -17.7573  -14.2002 N   0  0  0  0  0  0  0  0  0  0  0  0
   25.7731  -21.1739  -11.4654 C   0  0  0  0  0  0  0  0  0  0  0  0
   25.9346  -22.4253  -11.4896 O   0  0  0  0  0  0  0  0  0  0  0  0
   25.7480  -20.5784  -10.1804 N   0  0  0  0  0  0  0  0  0  0  0  0
   25.8306  -21.3358   -8.9414 C   0  0  1  0  0  0  0  0  0  0  0  0
   27.2243  -21.4239   -8.4192 C   0  0  0  0  0  0  0  0  0  0  0  0
   27.6482  -20.2390   -7.6398 C   0  0  0  0  0  0  0  0  0  0  0  0
   27.3496  -18.9174   -7.9078 C   0  0  0  0  0  0  0  0  0  0  0  0
   27.9262  -18.1625   -6.9565 N   0  0  0  0  0  0  0  0  0  0  0  0
   28.5928  -18.9108   -6.0698 C   0  0  0  0  0  0  0  0  0  0  0  0
   29.3246  -18.5832   -4.9486 C   0  0  0  0  0  0  0  0  0  0  0  0
   29.9058  -19.6028   -4.2268 C   0  0  0  0  0  0  0  0  0  0  0  0
   29.7546  -20.9076   -4.6211 C   0  0  0  0  0  0  0  0  0  0  0  0
   29.0094  -21.2162   -5.7594 C   0  0  0  0  0  0  0  0  0  0  0  0
   28.4251  -20.2226   -6.4895 C   0  0  0  0  0  0  0  0  0  0  0  0
   24.9836  -20.7141   -7.8804 C   0  0  0  0  0  0  0  0  0  0  0  0
   24.3543  -19.6620   -8.1390 O   0  0  0  0  0  0  0  0  0  0  0  0
   24.8728  -21.2666   -6.6186 O   0  0  0  0  0  0  0  0  0  0  0  0
  1  2  1  0
  3  2  1  0
  4  3  1  0
  5  4  1  0
  5  1  1  0
  6  7  2  0
  5  6  1  1
  8  6  1  0
  9  8  1  0
 10 11  1  0
  9 10  1  6
 11 15  1  0
 12 11  2  0
 12 13  1  0
 13 14  1  0
 15 14  2  0
 16 18  1  0
 16  9  1  0
 17 16  2  0
 19 18  1  0
 19 30  1  0
 19 20  1  1
 21 22  2  0
 21 20  1  0
 23 22  1  0
 24 29  2  0
 24 23  1  0
 25 24  1  0
 26 27  1  0
 26 25  2  0
 27 28  2  0
 28 29  1  0
 29 21  1  0
 30 32  1  0
 31 30  2  0
M  END
$$$$
