PHW.pdb
     RDKit          3D

 32 35  0  0  1  0  0  0  0  0999 V2000
   23.3247  -14.7828  -19.8277 N   0  0  0  0  0  0  0  0  0  0  0  0
   24.4717  -14.9337  -20.7319 C   0  0  0  0  0  0  0  0  0  0  0  0
   24.1366  -16.0821  -21.6493 C   0  0  0  0  0  0  0  0  0  0  0  0
   22.7311  -16.5120  -21.2103 C   0  0  0  0  0  0  0  0  0  0  0  0
   22.2169  -15.2128  -20.6301 C   0  0  1  0  0  0  0  0  0  0  0  0
   20.9907  -15.4481  -19.8369 C   0  0  0  0  0  0  0  0  0  0  0  0
   19.9134  -15.8519  -20.3377 O   0  0  0  0  0  0  0  0  0  0  0  0
   20.9461  -15.2285  -18.4188 N   0  0  0  0  0  0  0  0  0  0  0  0
   19.8285  -15.5073  -17.5986 C   0  0  1  0  0  0  0  0  0  0  0  0
   19.9975  -16.3769  -16.4301 C   0  0  0  0  0  0  0  0  0  0  0  0
   20.2159  -17.8007  -16.6528 C   0  0  0  0  0  0  0  0  0  0  0  0
   19.7497  -18.7046  -17.5658 C   0  0  0  0  0  0  0  0  0  0  0  0
   20.2918  -19.9066  -17.3327 N   0  0  0  0  0  0  0  0  0  0  0  0
   21.1000  -19.7901  -16.2840 C   0  0  0  0  0  0  0  0  0  0  0  0
   21.0674  -18.5209  -15.8581 N   0  0  0  0  0  0  0  0  0  0  0  0
   19.1779  -14.1950  -17.2516 C   0  0  0  0  0  0  0  0  0  0  0  0
   19.8146  -13.2922  -16.6413 O   0  0  0  0  0  0  0  0  0  0  0  0
   17.8340  -13.8900  -17.5796 N   0  0  0  0  0  0  0  0  0  0  0  0
   17.2319  -12.5827  -17.3699 C   0  0  1  0  0  0  0  0  0  0  0  0
   16.8914  -11.9000  -18.6508 C   0  0  0  0  0  0  0  0  0  0  0  0
   16.0702  -12.7220  -19.5679 C   0  0  0  0  0  0  0  0  0  0  0  0
   14.9145  -13.4115  -19.2569 C   0  0  0  0  0  0  0  0  0  0  0  0
   14.4860  -14.0247  -20.3738 N   0  0  0  0  0  0  0  0  0  0  0  0
   15.2947  -13.7806  -21.4116 C   0  0  0  0  0  0  0  0  0  0  0  0
   15.2587  -14.1892  -22.7276 C   0  0  0  0  0  0  0  0  0  0  0  0
   16.2597  -13.7614  -23.5722 C   0  0  0  0  0  0  0  0  0  0  0  0
   17.2624  -12.9497  -23.1068 C   0  0  0  0  0  0  0  0  0  0  0  0
   17.2789  -12.5482  -21.7707 C   0  0  0  0  0  0  0  0  0  0  0  0
   16.2978  -12.9599  -20.9164 C   0  0  0  0  0  0  0  0  0  0  0  0
   15.9790  -12.6969  -16.5657 C   0  0  0  0  0  0  0  0  0  0  0  0
   15.5463  -13.8340  -16.2665 O   0  0  0  0  0  0  0  0  0  0  0  0
   15.2812  -11.5825  -16.1403 O   0  0  0  0  0  0  0  0  0  0  0  0
  1  2  1  0
  3  2  1  0
  4  3  1  0
  5  4  1  0
  5  1  1  0
  6  7  2  0
  5  6  1  1
  8  6  1  0
  9  8  1  0
 10 11  1  0
  9 10  1  1
 11 15  1  0
 12 11  2  0
 12 13  1  0
 13 14  1  0
 15 14  2  0
 16 18  1  0
 16  9  1  0
 17 16  2  0
 19 18  1  0
 19 30  1  0
 19 20  1  6
 21 22  2  0
 21 20  1  0
 23 22  1  0
 24 29  2  0
 24 23  1  0
 25 24  1  0
 26 27  1  0
 26 25  2  0
 27 28  2  0
 28 29  1  0
 29 21  1  0
 30 32  1  0
 31 30  2  0
M  END
$$$$
