PHW.pdb
     RDKit          3D

 32 35  0  0  1  0  0  0  0  0999 V2000
   17.3490  -24.4521   -6.8371 N   0  0  0  0  0  0  0  0  0  0  0  0
   17.6507  -24.9021   -8.2018 C   0  0  0  0  0  0  0  0  0  0  0  0
   18.1243  -26.3281   -8.0801 C   0  0  0  0  0  0  0  0  0  0  0  0
   18.0228  -26.6277   -6.5790 C   0  0  0  0  0  0  0  0  0  0  0  0
   16.9334  -25.6568   -6.1798 C   0  0  1  0  0  0  0  0  0  0  0  0
   16.8762  -25.5174   -4.7083 C   0  0  0  0  0  0  0  0  0  0  0  0
   16.4561  -24.4861   -4.1300 O   0  0  0  0  0  0  0  0  0  0  0  0
   17.3026  -26.5666   -3.8259 N   0  0  0  0  0  0  0  0  0  0  0  0
   17.0813  -26.5798   -2.4294 C   0  0  1  0  0  0  0  0  0  0  0  0
   15.7128  -26.4447   -1.9203 C   0  0  0  0  0  0  0  0  0  0  0  0
   15.1076  -25.1188   -1.9060 C   0  0  0  0  0  0  0  0  0  0  0  0
   15.3453  -23.9705   -1.2040 C   0  0  0  0  0  0  0  0  0  0  0  0
   14.4956  -23.0133   -1.5972 N   0  0  0  0  0  0  0  0  0  0  0  0
   13.7149  -23.5277   -2.5420 C   0  0  0  0  0  0  0  0  0  0  0  0
   14.0708  -24.8029   -2.7430 N   0  0  0  0  0  0  0  0  0  0  0  0
   17.7901  -27.7823   -1.8660 C   0  0  0  0  0  0  0  0  0  0  0  0
   17.7295  -28.9042   -2.4409 O   0  0  0  0  0  0  0  0  0  0  0  0
   18.5577  -27.7378   -0.6763 N   0  0  0  0  0  0  0  0  0  0  0  0
   19.2521  -28.8902   -0.1237 C   0  0  1  0  0  0  0  0  0  0  0  0
   20.7019  -28.6270    0.1033 C   0  0  0  0  0  0  0  0  0  0  0  0
   20.9812  -27.3194    0.7382 C   0  0  0  0  0  0  0  0  0  0  0  0
   21.2466  -26.1244    0.0983 C   0  0  0  0  0  0  0  0  0  0  0  0
   21.4416  -25.1857    1.0406 N   0  0  0  0  0  0  0  0  0  0  0  0
   21.3203  -25.6917    2.2735 C   0  0  0  0  0  0  0  0  0  0  0  0
   21.4347  -25.1202    3.5226 C   0  0  0  0  0  0  0  0  0  0  0  0
   21.2521  -25.9228    4.6275 C   0  0  0  0  0  0  0  0  0  0  0  0
   20.9641  -27.2554    4.4789 C   0  0  0  0  0  0  0  0  0  0  0  0
   20.8529  -27.8128    3.2047 C   0  0  0  0  0  0  0  0  0  0  0  0
   21.0299  -27.0368    2.0964 C   0  0  0  0  0  0  0  0  0  0  0  0
   18.6517  -29.2976    1.1814 C   0  0  0  0  0  0  0  0  0  0  0  0
   17.7872  -28.5625    1.7124 O   0  0  0  0  0  0  0  0  0  0  0  0
   19.0222  -30.4646    1.8220 O   0  0  0  0  0  0  0  0  0  0  0  0
  1  2  1  0
  3  2  1  0
  4  3  1  0
  5  4  1  0
  5  1  1  0
  6  7  2  0
  5  6  1  1
  8  6  1  0
  9  8  1  0
 10 11  1  0
  9 10  1  6
 11 15  1  0
 12 11  2  0
 12 13  1  0
 13 14  1  0
 15 14  2  0
 16 18  1  0
 16  9  1  0
 17 16  2  0
 19 18  1  0
 19 30  1  0
 19 20  1  1
 21 22  2  0
 21 20  1  0
 23 22  1  0
 24 29  2  0
 24 23  1  0
 25 24  1  0
 26 27  1  0
 26 25  2  0
 27 28  2  0
 28 29  1  0
 29 21  1  0
 30 32  1  0
 31 30  2  0
M  END
$$$$
