PHW.pdb
     RDKit          3D

 32 35  0  0  1  0  0  0  0  0999 V2000
   28.8561  -32.4156  -18.9917 N   0  0  0  0  0  0  0  0  0  0  0  0
   29.9349  -33.4028  -19.1242 C   0  0  0  0  0  0  0  0  0  0  0  0
   31.2240  -32.6476  -18.9229 C   0  0  0  0  0  0  0  0  0  0  0  0
   30.7729  -31.2095  -18.6377 C   0  0  0  0  0  0  0  0  0  0  0  0
   29.3958  -31.4637  -18.0651 C   0  0  1  0  0  0  0  0  0  0  0  0
   28.6158  -30.2080  -18.0124 C   0  0  0  0  0  0  0  0  0  0  0  0
   29.0024  -29.1822  -17.4017 O   0  0  0  0  0  0  0  0  0  0  0  0
   27.3444  -30.0721  -18.6654 N   0  0  0  0  0  0  0  0  0  0  0  0
   26.5888  -28.8778  -18.7094 C   0  0  1  0  0  0  0  0  0  0  0  0
   26.5552  -28.0974  -19.9504 C   0  0  0  0  0  0  0  0  0  0  0  0
   27.7609  -27.3835  -20.3518 C   0  0  0  0  0  0  0  0  0  0  0  0
   28.4873  -26.3606  -19.8097 C   0  0  0  0  0  0  0  0  0  0  0  0
   29.5427  -26.0905  -20.5882 N   0  0  0  0  0  0  0  0  0  0  0  0
   29.5070  -26.9242  -21.6228 C   0  0  0  0  0  0  0  0  0  0  0  0
   28.4342  -27.7157  -21.4971 N   0  0  0  0  0  0  0  0  0  0  0  0
   25.2121  -29.1889  -18.1863 C   0  0  0  0  0  0  0  0  0  0  0  0
   24.6497  -30.2892  -18.4428 O   0  0  0  0  0  0  0  0  0  0  0  0
   24.4687  -28.2862  -17.3868 N   0  0  0  0  0  0  0  0  0  0  0  0
   23.2432  -28.6486  -16.6923 C   0  0  1  0  0  0  0  0  0  0  0  0
   22.9549  -27.7494  -15.5385 C   0  0  0  0  0  0  0  0  0  0  0  0
   22.7237  -26.3384  -15.9216 C   0  0  0  0  0  0  0  0  0  0  0  0
   21.5205  -25.7593  -16.2746 C   0  0  0  0  0  0  0  0  0  0  0  0
   21.7501  -24.4630  -16.5468 N   0  0  0  0  0  0  0  0  0  0  0  0
   23.0417  -24.1482  -16.3941 C   0  0  0  0  0  0  0  0  0  0  0  0
   23.7308  -22.9659  -16.5595 C   0  0  0  0  0  0  0  0  0  0  0  0
   25.0879  -22.9619  -16.3219 C   0  0  0  0  0  0  0  0  0  0  0  0
   25.7287  -24.1098  -15.9311 C   0  0  0  0  0  0  0  0  0  0  0  0
   25.0112  -25.2954  -15.7700 C   0  0  0  0  0  0  0  0  0  0  0  0
   23.6666  -25.3226  -15.9998 C   0  0  0  0  0  0  0  0  0  0  0  0
   22.0720  -28.5952  -17.6170 C   0  0  0  0  0  0  0  0  0  0  0  0
   22.1902  -28.0129  -18.7200 O   0  0  0  0  0  0  0  0  0  0  0  0
   20.8588  -29.1711  -17.2914 O   0  0  0  0  0  0  0  0  0  0  0  0
  1  2  1  0
  3  2  1  0
  4  3  1  0
  5  4  1  0
  5  1  1  0
  6  7  2  0
  5  6  1  6
  8  6  1  0
  9  8  1  0
 10 11  1  0
  9 10  1  6
 11 15  1  0
 12 11  2  0
 12 13  1  0
 13 14  1  0
 15 14  2  0
 16 18  1  0
 16  9  1  0
 17 16  2  0
 19 18  1  0
 19 30  1  0
 19 20  1  1
 21 22  2  0
 21 20  1  0
 23 22  1  0
 24 29  2  0
 24 23  1  0
 25 24  1  0
 26 27  1  0
 26 25  2  0
 27 28  2  0
 28 29  1  0
 29 21  1  0
 30 32  1  0
 31 30  2  0
M  END
$$$$
