PHW.pdb
     RDKit          3D

 32 35  0  0  1  0  0  0  0  0999 V2000
   28.5918  -23.8626  -18.3410 N   0  0  0  0  0  0  0  0  0  0  0  0
   29.3520  -24.7092  -19.2691 C   0  0  0  0  0  0  0  0  0  0  0  0
   30.8082  -24.4236  -19.0032 C   0  0  0  0  0  0  0  0  0  0  0  0
   30.7850  -23.4059  -17.8556 C   0  0  0  0  0  0  0  0  0  0  0  0
   29.4633  -23.7553  -17.2075 C   0  0  1  0  0  0  0  0  0  0  0  0
   29.0508  -22.6928  -16.2647 C   0  0  0  0  0  0  0  0  0  0  0  0
   29.6144  -22.4941  -15.1614 O   0  0  0  0  0  0  0  0  0  0  0  0
   27.9619  -21.8014  -16.5494 N   0  0  0  0  0  0  0  0  0  0  0  0
   27.5865  -20.7079  -15.7354 C   0  0  1  0  0  0  0  0  0  0  0  0
   27.3897  -19.3916  -16.3510 C   0  0  0  0  0  0  0  0  0  0  0  0
   26.9310  -18.2949  -15.5075 C   0  0  0  0  0  0  0  0  0  0  0  0
   27.5599  -17.2988  -14.8145 C   0  0  0  0  0  0  0  0  0  0  0  0
   26.6518  -16.5258  -14.2056 N   0  0  0  0  0  0  0  0  0  0  0  0
   25.4482  -17.0088  -14.4965 C   0  0  0  0  0  0  0  0  0  0  0  0
   25.5969  -18.0810  -15.2848 N   0  0  0  0  0  0  0  0  0  0  0  0
   26.4060  -21.1394  -14.9070 C   0  0  0  0  0  0  0  0  0  0  0  0
   25.3488  -21.5650  -15.4494 O   0  0  0  0  0  0  0  0  0  0  0  0
   26.4010  -21.0979  -13.4911 N   0  0  0  0  0  0  0  0  0  0  0  0
   25.3015  -21.5900  -12.6760 C   0  0  1  0  0  0  0  0  0  0  0  0
   25.7721  -22.2855  -11.4441 C   0  0  0  0  0  0  0  0  0  0  0  0
   26.2657  -21.3702  -10.3907 C   0  0  0  0  0  0  0  0  0  0  0  0
   25.5380  -20.4088   -9.7169 C   0  0  0  0  0  0  0  0  0  0  0  0
   26.3621  -19.8028   -8.8447 N   0  0  0  0  0  0  0  0  0  0  0  0
   27.5995  -20.3091   -8.9019 C   0  0  0  0  0  0  0  0  0  0  0  0
   28.7541  -20.0083   -8.2117 C   0  0  0  0  0  0  0  0  0  0  0  0
   29.8955  -20.7221   -8.5051 C   0  0  0  0  0  0  0  0  0  0  0  0
   29.8741  -21.7052   -9.4610 C   0  0  0  0  0  0  0  0  0  0  0  0
   28.6940  -21.9929  -10.1474 C   0  0  0  0  0  0  0  0  0  0  0  0
   27.5519  -21.2987   -9.8732 C   0  0  0  0  0  0  0  0  0  0  0  0
   24.4083  -20.4698  -12.2553 C   0  0  0  0  0  0  0  0  0  0  0  0
   24.8744  -19.3088  -12.1880 O   0  0  0  0  0  0  0  0  0  0  0  0
   23.0794  -20.6764  -11.9378 O   0  0  0  0  0  0  0  0  0  0  0  0
  1  2  1  0
  3  2  1  0
  4  3  1  0
  5  4  1  0
  5  1  1  0
  6  7  2  0
  5  6  1  1
  8  6  1  0
  9  8  1  0
 10 11  1  0
  9 10  1  6
 11 15  1  0
 12 11  2  0
 12 13  1  0
 13 14  1  0
 15 14  2  0
 16 18  1  0
 16  9  1  0
 17 16  2  0
 19 18  1  0
 19 30  1  0
 19 20  1  1
 21 22  2  0
 21 20  1  0
 23 22  1  0
 24 29  2  0
 24 23  1  0
 25 24  1  0
 26 27  1  0
 26 25  2  0
 27 28  2  0
 28 29  1  0
 29 21  1  0
 30 32  1  0
 31 30  2  0
M  END
$$$$
