PHW.pdb
     RDKit          3D

 32 35  0  0  1  0  0  0  0  0999 V2000
   22.1986  -11.9464  -17.9799 N   0  0  0  0  0  0  0  0  0  0  0  0
   22.4716  -12.9281  -19.0370 C   0  0  0  0  0  0  0  0  0  0  0  0
   21.3350  -12.8148  -20.0208 C   0  0  0  0  0  0  0  0  0  0  0  0
   20.4591  -11.6918  -19.4508 C   0  0  0  0  0  0  0  0  0  0  0  0
   21.4927  -10.9080  -18.6722 C   0  0  1  0  0  0  0  0  0  0  0  0
   20.8358   -9.9508  -17.7556 C   0  0  0  0  0  0  0  0  0  0  0  0
   20.1905   -8.9500  -18.1516 O   0  0  0  0  0  0  0  0  0  0  0  0
   20.8903  -10.1013  -16.3288 N   0  0  0  0  0  0  0  0  0  0  0  0
   20.2397   -9.2492  -15.4068 C   0  0  1  0  0  0  0  0  0  0  0  0
   19.3771   -9.8355  -14.3761 C   0  0  0  0  0  0  0  0  0  0  0  0
   18.1128  -10.4320  -14.7889 C   0  0  0  0  0  0  0  0  0  0  0  0
   17.4810  -10.5891  -15.9905 C   0  0  0  0  0  0  0  0  0  0  0  0
   16.3231  -11.2379  -15.8137 N   0  0  0  0  0  0  0  0  0  0  0  0
   16.2003  -11.5013  -14.5167 C   0  0  0  0  0  0  0  0  0  0  0  0
   17.2754  -11.0206  -13.8792 N   0  0  0  0  0  0  0  0  0  0  0  0
   21.2765   -8.3216  -14.8320 C   0  0  0  0  0  0  0  0  0  0  0  0
   22.2955   -8.7700  -14.2376 O   0  0  0  0  0  0  0  0  0  0  0  0
   21.1810   -6.9109  -14.9170 N   0  0  0  0  0  0  0  0  0  0  0  0
   22.2111   -6.0046  -14.4340 C   0  0  1  0  0  0  0  0  0  0  0  0
   23.0109   -5.4086  -15.5421 C   0  0  0  0  0  0  0  0  0  0  0  0
   22.2000   -4.6709  -16.5368 C   0  0  0  0  0  0  0  0  0  0  0  0
   21.4650   -3.5214  -16.3222 C   0  0  0  0  0  0  0  0  0  0  0  0
   20.8819   -3.1809  -17.4847 N   0  0  0  0  0  0  0  0  0  0  0  0
   21.1892   -4.0422  -18.4615 C   0  0  0  0  0  0  0  0  0  0  0  0
   20.8298   -4.0987  -19.7910 C   0  0  0  0  0  0  0  0  0  0  0  0
   21.3190   -5.1344  -20.5567 C   0  0  0  0  0  0  0  0  0  0  0  0
   22.1422   -6.0806  -20.0018 C   0  0  0  0  0  0  0  0  0  0  0  0
   22.4931   -6.0038  -18.6537 C   0  0  0  0  0  0  0  0  0  0  0  0
   22.0202   -4.9869  -17.8766 C   0  0  0  0  0  0  0  0  0  0  0  0
   21.6097   -4.8846  -13.6508 C   0  0  0  0  0  0  0  0  0  0  0  0
   20.3683   -4.7176  -13.6777 O   0  0  0  0  0  0  0  0  0  0  0  0
   22.3840   -4.0250  -12.8950 O   0  0  0  0  0  0  0  0  0  0  0  0
  1  2  1  0
  3  2  1  0
  4  3  1  0
  5  4  1  0
  5  1  1  0
  6  7  2  0
  5  6  1  1
  8  6  1  0
  9  8  1  0
 10 11  1  0
  9 10  1  1
 11 15  1  0
 12 11  2  0
 12 13  1  0
 13 14  1  0
 15 14  2  0
 16 18  1  0
 16  9  1  0
 17 16  2  0
 19 18  1  0
 19 30  1  0
 19 20  1  6
 21 22  2  0
 21 20  1  0
 23 22  1  0
 24 29  2  0
 24 23  1  0
 25 24  1  0
 26 27  1  0
 26 25  2  0
 27 28  2  0
 28 29  1  0
 29 21  1  0
 30 32  1  0
 31 30  2  0
M  END
$$$$
