PHW.pdb
     RDKit          3D

 32 35  0  0  1  0  0  0  0  0999 V2000
   28.4352  -19.4469  -17.1383 N   0  0  0  0  0  0  0  0  0  0  0  0
   29.0910  -18.9706  -18.3625 C   0  0  0  0  0  0  0  0  0  0  0  0
   29.3046  -17.4898  -18.1771 C   0  0  0  0  0  0  0  0  0  0  0  0
   28.7612  -17.2081  -16.7705 C   0  0  0  0  0  0  0  0  0  0  0  0
   28.9464  -18.5658  -16.1292 C   0  0  1  0  0  0  0  0  0  0  0  0
   28.1915  -18.6474  -14.8598 C   0  0  0  0  0  0  0  0  0  0  0  0
   28.3768  -17.8646  -13.8968 O   0  0  0  0  0  0  0  0  0  0  0  0
   27.1794  -19.6410  -14.6369 N   0  0  0  0  0  0  0  0  0  0  0  0
   26.1650  -19.5470  -13.6564 C   0  0  1  0  0  0  0  0  0  0  0  0
   24.7676  -19.4199  -14.0822 C   0  0  0  0  0  0  0  0  0  0  0  0
   24.4239  -18.3585  -15.0203 C   0  0  0  0  0  0  0  0  0  0  0  0
   24.0779  -18.3307  -16.3422 C   0  0  0  0  0  0  0  0  0  0  0  0
   23.8383  -17.0694  -16.7226 N   0  0  0  0  0  0  0  0  0  0  0  0
   24.0242  -16.2852  -15.6657 C   0  0  0  0  0  0  0  0  0  0  0  0
   24.3795  -17.0484  -14.6243 N   0  0  0  0  0  0  0  0  0  0  0  0
   26.3697  -20.6727  -12.6782 C   0  0  0  0  0  0  0  0  0  0  0  0
   26.7081  -21.8239  -13.0695 O   0  0  0  0  0  0  0  0  0  0  0  0
   26.1997  -20.5200  -11.2802 N   0  0  0  0  0  0  0  0  0  0  0  0
   25.9710  -21.6326  -10.3717 C   0  0  1  0  0  0  0  0  0  0  0  0
   27.0351  -21.7489   -9.3340 C   0  0  0  0  0  0  0  0  0  0  0  0
   27.1356  -20.5704   -8.4440 C   0  0  0  0  0  0  0  0  0  0  0  0
   26.4005  -19.4038   -8.5232 C   0  0  0  0  0  0  0  0  0  0  0  0
   26.8014  -18.5945   -7.5275 N   0  0  0  0  0  0  0  0  0  0  0  0
   27.7641  -19.1598   -6.7898 C   0  0  0  0  0  0  0  0  0  0  0  0
   28.4667  -18.7160   -5.6900 C   0  0  0  0  0  0  0  0  0  0  0  0
   29.4188  -19.5486   -5.1435 C   0  0  0  0  0  0  0  0  0  0  0  0
   29.6547  -20.7857   -5.6863 C   0  0  0  0  0  0  0  0  0  0  0  0
   28.9315  -21.2144   -6.7997 C   0  0  0  0  0  0  0  0  0  0  0  0
   27.9839  -20.4066   -7.3575 C   0  0  0  0  0  0  0  0  0  0  0  0
   24.6617  -21.4851   -9.6690 C   0  0  0  0  0  0  0  0  0  0  0  0
   24.2650  -22.4047   -8.9163 O   0  0  0  0  0  0  0  0  0  0  0  0
   23.8731  -20.3610   -9.8246 O   0  0  0  0  0  0  0  0  0  0  0  0
  1  2  1  0
  3  2  1  0
  4  3  1  0
  5  4  1  0
  5  1  1  0
  6  7  2  0
  5  6  1  1
  8  6  1  0
  9  8  1  0
 10 11  1  0
  9 10  1  6
 11 15  1  0
 12 11  2  0
 12 13  1  0
 13 14  1  0
 15 14  2  0
 16 18  1  0
 16  9  1  0
 17 16  2  0
 19 18  1  0
 19 30  1  0
 19 20  1  1
 21 22  2  0
 21 20  1  0
 23 22  1  0
 24 29  2  0
 24 23  1  0
 25 24  1  0
 26 27  1  0
 26 25  2  0
 27 28  2  0
 28 29  1  0
 29 21  1  0
 30 32  1  0
 31 30  2  0
M  END
$$$$
