PHW.pdb
     RDKit          3D

 32 35  0  0  1  0  0  0  0  0999 V2000
   28.5780  -18.9120  -16.8215 N   0  0  0  0  0  0  0  0  0  0  0  0
   29.5894  -18.3546  -17.7282 C   0  0  0  0  0  0  0  0  0  0  0  0
   30.1322  -17.1236  -17.0481 C   0  0  0  0  0  0  0  0  0  0  0  0
   29.3822  -17.0753  -15.7108 C   0  0  0  0  0  0  0  0  0  0  0  0
   29.0628  -18.5422  -15.5237 C   0  0  1  0  0  0  0  0  0  0  0  0
   28.0504  -18.7213  -14.4602 C   0  0  0  0  0  0  0  0  0  0  0  0
   28.0658  -18.0828  -13.3801 O   0  0  0  0  0  0  0  0  0  0  0  0
   26.9636  -19.6504  -14.5906 N   0  0  0  0  0  0  0  0  0  0  0  0
   25.9079  -19.7857  -13.6598 C   0  0  1  0  0  0  0  0  0  0  0  0
   24.5622  -20.1072  -14.1456 C   0  0  0  0  0  0  0  0  0  0  0  0
   23.4680  -20.1376  -13.1832 C   0  0  0  0  0  0  0  0  0  0  0  0
   23.3697  -19.8824  -11.8441 C   0  0  0  0  0  0  0  0  0  0  0  0
   22.1023  -20.0424  -11.4429 N   0  0  0  0  0  0  0  0  0  0  0  0
   21.3833  -20.3963  -12.5032 C   0  0  0  0  0  0  0  0  0  0  0  0
   22.1935  -20.4591  -13.5675 N   0  0  0  0  0  0  0  0  0  0  0  0
   26.3702  -20.7251  -12.5783 C   0  0  0  0  0  0  0  0  0  0  0  0
   26.8145  -21.8730  -12.8569 O   0  0  0  0  0  0  0  0  0  0  0  0
   26.3387  -20.3916  -11.2019 N   0  0  0  0  0  0  0  0  0  0  0  0
   26.4129  -21.3763  -10.1339 C   0  0  1  0  0  0  0  0  0  0  0  0
   27.6209  -21.1991   -9.2784 C   0  0  0  0  0  0  0  0  0  0  0  0
   27.4242  -20.2604   -8.1509 C   0  0  0  0  0  0  0  0  0  0  0  0
   26.6417  -19.1222   -8.1437 C   0  0  0  0  0  0  0  0  0  0  0  0
   26.7399  -18.5612   -6.9259 N   0  0  0  0  0  0  0  0  0  0  0  0
   27.5459  -19.2648   -6.1223 C   0  0  0  0  0  0  0  0  0  0  0  0
   27.9403  -19.0776   -4.8148 C   0  0  0  0  0  0  0  0  0  0  0  0
   28.8003  -19.9963   -4.2538 C   0  0  0  0  0  0  0  0  0  0  0  0
   29.2475  -21.0669   -4.9851 C   0  0  0  0  0  0  0  0  0  0  0  0
   28.8352  -21.2367   -6.3071 C   0  0  0  0  0  0  0  0  0  0  0  0
   27.9840  -20.3392   -6.8831 C   0  0  0  0  0  0  0  0  0  0  0  0
   25.2116  -21.2948   -9.2509 C   0  0  0  0  0  0  0  0  0  0  0  0
   25.0883  -22.1124   -8.3096 O   0  0  0  0  0  0  0  0  0  0  0  0
   24.2296  -20.3413   -9.4414 O   0  0  0  0  0  0  0  0  0  0  0  0
  1  2  1  0
  3  2  1  0
  4  3  1  0
  5  4  1  0
  5  1  1  0
  6  7  2  0
  5  6  1  1
  8  6  1  0
  9  8  1  0
 10 11  1  0
  9 10  1  6
 11 15  1  0
 12 11  2  0
 12 13  1  0
 13 14  1  0
 15 14  2  0
 16 18  1  0
 16  9  1  0
 17 16  2  0
 19 18  1  0
 19 30  1  0
 19 20  1  1
 21 22  2  0
 21 20  1  0
 23 22  1  0
 24 29  2  0
 24 23  1  0
 25 24  1  0
 26 27  1  0
 26 25  2  0
 27 28  2  0
 28 29  1  0
 29 21  1  0
 30 32  1  0
 31 30  2  0
M  END
$$$$
