PHW.pdb
     RDKit          3D

 32 35  0  0  1  0  0  0  0  0999 V2000
   30.1423  -24.3467  -17.6542 N   0  0  0  0  0  0  0  0  0  0  0  0
   31.1099  -25.2524  -18.2861 C   0  0  0  0  0  0  0  0  0  0  0  0
   32.4343  -24.9877  -17.6164 C   0  0  0  0  0  0  0  0  0  0  0  0
   32.1131  -23.9175  -16.5653 C   0  0  0  0  0  0  0  0  0  0  0  0
   30.6485  -24.2065  -16.3200 C   0  0  1  0  0  0  0  0  0  0  0  0
   30.0165  -23.0923  -15.5803 C   0  0  0  0  0  0  0  0  0  0  0  0
   30.2587  -22.8407  -14.3751 O   0  0  0  0  0  0  0  0  0  0  0  0
   29.0689  -22.2078  -16.1975 N   0  0  0  0  0  0  0  0  0  0  0  0
   28.4958  -21.0795  -15.5667 C   0  0  1  0  0  0  0  0  0  0  0  0
   28.0777  -19.9371  -16.3855 C   0  0  0  0  0  0  0  0  0  0  0  0
   27.4573  -18.7987  -15.7195 C   0  0  0  0  0  0  0  0  0  0  0  0
   27.9268  -17.6191  -15.2135 C   0  0  0  0  0  0  0  0  0  0  0  0
   26.9117  -16.9025  -14.7148 N   0  0  0  0  0  0  0  0  0  0  0  0
   25.7959  -17.6025  -14.8925 C   0  0  0  0  0  0  0  0  0  0  0  0
   26.1063  -18.7547  -15.5000 N   0  0  0  0  0  0  0  0  0  0  0  0
   27.3994  -21.5710  -14.6599 C   0  0  0  0  0  0  0  0  0  0  0  0
   26.5041  -22.3533  -15.0832 O   0  0  0  0  0  0  0  0  0  0  0  0
   27.2998  -21.1967  -13.2974 N   0  0  0  0  0  0  0  0  0  0  0  0
   26.2447  -21.6616  -12.4107 C   0  0  1  0  0  0  0  0  0  0  0  0
   26.7754  -22.1908  -11.1219 C   0  0  0  0  0  0  0  0  0  0  0  0
   26.6251  -21.2569   -9.9834 C   0  0  0  0  0  0  0  0  0  0  0  0
   25.5002  -20.5289   -9.6482 C   0  0  0  0  0  0  0  0  0  0  0  0
   25.7859  -19.8098   -8.5489 N   0  0  0  0  0  0  0  0  0  0  0  0
   27.0408  -20.0198   -8.1345 C   0  0  0  0  0  0  0  0  0  0  0  0
   27.7618  -19.5114   -7.0754 C   0  0  0  0  0  0  0  0  0  0  0  0
   29.0642  -19.9298   -6.9109 C   0  0  0  0  0  0  0  0  0  0  0  0
   29.6209  -20.8296   -7.7835 C   0  0  0  0  0  0  0  0  0  0  0  0
   28.8724  -21.3312   -8.8486 C   0  0  0  0  0  0  0  0  0  0  0  0
   27.5809  -20.9308   -9.0309 C   0  0  0  0  0  0  0  0  0  0  0  0
   25.2914  -20.5570  -12.0933 C   0  0  0  0  0  0  0  0  0  0  0  0
   25.6805  -19.3695  -12.1822 O   0  0  0  0  0  0  0  0  0  0  0  0
   23.9893  -20.8068  -11.7038 O   0  0  0  0  0  0  0  0  0  0  0  0
  1  2  1  0
  3  2  1  0
  4  3  1  0
  5  4  1  0
  5  1  1  0
  6  7  2  0
  5  6  1  6
  8  6  1  0
  9  8  1  0
 10 11  1  0
  9 10  1  6
 11 15  1  0
 12 11  2  0
 12 13  1  0
 13 14  1  0
 15 14  2  0
 16 18  1  0
 16  9  1  0
 17 16  2  0
 19 18  1  0
 19 30  1  0
 19 20  1  1
 21 22  2  0
 21 20  1  0
 23 22  1  0
 24 29  2  0
 24 23  1  0
 25 24  1  0
 26 27  1  0
 26 25  2  0
 27 28  2  0
 28 29  1  0
 29 21  1  0
 30 32  1  0
 31 30  2  0
M  END
$$$$
