PHW.pdb
     RDKit          3D

 32 35  0  0  1  0  0  0  0  0999 V2000
   28.6427  -18.7128  -18.3872 N   0  0  0  0  0  0  0  0  0  0  0  0
   29.8850  -18.4532  -19.1256 C   0  0  0  0  0  0  0  0  0  0  0  0
   30.4138  -17.1385  -18.6114 C   0  0  0  0  0  0  0  0  0  0  0  0
   29.4056  -16.7284  -17.5305 C   0  0  0  0  0  0  0  0  0  0  0  0
   28.8786  -18.0857  -17.1196 C   0  0  1  0  0  0  0  0  0  0  0  0
   27.6474  -17.9417  -16.3124 C   0  0  0  0  0  0  0  0  0  0  0  0
   27.6281  -17.4149  -15.1737 O   0  0  0  0  0  0  0  0  0  0  0  0
   26.3702  -18.4001  -16.7814 N   0  0  0  0  0  0  0  0  0  0  0  0
   25.1582  -18.2682  -16.0652 C   0  0  1  0  0  0  0  0  0  0  0  0
   24.0045  -17.6429  -16.7197 C   0  0  0  0  0  0  0  0  0  0  0  0
   22.7764  -17.4818  -15.9514 C   0  0  0  0  0  0  0  0  0  0  0  0
   22.1809  -16.4278  -15.3170 C   0  0  0  0  0  0  0  0  0  0  0  0
   21.0260  -16.8226  -14.7663 N   0  0  0  0  0  0  0  0  0  0  0  0
   20.8689  -18.1144  -15.0368 C   0  0  0  0  0  0  0  0  0  0  0  0
   21.9196  -18.5317  -15.7545 N   0  0  0  0  0  0  0  0  0  0  0  0
   24.8275  -19.6130  -15.4753 C   0  0  0  0  0  0  0  0  0  0  0  0
   24.9080  -20.6662  -16.1661 O   0  0  0  0  0  0  0  0  0  0  0  0
   24.4120  -19.7848  -14.1321 N   0  0  0  0  0  0  0  0  0  0  0  0
   24.1815  -21.0847  -13.5216 C   0  0  1  0  0  0  0  0  0  0  0  0
   25.4207  -21.6632  -12.9278 C   0  0  0  0  0  0  0  0  0  0  0  0
   26.1329  -20.7429  -12.0131 C   0  0  0  0  0  0  0  0  0  0  0  0
   27.0287  -19.7515  -12.3628 C   0  0  0  0  0  0  0  0  0  0  0  0
   27.4410  -19.1500  -11.2334 N   0  0  0  0  0  0  0  0  0  0  0  0
   26.8677  -19.6880  -10.1506 C   0  0  0  0  0  0  0  0  0  0  0  0
   26.9841  -19.4057   -8.8064 C   0  0  0  0  0  0  0  0  0  0  0  0
   26.2480  -20.1554   -7.9152 C   0  0  0  0  0  0  0  0  0  0  0  0
   25.4228  -21.1551   -8.3630 C   0  0  0  0  0  0  0  0  0  0  0  0
   25.3204  -21.4235   -9.7283 C   0  0  0  0  0  0  0  0  0  0  0  0
   26.0402  -20.6938  -10.6289 C   0  0  0  0  0  0  0  0  0  0  0  0
   23.1573  -20.9900  -12.4392 C   0  0  0  0  0  0  0  0  0  0  0  0
   22.7537  -22.0393  -11.8861 O   0  0  0  0  0  0  0  0  0  0  0  0
   22.6406  -19.7760  -12.0282 O   0  0  0  0  0  0  0  0  0  0  0  0
  1  2  1  0
  3  2  1  0
  4  3  1  0
  5  4  1  0
  5  1  1  0
  6  7  2  0
  5  6  1  6
  8  6  1  0
  9  8  1  0
 10 11  1  0
  9 10  1  6
 11 15  1  0
 12 11  2  0
 12 13  1  0
 13 14  1  0
 15 14  2  0
 16 18  1  0
 16  9  1  0
 17 16  2  0
 19 18  1  0
 19 30  1  0
 19 20  1  1
 21 22  2  0
 21 20  1  0
 23 22  1  0
 24 29  2  0
 24 23  1  0
 25 24  1  0
 26 27  1  0
 26 25  2  0
 27 28  2  0
 28 29  1  0
 29 21  1  0
 30 32  1  0
 31 30  2  0
M  END
$$$$
