PHW.pdb
     RDKit          3D

 32 35  0  0  1  0  0  0  0  0999 V2000
   28.8848  -18.3559  -16.0368 N   0  0  0  0  0  0  0  0  0  0  0  0
   29.5409  -17.2530  -16.7501 C   0  0  0  0  0  0  0  0  0  0  0  0
   28.4901  -16.6455  -17.6442 C   0  0  0  0  0  0  0  0  0  0  0  0
   27.2262  -17.4604  -17.3410 C   0  0  0  0  0  0  0  0  0  0  0  0
   27.5254  -17.9129  -15.9288 C   0  0  1  0  0  0  0  0  0  0  0  0
   26.6000  -18.9933  -15.5231 C   0  0  0  0  0  0  0  0  0  0  0  0
   25.3673  -18.8207  -15.3639 O   0  0  0  0  0  0  0  0  0  0  0  0
   27.0528  -20.3338  -15.2800 N   0  0  0  0  0  0  0  0  0  0  0  0
   26.2041  -21.4273  -14.9912 C   0  0  1  0  0  0  0  0  0  0  0  0
   26.4474  -22.7153  -15.6484 C   0  0  0  0  0  0  0  0  0  0  0  0
   25.4573  -23.7727  -15.4865 C   0  0  0  0  0  0  0  0  0  0  0  0
   25.0322  -24.5258  -14.4282 C   0  0  0  0  0  0  0  0  0  0  0  0
   24.0639  -25.3612  -14.8249 N   0  0  0  0  0  0  0  0  0  0  0  0
   23.8589  -25.1570  -16.1222 C   0  0  0  0  0  0  0  0  0  0  0  0
   24.6940  -24.1977  -16.5411 N   0  0  0  0  0  0  0  0  0  0  0  0
   26.1133  -21.5520  -13.4938 C   0  0  0  0  0  0  0  0  0  0  0  0
   26.9284  -22.2670  -12.8480 O   0  0  0  0  0  0  0  0  0  0  0  0
   25.1270  -20.8888  -12.7231 N   0  0  0  0  0  0  0  0  0  0  0  0
   24.9137  -21.1357  -11.3057 C   0  0  1  0  0  0  0  0  0  0  0  0
   25.6115  -20.1403  -10.4426 C   0  0  0  0  0  0  0  0  0  0  0  0
   26.9055  -20.6165   -9.9044 C   0  0  0  0  0  0  0  0  0  0  0  0
   27.8374  -21.4024  -10.5539 C   0  0  0  0  0  0  0  0  0  0  0  0
   28.8667  -21.6030   -9.7129 N   0  0  0  0  0  0  0  0  0  0  0  0
   28.6700  -20.9930   -8.5382 C   0  0  0  0  0  0  0  0  0  0  0  0
   29.4351  -20.9222   -7.3939 C   0  0  0  0  0  0  0  0  0  0  0  0
   28.9477  -20.2015   -6.3256 C   0  0  0  0  0  0  0  0  0  0  0  0
   27.7312  -19.5737   -6.4076 C   0  0  0  0  0  0  0  0  0  0  0  0
   26.9735  -19.6587   -7.5759 C   0  0  0  0  0  0  0  0  0  0  0  0
   27.4365  -20.3671   -8.6462 C   0  0  0  0  0  0  0  0  0  0  0  0
   23.4592  -21.0908  -10.9709 C   0  0  0  0  0  0  0  0  0  0  0  0
   22.6409  -20.7303  -11.8484 O   0  0  0  0  0  0  0  0  0  0  0  0
   22.9881  -21.4366   -9.7186 O   0  0  0  0  0  0  0  0  0  0  0  0
  1  2  1  0
  3  2  1  0
  4  3  1  0
  5  4  1  0
  5  1  1  0
  6  7  2  0
  5  6  1  6
  8  6  1  0
  9  8  1  0
 10 11  1  0
  9 10  1  6
 11 15  1  0
 12 11  2  0
 12 13  1  0
 13 14  1  0
 15 14  2  0
 16 18  1  0
 16  9  1  0
 17 16  2  0
 19 18  1  0
 19 30  1  0
 19 20  1  1
 21 22  2  0
 21 20  1  0
 23 22  1  0
 24 29  2  0
 24 23  1  0
 25 24  1  0
 26 27  1  0
 26 25  2  0
 27 28  2  0
 28 29  1  0
 29 21  1  0
 30 32  1  0
 31 30  2  0
M  END
$$$$
