WNS.pdb
     RDKit          3D

 29 30  0  0  1  0  0  0  0  0999 V2000
    7.4147  -17.1957   23.4399 N   0  0  0  0  0  0  0  0  0  0  0  0
    8.5500  -16.2731   23.6417 C   0  0  1  0  0  0  0  0  0  0  0  0
    8.6352  -16.0301   25.0972 C   0  0  0  0  0  0  0  0  0  0  0  0
    7.5057  -15.2583   25.6359 C   0  0  0  0  0  0  0  0  0  0  0  0
    6.2704  -15.8001   25.9778 C   0  0  0  0  0  0  0  0  0  0  0  0
    5.5249  -14.7801   26.4107 N   0  0  0  0  0  0  0  0  0  0  0  0
    6.2213  -13.6188   26.3641 C   0  0  0  0  0  0  0  0  0  0  0  0
    5.9313  -12.3147   26.6997 C   0  0  0  0  0  0  0  0  0  0  0  0
    6.8781  -11.3247   26.5482 C   0  0  0  0  0  0  0  0  0  0  0  0
    8.1499  -11.5856   26.0581 C   0  0  0  0  0  0  0  0  0  0  0  0
    8.4283  -12.8896   25.7265 C   0  0  0  0  0  0  0  0  0  0  0  0
    7.4739  -13.8966   25.8791 C   0  0  0  0  0  0  0  0  0  0  0  0
    9.7122  -16.8123   22.9595 C   0  0  0  0  0  0  0  0  0  0  0  0
    9.9041  -18.0777   23.0160 O   0  0  0  0  0  0  0  0  0  0  0  0
   11.7927  -16.6844   18.3820 N   0  0  0  0  0  0  0  0  0  0  0  0
   11.6872  -15.7261   19.4429 C   0  0  0  0  0  0  0  0  0  0  0  0
   10.8862  -14.7573   19.3600 O   0  0  0  0  0  0  0  0  0  0  0  0
   12.5034  -15.8445   20.6524 C   0  0  0  0  0  0  0  0  0  0  0  0
   11.9097  -16.7608   21.7115 C   0  0  2  0  0  0  0  0  0  0  0  0
   10.6810  -16.1068   22.2211 N   0  0  0  0  0  0  0  0  0  0  0  0
   12.8327  -17.0646   22.8050 C   0  0  0  0  0  0  0  0  0  0  0  0
   13.1447  -16.0901   23.5916 O   0  0  0  0  0  0  0  0  0  0  0  0
   13.7808  -20.7570   23.9603 O   0  0  0  0  0  0  0  0  0  0  0  0
   14.2259  -19.8367   24.8836 C   0  0  0  0  0  0  0  0  0  0  0  0
   14.3477  -18.4253   24.2792 C   0  0  2  0  0  0  0  0  0  0  0  0
   13.4427  -18.2850   23.1355 N   0  0  0  0  0  0  0  0  0  0  0  0
   15.7239  -18.3081   23.8132 C   0  0  0  0  0  0  0  0  0  0  0  0
   16.7867  -18.3995   24.6706 O   0  0  0  0  0  0  0  0  0  0  0  0
   15.9475  -18.1206   22.5947 O   0  0  0  0  0  0  0  0  0  0  0  0
  2  1  1  1
  2 13  1  0
  3  2  1  0
  3  4  1  0
  4 12  1  0
  4  5  2  0
  5  6  1  0
  7  8  2  0
  7  6  1  0
  9  8  1  0
 10  9  2  0
 11 10  1  0
 11 12  2  0
 12  7  1  0
 13 20  1  0
 13 14  2  0
 15 16  1  0
 16 18  1  0
 17 16  2  0
 19 18  1  6
 19 21  1  0
 20 19  1  0
 21 26  1  0
 21 22  2  0
 25 24  1  6
 24 23  1  0
 25 27  1  0
 26 25  1  0
 27 28  1  0
 29 27  2  0
M  END
$$$$
