WNS.pdb
     RDKit          3D

 29 30  0  0  1  0  0  0  0  0999 V2000
    7.1177  -17.8803   24.0851 N   0  0  0  0  0  0  0  0  0  0  0  0
    8.0597  -16.7791   24.3693 C   0  0  1  0  0  0  0  0  0  0  0  0
    7.7626  -16.3213   25.7429 C   0  0  0  0  0  0  0  0  0  0  0  0
    6.7928  -15.2177   25.8027 C   0  0  0  0  0  0  0  0  0  0  0  0
    5.4305  -15.3752   26.0384 C   0  0  0  0  0  0  0  0  0  0  0  0
    4.9034  -14.1488   26.0021 N   0  0  0  0  0  0  0  0  0  0  0  0
    5.8586  -13.2194   25.7578 C   0  0  0  0  0  0  0  0  0  0  0  0
    5.8505  -11.8473   25.6370 C   0  0  0  0  0  0  0  0  0  0  0  0
    7.0188  -11.1581   25.3931 C   0  0  0  0  0  0  0  0  0  0  0  0
    8.2421  -11.7994   25.2585 C   0  0  0  0  0  0  0  0  0  0  0  0
    8.2386  -13.1679   25.3807 C   0  0  0  0  0  0  0  0  0  0  0  0
    7.0588  -13.8710   25.6291 C   0  0  0  0  0  0  0  0  0  0  0  0
    9.4053  -17.2301   24.0646 C   0  0  0  0  0  0  0  0  0  0  0  0
    9.7194  -18.4304   24.3838 O   0  0  0  0  0  0  0  0  0  0  0  0
   11.9478  -17.1199   20.3848 N   0  0  0  0  0  0  0  0  0  0  0  0
   12.0465  -15.9662   21.2300 C   0  0  0  0  0  0  0  0  0  0  0  0
   11.6178  -14.8459   20.8452 O   0  0  0  0  0  0  0  0  0  0  0  0
   12.6454  -16.0548   22.5629 C   0  0  0  0  0  0  0  0  0  0  0  0
   11.8575  -16.9157   23.5385 C   0  0  2  0  0  0  0  0  0  0  0  0
   10.4375  -16.5013   23.4442 N   0  0  0  0  0  0  0  0  0  0  0  0
   12.3384  -16.8255   24.9171 C   0  0  0  0  0  0  0  0  0  0  0  0
   13.5677  -17.1574   25.1282 O   0  0  0  0  0  0  0  0  0  0  0  0
   10.1258  -15.7711   28.3089 O   0  0  0  0  0  0  0  0  0  0  0  0
   11.4755  -15.4990   28.3505 C   0  0  0  0  0  0  0  0  0  0  0  0
   12.2763  -16.4030   27.3946 C   0  0  2  0  0  0  0  0  0  0  0  0
   11.6483  -16.4215   26.0710 N   0  0  0  0  0  0  0  0  0  0  0  0
   12.2162  -17.7420   27.9676 C   0  0  0  0  0  0  0  0  0  0  0  0
   12.7438  -18.0250   29.1983 O   0  0  0  0  0  0  0  0  0  0  0  0
   11.6657  -18.6639   27.3220 O   0  0  0  0  0  0  0  0  0  0  0  0
  2  1  1  1
  2 13  1  0
  3  2  1  0
  3  4  1  0
  4 12  1  0
  4  5  2  0
  5  6  1  0
  7  8  2  0
  7  6  1  0
  9  8  1  0
 10  9  2  0
 11 10  1  0
 11 12  2  0
 12  7  1  0
 13 20  1  0
 13 14  2  0
 15 16  1  0
 16 18  1  0
 17 16  2  0
 19 18  1  6
 19 21  1  0
 20 19  1  0
 21 26  1  0
 21 22  2  0
 25 24  1  1
 24 23  1  0
 25 27  1  0
 26 25  1  0
 27 28  1  0
 29 27  2  0
M  END
$$$$
