WNS.pdb
     RDKit          3D

 29 30  0  0  1  0  0  0  0  0999 V2000
    6.3272  -17.5648   24.0425 N   0  0  0  0  0  0  0  0  0  0  0  0
    7.2865  -16.8907   23.1446 C   0  0  1  0  0  0  0  0  0  0  0  0
    6.8834  -15.4695   23.0965 C   0  0  0  0  0  0  0  0  0  0  0  0
    6.6519  -14.8744   24.4210 C   0  0  0  0  0  0  0  0  0  0  0  0
    6.0865  -15.5457   25.5007 C   0  0  0  0  0  0  0  0  0  0  0  0
    6.0382  -14.6635   26.5021 N   0  0  0  0  0  0  0  0  0  0  0  0
    6.5447  -13.4673   26.1170 C   0  0  0  0  0  0  0  0  0  0  0  0
    6.7343  -12.2593   26.7511 C   0  0  0  0  0  0  0  0  0  0  0  0
    7.3033  -11.1977   26.0813 C   0  0  0  0  0  0  0  0  0  0  0  0
    7.7071  -11.2889   24.7568 C   0  0  0  0  0  0  0  0  0  0  0  0
    7.5132  -12.4982   24.1341 C   0  0  0  0  0  0  0  0  0  0  0  0
    6.9388  -13.5772   24.8078 C   0  0  0  0  0  0  0  0  0  0  0  0
    8.6333  -17.2152   23.5778 C   0  0  0  0  0  0  0  0  0  0  0  0
    8.7669  -18.0674   24.5251 O   0  0  0  0  0  0  0  0  0  0  0  0
   13.8246  -18.1435   23.6203 N   0  0  0  0  0  0  0  0  0  0  0  0
   13.5772  -16.8892   22.9717 C   0  0  0  0  0  0  0  0  0  0  0  0
   14.5175  -16.2420   22.4386 O   0  0  0  0  0  0  0  0  0  0  0  0
   12.2282  -16.3245   22.9076 C   0  0  0  0  0  0  0  0  0  0  0  0
   11.1607  -17.1999   23.5463 C   0  0  2  0  0  0  0  0  0  0  0  0
    9.8453  -16.7037   23.0768 N   0  0  0  0  0  0  0  0  0  0  0  0
   11.2205  -17.2214   25.0078 C   0  0  0  0  0  0  0  0  0  0  0  0
   11.1812  -16.0801   25.6093 O   0  0  0  0  0  0  0  0  0  0  0  0
    9.5845  -19.5954   27.3020 O   0  0  0  0  0  0  0  0  0  0  0  0
   10.5810  -19.0807   28.1018 C   0  0  0  0  0  0  0  0  0  0  0  0
   11.5413  -18.1704   27.3136 C   0  0  2  0  0  0  0  0  0  0  0  0
   11.3147  -18.3221   25.8741 N   0  0  0  0  0  0  0  0  0  0  0  0
   12.8851  -18.6348   27.6346 C   0  0  0  0  0  0  0  0  0  0  0  0
   13.3693  -18.6152   28.9145 O   0  0  0  0  0  0  0  0  0  0  0  0
   13.6223  -19.0675   26.7185 O   0  0  0  0  0  0  0  0  0  0  0  0
  2  1  1  1
  2 13  1  0
  3  2  1  0
  3  4  1  0
  4 12  1  0
  4  5  2  0
  5  6  1  0
  7  8  2  0
  7  6  1  0
  9  8  1  0
 10  9  2  0
 11 10  1  0
 11 12  2  0
 12  7  1  0
 13 20  1  0
 13 14  2  0
 15 16  1  0
 16 18  1  0
 17 16  2  0
 19 18  1  6
 19 21  1  0
 20 19  1  0
 21 26  1  0
 21 22  2  0
 25 24  1  1
 24 23  1  0
 25 27  1  0
 26 25  1  0
 27 28  1  0
 29 27  2  0
M  END
$$$$
