WNS.pdb
     RDKit          3D

 29 30  0  0  1  0  0  0  0  0999 V2000
    6.5661  -17.9381   23.8593 N   0  0  0  0  0  0  0  0  0  0  0  0
    6.8455  -16.5123   23.5953 C   0  0  1  0  0  0  0  0  0  0  0  0
    7.7029  -16.0439   24.7044 C   0  0  0  0  0  0  0  0  0  0  0  0
    7.0203  -15.1355   25.6377 C   0  0  0  0  0  0  0  0  0  0  0  0
    6.0259  -15.5219   26.5310 C   0  0  0  0  0  0  0  0  0  0  0  0
    5.6607  -14.4143   27.1815 N   0  0  0  0  0  0  0  0  0  0  0  0
    6.3714  -13.3443   26.7506 C   0  0  0  0  0  0  0  0  0  0  0  0
    6.3941  -12.0100   27.0916 C   0  0  0  0  0  0  0  0  0  0  0  0
    7.2628  -11.1413   26.4668 C   0  0  0  0  0  0  0  0  0  0  0  0
    8.1436  -11.5585   25.4790 C   0  0  0  0  0  0  0  0  0  0  0  0
    8.1125  -12.8913   25.1467 C   0  0  0  0  0  0  0  0  0  0  0  0
    7.2360  -13.7759   25.7770 C   0  0  0  0  0  0  0  0  0  0  0  0
    7.3367  -16.3803   22.2358 C   0  0  0  0  0  0  0  0  0  0  0  0
    7.8408  -17.4185   21.6796 O   0  0  0  0  0  0  0  0  0  0  0  0
    8.8958  -12.5831   17.7135 N   0  0  0  0  0  0  0  0  0  0  0  0
    8.1219  -13.7354   18.0716 C   0  0  0  0  0  0  0  0  0  0  0  0
    7.8854  -14.6412   17.2285 O   0  0  0  0  0  0  0  0  0  0  0  0
    7.5859  -13.8953   19.4243 C   0  0  0  0  0  0  0  0  0  0  0  0
    7.9873  -15.1985   20.0983 C   0  0  2  0  0  0  0  0  0  0  0  0
    7.3283  -15.2292   21.4256 N   0  0  0  0  0  0  0  0  0  0  0  0
    9.4346  -15.3670   20.2288 C   0  0  0  0  0  0  0  0  0  0  0  0
   10.1222  -15.3646   19.1365 O   0  0  0  0  0  0  0  0  0  0  0  0
   11.4827  -16.3989   23.6556 O   0  0  0  0  0  0  0  0  0  0  0  0
   12.2396  -15.6549   22.7775 C   0  0  0  0  0  0  0  0  0  0  0  0
   11.6623  -15.6840   21.3499 C   0  0  2  0  0  0  0  0  0  0  0  0
   10.2055  -15.5331   21.3902 N   0  0  0  0  0  0  0  0  0  0  0  0
   11.9891  -16.9996   20.8140 C   0  0  0  0  0  0  0  0  0  0  0  0
   11.0197  -17.9171   20.5115 O   0  0  0  0  0  0  0  0  0  0  0  0
   13.1887  -17.3049   20.6202 O   0  0  0  0  0  0  0  0  0  0  0  0
  2  1  1  1
  2 13  1  0
  3  2  1  0
  3  4  1  0
  4 12  1  0
  4  5  2  0
  5  6  1  0
  7  8  2  0
  7  6  1  0
  9  8  1  0
 10  9  2  0
 11 10  1  0
 11 12  2  0
 12  7  1  0
 13 20  1  0
 13 14  2  0
 15 16  1  0
 16 18  1  0
 17 16  2  0
 19 18  1  1
 19 21  1  0
 20 19  1  0
 21 26  1  0
 21 22  2  0
 25 24  1  1
 24 23  1  0
 25 27  1  0
 26 25  1  0
 27 28  1  0
 29 27  2  0
M  END
$$$$
