WNS.pdb
     RDKit          3D

 29 30  0  0  1  0  0  0  0  0999 V2000
    7.2790  -17.1694   23.5226 N   0  0  0  0  0  0  0  0  0  0  0  0
    8.3703  -16.1757   23.4730 C   0  0  1  0  0  0  0  0  0  0  0  0
    8.5820  -15.7202   24.8631 C   0  0  0  0  0  0  0  0  0  0  0  0
    7.4659  -14.9304   25.4039 C   0  0  0  0  0  0  0  0  0  0  0  0
    6.2572  -15.4656   25.8387 C   0  0  0  0  0  0  0  0  0  0  0  0
    5.5157  -14.4299   26.2396 N   0  0  0  0  0  0  0  0  0  0  0  0
    6.1894  -13.2645   26.0847 C   0  0  0  0  0  0  0  0  0  0  0  0
    5.8934  -11.9454   26.3485 C   0  0  0  0  0  0  0  0  0  0  0  0
    6.8152  -10.9545   26.0882 C   0  0  0  0  0  0  0  0  0  0  0  0
    8.0669  -11.2294   25.5559 C   0  0  0  0  0  0  0  0  0  0  0  0
    8.3516  -12.5483   25.2967 C   0  0  0  0  0  0  0  0  0  0  0  0
    7.4225  -13.5562   25.5595 C   0  0  0  0  0  0  0  0  0  0  0  0
    9.4912  -16.7540   22.7546 C   0  0  0  0  0  0  0  0  0  0  0  0
    9.5736  -18.0316   22.7050 O   0  0  0  0  0  0  0  0  0  0  0  0
   11.9860  -14.0031   19.4926 N   0  0  0  0  0  0  0  0  0  0  0  0
   12.3630  -15.3204   19.9141 C   0  0  0  0  0  0  0  0  0  0  0  0
   12.3624  -16.2828   19.1012 O   0  0  0  0  0  0  0  0  0  0  0  0
   12.7608  -15.5864   21.2976 C   0  0  0  0  0  0  0  0  0  0  0  0
   11.8999  -16.6258   21.9993 C   0  0  2  0  0  0  0  0  0  0  0  0
   10.5263  -16.0753   22.0843 N   0  0  0  0  0  0  0  0  0  0  0  0
   12.3972  -16.9983   23.3237 C   0  0  0  0  0  0  0  0  0  0  0  0
   12.7020  -16.0329   24.1242 O   0  0  0  0  0  0  0  0  0  0  0  0
   11.6249  -20.4280   25.1512 O   0  0  0  0  0  0  0  0  0  0  0  0
   12.1202  -19.4487   25.9837 C   0  0  0  0  0  0  0  0  0  0  0  0
   13.0617  -18.4819   25.2413 C   0  0  2  0  0  0  0  0  0  0  0  0
   12.5956  -18.2773   23.8674 N   0  0  0  0  0  0  0  0  0  0  0  0
   14.3628  -19.1382   25.2089 C   0  0  0  0  0  0  0  0  0  0  0  0
   15.0591  -19.4180   26.3534 O   0  0  0  0  0  0  0  0  0  0  0  0
   14.8628  -19.4599   24.1060 O   0  0  0  0  0  0  0  0  0  0  0  0
  2  1  1  1
  2 13  1  0
  3  2  1  0
  3  4  1  0
  4 12  1  0
  4  5  2  0
  5  6  1  0
  7  8  2  0
  7  6  1  0
  9  8  1  0
 10  9  2  0
 11 10  1  0
 11 12  2  0
 12  7  1  0
 13 20  1  0
 13 14  2  0
 15 16  1  0
 16 18  1  0
 17 16  2  0
 19 18  1  1
 19 21  1  0
 20 19  1  0
 21 26  1  0
 21 22  2  0
 25 24  1  1
 24 23  1  0
 25 27  1  0
 26 25  1  0
 27 28  1  0
 29 27  2  0
M  END
$$$$
