WNS.pdb
     RDKit          3D

 29 30  0  0  1  0  0  0  0  0999 V2000
    6.7495  -17.9705   24.3057 N   0  0  0  0  0  0  0  0  0  0  0  0
    7.3751  -16.8619   23.5570 C   0  0  1  0  0  0  0  0  0  0  0  0
    8.2616  -16.1633   24.5112 C   0  0  0  0  0  0  0  0  0  0  0  0
    7.5477  -15.2807   25.4458 C   0  0  0  0  0  0  0  0  0  0  0  0
    6.7042  -15.7218   26.4608 C   0  0  0  0  0  0  0  0  0  0  0  0
    6.2490  -14.6233   27.0685 N   0  0  0  0  0  0  0  0  0  0  0  0
    6.7596  -13.5070   26.4951 C   0  0  0  0  0  0  0  0  0  0  0  0
    6.6263  -12.1582   26.7403 C   0  0  0  0  0  0  0  0  0  0  0  0
    7.3030  -11.2356   25.9719 C   0  0  0  0  0  0  0  0  0  0  0  0
    8.1385  -11.6111   24.9294 C   0  0  0  0  0  0  0  0  0  0  0  0
    8.2640  -12.9588   24.6935 C   0  0  0  0  0  0  0  0  0  0  0  0
    7.5824  -13.8977   25.4694 C   0  0  0  0  0  0  0  0  0  0  0  0
    7.9526  -17.3948   22.3366 C   0  0  0  0  0  0  0  0  0  0  0  0
    8.4567  -18.5718   22.3789 O   0  0  0  0  0  0  0  0  0  0  0  0
    9.8068  -18.3124   17.4890 N   0  0  0  0  0  0  0  0  0  0  0  0
    9.0064  -17.1233   17.4686 C   0  0  0  0  0  0  0  0  0  0  0  0
    8.7817  -16.5152   16.3884 O   0  0  0  0  0  0  0  0  0  0  0  0
    8.4258  -16.5817   18.6985 C   0  0  0  0  0  0  0  0  0  0  0  0
    8.7844  -17.3685   19.9499 C   0  0  2  0  0  0  0  0  0  0  0  0
    8.0302  -16.7707   21.0772 N   0  0  0  0  0  0  0  0  0  0  0  0
   10.2192  -17.3917   20.2341 C   0  0  0  0  0  0  0  0  0  0  0  0
   10.7171  -18.5157   20.6275 O   0  0  0  0  0  0  0  0  0  0  0  0
   12.7980  -14.2763   19.6009 O   0  0  0  0  0  0  0  0  0  0  0  0
   13.4096  -15.5106   19.5943 C   0  0  0  0  0  0  0  0  0  0  0  0
   12.5900  -16.5650   20.3616 C   0  0  2  0  0  0  0  0  0  0  0  0
   11.1575  -16.3517   20.1397 N   0  0  0  0  0  0  0  0  0  0  0  0
   12.8889  -16.3536   21.7725 C   0  0  0  0  0  0  0  0  0  0  0  0
   11.9177  -16.0068   22.6722 O   0  0  0  0  0  0  0  0  0  0  0  0
   14.0653  -16.4939   22.1804 O   0  0  0  0  0  0  0  0  0  0  0  0
  2  1  1  1
  2 13  1  0
  3  2  1  0
  3  4  1  0
  4 12  1  0
  4  5  2  0
  5  6  1  0
  7  8  2  0
  7  6  1  0
  9  8  1  0
 10  9  2  0
 11 10  1  0
 11 12  2  0
 12  7  1  0
 13 20  1  0
 13 14  2  0
 15 16  1  0
 16 18  1  0
 17 16  2  0
 19 18  1  6
 19 21  1  0
 20 19  1  0
 21 26  1  0
 21 22  2  0
 25 24  1  6
 24 23  1  0
 25 27  1  0
 26 25  1  0
 27 28  1  0
 29 27  2  0
M  END
$$$$
