WNS.pdb
     RDKit          3D

 29 30  0  0  1  0  0  0  0  0999 V2000
    7.2831  -17.2601   21.2185 N   0  0  0  0  0  0  0  0  0  0  0  0
    7.8971  -16.2474   22.1007 C   0  0  1  0  0  0  0  0  0  0  0  0
    6.7803  -15.5263   22.7468 C   0  0  0  0  0  0  0  0  0  0  0  0
    7.1576  -14.2117   23.2867 C   0  0  0  0  0  0  0  0  0  0  0  0
    7.8613  -13.2404   22.5813 C   0  0  0  0  0  0  0  0  0  0  0  0
    8.0125  -12.2107   23.4180 N   0  0  0  0  0  0  0  0  0  0  0  0
    7.4404  -12.4747   24.6175 C   0  0  0  0  0  0  0  0  0  0  0  0
    7.3050  -11.7652   25.7903 C   0  0  0  0  0  0  0  0  0  0  0  0
    6.6394  -12.3107   26.8668 C   0  0  0  0  0  0  0  0  0  0  0  0
    6.0814  -13.5806   26.8259 C   0  0  0  0  0  0  0  0  0  0  0  0
    6.2224  -14.2794   25.6513 C   0  0  0  0  0  0  0  0  0  0  0  0
    6.8942  -13.7316   24.5574 C   0  0  0  0  0  0  0  0  0  0  0  0
    8.8799  -16.9024   22.9444 C   0  0  0  0  0  0  0  0  0  0  0  0
    8.5356  -17.9892   23.5289 O   0  0  0  0  0  0  0  0  0  0  0  0
   13.5180  -18.2855   22.1855 N   0  0  0  0  0  0  0  0  0  0  0  0
   13.0220  -16.9916   22.5527 C   0  0  0  0  0  0  0  0  0  0  0  0
   13.0180  -16.0431   21.7236 O   0  0  0  0  0  0  0  0  0  0  0  0
   12.5050  -16.7340   23.8978 C   0  0  0  0  0  0  0  0  0  0  0  0
   11.0895  -17.2427   24.1238 C   0  0  2  0  0  0  0  0  0  0  0  0
   10.1994  -16.4894   23.2088 N   0  0  0  0  0  0  0  0  0  0  0  0
   10.6392  -17.1202   25.5102 C   0  0  0  0  0  0  0  0  0  0  0  0
   10.7054  -15.9463   26.0427 O   0  0  0  0  0  0  0  0  0  0  0  0
    8.8484  -20.0686   27.7864 O   0  0  0  0  0  0  0  0  0  0  0  0
    8.6485  -18.7763   28.2194 C   0  0  0  0  0  0  0  0  0  0  0  0
    9.7767  -17.8331   27.7615 C   0  0  2  0  0  0  0  0  0  0  0  0
   10.1330  -18.1100   26.3676 N   0  0  0  0  0  0  0  0  0  0  0  0
   10.9202  -18.1358   28.6133 C   0  0  0  0  0  0  0  0  0  0  0  0
   12.0957  -18.6140   28.1008 O   0  0  0  0  0  0  0  0  0  0  0  0
   10.8324  -17.9534   29.8498 O   0  0  0  0  0  0  0  0  0  0  0  0
  2  1  1  6
  2 13  1  0
  3  2  1  0
  3  4  1  0
  4 12  1  0
  4  5  2  0
  5  6  1  0
  7  8  2  0
  7  6  1  0
  9  8  1  0
 10  9  2  0
 11 10  1  0
 11 12  2  0
 12  7  1  0
 13 20  1  0
 13 14  2  0
 15 16  1  0
 16 18  1  0
 17 16  2  0
 19 18  1  1
 19 21  1  0
 20 19  1  0
 21 26  1  0
 21 22  2  0
 25 24  1  1
 24 23  1  0
 25 27  1  0
 26 25  1  0
 27 28  1  0
 29 27  2  0
M  END
$$$$
