WNS.pdb
     RDKit          3D

 29 30  0  0  1  0  0  0  0  0999 V2000
    6.2481  -17.9582   24.1822 N   0  0  0  0  0  0  0  0  0  0  0  0
    6.8239  -16.6006   24.1024 C   0  0  1  0  0  0  0  0  0  0  0  0
    7.2669  -16.2555   25.4696 C   0  0  0  0  0  0  0  0  0  0  0  0
    6.5665  -15.0975   26.0445 C   0  0  0  0  0  0  0  0  0  0  0  0
    5.2527  -15.1166   26.5025 C   0  0  0  0  0  0  0  0  0  0  0  0
    4.9911  -13.8791   26.9311 N   0  0  0  0  0  0  0  0  0  0  0  0
    6.0696  -13.0745   26.7717 C   0  0  0  0  0  0  0  0  0  0  0  0
    6.3270  -11.7515   27.0553 C   0  0  0  0  0  0  0  0  0  0  0  0
    7.5619  -11.2035   26.7829 C   0  0  0  0  0  0  0  0  0  0  0  0
    8.5915  -11.9430   26.2184 C   0  0  0  0  0  0  0  0  0  0  0  0
    8.3238  -13.2615   25.9396 C   0  0  0  0  0  0  0  0  0  0  0  0
    7.0756  -13.8222   26.2145 C   0  0  0  0  0  0  0  0  0  0  0  0
    7.8011  -16.5741   23.0294 C   0  0  0  0  0  0  0  0  0  0  0  0
    8.5426  -17.6068   22.8714 O   0  0  0  0  0  0  0  0  0  0  0  0
    7.0857  -13.0950   19.5544 N   0  0  0  0  0  0  0  0  0  0  0  0
    8.0283  -14.1703   19.4533 C   0  0  0  0  0  0  0  0  0  0  0  0
    7.9055  -15.0546   18.5644 O   0  0  0  0  0  0  0  0  0  0  0  0
    9.1601  -14.2726   20.3762 C   0  0  0  0  0  0  0  0  0  0  0  0
    9.1917  -15.5670   21.1744 C   0  0  2  0  0  0  0  0  0  0  0  0
    8.0447  -15.5340   22.1127 N   0  0  0  0  0  0  0  0  0  0  0  0
   10.4486  -15.7802   21.8919 C   0  0  0  0  0  0  0  0  0  0  0  0
   10.7801  -14.8884   22.7640 O   0  0  0  0  0  0  0  0  0  0  0  0
   12.1607  -19.2262   22.6083 O   0  0  0  0  0  0  0  0  0  0  0  0
   12.7941  -18.1898   23.2580 C   0  0  0  0  0  0  0  0  0  0  0  0
   12.6368  -16.8550   22.5058 C   0  0  2  0  0  0  0  0  0  0  0  0
   11.3685  -16.8340   21.7726 N   0  0  0  0  0  0  0  0  0  0  0  0
   13.7378  -16.8023   21.5520 C   0  0  0  0  0  0  0  0  0  0  0  0
   15.0436  -16.7509   21.9588 O   0  0  0  0  0  0  0  0  0  0  0  0
   13.4894  -16.8059   20.3239 O   0  0  0  0  0  0  0  0  0  0  0  0
  2  1  1  1
  2 13  1  0
  3  2  1  0
  3  4  1  0
  4 12  1  0
  4  5  2  0
  5  6  1  0
  7  8  2  0
  7  6  1  0
  9  8  1  0
 10  9  2  0
 11 10  1  0
 11 12  2  0
 12  7  1  0
 13 20  1  0
 13 14  2  0
 15 16  1  0
 16 18  1  0
 17 16  2  0
 19 18  1  1
 19 21  1  0
 20 19  1  0
 21 26  1  0
 21 22  2  0
 25 24  1  6
 24 23  1  0
 25 27  1  0
 26 25  1  0
 27 28  1  0
 29 27  2  0
M  END
$$$$
