WNS.pdb
     RDKit          3D

 29 30  0  0  1  0  0  0  0  0999 V2000
    7.1630  -17.5085   24.0733 N   0  0  0  0  0  0  0  0  0  0  0  0
    8.2928  -16.5722   23.9073 C   0  0  1  0  0  0  0  0  0  0  0  0
    8.5244  -15.9602   25.2326 C   0  0  0  0  0  0  0  0  0  0  0  0
    7.4435  -15.0636   25.6680 C   0  0  0  0  0  0  0  0  0  0  0  0
    6.1584  -15.4798   26.0021 C   0  0  0  0  0  0  0  0  0  0  0  0
    5.4834  -14.3745   26.3280 N   0  0  0  0  0  0  0  0  0  0  0  0
    6.2717  -13.2777   26.2209 C   0  0  0  0  0  0  0  0  0  0  0  0
    6.0764  -11.9330   26.4460 C   0  0  0  0  0  0  0  0  0  0  0  0
    7.1038  -11.0340   26.2569 C   0  0  0  0  0  0  0  0  0  0  0  0
    8.3658  -11.4301   25.8369 C   0  0  0  0  0  0  0  0  0  0  0  0
    8.5495  -12.7736   25.6154 C   0  0  0  0  0  0  0  0  0  0  0  0
    7.5131  -13.6887   25.8066 C   0  0  0  0  0  0  0  0  0  0  0  0
    9.3888  -17.2772   23.2680 C   0  0  0  0  0  0  0  0  0  0  0  0
    9.4916  -18.5369   23.4777 O   0  0  0  0  0  0  0  0  0  0  0  0
   11.7265  -17.7211   18.9563 N   0  0  0  0  0  0  0  0  0  0  0  0
   11.7510  -16.5832   19.8279 C   0  0  0  0  0  0  0  0  0  0  0  0
   11.1941  -15.5033   19.4948 O   0  0  0  0  0  0  0  0  0  0  0  0
   12.4203  -16.6415   21.1285 C   0  0  0  0  0  0  0  0  0  0  0  0
   11.6634  -17.4412   22.1779 C   0  0  2  0  0  0  0  0  0  0  0  0
   10.3789  -16.7430   22.4219 N   0  0  0  0  0  0  0  0  0  0  0  0
   12.4070  -17.6197   23.4249 C   0  0  0  0  0  0  0  0  0  0  0  0
   12.8928  -16.5559   23.9709 O   0  0  0  0  0  0  0  0  0  0  0  0
   12.4189  -21.0087   25.6240 O   0  0  0  0  0  0  0  0  0  0  0  0
   12.8353  -19.9035   26.3330 C   0  0  0  0  0  0  0  0  0  0  0  0
   13.3939  -18.8033   25.4113 C   0  0  2  0  0  0  0  0  0  0  0  0
   12.6765  -18.8012   24.1338 N   0  0  0  0  0  0  0  0  0  0  0  0
   14.7886  -19.1529   25.1723 C   0  0  0  0  0  0  0  0  0  0  0  0
   15.7160  -19.1513   26.1787 O   0  0  0  0  0  0  0  0  0  0  0  0
   15.1553  -19.4670   24.0161 O   0  0  0  0  0  0  0  0  0  0  0  0
  2  1  1  1
  2 13  1  0
  3  2  1  0
  3  4  1  0
  4 12  1  0
  4  5  2  0
  5  6  1  0
  7  8  2  0
  7  6  1  0
  9  8  1  0
 10  9  2  0
 11 10  1  0
 11 12  2  0
 12  7  1  0
 13 20  1  0
 13 14  2  0
 15 16  1  0
 16 18  1  0
 17 16  2  0
 19 18  1  6
 19 21  1  0
 20 19  1  0
 21 26  1  0
 21 22  2  0
 25 24  1  1
 24 23  1  0
 25 27  1  0
 26 25  1  0
 27 28  1  0
 29 27  2  0
M  END
$$$$
