WNS.pdb
     RDKit          3D

 29 30  0  0  1  0  0  0  0  0999 V2000
    6.3886  -17.2309   23.8441 N   0  0  0  0  0  0  0  0  0  0  0  0
    7.1118  -15.9879   23.5080 C   0  0  1  0  0  0  0  0  0  0  0  0
    7.9196  -15.6421   24.6964 C   0  0  0  0  0  0  0  0  0  0  0  0
    7.1921  -14.8459   25.6958 C   0  0  0  0  0  0  0  0  0  0  0  0
    6.3071  -15.3714   26.6323 C   0  0  0  0  0  0  0  0  0  0  0  0
    5.8530  -14.3322   27.3376 N   0  0  0  0  0  0  0  0  0  0  0  0
    6.4038  -13.1740   26.9006 C   0  0  0  0  0  0  0  0  0  0  0  0
    6.2883  -11.8555   27.2819 C   0  0  0  0  0  0  0  0  0  0  0  0
    7.0077  -10.8733   26.6359 C   0  0  0  0  0  0  0  0  0  0  0  0
    7.8700  -11.1567   25.5862 C   0  0  0  0  0  0  0  0  0  0  0  0
    7.9774  -12.4750   25.2141 C   0  0  0  0  0  0  0  0  0  0  0  0
    7.2525  -13.4741   25.8656 C   0  0  0  0  0  0  0  0  0  0  0  0
    7.7906  -16.1756   22.2388 C   0  0  0  0  0  0  0  0  0  0  0  0
    8.3088  -17.3233   22.0027 O   0  0  0  0  0  0  0  0  0  0  0  0
    6.7506  -13.0533   18.5662 N   0  0  0  0  0  0  0  0  0  0  0  0
    7.6796  -14.1380   18.4414 C   0  0  0  0  0  0  0  0  0  0  0  0
    7.4651  -15.0815   17.6346 O   0  0  0  0  0  0  0  0  0  0  0  0
    8.9031  -14.1815   19.2439 C   0  0  0  0  0  0  0  0  0  0  0  0
    8.9979  -15.3910   20.1613 C   0  0  2  0  0  0  0  0  0  0  0  0
    7.9557  -15.2359   21.2038 N   0  0  0  0  0  0  0  0  0  0  0  0
   10.3193  -15.5646   20.7643 C   0  0  0  0  0  0  0  0  0  0  0  0
   10.6418  -14.7442   21.7071 O   0  0  0  0  0  0  0  0  0  0  0  0
   13.0171  -17.7639   23.4801 O   0  0  0  0  0  0  0  0  0  0  0  0
   11.9681  -17.3492   22.6894 C   0  0  0  0  0  0  0  0  0  0  0  0
   12.4520  -16.7593   21.3514 C   0  0  2  0  0  0  0  0  0  0  0  0
   11.3113  -16.5120   20.4657 N   0  0  0  0  0  0  0  0  0  0  0  0
   13.3067  -17.7768   20.7525 C   0  0  0  0  0  0  0  0  0  0  0  0
   14.5998  -17.9645   21.1596 O   0  0  0  0  0  0  0  0  0  0  0  0
   12.8508  -18.5051   19.8405 O   0  0  0  0  0  0  0  0  0  0  0  0
  2  1  1  1
  2 13  1  0
  3  2  1  0
  3  4  1  0
  4 12  1  0
  4  5  2  0
  5  6  1  0
  7  8  2  0
  7  6  1  0
  9  8  1  0
 10  9  2  0
 11 10  1  0
 11 12  2  0
 12  7  1  0
 13 20  1  0
 13 14  2  0
 15 16  1  0
 16 18  1  0
 17 16  2  0
 19 18  1  6
 19 21  1  0
 20 19  1  0
 21 26  1  0
 21 22  2  0
 25 24  1  1
 24 23  1  0
 25 27  1  0
 26 25  1  0
 27 28  1  0
 29 27  2  0
M  END
$$$$
