WNS.pdb
     RDKit          3D

 29 30  0  0  1  0  0  0  0  0999 V2000
    6.4230  -17.3286   23.7562 N   0  0  0  0  0  0  0  0  0  0  0  0
    7.1329  -16.0769   23.4245 C   0  0  1  0  0  0  0  0  0  0  0  0
    7.8771  -15.6858   24.6401 C   0  0  0  0  0  0  0  0  0  0  0  0
    7.0886  -14.8793   25.5834 C   0  0  0  0  0  0  0  0  0  0  0  0
    6.1442  -15.3946   26.4659 C   0  0  0  0  0  0  0  0  0  0  0  0
    5.6480  -14.3483   27.1310 N   0  0  0  0  0  0  0  0  0  0  0  0
    6.2283  -13.1950   26.7198 C   0  0  0  0  0  0  0  0  0  0  0  0
    6.0915  -11.8729   27.0808 C   0  0  0  0  0  0  0  0  0  0  0  0
    6.8530  -10.8979   26.4734 C   0  0  0  0  0  0  0  0  0  0  0  0
    7.7803  -11.1923   25.4839 C   0  0  0  0  0  0  0  0  0  0  0  0
    7.9085  -12.5142   25.1316 C   0  0  0  0  0  0  0  0  0  0  0  0
    7.1410  -13.5060   25.7442 C   0  0  0  0  0  0  0  0  0  0  0  0
    7.8736  -16.2768   22.1923 C   0  0  0  0  0  0  0  0  0  0  0  0
    8.3589  -17.4414   21.9696 O   0  0  0  0  0  0  0  0  0  0  0  0
    7.2247  -12.8885   18.4971 N   0  0  0  0  0  0  0  0  0  0  0  0
    7.9260  -14.1378   18.4457 C   0  0  0  0  0  0  0  0  0  0  0  0
    7.5046  -15.0853   17.7304 O   0  0  0  0  0  0  0  0  0  0  0  0
    9.1506  -14.3495   19.2193 C   0  0  0  0  0  0  0  0  0  0  0  0
    9.1175  -15.5873   20.1027 C   0  0  2  0  0  0  0  0  0  0  0  0
    8.1328  -15.3326   21.1810 N   0  0  0  0  0  0  0  0  0  0  0  0
   10.4227  -15.9427   20.6594 C   0  0  0  0  0  0  0  0  0  0  0  0
   11.0071  -15.0523   21.3886 O   0  0  0  0  0  0  0  0  0  0  0  0
   11.6034  -19.4784   21.7924 O   0  0  0  0  0  0  0  0  0  0  0  0
   12.4223  -18.4400   22.1779 C   0  0  0  0  0  0  0  0  0  0  0  0
   12.4736  -17.3220   21.1197 C   0  0  2  0  0  0  0  0  0  0  0  0
   11.1511  -17.1345   20.5176 N   0  0  0  0  0  0  0  0  0  0  0  0
   13.4009  -17.7849   20.0948 C   0  0  0  0  0  0  0  0  0  0  0  0
   12.9937  -18.0345   18.8123 O   0  0  0  0  0  0  0  0  0  0  0  0
   14.6065  -17.9591   20.3885 O   0  0  0  0  0  0  0  0  0  0  0  0
  2  1  1  1
  2 13  1  0
  3  2  1  0
  3  4  1  0
  4 12  1  0
  4  5  2  0
  5  6  1  0
  7  8  2  0
  7  6  1  0
  9  8  1  0
 10  9  2  0
 11 10  1  0
 11 12  2  0
 12  7  1  0
 13 20  1  0
 13 14  2  0
 15 16  1  0
 16 18  1  0
 17 16  2  0
 19 18  1  1
 19 21  1  0
 20 19  1  0
 21 26  1  0
 21 22  2  0
 25 24  1  1
 24 23  1  0
 25 27  1  0
 26 25  1  0
 27 28  1  0
 29 27  2  0
M  END
$$$$
