WNS.pdb
     RDKit          3D

 29 30  0  0  1  0  0  0  0  0999 V2000
    7.2080  -17.2107   23.8554 N   0  0  0  0  0  0  0  0  0  0  0  0
    8.3047  -16.2224   23.8193 C   0  0  1  0  0  0  0  0  0  0  0  0
    8.4692  -15.7324   25.2041 C   0  0  0  0  0  0  0  0  0  0  0  0
    7.3865  -14.8433   25.6503 C   0  0  0  0  0  0  0  0  0  0  0  0
    6.1466  -15.2773   26.1094 C   0  0  0  0  0  0  0  0  0  0  0  0
    5.4522  -14.1745   26.4008 N   0  0  0  0  0  0  0  0  0  0  0  0
    6.1853  -13.0622   26.1533 C   0  0  0  0  0  0  0  0  0  0  0  0
    5.9518  -11.7117   26.2907 C   0  0  0  0  0  0  0  0  0  0  0  0
    6.9255  -10.7946   25.9586 C   0  0  0  0  0  0  0  0  0  0  0  0
    8.1693  -11.1774   25.4767 C   0  0  0  0  0  0  0  0  0  0  0  0
    8.3914  -12.5268   25.3436 C   0  0  0  0  0  0  0  0  0  0  0  0
    7.4096  -13.4602   25.6797 C   0  0  0  0  0  0  0  0  0  0  0  0
    9.4477  -16.8226   23.1558 C   0  0  0  0  0  0  0  0  0  0  0  0
    9.7483  -18.0303   23.4599 O   0  0  0  0  0  0  0  0  0  0  0  0
   11.1320  -17.4690   18.7196 N   0  0  0  0  0  0  0  0  0  0  0  0
   11.2481  -16.2185   19.4109 C   0  0  0  0  0  0  0  0  0  0  0  0
   10.6176  -15.2019   19.0158 O   0  0  0  0  0  0  0  0  0  0  0  0
   12.0992  -16.0853   20.5944 C   0  0  0  0  0  0  0  0  0  0  0  0
   11.5881  -16.8412   21.8115 C   0  0  2  0  0  0  0  0  0  0  0  0
   10.2902  -16.2354   22.1931 N   0  0  0  0  0  0  0  0  0  0  0  0
   12.5208  -16.8328   22.9384 C   0  0  0  0  0  0  0  0  0  0  0  0
   12.7925  -15.6845   23.4612 O   0  0  0  0  0  0  0  0  0  0  0  0
   13.4149  -19.6430   25.8025 O   0  0  0  0  0  0  0  0  0  0  0  0
   14.5377  -19.0612   25.2563 C   0  0  0  0  0  0  0  0  0  0  0  0
   14.2166  -17.7214   24.5679 C   0  0  2  0  0  0  0  0  0  0  0  0
   13.1786  -17.9110   23.5513 N   0  0  0  0  0  0  0  0  0  0  0  0
   15.4505  -17.3026   23.9146 C   0  0  0  0  0  0  0  0  0  0  0  0
   16.5913  -17.0434   24.6247 O   0  0  0  0  0  0  0  0  0  0  0  0
   15.4751  -17.1763   22.6683 O   0  0  0  0  0  0  0  0  0  0  0  0
  2  1  1  1
  2 13  1  0
  3  2  1  0
  3  4  1  0
  4 12  1  0
  4  5  2  0
  5  6  1  0
  7  8  2  0
  7  6  1  0
  9  8  1  0
 10  9  2  0
 11 10  1  0
 11 12  2  0
 12  7  1  0
 13 20  1  0
 13 14  2  0
 15 16  1  0
 16 18  1  0
 17 16  2  0
 19 18  1  6
 19 21  1  0
 20 19  1  0
 21 26  1  0
 21 22  2  0
 25 24  1  6
 24 23  1  0
 25 27  1  0
 26 25  1  0
 27 28  1  0
 29 27  2  0
M  END
$$$$
