WNS.pdb
     RDKit          3D

 29 30  0  0  1  0  0  0  0  0999 V2000
    8.3816  -17.4527   22.6162 N   0  0  0  0  0  0  0  0  0  0  0  0
    7.5545  -17.2715   21.4063 C   0  0  1  0  0  0  0  0  0  0  0  0
    6.3799  -16.4757   21.8204 C   0  0  0  0  0  0  0  0  0  0  0  0
    6.5345  -15.8303   23.1325 C   0  0  0  0  0  0  0  0  0  0  0  0
    6.3545  -16.4714   24.3543 C   0  0  0  0  0  0  0  0  0  0  0  0
    6.5724  -15.5476   25.2937 N   0  0  0  0  0  0  0  0  0  0  0  0
    6.8834  -14.3534   24.7342 C   0  0  0  0  0  0  0  0  0  0  0  0
    7.2016  -13.1128   25.2409 C   0  0  0  0  0  0  0  0  0  0  0  0
    7.4918  -12.0636   24.3956 C   0  0  0  0  0  0  0  0  0  0  0  0
    7.4782  -12.2002   23.0147 C   0  0  0  0  0  0  0  0  0  0  0  0
    7.1595  -13.4418   22.5201 C   0  0  0  0  0  0  0  0  0  0  0  0
    6.8661  -14.5084   23.3713 C   0  0  0  0  0  0  0  0  0  0  0  0
    8.3975  -16.7605   20.3409 C   0  0  0  0  0  0  0  0  0  0  0  0
    8.5276  -17.4769   19.2867 O   0  0  0  0  0  0  0  0  0  0  0  0
    9.0101  -12.3954   19.0458 N   0  0  0  0  0  0  0  0  0  0  0  0
    9.5477  -13.6444   18.5919 C   0  0  0  0  0  0  0  0  0  0  0  0
    8.9820  -14.2945   17.6729 O   0  0  0  0  0  0  0  0  0  0  0  0
   10.7678  -14.2002   19.1794 C   0  0  0  0  0  0  0  0  0  0  0  0
   10.5469  -15.4854   19.9625 C   0  0  2  0  0  0  0  0  0  0  0  0
    9.1080  -15.5456   20.3131 N   0  0  0  0  0  0  0  0  0  0  0  0
   11.3818  -15.5911   21.1590 C   0  0  0  0  0  0  0  0  0  0  0  0
   12.6522  -15.4287   20.9992 O   0  0  0  0  0  0  0  0  0  0  0  0
   10.0408  -16.5500   24.9193 O   0  0  0  0  0  0  0  0  0  0  0  0
   11.2806  -15.9497   24.9324 C   0  0  0  0  0  0  0  0  0  0  0  0
   11.9770  -16.0334   23.5612 C   0  0  2  0  0  0  0  0  0  0  0  0
   10.9998  -15.8472   22.4855 N   0  0  0  0  0  0  0  0  0  0  0  0
   12.5278  -17.3801   23.4749 C   0  0  0  0  0  0  0  0  0  0  0  0
   13.5225  -17.8084   24.3117 O   0  0  0  0  0  0  0  0  0  0  0  0
   12.0815  -18.1740   22.6144 O   0  0  0  0  0  0  0  0  0  0  0  0
  2  1  1  1
  2 13  1  0
  3  2  1  0
  3  4  1  0
  4 12  1  0
  4  5  2  0
  5  6  1  0
  7  8  2  0
  7  6  1  0
  9  8  1  0
 10  9  2  0
 11 10  1  0
 11 12  2  0
 12  7  1  0
 13 20  1  0
 13 14  2  0
 15 16  1  0
 16 18  1  0
 17 16  2  0
 19 18  1  1
 19 21  1  0
 20 19  1  0
 21 26  1  0
 21 22  2  0
 25 24  1  1
 24 23  1  0
 25 27  1  0
 26 25  1  0
 27 28  1  0
 29 27  2  0
M  END
$$$$
