LSI.pdb
     RDKit          3D

 23 22  0  0  1  0  0  0  0  0999 V2000
   18.0557  -16.9298  -18.2831 C   0  0  0  0  0  0  0  0  0  0  0  0
   17.5854  -15.9074  -19.2544 C   0  0  2  0  0  0  0  0  0  0  0  0
   17.7846  -16.3422  -20.7109 C   0  0  0  0  0  0  0  0  0  0  0  0
   17.9489  -14.4856  -19.0121 C   0  0  0  0  0  0  0  0  0  0  0  0
   17.7193  -13.9504  -17.6213 C   0  0  2  0  0  0  0  0  0  0  0  0
   16.3512  -14.1022  -17.1924 N   0  0  0  0  0  0  0  0  0  0  0  0
   18.2872  -12.5992  -17.4134 C   0  0  0  0  0  0  0  0  0  0  0  0
   19.4249  -12.2415  -17.8181 O   0  0  0  0  0  0  0  0  0  0  0  0
   16.0413   -9.0349  -17.2023 O   0  0  0  0  0  0  0  0  0  0  0  0
   16.7704   -9.3322  -16.0394 C   0  0  0  0  0  0  0  0  0  0  0  0
   17.9746  -10.2488  -16.5146 C   0  0  2  0  0  0  0  0  0  0  0  0
   17.5399  -11.5747  -16.7120 N   0  0  0  0  0  0  0  0  0  0  0  0
   19.0959  -10.0075  -15.6169 C   0  0  0  0  0  0  0  0  0  0  0  0
   19.1375  -10.4779  -14.4289 O   0  0  0  0  0  0  0  0  0  0  0  0
   24.7976  -10.7246  -14.5933 C   0  0  0  0  0  0  0  0  0  0  0  0
   23.6265   -9.8485  -14.3291 C   0  0  0  0  0  0  0  0  0  0  0  0
   22.5631   -9.9105  -15.3763 C   0  0  2  0  0  0  0  0  0  0  0  0
   23.0590   -9.5568  -16.7527 C   0  0  0  0  0  0  0  0  0  0  0  0
   21.3645   -9.0322  -15.0130 C   0  0  2  0  0  0  0  0  0  0  0  0
   20.2780   -9.2417  -15.9346 N   0  0  0  0  0  0  0  0  0  0  0  0
   21.7549   -7.6187  -14.8325 C   0  0  0  0  0  0  0  0  0  0  0  0
   21.3783   -6.6729  -15.7711 O   0  0  0  0  0  0  0  0  0  0  0  0
   22.4314   -7.2236  -13.8450 O   0  0  0  0  0  0  0  0  0  0  0  0
  2  1  1  1
  3  2  1  0
  4  2  1  0
  5  4  1  0
  5  6  1  6
  7  8  2  0
  7  5  1  0
  9 10  1  0
 11 10  1  1
 11 13  1  0
 11 12  1  0
 12  7  1  0
 13 20  1  0
 14 13  2  0
 15 16  1  0
 17 19  1  0
 17 16  1  0
 17 18  1  6
 19 21  1  0
 19 20  1  6
 21 23  2  0
 21 22  1  0
M  END
$$$$
