LSI.pdb
     RDKit          3D

 23 22  0  0  1  0  0  0  0  0999 V2000
   24.3921  -13.9291  -16.8422 C   0  0  0  0  0  0  0  0  0  0  0  0
   25.2144  -12.7840  -17.3140 C   0  0  2  0  0  0  0  0  0  0  0  0
   26.6623  -12.8526  -16.8146 C   0  0  0  0  0  0  0  0  0  0  0  0
   24.6312  -11.4180  -17.2351 C   0  0  0  0  0  0  0  0  0  0  0  0
   23.1882  -11.2678  -17.6457 C   0  0  2  0  0  0  0  0  0  0  0  0
   22.9523  -11.7087  -18.9980 N   0  0  0  0  0  0  0  0  0  0  0  0
   22.6227   -9.9391  -17.3200 C   0  0  0  0  0  0  0  0  0  0  0  0
   22.8511   -9.3178  -16.2486 O   0  0  0  0  0  0  0  0  0  0  0  0
   19.3074   -8.4517  -19.4492 O   0  0  0  0  0  0  0  0  0  0  0  0
   20.3468   -7.5190  -19.3013 C   0  0  0  0  0  0  0  0  0  0  0  0
   21.1625   -7.9894  -18.0248 C   0  0  2  0  0  0  0  0  0  0  0  0
   21.7472   -9.2520  -18.2483 N   0  0  0  0  0  0  0  0  0  0  0  0
   20.3047   -7.8128  -16.8611 C   0  0  0  0  0  0  0  0  0  0  0  0
   19.4135   -8.6674  -16.5294 O   0  0  0  0  0  0  0  0  0  0  0  0
   19.5813   -8.1696  -11.2940 C   0  0  0  0  0  0  0  0  0  0  0  0
   19.1060   -7.3843  -12.4627 C   0  0  0  0  0  0  0  0  0  0  0  0
   20.0711   -7.3307  -13.6015 C   0  0  2  0  0  0  0  0  0  0  0  0
   21.4062   -6.7460  -13.2259 C   0  0  0  0  0  0  0  0  0  0  0  0
   19.4888   -6.5739  -14.7967 C   0  0  2  0  0  0  0  0  0  0  0  0
   20.3463   -6.6958  -15.9471 N   0  0  0  0  0  0  0  0  0  0  0  0
   19.1264   -5.1859  -14.4432 C   0  0  0  0  0  0  0  0  0  0  0  0
   19.8839   -4.1307  -14.9229 O   0  0  0  0  0  0  0  0  0  0  0  0
   18.1406   -4.9095  -13.7078 O   0  0  0  0  0  0  0  0  0  0  0  0
  2  1  1  1
  3  2  1  0
  4  2  1  0
  5  4  1  0
  5  6  1  6
  7  8  2  0
  7  5  1  0
  9 10  1  0
 11 10  1  6
 11 13  1  0
 11 12  1  0
 12  7  1  0
 13 20  1  0
 14 13  2  0
 15 16  1  0
 17 19  1  0
 17 16  1  0
 17 18  1  1
 19 21  1  0
 19 20  1  6
 21 23  2  0
 21 22  1  0
M  END
$$$$
