LSI.pdb
     RDKit          3D

 23 22  0  0  1  0  0  0  0  0999 V2000
   13.8307  -13.3799  -15.3386 C   0  0  0  0  0  0  0  0  0  0  0  0
   14.6159  -13.9263  -16.4765 C   0  0  2  0  0  0  0  0  0  0  0  0
   14.8229  -15.4420  -16.3760 C   0  0  0  0  0  0  0  0  0  0  0  0
   15.8381  -13.1949  -16.9049 C   0  0  0  0  0  0  0  0  0  0  0  0
   15.7373  -11.6932  -16.9964 C   0  0  2  0  0  0  0  0  0  0  0  0
   14.8516  -11.2646  -18.0502 N   0  0  0  0  0  0  0  0  0  0  0  0
   17.0538  -11.0166  -16.9804 C   0  0  0  0  0  0  0  0  0  0  0  0
   18.0703  -11.4636  -16.3862 O   0  0  0  0  0  0  0  0  0  0  0  0
   19.5730   -7.1209  -18.5773 O   0  0  0  0  0  0  0  0  0  0  0  0
   18.2906   -7.6905  -18.5222 C   0  0  0  0  0  0  0  0  0  0  0  0
   18.4454   -9.0044  -17.6471 C   0  0  2  0  0  0  0  0  0  0  0  0
   17.2566   -9.7605  -17.6743 N   0  0  0  0  0  0  0  0  0  0  0  0
   18.9961   -8.6145  -16.3563 C   0  0  0  0  0  0  0  0  0  0  0  0
   18.2680   -8.1606  -15.4085 O   0  0  0  0  0  0  0  0  0  0  0  0
   22.9040  -10.1041  -11.9608 C   0  0  0  0  0  0  0  0  0  0  0  0
   22.1016   -9.0577  -12.6462 C   0  0  0  0  0  0  0  0  0  0  0  0
   21.7154   -9.3984  -14.0483 C   0  0  2  0  0  0  0  0  0  0  0  0
   22.8907   -9.7339  -14.9268 C   0  0  0  0  0  0  0  0  0  0  0  0
   20.8871   -8.2837  -14.6899 C   0  0  2  0  0  0  0  0  0  0  0  0
   20.3869   -8.6933  -15.9766 N   0  0  0  0  0  0  0  0  0  0  0  0
   21.6098   -6.9951  -14.6919 C   0  0  0  0  0  0  0  0  0  0  0  0
   21.6899   -6.2463  -13.5300 O   0  0  0  0  0  0  0  0  0  0  0  0
   22.1674   -6.5327  -15.7236 O   0  0  0  0  0  0  0  0  0  0  0  0
  2  1  1  1
  3  2  1  0
  4  2  1  0
  5  4  1  0
  5  6  1  6
  7  8  2  0
  7  5  1  0
  9 10  1  0
 11 10  1  6
 11 13  1  0
 11 12  1  0
 12  7  1  0
 13 20  1  0
 14 13  2  0
 15 16  1  0
 17 19  1  0
 17 16  1  0
 17 18  1  6
 19 21  1  0
 19 20  1  6
 21 23  2  0
 21 22  1  0
M  END
$$$$
