LSI.pdb
     RDKit          3D

 23 22  0  0  1  0  0  0  0  0999 V2000
   28.8826  -27.2877  -19.8594 C   0  0  0  0  0  0  0  0  0  0  0  0
   28.0318  -28.2248  -19.0797 C   0  0  2  0  0  0  0  0  0  0  0  0
   27.2401  -29.1856  -19.9744 C   0  0  0  0  0  0  0  0  0  0  0  0
   27.2295  -27.6769  -17.9535 C   0  0  0  0  0  0  0  0  0  0  0  0
   27.9563  -26.8099  -16.9568 C   0  0  2  0  0  0  0  0  0  0  0  0
   28.9254  -27.5500  -16.1875 N   0  0  0  0  0  0  0  0  0  0  0  0
   27.0512  -25.9554  -16.1553 C   0  0  0  0  0  0  0  0  0  0  0  0
   26.4108  -26.3557  -15.1475 O   0  0  0  0  0  0  0  0  0  0  0  0
   25.6004  -21.3928  -15.2516 O   0  0  0  0  0  0  0  0  0  0  0  0
   26.3473  -22.1725  -16.1496 C   0  0  0  0  0  0  0  0  0  0  0  0
   25.9909  -23.6790  -15.8036 C   0  0  2  0  0  0  0  0  0  0  0  0
   26.8463  -24.5612  -16.4936 N   0  0  0  0  0  0  0  0  0  0  0  0
   24.5514  -23.8398  -15.9557 C   0  0  0  0  0  0  0  0  0  0  0  0
   24.0022  -24.0694  -17.0871 O   0  0  0  0  0  0  0  0  0  0  0  0
   21.6595  -27.1449  -13.0160 C   0  0  0  0  0  0  0  0  0  0  0  0
   22.2007  -26.2038  -14.0310 C   0  0  0  0  0  0  0  0  0  0  0  0
   21.5648  -24.8524  -14.0178 C   0  0  2  0  0  0  0  0  0  0  0  0
   20.0670  -24.8956  -14.1606 C   0  0  0  0  0  0  0  0  0  0  0  0
   22.1638  -23.9387  -15.0886 C   0  0  2  0  0  0  0  0  0  0  0  0
   23.5806  -23.7760  -14.8889 N   0  0  0  0  0  0  0  0  0  0  0  0
   21.4104  -22.6740  -15.2145 C   0  0  0  0  0  0  0  0  0  0  0  0
   20.3729  -22.5758  -16.1262 O   0  0  0  0  0  0  0  0  0  0  0  0
   21.6737  -21.6565  -14.5185 O   0  0  0  0  0  0  0  0  0  0  0  0
  2  1  1  6
  3  2  1  0
  4  2  1  0
  5  4  1  0
  5  6  1  1
  7  8  2  0
  7  5  1  0
  9 10  1  0
 11 10  1  6
 11 13  1  0
 11 12  1  0
 12  7  1  0
 13 20  1  0
 14 13  2  0
 15 16  1  0
 17 19  1  0
 17 16  1  0
 17 18  1  6
 19 21  1  0
 19 20  1  1
 21 23  2  0
 21 22  1  0
M  END
$$$$
