LSI.pdb
     RDKit          3D

 23 22  0  0  1  0  0  0  0  0999 V2000
   17.4286  -15.9579  -15.7099 C   0  0  0  0  0  0  0  0  0  0  0  0
   16.9032  -15.2206  -16.8890 C   0  0  2  0  0  0  0  0  0  0  0  0
   17.0132  -16.0291  -18.1869 C   0  0  0  0  0  0  0  0  0  0  0  0
   17.2842  -13.7923  -17.0540 C   0  0  0  0  0  0  0  0  0  0  0  0
   17.0655  -12.8867  -15.8685 C   0  0  2  0  0  0  0  0  0  0  0  0
   15.7008  -12.9087  -15.4039 N   0  0  0  0  0  0  0  0  0  0  0  0
   17.6350  -11.5329  -16.0537 C   0  0  0  0  0  0  0  0  0  0  0  0
   18.7825  -11.3075  -16.5210 O   0  0  0  0  0  0  0  0  0  0  0  0
   14.9927   -8.6273  -16.2851 O   0  0  0  0  0  0  0  0  0  0  0  0
   16.1084   -8.0079  -15.6988 C   0  0  0  0  0  0  0  0  0  0  0  0
   17.3114   -9.0228  -15.8960 C   0  0  2  0  0  0  0  0  0  0  0  0
   16.8777  -10.3491  -15.6996 N   0  0  0  0  0  0  0  0  0  0  0  0
   18.4373   -8.5327  -15.1127 C   0  0  0  0  0  0  0  0  0  0  0  0
   18.4717   -8.6108  -13.8371 O   0  0  0  0  0  0  0  0  0  0  0  0
   23.0547  -10.3798  -15.4928 C   0  0  0  0  0  0  0  0  0  0  0  0
   21.8049   -9.6038  -15.2810 C   0  0  0  0  0  0  0  0  0  0  0  0
   22.0127   -8.1326  -15.1279 C   0  0  2  0  0  0  0  0  0  0  0  0
   23.0407   -7.7798  -14.0867 C   0  0  0  0  0  0  0  0  0  0  0  0
   20.6991   -7.4075  -14.8295 C   0  0  2  0  0  0  0  0  0  0  0  0
   19.6321   -7.9233  -15.6474 N   0  0  0  0  0  0  0  0  0  0  0  0
   20.8593   -5.9396  -14.8801 C   0  0  0  0  0  0  0  0  0  0  0  0
   21.3708   -5.2624  -13.7859 O   0  0  0  0  0  0  0  0  0  0  0  0
   20.5437   -5.2582  -15.8926 O   0  0  0  0  0  0  0  0  0  0  0  0
  2  1  1  1
  3  2  1  0
  4  2  1  0
  5  4  1  0
  5  6  1  6
  7  8  2  0
  7  5  1  0
  9 10  1  0
 11 10  1  1
 11 13  1  0
 11 12  1  0
 12  7  1  0
 13 20  1  0
 14 13  2  0
 15 16  1  0
 17 19  1  0
 17 16  1  0
 17 18  1  1
 19 21  1  0
 19 20  1  6
 21 23  2  0
 21 22  1  0
M  END
$$$$
