LSI.pdb
     RDKit          3D

 23 22  0  0  1  0  0  0  0  0999 V2000
   22.6936  -12.1609  -20.6626 C   0  0  0  0  0  0  0  0  0  0  0  0
   21.3408  -12.4511  -20.1189 C   0  0  2  0  0  0  0  0  0  0  0  0
   20.4361  -13.1576  -21.1351 C   0  0  0  0  0  0  0  0  0  0  0  0
   20.6430  -11.3808  -19.3574 C   0  0  0  0  0  0  0  0  0  0  0  0
   21.4521  -10.6431  -18.3207 C   0  0  2  0  0  0  0  0  0  0  0  0
   22.0118  -11.5269  -17.3286 N   0  0  0  0  0  0  0  0  0  0  0  0
   20.7572   -9.4568  -17.7719 C   0  0  0  0  0  0  0  0  0  0  0  0
   19.9902   -8.7153  -18.4413 O   0  0  0  0  0  0  0  0  0  0  0  0
   19.8209   -8.8667  -13.6189 O   0  0  0  0  0  0  0  0  0  0  0  0
   20.6481   -7.9094  -14.2284 C   0  0  0  0  0  0  0  0  0  0  0  0
   20.2962   -7.9648  -15.7741 C   0  0  2  0  0  0  0  0  0  0  0  0
   20.9222   -9.0695  -16.3852 N   0  0  0  0  0  0  0  0  0  0  0  0
   20.5248   -6.6374  -16.3283 C   0  0  0  0  0  0  0  0  0  0  0  0
   21.6935   -6.2049  -16.6136 O   0  0  0  0  0  0  0  0  0  0  0  0
   18.8204   -2.5773  -20.4374 C   0  0  0  0  0  0  0  0  0  0  0  0
   19.4313   -2.8249  -19.1054 C   0  0  0  0  0  0  0  0  0  0  0  0
   19.1040   -4.1580  -18.5167 C   0  0  2  0  0  0  0  0  0  0  0  0
   17.6251   -4.4106  -18.3957 C   0  0  0  0  0  0  0  0  0  0  0  0
   19.7784   -4.3533  -17.1575 C   0  0  2  0  0  0  0  0  0  0  0  0
   19.5016   -5.6651  -16.6322 N   0  0  0  0  0  0  0  0  0  0  0  0
   19.4768   -3.2426  -16.2310 C   0  0  0  0  0  0  0  0  0  0  0  0
   18.6643   -3.4618  -15.1314 O   0  0  0  0  0  0  0  0  0  0  0  0
   19.9313   -2.0788  -16.3979 O   0  0  0  0  0  0  0  0  0  0  0  0
  2  1  1  6
  3  2  1  0
  4  2  1  0
  5  4  1  0
  5  6  1  1
  7  8  2  0
  7  5  1  0
  9 10  1  0
 11 10  1  1
 11 13  1  0
 11 12  1  0
 12  7  1  0
 13 20  1  0
 14 13  2  0
 15 16  1  0
 17 19  1  0
 17 16  1  0
 17 18  1  1
 19 21  1  0
 19 20  1  1
 21 23  2  0
 21 22  1  0
M  END
$$$$
