LSI.pdb
     RDKit          3D

 23 22  0  0  1  0  0  0  0  0999 V2000
   18.7456  -12.5881  -18.6049 C   0  0  0  0  0  0  0  0  0  0  0  0
   17.4130  -12.0383  -18.2420 C   0  0  2  0  0  0  0  0  0  0  0  0
   16.4308  -12.0480  -19.4190 C   0  0  0  0  0  0  0  0  0  0  0  0
   17.3618  -10.7828  -17.4461 C   0  0  0  0  0  0  0  0  0  0  0  0
   18.2786  -10.6942  -16.2523 C   0  0  2  0  0  0  0  0  0  0  0  0
   18.0123  -11.7218  -15.2767 N   0  0  0  0  0  0  0  0  0  0  0  0
   18.3856   -9.3260  -15.6972 C   0  0  0  0  0  0  0  0  0  0  0  0
   18.7664   -8.3237  -16.3579 O   0  0  0  0  0  0  0  0  0  0  0  0
   18.1593   -8.7676  -11.5129 O   0  0  0  0  0  0  0  0  0  0  0  0
   17.4548   -7.8152  -12.2670 C   0  0  0  0  0  0  0  0  0  0  0  0
   18.1567   -7.7944  -13.6893 C   0  0  2  0  0  0  0  0  0  0  0  0
   18.0430   -9.0514  -14.3161 N   0  0  0  0  0  0  0  0  0  0  0  0
   19.4823   -7.2151  -13.5207 C   0  0  0  0  0  0  0  0  0  0  0  0
   20.4836   -7.8989  -13.1155 O   0  0  0  0  0  0  0  0  0  0  0  0
   23.9421   -5.8205  -16.5529 C   0  0  0  0  0  0  0  0  0  0  0  0
   23.2714   -5.4334  -15.2844 C   0  0  0  0  0  0  0  0  0  0  0  0
   21.8250   -5.7996  -15.2166 C   0  0  2  0  0  0  0  0  0  0  0  0
   21.0155   -5.2502  -16.3605 C   0  0  0  0  0  0  0  0  0  0  0  0
   21.1998   -5.3769  -13.8860 C   0  0  2  0  0  0  0  0  0  0  0  0
   19.8405   -5.8422  -13.7880 N   0  0  0  0  0  0  0  0  0  0  0  0
   21.3758   -3.9321  -13.6318 C   0  0  0  0  0  0  0  0  0  0  0  0
   22.5987   -3.4517  -13.1945 O   0  0  0  0  0  0  0  0  0  0  0  0
   20.4456   -3.0973  -13.7948 O   0  0  0  0  0  0  0  0  0  0  0  0
  2  1  1  6
  3  2  1  0
  4  2  1  0
  5  4  1  0
  5  6  1  1
  7  8  2  0
  7  5  1  0
  9 10  1  0
 11 10  1  1
 11 13  1  0
 11 12  1  0
 12  7  1  0
 13 20  1  0
 14 13  2  0
 15 16  1  0
 17 19  1  0
 17 16  1  0
 17 18  1  6
 19 21  1  0
 19 20  1  6
 21 23  2  0
 21 22  1  0
M  END
$$$$
