LSI.pdb
     RDKit          3D

 23 22  0  0  1  0  0  0  0  0999 V2000
   28.8634  -19.0252  -15.6619 C   0  0  0  0  0  0  0  0  0  0  0  0
   27.5377  -18.3531  -15.6947 C   0  0  2  0  0  0  0  0  0  0  0  0
   27.5899  -16.9792  -16.3730 C   0  0  0  0  0  0  0  0  0  0  0  0
   26.7107  -18.3656  -14.4585 C   0  0  0  0  0  0  0  0  0  0  0  0
   26.8152  -19.5868  -13.5803 C   0  0  2  0  0  0  0  0  0  0  0  0
   26.0395  -20.6935  -14.0826 N   0  0  0  0  0  0  0  0  0  0  0  0
   26.6160  -19.2925  -12.1432 C   0  0  0  0  0  0  0  0  0  0  0  0
   27.1964  -18.3606  -11.5262 O   0  0  0  0  0  0  0  0  0  0  0  0
   23.4235  -21.0922  -10.5027 O   0  0  0  0  0  0  0  0  0  0  0  0
   23.8059  -19.9528   -9.7763 C   0  0  0  0  0  0  0  0  0  0  0  0
   25.3705  -19.8128   -9.9965 C   0  0  2  0  0  0  0  0  0  0  0  0
   25.7081  -20.0843  -11.3375 N   0  0  0  0  0  0  0  0  0  0  0  0
   26.0355  -20.5664   -8.9424 C   0  0  0  0  0  0  0  0  0  0  0  0
   26.3564  -21.7967   -9.0762 O   0  0  0  0  0  0  0  0  0  0  0  0
   28.8647  -18.3460   -4.4080 C   0  0  0  0  0  0  0  0  0  0  0  0
   27.7464  -18.9885   -5.1465 C   0  0  0  0  0  0  0  0  0  0  0  0
   28.1377  -20.2065   -5.9174 C   0  0  2  0  0  0  0  0  0  0  0  0
   29.2056  -19.9452   -6.9455 C   0  0  0  0  0  0  0  0  0  0  0  0
   26.9267  -20.8653   -6.5805 C   0  0  2  0  0  0  0  0  0  0  0  0
   26.4209  -20.0466   -7.6517 N   0  0  0  0  0  0  0  0  0  0  0  0
   25.9127  -21.2749   -5.5869 C   0  0  0  0  0  0  0  0  0  0  0  0
   24.6239  -20.7752   -5.6691 O   0  0  0  0  0  0  0  0  0  0  0  0
   26.1702  -22.0728   -4.6457 O   0  0  0  0  0  0  0  0  0  0  0  0
  2  1  1  1
  3  2  1  0
  4  2  1  0
  5  4  1  0
  5  6  1  6
  7  8  2  0
  7  5  1  0
  9 10  1  0
 11 10  1  6
 11 13  1  0
 11 12  1  0
 12  7  1  0
 13 20  1  0
 14 13  2  0
 15 16  1  0
 17 19  1  0
 17 16  1  0
 17 18  1  6
 19 21  1  0
 19 20  1  6
 21 23  2  0
 21 22  1  0
M  END
$$$$
