LSI.pdb
     RDKit          3D

 23 22  0  0  1  0  0  0  0  0999 V2000
   27.4206  -15.7818  -16.7978 C   0  0  0  0  0  0  0  0  0  0  0  0
   26.5208  -15.4432  -15.6639 C   0  0  2  0  0  0  0  0  0  0  0  0
   26.9014  -14.1234  -14.9831 C   0  0  0  0  0  0  0  0  0  0  0  0
   26.1665  -16.5192  -14.7001 C   0  0  0  0  0  0  0  0  0  0  0  0
   25.6896  -17.8259  -15.2817 C   0  0  2  0  0  0  0  0  0  0  0  0
   24.5413  -17.6605  -16.1378 N   0  0  0  0  0  0  0  0  0  0  0  0
   25.5606  -18.9024  -14.2737 C   0  0  0  0  0  0  0  0  0  0  0  0
   24.5698  -19.0380  -13.5083 O   0  0  0  0  0  0  0  0  0  0  0  0
   28.8586  -21.4083  -13.7498 O   0  0  0  0  0  0  0  0  0  0  0  0
   27.6369  -22.0399  -13.4659 C   0  0  0  0  0  0  0  0  0  0  0  0
   26.6314  -20.8723  -13.0893 C   0  0  2  0  0  0  0  0  0  0  0  0
   26.6006  -19.8978  -14.1068 N   0  0  0  0  0  0  0  0  0  0  0  0
   26.9315  -20.4514  -11.7276 C   0  0  0  0  0  0  0  0  0  0  0  0
   28.1143  -20.1498  -11.3474 O   0  0  0  0  0  0  0  0  0  0  0  0
   28.2161  -19.7175   -6.2923 C   0  0  0  0  0  0  0  0  0  0  0  0
   27.3261  -20.5390   -7.1534 C   0  0  0  0  0  0  0  0  0  0  0  0
   27.0491  -19.9450   -8.4956 C   0  0  2  0  0  0  0  0  0  0  0  0
   26.4522  -18.5650   -8.4264 C   0  0  0  0  0  0  0  0  0  0  0  0
   26.1570  -20.8564   -9.3405 C   0  0  2  0  0  0  0  0  0  0  0  0
   25.9701  -20.3101  -10.6597 N   0  0  0  0  0  0  0  0  0  0  0  0
   24.9063  -21.2060   -8.6359 C   0  0  0  0  0  0  0  0  0  0  0  0
   23.7046  -21.2123   -9.3238 O   0  0  0  0  0  0  0  0  0  0  0  0
   24.8791  -21.5030   -7.4112 O   0  0  0  0  0  0  0  0  0  0  0  0
  2  1  1  1
  3  2  1  0
  4  2  1  0
  5  4  1  0
  5  6  1  1
  7  8  2  0
  7  5  1  0
  9 10  1  0
 11 10  1  6
 11 13  1  0
 11 12  1  0
 12  7  1  0
 13 20  1  0
 14 13  2  0
 15 16  1  0
 17 19  1  0
 17 16  1  0
 17 18  1  1
 19 21  1  0
 19 20  1  6
 21 23  2  0
 21 22  1  0
M  END
$$$$
