LSI.pdb
     RDKit          3D

 23 22  0  0  1  0  0  0  0  0999 V2000
   25.9157  -19.8556   -7.9483 C   0  0  0  0  0  0  0  0  0  0  0  0
   25.4362  -20.2713   -9.2927 C   0  0  2  0  0  0  0  0  0  0  0  0
   24.0956  -21.0129   -9.2372 C   0  0  0  0  0  0  0  0  0  0  0  0
   26.4118  -20.8932  -10.2274 C   0  0  0  0  0  0  0  0  0  0  0  0
   25.9212  -21.2022  -11.6193 C   0  0  2  0  0  0  0  0  0  0  0  0
   26.0058  -22.6068  -11.9331 N   0  0  0  0  0  0  0  0  0  0  0  0
   26.4839  -20.3021  -12.6511 C   0  0  0  0  0  0  0  0  0  0  0  0
   27.6191  -19.7622  -12.5741 O   0  0  0  0  0  0  0  0  0  0  0  0
   25.3029  -20.6111  -16.5387 O   0  0  0  0  0  0  0  0  0  0  0  0
   26.5098  -19.9826  -16.1915 C   0  0  0  0  0  0  0  0  0  0  0  0
   26.1908  -19.1402  -14.8858 C   0  0  2  0  0  0  0  0  0  0  0  0
   25.7372  -19.9827  -13.8513 N   0  0  0  0  0  0  0  0  0  0  0  0
   25.3620  -18.0092  -15.2799 C   0  0  0  0  0  0  0  0  0  0  0  0
   24.0972  -17.9877  -15.0945 O   0  0  0  0  0  0  0  0  0  0  0  0
   27.8066  -13.2705  -15.4352 C   0  0  0  0  0  0  0  0  0  0  0  0
   26.6760  -14.2048  -15.1953 C   0  0  0  0  0  0  0  0  0  0  0  0
   25.7757  -14.3960  -16.3716 C   0  0  2  0  0  0  0  0  0  0  0  0
   24.8407  -13.2392  -16.6024 C   0  0  0  0  0  0  0  0  0  0  0  0
   24.9779  -15.6968  -16.2635 C   0  0  2  0  0  0  0  0  0  0  0  0
   25.8359  -16.7951  -15.9012 N   0  0  0  0  0  0  0  0  0  0  0  0
   24.1487  -15.9330  -17.4633 C   0  0  0  0  0  0  0  0  0  0  0  0
   22.7771  -15.7534  -17.4013 O   0  0  0  0  0  0  0  0  0  0  0  0
   24.6398  -16.3006  -18.5646 O   0  0  0  0  0  0  0  0  0  0  0  0
  2  1  1  1
  3  2  1  0
  4  2  1  0
  5  4  1  0
  5  6  1  6
  7  8  2  0
  7  5  1  0
  9 10  1  0
 11 10  1  6
 11 13  1  0
 11 12  1  0
 12  7  1  0
 13 20  1  0
 14 13  2  0
 15 16  1  0
 17 19  1  0
 17 16  1  0
 17 18  1  1
 19 21  1  0
 19 20  1  6
 21 23  2  0
 21 22  1  0
M  END
$$$$
