LSI.pdb
     RDKit          3D

 23 22  0  0  1  0  0  0  0  0999 V2000
   29.6234  -24.1729  -18.3203 C   0  0  0  0  0  0  0  0  0  0  0  0
   29.7874  -23.6601  -16.9347 C   0  0  2  0  0  0  0  0  0  0  0  0
   30.6194  -24.5988  -16.0533 C   0  0  0  0  0  0  0  0  0  0  0  0
   28.5921  -23.1105  -16.2407 C   0  0  0  0  0  0  0  0  0  0  0  0
   27.7318  -22.1497  -17.0217 C   0  0  2  0  0  0  0  0  0  0  0  0
   28.4829  -21.0313  -17.5353 N   0  0  0  0  0  0  0  0  0  0  0  0
   26.4788  -21.7855  -16.3225 C   0  0  0  0  0  0  0  0  0  0  0  0
   25.6800  -22.6215  -15.8235 O   0  0  0  0  0  0  0  0  0  0  0  0
   25.4880  -17.7308  -16.1478 O   0  0  0  0  0  0  0  0  0  0  0  0
   25.0792  -18.4625  -15.0210 C   0  0  0  0  0  0  0  0  0  0  0  0
   24.9132  -19.9584  -15.5220 C   0  0  2  0  0  0  0  0  0  0  0  0
   26.0880  -20.3990  -16.1635 N   0  0  0  0  0  0  0  0  0  0  0  0
   23.6495  -20.0473  -16.2407 C   0  0  0  0  0  0  0  0  0  0  0  0
   23.5535  -19.8066  -17.4926 O   0  0  0  0  0  0  0  0  0  0  0  0
   20.2661  -24.1286  -16.8611 C   0  0  0  0  0  0  0  0  0  0  0  0
   21.0071  -22.8432  -16.9456 C   0  0  0  0  0  0  0  0  0  0  0  0
   20.3765  -21.7188  -16.1913 C   0  0  2  0  0  0  0  0  0  0  0  0
   18.9206  -21.5221  -16.5188 C   0  0  0  0  0  0  0  0  0  0  0  0
   21.1379  -20.4078  -16.3957 C   0  0  2  0  0  0  0  0  0  0  0  0
   22.3782  -20.4165  -15.6642 N   0  0  0  0  0  0  0  0  0  0  0  0
   20.2815  -19.2308  -16.1418 C   0  0  0  0  0  0  0  0  0  0  0  0
   20.3008  -18.6176  -14.9004 O   0  0  0  0  0  0  0  0  0  0  0  0
   19.5154  -18.7486  -17.0189 O   0  0  0  0  0  0  0  0  0  0  0  0
  2  1  1  6
  3  2  1  0
  4  2  1  0
  5  4  1  0
  5  6  1  1
  7  8  2  0
  7  5  1  0
  9 10  1  0
 11 10  1  6
 11 13  1  0
 11 12  1  0
 12  7  1  0
 13 20  1  0
 14 13  2  0
 15 16  1  0
 17 19  1  0
 17 16  1  0
 17 18  1  6
 19 21  1  0
 19 20  1  1
 21 23  2  0
 21 22  1  0
M  END
$$$$
