LSI.pdb
     RDKit          3D

 23 22  0  0  1  0  0  0  0  0999 V2000
   20.8865  -14.5470  -18.3740 C   0  0  0  0  0  0  0  0  0  0  0  0
   19.6037  -13.9437  -18.8217 C   0  0  2  0  0  0  0  0  0  0  0  0
   19.2030  -14.3901  -20.2326 C   0  0  0  0  0  0  0  0  0  0  0  0
   19.3865  -12.4919  -18.5823 C   0  0  0  0  0  0  0  0  0  0  0  0
   19.7020  -11.9735  -17.2021 C   0  0  2  0  0  0  0  0  0  0  0  0
   18.9493  -12.6499  -16.1751 N   0  0  0  0  0  0  0  0  0  0  0  0
   19.6818  -10.4960  -17.1134 C   0  0  0  0  0  0  0  0  0  0  0  0
   20.3212   -9.7335  -17.8852 O   0  0  0  0  0  0  0  0  0  0  0  0
   17.6603   -8.7964  -13.8893 O   0  0  0  0  0  0  0  0  0  0  0  0
   17.5507   -8.0339  -15.0634 C   0  0  0  0  0  0  0  0  0  0  0  0
   18.8132   -8.4214  -15.9421 C   0  0  2  0  0  0  0  0  0  0  0  0
   18.8954   -9.8192  -16.1016 N   0  0  0  0  0  0  0  0  0  0  0  0
   19.9640   -7.7110  -15.4017 C   0  0  0  0  0  0  0  0  0  0  0  0
   20.6278   -8.1429  -14.3980 O   0  0  0  0  0  0  0  0  0  0  0  0
   23.6072   -5.5656  -18.6586 C   0  0  0  0  0  0  0  0  0  0  0  0
   22.8204   -6.1399  -17.5362 C   0  0  0  0  0  0  0  0  0  0  0  0
   22.5006   -5.1676  -16.4483 C   0  0  2  0  0  0  0  0  0  0  0  0
   23.7202   -4.5250  -15.8440 C   0  0  0  0  0  0  0  0  0  0  0  0
   21.6531   -5.8119  -15.3498 C   0  0  2  0  0  0  0  0  0  0  0  0
   20.5031   -6.4722  -15.9111 N   0  0  0  0  0  0  0  0  0  0  0  0
   21.3464   -4.8584  -14.2635 C   0  0  0  0  0  0  0  0  0  0  0  0
   22.2066   -4.7404  -13.1849 O   0  0  0  0  0  0  0  0  0  0  0  0
   20.3157   -4.1329  -14.2699 O   0  0  0  0  0  0  0  0  0  0  0  0
  2  1  1  6
  3  2  1  0
  4  2  1  0
  5  4  1  0
  5  6  1  1
  7  8  2  0
  7  5  1  0
  9 10  1  0
 11 10  1  1
 11 13  1  0
 11 12  1  0
 12  7  1  0
 13 20  1  0
 14 13  2  0
 15 16  1  0
 17 19  1  0
 17 16  1  0
 17 18  1  1
 19 21  1  0
 19 20  1  6
 21 23  2  0
 21 22  1  0
M  END
$$$$
