LSI.pdb
     RDKit          3D

 23 22  0  0  1  0  0  0  0  0999 V2000
   19.7504  -20.0815  -15.3090 C   0  0  0  0  0  0  0  0  0  0  0  0
   21.1431  -19.6478  -15.0225 C   0  0  2  0  0  0  0  0  0  0  0  0
   21.7312  -20.3337  -13.7838 C   0  0  0  0  0  0  0  0  0  0  0  0
   21.4575  -18.1958  -15.0933 C   0  0  0  0  0  0  0  0  0  0  0  0
   20.9973  -17.4575  -16.3248 C   0  0  2  0  0  0  0  0  0  0  0  0
   21.4694  -18.0699  -17.5417 N   0  0  0  0  0  0  0  0  0  0  0  0
   21.2111  -15.9949  -16.2441 C   0  0  0  0  0  0  0  0  0  0  0  0
   21.0515  -15.3148  -15.1962 O   0  0  0  0  0  0  0  0  0  0  0  0
   21.8825  -13.8901  -19.8415 O   0  0  0  0  0  0  0  0  0  0  0  0
   22.5693  -13.3800  -18.7278 C   0  0  0  0  0  0  0  0  0  0  0  0
   21.7247  -13.8317  -17.4633 C   0  0  2  0  0  0  0  0  0  0  0  0
   21.6342  -15.2367  -17.4044 N   0  0  0  0  0  0  0  0  0  0  0  0
   20.4951  -13.0512  -17.4501 C   0  0  0  0  0  0  0  0  0  0  0  0
   19.4332  -13.4334  -18.0506 O   0  0  0  0  0  0  0  0  0  0  0  0
   16.3269  -10.7453  -14.8860 C   0  0  0  0  0  0  0  0  0  0  0  0
   17.4135   -9.8451  -15.3525 C   0  0  0  0  0  0  0  0  0  0  0  0
   18.7635  -10.4826  -15.3983 C   0  0  2  0  0  0  0  0  0  0  0  0
   19.8740   -9.5613  -14.9701 C   0  0  0  0  0  0  0  0  0  0  0  0
   19.0677  -11.0561  -16.7836 C   0  0  2  0  0  0  0  0  0  0  0  0
   20.3067  -11.7898  -16.7733 N   0  0  0  0  0  0  0  0  0  0  0  0
   18.9713  -10.0249  -17.8373 C   0  0  0  0  0  0  0  0  0  0  0  0
   20.1132   -9.6023  -18.4966 O   0  0  0  0  0  0  0  0  0  0  0  0
   17.8761   -9.4976  -18.1709 O   0  0  0  0  0  0  0  0  0  0  0  0
  2  1  1  1
  3  2  1  0
  4  2  1  0
  5  4  1  0
  5  6  1  6
  7  8  2  0
  7  5  1  0
  9 10  1  0
 11 10  1  6
 11 13  1  0
 11 12  1  0
 12  7  1  0
 13 20  1  0
 14 13  2  0
 15 16  1  0
 17 19  1  0
 17 16  1  0
 17 18  1  6
 19 21  1  0
 19 20  1  1
 21 23  2  0
 21 22  1  0
M  END
$$$$
