LSI.pdb
     RDKit          3D

 23 22  0  0  1  0  0  0  0  0999 V2000
   12.9542  -12.2660  -13.7252 C   0  0  0  0  0  0  0  0  0  0  0  0
   14.1111  -11.3736  -13.9995 C   0  0  2  0  0  0  0  0  0  0  0  0
   13.9546  -10.5909  -15.3084 C   0  0  0  0  0  0  0  0  0  0  0  0
   15.4818  -11.9161  -13.8011 C   0  0  0  0  0  0  0  0  0  0  0  0
   16.6270  -10.9466  -13.9493 C   0  0  2  0  0  0  0  0  0  0  0  0
   17.7868  -11.5536  -14.5537 N   0  0  0  0  0  0  0  0  0  0  0  0
   16.9033  -10.1749  -12.7166 C   0  0  0  0  0  0  0  0  0  0  0  0
   17.1927  -10.6960  -11.6073 O   0  0  0  0  0  0  0  0  0  0  0  0
   17.8757   -6.1097  -12.9490 O   0  0  0  0  0  0  0  0  0  0  0  0
   18.2973   -6.9107  -11.8753 C   0  0  0  0  0  0  0  0  0  0  0  0
   17.0981   -7.9100  -11.5931 C   0  0  2  0  0  0  0  0  0  0  0  0
   16.8588   -8.7263  -12.7165 N   0  0  0  0  0  0  0  0  0  0  0  0
   15.9940   -7.1336  -11.0457 C   0  0  0  0  0  0  0  0  0  0  0  0
   15.0438   -6.6844  -11.7735 O   0  0  0  0  0  0  0  0  0  0  0  0
   12.1819   -6.1064   -6.3854 C   0  0  0  0  0  0  0  0  0  0  0  0
   12.9853   -5.5520   -7.5062 C   0  0  0  0  0  0  0  0  0  0  0  0
   14.1357   -6.4094   -7.9214 C   0  0  2  0  0  0  0  0  0  0  0  0
   15.1590   -6.6031   -6.8348 C   0  0  0  0  0  0  0  0  0  0  0  0
   14.8119   -5.8703   -9.1833 C   0  0  2  0  0  0  0  0  0  0  0  0
   15.8186   -6.7852   -9.6556 N   0  0  0  0  0  0  0  0  0  0  0  0
   15.2787   -4.4800   -9.0041 C   0  0  0  0  0  0  0  0  0  0  0  0
   16.6330   -4.2155   -8.8892 O   0  0  0  0  0  0  0  0  0  0  0  0
   14.4862   -3.5014   -8.9470 O   0  0  0  0  0  0  0  0  0  0  0  0
  2  1  1  6
  3  2  1  0
  4  2  1  0
  5  4  1  0
  5  6  1  1
  7  8  2  0
  7  5  1  0
  9 10  1  0
 11 10  1  6
 11 13  1  0
 11 12  1  0
 12  7  1  0
 13 20  1  0
 14 13  2  0
 15 16  1  0
 17 19  1  0
 17 16  1  0
 17 18  1  1
 19 21  1  0
 19 20  1  1
 21 23  2  0
 21 22  1  0
M  END
$$$$
