LSI.pdb
     RDKit          3D

 23 22  0  0  1  0  0  0  0  0999 V2000
   11.3462  -21.5105   -1.8699 C   0  0  0  0  0  0  0  0  0  0  0  0
   11.4177  -22.6399   -0.9059 C   0  0  2  0  0  0  0  0  0  0  0  0
   10.0387  -23.0531   -0.3786 C   0  0  0  0  0  0  0  0  0  0  0  0
   12.4616  -22.5976    0.1527 C   0  0  0  0  0  0  0  0  0  0  0  0
   13.8770  -22.3347   -0.2953 C   0  0  2  0  0  0  0  0  0  0  0  0
   14.2735  -23.1828   -1.3917 N   0  0  0  0  0  0  0  0  0  0  0  0
   14.8438  -22.2773    0.8243 C   0  0  0  0  0  0  0  0  0  0  0  0
   15.3893  -23.2893    1.3387 O   0  0  0  0  0  0  0  0  0  0  0  0
   15.3662  -18.6297    2.8126 O   0  0  0  0  0  0  0  0  0  0  0  0
   16.5659  -19.3378    2.6354 C   0  0  0  0  0  0  0  0  0  0  0  0
   16.1432  -20.8584    2.4760 C   0  0  2  0  0  0  0  0  0  0  0  0
   15.2341  -21.0106    1.4101 N   0  0  0  0  0  0  0  0  0  0  0  0
   15.7653  -21.3534    3.7926 C   0  0  0  0  0  0  0  0  0  0  0  0
   14.5501  -21.3939    4.1877 O   0  0  0  0  0  0  0  0  0  0  0  0
   16.8875  -25.3764    8.2530 C   0  0  0  0  0  0  0  0  0  0  0  0
   16.2566  -24.1290    7.7485 C   0  0  0  0  0  0  0  0  0  0  0  0
   16.9294  -23.5395    6.5523 C   0  0  2  0  0  0  0  0  0  0  0  0
   18.4083  -23.3323    6.7403 C   0  0  0  0  0  0  0  0  0  0  0  0
   16.2696  -22.2268    6.1261 C   0  0  2  0  0  0  0  0  0  0  0  0
   16.6743  -21.8590    4.7940 N   0  0  0  0  0  0  0  0  0  0  0  0
   16.4516  -21.1672    7.1395 C   0  0  0  0  0  0  0  0  0  0  0  0
   15.5646  -21.0639    8.1978 O   0  0  0  0  0  0  0  0  0  0  0  0
   17.3946  -20.3326    7.0851 O   0  0  0  0  0  0  0  0  0  0  0  0
  2  1  1  1
  3  2  1  0
  4  2  1  0
  5  4  1  0
  5  6  1  6
  7  8  2  0
  7  5  1  0
  9 10  1  0
 11 10  1  1
 11 13  1  0
 11 12  1  0
 12  7  1  0
 13 20  1  0
 14 13  2  0
 15 16  1  0
 17 19  1  0
 17 16  1  0
 17 18  1  1
 19 21  1  0
 19 20  1  6
 21 23  2  0
 21 22  1  0
M  END
$$$$
