TIQ.pdb
     RDKit          3D

 25 24  0  0  1  0  0  0  0  0999 V2000
   19.9406  -10.0721  -18.4628 C   0  0  0  0  0  0  0  0  0  0  0  0
   19.4929  -11.3008  -17.6977 C   0  0  1  0  0  0  0  0  0  0  0  0
   18.7369  -12.0772  -18.5703 O   0  0  0  0  0  0  0  0  0  0  0  0
   20.7181  -12.0193  -17.2147 C   0  0  2  0  0  0  0  0  0  0  0  0
   20.3207  -13.2978  -16.6605 N   0  0  0  0  0  0  0  0  0  0  0  0
   21.5269  -11.2560  -16.2710 C   0  0  0  0  0  0  0  0  0  0  0  0
   21.0837  -11.0515  -15.1159 O   0  0  0  0  0  0  0  0  0  0  0  0
   26.8568  -11.8070  -15.7646 C   0  0  0  0  0  0  0  0  0  0  0  0
   25.3898  -11.5273  -15.5232 C   0  0  0  0  0  0  0  0  0  0  0  0
   25.0051  -10.1375  -15.9710 C   0  0  2  0  0  0  0  0  0  0  0  0
   25.7971   -9.1521  -15.1375 C   0  0  0  0  0  0  0  0  0  0  0  0
   23.5579   -9.8413  -15.7885 C   0  0  2  0  0  0  0  0  0  0  0  0
   22.7960  -10.7410  -16.6234 N   0  0  0  0  0  0  0  0  0  0  0  0
   23.2139   -8.4264  -16.0912 C   0  0  0  0  0  0  0  0  0  0  0  0
   23.5642   -7.8449  -17.1442 O   0  0  0  0  0  0  0  0  0  0  0  0
   18.1369   -3.2767  -16.0204 N   0  0  0  0  0  0  0  0  0  0  0  0
   18.6567   -4.6196  -15.7948 C   0  0  0  0  0  0  0  0  0  0  0  0
   17.7639   -5.4857  -15.7143 O   0  0  0  0  0  0  0  0  0  0  0  0
   20.0825   -4.8192  -15.6853 C   0  0  0  0  0  0  0  0  0  0  0  0
   20.6616   -6.1496  -15.4692 C   0  0  0  0  0  0  0  0  0  0  0  0
   22.1599   -6.2773  -15.4288 C   0  0  2  0  0  0  0  0  0  0  0  0
   22.4545   -7.6954  -15.1483 N   0  0  0  0  0  0  0  0  0  0  0  0
   22.7456   -5.4052  -14.4270 C   0  0  0  0  0  0  0  0  0  0  0  0
   23.0539   -4.2020  -14.5365 O   0  0  0  0  0  0  0  0  0  0  0  0
   22.9934   -5.9887  -13.1633 O   0  0  0  0  0  0  0  0  0  0  0  0
  2  1  1  6
  3  2  1  0
  4  2  1  0
  4  6  1  0
  4  5  1  1
  6 13  1  0
  7  6  2  0
  9 10  1  0
  9  8  1  0
 10 12  1  0
 10 11  1  1
 12 14  1  0
 12 13  1  6
 14 15  2  0
 16 17  1  0
 17 19  1  0
 18 17  2  0
 19 20  1  0
 21 20  1  1
 21 23  1  0
 22 14  1  0
 22 21  1  0
 23 24  2  0
 23 25  1  0
M  END
$$$$
