TIQ.pdb
     RDKit          3D

 25 24  0  0  1  0  0  0  0  0999 V2000
   15.8259  -13.7239  -17.7927 C   0  0  0  0  0  0  0  0  0  0  0  0
   16.6064  -12.7349  -16.9512 C   0  0  1  0  0  0  0  0  0  0  0  0
   15.9365  -12.6066  -15.7385 O   0  0  0  0  0  0  0  0  0  0  0  0
   17.9975  -13.2687  -16.7776 C   0  0  2  0  0  0  0  0  0  0  0  0
   17.9212  -14.5757  -16.1566 N   0  0  0  0  0  0  0  0  0  0  0  0
   18.8926  -12.3803  -16.0447 C   0  0  0  0  0  0  0  0  0  0  0  0
   18.9241  -12.4456  -14.7929 O   0  0  0  0  0  0  0  0  0  0  0  0
   22.5837  -11.5797  -18.7505 C   0  0  0  0  0  0  0  0  0  0  0  0
   22.6252  -11.2244  -17.2807 C   0  0  0  0  0  0  0  0  0  0  0  0
   21.6724  -10.1003  -16.9506 C   0  0  2  0  0  0  0  0  0  0  0  0
   22.4733   -9.0023  -16.2830 C   0  0  0  0  0  0  0  0  0  0  0  0
   20.5819  -10.5082  -16.0233 C   0  0  2  0  0  0  0  0  0  0  0  0
   19.7248  -11.4486  -16.7075 N   0  0  0  0  0  0  0  0  0  0  0  0
   19.7939   -9.3545  -15.5135 C   0  0  0  0  0  0  0  0  0  0  0  0
   19.0188   -8.6814  -16.2319 O   0  0  0  0  0  0  0  0  0  0  0  0
   16.8725   -9.0929  -10.0614 N   0  0  0  0  0  0  0  0  0  0  0  0
   16.8771   -7.7017  -10.4959 C   0  0  0  0  0  0  0  0  0  0  0  0
   16.1865   -6.9578   -9.7724 O   0  0  0  0  0  0  0  0  0  0  0  0
   17.6357   -7.3264  -11.6658 C   0  0  0  0  0  0  0  0  0  0  0  0
   18.4293   -8.3044  -12.4179 C   0  0  0  0  0  0  0  0  0  0  0  0
   19.1489   -7.8394  -13.6543 C   0  0  2  0  0  0  0  0  0  0  0  0
   19.9208   -8.9939  -14.1519 N   0  0  0  0  0  0  0  0  0  0  0  0
   20.0103   -6.7040  -13.3784 C   0  0  0  0  0  0  0  0  0  0  0  0
   21.2269   -6.7067  -13.1058 O   0  0  0  0  0  0  0  0  0  0  0  0
   19.3969   -5.4313  -13.4309 O   0  0  0  0  0  0  0  0  0  0  0  0
  2  1  1  6
  3  2  1  0
  4  2  1  0
  4  6  1  0
  4  5  1  1
  6 13  1  0
  7  6  2  0
  9 10  1  0
  9  8  1  0
 10 12  1  0
 10 11  1  1
 12 14  1  0
 12 13  1  6
 14 15  2  0
 16 17  1  0
 17 19  1  0
 18 17  2  0
 19 20  1  0
 21 20  1  1
 21 23  1  0
 22 14  1  0
 22 21  1  0
 23 24  2  0
 23 25  1  0
M  END
$$$$
