TIQ.pdb
     RDKit          3D

 25 24  0  0  1  0  0  0  0  0999 V2000
   15.4390   -9.2884  -16.3219 C   0  0  0  0  0  0  0  0  0  0  0  0
   15.4202  -10.7264  -15.8452 C   0  0  1  0  0  0  0  0  0  0  0  0
   14.8691  -11.4925  -16.8675 O   0  0  0  0  0  0  0  0  0  0  0  0
   16.8303  -11.1300  -15.5304 C   0  0  2  0  0  0  0  0  0  0  0  0
   16.8527  -12.5462  -15.2248 N   0  0  0  0  0  0  0  0  0  0  0  0
   17.4556  -10.3450  -14.4719 C   0  0  0  0  0  0  0  0  0  0  0  0
   17.0954  -10.5279  -13.2848 O   0  0  0  0  0  0  0  0  0  0  0  0
   22.7683   -9.4335  -14.2414 C   0  0  0  0  0  0  0  0  0  0  0  0
   21.3027   -9.6537  -13.9380 C   0  0  0  0  0  0  0  0  0  0  0  0
   20.5063   -8.3781  -14.0750 C   0  0  2  0  0  0  0  0  0  0  0  0
   21.0966   -7.3645  -13.1173 C   0  0  0  0  0  0  0  0  0  0  0  0
   19.0654   -8.5467  -13.7415 C   0  0  2  0  0  0  0  0  0  0  0  0
   18.4559   -9.3843  -14.7484 N   0  0  0  0  0  0  0  0  0  0  0  0
   18.3423   -7.2522  -13.6275 C   0  0  0  0  0  0  0  0  0  0  0  0
   18.2072   -6.4547  -14.5844 O   0  0  0  0  0  0  0  0  0  0  0  0
   15.0558   -5.5261   -8.3037 N   0  0  0  0  0  0  0  0  0  0  0  0
   15.0645   -4.3553   -9.1718 C   0  0  0  0  0  0  0  0  0  0  0  0
   14.5605   -3.3460   -8.6419 O   0  0  0  0  0  0  0  0  0  0  0  0
   15.6215   -4.4610  -10.4998 C   0  0  0  0  0  0  0  0  0  0  0  0
   16.2833   -5.6849  -10.9644 C   0  0  0  0  0  0  0  0  0  0  0  0
   16.9864   -5.6549  -12.2939 C   0  0  2  0  0  0  0  0  0  0  0  0
   17.7768   -6.8976  -12.3807 N   0  0  0  0  0  0  0  0  0  0  0  0
   17.8280   -4.4799  -12.4289 C   0  0  0  0  0  0  0  0  0  0  0  0
   17.5711   -3.4099  -13.0152 O   0  0  0  0  0  0  0  0  0  0  0  0
   19.0987   -4.5515  -11.8132 O   0  0  0  0  0  0  0  0  0  0  0  0
  2  1  1  6
  3  2  1  0
  4  2  1  0
  4  6  1  0
  4  5  1  1
  6 13  1  0
  7  6  2  0
  9 10  1  0
  9  8  1  0
 10 12  1  0
 10 11  1  1
 12 14  1  0
 12 13  1  6
 14 15  2  0
 16 17  1  0
 17 19  1  0
 18 17  2  0
 19 20  1  0
 21 20  1  1
 21 23  1  0
 22 14  1  0
 22 21  1  0
 23 24  2  0
 23 25  1  0
M  END
$$$$
