TIQ.pdb
     RDKit          3D

 25 24  0  0  1  0  0  0  0  0999 V2000
   26.9401  -18.5433  -15.1138 C   0  0  0  0  0  0  0  0  0  0  0  0
   27.4510  -19.7814  -15.8219 C   0  0  1  0  0  0  0  0  0  0  0  0
   28.5067  -19.3845  -16.6365 O   0  0  0  0  0  0  0  0  0  0  0  0
   27.8799  -20.7699  -14.7782 C   0  0  2  0  0  0  0  0  0  0  0  0
   28.5400  -21.8817  -15.4323 N   0  0  0  0  0  0  0  0  0  0  0  0
   26.8028  -21.2258  -13.9066 C   0  0  0  0  0  0  0  0  0  0  0  0
   26.0592  -22.1579  -14.2947 O   0  0  0  0  0  0  0  0  0  0  0  0
   27.2756  -20.2920   -8.5120 C   0  0  0  0  0  0  0  0  0  0  0  0
   26.9355  -20.9927   -9.8089 C   0  0  0  0  0  0  0  0  0  0  0  0
   25.6861  -20.4254  -10.4393 C   0  0  2  0  0  0  0  0  0  0  0  0
   24.5144  -20.8111   -9.5611 C   0  0  0  0  0  0  0  0  0  0  0  0
   25.4304  -20.9478  -11.8094 C   0  0  2  0  0  0  0  0  0  0  0  0
   26.5751  -20.6453  -12.6373 N   0  0  0  0  0  0  0  0  0  0  0  0
   24.1863  -20.4019  -12.4143 C   0  0  0  0  0  0  0  0  0  0  0  0
   24.0834  -19.2235  -12.8272 O   0  0  0  0  0  0  0  0  0  0  0  0
   23.7653  -20.2899  -16.7611 N   0  0  0  0  0  0  0  0  0  0  0  0
   22.3967  -19.7897  -16.7236 C   0  0  0  0  0  0  0  0  0  0  0  0
   22.1451  -18.9757  -17.6334 O   0  0  0  0  0  0  0  0  0  0  0  0
   21.5009  -20.2514  -15.6896 C   0  0  0  0  0  0  0  0  0  0  0  0
   21.9428  -21.1790  -14.6426 C   0  0  0  0  0  0  0  0  0  0  0  0
   21.8564  -20.7303  -13.2094 C   0  0  2  0  0  0  0  0  0  0  0  0
   23.0600  -21.2491  -12.5322 N   0  0  0  0  0  0  0  0  0  0  0  0
   20.6421  -21.2049  -12.5712 C   0  0  0  0  0  0  0  0  0  0  0  0
   20.4527  -22.2865  -11.9805 O   0  0  0  0  0  0  0  0  0  0  0  0
   19.5329  -20.3295  -12.6173 O   0  0  0  0  0  0  0  0  0  0  0  0
  2  1  1  1
  3  2  1  0
  4  2  1  0
  4  6  1  0
  4  5  1  6
  6 13  1  0
  7  6  2  0
  9 10  1  0
  9  8  1  0
 10 12  1  0
 10 11  1  1
 12 14  1  0
 12 13  1  6
 14 15  2  0
 16 17  1  0
 17 19  1  0
 18 17  2  0
 19 20  1  0
 21 20  1  6
 21 23  1  0
 22 14  1  0
 22 21  1  0
 23 24  2  0
 23 25  1  0
M  END
$$$$
