TIQ.pdb
     RDKit          3D

 25 24  0  0  1  0  0  0  0  0999 V2000
   15.8598   -9.7902  -13.9607 C   0  0  0  0  0  0  0  0  0  0  0  0
   15.8088   -9.5150  -12.4717 C   0  0  1  0  0  0  0  0  0  0  0  0
   14.8508  -10.3648  -11.9279 O   0  0  0  0  0  0  0  0  0  0  0  0
   17.1757   -9.7645  -11.9061 C   0  0  2  0  0  0  0  0  0  0  0  0
   17.1092   -9.6588  -10.4624 N   0  0  0  0  0  0  0  0  0  0  0  0
   18.2178   -8.9056  -12.4573 C   0  0  0  0  0  0  0  0  0  0  0  0
   18.3295   -7.7325  -12.0286 O   0  0  0  0  0  0  0  0  0  0  0  0
   23.0907  -10.9596  -13.5103 C   0  0  0  0  0  0  0  0  0  0  0  0
   21.9726  -10.0107  -13.1388 C   0  0  0  0  0  0  0  0  0  0  0  0
   21.3078   -9.4249  -14.3615 C   0  0  2  0  0  0  0  0  0  0  0  0
   22.3415   -8.5926  -15.0904 C   0  0  0  0  0  0  0  0  0  0  0  0
   20.1505   -8.5470  -14.0368 C   0  0  2  0  0  0  0  0  0  0  0  0
   19.1044   -9.3600  -13.4610 N   0  0  0  0  0  0  0  0  0  0  0  0
   19.6433   -7.7977  -15.2171 C   0  0  0  0  0  0  0  0  0  0  0  0
   19.3084   -8.3515  -16.2899 O   0  0  0  0  0  0  0  0  0  0  0  0
   15.6808   -3.8886  -17.5889 N   0  0  0  0  0  0  0  0  0  0  0  0
   15.4638   -5.0655  -16.7568 C   0  0  0  0  0  0  0  0  0  0  0  0
   14.3233   -5.5527  -16.8813 O   0  0  0  0  0  0  0  0  0  0  0  0
   16.5287   -5.5368  -15.9031 C   0  0  0  0  0  0  0  0  0  0  0  0
   17.8365   -4.8734  -15.8621 C   0  0  0  0  0  0  0  0  0  0  0  0
   19.0443   -5.6497  -16.3107 C   0  0  2  0  0  0  0  0  0  0  0  0
   19.5309   -6.3905  -15.1313 N   0  0  0  0  0  0  0  0  0  0  0  0
   20.0716   -4.7781  -16.8512 C   0  0  0  0  0  0  0  0  0  0  0  0
   21.0527   -4.2837  -16.2617 O   0  0  0  0  0  0  0  0  0  0  0  0
   19.9516   -4.4513  -18.2215 O   0  0  0  0  0  0  0  0  0  0  0  0
  2  1  1  6
  3  2  1  0
  4  2  1  0
  4  6  1  0
  4  5  1  1
  6 13  1  0
  7  6  2  0
  9 10  1  0
  9  8  1  0
 10 12  1  0
 10 11  1  1
 12 14  1  0
 12 13  1  6
 14 15  2  0
 16 17  1  0
 17 19  1  0
 18 17  2  0
 19 20  1  0
 21 20  1  1
 21 23  1  0
 22 14  1  0
 22 21  1  0
 23 24  2  0
 23 25  1  0
M  END
$$$$
