TIQ.pdb
     RDKit          3D

 25 24  0  0  1  0  0  0  0  0999 V2000
   25.3879  -23.5608  -12.0037 C   0  0  0  0  0  0  0  0  0  0  0  0
   25.0760  -22.2895  -12.7666 C   0  0  1  0  0  0  0  0  0  0  0  0
   23.7091  -22.0606  -12.6452 O   0  0  0  0  0  0  0  0  0  0  0  0
   25.8924  -21.1796  -12.1733 C   0  0  2  0  0  0  0  0  0  0  0  0
   25.5101  -21.0099  -10.7860 N   0  0  0  0  0  0  0  0  0  0  0  0
   25.8149  -19.9212  -12.9067 C   0  0  0  0  0  0  0  0  0  0  0  0
   25.1214  -18.9865  -12.4400 O   0  0  0  0  0  0  0  0  0  0  0  0
   28.8566  -17.1059  -17.5059 C   0  0  0  0  0  0  0  0  0  0  0  0
   27.6470  -17.1484  -16.5984 C   0  0  0  0  0  0  0  0  0  0  0  0
   27.6149  -18.4100  -15.7692 C   0  0  2  0  0  0  0  0  0  0  0  0
   27.6485  -19.5857  -16.7227 C   0  0  0  0  0  0  0  0  0  0  0  0
   26.3923  -18.5293  -14.9287 C   0  0  2  0  0  0  0  0  0  0  0  0
   26.4999  -19.7274  -14.1287 N   0  0  0  0  0  0  0  0  0  0  0  0
   25.1388  -18.5434  -15.7289 C   0  0  0  0  0  0  0  0  0  0  0  0
   24.6745  -19.5792  -16.2593 O   0  0  0  0  0  0  0  0  0  0  0  0
   20.0925  -18.9149  -15.3376 N   0  0  0  0  0  0  0  0  0  0  0  0
   19.7536  -17.7094  -16.0836 C   0  0  0  0  0  0  0  0  0  0  0  0
   18.5933  -17.7223  -16.5388 O   0  0  0  0  0  0  0  0  0  0  0  0
   20.7388  -16.6637  -16.2273 C   0  0  0  0  0  0  0  0  0  0  0  0
   22.1060  -16.8155  -15.7179 C   0  0  0  0  0  0  0  0  0  0  0  0
   23.1564  -17.3613  -16.6461 C   0  0  2  0  0  0  0  0  0  0  0  0
   24.4311  -17.3315  -15.9039 N   0  0  0  0  0  0  0  0  0  0  0  0
   23.2390  -16.5918  -17.8741 C   0  0  0  0  0  0  0  0  0  0  0  0
   23.8770  -15.5416  -18.0853 O   0  0  0  0  0  0  0  0  0  0  0  0
   22.5102  -17.0979  -18.9748 O   0  0  0  0  0  0  0  0  0  0  0  0
  2  1  1  1
  3  2  1  0
  4  2  1  0
  4  6  1  0
  4  5  1  1
  6 13  1  0
  7  6  2  0
  9 10  1  0
  9  8  1  0
 10 12  1  0
 10 11  1  6
 12 14  1  0
 12 13  1  6
 14 15  2  0
 16 17  1  0
 17 19  1  0
 18 17  2  0
 19 20  1  0
 21 20  1  1
 21 23  1  0
 22 14  1  0
 22 21  1  0
 23 24  2  0
 23 25  1  0
M  END
$$$$
