TIQ.pdb
     RDKit          3D

 25 24  0  0  1  0  0  0  0  0999 V2000
   18.4325  -23.9728  -12.8775 C   0  0  0  0  0  0  0  0  0  0  0  0
   19.1459  -22.6710  -13.1805 C   0  0  1  0  0  0  0  0  0  0  0  0
   18.1685  -21.7180  -13.4490 O   0  0  0  0  0  0  0  0  0  0  0  0
   19.9790  -22.3090  -11.9866 C   0  0  2  0  0  0  0  0  0  0  0  0
   19.0981  -21.9149  -10.9057 N   0  0  0  0  0  0  0  0  0  0  0  0
   20.9912  -21.2921  -12.2488 C   0  0  0  0  0  0  0  0  0  0  0  0
   20.7503  -20.1003  -11.9421 O   0  0  0  0  0  0  0  0  0  0  0  0
   26.1793  -21.7285  -11.0849 C   0  0  0  0  0  0  0  0  0  0  0  0
   24.7899  -21.2248  -11.4076 C   0  0  0  0  0  0  0  0  0  0  0  0
   24.5647  -21.1229  -12.8973 C   0  0  2  0  0  0  0  0  0  0  0  0
   25.5822  -20.1463  -13.4485 C   0  0  0  0  0  0  0  0  0  0  0  0
   23.2068  -20.6281  -13.2534 C   0  0  2  0  0  0  0  0  0  0  0  0
   22.2354  -21.6139  -12.8391 N   0  0  0  0  0  0  0  0  0  0  0  0
   23.0625  -20.3257  -14.7024 C   0  0  0  0  0  0  0  0  0  0  0  0
   23.3548  -21.1424  -15.6066 O   0  0  0  0  0  0  0  0  0  0  0  0
   19.5892  -19.5506  -18.1754 N   0  0  0  0  0  0  0  0  0  0  0  0
   19.1088  -19.0104  -16.9097 C   0  0  0  0  0  0  0  0  0  0  0  0
   17.9696  -19.4131  -16.6035 O   0  0  0  0  0  0  0  0  0  0  0  0
   19.9460  -18.1013  -16.1631 C   0  0  0  0  0  0  0  0  0  0  0  0
   21.2936  -17.7424  -16.6179 C   0  0  0  0  0  0  0  0  0  0  0  0
   22.3787  -18.7798  -16.5220 C   0  0  2  0  0  0  0  0  0  0  0  0
   22.5718  -19.0559  -15.0857 N   0  0  0  0  0  0  0  0  0  0  0  0
   23.6091  -18.3282  -17.1459 C   0  0  0  0  0  0  0  0  0  0  0  0
   24.5726  -17.7406  -16.6159 O   0  0  0  0  0  0  0  0  0  0  0  0
   23.7379  -18.5924  -18.5288 O   0  0  0  0  0  0  0  0  0  0  0  0
  2  1  1  1
  3  2  1  0
  4  2  1  0
  4  6  1  0
  4  5  1  1
  6 13  1  0
  7  6  2  0
  9 10  1  0
  9  8  1  0
 10 12  1  0
 10 11  1  1
 12 14  1  0
 12 13  1  6
 14 15  2  0
 16 17  1  0
 17 19  1  0
 18 17  2  0
 19 20  1  0
 21 20  1  1
 21 23  1  0
 22 14  1  0
 22 21  1  0
 23 24  2  0
 23 25  1  0
M  END
$$$$
