TIQ.pdb
     RDKit          3D

 25 24  0  0  1  0  0  0  0  0999 V2000
   27.1179  -18.2906  -15.1814 C   0  0  0  0  0  0  0  0  0  0  0  0
   27.3829  -19.4434  -16.1282 C   0  0  1  0  0  0  0  0  0  0  0  0
   28.4310  -19.0615  -16.9597 O   0  0  0  0  0  0  0  0  0  0  0  0
   27.7218  -20.6514  -15.3058 C   0  0  2  0  0  0  0  0  0  0  0  0
   28.1466  -21.7153  -16.1933 N   0  0  0  0  0  0  0  0  0  0  0  0
   26.6512  -21.0914  -14.4184 C   0  0  0  0  0  0  0  0  0  0  0  0
   25.6999  -21.7551  -14.8949 O   0  0  0  0  0  0  0  0  0  0  0  0
   25.3550  -20.7208   -8.3346 C   0  0  0  0  0  0  0  0  0  0  0  0
   24.8954  -21.0581   -9.7358 C   0  0  0  0  0  0  0  0  0  0  0  0
   25.9920  -20.8402  -10.7509 C   0  0  2  0  0  0  0  0  0  0  0  0
   26.4713  -19.4110  -10.6076 C   0  0  0  0  0  0  0  0  0  0  0  0
   25.5403  -21.0392  -12.1552 C   0  0  2  0  0  0  0  0  0  0  0  0
   26.6572  -20.7897  -13.0367 N   0  0  0  0  0  0  0  0  0  0  0  0
   24.3827  -20.1791  -12.5183 C   0  0  0  0  0  0  0  0  0  0  0  0
   24.4862  -18.9534  -12.7569 O   0  0  0  0  0  0  0  0  0  0  0  0
   21.0934  -17.9191  -16.5692 N   0  0  0  0  0  0  0  0  0  0  0  0
   20.6233  -19.2977  -16.5135 C   0  0  0  0  0  0  0  0  0  0  0  0
   19.7893  -19.5694  -17.3992 O   0  0  0  0  0  0  0  0  0  0  0  0
   21.1325  -20.1800  -15.4903 C   0  0  0  0  0  0  0  0  0  0  0  0
   22.1983  -19.7639  -14.5723 C   0  0  0  0  0  0  0  0  0  0  0  0
   21.9784  -19.9450  -13.0952 C   0  0  2  0  0  0  0  0  0  0  0  0
   23.0989  -20.7668  -12.6000 N   0  0  0  0  0  0  0  0  0  0  0  0
   20.6980  -20.5696  -12.8163 C   0  0  0  0  0  0  0  0  0  0  0  0
   20.4430  -21.7834  -12.6893 O   0  0  0  0  0  0  0  0  0  0  0  0
   19.5995  -19.6932  -12.6619 O   0  0  0  0  0  0  0  0  0  0  0  0
  2  1  1  1
  3  2  1  0
  4  2  1  0
  4  6  1  0
  4  5  1  6
  6 13  1  0
  7  6  2  0
  9 10  1  0
  9  8  1  0
 10 12  1  0
 10 11  1  6
 12 14  1  0
 12 13  1  6
 14 15  2  0
 16 17  1  0
 17 19  1  0
 18 17  2  0
 19 20  1  0
 21 20  1  6
 21 23  1  0
 22 14  1  0
 22 21  1  0
 23 24  2  0
 23 25  1  0
M  END
$$$$
