TIQ.pdb
     RDKit          3D

 25 24  0  0  1  0  0  0  0  0999 V2000
   25.3953  -11.4446  -21.9293 C   0  0  0  0  0  0  0  0  0  0  0  0
   24.4280  -11.0040  -20.8496 C   0  0  1  0  0  0  0  0  0  0  0  0
   23.4524  -10.2246  -21.4632 O   0  0  0  0  0  0  0  0  0  0  0  0
   23.8534  -12.2337  -20.2108 C   0  0  2  0  0  0  0  0  0  0  0  0
   23.1756  -13.0135  -21.2267 N   0  0  0  0  0  0  0  0  0  0  0  0
   22.9813  -11.9655  -19.0728 C   0  0  0  0  0  0  0  0  0  0  0  0
   21.7399  -11.9459  -19.2486 O   0  0  0  0  0  0  0  0  0  0  0  0
   23.6750  -14.5565  -14.5986 C   0  0  0  0  0  0  0  0  0  0  0  0
   23.0376  -13.7574  -15.7138 C   0  0  0  0  0  0  0  0  0  0  0  0
   23.1713  -12.2711  -15.4829 C   0  0  2  0  0  0  0  0  0  0  0  0
   22.3509  -11.9222  -14.2590 C   0  0  0  0  0  0  0  0  0  0  0  0
   22.6749  -11.4528  -16.6228 C   0  0  2  0  0  0  0  0  0  0  0  0
   23.4978  -11.7271  -17.7780 N   0  0  0  0  0  0  0  0  0  0  0  0
   22.6571   -9.9958  -16.3250 C   0  0  0  0  0  0  0  0  0  0  0  0
   23.6831   -9.3452  -16.0183 O   0  0  0  0  0  0  0  0  0  0  0  0
   17.9666   -6.1339  -18.3748 N   0  0  0  0  0  0  0  0  0  0  0  0
   18.8793   -5.2741  -17.6315 C   0  0  0  0  0  0  0  0  0  0  0  0
   18.5596   -4.0699  -17.6669 O   0  0  0  0  0  0  0  0  0  0  0  0
   20.0154   -5.8589  -16.9590 C   0  0  0  0  0  0  0  0  0  0  0  0
   20.2923   -7.2981  -17.0204 C   0  0  0  0  0  0  0  0  0  0  0  0
   21.4276   -7.8417  -16.1968 C   0  0  2  0  0  0  0  0  0  0  0  0
   21.4251   -9.3044  -16.3891 N   0  0  0  0  0  0  0  0  0  0  0  0
   21.2895   -7.4904  -14.7951 C   0  0  0  0  0  0  0  0  0  0  0  0
   20.6827   -8.1111  -13.9001 O   0  0  0  0  0  0  0  0  0  0  0  0
   21.9284   -6.2967  -14.3878 O   0  0  0  0  0  0  0  0  0  0  0  0
  2  1  1  6
  3  2  1  0
  4  2  1  0
  4  6  1  0
  4  5  1  6
  6 13  1  0
  7  6  2  0
  9 10  1  0
  9  8  1  0
 10 12  1  0
 10 11  1  1
 12 14  1  0
 12 13  1  6
 14 15  2  0
 16 17  1  0
 17 19  1  0
 18 17  2  0
 19 20  1  0
 21 20  1  6
 21 23  1  0
 22 14  1  0
 22 21  1  0
 23 24  2  0
 23 25  1  0
M  END
$$$$
