TIQ.pdb
     RDKit          3D

 25 24  0  0  1  0  0  0  0  0999 V2000
   18.9529  -11.3087  -19.8207 C   0  0  0  0  0  0  0  0  0  0  0  0
   18.1258  -12.4068  -19.1839 C   0  0  1  0  0  0  0  0  0  0  0  0
   17.5744  -13.1591  -20.2162 O   0  0  0  0  0  0  0  0  0  0  0  0
   19.0310  -13.2218  -18.3083 C   0  0  2  0  0  0  0  0  0  0  0  0
   18.2989  -14.3762  -17.8274 N   0  0  0  0  0  0  0  0  0  0  0  0
   19.6328  -12.4750  -17.2094 C   0  0  0  0  0  0  0  0  0  0  0  0
   18.9113  -12.1212  -16.2468 O   0  0  0  0  0  0  0  0  0  0  0  0
   24.6251  -13.5044  -15.2648 C   0  0  0  0  0  0  0  0  0  0  0  0
   23.1751  -13.0956  -15.4031 C   0  0  0  0  0  0  0  0  0  0  0  0
   23.0376  -11.7277  -16.0278 C   0  0  2  0  0  0  0  0  0  0  0  0
   23.7229  -10.7352  -15.1124 C   0  0  0  0  0  0  0  0  0  0  0  0
   21.6222  -11.3000  -16.1991 C   0  0  2  0  0  0  0  0  0  0  0  0
   21.0067  -12.1396  -17.2007 N   0  0  0  0  0  0  0  0  0  0  0  0
   21.4916   -9.8645  -16.5651 C   0  0  0  0  0  0  0  0  0  0  0  0
   22.0036   -9.3694  -17.5959 O   0  0  0  0  0  0  0  0  0  0  0  0
   16.4574   -6.4303  -16.6502 N   0  0  0  0  0  0  0  0  0  0  0  0
   17.5149   -5.4279  -16.6869 C   0  0  0  0  0  0  0  0  0  0  0  0
   17.0934   -4.2757  -16.9073 O   0  0  0  0  0  0  0  0  0  0  0  0
   18.8850   -5.8343  -16.4808 C   0  0  0  0  0  0  0  0  0  0  0  0
   19.2487   -7.2376  -16.2563 C   0  0  0  0  0  0  0  0  0  0  0  0
   20.6984   -7.5717  -16.0336 C   0  0  2  0  0  0  0  0  0  0  0  0
   20.7546   -9.0105  -15.7121 N   0  0  0  0  0  0  0  0  0  0  0  0
   21.2772   -6.7677  -14.9727 C   0  0  0  0  0  0  0  0  0  0  0  0
   21.4346   -7.0703  -13.7734 O   0  0  0  0  0  0  0  0  0  0  0  0
   21.7268   -5.4797  -15.3438 O   0  0  0  0  0  0  0  0  0  0  0  0
  2  1  1  6
  3  2  1  0
  4  2  1  0
  4  6  1  0
  4  5  1  1
  6 13  1  0
  7  6  2  0
  9 10  1  0
  9  8  1  0
 10 12  1  0
 10 11  1  1
 12 14  1  0
 12 13  1  6
 14 15  2  0
 16 17  1  0
 17 19  1  0
 18 17  2  0
 19 20  1  0
 21 20  1  1
 21 23  1  0
 22 14  1  0
 22 21  1  0
 23 24  2  0
 23 25  1  0
M  END
$$$$
