TIQ.pdb
     RDKit          3D

 25 24  0  0  1  0  0  0  0  0999 V2000
   29.0801  -18.3941  -15.2796 C   0  0  0  0  0  0  0  0  0  0  0  0
   27.8707  -19.0832  -14.6814 C   0  0  1  0  0  0  0  0  0  0  0  0
   27.0019  -19.3739  -15.7285 O   0  0  0  0  0  0  0  0  0  0  0  0
   28.3425  -20.3198  -13.9753 C   0  0  2  0  0  0  0  0  0  0  0  0
   28.8940  -21.2342  -14.9548 N   0  0  0  0  0  0  0  0  0  0  0  0
   27.3245  -20.9661  -13.1546 C   0  0  0  0  0  0  0  0  0  0  0  0
   26.7007  -21.9490  -13.6208 O   0  0  0  0  0  0  0  0  0  0  0  0
   27.4913  -20.1372   -7.7385 C   0  0  0  0  0  0  0  0  0  0  0  0
   27.1894  -20.9477   -8.9797 C   0  0  0  0  0  0  0  0  0  0  0  0
   25.9785  -20.4193   -9.7110 C   0  0  2  0  0  0  0  0  0  0  0  0
   24.7509  -20.8559   -8.9394 C   0  0  0  0  0  0  0  0  0  0  0  0
   25.8604  -20.9365  -11.1017 C   0  0  2  0  0  0  0  0  0  0  0  0
   27.0224  -20.5143  -11.8490 N   0  0  0  0  0  0  0  0  0  0  0  0
   24.6120  -20.4957  -11.7791 C   0  0  0  0  0  0  0  0  0  0  0  0
   24.3801  -19.3024  -12.0826 O   0  0  0  0  0  0  0  0  0  0  0  0
   22.0692  -24.0688  -16.1903 N   0  0  0  0  0  0  0  0  0  0  0  0
   21.1071  -22.9837  -16.0431 C   0  0  0  0  0  0  0  0  0  0  0  0
   20.1785  -23.0334  -16.8731 O   0  0  0  0  0  0  0  0  0  0  0  0
   21.3044  -21.9964  -15.0082 C   0  0  0  0  0  0  0  0  0  0  0  0
   22.4300  -22.0745  -14.0708 C   0  0  0  0  0  0  0  0  0  0  0  0
   22.5008  -21.0675  -12.9556 C   0  0  2  0  0  0  0  0  0  0  0  0
   23.6341  -21.4659  -12.0994 N   0  0  0  0  0  0  0  0  0  0  0  0
   21.2606  -21.0124  -12.2033 C   0  0  0  0  0  0  0  0  0  0  0  0
   21.0062  -21.5263  -11.0961 O   0  0  0  0  0  0  0  0  0  0  0  0
   20.2070  -20.2783  -12.7947 O   0  0  0  0  0  0  0  0  0  0  0  0
  2  1  1  6
  3  2  1  0
  4  2  1  0
  4  6  1  0
  4  5  1  6
  6 13  1  0
  7  6  2  0
  9 10  1  0
  9  8  1  0
 10 12  1  0
 10 11  1  1
 12 14  1  0
 12 13  1  6
 14 15  2  0
 16 17  1  0
 17 19  1  0
 18 17  2  0
 19 20  1  0
 21 20  1  6
 21 23  1  0
 22 14  1  0
 22 21  1  0
 23 24  2  0
 23 25  1  0
M  END
$$$$
