RSA.pdb
     RDKit          3D

 23 22  0  0  1  0  0  0  0  0999 V2000
    8.1545  -12.8177   20.8538 N   0  0  0  0  0  0  0  0  0  0  0  0
    8.3166  -12.8534   19.4350 C   0  0  0  0  0  0  0  0  0  0  0  0
    8.7173  -11.8010   18.8477 N   0  0  0  0  0  0  0  0  0  0  0  0
    8.0320  -14.0364   18.7378 N   0  0  0  0  0  0  0  0  0  0  0  0
    7.9796  -15.3042   19.4271 C   0  0  0  0  0  0  0  0  0  0  0  0
    8.8850  -16.3031   18.7769 C   0  0  0  0  0  0  0  0  0  0  0  0
   10.0768  -16.6490   19.5685 C   0  0  0  0  0  0  0  0  0  0  0  0
    9.8725  -17.7910   20.5190 C   0  0  2  0  0  0  0  0  0  0  0  0
    8.5783  -18.3384   20.3959 N   0  0  0  0  0  0  0  0  0  0  0  0
   10.1921  -17.2795   21.8767 C   0  0  0  0  0  0  0  0  0  0  0  0
   11.3529  -16.8295   22.0674 O   0  0  0  0  0  0  0  0  0  0  0  0
    8.7568  -11.6336   17.8322 O   0  0  0  0  0  0  0  0  0  0  0  0
    7.3944  -17.2463   24.9970 C   0  0  0  0  0  0  0  0  0  0  0  0
    8.3888  -16.2763   24.9226 C   0  0  1  0  0  0  0  0  0  0  0  0
    9.6597  -16.8413   24.3057 N   0  0  0  0  0  0  0  0  0  0  0  0
    9.3005  -17.2591   22.9639 C   0  0  0  0  0  0  0  0  0  0  0  0
   10.2034  -17.9557   25.0913 O   0  0  0  0  0  0  0  0  0  0  0  0
   10.3645  -19.0692   24.4786 C   0  0  0  0  0  0  0  0  0  0  0  0
   12.3393  -19.4580   26.5875 C   0  0  2  0  0  0  0  0  0  0  0  0
   11.0407  -18.9716   27.2153 N   0  0  0  0  0  0  0  0  0  0  0  0
   10.5505  -17.8592   26.4642 C   0  0  0  0  0  0  0  0  0  0  0  0
   11.1438  -18.7307   28.6556 O   0  0  0  0  0  0  0  0  0  0  0  0
   10.8260  -17.6542   29.2369 O   0  0  0  0  0  0  0  0  0  0  0  0
  1  2  1  0
  2  3  2  0
  2  4  1  0
  4  5  1  0
  6  5  1  0
  6  7  1  0
  7  8  1  0
  8  9  1  1
 10  8  1  0
 10 15  1  0
 11 10  2  0
 12 13  1  0
 14 13  1  6
 14 15  1  0
 14 16  1  0
 16 17  2  0
 16 20  1  0
 19 18  1  6
 19 21  1  0
 20 19  1  0
 21 23  1  0
 22 21  2  0
M  END
$$$$
