RSA.pdb
     RDKit          3D

 23 22  0  0  1  0  0  0  0  0999 V2000
    7.3121  -15.2059   16.6623 N   0  0  0  0  0  0  0  0  0  0  0  0
    8.3283  -14.2686   16.3022 C   0  0  0  0  0  0  0  0  0  0  0  0
    8.9942  -14.4798   15.2416 N   0  0  0  0  0  0  0  0  0  0  0  0
    8.5598  -13.1539   17.1209 N   0  0  0  0  0  0  0  0  0  0  0  0
    7.9358  -13.0499   18.4190 C   0  0  0  0  0  0  0  0  0  0  0  0
    8.6927  -13.8402   19.4401 C   0  0  0  0  0  0  0  0  0  0  0  0
    8.0780  -13.8523   20.7775 C   0  0  0  0  0  0  0  0  0  0  0  0
    7.5188  -15.1831   21.1844 C   0  0  2  0  0  0  0  0  0  0  0  0
    6.3635  -15.5052   20.4419 N   0  0  0  0  0  0  0  0  0  0  0  0
    7.3039  -15.1255   22.6533 C   0  0  0  0  0  0  0  0  0  0  0  0
    6.4693  -14.2863   23.0837 O   0  0  0  0  0  0  0  0  0  0  0  0
    9.7718  -13.9136   14.8737 O   0  0  0  0  0  0  0  0  0  0  0  0
    7.9116  -18.2590   25.1108 C   0  0  0  0  0  0  0  0  0  0  0  0
    7.0812  -17.1851   25.4146 C   0  0  1  0  0  0  0  0  0  0  0  0
    7.7310  -15.8644   25.0296 N   0  0  0  0  0  0  0  0  0  0  0  0
    7.9593  -15.9339   23.5989 C   0  0  0  0  0  0  0  0  0  0  0  0
    8.9797  -15.6314   25.7653 O   0  0  0  0  0  0  0  0  0  0  0  0
   10.0546  -16.0847   25.2360 C   0  0  0  0  0  0  0  0  0  0  0  0
   10.0812  -13.8654   28.8877 C   0  0  2  0  0  0  0  0  0  0  0  0
   10.2242  -14.9398   27.8190 N   0  0  0  0  0  0  0  0  0  0  0  0
    9.0497  -14.9439   27.0052 C   0  0  0  0  0  0  0  0  0  0  0  0
   10.5925  -16.2510   28.3560 O   0  0  0  0  0  0  0  0  0  0  0  0
    9.8231  -17.2518   28.4211 O   0  0  0  0  0  0  0  0  0  0  0  0
  1  2  1  0
  2  3  2  0
  2  4  1  0
  4  5  1  0
  6  5  1  0
  6  7  1  0
  7  8  1  0
  8  9  1  6
 10  8  1  0
 10 15  1  0
 11 10  2  0
 12 13  1  0
 14 13  1  6
 14 15  1  0
 14 16  1  0
 16 17  2  0
 16 20  1  0
 19 18  1  6
 19 21  1  0
 20 19  1  0
 21 23  1  0
 22 21  2  0
M  END
$$$$
