RSA.pdb
     RDKit          3D

 23 22  0  0  1  0  0  0  0  0999 V2000
    8.4480  -18.7103   11.8613 N   0  0  0  0  0  0  0  0  0  0  0  0
    8.0383  -19.9305   12.4807 C   0  0  0  0  0  0  0  0  0  0  0  0
    7.1812  -20.6518   11.8822 N   0  0  0  0  0  0  0  0  0  0  0  0
    8.5875  -20.2940   13.7187 N   0  0  0  0  0  0  0  0  0  0  0  0
    9.7225  -19.5833   14.2591 C   0  0  0  0  0  0  0  0  0  0  0  0
   10.8608  -20.5182   14.5244 C   0  0  0  0  0  0  0  0  0  0  0  0
   11.6234  -20.2161   15.7466 C   0  0  0  0  0  0  0  0  0  0  0  0
   11.8512  -21.4013   16.6370 C   0  0  2  0  0  0  0  0  0  0  0  0
   11.4064  -22.5946   16.0302 N   0  0  0  0  0  0  0  0  0  0  0  0
   11.1941  -21.0944   17.9336 C   0  0  0  0  0  0  0  0  0  0  0  0
   10.9700  -19.8833   18.1967 O   0  0  0  0  0  0  0  0  0  0  0  0
    6.8160  -21.5649   12.1881 O   0  0  0  0  0  0  0  0  0  0  0  0
    9.6419  -24.0720   20.4450 C   0  0  0  0  0  0  0  0  0  0  0  0
    9.0465  -22.8253   20.2829 C   0  0  1  0  0  0  0  0  0  0  0  0
   10.0948  -21.7356   20.1144 N   0  0  0  0  0  0  0  0  0  0  0  0
   10.8038  -22.0499   18.8886 C   0  0  0  0  0  0  0  0  0  0  0  0
   11.0058  -21.6672   21.2633 O   0  0  0  0  0  0  0  0  0  0  0  0
   12.1457  -22.2366   21.1306 C   0  0  0  0  0  0  0  0  0  0  0  0
   11.1593  -19.8309   24.5208 C   0  0  2  0  0  0  0  0  0  0  0  0
   11.6099  -20.9351   23.5749 N   0  0  0  0  0  0  0  0  0  0  0  0
   10.6904  -21.0154   22.4841 C   0  0  0  0  0  0  0  0  0  0  0  0
   11.8642  -22.2107   24.2468 O   0  0  0  0  0  0  0  0  0  0  0  0
   11.0448  -23.1705   24.3181 O   0  0  0  0  0  0  0  0  0  0  0  0
  1  2  1  0
  2  3  2  0
  2  4  1  0
  4  5  1  0
  6  5  1  0
  6  7  1  0
  7  8  1  0
  8  9  1  6
 10  8  1  0
 10 15  1  0
 11 10  2  0
 12 13  1  0
 14 13  1  6
 14 15  1  0
 14 16  1  0
 16 17  2  0
 16 20  1  0
 19 18  1  6
 19 21  1  0
 20 19  1  0
 21 23  1  0
 22 21  2  0
M  END
$$$$
