RSA.pdb
     RDKit          3D

 23 22  0  0  1  0  0  0  0  0999 V2000
    8.5843  -11.9194   18.5733 N   0  0  0  0  0  0  0  0  0  0  0  0
    8.7045  -13.3428   18.5582 C   0  0  0  0  0  0  0  0  0  0  0  0
    9.1057  -13.9022   17.4910 N   0  0  0  0  0  0  0  0  0  0  0  0
    8.3796  -14.0746   19.7094 N   0  0  0  0  0  0  0  0  0  0  0  0
    7.9068  -13.4065   20.8991 C   0  0  0  0  0  0  0  0  0  0  0  0
    7.5938  -14.3954   21.9781 C   0  0  0  0  0  0  0  0  0  0  0  0
    6.4597  -15.2843   21.6777 C   0  0  0  0  0  0  0  0  0  0  0  0
    6.6957  -16.7222   22.0330 C   0  0  2  0  0  0  0  0  0  0  0  0
    5.6049  -17.5322   21.6538 N   0  0  0  0  0  0  0  0  0  0  0  0
    7.0066  -16.7582   23.4853 C   0  0  0  0  0  0  0  0  0  0  0  0
    6.1191  -16.3453   24.2778 O   0  0  0  0  0  0  0  0  0  0  0  0
    9.2462  -14.9103   17.3335 O   0  0  0  0  0  0  0  0  0  0  0  0
   10.4731  -18.5266   24.9352 C   0  0  0  0  0  0  0  0  0  0  0  0
    9.2881  -18.5789   25.6622 C   0  0  1  0  0  0  0  0  0  0  0  0
    8.4699  -17.3111   25.4674 N   0  0  0  0  0  0  0  0  0  0  0  0
    8.2135  -17.2165   24.0429 C   0  0  0  0  0  0  0  0  0  0  0  0
    9.1695  -16.1229   25.9706 O   0  0  0  0  0  0  0  0  0  0  0  0
   10.0293  -15.5848   25.1881 C   0  0  0  0  0  0  0  0  0  0  0  0
    9.1534  -13.3277   28.1243 C   0  0  2  0  0  0  0  0  0  0  0  0
    9.8611  -14.6507   27.8677 N   0  0  0  0  0  0  0  0  0  0  0  0
    8.9430  -15.5562   27.2522 C   0  0  0  0  0  0  0  0  0  0  0  0
   10.5401  -15.1873   29.0485 O   0  0  0  0  0  0  0  0  0  0  0  0
   10.2673  -16.2886   29.6058 O   0  0  0  0  0  0  0  0  0  0  0  0
  1  2  1  0
  2  3  2  0
  2  4  1  0
  4  5  1  0
  6  5  1  0
  6  7  1  0
  7  8  1  0
  8  9  1  1
 10  8  1  0
 10 15  1  0
 11 10  2  0
 12 13  1  0
 14 13  1  1
 14 15  1  0
 14 16  1  0
 16 17  2  0
 16 20  1  0
 19 18  1  6
 19 21  1  0
 20 19  1  0
 21 23  1  0
 22 21  2  0
M  END
$$$$
