RSA.pdb
     RDKit          3D

 23 22  0  0  1  0  0  0  0  0999 V2000
    9.1167  -12.3931   20.0038 N   0  0  0  0  0  0  0  0  0  0  0  0
    7.9701  -12.9086   19.3254 C   0  0  0  0  0  0  0  0  0  0  0  0
    7.7806  -12.5664   18.1171 N   0  0  0  0  0  0  0  0  0  0  0  0
    7.0954  -13.7686   20.0049 N   0  0  0  0  0  0  0  0  0  0  0  0
    7.5853  -14.6586   21.0311 C   0  0  0  0  0  0  0  0  0  0  0  0
    8.6652  -15.5465   20.4968 C   0  0  0  0  0  0  0  0  0  0  0  0
    9.1170  -16.5866   21.4353 C   0  0  0  0  0  0  0  0  0  0  0  0
   10.1198  -17.5408   20.8581 C   0  0  2  0  0  0  0  0  0  0  0  0
    9.6066  -18.2037   19.7236 N   0  0  0  0  0  0  0  0  0  0  0  0
   10.5308  -18.4477   21.9608 C   0  0  0  0  0  0  0  0  0  0  0  0
    9.6907  -19.3001   22.3529 O   0  0  0  0  0  0  0  0  0  0  0  0
    6.9936  -12.8385   17.5110 O   0  0  0  0  0  0  0  0  0  0  0  0
   14.1796  -18.0632   24.0174 C   0  0  0  0  0  0  0  0  0  0  0  0
   13.6894  -19.3243   23.6936 C   0  0  1  0  0  0  0  0  0  0  0  0
   12.1682  -19.3305   23.6681 N   0  0  0  0  0  0  0  0  0  0  0  0
   11.7832  -18.4279   22.5998 C   0  0  0  0  0  0  0  0  0  0  0  0
   11.5954  -18.9194   24.9556 O   0  0  0  0  0  0  0  0  0  0  0  0
   11.4132  -17.6636   25.1315 C   0  0  0  0  0  0  0  0  0  0  0  0
    9.7763  -20.4370   27.7912 C   0  0  2  0  0  0  0  0  0  0  0  0
   10.7486  -19.3941   27.2582 N   0  0  0  0  0  0  0  0  0  0  0  0
   11.2426  -19.8263   25.9890 C   0  0  0  0  0  0  0  0  0  0  0  0
   11.7898  -19.0231   28.2181 O   0  0  0  0  0  0  0  0  0  0  0  0
   13.0324  -19.1616   28.0320 O   0  0  0  0  0  0  0  0  0  0  0  0
  1  2  1  0
  2  3  2  0
  2  4  1  0
  4  5  1  0
  6  5  1  0
  6  7  1  0
  7  8  1  0
  8  9  1  6
 10  8  1  0
 10 15  1  0
 11 10  2  0
 12 13  1  0
 14 13  1  6
 14 15  1  0
 14 16  1  0
 16 17  2  0
 16 20  1  0
 19 18  1  6
 19 21  1  0
 20 19  1  0
 21 23  1  0
 22 21  2  0
M  END
$$$$
