RSA.pdb
     RDKit          3D

 23 22  0  0  1  0  0  0  0  0999 V2000
   12.7350  -14.4931   18.4748 N   0  0  0  0  0  0  0  0  0  0  0  0
   12.8957  -15.7119   17.7474 C   0  0  0  0  0  0  0  0  0  0  0  0
   14.0720  -16.0804   17.4416 N   0  0  0  0  0  0  0  0  0  0  0  0
   11.7627  -16.4593   17.3948 N   0  0  0  0  0  0  0  0  0  0  0  0
   10.5745  -16.4286   18.2148 C   0  0  0  0  0  0  0  0  0  0  0  0
   10.8750  -15.8679   19.5696 C   0  0  0  0  0  0  0  0  0  0  0  0
    9.7069  -15.7696   20.4598 C   0  0  0  0  0  0  0  0  0  0  0  0
    9.7256  -16.7360   21.6065 C   0  0  2  0  0  0  0  0  0  0  0  0
    8.7964  -17.7801   21.4155 N   0  0  0  0  0  0  0  0  0  0  0  0
    9.5033  -15.9394   22.8407 C   0  0  0  0  0  0  0  0  0  0  0  0
   10.2708  -14.9620   23.0449 O   0  0  0  0  0  0  0  0  0  0  0  0
   14.3396  -16.9076   16.8894 O   0  0  0  0  0  0  0  0  0  0  0  0
    6.7333  -17.0813   25.6381 C   0  0  0  0  0  0  0  0  0  0  0  0
    6.8391  -15.7115   25.4191 C   0  0  1  0  0  0  0  0  0  0  0  0
    8.2344  -15.3399   24.9396 N   0  0  0  0  0  0  0  0  0  0  0  0
    8.5040  -16.1920   23.7972 C   0  0  0  0  0  0  0  0  0  0  0  0
    9.2418  -15.5135   25.9930 O   0  0  0  0  0  0  0  0  0  0  0  0
   10.0218  -16.5240   25.8846 C   0  0  0  0  0  0  0  0  0  0  0  0
   10.3469  -13.6572   29.0723 C   0  0  2  0  0  0  0  0  0  0  0  0
   10.3370  -14.8626   28.1428 N   0  0  0  0  0  0  0  0  0  0  0  0
    9.3884  -14.6354   27.0986 C   0  0  0  0  0  0  0  0  0  0  0  0
   10.1718  -16.1376   28.8431 O   0  0  0  0  0  0  0  0  0  0  0  0
    9.0815  -16.7662   28.9605 O   0  0  0  0  0  0  0  0  0  0  0  0
  1  2  1  0
  2  3  2  0
  2  4  1  0
  4  5  1  0
  6  5  1  0
  6  7  1  0
  7  8  1  0
  8  9  1  6
 10  8  1  0
 10 15  1  0
 11 10  2  0
 12 13  1  0
 14 13  1  6
 14 15  1  0
 14 16  1  0
 16 17  2  0
 16 20  1  0
 19 18  1  6
 19 21  1  0
 20 19  1  0
 21 23  1  0
 22 21  2  0
M  END
$$$$
