RSA.pdb
     RDKit          3D

 23 22  0  0  1  0  0  0  0  0999 V2000
    9.4906  -15.1314   17.0020 N   0  0  0  0  0  0  0  0  0  0  0  0
    8.6138  -14.0615   16.6457 C   0  0  0  0  0  0  0  0  0  0  0  0
    7.9448  -14.1633   15.5709 N   0  0  0  0  0  0  0  0  0  0  0  0
    8.5172  -12.9408   17.4830 N   0  0  0  0  0  0  0  0  0  0  0  0
    8.5347  -13.0896   18.9193 C   0  0  0  0  0  0  0  0  0  0  0  0
    7.3345  -13.8488   19.3920 C   0  0  0  0  0  0  0  0  0  0  0  0
    7.2556  -14.0132   20.8526 C   0  0  0  0  0  0  0  0  0  0  0  0
    8.2187  -15.0185   21.4103 C   0  0  2  0  0  0  0  0  0  0  0  0
    8.1894  -16.2225   20.6759 N   0  0  0  0  0  0  0  0  0  0  0  0
    7.8882  -15.1740   22.8504 C   0  0  0  0  0  0  0  0  0  0  0  0
    7.5792  -14.1334   23.4890 O   0  0  0  0  0  0  0  0  0  0  0  0
    7.3441  -13.4444   15.1430 O   0  0  0  0  0  0  0  0  0  0  0  0
    6.1903  -18.4424   24.6334 C   0  0  0  0  0  0  0  0  0  0  0  0
    7.3738  -18.0027   25.2176 C   0  0  2  0  0  0  0  0  0  0  0  0
    7.5893  -16.5175   24.9671 N   0  0  0  0  0  0  0  0  0  0  0  0
    7.8940  -16.3910   23.5547 C   0  0  0  0  0  0  0  0  0  0  0  0
    8.6644  -15.9697   25.8031 O   0  0  0  0  0  0  0  0  0  0  0  0
    9.8655  -16.2403   25.4490 C   0  0  0  0  0  0  0  0  0  0  0  0
    9.0515  -13.3473   28.3929 C   0  0  2  0  0  0  0  0  0  0  0  0
    9.5070  -14.6501   27.7507 N   0  0  0  0  0  0  0  0  0  0  0  0
    8.4405  -15.1735   26.9567 C   0  0  0  0  0  0  0  0  0  0  0  0
   10.0745  -15.6037   28.7055 O   0  0  0  0  0  0  0  0  0  0  0  0
    9.5545  -16.7112   29.0227 O   0  0  0  0  0  0  0  0  0  0  0  0
  1  2  1  0
  2  3  2  0
  2  4  1  0
  4  5  1  0
  6  5  1  0
  6  7  1  0
  7  8  1  0
  8  9  1  6
 10  8  1  0
 10 15  1  0
 11 10  2  0
 12 13  1  0
 14 13  1  6
 14 15  1  0
 14 16  1  0
 16 17  2  0
 16 20  1  0
 19 18  1  6
 19 21  1  0
 20 19  1  0
 21 23  1  0
 22 21  2  0
M  END
$$$$
