RSA.pdb
     RDKit          3D

 23 22  0  0  1  0  0  0  0  0999 V2000
    8.0033  -12.5704   15.8374 N   0  0  0  0  0  0  0  0  0  0  0  0
    8.0682  -13.9881   16.0000 C   0  0  0  0  0  0  0  0  0  0  0  0
    8.9823  -14.6234   15.3884 N   0  0  0  0  0  0  0  0  0  0  0  0
    7.1313  -14.6319   16.8209 N   0  0  0  0  0  0  0  0  0  0  0  0
    7.0457  -14.3192   18.2281 C   0  0  0  0  0  0  0  0  0  0  0  0
    8.3838  -14.4486   18.8861 C   0  0  0  0  0  0  0  0  0  0  0  0
    8.3723  -14.2122   20.3389 C   0  0  0  0  0  0  0  0  0  0  0  0
    9.1230  -15.2387   21.1340 C   0  0  2  0  0  0  0  0  0  0  0  0
    8.8971  -16.5401   20.6389 N   0  0  0  0  0  0  0  0  0  0  0  0
    8.7310  -15.0497   22.5545 C   0  0  0  0  0  0  0  0  0  0  0  0
    8.8565  -13.8948   23.0409 O   0  0  0  0  0  0  0  0  0  0  0  0
    9.1882  -15.6304   15.4531 O   0  0  0  0  0  0  0  0  0  0  0  0
    7.8206  -18.2036   25.1706 C   0  0  0  0  0  0  0  0  0  0  0  0
    6.9985  -17.0815   25.1480 C   0  0  1  0  0  0  0  0  0  0  0  0
    7.7815  -15.8368   24.7577 N   0  0  0  0  0  0  0  0  0  0  0  0
    8.2318  -16.0589   23.3969 C   0  0  0  0  0  0  0  0  0  0  0  0
    8.9078  -15.5890   25.6659 O   0  0  0  0  0  0  0  0  0  0  0  0
   10.0380  -16.0933   25.3346 C   0  0  0  0  0  0  0  0  0  0  0  0
    9.7693  -13.3080   28.4486 C   0  0  2  0  0  0  0  0  0  0  0  0
    9.9046  -14.6589   27.7601 N   0  0  0  0  0  0  0  0  0  0  0  0
    8.8055  -14.8350   26.8641 C   0  0  0  0  0  0  0  0  0  0  0  0
   10.1099  -15.7698   28.6912 O   0  0  0  0  0  0  0  0  0  0  0  0
    9.3058  -16.7292   28.8663 O   0  0  0  0  0  0  0  0  0  0  0  0
  1  2  1  0
  2  3  2  0
  2  4  1  0
  4  5  1  0
  6  5  1  0
  6  7  1  0
  7  8  1  0
  8  9  1  6
 10  8  1  0
 10 15  1  0
 11 10  2  0
 12 13  1  0
 14 13  1  6
 14 15  1  0
 14 16  1  0
 16 17  2  0
 16 20  1  0
 19 18  1  6
 19 21  1  0
 20 19  1  0
 21 23  1  0
 22 21  2  0
M  END
$$$$
