RSA.pdb
     RDKit          3D

 23 22  0  0  1  0  0  0  0  0999 V2000
    7.9520  -12.8265   16.8797 N   0  0  0  0  0  0  0  0  0  0  0  0
    8.2245  -14.2157   17.0701 C   0  0  0  0  0  0  0  0  0  0  0  0
    8.0100  -15.0099   16.1025 N   0  0  0  0  0  0  0  0  0  0  0  0
    8.7156  -14.6591   18.3065 N   0  0  0  0  0  0  0  0  0  0  0  0
    8.8831  -13.7387   19.4065 C   0  0  0  0  0  0  0  0  0  0  0  0
    7.5695  -13.4433   20.0603 C   0  0  0  0  0  0  0  0  0  0  0  0
    7.4114  -14.0315   21.4003 C   0  0  0  0  0  0  0  0  0  0  0  0
    7.7026  -15.5013   21.4641 C   0  0  2  0  0  0  0  0  0  0  0  0
    6.7029  -16.2533   20.8122 N   0  0  0  0  0  0  0  0  0  0  0  0
    7.8823  -15.8397   22.8995 C   0  0  0  0  0  0  0  0  0  0  0  0
    6.8525  -15.8527   23.6245 O   0  0  0  0  0  0  0  0  0  0  0  0
    8.2415  -16.0125   16.0593 O   0  0  0  0  0  0  0  0  0  0  0  0
   11.4039  -17.5143   24.2537 C   0  0  0  0  0  0  0  0  0  0  0  0
   10.1596  -17.8641   24.7681 C   0  0  1  0  0  0  0  0  0  0  0  0
    9.2459  -16.6514   24.8634 N   0  0  0  0  0  0  0  0  0  0  0  0
    9.1112  -16.1458   23.5106 C   0  0  0  0  0  0  0  0  0  0  0  0
    9.7816  -15.6298   25.7712 O   0  0  0  0  0  0  0  0  0  0  0  0
   10.6914  -14.8600   25.3012 C   0  0  0  0  0  0  0  0  0  0  0  0
    9.1180  -13.4855   28.4621 C   0  0  2  0  0  0  0  0  0  0  0  0
   10.0383  -14.6237   28.0442 N   0  0  0  0  0  0  0  0  0  0  0  0
    9.3490  -15.4593   27.1123 C   0  0  0  0  0  0  0  0  0  0  0  0
   10.6310  -15.3396   29.1753 O   0  0  0  0  0  0  0  0  0  0  0  0
   10.4672  -16.5681   29.4241 O   0  0  0  0  0  0  0  0  0  0  0  0
  1  2  1  0
  2  3  2  0
  2  4  1  0
  4  5  1  0
  6  5  1  0
  6  7  1  0
  7  8  1  0
  8  9  1  1
 10  8  1  0
 10 15  1  0
 11 10  2  0
 12 13  1  0
 14 13  1  6
 14 15  1  0
 14 16  1  0
 16 17  2  0
 16 20  1  0
 19 18  1  6
 19 21  1  0
 20 19  1  0
 21 23  1  0
 22 21  2  0
M  END
$$$$
