RSA.pdb
     RDKit          3D

 23 22  0  0  1  0  0  0  0  0999 V2000
   12.0414  -20.5011   19.5373 N   0  0  0  0  0  0  0  0  0  0  0  0
   12.7879  -20.7276   18.3406 C   0  0  0  0  0  0  0  0  0  0  0  0
   13.9993  -21.0941   18.4465 N   0  0  0  0  0  0  0  0  0  0  0  0
   12.1694  -20.5407   17.0960 N   0  0  0  0  0  0  0  0  0  0  0  0
   10.7970  -20.0991   17.0134 C   0  0  0  0  0  0  0  0  0  0  0  0
   10.7006  -18.6174   17.2019 C   0  0  0  0  0  0  0  0  0  0  0  0
    9.3440  -18.0706   17.0374 C   0  0  0  0  0  0  0  0  0  0  0  0
    9.2996  -16.5827   16.8541 C   0  0  2  0  0  0  0  0  0  0  0  0
   10.1354  -16.1690   15.7958 N   0  0  0  0  0  0  0  0  0  0  0  0
    9.6367  -15.9797   18.1694 C   0  0  0  0  0  0  0  0  0  0  0  0
   10.8551  -15.7853   18.4220 O   0  0  0  0  0  0  0  0  0  0  0  0
   14.6425  -21.3405   17.6808 O   0  0  0  0  0  0  0  0  0  0  0  0
    6.7391  -15.1928   21.0778 C   0  0  0  0  0  0  0  0  0  0  0  0
    7.8209  -14.3282   20.9456 C   0  0  1  0  0  0  0  0  0  0  0  0
    9.0553  -15.0674   20.4508 N   0  0  0  0  0  0  0  0  0  0  0  0
    8.7021  -15.6101   19.1529 C   0  0  0  0  0  0  0  0  0  0  0  0
    9.4740  -16.1222   21.3818 O   0  0  0  0  0  0  0  0  0  0  0  0
    9.0266  -17.3014   21.1568 C   0  0  0  0  0  0  0  0  0  0  0  0
   12.1171  -16.6930   23.8897 C   0  0  2  0  0  0  0  0  0  0  0  0
   10.6971  -16.9417   23.4010 N   0  0  0  0  0  0  0  0  0  0  0  0
   10.3305  -15.9019   22.4920 C   0  0  0  0  0  0  0  0  0  0  0  0
    9.7380  -17.1638   24.4845 O   0  0  0  0  0  0  0  0  0  0  0  0
    8.7700  -16.4011   24.7659 O   0  0  0  0  0  0  0  0  0  0  0  0
  1  2  1  0
  2  3  2  0
  2  4  1  0
  4  5  1  0
  6  5  1  0
  6  7  1  0
  7  8  1  0
  8  9  1  6
 10  8  1  0
 10 15  1  0
 11 10  2  0
 12 13  1  0
 14 13  1  6
 14 15  1  0
 14 16  1  0
 16 17  2  0
 16 20  1  0
 19 18  1  6
 19 21  1  0
 20 19  1  0
 21 23  1  0
 22 21  2  0
M  END
$$$$
