RSA.pdb
     RDKit          3D

 23 22  0  0  1  0  0  0  0  0999 V2000
    8.4955  -11.4904   20.1648 N   0  0  0  0  0  0  0  0  0  0  0  0
    8.3177  -12.8585   19.7944 C   0  0  0  0  0  0  0  0  0  0  0  0
    8.9564  -13.2982   18.7885 N   0  0  0  0  0  0  0  0  0  0  0  0
    7.4523  -13.6689   20.5432 N   0  0  0  0  0  0  0  0  0  0  0  0
    7.9288  -14.8851   21.1589 C   0  0  0  0  0  0  0  0  0  0  0  0
    6.9663  -16.0093   20.9355 C   0  0  0  0  0  0  0  0  0  0  0  0
    7.4052  -17.3032   21.4830 C   0  0  0  0  0  0  0  0  0  0  0  0
    8.1053  -18.1840   20.4912 C   0  0  2  0  0  0  0  0  0  0  0  0
    7.1866  -18.8315   19.6387 N   0  0  0  0  0  0  0  0  0  0  0  0
    8.9674  -19.1073   21.2733 C   0  0  0  0  0  0  0  0  0  0  0  0
    8.4061  -19.8298   22.1388 O   0  0  0  0  0  0  0  0  0  0  0  0
    8.9490  -14.2601   18.4205 O   0  0  0  0  0  0  0  0  0  0  0  0
   13.1223  -19.0583   20.9994 C   0  0  0  0  0  0  0  0  0  0  0  0
   12.4859  -20.2906   21.1080 C   0  0  1  0  0  0  0  0  0  0  0  0
   11.1788  -20.1660   21.8765 N   0  0  0  0  0  0  0  0  0  0  0  0
   10.3594  -19.2365   21.1224 C   0  0  0  0  0  0  0  0  0  0  0  0
   11.3928  -19.7036   23.2532 O   0  0  0  0  0  0  0  0  0  0  0  0
   11.4993  -18.4389   23.4272 C   0  0  0  0  0  0  0  0  0  0  0  0
   10.9905  -20.9497   26.6931 C   0  0  2  0  0  0  0  0  0  0  0  0
   11.7610  -20.0994   25.6929 N   0  0  0  0  0  0  0  0  0  0  0  0
   11.4846  -20.5712   24.3728 C   0  0  0  0  0  0  0  0  0  0  0  0
   13.1860  -19.9786   26.0060 O   0  0  0  0  0  0  0  0  0  0  0  0
   13.6564  -19.5203   27.0861 O   0  0  0  0  0  0  0  0  0  0  0  0
  1  2  1  0
  2  3  2  0
  2  4  1  0
  4  5  1  0
  6  5  1  0
  6  7  1  0
  7  8  1  0
  8  9  1  1
 10  8  1  0
 10 15  1  0
 11 10  2  0
 12 13  1  0
 14 13  1  6
 14 15  1  0
 14 16  1  0
 16 17  2  0
 16 20  1  0
 19 18  1  6
 19 21  1  0
 20 19  1  0
 21 23  1  0
 22 21  2  0
M  END
$$$$
