RSA.pdb
     RDKit          3D

 23 22  0  0  1  0  0  0  0  0999 V2000
   -2.9396  -26.1974   28.0508 N   0  0  0  0  0  0  0  0  0  0  0  0
   -3.4147  -27.5391   27.9291 C   0  0  0  0  0  0  0  0  0  0  0  0
   -4.0152  -28.0578   28.9207 N   0  0  0  0  0  0  0  0  0  0  0  0
   -3.2070  -28.2384   26.7316 N   0  0  0  0  0  0  0  0  0  0  0  0
   -2.5406  -27.6088   25.6159 C   0  0  0  0  0  0  0  0  0  0  0  0
   -3.5341  -27.0222   24.6625 C   0  0  0  0  0  0  0  0  0  0  0  0
   -2.9399  -26.4322   23.4519 C   0  0  0  0  0  0  0  0  0  0  0  0
   -3.9322  -25.7788   22.5366 C   0  0  2  0  0  0  0  0  0  0  0  0
   -5.2567  -26.1064   22.8947 N   0  0  0  0  0  0  0  0  0  0  0  0
   -3.5596  -26.1703   21.1528 C   0  0  0  0  0  0  0  0  0  0  0  0
   -3.9804  -27.2803   20.7320 O   0  0  0  0  0  0  0  0  0  0  0  0
   -4.3459  -29.0293   29.0074 O   0  0  0  0  0  0  0  0  0  0  0  0
   -1.6919  -23.5290   18.7225 C   0  0  0  0  0  0  0  0  0  0  0  0
   -2.3866  -24.5568   18.0928 C   0  0  1  0  0  0  0  0  0  0  0  0
   -2.3885  -25.8180   18.9438 N   0  0  0  0  0  0  0  0  0  0  0  0
   -2.7744  -25.3989   20.2777 C   0  0  0  0  0  0  0  0  0  0  0  0
   -1.0798  -26.4828   18.9437 O   0  0  0  0  0  0  0  0  0  0  0  0
   -0.2438  -26.1115   19.8406 C   0  0  0  0  0  0  0  0  0  0  0  0
    0.5204  -29.3504   17.1159 C   0  0  2  0  0  0  0  0  0  0  0  0
    0.5408  -28.1855   18.0955 N   0  0  0  0  0  0  0  0  0  0  0  0
   -0.7069  -27.4932   18.0191 C   0  0  0  0  0  0  0  0  0  0  0  0
    1.7183  -27.3269   17.9561 O   0  0  0  0  0  0  0  0  0  0  0  0
    1.7344  -26.2040   17.3760 O   0  0  0  0  0  0  0  0  0  0  0  0
  1  2  1  0
  2  3  2  0
  2  4  1  0
  4  5  1  0
  6  5  1  0
  6  7  1  0
  7  8  1  0
  8  9  1  1
 10  8  1  0
 10 15  1  0
 11 10  2  0
 12 13  1  0
 14 13  1  6
 14 15  1  0
 14 16  1  0
 16 17  2  0
 16 20  1  0
 19 18  1  1
 19 21  1  0
 20 19  1  0
 21 23  1  0
 22 21  2  0
M  END
$$$$
