EII.pdb
     RDKit          3D

 26 25  0  0  1  0  0  0  0  0999 V2000
   23.3979  -22.0651  -13.7339 N   0  0  0  0  0  0  0  0  0  0  0  0
   23.5107  -21.0662  -12.7337 C   0  0  1  0  0  0  0  0  0  0  0  0
   22.2608  -20.9100  -11.9444 C   0  0  0  0  0  0  0  0  0  0  0  0
   21.1154  -20.3321  -12.6789 C   0  0  0  0  0  0  0  0  0  0  0  0
   21.2932  -19.0426  -13.3316 C   0  0  0  0  0  0  0  0  0  0  0  0
   21.7234  -18.9084  -14.4782 O   0  0  0  0  0  0  0  0  0  0  0  0
   24.6951  -21.3257  -11.8718 C   0  0  0  0  0  0  0  0  0  0  0  0
   24.8611  -22.5110  -11.3781 O   0  0  0  0  0  0  0  0  0  0  0  0
   20.9713  -17.8398  -12.6615 O   0  0  0  0  0  0  0  0  0  0  0  0
   28.5712  -22.0938  -13.1113 C   0  0  0  0  0  0  0  0  0  0  0  0
   28.2165  -20.6474  -12.9557 C   0  0  0  0  0  0  0  0  0  0  0  0
   28.0287  -20.1891  -11.5680 C   0  0  2  0  0  0  0  0  0  0  0  0
   29.3144  -20.4612  -10.8034 C   0  0  0  0  0  0  0  0  0  0  0  0
   26.9062  -20.7982  -10.7808 C   0  0  2  0  0  0  0  0  0  0  0  0
   25.6809  -20.3944  -11.5248 N   0  0  0  0  0  0  0  0  0  0  0  0
   26.8277  -20.1754   -9.4504 C   0  0  0  0  0  0  0  0  0  0  0  0
   26.3174  -19.0003   -9.3489 O   0  0  0  0  0  0  0  0  0  0  0  0
   25.3519  -22.4954   -4.6836 C   0  0  0  0  0  0  0  0  0  0  0  0
   25.6162  -21.5628   -5.8162 C   0  0  0  0  0  0  0  0  0  0  0  0
   26.9332  -20.8807   -5.8093 C   0  0  2  0  0  0  0  0  0  0  0  0
   27.1782  -20.0804   -4.5479 C   0  0  0  0  0  0  0  0  0  0  0  0
   27.2313  -20.0048   -6.9888 C   0  0  2  0  0  0  0  0  0  0  0  0
   27.2596  -20.7382   -8.2382 N   0  0  0  0  0  0  0  0  0  0  0  0
   28.4484  -19.1883   -6.7963 C   0  0  0  0  0  0  0  0  0  0  0  0
   29.5759  -19.6117   -7.1267 O   0  0  0  0  0  0  0  0  0  0  0  0
   28.3498  -17.9307   -6.2401 O   0  0  0  0  0  0  0  0  0  0  0  0
  2  1  1  6
  2  3  1  0
  4  3  1  0
  4  5  1  0
  5  9  1  0
  6  5  2  0
  7  2  1  0
  8  7  2  0
 10 11  1  0
 11 12  1  0
 12 14  1  0
 12 13  1  1
 14 15  1  6
 15  7  1  0
 16 17  2  0
 16 14  1  0
 18 19  1  0
 19 20  1  0
 20 22  1  0
 20 21  1  1
 22 23  1  6
 23 16  1  0
 24 22  1  0
 25 24  2  0
 26 24  1  0
M  END
$$$$
