EII.pdb
     RDKit          3D

 26 25  0  0  1  0  0  0  0  0999 V2000
   27.0833  -20.1256  -17.7922 N   0  0  0  0  0  0  0  0  0  0  0  0
   26.0849  -19.4650  -17.0320 C   0  0  1  0  0  0  0  0  0  0  0  0
   24.9262  -19.0431  -17.8620 C   0  0  0  0  0  0  0  0  0  0  0  0
   24.7106  -17.5834  -17.9541 C   0  0  0  0  0  0  0  0  0  0  0  0
   25.6830  -16.7867  -18.6890 C   0  0  0  0  0  0  0  0  0  0  0  0
   25.6529  -16.6236  -19.9098 O   0  0  0  0  0  0  0  0  0  0  0  0
   25.6751  -20.3030  -15.8732 C   0  0  0  0  0  0  0  0  0  0  0  0
   25.2360  -21.5010  -16.0926 O   0  0  0  0  0  0  0  0  0  0  0  0
   26.7456  -16.1388  -18.0179 O   0  0  0  0  0  0  0  0  0  0  0  0
   28.7940  -19.9869  -11.9894 C   0  0  0  0  0  0  0  0  0  0  0  0
   27.7965  -20.8849  -12.6533 C   0  0  0  0  0  0  0  0  0  0  0  0
   26.3837  -20.5812  -12.3654 C   0  0  2  0  0  0  0  0  0  0  0  0
   25.9741  -21.3687  -11.1309 C   0  0  0  0  0  0  0  0  0  0  0  0
   25.3765  -20.8788  -13.4367 C   0  0  2  0  0  0  0  0  0  0  0  0
   25.7133  -19.9217  -14.5268 N   0  0  0  0  0  0  0  0  0  0  0  0
   24.0249  -20.5381  -12.9663 C   0  0  0  0  0  0  0  0  0  0  0  0
   23.8066  -19.3510  -12.5250 O   0  0  0  0  0  0  0  0  0  0  0  0
   18.7087  -19.4316  -14.7502 C   0  0  0  0  0  0  0  0  0  0  0  0
   19.4672  -19.8928  -13.5525 C   0  0  0  0  0  0  0  0  0  0  0  0
   20.7769  -20.5374  -13.8149 C   0  0  2  0  0  0  0  0  0  0  0  0
   20.6704  -21.7467  -14.7192 C   0  0  0  0  0  0  0  0  0  0  0  0
   21.5801  -20.9201  -12.6083 C   0  0  2  0  0  0  0  0  0  0  0  0
   22.9085  -21.3902  -12.9457 N   0  0  0  0  0  0  0  0  0  0  0  0
   20.8636  -21.8655  -11.7262 C   0  0  0  0  0  0  0  0  0  0  0  0
   21.1164  -23.0884  -11.7398 O   0  0  0  0  0  0  0  0  0  0  0  0
   19.8925  -21.3993  -10.8659 O   0  0  0  0  0  0  0  0  0  0  0  0
  2  1  1  6
  2  3  1  0
  4  3  1  0
  4  5  1  0
  5  9  1  0
  6  5  2  0
  7  2  1  0
  8  7  2  0
 10 11  1  0
 11 12  1  0
 12 14  1  0
 12 13  1  1
 14 15  1  6
 15  7  1  0
 16 17  2  0
 16 14  1  0
 18 19  1  0
 19 20  1  0
 20 22  1  0
 20 21  1  1
 22 23  1  6
 23 16  1  0
 24 22  1  0
 25 24  2  0
 26 24  1  0
M  END
$$$$
