EII.pdb
     RDKit          3D

 26 25  0  0  1  0  0  0  0  0999 V2000
   28.2783  -22.3443  -16.6234 N   0  0  0  0  0  0  0  0  0  0  0  0
   27.5945  -21.2138  -16.1082 C   0  0  1  0  0  0  0  0  0  0  0  0
   26.9097  -20.4321  -17.1710 C   0  0  0  0  0  0  0  0  0  0  0  0
   27.8020  -19.7817  -18.1540 C   0  0  0  0  0  0  0  0  0  0  0  0
   28.2969  -18.4445  -17.8585 C   0  0  0  0  0  0  0  0  0  0  0  0
   27.7882  -17.6943  -17.0241 O   0  0  0  0  0  0  0  0  0  0  0  0
   26.6669  -21.6200  -15.0184 C   0  0  0  0  0  0  0  0  0  0  0  0
   25.9202  -22.6636  -15.1898 O   0  0  0  0  0  0  0  0  0  0  0  0
   29.4226  -17.9215  -18.5358 O   0  0  0  0  0  0  0  0  0  0  0  0
   25.9476  -20.7146   -8.9718 C   0  0  0  0  0  0  0  0  0  0  0  0
   25.3583  -21.2647  -10.2336 C   0  0  0  0  0  0  0  0  0  0  0  0
   26.1173  -20.9761  -11.4631 C   0  0  2  0  0  0  0  0  0  0  0  0
   26.2638  -19.4676  -11.5839 C   0  0  0  0  0  0  0  0  0  0  0  0
   25.5528  -21.4731  -12.7613 C   0  0  2  0  0  0  0  0  0  0  0  0
   26.5087  -20.9722  -13.7875 N   0  0  0  0  0  0  0  0  0  0  0  0
   24.2577  -20.8283  -13.0273 C   0  0  0  0  0  0  0  0  0  0  0  0
   24.2434  -19.5864  -13.3577 O   0  0  0  0  0  0  0  0  0  0  0  0
   19.6378  -21.1043  -16.6222 C   0  0  0  0  0  0  0  0  0  0  0  0
   20.0651  -20.6612  -15.2644 C   0  0  0  0  0  0  0  0  0  0  0  0
   21.2845  -21.3054  -14.7188 C   0  0  2  0  0  0  0  0  0  0  0  0
   21.1563  -22.8090  -14.5997 C   0  0  0  0  0  0  0  0  0  0  0  0
   21.7879  -20.7701  -13.4121 C   0  0  2  0  0  0  0  0  0  0  0  0
   22.9931  -21.4360  -12.9610 N   0  0  0  0  0  0  0  0  0  0  0  0
   20.7420  -20.7467  -12.3677 C   0  0  0  0  0  0  0  0  0  0  0  0
   19.7615  -19.9771  -12.4448 O   0  0  0  0  0  0  0  0  0  0  0  0
   20.8403  -21.5875  -11.2796 O   0  0  0  0  0  0  0  0  0  0  0  0
  2  1  1  6
  2  3  1  0
  4  3  1  0
  4  5  1  0
  5  9  1  0
  6  5  2  0
  7  2  1  0
  8  7  2  0
 10 11  1  0
 11 12  1  0
 12 14  1  0
 12 13  1  6
 14 15  1  6
 15  7  1  0
 16 17  2  0
 16 14  1  0
 18 19  1  0
 19 20  1  0
 20 22  1  0
 20 21  1  1
 22 23  1  1
 23 16  1  0
 24 22  1  0
 25 24  2  0
 26 24  1  0
M  END
$$$$
