EII.pdb
     RDKit          3D

 26 25  0  0  1  0  0  0  0  0999 V2000
   26.0591  -19.0872  -17.0991 N   0  0  0  0  0  0  0  0  0  0  0  0
   26.5303  -19.8844  -16.0251 C   0  0  1  0  0  0  0  0  0  0  0  0
   27.9960  -19.7490  -15.8185 C   0  0  0  0  0  0  0  0  0  0  0  0
   28.8429  -20.4447  -16.8106 C   0  0  0  0  0  0  0  0  0  0  0  0
   28.7150  -21.8898  -16.9355 C   0  0  0  0  0  0  0  0  0  0  0  0
   28.7962  -22.6696  -15.9851 O   0  0  0  0  0  0  0  0  0  0  0  0
   25.7559  -19.5985  -14.7875 C   0  0  0  0  0  0  0  0  0  0  0  0
   25.4165  -18.3757  -14.5311 O   0  0  0  0  0  0  0  0  0  0  0  0
   28.4839  -22.4916  -18.1939 O   0  0  0  0  0  0  0  0  0  0  0  0
   21.0434  -21.1071  -14.2372 C   0  0  0  0  0  0  0  0  0  0  0  0
   22.3435  -20.3873  -14.0536 C   0  0  0  0  0  0  0  0  0  0  0  0
   23.1861  -20.8775  -12.9487 C   0  0  2  0  0  0  0  0  0  0  0  0
   22.3689  -20.8138  -11.6682 C   0  0  0  0  0  0  0  0  0  0  0  0
   24.4774  -20.1596  -12.6880 C   0  0  2  0  0  0  0  0  0  0  0  0
   25.3428  -20.5409  -13.8384 N   0  0  0  0  0  0  0  0  0  0  0  0
   25.1143  -20.6930  -11.4739 C   0  0  0  0  0  0  0  0  0  0  0  0
   25.3917  -21.9468  -11.4232 O   0  0  0  0  0  0  0  0  0  0  0  0
   28.4760  -19.4217   -6.3965 C   0  0  0  0  0  0  0  0  0  0  0  0
   27.5669  -20.3121   -7.1733 C   0  0  0  0  0  0  0  0  0  0  0  0
   26.9286  -19.7125   -8.3703 C   0  0  2  0  0  0  0  0  0  0  0  0
   26.2162  -18.4107   -8.0714 C   0  0  0  0  0  0  0  0  0  0  0  0
   25.9911  -20.5984   -9.1344 C   0  0  2  0  0  0  0  0  0  0  0  0
   25.4672  -19.9634  -10.3268 N   0  0  0  0  0  0  0  0  0  0  0  0
   24.9176  -21.1558   -8.2845 C   0  0  0  0  0  0  0  0  0  0  0  0
   23.8375  -20.5511   -8.1191 O   0  0  0  0  0  0  0  0  0  0  0  0
   25.1013  -22.3684   -7.6549 O   0  0  0  0  0  0  0  0  0  0  0  0
  2  1  1  6
  2  3  1  0
  4  3  1  0
  4  5  1  0
  5  9  1  0
  6  5  2  0
  7  2  1  0
  8  7  2  0
 10 11  1  0
 11 12  1  0
 12 14  1  0
 12 13  1  1
 14 15  1  6
 15  7  1  0
 16 17  2  0
 16 14  1  0
 18 19  1  0
 19 20  1  0
 20 22  1  0
 20 21  1  1
 22 23  1  6
 23 16  1  0
 24 22  1  0
 25 24  2  0
 26 24  1  0
M  END
$$$$
