EII.pdb
     RDKit          3D

 26 25  0  0  1  0  0  0  0  0999 V2000
   16.1987  -14.7098  -17.5674 N   0  0  0  0  0  0  0  0  0  0  0  0
   16.5149  -14.0234  -16.3675 C   0  0  1  0  0  0  0  0  0  0  0  0
   17.5073  -14.7568  -15.5389 C   0  0  0  0  0  0  0  0  0  0  0  0
   17.0708  -16.0831  -15.0531 C   0  0  0  0  0  0  0  0  0  0  0  0
   17.9207  -17.2331  -15.3277 C   0  0  0  0  0  0  0  0  0  0  0  0
   18.9431  -17.1816  -16.0134 O   0  0  0  0  0  0  0  0  0  0  0  0
   16.9448  -12.6304  -16.6640 C   0  0  0  0  0  0  0  0  0  0  0  0
   17.4681  -12.3704  -17.8193 O   0  0  0  0  0  0  0  0  0  0  0  0
   17.6064  -18.5088  -14.8050 O   0  0  0  0  0  0  0  0  0  0  0  0
   13.8486   -8.4683  -16.5078 C   0  0  0  0  0  0  0  0  0  0  0  0
   15.0422   -9.2868  -16.8918 C   0  0  0  0  0  0  0  0  0  0  0  0
   16.1482   -9.2856  -15.9182 C   0  0  2  0  0  0  0  0  0  0  0  0
   16.6823   -7.8659  -15.8128 C   0  0  0  0  0  0  0  0  0  0  0  0
   17.3193  -10.1814  -16.1955 C   0  0  2  0  0  0  0  0  0  0  0  0
   16.8423  -11.5351  -15.7983 N   0  0  0  0  0  0  0  0  0  0  0  0
   18.4378   -9.8394  -15.3033 C   0  0  0  0  0  0  0  0  0  0  0  0
   18.2628   -9.9284  -14.0333 O   0  0  0  0  0  0  0  0  0  0  0  0
   24.2182  -10.8372  -14.1174 C   0  0  0  0  0  0  0  0  0  0  0  0
   23.0911   -9.8693  -13.9931 C   0  0  0  0  0  0  0  0  0  0  0  0
   21.9746  -10.0373  -14.9548 C   0  0  2  0  0  0  0  0  0  0  0  0
   22.4109   -9.8994  -16.3978 C   0  0  0  0  0  0  0  0  0  0  0  0
   20.7772   -9.1615  -14.7385 C   0  0  2  0  0  0  0  0  0  0  0  0
   19.7181   -9.4146  -15.6945 N   0  0  0  0  0  0  0  0  0  0  0  0
   21.1286   -7.7275  -14.6654 C   0  0  0  0  0  0  0  0  0  0  0  0
   21.7419   -7.2563  -13.6848 O   0  0  0  0  0  0  0  0  0  0  0  0
   20.7766   -6.8817  -15.6955 O   0  0  0  0  0  0  0  0  0  0  0  0
  2  1  1  6
  2  3  1  0
  4  3  1  0
  4  5  1  0
  5  9  1  0
  6  5  2  0
  7  2  1  0
  8  7  2  0
 10 11  1  0
 11 12  1  0
 12 14  1  0
 12 13  1  6
 14 15  1  1
 15  7  1  0
 16 17  2  0
 16 14  1  0
 18 19  1  0
 19 20  1  0
 20 22  1  0
 20 21  1  6
 22 23  1  6
 23 16  1  0
 24 22  1  0
 25 24  2  0
 26 24  1  0
M  END
$$$$
