EII.pdb
     RDKit          3D

 26 25  0  0  1  0  0  0  0  0999 V2000
   23.2289  -21.3777  -14.8241 N   0  0  0  0  0  0  0  0  0  0  0  0
   23.3860  -20.5186  -13.7068 C   0  0  1  0  0  0  0  0  0  0  0  0
   22.0837  -20.1046  -13.1220 C   0  0  0  0  0  0  0  0  0  0  0  0
   21.4109  -18.9796  -13.8056 C   0  0  0  0  0  0  0  0  0  0  0  0
   21.0563  -19.1370  -15.2090 C   0  0  0  0  0  0  0  0  0  0  0  0
   20.2493  -19.9711  -15.6227 O   0  0  0  0  0  0  0  0  0  0  0  0
   24.2875  -21.1378  -12.6983 C   0  0  0  0  0  0  0  0  0  0  0  0
   23.9931  -22.3093  -12.2325 O   0  0  0  0  0  0  0  0  0  0  0  0
   21.6384  -18.3146  -16.2010 O   0  0  0  0  0  0  0  0  0  0  0  0
   30.1389  -21.8049  -11.8068 C   0  0  0  0  0  0  0  0  0  0  0  0
   28.7930  -21.9431  -11.1653 C   0  0  0  0  0  0  0  0  0  0  0  0
   27.6867  -21.2693  -11.8674 C   0  0  2  0  0  0  0  0  0  0  0  0
   28.0577  -19.8044  -12.0358 C   0  0  0  0  0  0  0  0  0  0  0  0
   26.3294  -21.3134  -11.2297 C   0  0  2  0  0  0  0  0  0  0  0  0
   25.4577  -20.5698  -12.1810 N   0  0  0  0  0  0  0  0  0  0  0  0
   26.3396  -20.5535   -9.9701 C   0  0  0  0  0  0  0  0  0  0  0  0
   26.1213  -19.2878  -10.0117 O   0  0  0  0  0  0  0  0  0  0  0  0
   23.8137  -21.9178   -5.3688 C   0  0  0  0  0  0  0  0  0  0  0  0
   24.4656  -21.1982   -6.5000 C   0  0  0  0  0  0  0  0  0  0  0  0
   25.9028  -20.8745   -6.3289 C   0  0  2  0  0  0  0  0  0  0  0  0
   26.1774  -20.0321   -5.1016 C   0  0  0  0  0  0  0  0  0  0  0  0
   26.5813  -20.2337   -7.5022 C   0  0  2  0  0  0  0  0  0  0  0  0
   26.5661  -21.0715   -8.6843 N   0  0  0  0  0  0  0  0  0  0  0  0
   27.9416  -19.7540   -7.1787 C   0  0  0  0  0  0  0  0  0  0  0  0
   28.1375  -18.6058   -6.7281 O   0  0  0  0  0  0  0  0  0  0  0  0
   29.0258  -20.5825   -7.3750 O   0  0  0  0  0  0  0  0  0  0  0  0
  2  1  1  6
  2  3  1  0
  4  3  1  0
  4  5  1  0
  5  9  1  0
  6  5  2  0
  7  2  1  0
  8  7  2  0
 10 11  1  0
 11 12  1  0
 12 14  1  0
 12 13  1  1
 14 15  1  6
 15  7  1  0
 16 17  2  0
 16 14  1  0
 18 19  1  0
 19 20  1  0
 20 22  1  0
 20 21  1  1
 22 23  1  6
 23 16  1  0
 24 22  1  0
 25 24  2  0
 26 24  1  0
M  END
$$$$
