EII.pdb
     RDKit          3D

 26 25  0  0  1  0  0  0  0  0999 V2000
   17.3131  -13.2768  -18.4580 N   0  0  0  0  0  0  0  0  0  0  0  0
   17.2259  -12.4891  -17.2820 C   0  0  1  0  0  0  0  0  0  0  0  0
   17.9101  -13.1213  -16.1237 C   0  0  0  0  0  0  0  0  0  0  0  0
   17.2447  -14.3205  -15.5718 C   0  0  0  0  0  0  0  0  0  0  0  0
   16.0283  -14.1382  -14.7923 C   0  0  0  0  0  0  0  0  0  0  0  0
   15.1019  -14.9500  -14.7679 O   0  0  0  0  0  0  0  0  0  0  0  0
   17.7158  -11.1091  -17.5438 C   0  0  0  0  0  0  0  0  0  0  0  0
   18.6108  -10.9272  -18.4614 O   0  0  0  0  0  0  0  0  0  0  0  0
   15.8417  -12.9832  -13.9983 O   0  0  0  0  0  0  0  0  0  0  0  0
   14.6480   -7.0681  -18.7352 C   0  0  0  0  0  0  0  0  0  0  0  0
   15.9063   -7.8759  -18.6548 C   0  0  0  0  0  0  0  0  0  0  0  0
   16.6661   -7.7378  -17.4000 C   0  0  2  0  0  0  0  0  0  0  0  0
   17.1370   -6.2963  -17.2899 C   0  0  0  0  0  0  0  0  0  0  0  0
   17.8701   -8.6138  -17.2165 C   0  0  2  0  0  0  0  0  0  0  0  0
   17.2999   -9.9481  -16.8814 N   0  0  0  0  0  0  0  0  0  0  0  0
   18.6432   -8.1691  -16.0466 C   0  0  0  0  0  0  0  0  0  0  0  0
   18.0625   -8.1344  -14.9007 O   0  0  0  0  0  0  0  0  0  0  0  0
   22.9401  -10.5006  -14.4420 C   0  0  0  0  0  0  0  0  0  0  0  0
   21.7079   -9.6764  -14.5993 C   0  0  0  0  0  0  0  0  0  0  0  0
   21.8936   -8.2056  -14.5535 C   0  0  2  0  0  0  0  0  0  0  0  0
   22.5173   -7.7281  -13.2595 C   0  0  0  0  0  0  0  0  0  0  0  0
   20.6746   -7.3758  -14.8238 C   0  0  2  0  0  0  0  0  0  0  0  0
   19.9889   -7.7668  -16.0389 N   0  0  0  0  0  0  0  0  0  0  0  0
   20.9562   -5.9250  -14.7871 C   0  0  0  0  0  0  0  0  0  0  0  0
   21.2129   -5.3382  -13.7151 O   0  0  0  0  0  0  0  0  0  0  0  0
   20.9371   -5.1929  -15.9551 O   0  0  0  0  0  0  0  0  0  0  0  0
  2  1  1  6
  2  3  1  0
  4  3  1  0
  4  5  1  0
  5  9  1  0
  6  5  2  0
  7  2  1  0
  8  7  2  0
 10 11  1  0
 11 12  1  0
 12 14  1  0
 12 13  1  6
 14 15  1  1
 15  7  1  0
 16 17  2  0
 16 14  1  0
 18 19  1  0
 19 20  1  0
 20 22  1  0
 20 21  1  1
 22 23  1  6
 23 16  1  0
 24 22  1  0
 25 24  2  0
 26 24  1  0
M  END
$$$$
