EII.pdb
     RDKit          3D

 26 25  0  0  1  0  0  0  0  0999 V2000
   29.0048  -20.7742  -14.1517 N   0  0  0  0  0  0  0  0  0  0  0  0
   27.9147  -19.9970  -13.6840 C   0  0  1  0  0  0  0  0  0  0  0  0
   27.0284  -19.5413  -14.7868 C   0  0  0  0  0  0  0  0  0  0  0  0
   27.7082  -18.8449  -15.8996 C   0  0  0  0  0  0  0  0  0  0  0  0
   28.3124  -19.6500  -16.9517 C   0  0  0  0  0  0  0  0  0  0  0  0
   29.4984  -19.5746  -17.2768 O   0  0  0  0  0  0  0  0  0  0  0  0
   27.1695  -20.7312  -12.6263 C   0  0  0  0  0  0  0  0  0  0  0  0
   27.6758  -21.8226  -12.1482 O   0  0  0  0  0  0  0  0  0  0  0  0
   27.5447  -20.5897  -17.6776 O   0  0  0  0  0  0  0  0  0  0  0  0
   26.7562  -20.5826   -7.3042 C   0  0  0  0  0  0  0  0  0  0  0  0
   26.0089  -21.2256   -8.4312 C   0  0  0  0  0  0  0  0  0  0  0  0
   26.3076  -20.6929   -9.7720 C   0  0  2  0  0  0  0  0  0  0  0  0
   26.3355  -19.1754   -9.6813 C   0  0  0  0  0  0  0  0  0  0  0  0
   25.3720  -21.0542  -10.8878 C   0  0  2  0  0  0  0  0  0  0  0  0
   25.9381  -20.3568  -12.0757 N   0  0  0  0  0  0  0  0  0  0  0  0
   24.0435  -20.4734  -10.6394 C   0  0  0  0  0  0  0  0  0  0  0  0
   23.9534  -19.2096  -10.4245 O   0  0  0  0  0  0  0  0  0  0  0  0
   21.3551  -20.0676  -15.2351 C   0  0  0  0  0  0  0  0  0  0  0  0
   20.9883  -20.1890  -13.7953 C   0  0  0  0  0  0  0  0  0  0  0  0
   22.0352  -20.7327  -12.8963 C   0  0  2  0  0  0  0  0  0  0  0  0
   22.5245  -22.1017  -13.3181 C   0  0  0  0  0  0  0  0  0  0  0  0
   21.6942  -20.7827  -11.4373 C   0  0  2  0  0  0  0  0  0  0  0  0
   22.8216  -21.1655  -10.6115 N   0  0  0  0  0  0  0  0  0  0  0  0
   20.4985  -21.6070  -11.1618 C   0  0  0  0  0  0  0  0  0  0  0  0
   20.5895  -22.7208  -10.6043 O   0  0  0  0  0  0  0  0  0  0  0  0
   19.2503  -21.1475  -11.5242 O   0  0  0  0  0  0  0  0  0  0  0  0
  2  1  1  6
  2  3  1  0
  4  3  1  0
  4  5  1  0
  5  9  1  0
  6  5  2  0
  7  2  1  0
  8  7  2  0
 10 11  1  0
 11 12  1  0
 12 14  1  0
 12 13  1  1
 14 15  1  6
 15  7  1  0
 16 17  2  0
 16 14  1  0
 18 19  1  0
 19 20  1  0
 20 22  1  0
 20 21  1  6
 22 23  1  1
 23 16  1  0
 24 22  1  0
 25 24  2  0
 26 24  1  0
M  END
$$$$
