EII.pdb
     RDKit          3D

 26 25  0  0  1  0  0  0  0  0999 V2000
   28.2253  -19.4653  -17.2805 N   0  0  0  0  0  0  0  0  0  0  0  0
   27.6048  -18.7856  -16.2017 C   0  0  1  0  0  0  0  0  0  0  0  0
   26.7384  -17.6676  -16.6587 C   0  0  0  0  0  0  0  0  0  0  0  0
   25.6134  -18.0553  -17.5359 C   0  0  0  0  0  0  0  0  0  0  0  0
   24.7797  -17.0012  -18.0963 C   0  0  0  0  0  0  0  0  0  0  0  0
   23.7879  -17.2111  -18.7965 O   0  0  0  0  0  0  0  0  0  0  0  0
   26.8753  -19.7476  -15.3326 C   0  0  0  0  0  0  0  0  0  0  0  0
   26.2735  -20.7537  -15.8817 O   0  0  0  0  0  0  0  0  0  0  0  0
   25.0749  -15.6390  -17.8583 O   0  0  0  0  0  0  0  0  0  0  0  0
   28.8638  -21.0541  -10.5210 C   0  0  0  0  0  0  0  0  0  0  0  0
   28.1507  -21.2072  -11.8287 C   0  0  0  0  0  0  0  0  0  0  0  0
   26.7493  -20.7523  -11.8407 C   0  0  2  0  0  0  0  0  0  0  0  0
   25.9501  -21.6623  -10.9215 C   0  0  0  0  0  0  0  0  0  0  0  0
   26.0397  -20.7216  -13.1622 C   0  0  2  0  0  0  0  0  0  0  0  0
   26.7649  -19.6781  -13.9388 N   0  0  0  0  0  0  0  0  0  0  0  0
   24.6599  -20.2441  -12.9823 C   0  0  0  0  0  0  0  0  0  0  0  0
   24.4706  -19.1007  -12.4271 O   0  0  0  0  0  0  0  0  0  0  0  0
   21.6073  -18.9108  -16.6867 C   0  0  0  0  0  0  0  0  0  0  0  0
   22.1941  -19.0892  -15.3279 C   0  0  0  0  0  0  0  0  0  0  0  0
   21.4661  -20.0038  -14.4150 C   0  0  2  0  0  0  0  0  0  0  0  0
   20.0754  -19.5140  -14.0723 C   0  0  0  0  0  0  0  0  0  0  0  0
   22.1674  -20.3623  -13.1395 C   0  0  2  0  0  0  0  0  0  0  0  0
   23.4873  -20.9171  -13.3627 N   0  0  0  0  0  0  0  0  0  0  0  0
   21.3449  -21.2216  -12.2618 C   0  0  0  0  0  0  0  0  0  0  0  0
   21.3809  -22.4668  -12.3498 O   0  0  0  0  0  0  0  0  0  0  0  0
   20.5153  -20.6476  -11.3222 O   0  0  0  0  0  0  0  0  0  0  0  0
  2  1  1  6
  2  3  1  0
  4  3  1  0
  4  5  1  0
  5  9  1  0
  6  5  2  0
  7  2  1  0
  8  7  2  0
 10 11  1  0
 11 12  1  0
 12 14  1  0
 12 13  1  1
 14 15  1  6
 15  7  1  0
 16 17  2  0
 16 14  1  0
 18 19  1  0
 19 20  1  0
 20 22  1  0
 20 21  1  1
 22 23  1  6
 23 16  1  0
 24 22  1  0
 25 24  2  0
 26 24  1  0
M  END
$$$$
