EII.pdb
     RDKit          3D

 26 25  0  0  1  0  0  0  0  0999 V2000
   23.4354  -21.4632  -12.9778 N   0  0  0  0  0  0  0  0  0  0  0  0
   23.5700  -20.6516  -11.8227 C   0  0  1  0  0  0  0  0  0  0  0  0
   22.2992  -20.5339  -11.0608 C   0  0  0  0  0  0  0  0  0  0  0  0
   21.2377  -19.7413  -11.7169 C   0  0  0  0  0  0  0  0  0  0  0  0
   20.7315  -20.1966  -13.0040 C   0  0  0  0  0  0  0  0  0  0  0  0
   20.0500  -21.2124  -13.1519 O   0  0  0  0  0  0  0  0  0  0  0  0
   24.6940  -21.1349  -10.9765 C   0  0  0  0  0  0  0  0  0  0  0  0
   24.7387  -22.3875  -10.6526 O   0  0  0  0  0  0  0  0  0  0  0  0
   21.0048  -19.4737  -14.1881 O   0  0  0  0  0  0  0  0  0  0  0  0
   29.3148  -21.0447  -12.7235 C   0  0  0  0  0  0  0  0  0  0  0  0
   28.1131  -21.3632  -11.8889 C   0  0  0  0  0  0  0  0  0  0  0  0
   28.0705  -20.7106  -10.5685 C   0  0  2  0  0  0  0  0  0  0  0  0
   29.2887  -21.1630   -9.7792 C   0  0  0  0  0  0  0  0  0  0  0  0
   26.8664  -20.9594   -9.7087 C   0  0  2  0  0  0  0  0  0  0  0  0
   25.7423  -20.3541  -10.4753 N   0  0  0  0  0  0  0  0  0  0  0  0
   26.9829  -20.2086   -8.4491 C   0  0  0  0  0  0  0  0  0  0  0  0
   26.5446  -19.0012   -8.4081 O   0  0  0  0  0  0  0  0  0  0  0  0
   28.5578  -20.6225   -2.3726 C   0  0  0  0  0  0  0  0  0  0  0  0
   28.0363  -19.8854   -3.5588 C   0  0  0  0  0  0  0  0  0  0  0  0
   28.0259  -20.6311   -4.8408 C   0  0  2  0  0  0  0  0  0  0  0  0
   29.3448  -21.3113   -5.1401 C   0  0  0  0  0  0  0  0  0  0  0  0
   27.6091  -19.8559   -6.0543 C   0  0  2  0  0  0  0  0  0  0  0  0
   27.5350  -20.6774   -7.2457 N   0  0  0  0  0  0  0  0  0  0  0  0
   28.4311  -18.6453   -6.2645 C   0  0  0  0  0  0  0  0  0  0  0  0
   28.1922  -17.5818   -5.6550 O   0  0  0  0  0  0  0  0  0  0  0  0
   29.4867  -18.6784   -7.1506 O   0  0  0  0  0  0  0  0  0  0  0  0
  2  1  1  6
  2  3  1  0
  4  3  1  0
  4  5  1  0
  5  9  1  0
  6  5  2  0
  7  2  1  0
  8  7  2  0
 10 11  1  0
 11 12  1  0
 12 14  1  0
 12 13  1  1
 14 15  1  6
 15  7  1  0
 16 17  2  0
 16 14  1  0
 18 19  1  0
 19 20  1  0
 20 22  1  0
 20 21  1  6
 22 23  1  6
 23 16  1  0
 24 22  1  0
 25 24  2  0
 26 24  1  0
M  END
$$$$
