EII.pdb
     RDKit          3D

 26 25  0  0  1  0  0  0  0  0999 V2000
   22.1639  -21.4207  -16.5894 N   0  0  0  0  0  0  0  0  0  0  0  0
   22.6102  -20.3263  -15.8057 C   0  0  1  0  0  0  0  0  0  0  0  0
   21.6036  -19.9027  -14.7975 C   0  0  0  0  0  0  0  0  0  0  0  0
   20.3387  -19.3722  -15.3488 C   0  0  0  0  0  0  0  0  0  0  0  0
   19.3790  -20.3151  -15.9059 C   0  0  0  0  0  0  0  0  0  0  0  0
   18.8727  -20.1981  -17.0230 O   0  0  0  0  0  0  0  0  0  0  0  0
   23.9310  -20.6310  -15.1927 C   0  0  0  0  0  0  0  0  0  0  0  0
   24.1439  -21.8195  -14.7254 O   0  0  0  0  0  0  0  0  0  0  0  0
   18.9656  -21.4496  -15.1701 O   0  0  0  0  0  0  0  0  0  0  0  0
   28.7104  -18.5015  -16.8847 C   0  0  0  0  0  0  0  0  0  0  0  0
   27.6820  -19.4457  -16.3435 C   0  0  0  0  0  0  0  0  0  0  0  0
   27.2998  -19.2248  -14.9377 C   0  0  2  0  0  0  0  0  0  0  0  0
   28.5482  -19.3672  -14.0816 C   0  0  0  0  0  0  0  0  0  0  0  0
   26.2540  -20.1269  -14.3518 C   0  0  2  0  0  0  0  0  0  0  0  0
   25.0031  -19.7404  -15.0614 N   0  0  0  0  0  0  0  0  0  0  0  0
   26.0570  -19.8121  -12.9284 C   0  0  0  0  0  0  0  0  0  0  0  0
   25.6999  -18.6210  -12.6040 O   0  0  0  0  0  0  0  0  0  0  0  0
   23.1530  -20.7547   -7.9258 C   0  0  0  0  0  0  0  0  0  0  0  0
   24.4569  -20.3124   -8.4973 C   0  0  0  0  0  0  0  0  0  0  0  0
   24.7488  -20.7553   -9.8824 C   0  0  2  0  0  0  0  0  0  0  0  0
   24.6759  -22.2579  -10.0506 C   0  0  0  0  0  0  0  0  0  0  0  0
   26.0416  -20.2770  -10.4718 C   0  0  2  0  0  0  0  0  0  0  0  0
   26.2183  -20.6949  -11.8479 N   0  0  0  0  0  0  0  0  0  0  0  0
   27.2092  -20.6201   -9.6327 C   0  0  0  0  0  0  0  0  0  0  0  0
   28.0165  -21.5103   -9.9724 O   0  0  0  0  0  0  0  0  0  0  0  0
   27.4220  -19.9504   -8.4466 O   0  0  0  0  0  0  0  0  0  0  0  0
  2  1  1  1
  2  3  1  0
  4  3  1  0
  4  5  1  0
  5  9  1  0
  6  5  2  0
  7  2  1  0
  8  7  2  0
 10 11  1  0
 11 12  1  0
 12 14  1  0
 12 13  1  1
 14 15  1  6
 15  7  1  0
 16 17  2  0
 16 14  1  0
 18 19  1  0
 19 20  1  0
 20 22  1  0
 20 21  1  1
 22 23  1  6
 23 16  1  0
 24 22  1  0
 25 24  2  0
 26 24  1  0
M  END
$$$$
