EII.pdb
     RDKit          3D

 26 25  0  0  1  0  0  0  0  0999 V2000
   22.2060  -13.8395  -19.7326 N   0  0  0  0  0  0  0  0  0  0  0  0
   23.0220  -12.6854  -19.8472 C   0  0  1  0  0  0  0  0  0  0  0  0
   22.5016  -11.7200  -20.8505 C   0  0  0  0  0  0  0  0  0  0  0  0
   21.2624  -12.1321  -21.5433 C   0  0  0  0  0  0  0  0  0  0  0  0
   21.3792  -12.9791  -22.7220 C   0  0  0  0  0  0  0  0  0  0  0  0
   21.1677  -14.1928  -22.7174 O   0  0  0  0  0  0  0  0  0  0  0  0
   23.2268  -12.0596  -18.5133 C   0  0  0  0  0  0  0  0  0  0  0  0
   22.3634  -12.2888  -17.5763 O   0  0  0  0  0  0  0  0  0  0  0  0
   21.7536  -12.4349  -23.9722 O   0  0  0  0  0  0  0  0  0  0  0  0
   28.0283  -11.9899  -16.2108 C   0  0  0  0  0  0  0  0  0  0  0  0
   26.5493  -12.0223  -16.4422 C   0  0  0  0  0  0  0  0  0  0  0  0
   25.8906  -10.7056  -16.5021 C   0  0  2  0  0  0  0  0  0  0  0  0
   26.1200  -10.0026  -15.1736 C   0  0  0  0  0  0  0  0  0  0  0  0
   24.4148  -10.6783  -16.7702 C   0  0  2  0  0  0  0  0  0  0  0  0
   24.2872  -11.2205  -18.1514 N   0  0  0  0  0  0  0  0  0  0  0  0
   23.9349   -9.2882  -16.8067 C   0  0  0  0  0  0  0  0  0  0  0  0
   24.7124   -8.3796  -17.2771 O   0  0  0  0  0  0  0  0  0  0  0  0
   19.9259   -5.6576  -19.0462 C   0  0  0  0  0  0  0  0  0  0  0  0
   20.8063   -5.8682  -17.8616 C   0  0  0  0  0  0  0  0  0  0  0  0
   21.2766   -7.2562  -17.6336 C   0  0  2  0  0  0  0  0  0  0  0  0
   20.1431   -8.2390  -17.4310 C   0  0  0  0  0  0  0  0  0  0  0  0
   22.2686   -7.4455  -16.5257 C   0  0  2  0  0  0  0  0  0  0  0  0
   22.6814   -8.8260  -16.3733 N   0  0  0  0  0  0  0  0  0  0  0  0
   21.8118   -6.8580  -15.2484 C   0  0  0  0  0  0  0  0  0  0  0  0
   21.7002   -5.6227  -15.1025 O   0  0  0  0  0  0  0  0  0  0  0  0
   21.4999   -7.6813  -14.1875 O   0  0  0  0  0  0  0  0  0  0  0  0
  2  1  1  1
  2  3  1  0
  4  3  1  0
  4  5  1  0
  5  9  1  0
  6  5  2  0
  7  2  1  0
  8  7  2  0
 10 11  1  0
 11 12  1  0
 12 14  1  0
 12 13  1  1
 14 15  1  6
 15  7  1  0
 16 17  2  0
 16 14  1  0
 18 19  1  0
 19 20  1  0
 20 22  1  0
 20 21  1  1
 22 23  1  1
 23 16  1  0
 24 22  1  0
 25 24  2  0
 26 24  1  0
M  END
$$$$
