EII.pdb
     RDKit          3D

 26 25  0  0  1  0  0  0  0  0999 V2000
   21.9757  -15.3062  -17.8083 N   0  0  0  0  0  0  0  0  0  0  0  0
   22.2879  -14.0169  -18.3095 C   0  0  1  0  0  0  0  0  0  0  0  0
   21.2084  -13.4661  -19.1701 C   0  0  0  0  0  0  0  0  0  0  0  0
   20.8744  -14.2734  -20.3626 C   0  0  0  0  0  0  0  0  0  0  0  0
   19.7809  -13.8274  -21.2144 C   0  0  0  0  0  0  0  0  0  0  0  0
   19.1115  -12.8161  -20.9972 O   0  0  0  0  0  0  0  0  0  0  0  0
   22.6461  -13.0991  -17.1948 C   0  0  0  0  0  0  0  0  0  0  0  0
   22.0873  -13.2710  -16.0397 O   0  0  0  0  0  0  0  0  0  0  0  0
   19.4193  -14.5552  -22.3716 O   0  0  0  0  0  0  0  0  0  0  0  0
   27.6683  -11.7519  -16.1287 C   0  0  0  0  0  0  0  0  0  0  0  0
   26.2092  -12.0590  -15.9926 C   0  0  0  0  0  0  0  0  0  0  0  0
   25.3036  -10.9087  -16.1592 C   0  0  2  0  0  0  0  0  0  0  0  0
   25.6364   -9.8869  -15.0836 C   0  0  0  0  0  0  0  0  0  0  0  0
   23.8280  -11.1691  -16.0834 C   0  0  2  0  0  0  0  0  0  0  0  0
   23.5514  -12.0337  -17.2639 N   0  0  0  0  0  0  0  0  0  0  0  0
   23.0843   -9.9157  -16.2831 C   0  0  0  0  0  0  0  0  0  0  0  0
   23.3254   -9.2164  -17.3341 O   0  0  0  0  0  0  0  0  0  0  0  0
   18.1481   -9.6332  -17.1910 C   0  0  0  0  0  0  0  0  0  0  0  0
   19.5864   -9.2555  -17.0854 C   0  0  0  0  0  0  0  0  0  0  0  0
   19.9451   -8.3489  -15.9679 C   0  0  2  0  0  0  0  0  0  0  0  0
   19.2856   -6.9904  -16.0733 C   0  0  0  0  0  0  0  0  0  0  0  0
   21.4103   -8.1441  -15.7257 C   0  0  2  0  0  0  0  0  0  0  0  0
   22.1069   -9.3795  -15.4287 N   0  0  0  0  0  0  0  0  0  0  0  0
   21.6779   -7.0988  -14.7154 C   0  0  0  0  0  0  0  0  0  0  0  0
   21.8894   -7.3880  -13.5190 O   0  0  0  0  0  0  0  0  0  0  0  0
   21.6964   -5.7720  -15.0895 O   0  0  0  0  0  0  0  0  0  0  0  0
  2  1  1  1
  2  3  1  0
  4  3  1  0
  4  5  1  0
  5  9  1  0
  6  5  2  0
  7  2  1  0
  8  7  2  0
 10 11  1  0
 11 12  1  0
 12 14  1  0
 12 13  1  1
 14 15  1  6
 15  7  1  0
 16 17  2  0
 16 14  1  0
 18 19  1  0
 19 20  1  0
 20 22  1  0
 20 21  1  6
 22 23  1  1
 23 16  1  0
 24 22  1  0
 25 24  2  0
 26 24  1  0
M  END
$$$$
