EII.pdb
     RDKit          3D

 26 25  0  0  1  0  0  0  0  0999 V2000
   27.9075  -22.5211  -16.8456 N   0  0  0  0  0  0  0  0  0  0  0  0
   27.3452  -21.3451  -16.2872 C   0  0  1  0  0  0  0  0  0  0  0  0
   26.4429  -20.6418  -17.2362 C   0  0  0  0  0  0  0  0  0  0  0  0
   27.1044  -20.0465  -18.4167 C   0  0  0  0  0  0  0  0  0  0  0  0
   27.9615  -18.8866  -18.2164 C   0  0  0  0  0  0  0  0  0  0  0  0
   29.1429  -18.8394  -18.5628 O   0  0  0  0  0  0  0  0  0  0  0  0
   26.6772  -21.6524  -14.9940 C   0  0  0  0  0  0  0  0  0  0  0  0
   26.0256  -22.7648  -14.8760 O   0  0  0  0  0  0  0  0  0  0  0  0
   27.4664  -17.7175  -17.5940 O   0  0  0  0  0  0  0  0  0  0  0  0
   29.3120  -20.8048  -10.5584 C   0  0  0  0  0  0  0  0  0  0  0  0
   28.3282  -21.4466  -11.4869 C   0  0  0  0  0  0  0  0  0  0  0  0
   26.9920  -20.8263  -11.5181 C   0  0  2  0  0  0  0  0  0  0  0  0
   26.3230  -21.0795  -10.1764 C   0  0  0  0  0  0  0  0  0  0  0  0
   26.0387  -21.2822  -12.5830 C   0  0  2  0  0  0  0  0  0  0  0  0
   26.6765  -20.8399  -13.8540 N   0  0  0  0  0  0  0  0  0  0  0  0
   24.7652  -20.5555  -12.4640 C   0  0  0  0  0  0  0  0  0  0  0  0
   24.7833  -19.2708  -12.4927 O   0  0  0  0  0  0  0  0  0  0  0  0
   19.9909  -19.6597  -15.5449 C   0  0  0  0  0  0  0  0  0  0  0  0
   20.4583  -19.7055  -14.1299 C   0  0  0  0  0  0  0  0  0  0  0  0
   21.7279  -20.4311  -13.8828 C   0  0  2  0  0  0  0  0  0  0  0  0
   21.6662  -21.8874  -14.2914 C   0  0  0  0  0  0  0  0  0  0  0  0
   22.2731  -20.3554  -12.4883 C   0  0  2  0  0  0  0  0  0  0  0  0
   23.4893  -21.1248  -12.3198 N   0  0  0  0  0  0  0  0  0  0  0  0
   21.2599  -20.6866  -11.4641 C   0  0  0  0  0  0  0  0  0  0  0  0
   20.3139  -19.9121  -11.2093 O   0  0  0  0  0  0  0  0  0  0  0  0
   21.3509  -21.8729  -10.7677 O   0  0  0  0  0  0  0  0  0  0  0  0
  2  1  1  6
  2  3  1  0
  4  3  1  0
  4  5  1  0
  5  9  1  0
  6  5  2  0
  7  2  1  0
  8  7  2  0
 10 11  1  0
 11 12  1  0
 12 14  1  0
 12 13  1  1
 14 15  1  6
 15  7  1  0
 16 17  2  0
 16 14  1  0
 18 19  1  0
 19 20  1  0
 20 22  1  0
 20 21  1  1
 22 23  1  6
 23 16  1  0
 24 22  1  0
 25 24  2  0
 26 24  1  0
M  END
$$$$
