EII.pdb
     RDKit          3D

 26 25  0  0  1  0  0  0  0  0999 V2000
   27.7082  -21.8410  -14.4953 N   0  0  0  0  0  0  0  0  0  0  0  0
   27.1087  -20.7258  -13.8566 C   0  0  1  0  0  0  0  0  0  0  0  0
   26.2576  -19.9322  -14.7814 C   0  0  0  0  0  0  0  0  0  0  0  0
   26.9757  -19.2640  -15.8875 C   0  0  0  0  0  0  0  0  0  0  0  0
   27.9849  -18.2687  -15.5541 C   0  0  0  0  0  0  0  0  0  0  0  0
   27.7273  -17.1717  -15.0560 O   0  0  0  0  0  0  0  0  0  0  0  0
   26.3702  -21.1591  -12.6400 C   0  0  0  0  0  0  0  0  0  0  0  0
   25.8196  -22.3308  -12.6274 O   0  0  0  0  0  0  0  0  0  0  0  0
   29.3561  -18.5179  -15.7927 O   0  0  0  0  0  0  0  0  0  0  0  0
   27.8711  -19.8044   -7.6083 C   0  0  0  0  0  0  0  0  0  0  0  0
   27.2971  -20.5957   -8.7425 C   0  0  0  0  0  0  0  0  0  0  0  0
   25.9245  -20.2315   -9.1354 C   0  0  2  0  0  0  0  0  0  0  0  0
   25.0011  -20.5449   -7.9689 C   0  0  0  0  0  0  0  0  0  0  0  0
   25.3488  -20.8988  -10.3495 C   0  0  2  0  0  0  0  0  0  0  0  0
   26.2001  -20.4104  -11.4696 N   0  0  0  0  0  0  0  0  0  0  0  0
   23.9854  -20.4051  -10.5972 C   0  0  0  0  0  0  0  0  0  0  0  0
   23.8337  -19.2057  -11.0332 O   0  0  0  0  0  0  0  0  0  0  0  0
   20.4875  -20.1987  -14.7221 C   0  0  0  0  0  0  0  0  0  0  0  0
   20.3934  -20.2690  -13.2359 C   0  0  0  0  0  0  0  0  0  0  0  0
   21.6113  -20.7257  -12.5234 C   0  0  2  0  0  0  0  0  0  0  0  0
   22.0841  -22.0910  -12.9753 C   0  0  0  0  0  0  0  0  0  0  0  0
   21.5427  -20.7223  -11.0258 C   0  0  2  0  0  0  0  0  0  0  0  0
   22.7912  -21.1195  -10.4070 N   0  0  0  0  0  0  0  0  0  0  0  0
   20.3950  -21.4972  -10.5085 C   0  0  0  0  0  0  0  0  0  0  0  0
   19.2178  -21.1451  -10.7314 O   0  0  0  0  0  0  0  0  0  0  0  0
   20.6163  -22.6348   -9.7618 O   0  0  0  0  0  0  0  0  0  0  0  0
  2  1  1  6
  2  3  1  0
  4  3  1  0
  4  5  1  0
  5  9  1  0
  6  5  2  0
  7  2  1  0
  8  7  2  0
 10 11  1  0
 11 12  1  0
 12 14  1  0
 12 13  1  1
 14 15  1  6
 15  7  1  0
 16 17  2  0
 16 14  1  0
 18 19  1  0
 19 20  1  0
 20 22  1  0
 20 21  1  6
 22 23  1  1
 23 16  1  0
 24 22  1  0
 25 24  2  0
 26 24  1  0
M  END
$$$$
