TFC.pdb
     RDKit          3D

 25 25  0  0  1  0  0  0  0  0999 V2000
   26.6627  -17.4206  -17.9232 C   0  0  0  0  0  0  0  0  0  0  0  0
   27.1763  -18.4861  -18.8755 C   0  0  1  0  0  0  0  0  0  0  0  0
   27.9008  -17.9213  -19.9008 O   0  0  0  0  0  0  0  0  0  0  0  0
   28.0778  -19.4064  -18.0867 C   0  0  2  0  0  0  0  0  0  0  0  0
   28.6519  -20.3816  -19.0207 N   0  0  0  0  0  0  0  0  0  0  0  0
   27.3736  -20.1066  -16.9821 C   0  0  0  0  0  0  0  0  0  0  0  0
   26.5465  -21.0357  -17.1929 O   0  0  0  0  0  0  0  0  0  0  0  0
   27.6243  -19.7376  -15.6586 N   0  0  0  0  0  0  0  0  0  0  0  0
   26.8753  -20.2529  -14.5146 C   0  0  1  0  0  0  0  0  0  0  0  0
   27.7270  -19.9014  -13.2845 C   0  0  0  0  0  0  0  0  0  0  0  0
   27.0353  -20.2814  -12.0407 C   0  0  0  0  0  0  0  0  0  0  0  0
   27.0882  -21.5955  -11.5843 C   0  0  0  0  0  0  0  0  0  0  0  0
   26.4485  -21.9808  -10.4200 C   0  0  0  0  0  0  0  0  0  0  0  0
   25.7500  -21.0282   -9.7126 C   0  0  0  0  0  0  0  0  0  0  0  0
   25.7047  -19.7295  -10.1746 C   0  0  0  0  0  0  0  0  0  0  0  0
   26.3344  -19.3213  -11.3326 C   0  0  0  0  0  0  0  0  0  0  0  0
   25.5470  -19.6392  -14.4049 C   0  0  0  0  0  0  0  0  0  0  0  0
   25.4346  -18.4014  -14.5787 O   0  0  0  0  0  0  0  0  0  0  0  0
   24.3692  -20.3696  -14.1109 N   0  0  0  0  0  0  0  0  0  0  0  0
   23.0683  -19.7707  -13.9287 C   0  0  1  0  0  0  0  0  0  0  0  0
   22.3883  -19.6037  -15.2880 C   0  0  0  0  0  0  0  0  0  0  0  0
   22.3117  -21.1807  -16.1448 S   0  0  0  0  0  0  0  0  0  0  0  0
   22.2158  -20.6928  -13.1207 C   0  0  0  0  0  0  0  0  0  0  0  0
   22.6355  -21.8405  -12.8212 O   0  0  0  0  0  0  0  0  0  0  0  0
   20.9482  -20.3380  -12.6706 O   0  0  0  0  0  0  0  0  0  0  0  0
  2  1  1  1
  3  2  1  0
  4  2  1  0
  4  6  1  0
  4  5  1  6
  6  7  2  0
  8  6  1  0
  8  9  1  0
  9 10  1  1
 10 11  1  0
 11 16  2  0
 12 11  1  0
 12 13  2  0
 13 14  1  0
 14 15  2  0
 16 15  1  0
 17  9  1  0
 17 18  2  0
 19 17  1  0
 20 19  1  0
 20 23  1  0
 20 21  1  6
 22 21  1  0
 23 25  1  0
 24 23  2  0
M  END
$$$$
