TFC.pdb
     RDKit          3D

 25 25  0  0  1  0  0  0  0  0999 V2000
   17.2829   -7.9001  -18.6417 C   0  0  0  0  0  0  0  0  0  0  0  0
   17.2081   -7.7596  -17.1314 C   0  0  1  0  0  0  0  0  0  0  0  0
   15.9521   -8.0819  -16.6692 O   0  0  0  0  0  0  0  0  0  0  0  0
   18.2116   -8.7180  -16.5341 C   0  0  2  0  0  0  0  0  0  0  0  0
   17.8093  -10.0790  -16.9067 N   0  0  0  0  0  0  0  0  0  0  0  0
   18.3219   -8.6014  -15.0575 C   0  0  0  0  0  0  0  0  0  0  0  0
   17.8961   -9.4972  -14.2777 O   0  0  0  0  0  0  0  0  0  0  0  0
   18.9153   -7.4687  -14.4958 N   0  0  0  0  0  0  0  0  0  0  0  0
   19.1677   -7.3072  -13.0656 C   0  0  1  0  0  0  0  0  0  0  0  0
   20.6494   -6.9131  -12.9604 C   0  0  0  0  0  0  0  0  0  0  0  0
   21.5201   -8.0836  -13.1645 C   0  0  0  0  0  0  0  0  0  0  0  0
   22.1549   -8.2784  -14.3881 C   0  0  0  0  0  0  0  0  0  0  0  0
   22.9778   -9.3681  -14.6082 C   0  0  0  0  0  0  0  0  0  0  0  0
   23.1594  -10.2674  -13.5814 C   0  0  0  0  0  0  0  0  0  0  0  0
   22.5253  -10.0639  -12.3736 C   0  0  0  0  0  0  0  0  0  0  0  0
   21.7001   -8.9851  -12.1304 C   0  0  0  0  0  0  0  0  0  0  0  0
   18.3217   -6.2657  -12.4717 C   0  0  0  0  0  0  0  0  0  0  0  0
   18.3519   -5.1093  -12.9581 O   0  0  0  0  0  0  0  0  0  0  0  0
   17.4621   -6.4905  -11.3681 N   0  0  0  0  0  0  0  0  0  0  0  0
   16.5885   -5.4892  -10.8040 C   0  0  1  0  0  0  0  0  0  0  0  0
   15.1486   -6.0037  -10.8142 C   0  0  0  0  0  0  0  0  0  0  0  0
   14.0671   -4.8469   -9.9664 S   0  0  0  0  0  0  0  0  0  0  0  0
   16.9645   -5.2621   -9.3768 C   0  0  0  0  0  0  0  0  0  0  0  0
   16.4525   -4.3099   -8.7331 O   0  0  0  0  0  0  0  0  0  0  0  0
   17.8757   -6.0709   -8.7055 O   0  0  0  0  0  0  0  0  0  0  0  0
  2  1  1  6
  3  2  1  0
  4  2  1  0
  4  6  1  0
  4  5  1  1
  6  7  2  0
  8  6  1  0
  8  9  1  0
  9 10  1  6
 10 11  1  0
 11 16  2  0
 12 11  1  0
 12 13  2  0
 13 14  1  0
 14 15  2  0
 16 15  1  0
 17  9  1  0
 17 18  2  0
 19 17  1  0
 20 19  1  0
 20 23  1  0
 20 21  1  1
 22 21  1  0
 23 25  1  0
 24 23  2  0
M  END
$$$$
