TFC.pdb
     RDKit          3D

 25 25  0  0  1  0  0  0  0  0999 V2000
   20.5210   -7.2818  -20.3175 C   0  0  0  0  0  0  0  0  0  0  0  0
   20.9299   -8.7392  -20.1943 C   0  0  1  0  0  0  0  0  0  0  0  0
   21.3694   -9.2304  -21.4028 O   0  0  0  0  0  0  0  0  0  0  0  0
   22.0600   -8.8127  -19.1945 C   0  0  2  0  0  0  0  0  0  0  0  0
   22.4888  -10.2130  -19.1038 N   0  0  0  0  0  0  0  0  0  0  0  0
   21.6841   -8.3028  -17.8510 C   0  0  0  0  0  0  0  0  0  0  0  0
   20.8457   -8.8944  -17.1167 O   0  0  0  0  0  0  0  0  0  0  0  0
   22.2695   -7.1305  -17.3677 N   0  0  0  0  0  0  0  0  0  0  0  0
   21.9091   -6.5054  -16.0970 C   0  0  1  0  0  0  0  0  0  0  0  0
   23.2410   -6.2965  -15.3592 C   0  0  0  0  0  0  0  0  0  0  0  0
   23.8592   -7.5886  -15.0152 C   0  0  0  0  0  0  0  0  0  0  0  0
   23.2762   -8.4088  -14.0531 C   0  0  0  0  0  0  0  0  0  0  0  0
   23.8344   -9.6269  -13.7100 C   0  0  0  0  0  0  0  0  0  0  0  0
   24.9915  -10.0174  -14.3459 C   0  0  0  0  0  0  0  0  0  0  0  0
   25.5599   -9.1965  -15.2973 C   0  0  0  0  0  0  0  0  0  0  0  0
   25.0220   -7.9776  -15.6563 C   0  0  0  0  0  0  0  0  0  0  0  0
   21.2282   -5.2199  -16.2897 C   0  0  0  0  0  0  0  0  0  0  0  0
   21.7777   -4.3429  -16.9996 O   0  0  0  0  0  0  0  0  0  0  0  0
   19.9719   -4.9058  -15.7150 N   0  0  0  0  0  0  0  0  0  0  0  0
   19.2276   -3.7025  -16.0017 C   0  0  1  0  0  0  0  0  0  0  0  0
   18.7066   -3.7545  -17.4383 C   0  0  0  0  0  0  0  0  0  0  0  0
   17.6921   -2.3135  -17.7862 S   0  0  0  0  0  0  0  0  0  0  0  0
   18.0362   -3.6404  -15.1036 C   0  0  0  0  0  0  0  0  0  0  0  0
   17.4078   -4.6917  -14.8153 O   0  0  0  0  0  0  0  0  0  0  0  0
   17.5738   -2.4484  -14.5554 O   0  0  0  0  0  0  0  0  0  0  0  0
  2  1  1  6
  3  2  1  0
  4  2  1  0
  4  6  1  0
  4  5  1  1
  6  7  2  0
  8  6  1  0
  8  9  1  0
  9 10  1  1
 10 11  1  0
 11 16  2  0
 12 11  1  0
 12 13  2  0
 13 14  1  0
 14 15  2  0
 16 15  1  0
 17  9  1  0
 17 18  2  0
 19 17  1  0
 20 19  1  0
 20 23  1  0
 20 21  1  6
 22 21  1  0
 23 25  1  0
 24 23  2  0
M  END
$$$$
