TFC.pdb
     RDKit          3D

 25 25  0  0  1  0  0  0  0  0999 V2000
   19.3963  -12.6815  -18.6364 C   0  0  0  0  0  0  0  0  0  0  0  0
   19.8853  -11.7066  -17.5797 C   0  0  1  0  0  0  0  0  0  0  0  0
   19.1863  -11.8642  -16.4043 O   0  0  0  0  0  0  0  0  0  0  0  0
   21.3447  -12.0032  -17.3262 C   0  0  2  0  0  0  0  0  0  0  0  0
   21.4352  -13.3474  -16.7449 N   0  0  0  0  0  0  0  0  0  0  0  0
   21.9943  -11.0119  -16.4309 C   0  0  0  0  0  0  0  0  0  0  0  0
   22.0805  -11.1856  -15.1842 O   0  0  0  0  0  0  0  0  0  0  0  0
   22.5344   -9.8424  -16.9706 N   0  0  0  0  0  0  0  0  0  0  0  0
   23.1159   -8.7690  -16.1676 C   0  0  1  0  0  0  0  0  0  0  0  0
   24.5260   -8.5563  -16.7407 C   0  0  0  0  0  0  0  0  0  0  0  0
   25.4132   -9.6763  -16.3823 C   0  0  0  0  0  0  0  0  0  0  0  0
   25.9826   -9.7393  -15.1135 C   0  0  0  0  0  0  0  0  0  0  0  0
   26.8191  -10.7789  -14.7492 C   0  0  0  0  0  0  0  0  0  0  0  0
   27.0810  -11.7621  -15.6768 C   0  0  0  0  0  0  0  0  0  0  0  0
   26.5111  -11.6890  -16.9307 C   0  0  0  0  0  0  0  0  0  0  0  0
   25.6739  -10.6625  -17.3171 C   0  0  0  0  0  0  0  0  0  0  0  0
   22.3375   -7.5286  -16.2605 C   0  0  0  0  0  0  0  0  0  0  0  0
   22.0411   -7.0822  -17.3954 O   0  0  0  0  0  0  0  0  0  0  0  0
   21.8950   -6.7959  -15.1316 N   0  0  0  0  0  0  0  0  0  0  0  0
   21.1094   -5.5870  -15.2070 C   0  0  1  0  0  0  0  0  0  0  0  0
   19.8742   -5.7244  -14.3164 C   0  0  0  0  0  0  0  0  0  0  0  0
   19.0004   -4.1582  -14.2160 S   0  0  0  0  0  0  0  0  0  0  0  0
   21.9137   -4.4486  -14.6711 C   0  0  0  0  0  0  0  0  0  0  0  0
   22.6771   -4.6237  -13.6864 O   0  0  0  0  0  0  0  0  0  0  0  0
   21.8603   -3.1713  -15.2196 O   0  0  0  0  0  0  0  0  0  0  0  0
  2  1  1  6
  3  2  1  0
  4  2  1  0
  4  6  1  0
  4  5  1  1
  6  7  2  0
  8  6  1  0
  8  9  1  0
  9 10  1  6
 10 11  1  0
 11 16  2  0
 12 11  1  0
 12 13  2  0
 13 14  1  0
 14 15  2  0
 16 15  1  0
 17  9  1  0
 17 18  2  0
 19 17  1  0
 20 19  1  0
 20 23  1  0
 20 21  1  1
 22 21  1  0
 23 25  1  0
 24 23  2  0
M  END
$$$$
