TFC.pdb
     RDKit          3D

 25 25  0  0  1  0  0  0  0  0999 V2000
   22.6943   -9.9967  -21.4751 C   0  0  0  0  0  0  0  0  0  0  0  0
   23.2313  -11.3199  -20.9585 C   0  0  1  0  0  0  0  0  0  0  0  0
   23.7198  -12.0889  -21.9905 O   0  0  0  0  0  0  0  0  0  0  0  0
   24.3577  -11.0119  -20.0002 C   0  0  2  0  0  0  0  0  0  0  0  0
   24.9416  -12.2871  -19.5690 N   0  0  0  0  0  0  0  0  0  0  0  0
   23.9203  -10.2226  -18.8204 C   0  0  0  0  0  0  0  0  0  0  0  0
   23.3035  -10.7452  -17.8518 O   0  0  0  0  0  0  0  0  0  0  0  0
   24.1935   -8.8540  -18.7642 N   0  0  0  0  0  0  0  0  0  0  0  0
   23.8723   -8.0069  -17.6178 C   0  0  1  0  0  0  0  0  0  0  0  0
   25.2172   -7.4181  -17.1631 C   0  0  0  0  0  0  0  0  0  0  0  0
   26.0628   -8.4547  -16.5464 C   0  0  0  0  0  0  0  0  0  0  0  0
   25.6207   -9.1371  -15.4164 C   0  0  0  0  0  0  0  0  0  0  0  0
   26.3931  -10.1150  -14.8163 C   0  0  0  0  0  0  0  0  0  0  0  0
   27.6226  -10.4041  -15.3646 C   0  0  0  0  0  0  0  0  0  0  0  0
   28.0499   -9.7214  -16.4842 C   0  0  0  0  0  0  0  0  0  0  0  0
   27.2977   -8.7424  -17.1003 C   0  0  0  0  0  0  0  0  0  0  0  0
   22.9407   -6.9303  -17.9729 C   0  0  0  0  0  0  0  0  0  0  0  0
   23.1713   -6.2417  -18.9965 O   0  0  0  0  0  0  0  0  0  0  0  0
   21.7820   -6.6179  -17.2200 N   0  0  0  0  0  0  0  0  0  0  0  0
   20.8165   -5.6131  -17.5974 C   0  0  1  0  0  0  0  0  0  0  0  0
   19.4338   -6.0150  -17.0833 C   0  0  0  0  0  0  0  0  0  0  0  0
   18.8187   -7.4359  -17.9939 S   0  0  0  0  0  0  0  0  0  0  0  0
   21.1731   -4.3219  -16.9373 C   0  0  0  0  0  0  0  0  0  0  0  0
   22.1765   -4.2557  -16.1811 O   0  0  0  0  0  0  0  0  0  0  0  0
   20.4330   -3.1585  -17.1209 O   0  0  0  0  0  0  0  0  0  0  0  0
  2  1  1  6
  3  2  1  0
  4  2  1  0
  4  6  1  0
  4  5  1  1
  6  7  2  0
  8  6  1  0
  8  9  1  0
  9 10  1  6
 10 11  1  0
 11 16  2  0
 12 11  1  0
 12 13  2  0
 13 14  1  0
 14 15  2  0
 16 15  1  0
 17  9  1  0
 17 18  2  0
 19 17  1  0
 20 19  1  0
 20 23  1  0
 20 21  1  1
 22 21  1  0
 23 25  1  0
 24 23  2  0
M  END
$$$$
