TFC.pdb
     RDKit          3D

 25 25  0  0  1  0  0  0  0  0999 V2000
   25.3987  -12.5458  -17.2043 C   0  0  0  0  0  0  0  0  0  0  0  0
   24.9882  -12.8123  -15.7668 C   0  0  1  0  0  0  0  0  0  0  0  0
   25.1795  -11.6951  -14.9856 O   0  0  0  0  0  0  0  0  0  0  0  0
   23.5189  -13.1632  -15.7697 C   0  0  2  0  0  0  0  0  0  0  0  0
   23.3408  -14.3431  -16.6237 N   0  0  0  0  0  0  0  0  0  0  0  0
   22.6549  -12.0517  -16.2433 C   0  0  0  0  0  0  0  0  0  0  0  0
   22.6898  -11.6314  -17.4323 O   0  0  0  0  0  0  0  0  0  0  0  0
   21.7668  -11.4400  -15.3557 N   0  0  0  0  0  0  0  0  0  0  0  0
   20.9292  -10.2942  -15.7034 C   0  0  1  0  0  0  0  0  0  0  0  0
   19.4910  -10.7378  -15.3920 C   0  0  0  0  0  0  0  0  0  0  0  0
   18.9548  -11.5798  -16.4752 C   0  0  0  0  0  0  0  0  0  0  0  0
   18.3877  -10.9920  -17.6026 C   0  0  0  0  0  0  0  0  0  0  0  0
   17.8765  -11.7575  -18.6350 C   0  0  0  0  0  0  0  0  0  0  0  0
   17.9399  -13.1285  -18.5249 C   0  0  0  0  0  0  0  0  0  0  0  0
   18.5040  -13.6994  -17.4033 C   0  0  0  0  0  0  0  0  0  0  0  0
   19.0204  -12.9571  -16.3610 C   0  0  0  0  0  0  0  0  0  0  0  0
   21.2741   -9.1025  -14.9199 C   0  0  0  0  0  0  0  0  0  0  0  0
   22.0879   -9.2149  -13.9712 O   0  0  0  0  0  0  0  0  0  0  0  0
   20.7365   -7.8165  -15.1736 N   0  0  0  0  0  0  0  0  0  0  0  0
   21.1565   -6.6139  -14.4942 C   0  0  1  0  0  0  0  0  0  0  0  0
   22.6149   -6.3139  -14.8420 C   0  0  0  0  0  0  0  0  0  0  0  0
   23.1179   -4.7468  -14.1225 S   0  0  0  0  0  0  0  0  0  0  0  0
   20.3411   -5.4646  -14.9882 C   0  0  0  0  0  0  0  0  0  0  0  0
   19.9001   -5.4639  -16.1666 O   0  0  0  0  0  0  0  0  0  0  0  0
   20.0364   -4.3661  -14.1909 O   0  0  0  0  0  0  0  0  0  0  0  0
  2  1  1  6
  3  2  1  0
  4  2  1  0
  4  6  1  0
  4  5  1  6
  6  7  2  0
  8  6  1  0
  8  9  1  0
  9 10  1  1
 10 11  1  0
 11 16  2  0
 12 11  1  0
 12 13  2  0
 13 14  1  0
 14 15  2  0
 16 15  1  0
 17  9  1  0
 17 18  2  0
 19 17  1  0
 20 19  1  0
 20 23  1  0
 20 21  1  6
 22 21  1  0
 23 25  1  0
 24 23  2  0
M  END
$$$$
