TFC.pdb
     RDKit          3D

 25 25  0  0  1  0  0  0  0  0999 V2000
   34.0157  -31.9069  -19.8172 C   0  0  0  0  0  0  0  0  0  0  0  0
   34.9122  -30.9391  -19.0649 C   0  0  1  0  0  0  0  0  0  0  0  0
   35.5246  -30.0617  -19.9310 O   0  0  0  0  0  0  0  0  0  0  0  0
   34.0402  -30.1579  -18.1103 C   0  0  2  0  0  0  0  0  0  0  0  0
   34.9143  -29.2955  -17.3071 N   0  0  0  0  0  0  0  0  0  0  0  0
   33.2215  -31.0256  -17.2253 C   0  0  0  0  0  0  0  0  0  0  0  0
   33.6905  -31.5552  -16.1806 O   0  0  0  0  0  0  0  0  0  0  0  0
   31.8847  -31.2738  -17.5448 N   0  0  0  0  0  0  0  0  0  0  0  0
   31.0061  -32.1344  -16.7557 C   0  0  1  0  0  0  0  0  0  0  0  0
   29.5946  -31.5604  -16.9562 C   0  0  0  0  0  0  0  0  0  0  0  0
   28.6017  -32.3249  -16.1818 C   0  0  0  0  0  0  0  0  0  0  0  0
   27.8908  -33.3593  -16.7840 C   0  0  0  0  0  0  0  0  0  0  0  0
   26.9527  -34.0940  -16.0816 C   0  0  0  0  0  0  0  0  0  0  0  0
   26.7329  -33.7788  -14.7594 C   0  0  0  0  0  0  0  0  0  0  0  0
   27.4433  -32.7520  -14.1736 C   0  0  0  0  0  0  0  0  0  0  0  0
   28.3836  -32.0053  -14.8534 C   0  0  0  0  0  0  0  0  0  0  0  0
   31.0552  -33.5305  -17.2046 C   0  0  0  0  0  0  0  0  0  0  0  0
   31.0077  -33.7741  -18.4348 O   0  0  0  0  0  0  0  0  0  0  0  0
   31.1541  -34.6337  -16.3212 N   0  0  0  0  0  0  0  0  0  0  0  0
   31.3552  -35.9982  -16.7477 C   0  0  1  0  0  0  0  0  0  0  0  0
   31.6271  -36.8795  -15.5282 C   0  0  0  0  0  0  0  0  0  0  0  0
   30.2283  -36.8345  -14.4021 S   0  0  0  0  0  0  0  0  0  0  0  0
   30.1004  -36.5006  -17.3826 C   0  0  0  0  0  0  0  0  0  0  0  0
   29.0578  -35.7964  -17.3637 O   0  0  0  0  0  0  0  0  0  0  0  0
   30.0237  -37.7397  -18.0101 O   0  0  0  0  0  0  0  0  0  0  0  0
  2  1  1  6
  3  2  1  0
  4  2  1  0
  4  6  1  0
  4  5  1  1
  6  7  2  0
  8  6  1  0
  8  9  1  0
  9 10  1  6
 10 11  1  0
 11 16  2  0
 12 11  1  0
 12 13  2  0
 13 14  1  0
 14 15  2  0
 16 15  1  0
 17  9  1  0
 17 18  2  0
 19 17  1  0
 20 19  1  0
 20 23  1  0
 20 21  1  1
 22 21  1  0
 23 25  1  0
 24 23  2  0
M  END
$$$$
