TFC.pdb
     RDKit          3D

 25 25  0  0  1  0  0  0  0  0999 V2000
   26.9034  -22.7475  -17.8139 C   0  0  0  0  0  0  0  0  0  0  0  0
   25.5988  -22.6930  -17.0385 C   0  0  1  0  0  0  0  0  0  0  0  0
   24.6573  -23.5249  -17.6010 O   0  0  0  0  0  0  0  0  0  0  0  0
   25.8856  -23.1580  -15.6301 C   0  0  2  0  0  0  0  0  0  0  0  0
   26.2071  -24.5885  -15.6864 N   0  0  0  0  0  0  0  0  0  0  0  0
   24.7547  -22.9224  -14.6965 C   0  0  0  0  0  0  0  0  0  0  0  0
   24.0582  -23.8658  -14.2309 O   0  0  0  0  0  0  0  0  0  0  0  0
   24.4379  -21.6184  -14.3092 N   0  0  0  0  0  0  0  0  0  0  0  0
   23.3600  -21.2847  -13.3809 C   0  0  1  0  0  0  0  0  0  0  0  0
   23.8197  -19.9987  -12.6759 C   0  0  0  0  0  0  0  0  0  0  0  0
   24.4950  -20.3095  -11.4041 C   0  0  0  0  0  0  0  0  0  0  0  0
   25.8471  -20.6407  -11.3928 C   0  0  0  0  0  0  0  0  0  0  0  0
   26.5071  -20.9371  -10.2139 C   0  0  0  0  0  0  0  0  0  0  0  0
   25.7924  -20.8978   -9.0377 C   0  0  0  0  0  0  0  0  0  0  0  0
   24.4534  -20.5683   -9.0614 C   0  0  0  0  0  0  0  0  0  0  0  0
   23.7735  -20.2690  -10.2242 C   0  0  0  0  0  0  0  0  0  0  0  0
   22.0873  -21.0564  -14.0746 C   0  0  0  0  0  0  0  0  0  0  0  0
   22.0577  -20.2543  -15.0393 O   0  0  0  0  0  0  0  0  0  0  0  0
   20.8748  -21.6954  -13.7158 N   0  0  0  0  0  0  0  0  0  0  0  0
   19.6315  -21.5356  -14.4320 C   0  0  1  0  0  0  0  0  0  0  0  0
   18.8263  -22.8330  -14.3528 C   0  0  0  0  0  0  0  0  0  0  0  0
   19.8069  -24.2130  -14.9533 S   0  0  0  0  0  0  0  0  0  0  0  0
   18.8195  -20.4726  -13.7682 C   0  0  0  0  0  0  0  0  0  0  0  0
   17.7069  -20.1354  -14.2495 O   0  0  0  0  0  0  0  0  0  0  0  0
   19.2416  -19.8194  -12.6148 O   0  0  0  0  0  0  0  0  0  0  0  0
  2  1  1  6
  3  2  1  0
  4  2  1  0
  4  6  1  0
  4  5  1  6
  6  7  2  0
  8  6  1  0
  8  9  1  0
  9 10  1  6
 10 11  1  0
 11 16  2  0
 12 11  1  0
 12 13  2  0
 13 14  1  0
 14 15  2  0
 16 15  1  0
 17  9  1  0
 17 18  2  0
 19 17  1  0
 20 19  1  0
 20 23  1  0
 20 21  1  1
 22 21  1  0
 23 25  1  0
 24 23  2  0
M  END
$$$$
