TFC.pdb
     RDKit          3D

 25 25  0  0  1  0  0  0  0  0999 V2000
   23.2828   -7.8239  -22.1408 C   0  0  0  0  0  0  0  0  0  0  0  0
   22.3311   -7.4067  -21.0334 C   0  0  1  0  0  0  0  0  0  0  0  0
   21.0216   -7.5968  -21.4130 O   0  0  0  0  0  0  0  0  0  0  0  0
   22.6238   -8.2722  -19.8305 C   0  0  2  0  0  0  0  0  0  0  0  0
   22.1993   -9.6404  -20.1479 N   0  0  0  0  0  0  0  0  0  0  0  0
   21.9500   -7.7995  -18.5940 C   0  0  0  0  0  0  0  0  0  0  0  0
   20.8919   -8.3311  -18.1585 O   0  0  0  0  0  0  0  0  0  0  0  0
   22.4928   -6.7317  -17.8759 N   0  0  0  0  0  0  0  0  0  0  0  0
   21.9381   -6.2300  -16.6206 C   0  0  1  0  0  0  0  0  0  0  0  0
   23.1390   -6.1113  -15.6688 C   0  0  0  0  0  0  0  0  0  0  0  0
   23.5476   -7.4360  -15.1710 C   0  0  0  0  0  0  0  0  0  0  0  0
   22.7941   -8.0786  -14.1925 C   0  0  0  0  0  0  0  0  0  0  0  0
   23.1538   -9.3226  -13.7064 C   0  0  0  0  0  0  0  0  0  0  0  0
   24.2851   -9.9204  -14.2150 C   0  0  0  0  0  0  0  0  0  0  0  0
   25.0236   -9.2741  -15.1841 C   0  0  0  0  0  0  0  0  0  0  0  0
   24.6851   -8.0336  -15.6845 C   0  0  0  0  0  0  0  0  0  0  0  0
   21.2915   -4.9235  -16.7879 C   0  0  0  0  0  0  0  0  0  0  0  0
   21.7057   -4.1525  -17.6873 O   0  0  0  0  0  0  0  0  0  0  0  0
   20.2141   -4.4748  -15.9847 N   0  0  0  0  0  0  0  0  0  0  0  0
   19.4397   -3.2872  -16.2571 C   0  0  1  0  0  0  0  0  0  0  0  0
   18.7433   -3.4311  -17.6107 C   0  0  0  0  0  0  0  0  0  0  0  0
   17.7348   -1.9840  -17.9500 S   0  0  0  0  0  0  0  0  0  0  0  0
   18.3698   -3.1550  -15.2237 C   0  0  0  0  0  0  0  0  0  0  0  0
   17.5904   -4.1160  -14.9957 O   0  0  0  0  0  0  0  0  0  0  0  0
   18.1865   -1.9930  -14.4812 O   0  0  0  0  0  0  0  0  0  0  0  0
  2  1  1  6
  3  2  1  0
  4  2  1  0
  4  6  1  0
  4  5  1  6
  6  7  2  0
  8  6  1  0
  8  9  1  0
  9 10  1  1
 10 11  1  0
 11 16  2  0
 12 11  1  0
 12 13  2  0
 13 14  1  0
 14 15  2  0
 16 15  1  0
 17  9  1  0
 17 18  2  0
 19 17  1  0
 20 19  1  0
 20 23  1  0
 20 21  1  6
 22 21  1  0
 23 25  1  0
 24 23  2  0
M  END
$$$$
