TFC.pdb
     RDKit          3D

 25 25  0  0  1  0  0  0  0  0999 V2000
   20.7991  -14.0760  -16.2746 C   0  0  0  0  0  0  0  0  0  0  0  0
   20.9060  -12.6107  -16.6586 C   0  0  1  0  0  0  0  0  0  0  0  0
   21.6815  -12.4528  -17.7850 O   0  0  0  0  0  0  0  0  0  0  0  0
   19.5099  -12.1128  -16.9504 C   0  0  2  0  0  0  0  0  0  0  0  0
   19.0631  -12.7365  -18.2011 N   0  0  0  0  0  0  0  0  0  0  0  0
   19.4286  -10.6335  -17.0569 C   0  0  0  0  0  0  0  0  0  0  0  0
   19.3521  -10.0417  -18.1685 O   0  0  0  0  0  0  0  0  0  0  0  0
   19.4350   -9.8555  -15.8970 N   0  0  0  0  0  0  0  0  0  0  0  0
   19.4045   -8.3945  -15.8974 C   0  0  1  0  0  0  0  0  0  0  0  0
   18.0522   -8.0201  -15.2704 C   0  0  0  0  0  0  0  0  0  0  0  0
   16.9855   -8.0152  -16.2864 C   0  0  0  0  0  0  0  0  0  0  0  0
   16.8672   -6.9469  -17.1712 C   0  0  0  0  0  0  0  0  0  0  0  0
   15.8757   -6.9154  -18.1351 C   0  0  0  0  0  0  0  0  0  0  0  0
   14.9974   -7.9736  -18.2035 C   0  0  0  0  0  0  0  0  0  0  0  0
   15.1246   -9.0263  -17.3215 C   0  0  0  0  0  0  0  0  0  0  0  0
   16.1049   -9.0804  -16.3520 C   0  0  0  0  0  0  0  0  0  0  0  0
   20.5041   -7.8210  -15.1132 C   0  0  0  0  0  0  0  0  0  0  0  0
   20.6969   -8.2365  -13.9447 O   0  0  0  0  0  0  0  0  0  0  0  0
   21.3719   -6.8136  -15.6023 N   0  0  0  0  0  0  0  0  0  0  0  0
   22.5460   -6.3462  -14.9043 C   0  0  1  0  0  0  0  0  0  0  0  0
   23.4365   -5.5638  -15.8702 C   0  0  0  0  0  0  0  0  0  0  0  0
   23.9805   -6.6239  -17.2144 S   0  0  0  0  0  0  0  0  0  0  0  0
   22.1285   -5.4004  -13.8268 C   0  0  0  0  0  0  0  0  0  0  0  0
   21.1230   -4.6619  -13.9900 O   0  0  0  0  0  0  0  0  0  0  0  0
   22.8126   -5.2916  -12.6204 O   0  0  0  0  0  0  0  0  0  0  0  0
  2  1  1  6
  3  2  1  0
  4  2  1  0
  4  6  1  0
  4  5  1  6
  6  7  2  0
  8  6  1  0
  8  9  1  0
  9 10  1  1
 10 11  1  0
 11 16  2  0
 12 11  1  0
 12 13  2  0
 13 14  1  0
 14 15  2  0
 16 15  1  0
 17  9  1  0
 17 18  2  0
 19 17  1  0
 20 19  1  0
 20 23  1  0
 20 21  1  6
 22 21  1  0
 23 25  1  0
 24 23  2  0
M  END
$$$$
