TFC.pdb
     RDKit          3D

 25 25  0  0  1  0  0  0  0  0999 V2000
   26.8155  -19.6799  -17.3001 C   0  0  0  0  0  0  0  0  0  0  0  0
   27.2513  -21.0310  -17.8395 C   0  0  1  0  0  0  0  0  0  0  0  0
   28.1562  -20.8819  -18.8661 O   0  0  0  0  0  0  0  0  0  0  0  0
   27.9126  -21.7820  -16.7078 C   0  0  2  0  0  0  0  0  0  0  0  0
   28.3178  -23.0968  -17.2178 N   0  0  0  0  0  0  0  0  0  0  0  0
   27.0336  -21.9405  -15.5209 C   0  0  0  0  0  0  0  0  0  0  0  0
   25.9947  -22.6561  -15.5432 O   0  0  0  0  0  0  0  0  0  0  0  0
   27.3533  -21.2829  -14.3310 N   0  0  0  0  0  0  0  0  0  0  0  0
   26.5009  -21.2885  -13.1441 C   0  0  1  0  0  0  0  0  0  0  0  0
   27.3514  -20.6494  -12.0349 C   0  0  0  0  0  0  0  0  0  0  0  0
   26.5978  -20.5765  -10.7713 C   0  0  0  0  0  0  0  0  0  0  0  0
   26.4992  -19.3697  -10.0843 C   0  0  0  0  0  0  0  0  0  0  0  0
   25.7983  -19.2716   -8.8959 C   0  0  0  0  0  0  0  0  0  0  0  0
   25.1926  -20.4041   -8.3995 C   0  0  0  0  0  0  0  0  0  0  0  0
   25.2971  -21.5940   -9.0890 C   0  0  0  0  0  0  0  0  0  0  0  0
   25.9904  -21.7166  -10.2757 C   0  0  0  0  0  0  0  0  0  0  0  0
   25.2692  -20.5174  -13.3477 C   0  0  0  0  0  0  0  0  0  0  0  0
   25.3444  -19.3836  -13.8804 O   0  0  0  0  0  0  0  0  0  0  0  0
   23.9841  -20.9824  -12.9741 N   0  0  0  0  0  0  0  0  0  0  0  0
   22.7586  -20.2578  -13.2139 C   0  0  1  0  0  0  0  0  0  0  0  0
   22.4145  -20.3155  -14.7026 C   0  0  0  0  0  0  0  0  0  0  0  0
   20.7637  -19.6666  -14.9865 S   0  0  0  0  0  0  0  0  0  0  0  0
   21.6445  -20.9271  -12.4786 C   0  0  0  0  0  0  0  0  0  0  0  0
   21.6045  -22.1822  -12.3998 O   0  0  0  0  0  0  0  0  0  0  0  0
   20.6221  -20.2148  -11.8601 O   0  0  0  0  0  0  0  0  0  0  0  0
  2  1  1  1
  3  2  1  0
  4  2  1  0
  4  6  1  0
  4  5  1  6
  6  7  2  0
  8  6  1  0
  8  9  1  0
  9 10  1  1
 10 11  1  0
 11 16  2  0
 12 11  1  0
 12 13  2  0
 13 14  1  0
 14 15  2  0
 16 15  1  0
 17  9  1  0
 17 18  2  0
 19 17  1  0
 20 19  1  0
 20 23  1  0
 20 21  1  6
 22 21  1  0
 23 25  1  0
 24 23  2  0
M  END
$$$$
