TFC.pdb
     RDKit          3D

 25 25  0  0  1  0  0  0  0  0999 V2000
   18.0636   -9.6171  -18.0090 C   0  0  0  0  0  0  0  0  0  0  0  0
   17.5026  -10.5997  -16.9961 C   0  0  1  0  0  0  0  0  0  0  0  0
   16.3755  -11.2204  -17.4854 O   0  0  0  0  0  0  0  0  0  0  0  0
   18.5639  -11.6430  -16.7368 C   0  0  2  0  0  0  0  0  0  0  0  0
   17.9754  -12.6788  -15.8803 N   0  0  0  0  0  0  0  0  0  0  0  0
   19.7864  -11.0862  -16.1030 C   0  0  0  0  0  0  0  0  0  0  0  0
   19.8329  -10.7865  -14.8783 O   0  0  0  0  0  0  0  0  0  0  0  0
   20.9330  -10.8818  -16.8737 N   0  0  0  0  0  0  0  0  0  0  0  0
   22.1739  -10.3140  -16.3511 C   0  0  1  0  0  0  0  0  0  0  0  0
   23.2989  -11.0943  -17.0494 C   0  0  0  0  0  0  0  0  0  0  0  0
   24.6207  -10.6320  -16.5924 C   0  0  0  0  0  0  0  0  0  0  0  0
   25.1415  -11.0866  -15.3840 C   0  0  0  0  0  0  0  0  0  0  0  0
   26.3797  -10.6697  -14.9300 C   0  0  0  0  0  0  0  0  0  0  0  0
   27.0960   -9.7858  -15.7055 C   0  0  0  0  0  0  0  0  0  0  0  0
   26.5698   -9.3424  -16.9008 C   0  0  0  0  0  0  0  0  0  0  0  0
   25.3376   -9.7437  -17.3745 C   0  0  0  0  0  0  0  0  0  0  0  0
   22.2906   -8.8814  -16.6460 C   0  0  0  0  0  0  0  0  0  0  0  0
   22.1962   -8.4976  -17.8372 O   0  0  0  0  0  0  0  0  0  0  0  0
   22.5061   -7.8931  -15.6540 N   0  0  0  0  0  0  0  0  0  0  0  0
   22.5562   -6.4750  -15.9200 C   0  0  1  0  0  0  0  0  0  0  0  0
   21.1360   -5.9405  -16.1079 C   0  0  0  0  0  0  0  0  0  0  0  0
   20.5002   -6.4129  -17.7201 S   0  0  0  0  0  0  0  0  0  0  0  0
   23.1358   -5.7766  -14.7342 C   0  0  0  0  0  0  0  0  0  0  0  0
   23.4388   -6.4302  -13.7026 O   0  0  0  0  0  0  0  0  0  0  0  0
   23.3636   -4.4045  -14.7116 O   0  0  0  0  0  0  0  0  0  0  0  0
  2  1  1  6
  3  2  1  0
  4  2  1  0
  4  6  1  0
  4  5  1  1
  6  7  2  0
  8  6  1  0
  8  9  1  0
  9 10  1  6
 10 11  1  0
 11 16  2  0
 12 11  1  0
 12 13  2  0
 13 14  1  0
 14 15  2  0
 16 15  1  0
 17  9  1  0
 17 18  2  0
 19 17  1  0
 20 19  1  0
 20 23  1  0
 20 21  1  1
 22 21  1  0
 23 25  1  0
 24 23  2  0
M  END
$$$$
