TFC.pdb
     RDKit          3D

 25 25  0  0  1  0  0  0  0  0999 V2000
   35.4879  -26.8670  -18.9067 C   0  0  0  0  0  0  0  0  0  0  0  0
   35.5984  -28.3538  -18.6177 C   0  0  1  0  0  0  0  0  0  0  0  0
   35.3571  -29.0945  -19.7526 O   0  0  0  0  0  0  0  0  0  0  0  0
   37.0082  -28.6231  -18.1465 C   0  0  2  0  0  0  0  0  0  0  0  0
   37.9008  -28.4931  -19.3037 N   0  0  0  0  0  0  0  0  0  0  0  0
   37.1687  -29.9613  -17.5222 C   0  0  0  0  0  0  0  0  0  0  0  0
   37.5706  -30.9643  -18.1736 O   0  0  0  0  0  0  0  0  0  0  0  0
   36.8699  -30.1332  -16.1687 N   0  0  0  0  0  0  0  0  0  0  0  0
   36.9605  -31.4145  -15.4720 C   0  0  1  0  0  0  0  0  0  0  0  0
   37.8632  -31.1488  -14.2568 C   0  0  0  0  0  0  0  0  0  0  0  0
   39.2817  -31.1194  -14.6526 C   0  0  0  0  0  0  0  0  0  0  0  0
   40.0278  -32.2947  -14.6695 C   0  0  0  0  0  0  0  0  0  0  0  0
   41.3613  -32.2971  -15.0367 C   0  0  0  0  0  0  0  0  0  0  0  0
   41.9437  -31.1004  -15.3895 C   0  0  0  0  0  0  0  0  0  0  0  0
   41.1946  -29.9425  -15.3690 C   0  0  0  0  0  0  0  0  0  0  0  0
   39.8635  -29.9149  -15.0065 C   0  0  0  0  0  0  0  0  0  0  0  0
   35.6460  -31.8961  -15.0327 C   0  0  0  0  0  0  0  0  0  0  0  0
   34.8497  -31.0851  -14.5005 O   0  0  0  0  0  0  0  0  0  0  0  0
   35.2167  -33.2387  -15.1752 N   0  0  0  0  0  0  0  0  0  0  0  0
   33.8371  -33.6371  -15.3241 C   0  0  1  0  0  0  0  0  0  0  0  0
   33.2065  -32.8690  -16.4862 C   0  0  0  0  0  0  0  0  0  0  0  0
   31.4683  -33.2936  -16.6440 S   0  0  0  0  0  0  0  0  0  0  0  0
   33.7835  -35.0876  -15.6749 C   0  0  0  0  0  0  0  0  0  0  0  0
   34.6848  -35.5979  -16.3892 O   0  0  0  0  0  0  0  0  0  0  0  0
   32.7610  -35.9250  -15.2406 O   0  0  0  0  0  0  0  0  0  0  0  0
  2  1  1  6
  3  2  1  0
  4  2  1  0
  4  6  1  0
  4  5  1  6
  6  7  2  0
  8  6  1  0
  8  9  1  0
  9 10  1  1
 10 11  1  0
 11 16  2  0
 12 11  1  0
 12 13  2  0
 13 14  1  0
 14 15  2  0
 16 15  1  0
 17  9  1  0
 17 18  2  0
 19 17  1  0
 20 19  1  0
 20 23  1  0
 20 21  1  6
 22 21  1  0
 23 25  1  0
 24 23  2  0
M  END
$$$$
