MVE.pdb
     RDKit          3D

 25 24  0  0  1  0  0  0  0  0999 V2000
   24.0923  -20.1181   -8.7822 C   0  0  0  0  0  0  0  0  0  0  0  0
   25.7901  -20.6002   -8.7588 S   0  0  0  0  0  0  0  0  0  0  0  0
   26.5405  -21.0769  -10.2928 C   0  0  0  0  0  0  0  0  0  0  0  0
   25.6083  -21.2310  -11.4174 C   0  0  0  0  0  0  0  0  0  0  0  0
   26.1242  -21.6405  -12.7342 C   0  0  2  0  0  0  0  0  0  0  0  0
   27.2527  -20.9510  -13.2511 N   0  0  0  0  0  0  0  0  0  0  0  0
   25.0310  -21.7012  -13.7259 C   0  0  0  0  0  0  0  0  0  0  0  0
   24.8171  -20.8192  -14.6120 O   0  0  0  0  0  0  0  0  0  0  0  0
   22.3529  -25.0321  -16.1560 C   0  0  0  0  0  0  0  0  0  0  0  0
   23.3786  -24.5164  -15.1811 C   0  0  1  0  0  0  0  0  0  0  0  0
   24.7405  -24.8017  -15.7383 C   0  0  0  0  0  0  0  0  0  0  0  0
   23.2148  -23.0417  -14.8801 C   0  0  2  0  0  0  0  0  0  0  0  0
   24.1224  -22.8010  -13.7398 N   0  0  0  0  0  0  0  0  0  0  0  0
   21.8573  -22.7148  -14.4259 C   0  0  0  0  0  0  0  0  0  0  0  0
   21.4427  -23.2301  -13.3277 O   0  0  0  0  0  0  0  0  0  0  0  0
   20.9487  -21.8706  -15.0948 N   0  0  0  0  0  0  0  0  0  0  0  0
   19.6259  -21.6078  -14.5314 C   0  0  1  0  0  0  0  0  0  0  0  0
   19.1100  -20.3144  -15.0825 C   0  0  0  0  0  0  0  0  0  0  0  0
   17.7009  -19.9801  -14.7457 C   0  0  0  0  0  0  0  0  0  0  0  0
   17.2644  -18.7726  -15.5399 C   0  0  0  0  0  0  0  0  0  0  0  0
   18.0788  -18.2104  -16.3104 O   0  0  0  0  0  0  0  0  0  0  0  0
   18.7335  -22.7622  -14.7046 C   0  0  0  0  0  0  0  0  0  0  0  0
   17.9103  -23.0572  -13.8034 O   0  0  0  0  0  0  0  0  0  0  0  0
   15.9854  -18.2508  -15.4537 O   0  0  0  0  0  0  0  0  0  0  0  0
   18.7613  -23.5486  -15.8359 O   0  0  0  0  0  0  0  0  0  0  0  0
  2  1  1  0
  3  2  1  0
  4  3  1  0
  5  7  1  0
  5  4  1  0
  5  6  1  6
  7  8  2  0
 10 12  1  0
 10  9  1  6
 11 10  1  0
 12 13  1  1
 13  7  1  0
 14 15  2  0
 14 12  1  0
 16 14  1  0
 17 22  1  0
 17 16  1  0
 17 18  1  6
 19 18  1  0
 20 19  1  0
 21 20  2  0
 22 25  1  0
 23 22  2  0
 24 20  1  0
M  END
$$$$
