MVE.pdb
     RDKit          3D

 25 24  0  0  1  0  0  0  0  0999 V2000
   27.3410  -13.1543  -14.6740 C   0  0  0  0  0  0  0  0  0  0  0  0
   26.8124  -14.6891  -15.3673 S   0  0  0  0  0  0  0  0  0  0  0  0
   25.0816  -14.9058  -15.6855 C   0  0  0  0  0  0  0  0  0  0  0  0
   24.4058  -13.7352  -16.2603 C   0  0  0  0  0  0  0  0  0  0  0  0
   23.8459  -13.8178  -17.6195 C   0  0  2  0  0  0  0  0  0  0  0  0
   24.6874  -14.2961  -18.6584 N   0  0  0  0  0  0  0  0  0  0  0  0
   23.2000  -12.5435  -17.9950 C   0  0  0  0  0  0  0  0  0  0  0  0
   23.7505  -11.6392  -18.6936 O   0  0  0  0  0  0  0  0  0  0  0  0
   18.8874  -10.4802  -18.9480 C   0  0  0  0  0  0  0  0  0  0  0  0
   19.9064  -11.5590  -18.6909 C   0  0  1  0  0  0  0  0  0  0  0  0
   20.2275  -12.2218  -19.9964 C   0  0  0  0  0  0  0  0  0  0  0  0
   21.1620  -11.0356  -18.0262 C   0  0  2  0  0  0  0  0  0  0  0  0
   21.8681  -12.2522  -17.5751 N   0  0  0  0  0  0  0  0  0  0  0  0
   20.8662  -10.2406  -16.8277 C   0  0  0  0  0  0  0  0  0  0  0  0
   20.4061  -10.8450  -15.7951 O   0  0  0  0  0  0  0  0  0  0  0  0
   21.0445   -8.8485  -16.7012 N   0  0  0  0  0  0  0  0  0  0  0  0
   20.6879   -8.1635  -15.4603 C   0  0  1  0  0  0  0  0  0  0  0  0
   21.5926   -6.9841  -15.2777 C   0  0  0  0  0  0  0  0  0  0  0  0
   21.2590   -6.0776  -14.1474 C   0  0  0  0  0  0  0  0  0  0  0  0
   22.2498   -4.9393  -14.1032 C   0  0  0  0  0  0  0  0  0  0  0  0
   23.3645   -5.0662  -14.6638 O   0  0  0  0  0  0  0  0  0  0  0  0
   19.2504   -7.8631  -15.4110 C   0  0  0  0  0  0  0  0  0  0  0  0
   18.6408   -7.5480  -16.4626 O   0  0  0  0  0  0  0  0  0  0  0  0
   21.9777   -3.7436  -13.4615 O   0  0  0  0  0  0  0  0  0  0  0  0
   18.5294   -7.9148  -14.2377 O   0  0  0  0  0  0  0  0  0  0  0  0
  2  1  1  0
  3  2  1  0
  4  3  1  0
  5  7  1  0
  5  4  1  0
  5  6  1  6
  7  8  2  0
 10 12  1  0
 10  9  1  6
 11 10  1  0
 12 13  1  1
 13  7  1  0
 14 15  2  0
 14 12  1  0
 16 14  1  0
 17 22  1  0
 17 16  1  0
 17 18  1  6
 19 18  1  0
 20 19  1  0
 21 20  2  0
 22 25  1  0
 23 22  2  0
 24 20  1  0
M  END
$$$$
