MVE.pdb
     RDKit          3D

 25 24  0  0  1  0  0  0  0  0999 V2000
   27.7651  -11.8886  -15.2790 C   0  0  0  0  0  0  0  0  0  0  0  0
   27.1818  -13.4907  -14.8222 S   0  0  0  0  0  0  0  0  0  0  0  0
   25.7939  -14.1532  -15.7044 C   0  0  0  0  0  0  0  0  0  0  0  0
   24.8635  -13.1503  -16.2395 C   0  0  0  0  0  0  0  0  0  0  0  0
   23.6787  -13.5920  -16.9939 C   0  0  2  0  0  0  0  0  0  0  0  0
   23.8697  -14.5243  -18.0477 N   0  0  0  0  0  0  0  0  0  0  0  0
   22.8837  -12.4304  -17.4417 C   0  0  0  0  0  0  0  0  0  0  0  0
   23.0845  -11.7978  -18.5225 O   0  0  0  0  0  0  0  0  0  0  0  0
   18.5165  -10.2993  -17.2340 C   0  0  0  0  0  0  0  0  0  0  0  0
   19.5809  -11.3642  -17.2005 C   0  0  1  0  0  0  0  0  0  0  0  0
   19.4430  -12.2043  -18.4342 C   0  0  0  0  0  0  0  0  0  0  0  0
   20.9791  -10.7948  -17.0867 C   0  0  2  0  0  0  0  0  0  0  0  0
   21.8031  -11.9403  -16.6495 N   0  0  0  0  0  0  0  0  0  0  0  0
   21.0782   -9.7695  -16.0404 C   0  0  0  0  0  0  0  0  0  0  0  0
   20.9942  -10.1399  -14.8160 O   0  0  0  0  0  0  0  0  0  0  0  0
   21.2615   -8.3893  -16.2579 N   0  0  0  0  0  0  0  0  0  0  0  0
   21.3812   -7.4688  -15.1290 C   0  0  1  0  0  0  0  0  0  0  0  0
   22.0759   -6.2238  -15.5874 C   0  0  0  0  0  0  0  0  0  0  0  0
   22.1762   -5.1290  -14.5863 C   0  0  0  0  0  0  0  0  0  0  0  0
   22.7907   -3.9099  -15.2307 C   0  0  0  0  0  0  0  0  0  0  0  0
   22.2204   -2.7981  -15.1226 O   0  0  0  0  0  0  0  0  0  0  0  0
   20.0831   -7.2561  -14.4741 C   0  0  0  0  0  0  0  0  0  0  0  0
   20.0103   -7.2388  -13.2207 O   0  0  0  0  0  0  0  0  0  0  0  0
   23.9741   -3.9661  -15.9464 O   0  0  0  0  0  0  0  0  0  0  0  0
   18.9208   -7.0703  -15.1909 O   0  0  0  0  0  0  0  0  0  0  0  0
  2  1  1  0
  3  2  1  0
  4  3  1  0
  5  7  1  0
  5  4  1  0
  5  6  1  6
  7  8  2  0
 10 12  1  0
 10  9  1  6
 11 10  1  0
 12 13  1  1
 13  7  1  0
 14 15  2  0
 14 12  1  0
 16 14  1  0
 17 22  1  0
 17 16  1  0
 17 18  1  6
 19 18  1  0
 20 19  1  0
 21 20  2  0
 22 25  1  0
 23 22  2  0
 24 20  1  0
M  END
$$$$
