MVE.pdb
     RDKit          3D

 25 24  0  0  1  0  0  0  0  0999 V2000
   23.7948  -25.8533  -14.7176 C   0  0  0  0  0  0  0  0  0  0  0  0
   24.2697  -24.2561  -14.1352 S   0  0  0  0  0  0  0  0  0  0  0  0
   23.0910  -23.3330  -13.1852 C   0  0  0  0  0  0  0  0  0  0  0  0
   23.5115  -21.9712  -12.8300 C   0  0  0  0  0  0  0  0  0  0  0  0
   24.9429  -21.6813  -12.6430 C   0  0  2  0  0  0  0  0  0  0  0  0
   25.4984  -21.8756  -11.3508 N   0  0  0  0  0  0  0  0  0  0  0  0
   25.2777  -20.3452  -13.1765 C   0  0  0  0  0  0  0  0  0  0  0  0
   25.1842  -19.2658  -12.5170 O   0  0  0  0  0  0  0  0  0  0  0  0
   27.7819  -17.7920  -16.5244 C   0  0  0  0  0  0  0  0  0  0  0  0
   27.4036  -18.9720  -15.6685 C   0  0  1  0  0  0  0  0  0  0  0  0
   28.4190  -19.1022  -14.5737 C   0  0  0  0  0  0  0  0  0  0  0  0
   26.0050  -18.8615  -15.0995 C   0  0  2  0  0  0  0  0  0  0  0  0
   25.7441  -20.1933  -14.5161 N   0  0  0  0  0  0  0  0  0  0  0  0
   24.9958  -18.6440  -16.1436 C   0  0  0  0  0  0  0  0  0  0  0  0
   24.8354  -19.5529  -17.0333 O   0  0  0  0  0  0  0  0  0  0  0  0
   24.1692  -17.5090  -16.2629 N   0  0  0  0  0  0  0  0  0  0  0  0
   23.0705  -17.4880  -17.2265 C   0  0  1  0  0  0  0  0  0  0  0  0
   21.7762  -17.6618  -16.4933 C   0  0  0  0  0  0  0  0  0  0  0  0
   20.5537  -17.7216  -17.3374 C   0  0  0  0  0  0  0  0  0  0  0  0
   19.3292  -17.7170  -16.4543 C   0  0  0  0  0  0  0  0  0  0  0  0
   18.6038  -18.7384  -16.3958 O   0  0  0  0  0  0  0  0  0  0  0  0
   23.1443  -16.3044  -18.0940 C   0  0  0  0  0  0  0  0  0  0  0  0
   23.6848  -15.2524  -17.6721 O   0  0  0  0  0  0  0  0  0  0  0  0
   18.9666  -16.6183  -15.6947 O   0  0  0  0  0  0  0  0  0  0  0  0
   22.6371  -16.3004  -19.3754 O   0  0  0  0  0  0  0  0  0  0  0  0
  2  1  1  0
  3  2  1  0
  4  3  1  0
  5  7  1  0
  5  4  1  0
  5  6  1  1
  7  8  2  0
 10 12  1  0
 10  9  1  1
 11 10  1  0
 12 13  1  6
 13  7  1  0
 14 15  2  0
 14 12  1  0
 16 14  1  0
 17 22  1  0
 17 16  1  0
 17 18  1  1
 19 18  1  0
 20 19  1  0
 21 20  2  0
 22 25  1  0
 23 22  2  0
 24 20  1  0
M  END
$$$$
