MVE.pdb
     RDKit          3D

 25 24  0  0  1  0  0  0  0  0999 V2000
   13.5543  -15.9069    9.7792 C   0  0  0  0  0  0  0  0  0  0  0  0
   12.7864  -15.4315    8.2626 S   0  0  0  0  0  0  0  0  0  0  0  0
   13.7158  -15.6210    6.7646 C   0  0  0  0  0  0  0  0  0  0  0  0
   15.1602  -15.3892    6.8978 C   0  0  0  0  0  0  0  0  0  0  0  0
   16.0147  -15.4395    5.6999 C   0  0  2  0  0  0  0  0  0  0  0  0
   15.9669  -16.6092    4.8964 N   0  0  0  0  0  0  0  0  0  0  0  0
   17.4061  -15.0758    6.0371 C   0  0  0  0  0  0  0  0  0  0  0  0
   18.3975  -15.8601    5.9332 O   0  0  0  0  0  0  0  0  0  0  0  0
   20.4143  -11.1903    6.6202 C   0  0  0  0  0  0  0  0  0  0  0  0
   19.1621  -11.9236    6.2172 C   0  0  1  0  0  0  0  0  0  0  0  0
   19.0678  -11.9040    4.7214 C   0  0  0  0  0  0  0  0  0  0  0  0
   19.1158  -13.3422    6.7440 C   0  0  2  0  0  0  0  0  0  0  0  0
   17.7202  -13.7690    6.5156 N   0  0  0  0  0  0  0  0  0  0  0  0
   19.3536  -13.4054    8.1916 C   0  0  0  0  0  0  0  0  0  0  0  0
   18.4179  -13.0210    8.9790 O   0  0  0  0  0  0  0  0  0  0  0  0
   20.5357  -13.8585    8.8105 N   0  0  0  0  0  0  0  0  0  0  0  0
   20.6334  -13.9239   10.2673 C   0  0  1  0  0  0  0  0  0  0  0  0
   20.3724  -15.3305   10.7102 C   0  0  0  0  0  0  0  0  0  0  0  0
   20.4070  -15.5672   12.1777 C   0  0  0  0  0  0  0  0  0  0  0  0
   20.2413  -17.0418   12.4558 C   0  0  0  0  0  0  0  0  0  0  0  0
   19.2074  -17.4504   13.0363 O   0  0  0  0  0  0  0  0  0  0  0  0
   21.8956  -13.3418   10.7440 C   0  0  0  0  0  0  0  0  0  0  0  0
   22.8986  -13.3194    9.9889 O   0  0  0  0  0  0  0  0  0  0  0  0
   21.1949  -17.9769   12.0925 O   0  0  0  0  0  0  0  0  0  0  0  0
   22.0270  -12.8082   12.0078 O   0  0  0  0  0  0  0  0  0  0  0  0
  2  1  1  0
  3  2  1  0
  4  3  1  0
  5  7  1  0
  5  4  1  0
  5  6  1  1
  7  8  2  0
 10 12  1  0
 10  9  1  6
 11 10  1  0
 12 13  1  1
 13  7  1  0
 14 15  2  0
 14 12  1  0
 16 14  1  0
 17 22  1  0
 17 16  1  0
 17 18  1  6
 19 18  1  0
 20 19  1  0
 21 20  2  0
 22 25  1  0
 23 22  2  0
 24 20  1  0
M  END
$$$$
