MVE.pdb
     RDKit          3D

 25 24  0  0  1  0  0  0  0  0999 V2000
   16.5829  -11.8274  -20.4186 C   0  0  0  0  0  0  0  0  0  0  0  0
   16.2803  -13.3289  -19.5415 S   0  0  0  0  0  0  0  0  0  0  0  0
   17.5579  -13.9412  -18.4753 C   0  0  0  0  0  0  0  0  0  0  0  0
   18.0578  -12.9749  -17.4885 C   0  0  0  0  0  0  0  0  0  0  0  0
   19.1573  -13.3622  -16.5890 C   0  0  2  0  0  0  0  0  0  0  0  0
   19.0136  -14.5591  -15.8388 N   0  0  0  0  0  0  0  0  0  0  0  0
   19.5462  -12.2295  -15.7243 C   0  0  0  0  0  0  0  0  0  0  0  0
   19.0265  -11.9782  -14.5948 O   0  0  0  0  0  0  0  0  0  0  0  0
   23.0275   -8.8427  -14.8162 C   0  0  0  0  0  0  0  0  0  0  0  0
   22.4479  -10.1294  -15.3422 C   0  0  1  0  0  0  0  0  0  0  0  0
   23.0141  -11.2617  -14.5397 C   0  0  0  0  0  0  0  0  0  0  0  0
   20.9344  -10.1483  -15.3123 C   0  0  2  0  0  0  0  0  0  0  0  0
   20.5697  -11.3226  -16.1309 N   0  0  0  0  0  0  0  0  0  0  0  0
   20.3509   -8.9702  -15.9661 C   0  0  0  0  0  0  0  0  0  0  0  0
   20.5599   -8.8045  -17.2201 O   0  0  0  0  0  0  0  0  0  0  0  0
   19.5662   -7.9848  -15.3344 N   0  0  0  0  0  0  0  0  0  0  0  0
   19.1200   -6.8047  -16.0722 C   0  0  1  0  0  0  0  0  0  0  0  0
   17.7741   -6.3914  -15.5619 C   0  0  0  0  0  0  0  0  0  0  0  0
   17.2172   -5.1385  -16.1371 C   0  0  0  0  0  0  0  0  0  0  0  0
   15.9099   -4.8081  -15.4579 C   0  0  0  0  0  0  0  0  0  0  0  0
   15.8446   -4.8104  -14.2055 O   0  0  0  0  0  0  0  0  0  0  0  0
   20.1438   -5.7507  -16.0623 C   0  0  0  0  0  0  0  0  0  0  0  0
   20.9262   -5.6478  -15.0856 O   0  0  0  0  0  0  0  0  0  0  0  0
   14.7629   -4.4981  -16.1678 O   0  0  0  0  0  0  0  0  0  0  0  0
   20.2849   -4.8544  -17.0996 O   0  0  0  0  0  0  0  0  0  0  0  0
  2  1  1  0
  3  2  1  0
  4  3  1  0
  5  7  1  0
  5  4  1  0
  5  6  1  1
  7  8  2  0
 10 12  1  0
 10  9  1  1
 11 10  1  0
 12 13  1  6
 13  7  1  0
 14 15  2  0
 14 12  1  0
 16 14  1  0
 17 22  1  0
 17 16  1  0
 17 18  1  1
 19 18  1  0
 20 19  1  0
 21 20  2  0
 22 25  1  0
 23 22  2  0
 24 20  1  0
M  END
$$$$
