MVE.pdb
     RDKit          3D

 25 24  0  0  1  0  0  0  0  0999 V2000
   27.3023  -18.2610   -5.2955 C   0  0  0  0  0  0  0  0  0  0  0  0
   28.5503  -19.4566   -5.6541 S   0  0  0  0  0  0  0  0  0  0  0  0
   28.2105  -20.6630   -6.9082 C   0  0  0  0  0  0  0  0  0  0  0  0
   27.3663  -20.1882   -8.0125 C   0  0  0  0  0  0  0  0  0  0  0  0
   27.0463  -21.1007   -9.1228 C   0  0  2  0  0  0  0  0  0  0  0  0
   28.1121  -21.8284   -9.7150 N   0  0  0  0  0  0  0  0  0  0  0  0
   26.2329  -20.4115  -10.1453 C   0  0  0  0  0  0  0  0  0  0  0  0
   26.4456  -19.2297  -10.5538 O   0  0  0  0  0  0  0  0  0  0  0  0
   24.8657  -21.6790  -14.4298 C   0  0  0  0  0  0  0  0  0  0  0  0
   25.3632  -21.7179  -13.0089 C   0  0  1  0  0  0  0  0  0  0  0  0
   26.8433  -21.4813  -13.0234 C   0  0  0  0  0  0  0  0  0  0  0  0
   24.6638  -20.7177  -12.1131 C   0  0  2  0  0  0  0  0  0  0  0  0
   25.1207  -21.0670  -10.7525 N   0  0  0  0  0  0  0  0  0  0  0  0
   23.2046  -20.8802  -12.1318 C   0  0  0  0  0  0  0  0  0  0  0  0
   22.6992  -21.9048  -11.5503 O   0  0  0  0  0  0  0  0  0  0  0  0
   22.2880  -19.9991  -12.7394 N   0  0  0  0  0  0  0  0  0  0  0  0
   20.8648  -20.3276  -12.7918 C   0  0  1  0  0  0  0  0  0  0  0  0
   20.1008  -19.1154  -13.2272 C   0  0  0  0  0  0  0  0  0  0  0  0
   20.2239  -17.9201  -12.3515 C   0  0  0  0  0  0  0  0  0  0  0  0
   19.0541  -16.9961  -12.5906 C   0  0  0  0  0  0  0  0  0  0  0  0
   18.5172  -16.4122  -11.6191 O   0  0  0  0  0  0  0  0  0  0  0  0
   20.6258  -21.5380  -13.5899 C   0  0  0  0  0  0  0  0  0  0  0  0
   21.3345  -21.7713  -14.5999 O   0  0  0  0  0  0  0  0  0  0  0  0
   18.5404  -16.7613  -13.8542 O   0  0  0  0  0  0  0  0  0  0  0  0
   19.6391  -22.4454  -13.2701 O   0  0  0  0  0  0  0  0  0  0  0  0
  2  1  1  0
  3  2  1  0
  4  3  1  0
  5  7  1  0
  5  4  1  0
  5  6  1  6
  7  8  2  0
 10 12  1  0
 10  9  1  6
 11 10  1  0
 12 13  1  1
 13  7  1  0
 14 15  2  0
 14 12  1  0
 16 14  1  0
 17 22  1  0
 17 16  1  0
 17 18  1  6
 19 18  1  0
 20 19  1  0
 21 20  2  0
 22 25  1  0
 23 22  2  0
 24 20  1  0
M  END
$$$$
