MVE.pdb
     RDKit          3D

 25 24  0  0  1  0  0  0  0  0999 V2000
   28.9243  -13.7869  -21.8337 C   0  0  0  0  0  0  0  0  0  0  0  0
   27.1653  -13.7583  -21.6901 S   0  0  0  0  0  0  0  0  0  0  0  0
   26.3898  -15.0194  -20.7144 C   0  0  0  0  0  0  0  0  0  0  0  0
   25.3241  -14.5451  -19.8218 C   0  0  0  0  0  0  0  0  0  0  0  0
   25.5250  -13.3085  -19.0482 C   0  0  2  0  0  0  0  0  0  0  0  0
   26.6459  -13.2414  -18.1792 N   0  0  0  0  0  0  0  0  0  0  0  0
   24.2811  -12.9223  -18.3514 C   0  0  0  0  0  0  0  0  0  0  0  0
   23.1265  -12.9525  -18.8757 O   0  0  0  0  0  0  0  0  0  0  0  0
   22.2187  -12.4090  -13.9067 C   0  0  0  0  0  0  0  0  0  0  0  0
   23.2558  -12.8277  -14.9153 C   0  0  1  0  0  0  0  0  0  0  0  0
   23.1977  -14.3188  -15.0566 C   0  0  0  0  0  0  0  0  0  0  0  0
   23.0788  -12.1494  -16.2572 C   0  0  2  0  0  0  0  0  0  0  0  0
   24.3150  -12.4781  -16.9961 N   0  0  0  0  0  0  0  0  0  0  0  0
   23.0250  -10.6870  -16.1379 C   0  0  0  0  0  0  0  0  0  0  0  0
   23.9956  -10.0883  -15.5522 O   0  0  0  0  0  0  0  0  0  0  0  0
   21.9878   -9.8617  -16.6163 N   0  0  0  0  0  0  0  0  0  0  0  0
   22.0093   -8.4217  -16.3672 C   0  0  1  0  0  0  0  0  0  0  0  0
   21.2382   -7.7289  -17.4481 C   0  0  0  0  0  0  0  0  0  0  0  0
   21.1000   -6.2553  -17.3059 C   0  0  0  0  0  0  0  0  0  0  0  0
   20.3444   -5.7021  -18.4900 C   0  0  0  0  0  0  0  0  0  0  0  0
   20.0611   -4.4809  -18.5286 O   0  0  0  0  0  0  0  0  0  0  0  0
   21.5820   -8.1110  -14.9961 C   0  0  0  0  0  0  0  0  0  0  0  0
   20.6428   -8.7589  -14.4717 O   0  0  0  0  0  0  0  0  0  0  0  0
   19.9444   -6.4956  -19.5512 O   0  0  0  0  0  0  0  0  0  0  0  0
   22.1805   -7.1212  -14.2470 O   0  0  0  0  0  0  0  0  0  0  0  0
  2  1  1  0
  3  2  1  0
  4  3  1  0
  5  7  1  0
  5  4  1  0
  5  6  1  1
  7  8  2  0
 10 12  1  0
 10  9  1  1
 11 10  1  0
 12 13  1  6
 13  7  1  0
 14 15  2  0
 14 12  1  0
 16 14  1  0
 17 22  1  0
 17 16  1  0
 17 18  1  6
 19 18  1  0
 20 19  1  0
 21 20  2  0
 22 25  1  0
 23 22  2  0
 24 20  1  0
M  END
$$$$
