MVE.pdb
     RDKit          3D

 25 24  0  0  1  0  0  0  0  0999 V2000
   28.9263  -17.8544   -5.3434 C   0  0  0  0  0  0  0  0  0  0  0  0
   27.7524  -19.1515   -5.1087 S   0  0  0  0  0  0  0  0  0  0  0  0
   27.6747  -20.4340   -6.3305 C   0  0  0  0  0  0  0  0  0  0  0  0
   27.0745  -20.0353   -7.6104 C   0  0  0  0  0  0  0  0  0  0  0  0
   26.9525  -21.0263   -8.6925 C   0  0  2  0  0  0  0  0  0  0  0  0
   28.1147  -21.7522   -9.0647 N   0  0  0  0  0  0  0  0  0  0  0  0
   26.2901  -20.4314   -9.8712 C   0  0  0  0  0  0  0  0  0  0  0  0
   26.7001  -19.3954  -10.4774 O   0  0  0  0  0  0  0  0  0  0  0  0
   24.6653  -22.0621  -13.9650 C   0  0  0  0  0  0  0  0  0  0  0  0
   25.2364  -21.9515  -12.5759 C   0  0  1  0  0  0  0  0  0  0  0  0
   26.7290  -21.8726  -12.6872 C   0  0  0  0  0  0  0  0  0  0  0  0
   24.6876  -20.7684  -11.8068 C   0  0  2  0  0  0  0  0  0  0  0  0
   25.1066  -21.0162  -10.4121 N   0  0  0  0  0  0  0  0  0  0  0  0
   23.2198  -20.7328  -11.8152 C   0  0  0  0  0  0  0  0  0  0  0  0
   22.5877  -21.5205  -11.0256 O   0  0  0  0  0  0  0  0  0  0  0  0
   22.4233  -19.8976  -12.6238 N   0  0  0  0  0  0  0  0  0  0  0  0
   20.9663  -20.0111  -12.6007 C   0  0  1  0  0  0  0  0  0  0  0  0
   20.3704  -18.7373  -13.1154 C   0  0  0  0  0  0  0  0  0  0  0  0
   18.8849  -18.6766  -13.1372 C   0  0  0  0  0  0  0  0  0  0  0  0
   18.4417  -17.3393  -13.6797 C   0  0  0  0  0  0  0  0  0  0  0  0
   19.2979  -16.5328  -14.1150 O   0  0  0  0  0  0  0  0  0  0  0  0
   20.5156  -21.2328  -13.2813 C   0  0  0  0  0  0  0  0  0  0  0  0
   21.1267  -21.6441  -14.2982 O   0  0  0  0  0  0  0  0  0  0  0  0
   17.1116  -16.9584  -13.7185 O   0  0  0  0  0  0  0  0  0  0  0  0
   19.4309  -21.9606  -12.8418 O   0  0  0  0  0  0  0  0  0  0  0  0
  2  1  1  0
  3  2  1  0
  4  3  1  0
  5  7  1  0
  5  4  1  0
  5  6  1  6
  7  8  2  0
 10 12  1  0
 10  9  1  6
 11 10  1  0
 12 13  1  1
 13  7  1  0
 14 15  2  0
 14 12  1  0
 16 14  1  0
 17 22  1  0
 17 16  1  0
 17 18  1  6
 19 18  1  0
 20 19  1  0
 21 20  2  0
 22 25  1  0
 23 22  2  0
 24 20  1  0
M  END
$$$$
