MVE.pdb
     RDKit          3D

 25 24  0  0  1  0  0  0  0  0999 V2000
   15.3559  -24.2644    2.4742 C   0  0  0  0  0  0  0  0  0  0  0  0
   15.9645  -22.8319    3.3066 S   0  0  0  0  0  0  0  0  0  0  0  0
   16.1492  -21.3397    2.3670 C   0  0  0  0  0  0  0  0  0  0  0  0
   16.6236  -20.1796    3.1329 C   0  0  0  0  0  0  0  0  0  0  0  0
   16.7722  -18.8790    2.4589 C   0  0  2  0  0  0  0  0  0  0  0  0
   17.0030  -18.8776    1.0579 N   0  0  0  0  0  0  0  0  0  0  0  0
   17.7567  -18.0352    3.1666 C   0  0  0  0  0  0  0  0  0  0  0  0
   18.9184  -17.7708    2.7316 O   0  0  0  0  0  0  0  0  0  0  0  0
   18.0047  -14.8857    3.1100 C   0  0  0  0  0  0  0  0  0  0  0  0
   17.7737  -15.1167    4.5802 C   0  0  1  0  0  0  0  0  0  0  0  0
   16.3021  -15.0140    4.8457 C   0  0  0  0  0  0  0  0  0  0  0  0
   18.3189  -16.4452    5.0597 C   0  0  2  0  0  0  0  0  0  0  0  0
   17.4382  -17.4485    4.4274 N   0  0  0  0  0  0  0  0  0  0  0  0
   18.1843  -16.6093    6.5126 C   0  0  0  0  0  0  0  0  0  0  0  0
   17.1245  -17.1705    6.9657 O   0  0  0  0  0  0  0  0  0  0  0  0
   19.1285  -16.2016    7.4759 N   0  0  0  0  0  0  0  0  0  0  0  0
   18.8945  -16.4500    8.8971 C   0  0  1  0  0  0  0  0  0  0  0  0
   20.1573  -16.9652    9.5158 C   0  0  0  0  0  0  0  0  0  0  0  0
   20.3830  -18.4309    9.4085 C   0  0  0  0  0  0  0  0  0  0  0  0
   21.6985  -18.7884   10.0573 C   0  0  0  0  0  0  0  0  0  0  0  0
   21.7636  -19.7828   10.8188 O   0  0  0  0  0  0  0  0  0  0  0  0
   18.3100  -15.2734    9.5551 C   0  0  0  0  0  0  0  0  0  0  0  0
   18.3276  -14.1595    8.9757 O   0  0  0  0  0  0  0  0  0  0  0  0
   22.8534  -18.0558    9.8452 O   0  0  0  0  0  0  0  0  0  0  0  0
   17.7315  -15.3423   10.8040 O   0  0  0  0  0  0  0  0  0  0  0  0
  2  1  1  0
  3  2  1  0
  4  3  1  0
  5  7  1  0
  5  4  1  0
  5  6  1  6
  7  8  2  0
 10 12  1  0
 10  9  1  6
 11 10  1  0
 12 13  1  6
 13  7  1  0
 14 15  2  0
 14 12  1  0
 16 14  1  0
 17 22  1  0
 17 16  1  0
 17 18  1  1
 19 18  1  0
 20 19  1  0
 21 20  2  0
 22 25  1  0
 23 22  2  0
 24 20  1  0
M  END
$$$$
