MVE.pdb
     RDKit          3D

 25 24  0  0  1  0  0  0  0  0999 V2000
   29.8644  -19.7301   -6.0736 C   0  0  0  0  0  0  0  0  0  0  0  0
   28.3256  -19.4449   -5.2573 S   0  0  0  0  0  0  0  0  0  0  0  0
   26.8401  -19.9509   -6.0824 C   0  0  0  0  0  0  0  0  0  0  0  0
   26.8350  -19.7380   -7.5357 C   0  0  0  0  0  0  0  0  0  0  0  0
   25.6425  -20.1063   -8.3169 C   0  0  2  0  0  0  0  0  0  0  0  0
   25.0819  -21.3942   -8.1090 N   0  0  0  0  0  0  0  0  0  0  0  0
   25.8584  -19.8398   -9.7537 C   0  0  0  0  0  0  0  0  0  0  0  0
   26.2533  -18.7308  -10.2258 O   0  0  0  0  0  0  0  0  0  0  0  0
   26.8315  -21.6295  -14.1792 C   0  0  0  0  0  0  0  0  0  0  0  0
   26.7122  -21.6192  -12.6779 C   0  0  1  0  0  0  0  0  0  0  0  0
   28.0758  -21.3868  -12.1006 C   0  0  0  0  0  0  0  0  0  0  0  0
   25.7273  -20.5861  -12.1732 C   0  0  2  0  0  0  0  0  0  0  0  0
   25.6256  -20.8585  -10.7249 N   0  0  0  0  0  0  0  0  0  0  0  0
   24.3863  -20.7727  -12.7412 C   0  0  0  0  0  0  0  0  0  0  0  0
   23.6843  -21.7638  -12.3307 O   0  0  0  0  0  0  0  0  0  0  0  0
   23.7845  -19.9491  -13.7135 N   0  0  0  0  0  0  0  0  0  0  0  0
   22.4312  -20.2288  -14.1896 C   0  0  1  0  0  0  0  0  0  0  0  0
   21.7504  -18.9341  -14.5103 C   0  0  0  0  0  0  0  0  0  0  0  0
   20.3956  -19.0437  -15.1130 C   0  0  0  0  0  0  0  0  0  0  0  0
   19.8673  -17.6638  -15.4229 C   0  0  0  0  0  0  0  0  0  0  0  0
   20.4269  -16.6593  -14.9221 O   0  0  0  0  0  0  0  0  0  0  0  0
   22.4420  -21.2165  -15.2775 C   0  0  0  0  0  0  0  0  0  0  0  0
   23.3774  -21.2141  -16.1152 O   0  0  0  0  0  0  0  0  0  0  0  0
   18.7759  -17.4554  -16.2482 O   0  0  0  0  0  0  0  0  0  0  0  0
   21.4511  -22.1637  -15.4190 O   0  0  0  0  0  0  0  0  0  0  0  0
  2  1  1  0
  3  2  1  0
  4  3  1  0
  5  7  1  0
  5  4  1  0
  5  6  1  6
  7  8  2  0
 10 12  1  0
 10  9  1  6
 11 10  1  0
 12 13  1  1
 13  7  1  0
 14 15  2  0
 14 12  1  0
 16 14  1  0
 17 22  1  0
 17 16  1  0
 17 18  1  6
 19 18  1  0
 20 19  1  0
 21 20  2  0
 22 25  1  0
 23 22  2  0
 24 20  1  0
M  END
$$$$
