MVE.pdb
     RDKit          3D

 25 24  0  0  1  0  0  0  0  0999 V2000
   27.4544  -12.0363  -14.6098 C   0  0  0  0  0  0  0  0  0  0  0  0
   27.4750  -13.5499  -15.5176 S   0  0  0  0  0  0  0  0  0  0  0  0
   25.9217  -14.2304  -16.0353 C   0  0  0  0  0  0  0  0  0  0  0  0
   24.8643  -13.2418  -16.2850 C   0  0  0  0  0  0  0  0  0  0  0  0
   23.5329  -13.6995  -16.7161 C   0  0  2  0  0  0  0  0  0  0  0  0
   23.4649  -14.7917  -17.6208 N   0  0  0  0  0  0  0  0  0  0  0  0
   22.7178  -12.5608  -17.1862 C   0  0  0  0  0  0  0  0  0  0  0  0
   22.8447  -12.0083  -18.3208 O   0  0  0  0  0  0  0  0  0  0  0  0
   18.3610  -10.3985  -16.7652 C   0  0  0  0  0  0  0  0  0  0  0  0
   19.4231  -11.4592  -16.6427 C   0  0  1  0  0  0  0  0  0  0  0  0
   19.1284  -12.5359  -17.6429 C   0  0  0  0  0  0  0  0  0  0  0  0
   20.8231  -10.9141  -16.8305 C   0  0  2  0  0  0  0  0  0  0  0  0
   21.7027  -12.0012  -16.3545 N   0  0  0  0  0  0  0  0  0  0  0  0
   21.0835   -9.7462  -15.9796 C   0  0  0  0  0  0  0  0  0  0  0  0
   21.0476   -9.9003  -14.7075 O   0  0  0  0  0  0  0  0  0  0  0  0
   21.3761   -8.4459  -16.4371 N   0  0  0  0  0  0  0  0  0  0  0  0
   21.5534   -7.3473  -15.4896 C   0  0  1  0  0  0  0  0  0  0  0  0
   22.1097   -6.1621  -16.2167 C   0  0  0  0  0  0  0  0  0  0  0  0
   22.2791   -4.9249  -15.4095 C   0  0  0  0  0  0  0  0  0  0  0  0
   22.8046   -3.8159  -16.2889 C   0  0  0  0  0  0  0  0  0  0  0  0
   23.0519   -4.0473  -17.4965 O   0  0  0  0  0  0  0  0  0  0  0  0
   20.3214   -7.0939  -14.7300 C   0  0  0  0  0  0  0  0  0  0  0  0
   20.3872   -6.8059  -13.5095 O   0  0  0  0  0  0  0  0  0  0  0  0
   23.0287   -2.5354  -15.8137 O   0  0  0  0  0  0  0  0  0  0  0  0
   19.0738   -7.1590  -15.3115 O   0  0  0  0  0  0  0  0  0  0  0  0
  2  1  1  0
  3  2  1  0
  4  3  1  0
  5  7  1  0
  5  4  1  0
  5  6  1  6
  7  8  2  0
 10 12  1  0
 10  9  1  6
 11 10  1  0
 12 13  1  1
 13  7  1  0
 14 15  2  0
 14 12  1  0
 16 14  1  0
 17 22  1  0
 17 16  1  0
 17 18  1  6
 19 18  1  0
 20 19  1  0
 21 20  2  0
 22 25  1  0
 23 22  2  0
 24 20  1  0
M  END
$$$$
