MVE.pdb
     RDKit          3D

 25 24  0  0  1  0  0  0  0  0999 V2000
   18.4637  -17.0199  -19.8136 C   0  0  0  0  0  0  0  0  0  0  0  0
   19.2103  -16.0010  -18.5807 S   0  0  0  0  0  0  0  0  0  0  0  0
   20.5121  -14.9069  -19.0825 C   0  0  0  0  0  0  0  0  0  0  0  0
   21.0225  -14.0246  -18.0248 C   0  0  0  0  0  0  0  0  0  0  0  0
   22.2512  -14.3956  -17.3032 C   0  0  2  0  0  0  0  0  0  0  0  0
   22.3405  -15.7094  -16.7721 N   0  0  0  0  0  0  0  0  0  0  0  0
   22.5828  -13.3799  -16.2833 C   0  0  0  0  0  0  0  0  0  0  0  0
   22.1644  -13.4028  -15.0861 O   0  0  0  0  0  0  0  0  0  0  0  0
   25.7342   -9.8097  -15.0168 C   0  0  0  0  0  0  0  0  0  0  0  0
   25.2393  -11.0370  -15.7359 C   0  0  1  0  0  0  0  0  0  0  0  0
   25.9764  -12.2257  -15.1970 C   0  0  0  0  0  0  0  0  0  0  0  0
   23.7423  -11.2270  -15.6131 C   0  0  2  0  0  0  0  0  0  0  0  0
   23.4269  -12.2756  -16.6047 N   0  0  0  0  0  0  0  0  0  0  0  0
   22.9956  -10.0253  -16.0056 C   0  0  0  0  0  0  0  0  0  0  0  0
   23.0612   -9.6401  -17.2266 O   0  0  0  0  0  0  0  0  0  0  0  0
   22.1965   -9.2395  -15.1513 N   0  0  0  0  0  0  0  0  0  0  0  0
   21.5482   -8.0271  -15.6474 C   0  0  1  0  0  0  0  0  0  0  0  0
   20.0837   -8.0985  -15.3427 C   0  0  0  0  0  0  0  0  0  0  0  0
   19.3019   -6.8635  -15.6153 C   0  0  0  0  0  0  0  0  0  0  0  0
   17.8735   -7.0607  -15.1679 C   0  0  0  0  0  0  0  0  0  0  0  0
   17.5335   -8.1472  -14.6418 O   0  0  0  0  0  0  0  0  0  0  0  0
   22.2305   -6.8201  -15.1608 C   0  0  0  0  0  0  0  0  0  0  0  0
   22.3178   -5.8096  -15.9011 O   0  0  0  0  0  0  0  0  0  0  0  0
   16.9081   -6.0799  -15.3151 O   0  0  0  0  0  0  0  0  0  0  0  0
   22.7880   -6.7486  -13.9026 O   0  0  0  0  0  0  0  0  0  0  0  0
  2  1  1  0
  3  2  1  0
  4  3  1  0
  5  7  1  0
  5  4  1  0
  5  6  1  1
  7  8  2  0
 10 12  1  0
 10  9  1  1
 11 10  1  0
 12 13  1  6
 13  7  1  0
 14 15  2  0
 14 12  1  0
 16 14  1  0
 17 22  1  0
 17 16  1  0
 17 18  1  1
 19 18  1  0
 20 19  1  0
 21 20  2  0
 22 25  1  0
 23 22  2  0
 24 20  1  0
M  END
$$$$
