MVE.pdb
     RDKit          3D

 25 24  0  0  1  0  0  0  0  0999 V2000
   24.0617  -18.3294  -18.4112 C   0  0  0  0  0  0  0  0  0  0  0  0
   25.8172  -18.1873  -18.5279 S   0  0  0  0  0  0  0  0  0  0  0  0
   26.8074  -19.3057  -17.5728 C   0  0  0  0  0  0  0  0  0  0  0  0
   26.1118  -19.9424  -16.4465 C   0  0  0  0  0  0  0  0  0  0  0  0
   26.8891  -20.6959  -15.4486 C   0  0  2  0  0  0  0  0  0  0  0  0
   27.8172  -21.6621  -15.9186 N   0  0  0  0  0  0  0  0  0  0  0  0
   25.9988  -21.2640  -14.4158 C   0  0  0  0  0  0  0  0  0  0  0  0
   25.5273  -22.4412  -14.4442 O   0  0  0  0  0  0  0  0  0  0  0  0
   24.5642  -20.8212   -9.7087 C   0  0  0  0  0  0  0  0  0  0  0  0
   25.3599  -20.4683  -10.9377 C   0  0  1  0  0  0  0  0  0  0  0  0
   26.7699  -20.9340  -10.7334 C   0  0  0  0  0  0  0  0  0  0  0  0
   24.7747  -21.0535  -12.2054 C   0  0  2  0  0  0  0  0  0  0  0  0
   25.6078  -20.4864  -13.2854 N   0  0  0  0  0  0  0  0  0  0  0  0
   23.3978  -20.6019  -12.4420 C   0  0  0  0  0  0  0  0  0  0  0  0
   23.2004  -19.3620  -12.7012 O   0  0  0  0  0  0  0  0  0  0  0  0
   22.2493  -21.4179  -12.4118 N   0  0  0  0  0  0  0  0  0  0  0  0
   20.9265  -20.8481  -12.6597 C   0  0  1  0  0  0  0  0  0  0  0  0
   20.0588  -21.8901  -13.2955 C   0  0  0  0  0  0  0  0  0  0  0  0
   18.6066  -21.5771  -13.3582 C   0  0  0  0  0  0  0  0  0  0  0  0
   18.2323  -21.1965  -14.7704 C   0  0  0  0  0  0  0  0  0  0  0  0
   18.5184  -21.9684  -15.7165 O   0  0  0  0  0  0  0  0  0  0  0  0
   20.3755  -20.2306  -11.4456 C   0  0  0  0  0  0  0  0  0  0  0  0
   19.7109  -19.1686  -11.5303 O   0  0  0  0  0  0  0  0  0  0  0  0
   17.5770  -20.0151  -15.0712 O   0  0  0  0  0  0  0  0  0  0  0  0
   20.5597  -20.7788  -10.1947 O   0  0  0  0  0  0  0  0  0  0  0  0
  2  1  1  0
  3  2  1  0
  4  3  1  0
  5  7  1  0
  5  4  1  0
  5  6  1  6
  7  8  2  0
 10 12  1  0
 10  9  1  1
 11 10  1  0
 12 13  1  6
 13  7  1  0
 14 15  2  0
 14 12  1  0
 16 14  1  0
 17 22  1  0
 17 16  1  0
 17 18  1  1
 19 18  1  0
 20 19  1  0
 21 20  2  0
 22 25  1  0
 23 22  2  0
 24 20  1  0
M  END
$$$$
