MVE.pdb
     RDKit          3D

 25 24  0  0  1  0  0  0  0  0999 V2000
   25.4453  -33.1979  -14.3879 C   0  0  0  0  0  0  0  0  0  0  0  0
   25.0474  -33.2591  -16.1064 S   0  0  0  0  0  0  0  0  0  0  0  0
   25.5903  -31.9200  -17.1340 C   0  0  0  0  0  0  0  0  0  0  0  0
   25.6339  -30.6093  -16.4724 C   0  0  0  0  0  0  0  0  0  0  0  0
   24.8201  -29.5032  -17.0035 C   0  0  2  0  0  0  0  0  0  0  0  0
   25.0938  -29.0476  -18.3202 N   0  0  0  0  0  0  0  0  0  0  0  0
   24.7780  -28.3805  -16.0444 C   0  0  0  0  0  0  0  0  0  0  0  0
   24.6151  -28.5120  -14.7934 O   0  0  0  0  0  0  0  0  0  0  0  0
   26.0400  -23.6194  -15.4636 C   0  0  0  0  0  0  0  0  0  0  0  0
   25.9809  -24.9475  -16.1712 C   0  0  1  0  0  0  0  0  0  0  0  0
   27.3592  -25.5365  -16.1793 C   0  0  0  0  0  0  0  0  0  0  0  0
   24.9873  -25.9035  -15.5457 C   0  0  2  0  0  0  0  0  0  0  0  0
   24.9256  -27.0346  -16.4938 N   0  0  0  0  0  0  0  0  0  0  0  0
   23.6373  -25.3311  -15.4705 C   0  0  0  0  0  0  0  0  0  0  0  0
   22.9709  -25.1995  -16.5577 O   0  0  0  0  0  0  0  0  0  0  0  0
   22.9905  -24.9051  -14.2932 N   0  0  0  0  0  0  0  0  0  0  0  0
   21.6431  -24.3414  -14.3482 C   0  0  1  0  0  0  0  0  0  0  0  0
   20.7326  -25.1720  -13.4973 C   0  0  0  0  0  0  0  0  0  0  0  0
   19.3280  -24.6960  -13.3913 C   0  0  0  0  0  0  0  0  0  0  0  0
   18.5483  -25.6201  -12.4872 C   0  0  0  0  0  0  0  0  0  0  0  0
   19.1262  -26.5959  -11.9517 O   0  0  0  0  0  0  0  0  0  0  0  0
   21.6526  -22.9052  -14.0376 C   0  0  0  0  0  0  0  0  0  0  0  0
   22.6514  -22.3938  -13.4739 O   0  0  0  0  0  0  0  0  0  0  0  0
   17.2031  -25.4347  -12.2193 O   0  0  0  0  0  0  0  0  0  0  0  0
   20.5925  -22.0804  -14.3456 O   0  0  0  0  0  0  0  0  0  0  0  0
  2  1  1  0
  3  2  1  0
  4  3  1  0
  5  7  1  0
  5  4  1  0
  5  6  1  6
  7  8  2  0
 10 12  1  0
 10  9  1  1
 11 10  1  0
 12 13  1  6
 13  7  1  0
 14 15  2  0
 14 12  1  0
 16 14  1  0
 17 22  1  0
 17 16  1  0
 17 18  1  1
 19 18  1  0
 20 19  1  0
 21 20  2  0
 22 25  1  0
 23 22  2  0
 24 20  1  0
M  END
$$$$
