GWF.pdb
     RDKit          3D

 30 32  0  0  1  0  0  0  0  0999 V2000
   27.3512  -24.3748  -15.4449 N   0  0  0  0  0  0  0  0  0  0  0  0
   26.0753  -23.7497  -15.1148 C   0  0  0  0  0  0  0  0  0  0  0  0
   26.2679  -22.5849  -14.2068 C   0  0  0  0  0  0  0  0  0  0  0  0
   27.2881  -21.8903  -14.3575 O   0  0  0  0  0  0  0  0  0  0  0  0
   25.3394  -22.2476  -13.1913 N   0  0  0  0  0  0  0  0  0  0  0  0
   25.4033  -21.1299  -12.3150 C   0  0  1  0  0  0  0  0  0  0  0  0
   24.2487  -20.1470  -12.4230 C   0  0  0  0  0  0  0  0  0  0  0  0
   24.2167  -19.5930  -13.8096 C   0  0  0  0  0  0  0  0  0  0  0  0
   23.3504  -19.8079  -14.8502 C   0  0  0  0  0  0  0  0  0  0  0  0
   23.7487  -19.0670  -15.9249 N   0  0  0  0  0  0  0  0  0  0  0  0
   24.8396  -18.3803  -15.6176 C   0  0  0  0  0  0  0  0  0  0  0  0
   25.6554  -17.4854  -16.2948 C   0  0  0  0  0  0  0  0  0  0  0  0
   26.7468  -16.9214  -15.6718 C   0  0  0  0  0  0  0  0  0  0  0  0
   27.0566  -17.2289  -14.3653 C   0  0  0  0  0  0  0  0  0  0  0  0
   26.2352  -18.1238  -13.6990 C   0  0  0  0  0  0  0  0  0  0  0  0
   25.1611  -18.6788  -14.3150 C   0  0  0  0  0  0  0  0  0  0  0  0
   25.8199  -21.4147  -10.9353 C   0  0  0  0  0  0  0  0  0  0  0  0
   25.5395  -22.4807  -10.3416 O   0  0  0  0  0  0  0  0  0  0  0  0
   26.5755  -20.4299  -10.2496 N   0  0  0  0  0  0  0  0  0  0  0  0
   26.9060  -20.6009   -8.8452 C   0  0  1  0  0  0  0  0  0  0  0  0
   28.0234  -19.7123   -8.4188 C   0  0  0  0  0  0  0  0  0  0  0  0
   28.2586  -19.8330   -6.9771 C   0  0  0  0  0  0  0  0  0  0  0  0
   27.6054  -18.9873   -6.0931 C   0  0  0  0  0  0  0  0  0  0  0  0
   27.7961  -19.0915   -4.7523 C   0  0  0  0  0  0  0  0  0  0  0  0
   28.6581  -20.0619   -4.2891 C   0  0  0  0  0  0  0  0  0  0  0  0
   29.3185  -20.9140   -5.1500 C   0  0  0  0  0  0  0  0  0  0  0  0
   29.1255  -20.8090   -6.5092 C   0  0  0  0  0  0  0  0  0  0  0  0
   25.6697  -20.4637   -8.0671 C   0  0  0  0  0  0  0  0  0  0  0  0
   24.7376  -19.6417   -8.3435 O   0  0  0  0  0  0  0  0  0  0  0  0
   25.4504  -21.2692   -6.9330 O   0  0  0  0  0  0  0  0  0  0  0  0
  2  1  1  0
  3  2  1  0
  4  3  2  0
  5  3  1  0
  6 17  1  0
  6  5  1  0
  6  7  1  1
  8  7  1  0
  8 16  1  0
  9  8  2  0
 10  9  1  0
 10 11  1  0
 11 12  1  0
 11 16  2  0
 12 13  2  0
 13 14  1  0
 15 14  2  0
 16 15  1  0
 17 18  2  0
 19 20  1  0
 19 17  1  0
 21 22  1  0
 20 21  1  1
 22 23  2  0
 23 24  1  0
 25 24  2  0
 26 25  1  0
 27 26  2  0
 27 22  1  0
 28 20  1  0
 29 28  2  0
 30 28  1  0
M  END
$$$$
