GWF.pdb
     RDKit          3D

 30 32  0  0  1  0  0  0  0  0999 V2000
   28.9756  -20.8492  -15.2723 N   0  0  0  0  0  0  0  0  0  0  0  0
   28.3816  -19.9825  -14.2605 C   0  0  0  0  0  0  0  0  0  0  0  0
   27.3192  -20.6967  -13.4994 C   0  0  0  0  0  0  0  0  0  0  0  0
   26.8778  -21.7591  -13.9711 O   0  0  0  0  0  0  0  0  0  0  0  0
   26.8026  -20.2117  -12.2726 N   0  0  0  0  0  0  0  0  0  0  0  0
   25.7320  -20.7667  -11.5196 C   0  0  1  0  0  0  0  0  0  0  0  0
   25.7946  -20.5283  -10.0195 C   0  0  0  0  0  0  0  0  0  0  0  0
   27.1805  -20.8177   -9.5440 C   0  0  0  0  0  0  0  0  0  0  0  0
   28.1951  -21.5499  -10.1044 C   0  0  0  0  0  0  0  0  0  0  0  0
   29.2794  -21.5199   -9.2762 N   0  0  0  0  0  0  0  0  0  0  0  0
   29.0040  -20.7949   -8.2017 C   0  0  0  0  0  0  0  0  0  0  0  0
   29.7069  -20.4263   -7.0637 C   0  0  0  0  0  0  0  0  0  0  0  0
   29.1201  -19.6325   -6.1032 C   0  0  0  0  0  0  0  0  0  0  0  0
   27.8252  -19.1845   -6.2456 C   0  0  0  0  0  0  0  0  0  0  0  0
   27.1329  -19.5589   -7.3858 C   0  0  0  0  0  0  0  0  0  0  0  0
   27.7128  -20.3417   -8.3303 C   0  0  0  0  0  0  0  0  0  0  0  0
   24.3894  -20.6103  -12.0950 C   0  0  0  0  0  0  0  0  0  0  0  0
   23.7940  -19.5106  -12.1553 O   0  0  0  0  0  0  0  0  0  0  0  0
   23.7429  -21.7652  -12.6043 N   0  0  0  0  0  0  0  0  0  0  0  0
   22.4173  -21.6686  -13.1912 C   0  0  1  0  0  0  0  0  0  0  0  0
   22.0814  -22.8610  -14.0191 C   0  0  0  0  0  0  0  0  0  0  0  0
   20.7196  -22.7541  -14.5508 C   0  0  0  0  0  0  0  0  0  0  0  0
   20.4587  -21.9259  -15.6323 C   0  0  0  0  0  0  0  0  0  0  0  0
   19.2077  -21.8235  -16.1513 C   0  0  0  0  0  0  0  0  0  0  0  0
   18.1992  -22.5652  -15.5751 C   0  0  0  0  0  0  0  0  0  0  0  0
   18.4357  -23.3954  -14.4989 C   0  0  0  0  0  0  0  0  0  0  0  0
   19.7036  -23.4999  -13.9724 C   0  0  0  0  0  0  0  0  0  0  0  0
   21.4648  -21.3686  -12.1163 C   0  0  0  0  0  0  0  0  0  0  0  0
   21.4315  -21.9778  -10.9988 O   0  0  0  0  0  0  0  0  0  0  0  0
   20.5057  -20.3506  -12.2800 O   0  0  0  0  0  0  0  0  0  0  0  0
  2  1  1  0
  3  2  1  0
  4  3  2  0
  5  3  1  0
  6 17  1  0
  6  5  1  0
  6  7  1  1
  8  7  1  0
  8 16  1  0
  9  8  2  0
 10  9  1  0
 10 11  1  0
 11 12  1  0
 11 16  2  0
 12 13  2  0
 13 14  1  0
 15 14  2  0
 16 15  1  0
 17 18  2  0
 19 20  1  0
 19 17  1  0
 21 22  1  0
 20 21  1  1
 22 23  2  0
 23 24  1  0
 25 24  2  0
 26 25  1  0
 27 26  2  0
 27 22  1  0
 28 20  1  0
 29 28  2  0
 30 28  1  0
M  END
$$$$
