GWF.pdb
     RDKit          3D

 30 32  0  0  1  0  0  0  0  0999 V2000
   28.9271  -18.4061  -15.2466 N   0  0  0  0  0  0  0  0  0  0  0  0
   29.1368  -19.2825  -14.0997 C   0  0  0  0  0  0  0  0  0  0  0  0
   27.8938  -19.4123  -13.2896 C   0  0  0  0  0  0  0  0  0  0  0  0
   27.1395  -18.4265  -13.2169 O   0  0  0  0  0  0  0  0  0  0  0  0
   27.5479  -20.6056  -12.6089 N   0  0  0  0  0  0  0  0  0  0  0  0
   26.3933  -20.8270  -11.8095 C   0  0  1  0  0  0  0  0  0  0  0  0
   25.3099  -21.6816  -12.4473 C   0  0  0  0  0  0  0  0  0  0  0  0
   24.7174  -20.9303  -13.5940 C   0  0  0  0  0  0  0  0  0  0  0  0
   25.1513  -20.7562  -14.8828 C   0  0  0  0  0  0  0  0  0  0  0  0
   24.2556  -19.9766  -15.5555 N   0  0  0  0  0  0  0  0  0  0  0  0
   23.2583  -19.6410  -14.7499 C   0  0  0  0  0  0  0  0  0  0  0  0
   22.0999  -18.8898  -14.8877 C   0  0  0  0  0  0  0  0  0  0  0  0
   21.2367  -18.7309  -13.8261 C   0  0  0  0  0  0  0  0  0  0  0  0
   21.4985  -19.3109  -12.6044 C   0  0  0  0  0  0  0  0  0  0  0  0
   22.6582  -20.0584  -12.4784 C   0  0  0  0  0  0  0  0  0  0  0  0
   23.5075  -20.2130  -13.5253 C   0  0  0  0  0  0  0  0  0  0  0  0
   26.6376  -21.1292  -10.3927 C   0  0  0  0  0  0  0  0  0  0  0  0
   27.1834  -22.1861  -10.0023 O   0  0  0  0  0  0  0  0  0  0  0  0
   26.2328  -20.1730   -9.4269 N   0  0  0  0  0  0  0  0  0  0  0  0
   26.0625  -20.5576   -8.0362 C   0  0  1  0  0  0  0  0  0  0  0  0
   26.1954  -19.3964   -7.1120 C   0  0  0  0  0  0  0  0  0  0  0  0
   27.4291  -19.4989   -6.3272 C   0  0  0  0  0  0  0  0  0  0  0  0
   28.3376  -18.4511   -6.3205 C   0  0  0  0  0  0  0  0  0  0  0  0
   29.4797  -18.5179   -5.5881 C   0  0  0  0  0  0  0  0  0  0  0  0
   29.7152  -19.6567   -4.8487 C   0  0  0  0  0  0  0  0  0  0  0  0
   28.8255  -20.7111   -4.8403 C   0  0  0  0  0  0  0  0  0  0  0  0
   27.6676  -20.6440   -5.5823 C   0  0  0  0  0  0  0  0  0  0  0  0
   24.8046  -21.3039   -7.9215 C   0  0  0  0  0  0  0  0  0  0  0  0
   23.8577  -21.2456   -8.7706 O   0  0  0  0  0  0  0  0  0  0  0  0
   24.5800  -22.1537   -6.8212 O   0  0  0  0  0  0  0  0  0  0  0  0
  2  1  1  0
  3  2  1  0
  4  3  2  0
  5  3  1  0
  6 17  1  0
  6  5  1  0
  6  7  1  6
  8  7  1  0
  8 16  1  0
  9  8  2  0
 10  9  1  0
 10 11  1  0
 11 12  1  0
 11 16  2  0
 12 13  2  0
 13 14  1  0
 15 14  2  0
 16 15  1  0
 17 18  2  0
 19 20  1  0
 19 17  1  0
 21 22  1  0
 20 21  1  1
 22 23  2  0
 23 24  1  0
 25 24  2  0
 26 25  1  0
 27 26  2  0
 27 22  1  0
 28 20  1  0
 29 28  2  0
 30 28  1  0
M  END
$$$$
