GWF.pdb
     RDKit          3D

 30 32  0  0  1  0  0  0  0  0999 V2000
   24.4955  -18.8295  -19.4885 N   0  0  0  0  0  0  0  0  0  0  0  0
   24.3209  -18.7635  -18.0419 C   0  0  0  0  0  0  0  0  0  0  0  0
   24.1859  -20.1258  -17.4553 C   0  0  0  0  0  0  0  0  0  0  0  0
   23.7283  -21.0289  -18.1771 O   0  0  0  0  0  0  0  0  0  0  0  0
   24.5568  -20.4218  -16.1204 N   0  0  0  0  0  0  0  0  0  0  0  0
   24.2528  -21.6053  -15.3937 C   0  0  1  0  0  0  0  0  0  0  0  0
   25.3109  -22.0513  -14.3974 C   0  0  0  0  0  0  0  0  0  0  0  0
   26.5823  -22.3196  -15.1337 C   0  0  0  0  0  0  0  0  0  0  0  0
   27.5593  -21.4732  -15.5905 C   0  0  0  0  0  0  0  0  0  0  0  0
   28.5302  -22.2040  -16.2118 N   0  0  0  0  0  0  0  0  0  0  0  0
   28.2177  -23.4911  -16.1729 C   0  0  0  0  0  0  0  0  0  0  0  0
   28.8171  -24.6575  -16.6262 C   0  0  0  0  0  0  0  0  0  0  0  0
   28.2203  -25.8808  -16.4148 C   0  0  0  0  0  0  0  0  0  0  0  0
   27.0176  -25.9792  -15.7503 C   0  0  0  0  0  0  0  0  0  0  0  0
   26.4282  -24.8081  -15.3024 C   0  0  0  0  0  0  0  0  0  0  0  0
   27.0176  -23.6041  -15.5125 C   0  0  0  0  0  0  0  0  0  0  0  0
   22.8755  -21.7213  -14.8962 C   0  0  0  0  0  0  0  0  0  0  0  0
   22.3317  -20.8524  -14.1773 O   0  0  0  0  0  0  0  0  0  0  0  0
   22.1325  -22.8757  -15.2514 N   0  0  0  0  0  0  0  0  0  0  0  0
   20.7062  -22.9449  -14.9833 C   0  0  1  0  0  0  0  0  0  0  0  0
   19.9501  -21.8689  -15.6837 C   0  0  0  0  0  0  0  0  0  0  0  0
   18.5062  -22.0635  -15.5237 C   0  0  0  0  0  0  0  0  0  0  0  0
   17.7819  -22.7285  -16.5017 C   0  0  0  0  0  0  0  0  0  0  0  0
   16.4460  -22.9340  -16.3671 C   0  0  0  0  0  0  0  0  0  0  0  0
   15.8246  -22.4638  -15.2304 C   0  0  0  0  0  0  0  0  0  0  0  0
   16.5251  -21.7998  -14.2446 C   0  0  0  0  0  0  0  0  0  0  0  0
   17.8792  -21.5912  -14.3805 C   0  0  0  0  0  0  0  0  0  0  0  0
   20.2552  -24.3112  -15.2708 C   0  0  0  0  0  0  0  0  0  0  0  0
   19.3622  -24.9256  -14.6029 O   0  0  0  0  0  0  0  0  0  0  0  0
   20.8132  -25.0330  -16.3436 O   0  0  0  0  0  0  0  0  0  0  0  0
  2  1  1  0
  3  2  1  0
  4  3  2  0
  5  3  1  0
  6 17  1  0
  6  5  1  0
  6  7  1  1
  8  7  1  0
  8 16  1  0
  9  8  2  0
 10  9  1  0
 10 11  1  0
 11 12  1  0
 11 16  2  0
 12 13  2  0
 13 14  1  0
 15 14  2  0
 16 15  1  0
 17 18  2  0
 19 20  1  0
 19 17  1  0
 21 22  1  0
 20 21  1  6
 22 23  2  0
 23 24  1  0
 25 24  2  0
 26 25  1  0
 27 26  2  0
 27 22  1  0
 28 20  1  0
 29 28  2  0
 30 28  1  0
M  END
$$$$
