GWF.pdb
     RDKit          3D

 30 32  0  0  1  0  0  0  0  0999 V2000
   29.3366  -18.9825  -14.7147 N   0  0  0  0  0  0  0  0  0  0  0  0
   27.9903  -19.4772  -14.9801 C   0  0  0  0  0  0  0  0  0  0  0  0
   27.1635  -19.4727  -13.7413 C   0  0  0  0  0  0  0  0  0  0  0  0
   26.8427  -18.3728  -13.2582 O   0  0  0  0  0  0  0  0  0  0  0  0
   26.7366  -20.6642  -13.1047 N   0  0  0  0  0  0  0  0  0  0  0  0
   25.8305  -20.7705  -12.0143 C   0  0  1  0  0  0  0  0  0  0  0  0
   24.5474  -21.5333  -12.3019 C   0  0  0  0  0  0  0  0  0  0  0  0
   23.7408  -20.7613  -13.2939 C   0  0  0  0  0  0  0  0  0  0  0  0
   24.0102  -20.3887  -14.5854 C   0  0  0  0  0  0  0  0  0  0  0  0
   22.9504  -19.6843  -15.0787 N   0  0  0  0  0  0  0  0  0  0  0  0
   22.0056  -19.5885  -14.1545 C   0  0  0  0  0  0  0  0  0  0  0  0
   20.7466  -19.0080  -14.0991 C   0  0  0  0  0  0  0  0  0  0  0  0
   19.9847  -19.0930  -12.9548 C   0  0  0  0  0  0  0  0  0  0  0  0
   20.4497  -19.7538  -11.8391 C   0  0  0  0  0  0  0  0  0  0  0  0
   21.7082  -20.3294  -11.9058 C   0  0  0  0  0  0  0  0  0  0  0  0
   22.4573  -20.2437  -13.0339 C   0  0  0  0  0  0  0  0  0  0  0  0
   26.4271  -21.0741  -10.7067 C   0  0  0  0  0  0  0  0  0  0  0  0
   26.9497  -22.1782  -10.4322 O   0  0  0  0  0  0  0  0  0  0  0  0
   26.4061  -20.0630   -9.7125 N   0  0  0  0  0  0  0  0  0  0  0  0
   26.9928  -20.3033   -8.4053 C   0  0  1  0  0  0  0  0  0  0  0  0
   27.6938  -19.1004   -7.8745 C   0  0  0  0  0  0  0  0  0  0  0  0
   28.2168  -19.3582   -6.5297 C   0  0  0  0  0  0  0  0  0  0  0  0
   29.2439  -20.2720   -6.3467 C   0  0  0  0  0  0  0  0  0  0  0  0
   29.7546  -20.5150   -5.1117 C   0  0  0  0  0  0  0  0  0  0  0  0
   29.2254  -19.8290   -4.0401 C   0  0  0  0  0  0  0  0  0  0  0  0
   28.2037  -18.9155   -4.1986 C   0  0  0  0  0  0  0  0  0  0  0  0
   27.6856  -18.6687   -5.4502 C   0  0  0  0  0  0  0  0  0  0  0  0
   25.9489  -20.8515   -7.5321 C   0  0  0  0  0  0  0  0  0  0  0  0
   26.1690  -21.3615   -6.3864 O   0  0  0  0  0  0  0  0  0  0  0  0
   24.6010  -20.8366   -7.9397 O   0  0  0  0  0  0  0  0  0  0  0  0
  2  1  1  0
  3  2  1  0
  4  3  2  0
  5  3  1  0
  6 17  1  0
  6  5  1  0
  6  7  1  6
  8  7  1  0
  8 16  1  0
  9  8  2  0
 10  9  1  0
 10 11  1  0
 11 12  1  0
 11 16  2  0
 12 13  2  0
 13 14  1  0
 15 14  2  0
 16 15  1  0
 17 18  2  0
 19 20  1  0
 19 17  1  0
 21 22  1  0
 20 21  1  1
 22 23  2  0
 23 24  1  0
 25 24  2  0
 26 25  1  0
 27 26  2  0
 27 22  1  0
 28 20  1  0
 29 28  2  0
 30 28  1  0
M  END
$$$$
