GWF.pdb
     RDKit          3D

 30 32  0  0  1  0  0  0  0  0999 V2000
   17.3700  -17.3395  -17.2956 N   0  0  0  0  0  0  0  0  0  0  0  0
   17.7658  -15.9375  -17.2221 C   0  0  0  0  0  0  0  0  0  0  0  0
   17.0873  -15.2474  -16.0899 C   0  0  0  0  0  0  0  0  0  0  0  0
   17.3049  -15.6636  -14.9386 O   0  0  0  0  0  0  0  0  0  0  0  0
   16.2144  -14.1478  -16.2796 N   0  0  0  0  0  0  0  0  0  0  0  0
   15.4356  -13.4962  -15.2847 C   0  0  1  0  0  0  0  0  0  0  0  0
   15.1760  -12.0172  -15.5217 C   0  0  0  0  0  0  0  0  0  0  0  0
   16.4568  -11.3622  -15.9233 C   0  0  0  0  0  0  0  0  0  0  0  0
   17.7608  -11.6727  -15.6358 C   0  0  0  0  0  0  0  0  0  0  0  0
   18.5809  -10.7628  -16.2376 N   0  0  0  0  0  0  0  0  0  0  0  0
   17.8557   -9.8764  -16.9042 C   0  0  0  0  0  0  0  0  0  0  0  0
   18.1430   -8.7648  -17.6834 C   0  0  0  0  0  0  0  0  0  0  0  0
   17.1297   -8.0332  -18.2622 C   0  0  0  0  0  0  0  0  0  0  0  0
   15.8094   -8.3835  -18.0844 C   0  0  0  0  0  0  0  0  0  0  0  0
   15.5344   -9.4950  -17.3043 C   0  0  0  0  0  0  0  0  0  0  0  0
   16.5342  -10.2138  -16.7344 C   0  0  0  0  0  0  0  0  0  0  0  0
   14.2671  -14.2375  -14.7917 C   0  0  0  0  0  0  0  0  0  0  0  0
   13.5365  -14.9349  -15.5316 O   0  0  0  0  0  0  0  0  0  0  0  0
   13.9581  -14.1543  -13.4102 N   0  0  0  0  0  0  0  0  0  0  0  0
   12.8044  -14.8531  -12.8702 C   0  0  1  0  0  0  0  0  0  0  0  0
   13.0256  -15.3015  -11.4666 C   0  0  0  0  0  0  0  0  0  0  0  0
   11.8197  -15.9406  -10.9320 C   0  0  0  0  0  0  0  0  0  0  0  0
   10.9245  -15.2065  -10.1683 C   0  0  0  0  0  0  0  0  0  0  0  0
    9.7928  -15.7740   -9.6760 C   0  0  0  0  0  0  0  0  0  0  0  0
    9.5543  -17.1024   -9.9544 C   0  0  0  0  0  0  0  0  0  0  0  0
   10.4308  -17.8518  -10.7118 C   0  0  0  0  0  0  0  0  0  0  0  0
   11.5780  -17.2772  -11.2113 C   0  0  0  0  0  0  0  0  0  0  0  0
   11.6234  -14.0068  -13.0746 C   0  0  0  0  0  0  0  0  0  0  0  0
   11.6195  -12.7402  -12.9456 O   0  0  0  0  0  0  0  0  0  0  0  0
   10.3907  -14.5825  -13.4383 O   0  0  0  0  0  0  0  0  0  0  0  0
  2  1  1  0
  3  2  1  0
  4  3  2  0
  5  3  1  0
  6 17  1  0
  6  5  1  0
  6  7  1  6
  8  7  1  0
  8 16  1  0
  9  8  2  0
 10  9  1  0
 10 11  1  0
 11 12  1  0
 11 16  2  0
 12 13  2  0
 13 14  1  0
 15 14  2  0
 16 15  1  0
 17 18  2  0
 19 20  1  0
 19 17  1  0
 21 22  1  0
 20 21  1  1
 22 23  2  0
 23 24  1  0
 25 24  2  0
 26 25  1  0
 27 26  2  0
 27 22  1  0
 28 20  1  0
 29 28  2  0
 30 28  1  0
M  END
$$$$
