GWF.pdb
     RDKit          3D

 30 32  0  0  1  0  0  0  0  0999 V2000
   28.6407  -18.6749  -16.0023 N   0  0  0  0  0  0  0  0  0  0  0  0
   29.1326  -19.1884  -14.7287 C   0  0  0  0  0  0  0  0  0  0  0  0
   28.0417  -19.2458  -13.7163 C   0  0  0  0  0  0  0  0  0  0  0  0
   27.4117  -18.2006  -13.4779 O   0  0  0  0  0  0  0  0  0  0  0  0
   27.7032  -20.4358  -13.0261 N   0  0  0  0  0  0  0  0  0  0  0  0
   26.6087  -20.6246  -12.1388 C   0  0  1  0  0  0  0  0  0  0  0  0
   25.4772  -21.4896  -12.6704 C   0  0  0  0  0  0  0  0  0  0  0  0
   24.5191  -20.6219  -13.4187 C   0  0  0  0  0  0  0  0  0  0  0  0
   24.7224  -19.6857  -14.3993 C   0  0  0  0  0  0  0  0  0  0  0  0
   23.5204  -19.1536  -14.7665 N   0  0  0  0  0  0  0  0  0  0  0  0
   22.5477  -19.7116  -14.0605 C   0  0  0  0  0  0  0  0  0  0  0  0
   21.1683  -19.5702  -14.0132 C   0  0  0  0  0  0  0  0  0  0  0  0
   20.4150  -20.3280  -13.1439 C   0  0  0  0  0  0  0  0  0  0  0  0
   21.0078  -21.2429  -12.3019 C   0  0  0  0  0  0  0  0  0  0  0  0
   22.3858  -21.3754  -12.3577 C   0  0  0  0  0  0  0  0  0  0  0  0
   23.1259  -20.6273  -13.2142 C   0  0  0  0  0  0  0  0  0  0  0  0
   26.9536  -20.8865  -10.7350 C   0  0  0  0  0  0  0  0  0  0  0  0
   27.6566  -21.8569  -10.3723 O   0  0  0  0  0  0  0  0  0  0  0  0
   26.4630  -19.9930   -9.7493 N   0  0  0  0  0  0  0  0  0  0  0  0
   26.6460  -20.2816   -8.3371 C   0  0  1  0  0  0  0  0  0  0  0  0
   27.1840  -19.1105   -7.5895 C   0  0  0  0  0  0  0  0  0  0  0  0
   28.0108  -19.5520   -6.4626 C   0  0  0  0  0  0  0  0  0  0  0  0
   27.6332  -19.2493   -5.1629 C   0  0  0  0  0  0  0  0  0  0  0  0
   28.3756  -19.6617   -4.1028 C   0  0  0  0  0  0  0  0  0  0  0  0
   29.5182  -20.3913   -4.3506 C   0  0  0  0  0  0  0  0  0  0  0  0
   29.9130  -20.7040   -5.6350 C   0  0  0  0  0  0  0  0  0  0  0  0
   29.1608  -20.2864   -6.7100 C   0  0  0  0  0  0  0  0  0  0  0  0
   25.3868  -20.8270   -7.8175 C   0  0  0  0  0  0  0  0  0  0  0  0
   24.2454  -20.6159   -8.3407 O   0  0  0  0  0  0  0  0  0  0  0  0
   25.3855  -21.6425   -6.6695 O   0  0  0  0  0  0  0  0  0  0  0  0
  2  1  1  0
  3  2  1  0
  4  3  2  0
  5  3  1  0
  6 17  1  0
  6  5  1  0
  6  7  1  6
  8  7  1  0
  8 16  1  0
  9  8  2  0
 10  9  1  0
 10 11  1  0
 11 12  1  0
 11 16  2  0
 12 13  2  0
 13 14  1  0
 15 14  2  0
 16 15  1  0
 17 18  2  0
 19 20  1  0
 19 17  1  0
 21 22  1  0
 20 21  1  1
 22 23  2  0
 23 24  1  0
 25 24  2  0
 26 25  1  0
 27 26  2  0
 27 22  1  0
 28 20  1  0
 29 28  2  0
 30 28  1  0
M  END
$$$$
