GWF.pdb
     RDKit          3D

 30 32  0  0  1  0  0  0  0  0999 V2000
   28.8369  -24.4050  -16.5964 N   0  0  0  0  0  0  0  0  0  0  0  0
   28.1358  -23.1540  -16.8626 C   0  0  0  0  0  0  0  0  0  0  0  0
   27.3340  -22.7269  -15.6824 C   0  0  0  0  0  0  0  0  0  0  0  0
   26.6068  -23.5733  -15.1341 O   0  0  0  0  0  0  0  0  0  0  0  0
   27.3727  -21.4061  -15.1714 N   0  0  0  0  0  0  0  0  0  0  0  0
   26.4826  -20.8328  -14.2226 C   0  0  1  0  0  0  0  0  0  0  0  0
   27.0285  -19.6435  -13.4488 C   0  0  0  0  0  0  0  0  0  0  0  0
   27.8915  -20.1470  -12.3387 C   0  0  0  0  0  0  0  0  0  0  0  0
   29.2126  -20.5123  -12.3140 C   0  0  0  0  0  0  0  0  0  0  0  0
   29.5432  -20.9121  -11.0517 N   0  0  0  0  0  0  0  0  0  0  0  0
   28.4853  -20.8180  -10.2592 C   0  0  0  0  0  0  0  0  0  0  0  0
   28.2420  -21.0752   -8.9177 C   0  0  0  0  0  0  0  0  0  0  0  0
   26.9930  -20.8611   -8.3778 C   0  0  0  0  0  0  0  0  0  0  0  0
   25.9562  -20.3877   -9.1513 C   0  0  0  0  0  0  0  0  0  0  0  0
   26.2106  -20.1346  -10.4895 C   0  0  0  0  0  0  0  0  0  0  0  0
   27.4416  -20.3470  -11.0194 C   0  0  0  0  0  0  0  0  0  0  0  0
   25.0888  -20.6743  -14.6589 C   0  0  0  0  0  0  0  0  0  0  0  0
   24.7695  -20.1884  -15.7677 O   0  0  0  0  0  0  0  0  0  0  0  0
   24.0614  -21.0940  -13.7763 N   0  0  0  0  0  0  0  0  0  0  0  0
   22.6662  -20.9922  -14.1688 C   0  0  1  0  0  0  0  0  0  0  0  0
   21.7720  -21.7794  -13.2740 C   0  0  0  0  0  0  0  0  0  0  0  0
   21.5736  -21.0836  -11.9993 C   0  0  0  0  0  0  0  0  0  0  0  0
   22.5363  -21.1673  -11.0045 C   0  0  0  0  0  0  0  0  0  0  0  0
   22.3807  -20.5180   -9.8216 C   0  0  0  0  0  0  0  0  0  0  0  0
   21.2382  -19.7709   -9.6325 C   0  0  0  0  0  0  0  0  0  0  0  0
   20.2675  -19.6734  -10.6080 C   0  0  0  0  0  0  0  0  0  0  0  0
   20.4247  -20.3312  -11.8073 C   0  0  0  0  0  0  0  0  0  0  0  0
   22.3303  -19.5689  -14.2890 C   0  0  0  0  0  0  0  0  0  0  0  0
   22.8992  -18.6410  -13.6284 O   0  0  0  0  0  0  0  0  0  0  0  0
   21.3221  -19.1491  -15.1780 O   0  0  0  0  0  0  0  0  0  0  0  0
  2  1  1  0
  3  2  1  0
  4  3  2  0
  5  3  1  0
  6 17  1  0
  6  5  1  0
  6  7  1  6
  8  7  1  0
  8 16  1  0
  9  8  2  0
 10  9  1  0
 10 11  1  0
 11 12  1  0
 11 16  2  0
 12 13  2  0
 13 14  1  0
 15 14  2  0
 16 15  1  0
 17 18  2  0
 19 20  1  0
 19 17  1  0
 21 22  1  0
 20 21  1  1
 22 23  2  0
 23 24  1  0
 25 24  2  0
 26 25  1  0
 27 26  2  0
 27 22  1  0
 28 20  1  0
 29 28  2  0
 30 28  1  0
M  END
$$$$
