GWF.pdb
     RDKit          3D

 30 32  0  0  1  0  0  0  0  0999 V2000
   33.3279  -24.0316  -10.9047 N   0  0  0  0  0  0  0  0  0  0  0  0
   32.7268  -22.7581  -11.2849 C   0  0  0  0  0  0  0  0  0  0  0  0
   31.5132  -22.4734  -10.4697 C   0  0  0  0  0  0  0  0  0  0  0  0
   30.8422  -23.4392  -10.0659 O   0  0  0  0  0  0  0  0  0  0  0  0
   31.1045  -21.1566  -10.1442 N   0  0  0  0  0  0  0  0  0  0  0  0
   29.9026  -20.7748   -9.4879 C   0  0  1  0  0  0  0  0  0  0  0  0
   30.0352  -19.6353   -8.4905 C   0  0  0  0  0  0  0  0  0  0  0  0
   28.7794  -19.5512   -7.6865 C   0  0  0  0  0  0  0  0  0  0  0  0
   27.5216  -19.1163   -8.0157 C   0  0  0  0  0  0  0  0  0  0  0  0
   26.7079  -19.2333   -6.9262 N   0  0  0  0  0  0  0  0  0  0  0  0
   27.3925  -19.7284   -5.9054 C   0  0  0  0  0  0  0  0  0  0  0  0
   27.0900  -20.0559   -4.5915 C   0  0  0  0  0  0  0  0  0  0  0  0
   28.0559  -20.5747   -3.7577 C   0  0  0  0  0  0  0  0  0  0  0  0
   29.3426  -20.7818   -4.2036 C   0  0  0  0  0  0  0  0  0  0  0  0
   29.6333  -20.4510   -5.5171 C   0  0  0  0  0  0  0  0  0  0  0  0
   28.6804  -19.9393   -6.3365 C   0  0  0  0  0  0  0  0  0  0  0  0
   28.7036  -20.6941  -10.3329 C   0  0  0  0  0  0  0  0  0  0  0  0
   28.6659  -20.0551  -11.4089 O   0  0  0  0  0  0  0  0  0  0  0  0
   27.5366  -21.3753   -9.9025 N   0  0  0  0  0  0  0  0  0  0  0  0
   26.4058  -21.5382  -10.8000 C   0  0  1  0  0  0  0  0  0  0  0  0
   25.2975  -22.3116  -10.1725 C   0  0  0  0  0  0  0  0  0  0  0  0
   24.0708  -21.5108  -10.1245 C   0  0  0  0  0  0  0  0  0  0  0  0
   23.7402  -20.8143   -8.9717 C   0  0  0  0  0  0  0  0  0  0  0  0
   22.6166  -20.0535   -8.9100 C   0  0  0  0  0  0  0  0  0  0  0  0
   21.8094  -19.9899  -10.0251 C   0  0  0  0  0  0  0  0  0  0  0  0
   22.1186  -20.6742  -11.1825 C   0  0  0  0  0  0  0  0  0  0  0  0
   23.2574  -21.4455  -11.2457 C   0  0  0  0  0  0  0  0  0  0  0  0
   26.0316  -20.2126  -11.3054 C   0  0  0  0  0  0  0  0  0  0  0  0
   26.0684  -19.1455  -10.6118 O   0  0  0  0  0  0  0  0  0  0  0  0
   25.5975  -20.0556  -12.6358 O   0  0  0  0  0  0  0  0  0  0  0  0
  2  1  1  0
  3  2  1  0
  4  3  2  0
  5  3  1  0
  6 17  1  0
  6  5  1  0
  6  7  1  6
  8  7  1  0
  8 16  1  0
  9  8  2  0
 10  9  1  0
 10 11  1  0
 11 12  1  0
 11 16  2  0
 12 13  2  0
 13 14  1  0
 15 14  2  0
 16 15  1  0
 17 18  2  0
 19 20  1  0
 19 17  1  0
 21 22  1  0
 20 21  1  1
 22 23  2  0
 23 24  1  0
 25 24  2  0
 26 25  1  0
 27 26  2  0
 27 22  1  0
 28 20  1  0
 29 28  2  0
 30 28  1  0
M  END
$$$$
