GWF.pdb
     RDKit          3D

 30 32  0  0  1  0  0  0  0  0999 V2000
   27.4355  -25.0487  -15.9568 N   0  0  0  0  0  0  0  0  0  0  0  0
   26.7830  -23.9492  -16.6590 C   0  0  0  0  0  0  0  0  0  0  0  0
   26.3060  -22.9108  -15.7039 C   0  0  0  0  0  0  0  0  0  0  0  0
   26.3234  -23.1823  -14.4906 O   0  0  0  0  0  0  0  0  0  0  0  0
   25.8398  -21.6417  -16.1269 N   0  0  0  0  0  0  0  0  0  0  0  0
   25.3802  -20.5825  -15.2974 C   0  0  1  0  0  0  0  0  0  0  0  0
   25.6892  -19.1799  -15.7958 C   0  0  0  0  0  0  0  0  0  0  0  0
   27.1650  -19.0510  -15.9852 C   0  0  0  0  0  0  0  0  0  0  0  0
   28.2018  -19.8564  -15.5903 C   0  0  0  0  0  0  0  0  0  0  0  0
   29.3799  -19.3039  -16.0018 N   0  0  0  0  0  0  0  0  0  0  0  0
   29.1434  -18.1719  -16.6487 C   0  0  0  0  0  0  0  0  0  0  0  0
   29.9345  -17.2182  -17.2730 C   0  0  0  0  0  0  0  0  0  0  0  0
   29.3635  -16.1219  -17.8807 C   0  0  0  0  0  0  0  0  0  0  0  0
   27.9976  -15.9432  -17.8854 C   0  0  0  0  0  0  0  0  0  0  0  0
   27.2176  -16.9016  -17.2589 C   0  0  0  0  0  0  0  0  0  0  0  0
   27.7824  -17.9804  -16.6602 C   0  0  0  0  0  0  0  0  0  0  0  0
   24.0283  -20.7366  -14.7435 C   0  0  0  0  0  0  0  0  0  0  0  0
   23.1339  -21.4140  -15.2991 O   0  0  0  0  0  0  0  0  0  0  0  0
   23.7296  -20.0838  -13.5206 N   0  0  0  0  0  0  0  0  0  0  0  0
   22.4077  -20.1977  -12.9287 C   0  0  1  0  0  0  0  0  0  0  0  0
   22.3536  -19.6148  -11.5585 C   0  0  0  0  0  0  0  0  0  0  0  0
   21.0117  -19.7606  -10.9873 C   0  0  0  0  0  0  0  0  0  0  0  0
   20.6784  -20.9055  -10.2790 C   0  0  0  0  0  0  0  0  0  0  0  0
   19.4461  -21.0551   -9.7276 C   0  0  0  0  0  0  0  0  0  0  0  0
   18.5307  -20.0379   -9.8896 C   0  0  0  0  0  0  0  0  0  0  0  0
   18.8402  -18.8903  -10.5900 C   0  0  0  0  0  0  0  0  0  0  0  0
   20.0892  -18.7379  -11.1491 C   0  0  0  0  0  0  0  0  0  0  0  0
   21.4350  -19.6463  -13.8788 C   0  0  0  0  0  0  0  0  0  0  0  0
   21.6007  -18.5614  -14.5243 O   0  0  0  0  0  0  0  0  0  0  0  0
   20.2247  -20.3214  -14.1293 O   0  0  0  0  0  0  0  0  0  0  0  0
  2  1  1  0
  3  2  1  0
  4  3  2  0
  5  3  1  0
  6 17  1  0
  6  5  1  0
  6  7  1  6
  8  7  1  0
  8 16  1  0
  9  8  2  0
 10  9  1  0
 10 11  1  0
 11 12  1  0
 11 16  2  0
 12 13  2  0
 13 14  1  0
 15 14  2  0
 16 15  1  0
 17 18  2  0
 19 20  1  0
 19 17  1  0
 21 22  1  0
 20 21  1  1
 22 23  2  0
 23 24  1  0
 25 24  2  0
 26 25  1  0
 27 26  2  0
 27 22  1  0
 28 20  1  0
 29 28  2  0
 30 28  1  0
M  END
$$$$
