GWF.pdb
     RDKit          3D

 30 32  0  0  1  0  0  0  0  0999 V2000
   28.5580  -24.0321  -16.4252 N   0  0  0  0  0  0  0  0  0  0  0  0
   28.1602  -22.6392  -16.2550 C   0  0  0  0  0  0  0  0  0  0  0  0
   27.3243  -22.4654  -15.0346 C   0  0  0  0  0  0  0  0  0  0  0  0
   26.7245  -23.4606  -14.5920 O   0  0  0  0  0  0  0  0  0  0  0  0
   27.1925  -21.2207  -14.3711 N   0  0  0  0  0  0  0  0  0  0  0  0
   26.2766  -20.9017  -13.3316 C   0  0  1  0  0  0  0  0  0  0  0  0
   26.7043  -19.7740  -12.4061 C   0  0  0  0  0  0  0  0  0  0  0  0
   27.7204  -20.2991  -11.4457 C   0  0  0  0  0  0  0  0  0  0  0  0
   29.0133  -20.7146  -11.6335 C   0  0  0  0  0  0  0  0  0  0  0  0
   29.5337  -21.1140  -10.4368 N   0  0  0  0  0  0  0  0  0  0  0  0
   28.6258  -20.9713   -9.4821 C   0  0  0  0  0  0  0  0  0  0  0  0
   28.5988  -21.2054   -8.1148 C   0  0  0  0  0  0  0  0  0  0  0  0
   27.4651  -20.9380   -7.3797 C   0  0  0  0  0  0  0  0  0  0  0  0
   26.3323  -20.4330   -7.9790 C   0  0  0  0  0  0  0  0  0  0  0  0
   26.3706  -20.2034   -9.3448 C   0  0  0  0  0  0  0  0  0  0  0  0
   27.4883  -20.4683  -10.0671 C   0  0  0  0  0  0  0  0  0  0  0  0
   24.8583  -20.8587  -13.7117 C   0  0  0  0  0  0  0  0  0  0  0  0
   24.4298  -20.1969  -14.6843 O   0  0  0  0  0  0  0  0  0  0  0  0
   23.9362  -21.6053  -12.9350 N   0  0  0  0  0  0  0  0  0  0  0  0
   22.5175  -21.5765  -13.2470 C   0  0  1  0  0  0  0  0  0  0  0  0
   21.7764  -22.6934  -12.5961 C   0  0  0  0  0  0  0  0  0  0  0  0
   20.3604  -22.6632  -12.9732 C   0  0  0  0  0  0  0  0  0  0  0  0
   19.9578  -23.1621  -14.2030 C   0  0  0  0  0  0  0  0  0  0  0  0
   18.6491  -23.1588  -14.5668 C   0  0  0  0  0  0  0  0  0  0  0  0
   17.7267  -22.6454  -13.6810 C   0  0  0  0  0  0  0  0  0  0  0  0
   18.1044  -22.1440  -12.4524 C   0  0  0  0  0  0  0  0  0  0  0  0
   19.4307  -22.1472  -12.0830 C   0  0  0  0  0  0  0  0  0  0  0  0
   22.0121  -20.2331  -12.9426 C   0  0  0  0  0  0  0  0  0  0  0  0
   22.2793  -19.5927  -11.8751 O   0  0  0  0  0  0  0  0  0  0  0  0
   21.1745  -19.5649  -13.8564 O   0  0  0  0  0  0  0  0  0  0  0  0
  2  1  1  0
  3  2  1  0
  4  3  2  0
  5  3  1  0
  6 17  1  0
  6  5  1  0
  6  7  1  6
  8  7  1  0
  8 16  1  0
  9  8  2  0
 10  9  1  0
 10 11  1  0
 11 12  1  0
 11 16  2  0
 12 13  2  0
 13 14  1  0
 15 14  2  0
 16 15  1  0
 17 18  2  0
 19 20  1  0
 19 17  1  0
 21 22  1  0
 20 21  1  1
 22 23  2  0
 23 24  1  0
 25 24  2  0
 26 25  1  0
 27 26  2  0
 27 22  1  0
 28 20  1  0
 29 28  2  0
 30 28  1  0
M  END
$$$$
