GWF.pdb
     RDKit          3D

 30 32  0  0  1  0  0  0  0  0999 V2000
   27.5881  -22.6486  -15.2785 N   0  0  0  0  0  0  0  0  0  0  0  0
   27.4361  -21.4500  -14.4612 C   0  0  0  0  0  0  0  0  0  0  0  0
   26.5914  -21.7204  -13.2647 C   0  0  0  0  0  0  0  0  0  0  0  0
   25.8865  -22.7447  -13.2679 O   0  0  0  0  0  0  0  0  0  0  0  0
   26.5654  -20.8605  -12.1392 N   0  0  0  0  0  0  0  0  0  0  0  0
   25.5107  -20.7228  -11.1958 C   0  0  1  0  0  0  0  0  0  0  0  0
   25.9160  -20.1761   -9.8364 C   0  0  0  0  0  0  0  0  0  0  0  0
   27.2431  -20.7505   -9.4632 C   0  0  0  0  0  0  0  0  0  0  0  0
   28.1279  -21.5204  -10.1731 C   0  0  0  0  0  0  0  0  0  0  0  0
   29.2091  -21.7991   -9.3882 N   0  0  0  0  0  0  0  0  0  0  0  0
   29.0566  -21.2374   -8.1978 C   0  0  0  0  0  0  0  0  0  0  0  0
   29.8157  -21.1822   -7.0376 C   0  0  0  0  0  0  0  0  0  0  0  0
   29.3656  -20.4865   -5.9374 C   0  0  0  0  0  0  0  0  0  0  0  0
   28.1553  -19.8292   -5.9587 C   0  0  0  0  0  0  0  0  0  0  0  0
   27.4058  -19.8912   -7.1222 C   0  0  0  0  0  0  0  0  0  0  0  0
   27.8508  -20.5779   -8.2046 C   0  0  0  0  0  0  0  0  0  0  0  0
   24.2512  -20.1701  -11.7120 C   0  0  0  0  0  0  0  0  0  0  0  0
   24.1694  -19.0465  -12.2581 O   0  0  0  0  0  0  0  0  0  0  0  0
   23.0759  -20.9528  -11.5817 N   0  0  0  0  0  0  0  0  0  0  0  0
   21.8475  -20.5532  -12.2468 C   0  0  1  0  0  0  0  0  0  0  0  0
   21.8768  -20.8505  -13.7065 C   0  0  0  0  0  0  0  0  0  0  0  0
   22.0036  -22.2922  -13.9381 C   0  0  0  0  0  0  0  0  0  0  0  0
   23.2417  -22.8425  -14.2341 C   0  0  0  0  0  0  0  0  0  0  0  0
   23.3852  -24.1779  -14.4369 C   0  0  0  0  0  0  0  0  0  0  0  0
   22.2663  -24.9766  -14.3411 C   0  0  0  0  0  0  0  0  0  0  0  0
   21.0249  -24.4511  -14.0477 C   0  0  0  0  0  0  0  0  0  0  0  0
   20.8787  -23.0975  -13.8419 C   0  0  0  0  0  0  0  0  0  0  0  0
   20.7212  -21.1423  -11.5139 C   0  0  0  0  0  0  0  0  0  0  0  0
   20.8464  -21.9214  -10.5147 O   0  0  0  0  0  0  0  0  0  0  0  0
   19.3966  -20.8596  -11.8993 O   0  0  0  0  0  0  0  0  0  0  0  0
  2  1  1  0
  3  2  1  0
  4  3  2  0
  5  3  1  0
  6 17  1  0
  6  5  1  0
  6  7  1  1
  8  7  1  0
  8 16  1  0
  9  8  2  0
 10  9  1  0
 10 11  1  0
 11 12  1  0
 11 16  2  0
 12 13  2  0
 13 14  1  0
 15 14  2  0
 16 15  1  0
 17 18  2  0
 19 20  1  0
 19 17  1  0
 21 22  1  0
 20 21  1  6
 22 23  2  0
 23 24  1  0
 25 24  2  0
 26 25  1  0
 27 26  2  0
 27 22  1  0
 28 20  1  0
 29 28  2  0
 30 28  1  0
M  END
$$$$
