PWH.pdb
     RDKit          3D

 32 35  0  0  1  0  0  0  0  0999 V2000
    7.4849  -15.2646   19.9554 N   0  0  0  0  0  0  0  0  0  0  0  0
    6.6099  -14.2008   20.3088 C   0  0  0  0  0  0  0  0  0  0  0  0
    7.2612  -13.0252   19.5693 C   0  0  0  0  0  0  0  0  0  0  0  0
    8.7342  -13.3081   19.8411 C   0  0  0  0  0  0  0  0  0  0  0  0
    8.7989  -14.7656   20.2335 C   0  0  1  0  0  0  0  0  0  0  0  0
    9.1817  -14.9427   21.6504 C   0  0  0  0  0  0  0  0  0  0  0  0
   10.2193  -14.3544   22.1291 O   0  0  0  0  0  0  0  0  0  0  0  0
    8.4830  -15.7329   22.5676 N   0  0  0  0  0  0  0  0  0  0  0  0
    9.0008  -16.0181   23.9188 C   0  0  1  0  0  0  0  0  0  0  0  0
    7.8337  -16.1780   24.8239 C   0  0  0  0  0  0  0  0  0  0  0  0
    6.9384  -15.0321   24.9460 C   0  0  0  0  0  0  0  0  0  0  0  0
    5.7203  -14.7102   24.4207 C   0  0  0  0  0  0  0  0  0  0  0  0
    5.3077  -13.4954   24.8515 N   0  0  0  0  0  0  0  0  0  0  0  0
    6.2642  -13.0167   25.6663 C   0  0  0  0  0  0  0  0  0  0  0  0
    6.3920  -11.8278   26.3932 C   0  0  0  0  0  0  0  0  0  0  0  0
    7.4865  -11.5549   27.1733 C   0  0  0  0  0  0  0  0  0  0  0  0
    8.4984  -12.4820   27.2462 C   0  0  0  0  0  0  0  0  0  0  0  0
    8.3798  -13.6424   26.5405 C   0  0  0  0  0  0  0  0  0  0  0  0
    7.2834  -13.9370   25.7474 C   0  0  0  0  0  0  0  0  0  0  0  0
    9.7358  -17.3349   23.8813 C   0  0  0  0  0  0  0  0  0  0  0  0
    9.7092  -17.9894   22.8373 O   0  0  0  0  0  0  0  0  0  0  0  0
   10.4328  -17.7974   25.0165 N   0  0  0  0  0  0  0  0  0  0  0  0
   11.6592  -18.6243   24.8824 C   0  0  1  0  0  0  0  0  0  0  0  0
   12.6472  -17.8980   24.0168 C   0  0  0  0  0  0  0  0  0  0  0  0
   13.9202  -18.6177   23.8112 C   0  0  0  0  0  0  0  0  0  0  0  0
   14.2687  -19.8399   24.3901 C   0  0  0  0  0  0  0  0  0  0  0  0
   15.4885  -20.2033   23.9914 N   0  0  0  0  0  0  0  0  0  0  0  0
   15.9410  -19.2569   23.1740 C   0  0  0  0  0  0  0  0  0  0  0  0
   14.9906  -18.2966   23.0651 N   0  0  0  0  0  0  0  0  0  0  0  0
   12.1798  -18.8912   26.2502 C   0  0  0  0  0  0  0  0  0  0  0  0
   11.8226  -18.3051   27.2923 O   0  0  0  0  0  0  0  0  0  0  0  0
   13.1489  -19.8760   26.3973 O   0  0  0  0  0  0  0  0  0  0  0  0
  1  2  1  0
  1  5  1  0
  2  3  1  0
  3  4  1  0
  5  4  1  0
  5  6  1  1
  6  7  2  0
  8  9  1  0
  8  6  1  0
  9 10  1  1
 10 11  1  0
 11 12  2  0
 13 12  1  0
 14 13  1  0
 15 14  2  0
 16 15  1  0
 17 16  2  0
 17 18  1  0
 18 19  2  0
 19 14  1  0
 19 11  1  0
 20  9  1  0
 21 20  2  0
 22 20  1  0
 23 24  1  6
 23 22  1  0
 25 29  1  0
 25 24  1  0
 26 25  2  0
 27 26  1  0
 27 28  1  0
 28 29  2  0
 30 23  1  0
 30 32  1  0
 31 30  2  0
M  END
$$$$
