PWH.pdb
     RDKit          3D

 32 35  0  0  1  0  0  0  0  0999 V2000
    7.2064  -16.1664   21.0883 N   0  0  0  0  0  0  0  0  0  0  0  0
    6.3655  -15.0766   21.4449 C   0  0  0  0  0  0  0  0  0  0  0  0
    6.8461  -13.9997   20.4640 C   0  0  0  0  0  0  0  0  0  0  0  0
    8.3525  -14.2261   20.5195 C   0  0  0  0  0  0  0  0  0  0  0  0
    8.5304  -15.6188   21.0773 C   0  0  1  0  0  0  0  0  0  0  0  0
    9.1463  -15.6042   22.4212 C   0  0  0  0  0  0  0  0  0  0  0  0
   10.1475  -14.8398   22.6768 O   0  0  0  0  0  0  0  0  0  0  0  0
    8.7185  -16.3863   23.4978 N   0  0  0  0  0  0  0  0  0  0  0  0
    9.4068  -16.3772   24.8022 C   0  0  1  0  0  0  0  0  0  0  0  0
    8.3653  -16.4042   25.8612 C   0  0  0  0  0  0  0  0  0  0  0  0
    7.3390  -15.3688   25.7962 C   0  0  0  0  0  0  0  0  0  0  0  0
    6.0244  -15.3473   25.4295 C   0  0  0  0  0  0  0  0  0  0  0  0
    5.5048  -14.1030   25.5454 N   0  0  0  0  0  0  0  0  0  0  0  0
    6.4880  -13.3017   25.9918 C   0  0  0  0  0  0  0  0  0  0  0  0
    6.5435  -11.9367   26.2946 C   0  0  0  0  0  0  0  0  0  0  0  0
    7.6868  -11.3277   26.7449 C   0  0  0  0  0  0  0  0  0  0  0  0
    8.8232  -12.0835   26.9061 C   0  0  0  0  0  0  0  0  0  0  0  0
    8.7755  -13.4141   26.6129 C   0  0  0  0  0  0  0  0  0  0  0  0
    7.6317  -14.0479   26.1573 C   0  0  0  0  0  0  0  0  0  0  0  0
   10.2175  -17.6436   24.9240 C   0  0  0  0  0  0  0  0  0  0  0  0
    9.7287  -18.6932   24.5019 O   0  0  0  0  0  0  0  0  0  0  0  0
   11.5010  -17.6176   25.5075 N   0  0  0  0  0  0  0  0  0  0  0  0
   12.2921  -18.8624   25.6824 C   0  0  1  0  0  0  0  0  0  0  0  0
   13.7225  -18.5885   25.3193 C   0  0  0  0  0  0  0  0  0  0  0  0
   13.9129  -18.0601   23.9535 C   0  0  0  0  0  0  0  0  0  0  0  0
   13.3015  -18.5496   22.7972 C   0  0  0  0  0  0  0  0  0  0  0  0
   13.6950  -17.8418   21.7374 N   0  0  0  0  0  0  0  0  0  0  0  0
   14.5407  -16.9108   22.1694 C   0  0  0  0  0  0  0  0  0  0  0  0
   14.6723  -17.0434   23.5119 N   0  0  0  0  0  0  0  0  0  0  0  0
   12.1318  -19.3091   27.0923 C   0  0  0  0  0  0  0  0  0  0  0  0
   12.6702  -20.3117   27.6040 O   0  0  0  0  0  0  0  0  0  0  0  0
   11.3144  -18.5549   27.9252 O   0  0  0  0  0  0  0  0  0  0  0  0
  1  2  1  0
  1  5  1  0
  2  3  1  0
  3  4  1  0
  5  4  1  0
  5  6  1  1
  6  7  2  0
  8  9  1  0
  8  6  1  0
  9 10  1  1
 10 11  1  0
 11 12  2  0
 13 12  1  0
 14 13  1  0
 15 14  2  0
 16 15  1  0
 17 16  2  0
 17 18  1  0
 18 19  2  0
 19 14  1  0
 19 11  1  0
 20  9  1  0
 21 20  2  0
 22 20  1  0
 23 24  1  1
 23 22  1  0
 25 29  1  0
 25 24  1  0
 26 25  2  0
 27 26  1  0
 27 28  1  0
 28 29  2  0
 30 23  1  0
 30 32  1  0
 31 30  2  0
M  END
$$$$
