PWH.pdb
     RDKit          3D

 32 35  0  0  1  0  0  0  0  0999 V2000
    7.2810  -15.8570   20.8711 N   0  0  0  0  0  0  0  0  0  0  0  0
    6.3042  -14.9398   21.3474 C   0  0  0  0  0  0  0  0  0  0  0  0
    6.5514  -13.7398   20.4243 C   0  0  0  0  0  0  0  0  0  0  0  0
    8.0753  -13.7268   20.3881 C   0  0  0  0  0  0  0  0  0  0  0  0
    8.5008  -15.1062   20.8339 C   0  0  1  0  0  0  0  0  0  0  0  0
    9.1873  -15.0795   22.1429 C   0  0  0  0  0  0  0  0  0  0  0  0
   10.1407  -14.2474   22.3679 O   0  0  0  0  0  0  0  0  0  0  0  0
    8.8800  -15.9202   23.2165 N   0  0  0  0  0  0  0  0  0  0  0  0
    9.6056  -15.8593   24.4991 C   0  0  1  0  0  0  0  0  0  0  0  0
    8.6547  -16.2451   25.5733 C   0  0  0  0  0  0  0  0  0  0  0  0
    7.5073  -15.3669   25.7779 C   0  0  0  0  0  0  0  0  0  0  0  0
    6.1556  -15.5168   25.6609 C   0  0  0  0  0  0  0  0  0  0  0  0
    5.5081  -14.3683   25.9662 N   0  0  0  0  0  0  0  0  0  0  0  0
    6.4440  -13.4573   26.2859 C   0  0  0  0  0  0  0  0  0  0  0  0
    6.3756  -12.1159   26.6784 C   0  0  0  0  0  0  0  0  0  0  0  0
    7.4934  -11.3719   26.9577 C   0  0  0  0  0  0  0  0  0  0  0  0
    8.7294  -11.9628   26.8488 C   0  0  0  0  0  0  0  0  0  0  0  0
    8.8026  -13.2695   26.4670 C   0  0  0  0  0  0  0  0  0  0  0  0
    7.6866  -14.0378   26.1807 C   0  0  0  0  0  0  0  0  0  0  0  0
   10.7097  -16.8871   24.4732 C   0  0  0  0  0  0  0  0  0  0  0  0
   10.3996  -18.0752   24.3684 O   0  0  0  0  0  0  0  0  0  0  0  0
   12.0592  -16.4893   24.5672 N   0  0  0  0  0  0  0  0  0  0  0  0
   13.1605  -17.4841   24.5089 C   0  0  1  0  0  0  0  0  0  0  0  0
   14.4220  -16.7932   24.0797 C   0  0  0  0  0  0  0  0  0  0  0  0
   14.3485  -16.1675   22.7440 C   0  0  0  0  0  0  0  0  0  0  0  0
   13.6219  -16.6533   21.6548 C   0  0  0  0  0  0  0  0  0  0  0  0
   13.7762  -15.8449   20.6052 N   0  0  0  0  0  0  0  0  0  0  0  0
   14.5786  -14.8524   20.9789 C   0  0  0  0  0  0  0  0  0  0  0  0
   14.9249  -15.0482   22.2747 N   0  0  0  0  0  0  0  0  0  0  0  0
   13.2773  -18.1127   25.8522 C   0  0  0  0  0  0  0  0  0  0  0  0
   14.0867  -19.0080   26.1690 O   0  0  0  0  0  0  0  0  0  0  0  0
   12.4174  -17.6760   26.8524 O   0  0  0  0  0  0  0  0  0  0  0  0
  1  2  1  0
  1  5  1  0
  2  3  1  0
  3  4  1  0
  5  4  1  0
  5  6  1  1
  6  7  2  0
  8  9  1  0
  8  6  1  0
  9 10  1  1
 10 11  1  0
 11 12  2  0
 13 12  1  0
 14 13  1  0
 15 14  2  0
 16 15  1  0
 17 16  2  0
 17 18  1  0
 18 19  2  0
 19 14  1  0
 19 11  1  0
 20  9  1  0
 21 20  2  0
 22 20  1  0
 23 24  1  1
 23 22  1  0
 25 29  1  0
 25 24  1  0
 26 25  2  0
 27 26  1  0
 27 28  1  0
 28 29  2  0
 30 23  1  0
 30 32  1  0
 31 30  2  0
M  END
$$$$
