PWH.pdb
     RDKit          3D

 32 35  0  0  1  0  0  0  0  0999 V2000
    7.9590  -15.1783   18.7642 N   0  0  0  0  0  0  0  0  0  0  0  0
    6.8909  -14.2413   18.8204 C   0  0  0  0  0  0  0  0  0  0  0  0
    7.5099  -13.0440   18.0881 C   0  0  0  0  0  0  0  0  0  0  0  0
    8.9205  -13.0646   18.6654 C   0  0  0  0  0  0  0  0  0  0  0  0
    9.1055  -14.4547   19.2277 C   0  0  1  0  0  0  0  0  0  0  0  0
    9.2104  -14.4477   20.7023 C   0  0  0  0  0  0  0  0  0  0  0  0
   10.0209  -13.6487   21.2995 O   0  0  0  0  0  0  0  0  0  0  0  0
    8.4707  -15.2735   21.5535 N   0  0  0  0  0  0  0  0  0  0  0  0
    8.5456  -15.1619   23.0223 C   0  0  1  0  0  0  0  0  0  0  0  0
    7.1633  -15.2787   23.5539 C   0  0  0  0  0  0  0  0  0  0  0  0
    6.9758  -14.9586   24.9653 C   0  0  0  0  0  0  0  0  0  0  0  0
    6.7614  -15.6972   26.0930 C   0  0  0  0  0  0  0  0  0  0  0  0
    6.6448  -14.9032   27.1827 N   0  0  0  0  0  0  0  0  0  0  0  0
    6.7837  -13.6326   26.7653 C   0  0  0  0  0  0  0  0  0  0  0  0
    6.7566  -12.4012   27.4295 C   0  0  0  0  0  0  0  0  0  0  0  0
    6.9258  -11.2075   26.7760 C   0  0  0  0  0  0  0  0  0  0  0  0
    7.1299  -11.2169   25.4169 C   0  0  0  0  0  0  0  0  0  0  0  0
    7.1576  -12.4134   24.7640 C   0  0  0  0  0  0  0  0  0  0  0  0
    6.9890  -13.6293   25.4051 C   0  0  0  0  0  0  0  0  0  0  0  0
    9.3404  -16.3302   23.5507 C   0  0  0  0  0  0  0  0  0  0  0  0
    9.1324  -17.4447   23.0676 O   0  0  0  0  0  0  0  0  0  0  0  0
   10.2948  -16.1425   24.5717 N   0  0  0  0  0  0  0  0  0  0  0  0
   11.1193  -17.2722   25.0714 C   0  0  1  0  0  0  0  0  0  0  0  0
   12.5593  -16.8498   25.1052 C   0  0  0  0  0  0  0  0  0  0  0  0
   13.1764  -16.6860   23.7735 C   0  0  0  0  0  0  0  0  0  0  0  0
   12.5475  -16.9207   22.5489 C   0  0  0  0  0  0  0  0  0  0  0  0
   13.3925  -16.6751   21.5465 N   0  0  0  0  0  0  0  0  0  0  0  0
   14.5473  -16.2896   22.0819 C   0  0  0  0  0  0  0  0  0  0  0  0
   14.4158  -16.2963   23.4310 N   0  0  0  0  0  0  0  0  0  0  0  0
   10.6007  -17.6558   26.4120 C   0  0  0  0  0  0  0  0  0  0  0  0
   11.0467  -18.5742   27.1295 O   0  0  0  0  0  0  0  0  0  0  0  0
    9.5264  -16.9389   26.9240 O   0  0  0  0  0  0  0  0  0  0  0  0
  1  2  1  0
  1  5  1  0
  2  3  1  0
  3  4  1  0
  5  4  1  0
  5  6  1  1
  6  7  2  0
  8  9  1  0
  8  6  1  0
  9 10  1  1
 10 11  1  0
 11 12  2  0
 13 12  1  0
 14 13  1  0
 15 14  2  0
 16 15  1  0
 17 16  2  0
 17 18  1  0
 18 19  2  0
 19 14  1  0
 19 11  1  0
 20  9  1  0
 21 20  2  0
 22 20  1  0
 23 24  1  1
 23 22  1  0
 25 29  1  0
 25 24  1  0
 26 25  2  0
 27 26  1  0
 27 28  1  0
 28 29  2  0
 30 23  1  0
 30 32  1  0
 31 30  2  0
M  END
$$$$
