PWH.pdb
     RDKit          3D

 32 35  0  0  1  0  0  0  0  0999 V2000
    8.0810  -15.2467   18.7398 N   0  0  0  0  0  0  0  0  0  0  0  0
    7.0016  -14.3221   18.7864 C   0  0  0  0  0  0  0  0  0  0  0  0
    7.6310  -13.0994   18.1067 C   0  0  0  0  0  0  0  0  0  0  0  0
    9.0225  -13.1218   18.7285 C   0  0  0  0  0  0  0  0  0  0  0  0
    9.2043  -14.5246   19.2593 C   0  0  1  0  0  0  0  0  0  0  0  0
    9.2617  -14.5563   20.7361 C   0  0  0  0  0  0  0  0  0  0  0  0
   10.1410  -13.8698   21.3744 O   0  0  0  0  0  0  0  0  0  0  0  0
    8.4029  -15.3038   21.5470 N   0  0  0  0  0  0  0  0  0  0  0  0
    8.4277  -15.2112   23.0188 C   0  0  1  0  0  0  0  0  0  0  0  0
    7.0392  -15.4146   23.5063 C   0  0  0  0  0  0  0  0  0  0  0  0
    6.8016  -15.1705   24.9252 C   0  0  0  0  0  0  0  0  0  0  0  0
    6.6009  -15.9708   26.0127 C   0  0  0  0  0  0  0  0  0  0  0  0
    6.4161  -15.2353   27.1336 N   0  0  0  0  0  0  0  0  0  0  0  0
    6.4959  -13.9412   26.7775 C   0  0  0  0  0  0  0  0  0  0  0  0
    6.3867  -12.7451   27.4954 C   0  0  0  0  0  0  0  0  0  0  0  0
    6.5066  -11.5151   26.9008 C   0  0  0  0  0  0  0  0  0  0  0  0
    6.7428  -11.4508   25.5484 C   0  0  0  0  0  0  0  0  0  0  0  0
    6.8504  -12.6127   24.8434 C   0  0  0  0  0  0  0  0  0  0  0  0
    6.7326  -13.8641   25.4246 C   0  0  0  0  0  0  0  0  0  0  0  0
    9.2721  -16.3405   23.5549 C   0  0  0  0  0  0  0  0  0  0  0  0
    9.1047  -17.4683   23.0870 O   0  0  0  0  0  0  0  0  0  0  0  0
   10.2260  -16.1026   24.5657 N   0  0  0  0  0  0  0  0  0  0  0  0
   11.0863  -17.1964   25.0847 C   0  0  1  0  0  0  0  0  0  0  0  0
   12.5176  -16.7446   25.0651 C   0  0  0  0  0  0  0  0  0  0  0  0
   13.1110  -16.6623   23.7153 C   0  0  0  0  0  0  0  0  0  0  0  0
   12.5343  -17.1486   22.5400 C   0  0  0  0  0  0  0  0  0  0  0  0
   13.3380  -16.9081   21.5030 N   0  0  0  0  0  0  0  0  0  0  0  0
   14.4155  -16.2827   21.9682 C   0  0  0  0  0  0  0  0  0  0  0  0
   14.2775  -16.1339   23.3084 N   0  0  0  0  0  0  0  0  0  0  0  0
   10.6102  -17.5402   26.4515 C   0  0  0  0  0  0  0  0  0  0  0  0
    9.6889  -16.9665   27.0672 O   0  0  0  0  0  0  0  0  0  0  0  0
   11.2355  -18.5894   27.1140 O   0  0  0  0  0  0  0  0  0  0  0  0
  1  2  1  0
  1  5  1  0
  2  3  1  0
  3  4  1  0
  5  4  1  0
  5  6  1  1
  6  7  2  0
  8  9  1  0
  8  6  1  0
  9 10  1  1
 10 11  1  0
 11 12  2  0
 13 12  1  0
 14 13  1  0
 15 14  2  0
 16 15  1  0
 17 16  2  0
 17 18  1  0
 18 19  2  0
 19 14  1  0
 19 11  1  0
 20  9  1  0
 21 20  2  0
 22 20  1  0
 23 24  1  1
 23 22  1  0
 25 29  1  0
 25 24  1  0
 26 25  2  0
 27 26  1  0
 27 28  1  0
 28 29  2  0
 30 23  1  0
 30 32  1  0
 31 30  2  0
M  END
$$$$
