PWH.pdb
     RDKit          3D

 32 35  0  0  1  0  0  0  0  0999 V2000
    7.3175  -15.6944   20.6731 N   0  0  0  0  0  0  0  0  0  0  0  0
    6.4221  -14.6734   21.0949 C   0  0  0  0  0  0  0  0  0  0  0  0
    6.8697  -13.5040   20.2087 C   0  0  0  0  0  0  0  0  0  0  0  0
    8.3836  -13.6675   20.2770 C   0  0  0  0  0  0  0  0  0  0  0  0
    8.6153  -15.0900   20.7305 C   0  0  1  0  0  0  0  0  0  0  0  0
    9.2074  -15.1519   22.0836 C   0  0  0  0  0  0  0  0  0  0  0  0
   10.1903  -14.3892   22.4062 O   0  0  0  0  0  0  0  0  0  0  0  0
    8.7749  -16.0088   23.0998 N   0  0  0  0  0  0  0  0  0  0  0  0
    9.3787  -16.0049   24.4454 C   0  0  1  0  0  0  0  0  0  0  0  0
    8.2839  -16.1976   25.4308 C   0  0  0  0  0  0  0  0  0  0  0  0
    7.2335  -15.1848   25.4485 C   0  0  0  0  0  0  0  0  0  0  0  0
    5.9155  -15.1678   25.0936 C   0  0  0  0  0  0  0  0  0  0  0  0
    5.3685  -13.9478   25.3032 N   0  0  0  0  0  0  0  0  0  0  0  0
    6.3368  -13.1580   25.7996 C   0  0  0  0  0  0  0  0  0  0  0  0
    6.3635  -11.8175   26.2003 C   0  0  0  0  0  0  0  0  0  0  0  0
    7.4964  -11.2158   26.6856 C   0  0  0  0  0  0  0  0  0  0  0  0
    8.6513  -11.9543   26.7834 C   0  0  0  0  0  0  0  0  0  0  0  0
    8.6317  -13.2609   26.3948 C   0  0  0  0  0  0  0  0  0  0  0  0
    7.4988  -13.8870   25.9024 C   0  0  0  0  0  0  0  0  0  0  0  0
   10.3086  -17.1876   24.5558 C   0  0  0  0  0  0  0  0  0  0  0  0
    9.9938  -18.2336   23.9852 O   0  0  0  0  0  0  0  0  0  0  0  0
   11.5053  -17.0899   25.2953 N   0  0  0  0  0  0  0  0  0  0  0  0
   12.4103  -18.2569   25.4523 C   0  0  1  0  0  0  0  0  0  0  0  0
   13.8274  -17.7695   25.5374 C   0  0  0  0  0  0  0  0  0  0  0  0
   14.3067  -17.0781   24.3237 C   0  0  0  0  0  0  0  0  0  0  0  0
   13.7484  -17.1882   23.0483 C   0  0  0  0  0  0  0  0  0  0  0  0
   14.4269  -16.4307   22.1853 N   0  0  0  0  0  0  0  0  0  0  0  0
   15.4058  -15.8344   22.8597 C   0  0  0  0  0  0  0  0  0  0  0  0
   15.3325  -16.2268   24.1551 N   0  0  0  0  0  0  0  0  0  0  0  0
   11.9845  -19.0027   26.6671 C   0  0  0  0  0  0  0  0  0  0  0  0
   11.0557  -18.6759   27.4336 O   0  0  0  0  0  0  0  0  0  0  0  0
   12.6707  -20.1668   26.9902 O   0  0  0  0  0  0  0  0  0  0  0  0
  1  2  1  0
  1  5  1  0
  2  3  1  0
  3  4  1  0
  5  4  1  0
  5  6  1  1
  6  7  2  0
  8  9  1  0
  8  6  1  0
  9 10  1  1
 10 11  1  0
 11 12  2  0
 13 12  1  0
 14 13  1  0
 15 14  2  0
 16 15  1  0
 17 16  2  0
 17 18  1  0
 18 19  2  0
 19 14  1  0
 19 11  1  0
 20  9  1  0
 21 20  2  0
 22 20  1  0
 23 24  1  1
 23 22  1  0
 25 29  1  0
 25 24  1  0
 26 25  2  0
 27 26  1  0
 27 28  1  0
 28 29  2  0
 30 23  1  0
 30 32  1  0
 31 30  2  0
M  END
$$$$
