PWH.pdb
     RDKit          3D

 32 35  0  0  1  0  0  0  0  0999 V2000
    7.5505  -15.8759   20.5053 N   0  0  0  0  0  0  0  0  0  0  0  0
    6.5140  -14.9469   20.7964 C   0  0  0  0  0  0  0  0  0  0  0  0
    6.9402  -13.7504   19.9363 C   0  0  0  0  0  0  0  0  0  0  0  0
    8.4449  -13.7556   20.1795 C   0  0  0  0  0  0  0  0  0  0  0  0
    8.7653  -15.1399   20.6932 C   0  0  1  0  0  0  0  0  0  0  0  0
    9.2010  -15.1209   22.1057 C   0  0  0  0  0  0  0  0  0  0  0  0
   10.0438  -14.2441   22.5216 O   0  0  0  0  0  0  0  0  0  0  0  0
    8.7582  -16.0157   23.0840 N   0  0  0  0  0  0  0  0  0  0  0  0
    9.3417  -16.0567   24.4380 C   0  0  1  0  0  0  0  0  0  0  0  0
    8.2306  -16.2680   25.4010 C   0  0  0  0  0  0  0  0  0  0  0  0
    7.1906  -15.2448   25.4350 C   0  0  0  0  0  0  0  0  0  0  0  0
    5.9122  -15.1649   24.9633 C   0  0  0  0  0  0  0  0  0  0  0  0
    5.3567  -13.9663   25.2573 N   0  0  0  0  0  0  0  0  0  0  0  0
    6.2796  -13.2542   25.9276 C   0  0  0  0  0  0  0  0  0  0  0  0
    6.2781  -11.9675   26.4775 C   0  0  0  0  0  0  0  0  0  0  0  0
    7.3645  -11.4440   27.1307 C   0  0  0  0  0  0  0  0  0  0  0  0
    8.4996  -12.2093   27.2516 C   0  0  0  0  0  0  0  0  0  0  0  0
    8.5072  -13.4639   26.7180 C   0  0  0  0  0  0  0  0  0  0  0  0
    7.4213  -14.0107   26.0551 C   0  0  0  0  0  0  0  0  0  0  0  0
   10.2593  -17.2509   24.5273 C   0  0  0  0  0  0  0  0  0  0  0  0
    9.7979  -18.3632   24.2653 O   0  0  0  0  0  0  0  0  0  0  0  0
   11.6090  -17.0890   24.9021 N   0  0  0  0  0  0  0  0  0  0  0  0
   12.5269  -18.2530   24.9942 C   0  0  1  0  0  0  0  0  0  0  0  0
   13.9450  -17.7621   24.9601 C   0  0  0  0  0  0  0  0  0  0  0  0
   14.3127  -17.0511   23.7190 C   0  0  0  0  0  0  0  0  0  0  0  0
   13.8246  -17.3346   22.4416 C   0  0  0  0  0  0  0  0  0  0  0  0
   14.3643  -16.5015   21.5507 N   0  0  0  0  0  0  0  0  0  0  0  0
   15.1856  -15.6887   22.2090 C   0  0  0  0  0  0  0  0  0  0  0  0
   15.1539  -16.0220   23.5225 N   0  0  0  0  0  0  0  0  0  0  0  0
   12.2032  -18.9899   26.2453 C   0  0  0  0  0  0  0  0  0  0  0  0
   12.5136  -20.1724   26.4948 O   0  0  0  0  0  0  0  0  0  0  0  0
   11.4937  -18.3167   27.2323 O   0  0  0  0  0  0  0  0  0  0  0  0
  1  2  1  0
  1  5  1  0
  2  3  1  0
  3  4  1  0
  5  4  1  0
  5  6  1  1
  6  7  2  0
  8  9  1  0
  8  6  1  0
  9 10  1  1
 10 11  1  0
 11 12  2  0
 13 12  1  0
 14 13  1  0
 15 14  2  0
 16 15  1  0
 17 16  2  0
 17 18  1  0
 18 19  2  0
 19 14  1  0
 19 11  1  0
 20  9  1  0
 21 20  2  0
 22 20  1  0
 23 24  1  1
 23 22  1  0
 25 29  1  0
 25 24  1  0
 26 25  2  0
 27 26  1  0
 27 28  1  0
 28 29  2  0
 30 23  1  0
 30 32  1  0
 31 30  2  0
M  END
$$$$
