PWH.pdb
     RDKit          3D

 32 35  0  0  1  0  0  0  0  0999 V2000
    8.0941  -15.5173   18.7245 N   0  0  0  0  0  0  0  0  0  0  0  0
    7.0150  -14.5912   18.7138 C   0  0  0  0  0  0  0  0  0  0  0  0
    7.6459  -13.4117   17.9631 C   0  0  0  0  0  0  0  0  0  0  0  0
    9.0365  -13.3972   18.5874 C   0  0  0  0  0  0  0  0  0  0  0  0
    9.2168  -14.7657   19.2015 C   0  0  1  0  0  0  0  0  0  0  0  0
    9.2719  -14.7090   20.6777 C   0  0  0  0  0  0  0  0  0  0  0  0
   10.1176  -13.9473   21.2748 O   0  0  0  0  0  0  0  0  0  0  0  0
    8.4458  -15.4463   21.5308 N   0  0  0  0  0  0  0  0  0  0  0  0
    8.5143  -15.3204   22.9987 C   0  0  1  0  0  0  0  0  0  0  0  0
    7.1250  -15.1714   23.5032 C   0  0  0  0  0  0  0  0  0  0  0  0
    6.9730  -14.8766   24.9243 C   0  0  0  0  0  0  0  0  0  0  0  0
    6.6319  -15.6124   26.0223 C   0  0  0  0  0  0  0  0  0  0  0  0
    6.6280  -14.8495   27.1401 N   0  0  0  0  0  0  0  0  0  0  0  0
    6.9695  -13.6023   26.7714 C   0  0  0  0  0  0  0  0  0  0  0  0
    7.1277  -12.4067   27.4809 C   0  0  0  0  0  0  0  0  0  0  0  0
    7.4898  -11.2317   26.8734 C   0  0  0  0  0  0  0  0  0  0  0  0
    7.7063  -11.2243   25.5163 C   0  0  0  0  0  0  0  0  0  0  0  0
    7.5539  -12.3860   24.8194 C   0  0  0  0  0  0  0  0  0  0  0  0
    7.1891  -13.5825   25.4136 C   0  0  0  0  0  0  0  0  0  0  0  0
    9.0720  -16.6034   23.5633 C   0  0  0  0  0  0  0  0  0  0  0  0
    8.6301  -17.6710   23.1349 O   0  0  0  0  0  0  0  0  0  0  0  0
   10.0732  -16.5722   24.5557 N   0  0  0  0  0  0  0  0  0  0  0  0
   10.6870  -17.8233   25.0692 C   0  0  1  0  0  0  0  0  0  0  0  0
   12.1810  -17.7072   24.9824 C   0  0  0  0  0  0  0  0  0  0  0  0
   12.7035  -17.5973   23.6055 C   0  0  0  0  0  0  0  0  0  0  0  0
   12.2345  -18.3046   22.4964 C   0  0  0  0  0  0  0  0  0  0  0  0
   12.9298  -17.9649   21.4101 N   0  0  0  0  0  0  0  0  0  0  0  0
   13.8333  -17.0616   21.7794 C   0  0  0  0  0  0  0  0  0  0  0  0
   13.6958  -16.8392   23.1094 N   0  0  0  0  0  0  0  0  0  0  0  0
   10.2058  -18.0280   26.4619 C   0  0  0  0  0  0  0  0  0  0  0  0
    9.4129  -17.2845   27.0748 O   0  0  0  0  0  0  0  0  0  0  0  0
   10.6704  -19.1393   27.1545 O   0  0  0  0  0  0  0  0  0  0  0  0
  1  2  1  0
  1  5  1  0
  2  3  1  0
  3  4  1  0
  5  4  1  0
  5  6  1  1
  6  7  2  0
  8  9  1  0
  8  6  1  0
  9 10  1  1
 10 11  1  0
 11 12  2  0
 13 12  1  0
 14 13  1  0
 15 14  2  0
 16 15  1  0
 17 16  2  0
 17 18  1  0
 18 19  2  0
 19 14  1  0
 19 11  1  0
 20  9  1  0
 21 20  2  0
 22 20  1  0
 23 24  1  1
 23 22  1  0
 25 29  1  0
 25 24  1  0
 26 25  2  0
 27 26  1  0
 27 28  1  0
 28 29  2  0
 30 23  1  0
 30 32  1  0
 31 30  2  0
M  END
$$$$
