PWH.pdb
     RDKit          3D

 32 35  0  0  1  0  0  0  0  0999 V2000
    7.7575  -15.2077   18.3153 N   0  0  0  0  0  0  0  0  0  0  0  0
    6.6961  -14.2633   18.3766 C   0  0  0  0  0  0  0  0  0  0  0  0
    7.3179  -13.0724   17.6363 C   0  0  0  0  0  0  0  0  0  0  0  0
    8.7325  -13.1009   18.2033 C   0  0  0  0  0  0  0  0  0  0  0  0
    8.9122  -14.4905   18.7683 C   0  0  1  0  0  0  0  0  0  0  0  0
    9.0280  -14.4800   20.2420 C   0  0  0  0  0  0  0  0  0  0  0  0
   10.0048  -13.8771   20.8201 O   0  0  0  0  0  0  0  0  0  0  0  0
    8.1256  -15.0980   21.1125 N   0  0  0  0  0  0  0  0  0  0  0  0
    8.2727  -15.0323   22.5786 C   0  0  1  0  0  0  0  0  0  0  0  0
    6.9445  -15.3217   23.1779 C   0  0  0  0  0  0  0  0  0  0  0  0
    6.8390  -15.1941   24.6277 C   0  0  0  0  0  0  0  0  0  0  0  0
    6.7279  -16.0804   25.6600 C   0  0  0  0  0  0  0  0  0  0  0  0
    6.6539  -15.4388   26.8493 N   0  0  0  0  0  0  0  0  0  0  0  0
    6.7168  -14.1201   26.5942 C   0  0  0  0  0  0  0  0  0  0  0  0
    6.6873  -12.9867   27.4143 C   0  0  0  0  0  0  0  0  0  0  0  0
    6.7677  -11.7125   26.9136 C   0  0  0  0  0  0  0  0  0  0  0  0
    6.8814  -11.5382   25.5551 C   0  0  0  0  0  0  0  0  0  0  0  0
    6.9109  -12.6385   24.7507 C   0  0  0  0  0  0  0  0  0  0  0  0
    6.8312  -13.9330   25.2362 C   0  0  0  0  0  0  0  0  0  0  0  0
    9.2196  -16.1232   23.0136 C   0  0  0  0  0  0  0  0  0  0  0  0
    9.1140  -17.2326   22.4876 O   0  0  0  0  0  0  0  0  0  0  0  0
   10.1973  -15.8708   23.9979 N   0  0  0  0  0  0  0  0  0  0  0  0
   11.2813  -16.8478   24.2739 C   0  0  1  0  0  0  0  0  0  0  0  0
   12.6082  -16.1840   24.0465 C   0  0  0  0  0  0  0  0  0  0  0  0
   13.7747  -17.0280   24.3752 C   0  0  0  0  0  0  0  0  0  0  0  0
   13.7383  -18.2259   25.0922 C   0  0  0  0  0  0  0  0  0  0  0  0
   14.9691  -18.7269   25.2079 N   0  0  0  0  0  0  0  0  0  0  0  0
   15.8004  -17.8931   24.5898 C   0  0  0  0  0  0  0  0  0  0  0  0
   15.0764  -16.8641   24.0855 N   0  0  0  0  0  0  0  0  0  0  0  0
   11.1122  -17.3325   25.6702 C   0  0  0  0  0  0  0  0  0  0  0  0
   10.7087  -16.6501   26.6339 O   0  0  0  0  0  0  0  0  0  0  0  0
   11.4268  -18.6584   25.9417 O   0  0  0  0  0  0  0  0  0  0  0  0
  1  2  1  0
  1  5  1  0
  2  3  1  0
  3  4  1  0
  5  4  1  0
  5  6  1  1
  6  7  2  0
  8  9  1  0
  8  6  1  0
  9 10  1  1
 10 11  1  0
 11 12  2  0
 13 12  1  0
 14 13  1  0
 15 14  2  0
 16 15  1  0
 17 16  2  0
 17 18  1  0
 18 19  2  0
 19 14  1  0
 19 11  1  0
 20  9  1  0
 21 20  2  0
 22 20  1  0
 23 24  1  1
 23 22  1  0
 25 29  1  0
 25 24  1  0
 26 25  2  0
 27 26  1  0
 27 28  1  0
 28 29  2  0
 30 23  1  0
 30 32  1  0
 31 30  2  0
M  END
$$$$
