PWH.pdb
     RDKit          3D

 32 35  0  0  1  0  0  0  0  0999 V2000
    7.3628  -15.2551   20.7715 N   0  0  0  0  0  0  0  0  0  0  0  0
    7.0576  -13.9041   21.0936 C   0  0  0  0  0  0  0  0  0  0  0  0
    7.6877  -13.1678   19.9047 C   0  0  0  0  0  0  0  0  0  0  0  0
    8.9915  -13.9437   19.7569 C   0  0  0  0  0  0  0  0  0  0  0  0
    8.7647  -15.2532   20.4755 C   0  0  1  0  0  0  0  0  0  0  0  0
    9.5983  -15.3714   21.6906 C   0  0  0  0  0  0  0  0  0  0  0  0
   10.8753  -15.2403   21.6267 O   0  0  0  0  0  0  0  0  0  0  0  0
    9.1006  -15.6264   22.9717 N   0  0  0  0  0  0  0  0  0  0  0  0
    9.9837  -15.8209   24.1369 C   0  0  1  0  0  0  0  0  0  0  0  0
    9.6293  -14.7912   25.1473 C   0  0  0  0  0  0  0  0  0  0  0  0
    8.2073  -14.5903   25.4060 C   0  0  0  0  0  0  0  0  0  0  0  0
    7.0926  -15.3674   25.2760 C   0  0  0  0  0  0  0  0  0  0  0  0
    5.9808  -14.6948   25.6540 N   0  0  0  0  0  0  0  0  0  0  0  0
    6.3703  -13.4655   26.0350 C   0  0  0  0  0  0  0  0  0  0  0  0
    5.6751  -12.3496   26.5142 C   0  0  0  0  0  0  0  0  0  0  0  0
    6.3031  -11.1760   26.8444 C   0  0  0  0  0  0  0  0  0  0  0  0
    7.6671  -11.0887   26.7003 C   0  0  0  0  0  0  0  0  0  0  0  0
    8.3502  -12.1726   26.2341 C   0  0  0  0  0  0  0  0  0  0  0  0
    7.7351  -13.3662   25.8953 C   0  0  0  0  0  0  0  0  0  0  0  0
    9.6912  -17.1732   24.7382 C   0  0  0  0  0  0  0  0  0  0  0  0
    8.8799  -17.9037   24.1665 O   0  0  0  0  0  0  0  0  0  0  0  0
   10.3342  -17.5824   25.9245 N   0  0  0  0  0  0  0  0  0  0  0  0
   10.8033  -18.9803   26.1026 C   0  0  1  0  0  0  0  0  0  0  0  0
   11.7548  -19.3225   24.9933 C   0  0  0  0  0  0  0  0  0  0  0  0
   11.1172  -19.9452   23.8157 C   0  0  0  0  0  0  0  0  0  0  0  0
    9.9968  -19.4558   23.1409 C   0  0  0  0  0  0  0  0  0  0  0  0
    9.6867  -20.2623   22.1248 N   0  0  0  0  0  0  0  0  0  0  0  0
   10.5690  -21.2573   22.1198 C   0  0  0  0  0  0  0  0  0  0  0  0
   11.4355  -21.0647   23.1443 N   0  0  0  0  0  0  0  0  0  0  0  0
   11.4284  -19.0825   27.4487 C   0  0  0  0  0  0  0  0  0  0  0  0
   11.8624  -18.1273   28.1242 O   0  0  0  0  0  0  0  0  0  0  0  0
   11.5467  -20.3447   28.0175 O   0  0  0  0  0  0  0  0  0  0  0  0
  1  2  1  0
  1  5  1  0
  2  3  1  0
  3  4  1  0
  5  4  1  0
  5  6  1  1
  6  7  2  0
  8  9  1  0
  8  6  1  0
  9 10  1  1
 10 11  1  0
 11 12  2  0
 13 12  1  0
 14 13  1  0
 15 14  2  0
 16 15  1  0
 17 16  2  0
 17 18  1  0
 18 19  2  0
 19 14  1  0
 19 11  1  0
 20  9  1  0
 21 20  2  0
 22 20  1  0
 23 24  1  6
 23 22  1  0
 25 29  1  0
 25 24  1  0
 26 25  2  0
 27 26  1  0
 27 28  1  0
 28 29  2  0
 30 23  1  0
 30 32  1  0
 31 30  2  0
M  END
$$$$
