PWH.pdb
     RDKit          3D

 32 35  0  0  1  0  0  0  0  0999 V2000
    7.5242  -16.6783   21.5726 N   0  0  0  0  0  0  0  0  0  0  0  0
    6.5075  -15.7193   21.8348 C   0  0  0  0  0  0  0  0  0  0  0  0
    6.7664  -14.7017   20.7165 C   0  0  0  0  0  0  0  0  0  0  0  0
    8.2897  -14.6496   20.7358 C   0  0  0  0  0  0  0  0  0  0  0  0
    8.7271  -15.9106   21.4437 C   0  0  1  0  0  0  0  0  0  0  0  0
    9.3566  -15.6240   22.7502 C   0  0  0  0  0  0  0  0  0  0  0  0
   10.2251  -14.6840   22.8691 O   0  0  0  0  0  0  0  0  0  0  0  0
    9.0807  -16.3174   23.9322 N   0  0  0  0  0  0  0  0  0  0  0  0
    9.7864  -16.0343   25.1960 C   0  0  1  0  0  0  0  0  0  0  0  0
    8.7808  -16.0620   26.2892 C   0  0  0  0  0  0  0  0  0  0  0  0
    7.5606  -15.2907   26.0756 C   0  0  0  0  0  0  0  0  0  0  0  0
    6.2838  -15.6035   25.7078 C   0  0  0  0  0  0  0  0  0  0  0  0
    5.5083  -14.4963   25.6441 N   0  0  0  0  0  0  0  0  0  0  0  0
    6.2838  -13.4482   25.9730 C   0  0  0  0  0  0  0  0  0  0  0  0
    6.0383  -12.0746   26.0778 C   0  0  0  0  0  0  0  0  0  0  0  0
    7.0110  -11.1775   26.4382 C   0  0  0  0  0  0  0  0  0  0  0  0
    8.2763  -11.6415   26.7073 C   0  0  0  0  0  0  0  0  0  0  0  0
    8.5219  -12.9788   26.6070 C   0  0  0  0  0  0  0  0  0  0  0  0
    7.5541  -13.9008   26.2449 C   0  0  0  0  0  0  0  0  0  0  0  0
   10.7731  -17.1462   25.4523 C   0  0  0  0  0  0  0  0  0  0  0  0
   11.4810  -17.0789   26.4588 O   0  0  0  0  0  0  0  0  0  0  0  0
   10.8761  -18.2311   24.5574 N   0  0  0  0  0  0  0  0  0  0  0  0
   11.8013  -19.3622   24.8226 C   0  0  1  0  0  0  0  0  0  0  0  0
   13.1361  -19.0576   24.2073 C   0  0  0  0  0  0  0  0  0  0  0  0
   13.0620  -18.4631   22.8574 C   0  0  0  0  0  0  0  0  0  0  0  0
   13.5437  -17.2038   22.4934 C   0  0  0  0  0  0  0  0  0  0  0  0
   13.3129  -16.9829   21.1984 N   0  0  0  0  0  0  0  0  0  0  0  0
   12.6976  -18.0571   20.7125 C   0  0  0  0  0  0  0  0  0  0  0  0
   12.5459  -18.9536   21.7179 N   0  0  0  0  0  0  0  0  0  0  0  0
   11.8771  -19.5521   26.2962 C   0  0  0  0  0  0  0  0  0  0  0  0
   11.2381  -18.9014   27.1479 O   0  0  0  0  0  0  0  0  0  0  0  0
   12.7291  -20.5359   26.7829 O   0  0  0  0  0  0  0  0  0  0  0  0
  1  2  1  0
  1  5  1  0
  2  3  1  0
  3  4  1  0
  5  4  1  0
  5  6  1  1
  6  7  2  0
  8  9  1  0
  8  6  1  0
  9 10  1  1
 10 11  1  0
 11 12  2  0
 13 12  1  0
 14 13  1  0
 15 14  2  0
 16 15  1  0
 17 16  2  0
 17 18  1  0
 18 19  2  0
 19 14  1  0
 19 11  1  0
 20  9  1  0
 21 20  2  0
 22 20  1  0
 23 24  1  1
 23 22  1  0
 25 29  1  0
 25 24  1  0
 26 25  2  0
 27 26  1  0
 27 28  1  0
 28 29  2  0
 30 23  1  0
 30 32  1  0
 31 30  2  0
M  END
$$$$
