PWH.pdb
     RDKit          3D

 32 35  0  0  1  0  0  0  0  0999 V2000
    7.1597  -16.1074   21.2186 N   0  0  0  0  0  0  0  0  0  0  0  0
    6.3247  -15.0437   21.6584 C   0  0  0  0  0  0  0  0  0  0  0  0
    6.7258  -13.9308   20.6820 C   0  0  0  0  0  0  0  0  0  0  0  0
    8.2363  -14.1311   20.6381 C   0  0  0  0  0  0  0  0  0  0  0  0
    8.4713  -15.5357   21.1425 C   0  0  1  0  0  0  0  0  0  0  0  0
    9.1690  -15.5482   22.4458 C   0  0  0  0  0  0  0  0  0  0  0  0
   10.2563  -14.8841   22.6154 O   0  0  0  0  0  0  0  0  0  0  0  0
    8.7331  -16.2528   23.5716 N   0  0  0  0  0  0  0  0  0  0  0  0
    9.5174  -16.3094   24.8194 C   0  0  1  0  0  0  0  0  0  0  0  0
    8.5603  -16.2727   25.9549 C   0  0  0  0  0  0  0  0  0  0  0  0
    7.4118  -15.3836   25.8142 C   0  0  0  0  0  0  0  0  0  0  0  0
    6.1006  -15.5611   25.4786 C   0  0  0  0  0  0  0  0  0  0  0  0
    5.4307  -14.3853   25.4855 N   0  0  0  0  0  0  0  0  0  0  0  0
    6.3108  -13.4283   25.8285 C   0  0  0  0  0  0  0  0  0  0  0  0
    6.1984  -12.0436   25.9960 C   0  0  0  0  0  0  0  0  0  0  0  0
    7.2616  -11.2564   26.3577 C   0  0  0  0  0  0  0  0  0  0  0  0
    8.4855  -11.8463   26.5644 C   0  0  0  0  0  0  0  0  0  0  0  0
    8.6014  -13.1951   26.4030 C   0  0  0  0  0  0  0  0  0  0  0  0
    7.5408  -14.0075   26.0384 C   0  0  0  0  0  0  0  0  0  0  0  0
   10.2395  -17.6330   24.8707 C   0  0  0  0  0  0  0  0  0  0  0  0
    9.7084  -18.6093   24.3382 O   0  0  0  0  0  0  0  0  0  0  0  0
   11.4896  -17.7411   25.5140 N   0  0  0  0  0  0  0  0  0  0  0  0
   12.1737  -19.0522   25.6510 C   0  0  1  0  0  0  0  0  0  0  0  0
   12.3967  -19.6331   24.2851 C   0  0  0  0  0  0  0  0  0  0  0  0
   13.0447  -18.7113   23.3305 C   0  0  0  0  0  0  0  0  0  0  0  0
   13.3543  -17.3713   23.5732 C   0  0  0  0  0  0  0  0  0  0  0  0
   13.9330  -16.8338   22.4983 N   0  0  0  0  0  0  0  0  0  0  0  0
   14.0078  -17.7814   21.5681 C   0  0  0  0  0  0  0  0  0  0  0  0
   13.4696  -18.9185   22.0728 N   0  0  0  0  0  0  0  0  0  0  0  0
   13.4423  -18.8279   26.3949 C   0  0  0  0  0  0  0  0  0  0  0  0
   13.8764  -17.7223   26.7772 O   0  0  0  0  0  0  0  0  0  0  0  0
   14.2237  -19.9361   26.6984 O   0  0  0  0  0  0  0  0  0  0  0  0
  1  2  1  0
  1  5  1  0
  2  3  1  0
  3  4  1  0
  5  4  1  0
  5  6  1  1
  6  7  2  0
  8  9  1  0
  8  6  1  0
  9 10  1  1
 10 11  1  0
 11 12  2  0
 13 12  1  0
 14 13  1  0
 15 14  2  0
 16 15  1  0
 17 16  2  0
 17 18  1  0
 18 19  2  0
 19 14  1  0
 19 11  1  0
 20  9  1  0
 21 20  2  0
 22 20  1  0
 23 24  1  6
 23 22  1  0
 25 29  1  0
 25 24  1  0
 26 25  2  0
 27 26  1  0
 27 28  1  0
 28 29  2  0
 30 23  1  0
 30 32  1  0
 31 30  2  0
M  END
$$$$
