PWH.pdb
     RDKit          3D

 32 35  0  0  1  0  0  0  0  0999 V2000
    7.1676  -15.6879   21.1207 N   0  0  0  0  0  0  0  0  0  0  0  0
    6.4212  -14.5463   21.5227 C   0  0  0  0  0  0  0  0  0  0  0  0
    6.9300  -13.4957   20.5274 C   0  0  0  0  0  0  0  0  0  0  0  0
    8.4181  -13.8258   20.5119 C   0  0  0  0  0  0  0  0  0  0  0  0
    8.5245  -15.2327   21.0521 C   0  0  1  0  0  0  0  0  0  0  0  0
    9.2005  -15.2733   22.3661 C   0  0  0  0  0  0  0  0  0  0  0  0
   10.3035  -14.6418   22.5573 O   0  0  0  0  0  0  0  0  0  0  0  0
    8.7268  -15.9722   23.4801 N   0  0  0  0  0  0  0  0  0  0  0  0
    9.4369  -15.9711   24.7728 C   0  0  1  0  0  0  0  0  0  0  0  0
    8.4185  -16.1040   25.8462 C   0  0  0  0  0  0  0  0  0  0  0  0
    7.3313  -15.1307   25.8408 C   0  0  0  0  0  0  0  0  0  0  0  0
    5.9977  -15.1884   25.5554 C   0  0  0  0  0  0  0  0  0  0  0  0
    5.4141  -13.9759   25.6987 N   0  0  0  0  0  0  0  0  0  0  0  0
    6.3740  -13.1154   26.0812 C   0  0  0  0  0  0  0  0  0  0  0  0
    6.3677  -11.7474   26.3753 C   0  0  0  0  0  0  0  0  0  0  0  0
    7.4987  -11.0696   26.7525 C   0  0  0  0  0  0  0  0  0  0  0  0
    8.6852  -11.7567   26.8462 C   0  0  0  0  0  0  0  0  0  0  0  0
    8.6978  -13.0898   26.5611 C   0  0  0  0  0  0  0  0  0  0  0  0
    7.5674  -13.7925   26.1787 C   0  0  0  0  0  0  0  0  0  0  0  0
   10.3261  -17.1883   24.8311 C   0  0  0  0  0  0  0  0  0  0  0  0
    9.9047  -18.2431   24.3530 O   0  0  0  0  0  0  0  0  0  0  0  0
   11.6053  -17.1119   25.4196 N   0  0  0  0  0  0  0  0  0  0  0  0
   12.4136  -18.3335   25.6648 C   0  0  1  0  0  0  0  0  0  0  0  0
   13.8621  -18.0172   25.4306 C   0  0  0  0  0  0  0  0  0  0  0  0
   14.1238  -17.2382   24.2035 C   0  0  0  0  0  0  0  0  0  0  0  0
   13.2673  -17.1344   23.1054 C   0  0  0  0  0  0  0  0  0  0  0  0
   13.8132  -16.3534   22.1720 N   0  0  0  0  0  0  0  0  0  0  0  0
   14.9945  -15.9486   22.6296 C   0  0  0  0  0  0  0  0  0  0  0  0
   15.1822  -16.4848   23.8604 N   0  0  0  0  0  0  0  0  0  0  0  0
   12.1415  -18.7877   27.0551 C   0  0  0  0  0  0  0  0  0  0  0  0
   12.6639  -19.7732   27.6143 O   0  0  0  0  0  0  0  0  0  0  0  0
   11.2283  -18.0619   27.8101 O   0  0  0  0  0  0  0  0  0  0  0  0
  1  2  1  0
  1  5  1  0
  2  3  1  0
  3  4  1  0
  5  4  1  0
  5  6  1  1
  6  7  2  0
  8  9  1  0
  8  6  1  0
  9 10  1  1
 10 11  1  0
 11 12  2  0
 13 12  1  0
 14 13  1  0
 15 14  2  0
 16 15  1  0
 17 16  2  0
 17 18  1  0
 18 19  2  0
 19 14  1  0
 19 11  1  0
 20  9  1  0
 21 20  2  0
 22 20  1  0
 23 24  1  1
 23 22  1  0
 25 29  1  0
 25 24  1  0
 26 25  2  0
 27 26  1  0
 27 28  1  0
 28 29  2  0
 30 23  1  0
 30 32  1  0
 31 30  2  0
M  END
$$$$
