SWD.pdb
     RDKit          3D

 29 30  0  0  1  0  0  0  0  0999 V2000
   27.8264  -18.9504  -13.8396 O   0  0  0  0  0  0  0  0  0  0  0  0
   28.9248  -19.2198  -13.0318 C   0  0  0  0  0  0  0  0  0  0  0  0
   29.0306  -20.7173  -12.7649 C   0  0  2  0  0  0  0  0  0  0  0  0
   29.0515  -21.3480  -14.0892 N   0  0  0  0  0  0  0  0  0  0  0  0
   27.7874  -21.1995  -12.0824 C   0  0  0  0  0  0  0  0  0  0  0  0
   26.9199  -21.8139  -12.8012 O   0  0  0  0  0  0  0  0  0  0  0  0
   27.5856  -20.9893  -10.7078 N   0  0  0  0  0  0  0  0  0  0  0  0
   26.3204  -21.3088  -10.0484 C   0  0  1  0  0  0  0  0  0  0  0  0
   26.4774  -21.4398   -8.5802 C   0  0  0  0  0  0  0  0  0  0  0  0
   26.9844  -20.2604   -7.8630 C   0  0  0  0  0  0  0  0  0  0  0  0
   26.7888  -18.9377   -8.1471 C   0  0  0  0  0  0  0  0  0  0  0  0
   27.4258  -18.2345   -7.1848 N   0  0  0  0  0  0  0  0  0  0  0  0
   28.0129  -19.0529   -6.3058 C   0  0  0  0  0  0  0  0  0  0  0  0
   28.7694  -18.8268   -5.1423 C   0  0  0  0  0  0  0  0  0  0  0  0
   29.2132  -19.9368   -4.4566 C   0  0  0  0  0  0  0  0  0  0  0  0
   28.9517  -21.2178   -4.8576 C   0  0  0  0  0  0  0  0  0  0  0  0
   28.2090  -21.4261   -6.0023 C   0  0  0  0  0  0  0  0  0  0  0  0
   27.7462  -20.3307   -6.7168 C   0  0  0  0  0  0  0  0  0  0  0  0
   25.2731  -20.3340  -10.4940 C   0  0  0  0  0  0  0  0  0  0  0  0
   25.5386  -19.1823  -10.9010 O   0  0  0  0  0  0  0  0  0  0  0  0
   23.8923  -20.7001  -10.4621 N   0  0  0  0  0  0  0  0  0  0  0  0
   22.9635  -20.1948  -11.4043 C   0  0  1  0  0  0  0  0  0  0  0  0
   23.2132  -20.5460  -12.8234 C   0  0  0  0  0  0  0  0  0  0  0  0
   22.2792  -20.0430  -13.8185 C   0  0  0  0  0  0  0  0  0  0  0  0
   21.2627  -19.3319  -13.6182 O   0  0  0  0  0  0  0  0  0  0  0  0
   21.5813  -20.7687  -11.0911 C   0  0  0  0  0  0  0  0  0  0  0  0
   20.6720  -20.0553  -10.6273 O   0  0  0  0  0  0  0  0  0  0  0  0
   22.5267  -20.3793  -15.1547 O   0  0  0  0  0  0  0  0  0  0  0  0
   21.3903  -22.1048  -11.3457 O   0  0  0  0  0  0  0  0  0  0  0  0
  2  1  1  0
  3  2  1  0
  3  4  1  6
  5  3  1  0
  5  6  2  0
  7  5  1  0
  8 19  1  0
  8  7  1  0
  9 10  1  0
  8  9  1  1
 10 18  1  0
 11 12  1  0
 11 10  2  0
 12 13  1  0
 13 18  2  0
 13 14  1  0
 14 15  2  0
 15 16  1  0
 17 16  2  0
 18 17  1  0
 19 21  1  0
 20 19  2  0
 22 21  1  0
 22 26  1  0
 23 24  1  0
 22 23  1  6
 24 25  2  0
 26 27  2  0
 26 29  1  0
 28 24  1  0
M  END
$$$$
