SWD.pdb
     RDKit          3D

 29 30  0  0  1  0  0  0  0  0999 V2000
   27.5628  -20.4780  -18.1849 O   0  0  0  0  0  0  0  0  0  0  0  0
   27.9442  -21.8090  -18.3049 C   0  0  0  0  0  0  0  0  0  0  0  0
   28.6557  -22.2717  -17.0380 C   0  0  2  0  0  0  0  0  0  0  0  0
   29.0040  -23.6763  -17.2784 N   0  0  0  0  0  0  0  0  0  0  0  0
   27.6980  -22.2607  -15.8862 C   0  0  0  0  0  0  0  0  0  0  0  0
   26.9558  -23.2952  -15.7260 O   0  0  0  0  0  0  0  0  0  0  0  0
   27.6224  -21.1607  -15.0152 N   0  0  0  0  0  0  0  0  0  0  0  0
   26.7628  -21.1613  -13.8325 C   0  0  1  0  0  0  0  0  0  0  0  0
   27.3625  -20.4006  -12.7103 C   0  0  0  0  0  0  0  0  0  0  0  0
   26.5924  -20.3545  -11.4584 C   0  0  0  0  0  0  0  0  0  0  0  0
   25.2506  -20.1579  -11.2869 C   0  0  0  0  0  0  0  0  0  0  0  0
   25.0129  -20.2320   -9.9587 N   0  0  0  0  0  0  0  0  0  0  0  0
   26.1429  -20.4679   -9.2846 C   0  0  0  0  0  0  0  0  0  0  0  0
   26.4259  -20.6413   -7.9182 C   0  0  0  0  0  0  0  0  0  0  0  0
   27.7371  -20.8916   -7.5756 C   0  0  0  0  0  0  0  0  0  0  0  0
   28.7474  -20.9743   -8.4935 C   0  0  0  0  0  0  0  0  0  0  0  0
   28.4565  -20.8008   -9.8316 C   0  0  0  0  0  0  0  0  0  0  0  0
   27.1465  -20.5475  -10.2116 C   0  0  0  0  0  0  0  0  0  0  0  0
   25.3818  -20.7343  -14.2274 C   0  0  0  0  0  0  0  0  0  0  0  0
   25.1486  -19.7039  -14.8956 O   0  0  0  0  0  0  0  0  0  0  0  0
   24.2503  -21.5140  -13.8356 N   0  0  0  0  0  0  0  0  0  0  0  0
   22.9773  -21.3343  -14.4298 C   0  0  1  0  0  0  0  0  0  0  0  0
   22.0081  -22.4423  -14.2498 C   0  0  0  0  0  0  0  0  0  0  0  0
   21.5237  -22.7045  -12.9037 C   0  0  0  0  0  0  0  0  0  0  0  0
   21.7762  -22.0484  -11.8621 O   0  0  0  0  0  0  0  0  0  0  0  0
   22.3061  -20.1140  -13.7987 C   0  0  0  0  0  0  0  0  0  0  0  0
   21.1753  -19.7365  -14.1586 O   0  0  0  0  0  0  0  0  0  0  0  0
   20.6794  -23.8079  -12.7320 O   0  0  0  0  0  0  0  0  0  0  0  0
   23.0074  -19.4560  -12.8181 O   0  0  0  0  0  0  0  0  0  0  0  0
  2  1  1  0
  3  2  1  0
  3  4  1  6
  5  3  1  0
  5  6  2  0
  7  5  1  0
  8 19  1  0
  8  7  1  0
  9 10  1  0
  8  9  1  1
 10 18  1  0
 11 12  1  0
 11 10  2  0
 12 13  1  0
 13 18  2  0
 13 14  1  0
 14 15  2  0
 15 16  1  0
 17 16  2  0
 18 17  1  0
 19 21  1  0
 20 19  2  0
 22 21  1  0
 22 26  1  0
 23 24  1  0
 22 23  1  1
 24 25  2  0
 26 27  2  0
 26 29  1  0
 28 24  1  0
M  END
$$$$
