SWD.pdb
     RDKit          3D

 29 30  0  0  1  0  0  0  0  0999 V2000
   19.6695  -12.3855  -21.5733 O   0  0  0  0  0  0  0  0  0  0  0  0
   19.3077  -11.7449  -20.3943 C   0  0  0  0  0  0  0  0  0  0  0  0
   20.2567  -12.1364  -19.2668 C   0  0  2  0  0  0  0  0  0  0  0  0
   19.8742  -13.5025  -18.8931 N   0  0  0  0  0  0  0  0  0  0  0  0
   19.9990  -11.2779  -18.0665 C   0  0  0  0  0  0  0  0  0  0  0  0
   18.8650  -11.4080  -17.4803 O   0  0  0  0  0  0  0  0  0  0  0  0
   20.9661  -10.3707  -17.6016 N   0  0  0  0  0  0  0  0  0  0  0  0
   20.6588   -9.3487  -16.6023 C   0  0  1  0  0  0  0  0  0  0  0  0
   21.8314   -9.0337  -15.7519 C   0  0  0  0  0  0  0  0  0  0  0  0
   21.6624   -7.9532  -14.7688 C   0  0  0  0  0  0  0  0  0  0  0  0
   21.1386   -8.0189  -13.5080 C   0  0  0  0  0  0  0  0  0  0  0  0
   21.2265   -6.7760  -12.9846 N   0  0  0  0  0  0  0  0  0  0  0  0
   21.7832   -5.9297  -13.8569 C   0  0  0  0  0  0  0  0  0  0  0  0
   22.1025   -4.5618  -13.7953 C   0  0  0  0  0  0  0  0  0  0  0  0
   22.7002   -4.0061  -14.9059 C   0  0  0  0  0  0  0  0  0  0  0  0
   22.9856   -4.7192  -16.0373 C   0  0  0  0  0  0  0  0  0  0  0  0
   22.6657   -6.0610  -16.0855 C   0  0  0  0  0  0  0  0  0  0  0  0
   22.0633   -6.6526  -14.9847 C   0  0  0  0  0  0  0  0  0  0  0  0
   20.0273   -8.1711  -17.2805 C   0  0  0  0  0  0  0  0  0  0  0  0
   20.4066   -7.7348  -18.3888 O   0  0  0  0  0  0  0  0  0  0  0  0
   18.9392   -7.4840  -16.6594 N   0  0  0  0  0  0  0  0  0  0  0  0
   18.3826   -6.3073  -17.2176 C   0  0  1  0  0  0  0  0  0  0  0  0
   16.9162   -6.3178  -17.4395 C   0  0  0  0  0  0  0  0  0  0  0  0
   16.4266   -6.8670  -18.6942 C   0  0  0  0  0  0  0  0  0  0  0  0
   17.1052   -7.1844  -19.7031 O   0  0  0  0  0  0  0  0  0  0  0  0
   18.6302   -5.1418  -16.2593 C   0  0  0  0  0  0  0  0  0  0  0  0
   18.5661   -3.9595  -16.6450 O   0  0  0  0  0  0  0  0  0  0  0  0
   15.0463   -7.0718  -18.8066 O   0  0  0  0  0  0  0  0  0  0  0  0
   18.9251   -5.4599  -14.9561 O   0  0  0  0  0  0  0  0  0  0  0  0
  2  1  1  0
  3  2  1  0
  3  4  1  1
  5  3  1  0
  5  6  2  0
  7  5  1  0
  8 19  1  0
  8  7  1  0
  9 10  1  0
  8  9  1  6
 10 18  1  0
 11 12  1  0
 11 10  2  0
 12 13  1  0
 13 18  2  0
 13 14  1  0
 14 15  2  0
 15 16  1  0
 17 16  2  0
 18 17  1  0
 19 21  1  0
 20 19  2  0
 22 21  1  0
 22 26  1  0
 23 24  1  0
 22 23  1  1
 24 25  2  0
 26 27  2  0
 26 29  1  0
 28 24  1  0
M  END
$$$$
