SWD.pdb
     RDKit          3D

 29 30  0  0  1  0  0  0  0  0999 V2000
   26.6250  -18.7401  -15.4598 O   0  0  0  0  0  0  0  0  0  0  0  0
   27.8141  -18.5921  -14.7557 C   0  0  0  0  0  0  0  0  0  0  0  0
   28.2742  -19.9378  -14.2058 C   0  0  2  0  0  0  0  0  0  0  0  0
   28.5423  -20.7688  -15.3846 N   0  0  0  0  0  0  0  0  0  0  0  0
   27.1487  -20.5952  -13.4676 C   0  0  0  0  0  0  0  0  0  0  0  0
   26.6222  -21.6371  -14.0005 O   0  0  0  0  0  0  0  0  0  0  0  0
   26.6939  -20.0901  -12.2378 N   0  0  0  0  0  0  0  0  0  0  0  0
   25.5820  -20.6986  -11.5090 C   0  0  1  0  0  0  0  0  0  0  0  0
   25.7339  -20.5523  -10.0417 C   0  0  0  0  0  0  0  0  0  0  0  0
   27.0794  -20.7760   -9.4921 C   0  0  0  0  0  0  0  0  0  0  0  0
   28.1543  -21.3800  -10.0822 C   0  0  0  0  0  0  0  0  0  0  0  0
   29.1719  -21.3166   -9.1953 N   0  0  0  0  0  0  0  0  0  0  0  0
   28.7887  -20.6989   -8.0734 C   0  0  0  0  0  0  0  0  0  0  0  0
   29.4590  -20.3740   -6.8808 C   0  0  0  0  0  0  0  0  0  0  0  0
   28.7372  -19.7023   -5.9180 C   0  0  0  0  0  0  0  0  0  0  0  0
   27.4253  -19.3502   -6.0765 C   0  0  0  0  0  0  0  0  0  0  0  0
   26.7784  -19.6762   -7.2514 C   0  0  0  0  0  0  0  0  0  0  0  0
   27.4756  -20.3524   -8.2421 C   0  0  0  0  0  0  0  0  0  0  0  0
   24.2887  -20.1911  -12.0707 C   0  0  0  0  0  0  0  0  0  0  0  0
   24.2077  -19.1721  -12.7901 O   0  0  0  0  0  0  0  0  0  0  0  0
   23.0665  -20.8753  -11.7885 N   0  0  0  0  0  0  0  0  0  0  0  0
   21.9575  -20.8171  -12.6675 C   0  0  1  0  0  0  0  0  0  0  0  0
   22.1311  -21.4747  -13.9855 C   0  0  0  0  0  0  0  0  0  0  0  0
   21.5857  -20.8014  -15.1537 C   0  0  0  0  0  0  0  0  0  0  0  0
   20.9148  -19.7391  -15.1766 O   0  0  0  0  0  0  0  0  0  0  0  0
   20.7749  -21.5365  -12.0182 C   0  0  0  0  0  0  0  0  0  0  0  0
   19.7107  -20.9404  -11.7674 O   0  0  0  0  0  0  0  0  0  0  0  0
   21.8271  -21.3898  -16.4009 O   0  0  0  0  0  0  0  0  0  0  0  0
   20.9412  -22.8682  -11.7260 O   0  0  0  0  0  0  0  0  0  0  0  0
  2  1  1  0
  3  2  1  0
  3  4  1  6
  5  3  1  0
  5  6  2  0
  7  5  1  0
  8 19  1  0
  8  7  1  0
  9 10  1  0
  8  9  1  1
 10 18  1  0
 11 12  1  0
 11 10  2  0
 12 13  1  0
 13 18  2  0
 13 14  1  0
 14 15  2  0
 15 16  1  0
 17 16  2  0
 18 17  1  0
 19 21  1  0
 20 19  2  0
 22 21  1  0
 22 26  1  0
 23 24  1  0
 22 23  1  6
 24 25  2  0
 26 27  2  0
 26 29  1  0
 28 24  1  0
M  END
$$$$
