SWD.pdb
     RDKit          3D

 29 30  0  0  1  0  0  0  0  0999 V2000
   38.1012  -27.2929    4.4037 O   0  0  0  0  0  0  0  0  0  0  0  0
   39.3160  -26.8186    4.8841 C   0  0  0  0  0  0  0  0  0  0  0  0
   39.3506  -25.2954    4.8232 C   0  0  2  0  0  0  0  0  0  0  0  0
   40.6165  -24.9094    5.4560 N   0  0  0  0  0  0  0  0  0  0  0  0
   38.2571  -24.7292    5.6763 C   0  0  0  0  0  0  0  0  0  0  0  0
   38.3589  -24.8845    6.9460 O   0  0  0  0  0  0  0  0  0  0  0  0
   37.1673  -24.0512    5.1044 N   0  0  0  0  0  0  0  0  0  0  0  0
   36.0501  -23.5558    5.9070 C   0  0  1  0  0  0  0  0  0  0  0  0
   35.2978  -22.4855    5.2099 C   0  0  0  0  0  0  0  0  0  0  0  0
   34.2352  -21.8187    5.9772 C   0  0  0  0  0  0  0  0  0  0  0  0
   34.1681  -21.5893    7.3231 C   0  0  0  0  0  0  0  0  0  0  0  0
   33.0174  -20.9169    7.5465 N   0  0  0  0  0  0  0  0  0  0  0  0
   32.3562  -20.7104    6.4031 C   0  0  0  0  0  0  0  0  0  0  0  0
   31.1452  -20.0637    6.0991 C   0  0  0  0  0  0  0  0  0  0  0  0
   30.7691  -20.0262    4.7739 C   0  0  0  0  0  0  0  0  0  0  0  0
   31.5121  -20.5822    3.7694 C   0  0  0  0  0  0  0  0  0  0  0  0
   32.6983  -21.2153    4.0813 C   0  0  0  0  0  0  0  0  0  0  0  0
   33.1071  -21.2711    5.4059 C   0  0  0  0  0  0  0  0  0  0  0  0
   35.2251  -24.7170    6.3721 C   0  0  0  0  0  0  0  0  0  0  0  0
   34.8872  -25.6600    5.6244 O   0  0  0  0  0  0  0  0  0  0  0  0
   34.7796  -24.7830    7.7282 N   0  0  0  0  0  0  0  0  0  0  0  0
   34.0625  -25.8984    8.2256 C   0  0  1  0  0  0  0  0  0  0  0  0
   34.8677  -27.0974    8.5630 C   0  0  0  0  0  0  0  0  0  0  0  0
   34.1732  -28.2372    9.1408 C   0  0  0  0  0  0  0  0  0  0  0  0
   32.9394  -28.3514    9.3497 O   0  0  0  0  0  0  0  0  0  0  0  0
   33.3764  -25.5009    9.5329 C   0  0  0  0  0  0  0  0  0  0  0  0
   33.5885  -24.3964   10.0676 O   0  0  0  0  0  0  0  0  0  0  0  0
   34.9525  -29.3399    9.5104 O   0  0  0  0  0  0  0  0  0  0  0  0
   32.5167  -26.4171   10.0878 O   0  0  0  0  0  0  0  0  0  0  0  0
  2  1  1  0
  3  2  1  0
  3  4  1  1
  5  3  1  0
  5  6  2  0
  7  5  1  0
  8 19  1  0
  8  7  1  0
  9 10  1  0
  8  9  1  6
 10 18  1  0
 11 12  1  0
 11 10  2  0
 12 13  1  0
 13 18  2  0
 13 14  1  0
 14 15  2  0
 15 16  1  0
 17 16  2  0
 18 17  1  0
 19 21  1  0
 20 19  2  0
 22 21  1  0
 22 26  1  0
 23 24  1  0
 22 23  1  1
 24 25  2  0
 26 27  2  0
 26 29  1  0
 28 24  1  0
M  END
$$$$
