SWD.pdb
     RDKit          3D

 29 30  0  0  1  0  0  0  0  0999 V2000
   27.7517  -20.3625  -14.3667 O   0  0  0  0  0  0  0  0  0  0  0  0
   28.4337  -19.5354  -13.4823 C   0  0  0  0  0  0  0  0  0  0  0  0
   28.9181  -20.3344  -12.2772 C   0  0  2  0  0  0  0  0  0  0  0  0
   29.5895  -21.5128  -12.8361 N   0  0  0  0  0  0  0  0  0  0  0  0
   27.7424  -20.8418  -11.5000 C   0  0  0  0  0  0  0  0  0  0  0  0
   27.5785  -22.1132  -11.4405 O   0  0  0  0  0  0  0  0  0  0  0  0
   26.8592  -19.9569  -10.8587 N   0  0  0  0  0  0  0  0  0  0  0  0
   25.6973  -20.4257  -10.1051 C   0  0  1  0  0  0  0  0  0  0  0  0
   25.4608  -19.6134   -8.8878 C   0  0  0  0  0  0  0  0  0  0  0  0
   26.6261  -19.3588   -8.0278 C   0  0  0  0  0  0  0  0  0  0  0  0
   27.5372  -18.3425   -8.1016 C   0  0  0  0  0  0  0  0  0  0  0  0
   28.4004  -18.5183   -7.0768 N   0  0  0  0  0  0  0  0  0  0  0  0
   28.0748  -19.5980   -6.3591 C   0  0  0  0  0  0  0  0  0  0  0  0
   28.6323  -20.1912   -5.2125 C   0  0  0  0  0  0  0  0  0  0  0  0
   28.0084  -21.3179   -4.7222 C   0  0  0  0  0  0  0  0  0  0  0  0
   26.8953  -21.8665   -5.2969 C   0  0  0  0  0  0  0  0  0  0  0  0
   26.3587  -21.2754   -6.4229 C   0  0  0  0  0  0  0  0  0  0  0  0
   26.9617  -20.1393   -6.9429 C   0  0  0  0  0  0  0  0  0  0  0  0
   24.5251  -20.5444  -11.0310 C   0  0  0  0  0  0  0  0  0  0  0  0
   24.5214  -20.0843  -12.1933 O   0  0  0  0  0  0  0  0  0  0  0  0
   23.3337  -21.2044  -10.5991 N   0  0  0  0  0  0  0  0  0  0  0  0
   22.1898  -21.2999  -11.4288 C   0  0  1  0  0  0  0  0  0  0  0  0
   21.1497  -22.2671  -11.0017 C   0  0  0  0  0  0  0  0  0  0  0  0
   20.7192  -23.2664  -11.9668 C   0  0  0  0  0  0  0  0  0  0  0  0
   21.0568  -23.3546  -13.1740 O   0  0  0  0  0  0  0  0  0  0  0  0
   21.4839  -19.9438  -11.4537 C   0  0  0  0  0  0  0  0  0  0  0  0
   21.8043  -19.0306  -10.6700 O   0  0  0  0  0  0  0  0  0  0  0  0
   19.8291  -24.2484  -11.5157 O   0  0  0  0  0  0  0  0  0  0  0  0
   20.4826  -19.7808  -12.3796 O   0  0  0  0  0  0  0  0  0  0  0  0
  2  1  1  0
  3  2  1  0
  3  4  1  6
  5  3  1  0
  5  6  2  0
  7  5  1  0
  8 19  1  0
  8  7  1  0
  9 10  1  0
  8  9  1  1
 10 18  1  0
 11 12  1  0
 11 10  2  0
 12 13  1  0
 13 18  2  0
 13 14  1  0
 14 15  2  0
 15 16  1  0
 17 16  2  0
 18 17  1  0
 19 21  1  0
 20 19  2  0
 22 21  1  0
 22 26  1  0
 23 24  1  0
 22 23  1  1
 24 25  2  0
 26 27  2  0
 26 29  1  0
 28 24  1  0
M  END
$$$$
