SWD.pdb
     RDKit          3D

 29 30  0  0  1  0  0  0  0  0999 V2000
   16.7046  -26.9473   -4.2095 O   0  0  0  0  0  0  0  0  0  0  0  0
   16.0551  -26.4269   -5.3225 C   0  0  0  0  0  0  0  0  0  0  0  0
   16.3652  -24.9412   -5.4695 C   0  0  2  0  0  0  0  0  0  0  0  0
   17.8274  -24.8410   -5.4071 N   0  0  0  0  0  0  0  0  0  0  0  0
   15.8354  -24.1933   -4.2847 C   0  0  0  0  0  0  0  0  0  0  0  0
   16.6840  -23.8067   -3.4032 O   0  0  0  0  0  0  0  0  0  0  0  0
   14.4629  -23.9238   -4.1506 N   0  0  0  0  0  0  0  0  0  0  0  0
   13.9304  -23.1224   -3.0497 C   0  0  1  0  0  0  0  0  0  0  0  0
   12.5491  -22.6568   -3.3198 C   0  0  0  0  0  0  0  0  0  0  0  0
   12.3546  -21.2044   -3.4426 C   0  0  0  0  0  0  0  0  0  0  0  0
   12.5079  -20.2377   -2.4884 C   0  0  0  0  0  0  0  0  0  0  0  0
   12.2480  -19.0546   -3.0875 N   0  0  0  0  0  0  0  0  0  0  0  0
   11.9393  -19.2305   -4.3762 C   0  0  0  0  0  0  0  0  0  0  0  0
   11.6097  -18.3401   -5.4134 C   0  0  0  0  0  0  0  0  0  0  0  0
   11.3610  -18.8861   -6.6541 C   0  0  0  0  0  0  0  0  0  0  0  0
   11.4208  -20.2289   -6.9060 C   0  0  0  0  0  0  0  0  0  0  0  0
   11.7442  -21.0924   -5.8789 C   0  0  0  0  0  0  0  0  0  0  0  0
   12.0010  -20.5762   -4.6170 C   0  0  0  0  0  0  0  0  0  0  0  0
   14.1121  -23.8700   -1.7638 C   0  0  0  0  0  0  0  0  0  0  0  0
   14.0337  -25.1146   -1.6784 O   0  0  0  0  0  0  0  0  0  0  0  0
   14.3848  -23.1605   -0.5538 N   0  0  0  0  0  0  0  0  0  0  0  0
   14.6202  -23.8333    0.6699 C   0  0  1  0  0  0  0  0  0  0  0  0
   15.7548  -23.3340    1.4843 C   0  0  0  0  0  0  0  0  0  0  0  0
   16.0153  -23.9915    2.7552 C   0  0  0  0  0  0  0  0  0  0  0  0
   15.5180  -25.0676    3.1721 O   0  0  0  0  0  0  0  0  0  0  0  0
   13.3903  -23.6751    1.5645 C   0  0  0  0  0  0  0  0  0  0  0  0
   12.4790  -22.8756    1.2798 O   0  0  0  0  0  0  0  0  0  0  0  0
   16.9201  -23.3687    3.6231 O   0  0  0  0  0  0  0  0  0  0  0  0
   13.3380  -24.4552    2.6938 O   0  0  0  0  0  0  0  0  0  0  0  0
  2  1  1  0
  3  2  1  0
  3  4  1  1
  5  3  1  0
  5  6  2  0
  7  5  1  0
  8 19  1  0
  8  7  1  0
  9 10  1  0
  8  9  1  6
 10 18  1  0
 11 12  1  0
 11 10  2  0
 12 13  1  0
 13 18  2  0
 13 14  1  0
 14 15  2  0
 15 16  1  0
 17 16  2  0
 18 17  1  0
 19 21  1  0
 20 19  2  0
 22 21  1  0
 22 26  1  0
 23 24  1  0
 22 23  1  1
 24 25  2  0
 26 27  2  0
 26 29  1  0
 28 24  1  0
M  END
$$$$
