SWD.pdb
     RDKit          3D

 29 30  0  0  1  0  0  0  0  0999 V2000
   27.3130  -20.5220  -17.5717 O   0  0  0  0  0  0  0  0  0  0  0  0
   28.6456  -20.8757  -17.3966 C   0  0  0  0  0  0  0  0  0  0  0  0
   28.7525  -22.1151  -16.5148 C   0  0  2  0  0  0  0  0  0  0  0  0
   28.3026  -23.2303  -17.3551 N   0  0  0  0  0  0  0  0  0  0  0  0
   27.7789  -22.0157  -15.3807 C   0  0  0  0  0  0  0  0  0  0  0  0
   26.7254  -22.7459  -15.4416 O   0  0  0  0  0  0  0  0  0  0  0  0
   28.0165  -21.1588  -14.2927 N   0  0  0  0  0  0  0  0  0  0  0  0
   27.1479  -21.1336  -13.1169 C   0  0  1  0  0  0  0  0  0  0  0  0
   27.8499  -20.6130  -11.9195 C   0  0  0  0  0  0  0  0  0  0  0  0
   27.0629  -20.5224  -10.6806 C   0  0  0  0  0  0  0  0  0  0  0  0
   25.7162  -20.3390  -10.5349 C   0  0  0  0  0  0  0  0  0  0  0  0
   25.4622  -20.3568   -9.2078 N   0  0  0  0  0  0  0  0  0  0  0  0
   26.5867  -20.5445   -8.5096 C   0  0  0  0  0  0  0  0  0  0  0  0
   26.8543  -20.6516   -7.1334 C   0  0  0  0  0  0  0  0  0  0  0  0
   28.1644  -20.8659   -6.7635 C   0  0  0  0  0  0  0  0  0  0  0  0
   29.1878  -20.9743   -7.6641 C   0  0  0  0  0  0  0  0  0  0  0  0
   28.9119  -20.8660   -9.0122 C   0  0  0  0  0  0  0  0  0  0  0  0
   27.6034  -20.6503   -9.4195 C   0  0  0  0  0  0  0  0  0  0  0  0
   25.8703  -20.4314  -13.4636 C   0  0  0  0  0  0  0  0  0  0  0  0
   25.7895  -19.5561  -14.3523 O   0  0  0  0  0  0  0  0  0  0  0  0
   24.6655  -20.7467  -12.7630 N   0  0  0  0  0  0  0  0  0  0  0  0
   23.4045  -20.7461  -13.4077 C   0  0  1  0  0  0  0  0  0  0  0  0
   23.2276  -21.7319  -14.5017 C   0  0  0  0  0  0  0  0  0  0  0  0
   22.8712  -21.2246  -15.8173 C   0  0  0  0  0  0  0  0  0  0  0  0
   23.2607  -20.1567  -16.3532 O   0  0  0  0  0  0  0  0  0  0  0  0
   22.3257  -21.0947  -12.3818 C   0  0  0  0  0  0  0  0  0  0  0  0
   22.3210  -22.1914  -11.7918 O   0  0  0  0  0  0  0  0  0  0  0  0
   21.9972  -22.0019  -16.5866 O   0  0  0  0  0  0  0  0  0  0  0  0
   21.3648  -20.1431  -12.1418 O   0  0  0  0  0  0  0  0  0  0  0  0
  2  1  1  0
  3  2  1  0
  3  4  1  6
  5  3  1  0
  5  6  2  0
  7  5  1  0
  8 19  1  0
  8  7  1  0
  9 10  1  0
  8  9  1  1
 10 18  1  0
 11 12  1  0
 11 10  2  0
 12 13  1  0
 13 18  2  0
 13 14  1  0
 14 15  2  0
 15 16  1  0
 17 16  2  0
 18 17  1  0
 19 21  1  0
 20 19  2  0
 22 21  1  0
 22 26  1  0
 23 24  1  0
 22 23  1  6
 24 25  2  0
 26 27  2  0
 26 29  1  0
 28 24  1  0
M  END
$$$$
