SWD.pdb
     RDKit          3D

 29 30  0  0  1  0  0  0  0  0999 V2000
   26.7919  -19.6851  -15.6454 O   0  0  0  0  0  0  0  0  0  0  0  0
   28.1096  -19.8688  -15.2439 C   0  0  0  0  0  0  0  0  0  0  0  0
   28.2984  -21.2705  -14.6739 C   0  0  2  0  0  0  0  0  0  0  0  0
   27.7451  -22.1790  -15.6840 N   0  0  0  0  0  0  0  0  0  0  0  0
   27.4573  -21.4354  -13.4453 C   0  0  0  0  0  0  0  0  0  0  0  0
   26.4015  -22.1579  -13.5456 O   0  0  0  0  0  0  0  0  0  0  0  0
   27.8169  -20.8251  -12.2318 N   0  0  0  0  0  0  0  0  0  0  0  0
   26.9605  -20.8807  -11.0481 C   0  0  1  0  0  0  0  0  0  0  0  0
   27.6373  -20.3349   -9.8474 C   0  0  0  0  0  0  0  0  0  0  0  0
   26.9047  -20.4314   -8.5760 C   0  0  0  0  0  0  0  0  0  0  0  0
   25.5873  -20.7316   -8.3692 C   0  0  0  0  0  0  0  0  0  0  0  0
   25.3932  -20.7308   -7.0318 N   0  0  0  0  0  0  0  0  0  0  0  0
   26.5280  -20.4453   -6.3855 C   0  0  0  0  0  0  0  0  0  0  0  0
   26.8535  -20.3365   -5.0219 C   0  0  0  0  0  0  0  0  0  0  0  0
   28.1621  -20.0359   -4.7110 C   0  0  0  0  0  0  0  0  0  0  0  0
   29.1305  -19.8435   -5.6573 C   0  0  0  0  0  0  0  0  0  0  0  0
   28.7976  -19.9518   -6.9924 C   0  0  0  0  0  0  0  0  0  0  0  0
   27.4890  -20.2537   -7.3408 C   0  0  0  0  0  0  0  0  0  0  0  0
   25.6344  -20.2618  -11.3702 C   0  0  0  0  0  0  0  0  0  0  0  0
   25.5142  -19.1250  -11.8762 O   0  0  0  0  0  0  0  0  0  0  0  0
   24.4255  -20.9723  -11.0959 N   0  0  0  0  0  0  0  0  0  0  0  0
   23.1622  -20.4864  -11.5130 C   0  0  1  0  0  0  0  0  0  0  0  0
   22.6358  -21.0378  -12.7852 C   0  0  0  0  0  0  0  0  0  0  0  0
   22.9350  -20.3137  -14.0106 C   0  0  0  0  0  0  0  0  0  0  0  0
   23.5162  -19.2047  -14.1175 O   0  0  0  0  0  0  0  0  0  0  0  0
   22.1186  -20.8565  -10.4586 C   0  0  0  0  0  0  0  0  0  0  0  0
   21.2287  -20.0553  -10.1168 O   0  0  0  0  0  0  0  0  0  0  0  0
   22.5381  -20.9056  -15.2156 O   0  0  0  0  0  0  0  0  0  0  0  0
   22.2084  -22.1117   -9.9083 O   0  0  0  0  0  0  0  0  0  0  0  0
  2  1  1  0
  3  2  1  0
  3  4  1  6
  5  3  1  0
  5  6  2  0
  7  5  1  0
  8 19  1  0
  8  7  1  0
  9 10  1  0
  8  9  1  1
 10 18  1  0
 11 12  1  0
 11 10  2  0
 12 13  1  0
 13 18  2  0
 13 14  1  0
 14 15  2  0
 15 16  1  0
 17 16  2  0
 18 17  1  0
 19 21  1  0
 20 19  2  0
 22 21  1  0
 22 26  1  0
 23 24  1  0
 22 23  1  6
 24 25  2  0
 26 27  2  0
 26 29  1  0
 28 24  1  0
M  END
$$$$
