SWD.pdb
     RDKit          3D

 29 30  0  0  1  0  0  0  0  0999 V2000
   21.6432  -22.1494  -18.4373 O   0  0  0  0  0  0  0  0  0  0  0  0
   22.0938  -21.3826  -19.5051 C   0  0  0  0  0  0  0  0  0  0  0  0
   22.2100  -19.9189  -19.0936 C   0  0  2  0  0  0  0  0  0  0  0  0
   23.1465  -19.9054  -17.9645 N   0  0  0  0  0  0  0  0  0  0  0  0
   20.8950  -19.4359  -18.5629 C   0  0  0  0  0  0  0  0  0  0  0  0
   20.7493  -19.4025  -17.2884 O   0  0  0  0  0  0  0  0  0  0  0  0
   19.8663  -19.0316  -19.4304 N   0  0  0  0  0  0  0  0  0  0  0  0
   18.5720  -18.5619  -18.9384 C   0  0  1  0  0  0  0  0  0  0  0  0
   17.7864  -17.8878  -19.9994 C   0  0  0  0  0  0  0  0  0  0  0  0
   16.4686  -17.3628  -19.6120 C   0  0  0  0  0  0  0  0  0  0  0  0
   16.1739  -16.2348  -18.8984 C   0  0  0  0  0  0  0  0  0  0  0  0
   14.8264  -16.1596  -18.8279 N   0  0  0  0  0  0  0  0  0  0  0  0
   14.2576  -17.1876  -19.4656 C   0  0  0  0  0  0  0  0  0  0  0  0
   12.9189  -17.5548  -19.6895 C   0  0  0  0  0  0  0  0  0  0  0  0
   12.6964  -18.7002  -20.4229 C   0  0  0  0  0  0  0  0  0  0  0  0
   13.7054  -19.4734  -20.9270 C   0  0  0  0  0  0  0  0  0  0  0  0
   15.0153  -19.1027  -20.6989 C   0  0  0  0  0  0  0  0  0  0  0  0
   15.2751  -17.9547  -19.9645 C   0  0  0  0  0  0  0  0  0  0  0  0
   17.8709  -19.6893  -18.2436 C   0  0  0  0  0  0  0  0  0  0  0  0
   18.1393  -20.8928  -18.4489 O   0  0  0  0  0  0  0  0  0  0  0  0
   16.8359  -19.4159  -17.2971 N   0  0  0  0  0  0  0  0  0  0  0  0
   16.2264  -20.4449  -16.5385 C   0  0  1  0  0  0  0  0  0  0  0  0
   17.1238  -21.2241  -15.6514 C   0  0  0  0  0  0  0  0  0  0  0  0
   16.9046  -22.6591  -15.5603 C   0  0  0  0  0  0  0  0  0  0  0  0
   17.0715  -23.5141  -16.4660 O   0  0  0  0  0  0  0  0  0  0  0  0
   15.1895  -19.8208  -15.6040 C   0  0  0  0  0  0  0  0  0  0  0  0
   14.3905  -20.5246  -14.9582 O   0  0  0  0  0  0  0  0  0  0  0  0
   16.4580  -23.1605  -14.3319 O   0  0  0  0  0  0  0  0  0  0  0  0
   15.1815  -18.4505  -15.5103 O   0  0  0  0  0  0  0  0  0  0  0  0
  2  1  1  0
  3  2  1  0
  3  4  1  1
  5  3  1  0
  5  6  2  0
  7  5  1  0
  8 19  1  0
  8  7  1  0
  9 10  1  0
  8  9  1  6
 10 18  1  0
 11 12  1  0
 11 10  2  0
 12 13  1  0
 13 18  2  0
 13 14  1  0
 14 15  2  0
 15 16  1  0
 17 16  2  0
 18 17  1  0
 19 21  1  0
 20 19  2  0
 22 21  1  0
 22 26  1  0
 23 24  1  0
 22 23  1  1
 24 25  2  0
 26 27  2  0
 26 29  1  0
 28 24  1  0
M  END
$$$$
