SWD.pdb
     RDKit          3D

 29 30  0  0  1  0  0  0  0  0999 V2000
   27.0428  -18.9863  -15.1584 O   0  0  0  0  0  0  0  0  0  0  0  0
   28.2766  -18.9449  -14.5201 C   0  0  0  0  0  0  0  0  0  0  0  0
   28.6167  -20.3121  -13.9369 C   0  0  2  0  0  0  0  0  0  0  0  0
   28.7088  -21.2148  -15.0896 N   0  0  0  0  0  0  0  0  0  0  0  0
   27.4758  -20.8041  -13.1000 C   0  0  0  0  0  0  0  0  0  0  0  0
   26.7798  -21.7770  -13.5643 O   0  0  0  0  0  0  0  0  0  0  0  0
   27.1860  -20.2230  -11.8539 N   0  0  0  0  0  0  0  0  0  0  0  0
   26.1051  -20.7116  -10.9991 C   0  0  1  0  0  0  0  0  0  0  0  0
   26.2802  -20.2914   -9.5883 C   0  0  0  0  0  0  0  0  0  0  0  0
   27.5166  -20.7237   -8.9197 C   0  0  0  0  0  0  0  0  0  0  0  0
   28.5097  -21.5317   -9.3985 C   0  0  0  0  0  0  0  0  0  0  0  0
   29.4491  -21.6096   -8.4302 N   0  0  0  0  0  0  0  0  0  0  0  0
   29.0948  -20.8866   -7.3630 C   0  0  0  0  0  0  0  0  0  0  0  0
   29.7160  -20.6332   -6.1273 C   0  0  0  0  0  0  0  0  0  0  0  0
   29.0517  -19.8045   -5.2491 C   0  0  0  0  0  0  0  0  0  0  0  0
   27.8403  -19.2350   -5.5289 C   0  0  0  0  0  0  0  0  0  0  0  0
   27.2405  -19.4928   -6.7450 C   0  0  0  0  0  0  0  0  0  0  0  0
   27.8820  -20.3228   -7.6530 C   0  0  0  0  0  0  0  0  0  0  0  0
   24.7881  -20.3482  -11.6146 C   0  0  0  0  0  0  0  0  0  0  0  0
   24.5501  -19.2252  -12.1093 O   0  0  0  0  0  0  0  0  0  0  0  0
   23.7260  -21.3034  -11.6525 N   0  0  0  0  0  0  0  0  0  0  0  0
   22.5311  -21.0637  -12.3739 C   0  0  1  0  0  0  0  0  0  0  0  0
   22.0334  -22.1845  -13.2080 C   0  0  0  0  0  0  0  0  0  0  0  0
   20.7478  -22.0173  -13.8672 C   0  0  0  0  0  0  0  0  0  0  0  0
   19.9656  -21.0381  -13.7739 O   0  0  0  0  0  0  0  0  0  0  0  0
   21.4041  -20.7778  -11.3808 C   0  0  0  0  0  0  0  0  0  0  0  0
   21.4085  -21.2668  -10.2355 O   0  0  0  0  0  0  0  0  0  0  0  0
   20.3191  -23.0545  -14.7040 O   0  0  0  0  0  0  0  0  0  0  0  0
   20.3897  -19.9576  -11.8103 O   0  0  0  0  0  0  0  0  0  0  0  0
  2  1  1  0
  3  2  1  0
  3  4  1  6
  5  3  1  0
  5  6  2  0
  7  5  1  0
  8 19  1  0
  8  7  1  0
  9 10  1  0
  8  9  1  1
 10 18  1  0
 11 12  1  0
 11 10  2  0
 12 13  1  0
 13 18  2  0
 13 14  1  0
 14 15  2  0
 15 16  1  0
 17 16  2  0
 18 17  1  0
 19 21  1  0
 20 19  2  0
 22 21  1  0
 22 26  1  0
 23 24  1  0
 22 23  1  1
 24 25  2  0
 26 27  2  0
 26 29  1  0
 28 24  1  0
M  END
$$$$
