SWD.pdb
     RDKit          3D

 29 30  0  0  1  0  0  0  0  0999 V2000
   27.4339  -18.8504  -15.0715 O   0  0  0  0  0  0  0  0  0  0  0  0
   28.7139  -19.2753  -14.7362 C   0  0  0  0  0  0  0  0  0  0  0  0
   28.7169  -20.7738  -14.4537 C   0  0  2  0  0  0  0  0  0  0  0  0
   28.1116  -21.3940  -15.6372 N   0  0  0  0  0  0  0  0  0  0  0  0
   27.8071  -21.0742  -13.3022 C   0  0  0  0  0  0  0  0  0  0  0  0
   26.6565  -21.5731  -13.5738 O   0  0  0  0  0  0  0  0  0  0  0  0
   28.2042  -20.8223  -11.9781 N   0  0  0  0  0  0  0  0  0  0  0  0
   27.2884  -20.9723  -10.8483 C   0  0  1  0  0  0  0  0  0  0  0  0
   27.9511  -20.6823   -9.5544 C   0  0  0  0  0  0  0  0  0  0  0  0
   27.0731  -20.5085   -8.3877 C   0  0  0  0  0  0  0  0  0  0  0  0
   25.7201  -20.6831   -8.3025 C   0  0  0  0  0  0  0  0  0  0  0  0
   25.3757  -20.4366   -7.0192 N   0  0  0  0  0  0  0  0  0  0  0  0
   26.4496  -20.1159   -6.2906 C   0  0  0  0  0  0  0  0  0  0  0  0
   26.6259  -19.7920   -4.9337 C   0  0  0  0  0  0  0  0  0  0  0  0
   27.9112  -19.5262   -4.5137 C   0  0  0  0  0  0  0  0  0  0  0  0
   28.9938  -19.5641   -5.3483 C   0  0  0  0  0  0  0  0  0  0  0  0
   28.8071  -19.8821   -6.6784 C   0  0  0  0  0  0  0  0  0  0  0  0
   27.5259  -20.1557   -7.1349 C   0  0  0  0  0  0  0  0  0  0  0  0
   26.0416  -20.1857  -11.1174 C   0  0  0  0  0  0  0  0  0  0  0  0
   26.0470  -18.9651  -11.3868 O   0  0  0  0  0  0  0  0  0  0  0  0
   24.7650  -20.8256  -11.0681 N   0  0  0  0  0  0  0  0  0  0  0  0
   23.5872  -20.1786  -11.5154 C   0  0  1  0  0  0  0  0  0  0  0  0
   23.5020  -19.9061  -12.9708 C   0  0  0  0  0  0  0  0  0  0  0  0
   22.2613  -19.3447  -13.4816 C   0  0  0  0  0  0  0  0  0  0  0  0
   21.7587  -18.2274  -13.2018 O   0  0  0  0  0  0  0  0  0  0  0  0
   22.3859  -21.0734  -11.2086 C   0  0  0  0  0  0  0  0  0  0  0  0
   21.2186  -20.6575  -11.3313 O   0  0  0  0  0  0  0  0  0  0  0  0
   21.5333  -20.1237  -14.3888 O   0  0  0  0  0  0  0  0  0  0  0  0
   22.6546  -22.3546  -10.7930 O   0  0  0  0  0  0  0  0  0  0  0  0
  2  1  1  0
  3  2  1  0
  3  4  1  6
  5  3  1  0
  5  6  2  0
  7  5  1  0
  8 19  1  0
  8  7  1  0
  9 10  1  0
  8  9  1  1
 10 18  1  0
 11 12  1  0
 11 10  2  0
 12 13  1  0
 13 18  2  0
 13 14  1  0
 14 15  2  0
 15 16  1  0
 17 16  2  0
 18 17  1  0
 19 21  1  0
 20 19  2  0
 22 21  1  0
 22 26  1  0
 23 24  1  0
 22 23  1  6
 24 25  2  0
 26 27  2  0
 26 29  1  0
 28 24  1  0
M  END
$$$$
