SWD.pdb
     RDKit          3D

 29 30  0  0  1  0  0  0  0  0999 V2000
   23.9618  -20.6613  -13.2589 O   0  0  0  0  0  0  0  0  0  0  0  0
   25.0204  -19.8237  -12.9287 C   0  0  0  0  0  0  0  0  0  0  0  0
   26.0594  -20.5819  -12.1096 C   0  0  2  0  0  0  0  0  0  0  0  0
   26.4722  -21.7093  -12.9525 N   0  0  0  0  0  0  0  0  0  0  0  0
   25.4136  -21.1723  -10.8937 C   0  0  0  0  0  0  0  0  0  0  0  0
   25.1519  -22.4284  -10.9157 O   0  0  0  0  0  0  0  0  0  0  0  0
   25.1126  -20.3790   -9.7737 N   0  0  0  0  0  0  0  0  0  0  0  0
   24.4679  -20.9272   -8.5814 C   0  0  1  0  0  0  0  0  0  0  0  0
   24.8925  -20.2234   -7.3478 C   0  0  0  0  0  0  0  0  0  0  0  0
   26.3184  -19.8799   -7.2416 C   0  0  0  0  0  0  0  0  0  0  0  0
   27.1577  -19.4051   -8.2104 C   0  0  0  0  0  0  0  0  0  0  0  0
   28.3595  -19.2113   -7.6237 N   0  0  0  0  0  0  0  0  0  0  0  0
   28.3164  -19.5406   -6.3288 C   0  0  0  0  0  0  0  0  0  0  0  0
   29.2736  -19.5099   -5.2992 C   0  0  0  0  0  0  0  0  0  0  0  0
   28.8633  -19.9173   -4.0483 C   0  0  0  0  0  0  0  0  0  0  0  0
   27.5910  -20.3407   -3.7794 C   0  0  0  0  0  0  0  0  0  0  0  0
   26.6612  -20.3674   -4.7992 C   0  0  0  0  0  0  0  0  0  0  0  0
   27.0407  -19.9635   -6.0711 C   0  0  0  0  0  0  0  0  0  0  0  0
   22.9874  -20.9863   -8.8053 C   0  0  0  0  0  0  0  0  0  0  0  0
   22.3865  -20.2423   -9.6103 O   0  0  0  0  0  0  0  0  0  0  0  0
   22.1887  -21.9220   -8.0785 N   0  0  0  0  0  0  0  0  0  0  0  0
   20.8026  -22.0727   -8.3270 C   0  0  1  0  0  0  0  0  0  0  0  0
   20.4345  -22.7802   -9.5775 C   0  0  0  0  0  0  0  0  0  0  0  0
   19.0249  -23.0534   -9.8094 C   0  0  0  0  0  0  0  0  0  0  0  0
   18.1554  -22.2555  -10.2415 O   0  0  0  0  0  0  0  0  0  0  0  0
   20.1878  -22.9078   -7.2034 C   0  0  0  0  0  0  0  0  0  0  0  0
   20.8987  -23.4764   -6.3536 O   0  0  0  0  0  0  0  0  0  0  0  0
   18.5694  -24.3463   -9.5250 O   0  0  0  0  0  0  0  0  0  0  0  0
   18.8177  -23.0001   -7.1752 O   0  0  0  0  0  0  0  0  0  0  0  0
  2  1  1  0
  3  2  1  0
  3  4  1  6
  5  3  1  0
  5  6  2  0
  7  5  1  0
  8 19  1  0
  8  7  1  0
  9 10  1  0
  8  9  1  1
 10 18  1  0
 11 12  1  0
 11 10  2  0
 12 13  1  0
 13 18  2  0
 13 14  1  0
 14 15  2  0
 15 16  1  0
 17 16  2  0
 18 17  1  0
 19 21  1  0
 20 19  2  0
 22 21  1  0
 22 26  1  0
 23 24  1  0
 22 23  1  6
 24 25  2  0
 26 27  2  0
 26 29  1  0
 28 24  1  0
M  END
$$$$
