THP.pdb
     RDKit          3D

 25 26  0  0  1  0  0  0  0  0999 V2000
   44.9493   -8.0956   -4.5134 C   0  0  0  0  0  0  0  0  0  0  0  0
   43.9401   -7.9776   -5.6018 C   0  0  1  0  0  0  0  0  0  0  0  0
   44.5445   -7.5320   -6.7559 O   0  0  0  0  0  0  0  0  0  0  0  0
   43.1886   -9.2496   -5.8856 C   0  0  2  0  0  0  0  0  0  0  0  0
   44.0481  -10.3401   -6.2610 N   0  0  0  0  0  0  0  0  0  0  0  0
   42.1421   -9.0711   -6.9211 C   0  0  0  0  0  0  0  0  0  0  0  0
   42.2979   -9.4337   -8.1169 O   0  0  0  0  0  0  0  0  0  0  0  0
   40.9046   -8.4740   -6.5937 N   0  0  0  0  0  0  0  0  0  0  0  0
   39.8404   -8.3081   -7.5883 C   0  0  1  0  0  0  0  0  0  0  0  0
   38.5883   -8.5996   -6.8502 C   0  0  0  0  0  0  0  0  0  0  0  0
   38.1529   -9.9800   -6.7315 C   0  0  0  0  0  0  0  0  0  0  0  0
   38.8611  -10.9943   -7.4069 C   0  0  0  0  0  0  0  0  0  0  0  0
   38.2899  -12.1578   -7.1550 N   0  0  0  0  0  0  0  0  0  0  0  0
   37.2430  -11.9450   -6.3467 C   0  0  0  0  0  0  0  0  0  0  0  0
   37.1786  -10.6288   -6.1044 N   0  0  0  0  0  0  0  0  0  0  0  0
   39.8599   -6.9386   -8.1487 C   0  0  0  0  0  0  0  0  0  0  0  0
   40.4661   -6.0772   -7.3752 O   0  0  0  0  0  0  0  0  0  0  0  0
   39.3512   -6.4400   -9.3290 N   0  0  0  0  0  0  0  0  0  0  0  0
   38.6451   -7.0048  -10.4159 C   0  0  0  0  0  0  0  0  0  0  0  0
   39.5980   -6.5917  -11.5664 C   0  0  0  0  0  0  0  0  0  0  0  0
   39.7860   -5.1268  -11.1903 C   0  0  0  0  0  0  0  0  0  0  0  0
   39.4479   -5.0173   -9.7201 C   0  0  1  0  0  0  0  0  0  0  0  0
   38.1849   -4.3004   -9.5694 C   0  0  0  0  0  0  0  0  0  0  0  0
   37.0673   -4.7903   -9.3041 O   0  0  0  0  0  0  0  0  0  0  0  0
   38.2277   -2.9173   -9.7397 O   0  0  0  0  0  0  0  0  0  0  0  0
  2  1  1  1
  3  2  1  0
  4  5  1  6
  4  2  1  0
  4  6  1  0
  6  7  2  0
  8  6  1  0
  8  9  1  0
  9 16  1  0
 10 11  1  0
  9 10  1  1
 11 12  2  0
 13 12  1  0
 14 13  1  0
 15 14  2  0
 15 11  1  0
 16 17  2  0
 18 16  1  0
 18 22  1  0
 19 18  1  0
 20 19  1  0
 20 21  1  0
 21 22  1  0
 22 23  1  6
 23 25  1  0
 24 23  2  0
M  END
$$$$
