THP.pdb
     RDKit          3D

 25 26  0  0  1  0  0  0  0  0999 V2000
   16.5281   -7.1437  -17.6038 C   0  0  0  0  0  0  0  0  0  0  0  0
   15.8825   -8.3958  -17.1217 C   0  0  1  0  0  0  0  0  0  0  0  0
   14.6541   -8.5522  -17.7238 O   0  0  0  0  0  0  0  0  0  0  0  0
   16.7083   -9.6354  -17.3329 C   0  0  2  0  0  0  0  0  0  0  0  0
   16.0225  -10.8411  -16.9523 N   0  0  0  0  0  0  0  0  0  0  0  0
   18.0145   -9.5726  -16.6335 C   0  0  0  0  0  0  0  0  0  0  0  0
   18.1295   -9.7289  -15.3892 O   0  0  0  0  0  0  0  0  0  0  0  0
   19.2035   -9.3295  -17.3563 N   0  0  0  0  0  0  0  0  0  0  0  0
   20.4937   -9.1520  -16.6831 C   0  0  1  0  0  0  0  0  0  0  0  0
   21.5043   -9.4866  -17.7148 C   0  0  0  0  0  0  0  0  0  0  0  0
   21.7731  -10.8847  -18.0015 C   0  0  0  0  0  0  0  0  0  0  0  0
   21.1745  -11.8857  -17.2100 C   0  0  0  0  0  0  0  0  0  0  0  0
   21.5591  -13.0693  -17.6511 N   0  0  0  0  0  0  0  0  0  0  0  0
   22.3802  -12.8824  -18.6930 C   0  0  0  0  0  0  0  0  0  0  0  0
   22.4953  -11.5615  -18.8868 N   0  0  0  0  0  0  0  0  0  0  0  0
   20.6343   -7.7663  -16.1832 C   0  0  0  0  0  0  0  0  0  0  0  0
   19.9385   -6.9004  -16.8715 O   0  0  0  0  0  0  0  0  0  0  0  0
   21.3662   -7.2569  -15.1318 N   0  0  0  0  0  0  0  0  0  0  0  0
   22.2228   -7.8231  -14.1599 C   0  0  0  0  0  0  0  0  0  0  0  0
   21.5081   -7.3172  -12.8810 C   0  0  0  0  0  0  0  0  0  0  0  0
   21.3303   -5.8578  -13.2827 C   0  0  0  0  0  0  0  0  0  0  0  0
   21.4105   -5.8185  -14.7926 C   0  0  1  0  0  0  0  0  0  0  0  0
   22.6616   -5.1799  -15.1910 C   0  0  0  0  0  0  0  0  0  0  0  0
   23.7002   -5.7437  -15.5946 O   0  0  0  0  0  0  0  0  0  0  0  0
   22.7050   -3.7885  -15.1136 O   0  0  0  0  0  0  0  0  0  0  0  0
  2  1  1  6
  3  2  1  0
  4  5  1  1
  4  2  1  0
  4  6  1  0
  6  7  2  0
  8  6  1  0
  8  9  1  0
  9 16  1  0
 10 11  1  0
  9 10  1  6
 11 12  2  0
 13 12  1  0
 14 13  1  0
 15 14  2  0
 15 11  1  0
 16 17  2  0
 18 16  1  0
 18 22  1  0
 19 18  1  0
 20 19  1  0
 20 21  1  0
 21 22  1  0
 22 23  1  1
 23 25  1  0
 24 23  2  0
M  END
$$$$
