THP.pdb
     RDKit          3D

 25 26  0  0  1  0  0  0  0  0999 V2000
   19.4844  -21.3938  -18.1727 C   0  0  0  0  0  0  0  0  0  0  0  0
   20.7126  -20.8974  -17.4930 C   0  0  1  0  0  0  0  0  0  0  0  0
   21.6075  -20.4253  -18.4269 O   0  0  0  0  0  0  0  0  0  0  0  0
   20.4576  -19.8357  -16.4581 C   0  0  2  0  0  0  0  0  0  0  0  0
   19.8453  -18.6535  -17.0025 N   0  0  0  0  0  0  0  0  0  0  0  0
   21.6867  -19.4560  -15.7203 C   0  0  0  0  0  0  0  0  0  0  0  0
   22.3680  -18.4372  -16.0099 O   0  0  0  0  0  0  0  0  0  0  0  0
   22.1467  -20.2430  -14.6412 N   0  0  0  0  0  0  0  0  0  0  0  0
   23.3927  -19.9312  -13.9345 C   0  0  1  0  0  0  0  0  0  0  0  0
   23.3311  -20.7374  -12.6919 C   0  0  0  0  0  0  0  0  0  0  0  0
   24.4602  -20.7012  -11.7794 C   0  0  0  0  0  0  0  0  0  0  0  0
   25.5778  -19.8987  -12.0854 C   0  0  0  0  0  0  0  0  0  0  0  0
   26.4722  -20.0222  -11.1218 N   0  0  0  0  0  0  0  0  0  0  0  0
   25.9861  -20.8684  -10.2041 C   0  0  0  0  0  0  0  0  0  0  0  0
   24.7752  -21.2649  -10.6190 N   0  0  0  0  0  0  0  0  0  0  0  0
   24.5652  -20.2713  -14.7708 C   0  0  0  0  0  0  0  0  0  0  0  0
   24.3005  -21.1684  -15.6834 O   0  0  0  0  0  0  0  0  0  0  0  0
   25.8615  -19.8029  -14.7395 N   0  0  0  0  0  0  0  0  0  0  0  0
   26.5679  -18.9095  -13.9018 C   0  0  0  0  0  0  0  0  0  0  0  0
   27.0652  -17.9096  -14.9765 C   0  0  0  0  0  0  0  0  0  0  0  0
   27.5998  -18.9138  -15.9907 C   0  0  0  0  0  0  0  0  0  0  0  0
   26.9024  -20.2244  -15.7012 C   0  0  1  0  0  0  0  0  0  0  0  0
   27.8615  -21.1621  -15.1245 C   0  0  0  0  0  0  0  0  0  0  0  0
   27.9493  -21.5098  -13.9283 O   0  0  0  0  0  0  0  0  0  0  0  0
   28.7814  -21.7337  -16.0025 O   0  0  0  0  0  0  0  0  0  0  0  0
  2  1  1  6
  3  2  1  0
  4  5  1  6
  4  2  1  0
  4  6  1  0
  6  7  2  0
  8  6  1  0
  8  9  1  0
  9 16  1  0
 10 11  1  0
  9 10  1  1
 11 12  2  0
 13 12  1  0
 14 13  1  0
 15 14  2  0
 15 11  1  0
 16 17  2  0
 18 16  1  0
 18 22  1  0
 19 18  1  0
 20 19  1  0
 20 21  1  0
 21 22  1  0
 22 23  1  1
 23 25  1  0
 24 23  2  0
M  END
$$$$
