THP.pdb
     RDKit          3D

 25 26  0  0  1  0  0  0  0  0999 V2000
   45.4749  -13.6336  -10.3972 C   0  0  0  0  0  0  0  0  0  0  0  0
   44.4403  -12.9720   -9.5553 C   0  0  1  0  0  0  0  0  0  0  0  0
   43.5137  -13.8997   -9.1349 O   0  0  0  0  0  0  0  0  0  0  0  0
   44.9928  -12.2369   -8.3647 C   0  0  2  0  0  0  0  0  0  0  0  0
   45.7812  -13.0746   -7.5012 N   0  0  0  0  0  0  0  0  0  0  0  0
   43.9342  -11.5702   -7.5683 C   0  0  0  0  0  0  0  0  0  0  0  0
   43.7378  -11.8216   -6.3501 O   0  0  0  0  0  0  0  0  0  0  0  0
   43.0894  -10.6071   -8.1632 N   0  0  0  0  0  0  0  0  0  0  0  0
   42.1129   -9.8463   -7.3777 C   0  0  1  0  0  0  0  0  0  0  0  0
   42.8542   -8.6483   -6.9163 C   0  0  0  0  0  0  0  0  0  0  0  0
   42.1189   -7.5832   -6.2573 C   0  0  0  0  0  0  0  0  0  0  0  0
   42.2784   -7.3805   -4.8716 C   0  0  0  0  0  0  0  0  0  0  0  0
   41.5198   -6.3673   -4.4955 N   0  0  0  0  0  0  0  0  0  0  0  0
   40.8750   -5.9030   -5.5740 C   0  0  0  0  0  0  0  0  0  0  0  0
   41.2496   -6.6482   -6.6227 N   0  0  0  0  0  0  0  0  0  0  0  0
   40.9362   -9.4985   -8.2049 C   0  0  0  0  0  0  0  0  0  0  0  0
   41.2291   -9.3314   -9.4675 O   0  0  0  0  0  0  0  0  0  0  0  0
   39.6120   -9.3264   -7.8621 N   0  0  0  0  0  0  0  0  0  0  0  0
   38.9177   -9.2061   -6.6364 C   0  0  0  0  0  0  0  0  0  0  0  0
   37.9056  -10.3664   -6.8150 C   0  0  0  0  0  0  0  0  0  0  0  0
   37.4374  -10.0435   -8.2289 C   0  0  0  0  0  0  0  0  0  0  0  0
   38.5243   -9.1986   -8.8555 C   0  0  1  0  0  0  0  0  0  0  0  0
   38.0448   -7.8270   -8.9983 C   0  0  0  0  0  0  0  0  0  0  0  0
   38.2216   -6.8803   -8.2034 O   0  0  0  0  0  0  0  0  0  0  0  0
   37.3084   -7.5392  -10.1467 O   0  0  0  0  0  0  0  0  0  0  0  0
  2  1  1  1
  3  2  1  0
  4  5  1  1
  4  2  1  0
  4  6  1  0
  6  7  2  0
  8  6  1  0
  8  9  1  0
  9 16  1  0
 10 11  1  0
  9 10  1  6
 11 12  2  0
 13 12  1  0
 14 13  1  0
 15 14  2  0
 15 11  1  0
 16 17  2  0
 18 16  1  0
 18 22  1  0
 19 18  1  0
 20 19  1  0
 20 21  1  0
 21 22  1  0
 22 23  1  1
 23 25  1  0
 24 23  2  0
M  END
$$$$
