THP.pdb
     RDKit          3D

 25 26  0  0  1  0  0  0  0  0999 V2000
   16.9295   -8.3275  -17.9753 C   0  0  0  0  0  0  0  0  0  0  0  0
   16.6403   -9.7078  -17.4977 C   0  0  1  0  0  0  0  0  0  0  0  0
   15.6421  -10.2694  -18.2619 O   0  0  0  0  0  0  0  0  0  0  0  0
   17.8376  -10.6187  -17.4849 C   0  0  2  0  0  0  0  0  0  0  0  0
   17.5202  -11.9611  -17.0773 N   0  0  0  0  0  0  0  0  0  0  0  0
   18.9384  -10.0968  -16.6392 C   0  0  0  0  0  0  0  0  0  0  0  0
   18.9895  -10.2844  -15.3950 O   0  0  0  0  0  0  0  0  0  0  0  0
   19.9929   -9.3533  -17.2140 N   0  0  0  0  0  0  0  0  0  0  0  0
   21.1198   -8.8657  -16.4130 C   0  0  1  0  0  0  0  0  0  0  0  0
   22.3255   -9.3024  -17.1569 C   0  0  0  0  0  0  0  0  0  0  0  0
   22.6794  -10.7109  -17.1479 C   0  0  0  0  0  0  0  0  0  0  0  0
   23.5023  -11.2159  -16.1211 C   0  0  0  0  0  0  0  0  0  0  0  0
   23.6884  -12.5085  -16.3163 N   0  0  0  0  0  0  0  0  0  0  0  0
   23.0238  -12.8656  -17.4233 C   0  0  0  0  0  0  0  0  0  0  0  0
   22.4240  -11.7697  -17.9077 N   0  0  0  0  0  0  0  0  0  0  0  0
   21.0525   -7.3954  -16.2596 C   0  0  0  0  0  0  0  0  0  0  0  0
   20.3297   -6.8167  -17.1818 O   0  0  0  0  0  0  0  0  0  0  0  0
   21.6189   -6.5599  -15.3205 N   0  0  0  0  0  0  0  0  0  0  0  0
   22.5306   -6.7461  -14.2561 C   0  0  0  0  0  0  0  0  0  0  0  0
   21.6733   -6.1744  -13.0983 C   0  0  0  0  0  0  0  0  0  0  0  0
   21.2182   -4.8836  -13.7690 C   0  0  0  0  0  0  0  0  0  0  0  0
   21.3534   -5.1067  -15.2589 C   0  0  1  0  0  0  0  0  0  0  0  0
   22.4634   -4.3052  -15.7660 C   0  0  0  0  0  0  0  0  0  0  0  0
   23.6309   -4.6893  -15.9872 O   0  0  0  0  0  0  0  0  0  0  0  0
   22.1940   -2.9636  -16.0336 O   0  0  0  0  0  0  0  0  0  0  0  0
  2  1  1  6
  3  2  1  0
  4  5  1  1
  4  2  1  0
  4  6  1  0
  6  7  2  0
  8  6  1  0
  8  9  1  0
  9 16  1  0
 10 11  1  0
  9 10  1  6
 11 12  2  0
 13 12  1  0
 14 13  1  0
 15 14  2  0
 15 11  1  0
 16 17  2  0
 18 16  1  0
 18 22  1  0
 19 18  1  0
 20 19  1  0
 20 21  1  0
 21 22  1  0
 22 23  1  1
 23 25  1  0
 24 23  2  0
M  END
$$$$
