THP.pdb
     RDKit          3D

 25 26  0  0  1  0  0  0  0  0999 V2000
   22.3308  -35.3080  -15.7429 C   0  0  0  0  0  0  0  0  0  0  0  0
   22.6381  -34.7123  -14.4133 C   0  0  1  0  0  0  0  0  0  0  0  0
   23.4511  -35.5607  -13.6957 O   0  0  0  0  0  0  0  0  0  0  0  0
   23.2681  -33.3479  -14.4804 C   0  0  2  0  0  0  0  0  0  0  0  0
   24.4774  -33.3231  -15.2588 N   0  0  0  0  0  0  0  0  0  0  0  0
   23.5382  -32.7812  -13.1368 C   0  0  0  0  0  0  0  0  0  0  0  0
   24.6959  -32.4769  -12.7457 O   0  0  0  0  0  0  0  0  0  0  0  0
   22.4806  -32.5578  -12.2275 N   0  0  0  0  0  0  0  0  0  0  0  0
   22.7186  -32.0267  -10.8819 C   0  0  1  0  0  0  0  0  0  0  0  0
   21.4529  -31.3462  -10.5178 C   0  0  0  0  0  0  0  0  0  0  0  0
   21.2200  -29.9979  -11.0045 C   0  0  0  0  0  0  0  0  0  0  0  0
   22.2298  -29.3354  -11.7311 C   0  0  0  0  0  0  0  0  0  0  0  0
   21.7985  -28.1337  -12.0681 N   0  0  0  0  0  0  0  0  0  0  0  0
   20.5546  -27.9860  -11.5934 C   0  0  0  0  0  0  0  0  0  0  0  0
   20.2260  -29.1185  -10.9571 N   0  0  0  0  0  0  0  0  0  0  0  0
   23.0629  -33.1185   -9.9442 C   0  0  0  0  0  0  0  0  0  0  0  0
   22.5856  -34.2784  -10.3112 O   0  0  0  0  0  0  0  0  0  0  0  0
   23.7894  -33.1054   -8.7726 N   0  0  0  0  0  0  0  0  0  0  0  0
   24.3741  -32.0869   -7.9854 C   0  0  0  0  0  0  0  0  0  0  0  0
   25.8352  -32.6038   -7.9645 C   0  0  0  0  0  0  0  0  0  0  0  0
   25.5555  -34.0599   -7.6118 C   0  0  0  0  0  0  0  0  0  0  0  0
   24.1198  -34.3260   -8.0063 C   0  0  1  0  0  0  0  0  0  0  0  0
   23.3099  -34.4756   -6.8008 C   0  0  0  0  0  0  0  0  0  0  0  0
   23.2949  -35.4494   -6.0191 O   0  0  0  0  0  0  0  0  0  0  0  0
   22.4590  -33.4174   -6.4847 O   0  0  0  0  0  0  0  0  0  0  0  0
  2  1  1  6
  3  2  1  0
  4  5  1  6
  4  2  1  0
  4  6  1  0
  6  7  2  0
  8  6  1  0
  8  9  1  0
  9 16  1  0
 10 11  1  0
  9 10  1  1
 11 12  2  0
 13 12  1  0
 14 13  1  0
 15 14  2  0
 15 11  1  0
 16 17  2  0
 18 16  1  0
 18 22  1  0
 19 18  1  0
 20 19  1  0
 20 21  1  0
 21 22  1  0
 22 23  1  1
 23 25  1  0
 24 23  2  0
M  END
$$$$
