THP.pdb
     RDKit          3D

 25 26  0  0  1  0  0  0  0  0999 V2000
   15.7833   -8.3352  -15.3541 C   0  0  0  0  0  0  0  0  0  0  0  0
   15.3668   -9.7306  -15.0434 C   0  0  1  0  0  0  0  0  0  0  0  0
   14.0399   -9.9071  -15.3658 O   0  0  0  0  0  0  0  0  0  0  0  0
   16.1951  -10.7865  -15.7233 C   0  0  2  0  0  0  0  0  0  0  0  0
   15.7999  -12.1246  -15.3737 N   0  0  0  0  0  0  0  0  0  0  0  0
   17.6464  -10.6210  -15.4674 C   0  0  0  0  0  0  0  0  0  0  0  0
   18.2463  -11.2181  -14.5349 O   0  0  0  0  0  0  0  0  0  0  0  0
   18.4247   -9.7674  -16.2803 N   0  0  0  0  0  0  0  0  0  0  0  0
   19.8779   -9.6610  -16.1187 C   0  0  1  0  0  0  0  0  0  0  0  0
   20.3954   -9.4690  -17.4945 C   0  0  0  0  0  0  0  0  0  0  0  0
   20.4238  -10.6079  -18.3952 C   0  0  0  0  0  0  0  0  0  0  0  0
   20.8539  -11.8626  -17.9183 C   0  0  0  0  0  0  0  0  0  0  0  0
   20.7963  -12.7395  -18.9038 N   0  0  0  0  0  0  0  0  0  0  0  0
   20.3482  -12.1113  -19.9988 C   0  0  0  0  0  0  0  0  0  0  0  0
   20.1304  -10.8304  -19.6711 N   0  0  0  0  0  0  0  0  0  0  0  0
   20.2216   -8.5338  -15.2235 C   0  0  0  0  0  0  0  0  0  0  0  0
   19.3269   -7.5813  -15.2328 O   0  0  0  0  0  0  0  0  0  0  0  0
   21.3104   -8.3345  -14.4018 N   0  0  0  0  0  0  0  0  0  0  0  0
   22.5218   -9.0298  -14.1828 C   0  0  0  0  0  0  0  0  0  0  0  0
   22.4005   -9.2547  -12.6540 C   0  0  0  0  0  0  0  0  0  0  0  0
   22.0093   -7.8391  -12.2468 C   0  0  0  0  0  0  0  0  0  0  0  0
   21.4366   -7.1827  -13.4833 C   0  0  1  0  0  0  0  0  0  0  0  0
   22.3715   -6.1710  -13.9672 C   0  0  0  0  0  0  0  0  0  0  0  0
   22.6583   -5.0863  -13.4189 O   0  0  0  0  0  0  0  0  0  0  0  0
   23.0163   -6.4423  -15.1732 O   0  0  0  0  0  0  0  0  0  0  0  0
  2  1  1  6
  3  2  1  0
  4  5  1  1
  4  2  1  0
  4  6  1  0
  6  7  2  0
  8  6  1  0
  8  9  1  0
  9 16  1  0
 10 11  1  0
  9 10  1  6
 11 12  2  0
 13 12  1  0
 14 13  1  0
 15 14  2  0
 15 11  1  0
 16 17  2  0
 18 16  1  0
 18 22  1  0
 19 18  1  0
 20 19  1  0
 20 21  1  0
 21 22  1  0
 22 23  1  6
 23 25  1  0
 24 23  2  0
M  END
$$$$
