THP.pdb
     RDKit          3D

 25 26  0  0  1  0  0  0  0  0999 V2000
   16.8754  -14.5139  -17.9666 C   0  0  0  0  0  0  0  0  0  0  0  0
   17.7912  -13.7026  -17.1181 C   0  0  1  0  0  0  0  0  0  0  0  0
   17.1195  -13.2459  -16.0063 O   0  0  0  0  0  0  0  0  0  0  0  0
   19.0385  -14.4270  -16.6906 C   0  0  2  0  0  0  0  0  0  0  0  0
   18.7664  -15.6169  -15.9297 N   0  0  0  0  0  0  0  0  0  0  0  0
   19.9657  -13.5577  -15.9266 C   0  0  0  0  0  0  0  0  0  0  0  0
   20.0558  -13.5947  -14.6711 O   0  0  0  0  0  0  0  0  0  0  0  0
   20.8000  -12.6359  -16.5970 N   0  0  0  0  0  0  0  0  0  0  0  0
   21.7185  -11.7550  -15.8693 C   0  0  1  0  0  0  0  0  0  0  0  0
   22.9775  -11.7976  -16.6510 C   0  0  0  0  0  0  0  0  0  0  0  0
   23.8193  -12.9772  -16.5550 C   0  0  0  0  0  0  0  0  0  0  0  0
   24.2668  -13.4127  -15.2915 C   0  0  0  0  0  0  0  0  0  0  0  0
   25.0102  -14.4928  -15.4479 N   0  0  0  0  0  0  0  0  0  0  0  0
   25.0656  -14.7783  -16.7555 C   0  0  0  0  0  0  0  0  0  0  0  0
   24.3428  -13.8545  -17.4034 N   0  0  0  0  0  0  0  0  0  0  0  0
   21.1610  -10.3877  -15.7708 C   0  0  0  0  0  0  0  0  0  0  0  0
   20.2389  -10.1450  -16.6645 O   0  0  0  0  0  0  0  0  0  0  0  0
   21.4541   -9.3545  -14.9065 N   0  0  0  0  0  0  0  0  0  0  0  0
   22.4105   -9.1658  -13.8825 C   0  0  0  0  0  0  0  0  0  0  0  0
   21.4514   -8.8276  -12.7128 C   0  0  0  0  0  0  0  0  0  0  0  0
   20.5792   -7.8002  -13.4244 C   0  0  0  0  0  0  0  0  0  0  0  0
   20.7316   -8.0644  -14.9059 C   0  0  1  0  0  0  0  0  0  0  0  0
   21.5029   -6.9820  -15.5103 C   0  0  0  0  0  0  0  0  0  0  0  0
   22.6845   -7.0314  -15.9111 O   0  0  0  0  0  0  0  0  0  0  0  0
   20.8520   -5.7579  -15.6574 O   0  0  0  0  0  0  0  0  0  0  0  0
  2  1  1  1
  3  2  1  0
  4  5  1  1
  4  2  1  0
  4  6  1  0
  6  7  2  0
  8  6  1  0
  8  9  1  0
  9 16  1  0
 10 11  1  0
  9 10  1  6
 11 12  2  0
 13 12  1  0
 14 13  1  0
 15 14  2  0
 15 11  1  0
 16 17  2  0
 18 16  1  0
 18 22  1  0
 19 18  1  0
 20 19  1  0
 20 21  1  0
 21 22  1  0
 22 23  1  1
 23 25  1  0
 24 23  2  0
M  END
$$$$
