THP.pdb
     RDKit          3D

 25 26  0  0  1  0  0  0  0  0999 V2000
   26.6430  -10.9365  -15.5193 C   0  0  0  0  0  0  0  0  0  0  0  0
   26.6314  -12.1333  -16.4051 C   0  0  1  0  0  0  0  0  0  0  0  0
   27.7365  -12.9148  -16.1525 O   0  0  0  0  0  0  0  0  0  0  0  0
   25.3864  -12.9704  -16.2932 C   0  0  2  0  0  0  0  0  0  0  0  0
   25.4511  -14.1826  -17.0647 N   0  0  0  0  0  0  0  0  0  0  0  0
   24.1625  -12.2188  -16.6625 C   0  0  0  0  0  0  0  0  0  0  0  0
   23.8241  -12.0126  -17.8578 O   0  0  0  0  0  0  0  0  0  0  0  0
   23.3136  -11.6956  -15.6620 N   0  0  0  0  0  0  0  0  0  0  0  0
   22.1095  -10.9284  -15.9949 C   0  0  1  0  0  0  0  0  0  0  0  0
   21.0406  -11.5269  -15.1602 C   0  0  0  0  0  0  0  0  0  0  0  0
   20.3709  -12.7244  -15.6362 C   0  0  0  0  0  0  0  0  0  0  0  0
   20.7480  -13.2891  -16.8713 C   0  0  0  0  0  0  0  0  0  0  0  0
   20.0109  -14.3613  -17.0964 N   0  0  0  0  0  0  0  0  0  0  0  0
   19.1725  -14.5184  -16.0635 C   0  0  0  0  0  0  0  0  0  0  0  0
   19.4056  -13.5235  -15.1968 N   0  0  0  0  0  0  0  0  0  0  0  0
   22.3119   -9.4908  -15.7082 C   0  0  0  0  0  0  0  0  0  0  0  0
   23.2472   -9.2719  -14.8221 O   0  0  0  0  0  0  0  0  0  0  0  0
   21.6842   -8.3730  -16.2154 N   0  0  0  0  0  0  0  0  0  0  0  0
   20.6073   -8.1656  -17.1076 C   0  0  0  0  0  0  0  0  0  0  0  0
   21.3241   -7.2709  -18.1507 C   0  0  0  0  0  0  0  0  0  0  0  0
   21.9887   -6.2913  -17.1908 C   0  0  0  0  0  0  0  0  0  0  0  0
   22.0643   -6.9911  -15.8520 C   0  0  1  0  0  0  0  0  0  0  0  0
   21.1203   -6.3671  -14.9295 C   0  0  0  0  0  0  0  0  0  0  0  0
   20.0196   -6.8228  -14.5550 O   0  0  0  0  0  0  0  0  0  0  0  0
   21.4844   -5.1265  -14.4076 O   0  0  0  0  0  0  0  0  0  0  0  0
  2  1  1  1
  3  2  1  0
  4  5  1  6
  4  2  1  0
  4  6  1  0
  6  7  2  0
  8  6  1  0
  8  9  1  0
  9 16  1  0
 10 11  1  0
  9 10  1  1
 11 12  2  0
 13 12  1  0
 14 13  1  0
 15 14  2  0
 15 11  1  0
 16 17  2  0
 18 16  1  0
 18 22  1  0
 19 18  1  0
 20 19  1  0
 20 21  1  0
 21 22  1  0
 22 23  1  1
 23 25  1  0
 24 23  2  0
M  END
$$$$
