THP.pdb
     RDKit          3D

 25 26  0  0  1  0  0  0  0  0999 V2000
   29.2596  -20.7423  -13.1314 C   0  0  0  0  0  0  0  0  0  0  0  0
   27.8990  -20.1441  -13.2196 C   0  0  1  0  0  0  0  0  0  0  0  0
   27.9952  -18.7771  -13.3541 O   0  0  0  0  0  0  0  0  0  0  0  0
   27.0521  -20.7011  -14.3312 C   0  0  2  0  0  0  0  0  0  0  0  0
   27.6747  -20.5918  -15.6232 N   0  0  0  0  0  0  0  0  0  0  0  0
   25.7050  -20.0830  -14.3822 C   0  0  0  0  0  0  0  0  0  0  0  0
   25.4963  -18.9437  -14.8763 O   0  0  0  0  0  0  0  0  0  0  0  0
   24.5825  -20.7676  -13.8660 N   0  0  0  0  0  0  0  0  0  0  0  0
   23.2302  -20.2081  -13.9522 C   0  0  1  0  0  0  0  0  0  0  0  0
   22.9439  -20.1408  -15.4052 C   0  0  0  0  0  0  0  0  0  0  0  0
   21.6515  -19.6409  -15.8398 C   0  0  0  0  0  0  0  0  0  0  0  0
   21.5067  -18.2782  -16.1696 C   0  0  0  0  0  0  0  0  0  0  0  0
   20.2574  -18.0548  -16.5341 N   0  0  0  0  0  0  0  0  0  0  0  0
   19.5844  -19.2105  -16.4559 C   0  0  0  0  0  0  0  0  0  0  0  0
   20.4414  -20.1513  -16.0364 N   0  0  0  0  0  0  0  0  0  0  0  0
   22.2652  -21.0629  -13.2254 C   0  0  0  0  0  0  0  0  0  0  0  0
   22.5313  -22.3382  -13.3293 O   0  0  0  0  0  0  0  0  0  0  0  0
   21.1565  -20.7344  -12.4749 N   0  0  0  0  0  0  0  0  0  0  0  0
   20.4734  -19.5274  -12.1998 C   0  0  0  0  0  0  0  0  0  0  0  0
   20.5390  -19.5580  -10.6516 C   0  0  0  0  0  0  0  0  0  0  0  0
   20.0878  -20.9973  -10.4337 C   0  0  0  0  0  0  0  0  0  0  0  0
   20.3539  -21.7285  -11.7307 C   0  0  1  0  0  0  0  0  0  0  0  0
   19.0824  -22.0323  -12.3808 C   0  0  0  0  0  0  0  0  0  0  0  0
   18.6187  -21.5043  -13.4131 O   0  0  0  0  0  0  0  0  0  0  0  0
   18.2974  -23.0197  -11.7867 O   0  0  0  0  0  0  0  0  0  0  0  0
  2  1  1  6
  3  2  1  0
  4  5  1  6
  4  2  1  0
  4  6  1  0
  6  7  2  0
  8  6  1  0
  8  9  1  0
  9 16  1  0
 10 11  1  0
  9 10  1  6
 11 12  2  0
 13 12  1  0
 14 13  1  0
 15 14  2  0
 15 11  1  0
 16 17  2  0
 18 16  1  0
 18 22  1  0
 19 18  1  0
 20 19  1  0
 20 21  1  0
 21 22  1  0
 22 23  1  6
 23 25  1  0
 24 23  2  0
M  END
$$$$
