THP.pdb
     RDKit          3D

 25 26  0  0  1  0  0  0  0  0999 V2000
   21.5871  -16.4709  -18.1459 C   0  0  0  0  0  0  0  0  0  0  0  0
   22.5105  -17.4417  -17.4963 C   0  0  1  0  0  0  0  0  0  0  0  0
   23.0589  -18.2749  -18.4454 O   0  0  0  0  0  0  0  0  0  0  0  0
   23.6093  -16.8029  -16.6915 C   0  0  2  0  0  0  0  0  0  0  0  0
   24.4338  -15.9159  -17.4678 N   0  0  0  0  0  0  0  0  0  0  0  0
   24.4688  -17.8020  -16.0117 C   0  0  0  0  0  0  0  0  0  0  0  0
   25.6024  -18.1349  -16.4475 O   0  0  0  0  0  0  0  0  0  0  0  0
   24.0350  -18.4299  -14.8230 N   0  0  0  0  0  0  0  0  0  0  0  0
   24.8657  -19.4139  -14.1223 C   0  0  1  0  0  0  0  0  0  0  0  0
   24.3050  -19.4698  -12.7511 C   0  0  0  0  0  0  0  0  0  0  0  0
   24.8722  -20.4120  -11.8026 C   0  0  0  0  0  0  0  0  0  0  0  0
   25.0900  -20.0119  -10.4688 C   0  0  0  0  0  0  0  0  0  0  0  0
   25.6075  -21.0234   -9.7959 N   0  0  0  0  0  0  0  0  0  0  0  0
   25.7356  -22.0620  -10.6323 C   0  0  0  0  0  0  0  0  0  0  0  0
   25.2877  -21.6729  -11.8337 N   0  0  0  0  0  0  0  0  0  0  0  0
   24.8121  -20.7241  -14.8082 C   0  0  0  0  0  0  0  0  0  0  0  0
   23.7036  -20.9078  -15.4756 O   0  0  0  0  0  0  0  0  0  0  0  0
   25.7244  -21.7566  -14.8527 N   0  0  0  0  0  0  0  0  0  0  0  0
   26.9752  -21.9955  -14.2384 C   0  0  0  0  0  0  0  0  0  0  0  0
   27.8300  -22.2305  -15.5098 C   0  0  0  0  0  0  0  0  0  0  0  0
   26.9033  -23.2032  -16.2296 C   0  0  0  0  0  0  0  0  0  0  0  0
   25.5236  -22.9861  -15.6491 C   0  0  1  0  0  0  0  0  0  0  0  0
   25.1596  -24.1391  -14.8307 C   0  0  0  0  0  0  0  0  0  0  0  0
   24.9084  -25.2960  -15.2279 O   0  0  0  0  0  0  0  0  0  0  0  0
   25.0834  -23.9290  -13.4545 O   0  0  0  0  0  0  0  0  0  0  0  0
  2  1  1  6
  3  2  1  0
  4  5  1  6
  4  2  1  0
  4  6  1  0
  6  7  2  0
  8  6  1  0
  8  9  1  0
  9 16  1  0
 10 11  1  0
  9 10  1  1
 11 12  2  0
 13 12  1  0
 14 13  1  0
 15 14  2  0
 15 11  1  0
 16 17  2  0
 18 16  1  0
 18 22  1  0
 19 18  1  0
 20 19  1  0
 20 21  1  0
 21 22  1  0
 22 23  1  1
 23 25  1  0
 24 23  2  0
M  END
$$$$
