THP.pdb
     RDKit          3D

 25 26  0  0  1  0  0  0  0  0999 V2000
   16.8381  -17.1648  -16.4694 C   0  0  0  0  0  0  0  0  0  0  0  0
   17.7288  -16.0751  -16.9553 C   0  0  1  0  0  0  0  0  0  0  0  0
   17.2342  -15.5532  -18.1296 O   0  0  0  0  0  0  0  0  0  0  0  0
   17.9432  -14.9657  -15.9620 C   0  0  2  0  0  0  0  0  0  0  0  0
   16.7439  -14.2242  -15.6778 N   0  0  0  0  0  0  0  0  0  0  0  0
   19.0120  -14.0273  -16.3818 C   0  0  0  0  0  0  0  0  0  0  0  0
   20.1998  -14.3936  -16.5836 O   0  0  0  0  0  0  0  0  0  0  0  0
   18.7277  -12.6571  -16.5742 N   0  0  0  0  0  0  0  0  0  0  0  0
   19.7761  -11.6921  -16.9187 C   0  0  1  0  0  0  0  0  0  0  0  0
   19.1903  -10.8742  -18.0075 C   0  0  0  0  0  0  0  0  0  0  0  0
   19.4681  -11.2429  -19.3845 C   0  0  0  0  0  0  0  0  0  0  0  0
   19.6107  -12.6028  -19.7264 C   0  0  0  0  0  0  0  0  0  0  0  0
   19.8568  -12.6970  -21.0203 N   0  0  0  0  0  0  0  0  0  0  0  0
   19.8804  -11.4600  -21.5340 C   0  0  0  0  0  0  0  0  0  0  0  0
   19.6444  -10.6006  -20.5334 N   0  0  0  0  0  0  0  0  0  0  0  0
   20.1449  -10.8797  -15.7379 C   0  0  0  0  0  0  0  0  0  0  0  0
   19.1821  -10.7871  -14.8591 O   0  0  0  0  0  0  0  0  0  0  0  0
   21.3150  -10.2206  -15.4267 N   0  0  0  0  0  0  0  0  0  0  0  0
   22.5376  -10.0074  -16.1038 C   0  0  0  0  0  0  0  0  0  0  0  0
   23.5074  -10.5917  -15.0453 C   0  0  0  0  0  0  0  0  0  0  0  0
   22.9478   -9.8904  -13.8133 C   0  0  0  0  0  0  0  0  0  0  0  0
   21.5278   -9.4971  -14.1548 C   0  0  1  0  0  0  0  0  0  0  0  0
   21.4542   -8.0470  -14.3080 C   0  0  0  0  0  0  0  0  0  0  0  0
   21.4371   -7.1930  -13.3970 O   0  0  0  0  0  0  0  0  0  0  0  0
   21.3967   -7.5588  -15.6127 O   0  0  0  0  0  0  0  0  0  0  0  0
  2  1  1  1
  3  2  1  0
  4  5  1  6
  4  2  1  0
  4  6  1  0
  6  7  2  0
  8  6  1  0
  8  9  1  0
  9 16  1  0
 10 11  1  0
  9 10  1  6
 11 12  2  0
 13 12  1  0
 14 13  1  0
 15 14  2  0
 15 11  1  0
 16 17  2  0
 18 16  1  0
 18 22  1  0
 19 18  1  0
 20 19  1  0
 20 21  1  0
 21 22  1  0
 22 23  1  6
 23 25  1  0
 24 23  2  0
M  END
$$$$
