THP.pdb
     RDKit          3D

 25 26  0  0  1  0  0  0  0  0999 V2000
   26.7559  -32.3699  -10.5984 C   0  0  0  0  0  0  0  0  0  0  0  0
   26.5980  -33.0642   -9.2907 C   0  0  1  0  0  0  0  0  0  0  0  0
   26.3639  -32.1422   -8.2952 O   0  0  0  0  0  0  0  0  0  0  0  0
   25.5155  -34.1087   -9.2745 C   0  0  2  0  0  0  0  0  0  0  0  0
   24.1969  -33.5564   -9.4339 N   0  0  0  0  0  0  0  0  0  0  0  0
   25.5522  -34.9448   -8.0502 C   0  0  0  0  0  0  0  0  0  0  0  0
   24.6571  -34.8976   -7.1657 O   0  0  0  0  0  0  0  0  0  0  0  0
   26.6183  -35.8446   -7.8288 N   0  0  0  0  0  0  0  0  0  0  0  0
   26.6977  -36.6637   -6.6154 C   0  0  1  0  0  0  0  0  0  0  0  0
   27.7628  -37.6546   -6.9007 C   0  0  0  0  0  0  0  0  0  0  0  0
   28.1541  -38.5804   -5.8525 C   0  0  0  0  0  0  0  0  0  0  0  0
   29.1847  -38.2258   -4.9588 C   0  0  0  0  0  0  0  0  0  0  0  0
   29.3665  -39.2119   -4.0996 N   0  0  0  0  0  0  0  0  0  0  0  0
   28.5008  -40.1906   -4.3949 C   0  0  0  0  0  0  0  0  0  0  0  0
   27.7813  -39.7905   -5.4521 N   0  0  0  0  0  0  0  0  0  0  0  0
   27.0095  -35.8225   -5.4385 C   0  0  0  0  0  0  0  0  0  0  0  0
   27.7189  -34.7664   -5.7372 O   0  0  0  0  0  0  0  0  0  0  0  0
   26.6783  -35.9739   -4.1088 N   0  0  0  0  0  0  0  0  0  0  0  0
   25.9682  -36.9508   -3.3738 C   0  0  0  0  0  0  0  0  0  0  0  0
   24.8978  -36.0368   -2.7247 C   0  0  0  0  0  0  0  0  0  0  0  0
   25.8179  -34.9289   -2.2258 C   0  0  0  0  0  0  0  0  0  0  0  0
   27.0790  -35.0158   -3.0563 C   0  0  1  0  0  0  0  0  0  0  0  0
   28.1701  -35.5123   -2.2228 C   0  0  0  0  0  0  0  0  0  0  0  0
   28.6944  -36.6450   -2.2639 O   0  0  0  0  0  0  0  0  0  0  0  0
   28.6854  -34.6276   -1.2764 O   0  0  0  0  0  0  0  0  0  0  0  0
  2  1  1  6
  3  2  1  0
  4  5  1  1
  4  2  1  0
  4  6  1  0
  6  7  2  0
  8  6  1  0
  8  9  1  0
  9 16  1  0
 10 11  1  0
  9 10  1  6
 11 12  2  0
 13 12  1  0
 14 13  1  0
 15 14  2  0
 15 11  1  0
 16 17  2  0
 18 16  1  0
 18 22  1  0
 19 18  1  0
 20 19  1  0
 20 21  1  0
 21 22  1  0
 22 23  1  1
 23 25  1  0
 24 23  2  0
M  END
$$$$
