THP.pdb
     RDKit          3D

 25 26  0  0  1  0  0  0  0  0999 V2000
   16.1678  -15.5384  -15.6834 C   0  0  0  0  0  0  0  0  0  0  0  0
   17.2476  -14.5212  -15.8109 C   0  0  1  0  0  0  0  0  0  0  0  0
   18.2116  -14.7373  -14.8518 O   0  0  0  0  0  0  0  0  0  0  0  0
   17.8911  -14.4730  -17.1699 C   0  0  2  0  0  0  0  0  0  0  0  0
   18.5351  -15.7069  -17.5326 N   0  0  0  0  0  0  0  0  0  0  0  0
   18.8599  -13.3577  -17.2994 C   0  0  0  0  0  0  0  0  0  0  0  0
   20.1036  -13.5406  -17.3744 O   0  0  0  0  0  0  0  0  0  0  0  0
   18.4102  -12.0194  -17.3443 N   0  0  0  0  0  0  0  0  0  0  0  0
   19.3432  -10.8951  -17.4653 C   0  0  1  0  0  0  0  0  0  0  0  0
   18.6277   -9.9020  -18.3016 C   0  0  0  0  0  0  0  0  0  0  0  0
   19.2526   -8.6137  -18.5441 C   0  0  0  0  0  0  0  0  0  0  0  0
   18.6169   -7.4365  -18.1006 C   0  0  0  0  0  0  0  0  0  0  0  0
   19.3615   -6.3965  -18.4285 N   0  0  0  0  0  0  0  0  0  0  0  0
   20.4517   -6.8449  -19.0647 C   0  0  0  0  0  0  0  0  0  0  0  0
   20.3663   -8.1809  -19.1235 N   0  0  0  0  0  0  0  0  0  0  0  0
   19.6925  -10.3618  -16.1298 C   0  0  0  0  0  0  0  0  0  0  0  0
   18.7932  -10.6295  -15.2201 O   0  0  0  0  0  0  0  0  0  0  0  0
   20.7899   -9.6441  -15.7042 N   0  0  0  0  0  0  0  0  0  0  0  0
   21.9397   -9.1271  -16.3443 C   0  0  0  0  0  0  0  0  0  0  0  0
   23.0284   -9.8044  -15.4735 C   0  0  0  0  0  0  0  0  0  0  0  0
   22.4558   -9.4775  -14.0995 C   0  0  0  0  0  0  0  0  0  0  0  0
   20.9824   -9.2047  -14.3056 C   0  0  1  0  0  0  0  0  0  0  0  0
   20.7267   -7.7795  -14.1184 C   0  0  0  0  0  0  0  0  0  0  0  0
   20.6634   -7.1611  -13.0353 O   0  0  0  0  0  0  0  0  0  0  0  0
   20.5314   -7.0230  -15.2732 O   0  0  0  0  0  0  0  0  0  0  0  0
  2  1  1  6
  3  2  1  0
  4  5  1  1
  4  2  1  0
  4  6  1  0
  6  7  2  0
  8  6  1  0
  8  9  1  0
  9 16  1  0
 10 11  1  0
  9 10  1  6
 11 12  2  0
 13 12  1  0
 14 13  1  0
 15 14  2  0
 15 11  1  0
 16 17  2  0
 18 16  1  0
 18 22  1  0
 19 18  1  0
 20 19  1  0
 20 21  1  0
 21 22  1  0
 22 23  1  6
 23 25  1  0
 24 23  2  0
M  END
$$$$
