THP.pdb
     RDKit          3D

 25 26  0  0  1  0  0  0  0  0999 V2000
   35.9566  -37.8371   -4.1835 C   0  0  0  0  0  0  0  0  0  0  0  0
   35.7107  -37.1727   -5.4931 C   0  0  1  0  0  0  0  0  0  0  0  0
   36.4883  -37.7558   -6.4684 O   0  0  0  0  0  0  0  0  0  0  0  0
   34.2701  -37.1797   -5.9265 C   0  0  2  0  0  0  0  0  0  0  0  0
   34.0593  -36.5307   -7.1927 N   0  0  0  0  0  0  0  0  0  0  0  0
   33.3698  -36.5799   -4.9121 C   0  0  0  0  0  0  0  0  0  0  0  0
   33.1883  -35.3378   -4.8114 O   0  0  0  0  0  0  0  0  0  0  0  0
   32.6678  -37.4010   -4.0020 N   0  0  0  0  0  0  0  0  0  0  0  0
   31.7342  -36.8419   -3.0196 C   0  0  1  0  0  0  0  0  0  0  0  0
   30.3895  -37.1462   -3.5645 C   0  0  0  0  0  0  0  0  0  0  0  0
   29.8467  -36.2889   -4.6035 C   0  0  0  0  0  0  0  0  0  0  0  0
   30.1603  -34.9148   -4.6073 C   0  0  0  0  0  0  0  0  0  0  0  0
   29.5613  -34.3403   -5.6342 N   0  0  0  0  0  0  0  0  0  0  0  0
   28.8730  -35.2789   -6.2973 C   0  0  0  0  0  0  0  0  0  0  0  0
   29.0582  -36.4433   -5.6608 N   0  0  0  0  0  0  0  0  0  0  0  0
   31.9544  -37.4482   -1.6877 C   0  0  0  0  0  0  0  0  0  0  0  0
   32.6514  -38.5526   -1.7366 O   0  0  0  0  0  0  0  0  0  0  0  0
   31.5495  -37.0422   -0.4340 N   0  0  0  0  0  0  0  0  0  0  0  0
   30.7840  -35.9577    0.0526 C   0  0  0  0  0  0  0  0  0  0  0  0
   31.8093  -35.3653    1.0527 C   0  0  0  0  0  0  0  0  0  0  0  0
   32.2143  -36.6565    1.7539 C   0  0  0  0  0  0  0  0  0  0  0  0
   31.8713  -37.7829    0.8045 C   0  0  1  0  0  0  0  0  0  0  0  0
   30.7315  -38.5267    1.3330 C   0  0  0  0  0  0  0  0  0  0  0  0
   29.5511  -38.4853    0.9275 O   0  0  0  0  0  0  0  0  0  0  0  0
   30.9851  -39.3773    2.4082 O   0  0  0  0  0  0  0  0  0  0  0  0
  2  1  1  1
  3  2  1  0
  4  5  1  6
  4  2  1  0
  4  6  1  0
  6  7  2  0
  8  6  1  0
  8  9  1  0
  9 16  1  0
 10 11  1  0
  9 10  1  6
 11 12  2  0
 13 12  1  0
 14 13  1  0
 15 14  2  0
 15 11  1  0
 16 17  2  0
 18 16  1  0
 18 22  1  0
 19 18  1  0
 20 19  1  0
 20 21  1  0
 21 22  1  0
 22 23  1  1
 23 25  1  0
 24 23  2  0
M  END
$$$$
