VKP.pdb
     RDKit          3D

 24 24  0  0  1  0  0  0  0  0999 V2000
   28.7556  -26.3139  -17.2914 C   0  0  0  0  0  0  0  0  0  0  0  0
   27.5962  -25.6282  -17.9840 C   0  0  2  0  0  0  0  0  0  0  0  0
   27.6687  -24.1604  -17.6037 C   0  0  0  0  0  0  0  0  0  0  0  0
   26.3266  -26.2575  -17.4762 C   0  0  2  0  0  0  0  0  0  0  0  0
   26.2331  -25.9719  -16.0578 N   0  0  0  0  0  0  0  0  0  0  0  0
   26.3084  -27.7312  -17.7254 C   0  0  0  0  0  0  0  0  0  0  0  0
   26.3523  -28.1995  -18.8964 O   0  0  0  0  0  0  0  0  0  0  0  0
   26.2421  -28.6699  -16.6801 N   0  0  0  0  0  0  0  0  0  0  0  0
   26.1434  -30.1484  -16.9831 C   0  0  1  0  0  0  0  0  0  0  0  0
   27.5232  -30.6021  -16.6435 C   0  0  0  0  0  0  0  0  0  0  0  0
   28.5600  -30.8380  -17.6478 C   0  0  0  0  0  0  0  0  0  0  0  0
   29.8762  -31.3668  -17.2465 C   0  0  0  0  0  0  0  0  0  0  0  0
   30.7918  -31.4031  -18.4914 C   0  0  0  0  0  0  0  0  0  0  0  0
   32.1125  -31.7916  -18.0767 N   0  0  0  0  0  0  0  0  0  0  0  0
   25.0635  -30.7077  -16.1796 C   0  0  0  0  0  0  0  0  0  0  0  0
   25.2192  -30.6795  -14.9334 O   0  0  0  0  0  0  0  0  0  0  0  0
   23.8797  -31.2525  -16.7143 N   0  0  0  0  0  0  0  0  0  0  0  0
   23.5302  -31.0798  -18.1058 C   0  0  0  0  0  0  0  0  0  0  0  0
   22.7870  -32.3323  -18.4483 C   0  0  0  0  0  0  0  0  0  0  0  0
   22.5163  -33.0536  -17.1706 C   0  0  0  0  0  0  0  0  0  0  0  0
   22.8535  -31.9827  -16.0886 C   0  0  1  0  0  0  0  0  0  0  0  0
   23.1281  -32.7024  -14.8518 C   0  0  0  0  0  0  0  0  0  0  0  0
   24.2511  -33.0131  -14.4649 O   0  0  0  0  0  0  0  0  0  0  0  0
   22.0287  -33.0562  -14.0623 O   0  0  0  0  0  0  0  0  0  0  0  0
  2  1  1  1
  2  3  1  0
  4  5  1  1
  4  2  1  0
  6  4  1  0
  7  6  2  0
  8  6  1  0
  9 10  1  1
  9  8  1  0
 10 11  1  0
 11 12  1  0
 13 14  1  0
 13 12  1  0
 15  9  1  0
 16 15  2  0
 17 15  1  0
 18 17  1  0
 19 20  1  0
 19 18  1  0
 20 21  1  0
 21 17  1  0
 22 24  1  0
 21 22  1  1
 23 22  2  0
M  END
$$$$
