VKP.pdb
     RDKit          3D

 24 24  0  0  1  0  0  0  0  0999 V2000
   21.2017  -21.6021  -14.2184 C   0  0  0  0  0  0  0  0  0  0  0  0
   20.9279  -20.1332  -13.9703 C   0  0  2  0  0  0  0  0  0  0  0  0
   19.4233  -19.9508  -14.0548 C   0  0  0  0  0  0  0  0  0  0  0  0
   21.6299  -19.3513  -15.0481 C   0  0  2  0  0  0  0  0  0  0  0  0
   21.0359  -19.7242  -16.3171 N   0  0  0  0  0  0  0  0  0  0  0  0
   23.1004  -19.6190  -15.0489 C   0  0  0  0  0  0  0  0  0  0  0  0
   23.8125  -19.3755  -14.0359 O   0  0  0  0  0  0  0  0  0  0  0  0
   23.7672  -20.1520  -16.1668 N   0  0  0  0  0  0  0  0  0  0  0  0
   25.2756  -20.2626  -16.1784 C   0  0  1  0  0  0  0  0  0  0  0  0
   25.4526  -21.7337  -16.3503 C   0  0  0  0  0  0  0  0  0  0  0  0
   26.7579  -22.3930  -16.3235 C   0  0  0  0  0  0  0  0  0  0  0  0
   26.8672  -23.8356  -16.6064 C   0  0  0  0  0  0  0  0  0  0  0  0
   28.3585  -24.2373  -16.5435 C   0  0  0  0  0  0  0  0  0  0  0  0
   28.4639  -25.6473  -16.8045 N   0  0  0  0  0  0  0  0  0  0  0  0
   25.7865  -19.4206  -17.2529 C   0  0  0  0  0  0  0  0  0  0  0  0
   25.3499  -19.6573  -18.4068 O   0  0  0  0  0  0  0  0  0  0  0  0
   26.7111  -18.3743  -17.0671 N   0  0  0  0  0  0  0  0  0  0  0  0
   27.0309  -17.8746  -15.7494 C   0  0  0  0  0  0  0  0  0  0  0  0
   28.4610  -17.4500  -15.8629 C   0  0  0  0  0  0  0  0  0  0  0  0
   28.8223  -17.4831  -17.3101 C   0  0  0  0  0  0  0  0  0  0  0  0
   27.4370  -17.6265  -18.0112 C   0  0  1  0  0  0  0  0  0  0  0  0
   27.6879  -18.1809  -19.3351 C   0  0  0  0  0  0  0  0  0  0  0  0
   27.8067  -17.5105  -20.3567 O   0  0  0  0  0  0  0  0  0  0  0  0
   27.7988  -19.5721  -19.4332 O   0  0  0  0  0  0  0  0  0  0  0  0
  2  1  1  6
  2  3  1  0
  4  5  1  6
  4  2  1  0
  6  4  1  0
  7  6  2  0
  8  6  1  0
  9 10  1  6
  9  8  1  0
 10 11  1  0
 11 12  1  0
 13 14  1  0
 13 12  1  0
 15  9  1  0
 16 15  2  0
 17 15  1  0
 18 17  1  0
 19 20  1  0
 19 18  1  0
 20 21  1  0
 21 17  1  0
 22 24  1  0
 21 22  1  6
 23 22  2  0
M  END
$$$$
