VKP.pdb
     RDKit          3D

 24 24  0  0  1  0  0  0  0  0999 V2000
   17.7290  -14.3443  -18.7163 C   0  0  0  0  0  0  0  0  0  0  0  0
   19.1366  -14.5530  -19.2351 C   0  0  2  0  0  0  0  0  0  0  0  0
   19.3627  -16.0531  -19.2886 C   0  0  0  0  0  0  0  0  0  0  0  0
   20.0813  -13.8969  -18.2641 C   0  0  2  0  0  0  0  0  0  0  0  0
   20.0016  -14.6274  -17.0142 N   0  0  0  0  0  0  0  0  0  0  0  0
   19.7434  -12.4551  -18.0612 C   0  0  0  0  0  0  0  0  0  0  0  0
   19.7588  -11.6359  -19.0210 O   0  0  0  0  0  0  0  0  0  0  0  0
   19.3927  -11.9348  -16.8024 N   0  0  0  0  0  0  0  0  0  0  0  0
   18.9814  -10.4864  -16.6595 C   0  0  1  0  0  0  0  0  0  0  0  0
   17.6157  -10.6335  -16.0780 C   0  0  0  0  0  0  0  0  0  0  0  0
   16.4226  -10.8842  -16.8859 C   0  0  0  0  0  0  0  0  0  0  0  0
   15.0997  -10.9897  -16.2442 C   0  0  0  0  0  0  0  0  0  0  0  0
   14.0392  -11.2357  -17.3414 C   0  0  0  0  0  0  0  0  0  0  0  0
   12.7850  -11.5370  -16.7062 N   0  0  0  0  0  0  0  0  0  0  0  0
   19.9690   -9.8117  -15.8264 C   0  0  0  0  0  0  0  0  0  0  0  0
   20.1976  -10.3232  -14.7020 O   0  0  0  0  0  0  0  0  0  0  0  0
   20.6710   -8.6531  -16.2121 N   0  0  0  0  0  0  0  0  0  0  0  0
   20.6704   -8.1906  -17.5812 C   0  0  0  0  0  0  0  0  0  0  0  0
   20.7684   -6.7027  -17.4585 C   0  0  0  0  0  0  0  0  0  0  0  0
   21.0832   -6.3928  -16.0334 C   0  0  0  0  0  0  0  0  0  0  0  0
   21.4769   -7.7856  -15.4533 C   0  0  1  0  0  0  0  0  0  0  0  0
   21.2974   -7.7089  -14.0095 C   0  0  0  0  0  0  0  0  0  0  0  0
   20.2346   -7.9162  -13.4307 O   0  0  0  0  0  0  0  0  0  0  0  0
   22.4202   -7.3762  -13.2441 O   0  0  0  0  0  0  0  0  0  0  0  0
  2  1  1  1
  2  3  1  0
  4  5  1  1
  4  2  1  0
  6  4  1  0
  7  6  2  0
  8  6  1  0
  9 10  1  1
  9  8  1  0
 10 11  1  0
 11 12  1  0
 13 14  1  0
 13 12  1  0
 15  9  1  0
 16 15  2  0
 17 15  1  0
 18 17  1  0
 19 20  1  0
 19 18  1  0
 20 21  1  0
 21 17  1  0
 22 24  1  0
 21 22  1  1
 23 22  2  0
M  END
$$$$
