VKP.pdb
     RDKit          3D

 24 24  0  0  1  0  0  0  0  0999 V2000
   20.9314  -22.5517  -14.0329 C   0  0  0  0  0  0  0  0  0  0  0  0
   20.2441  -21.4230  -13.2928 C   0  0  2  0  0  0  0  0  0  0  0  0
   18.7536  -21.5959  -13.5227 C   0  0  0  0  0  0  0  0  0  0  0  0
   20.7363  -20.1276  -13.8806 C   0  0  2  0  0  0  0  0  0  0  0  0
   20.0793  -19.9501  -15.1609 N   0  0  0  0  0  0  0  0  0  0  0  0
   22.2225  -20.1286  -14.0399 C   0  0  0  0  0  0  0  0  0  0  0  0
   22.9897  -20.1929  -13.0401 O   0  0  0  0  0  0  0  0  0  0  0  0
   22.8438  -20.0586  -15.2998 N   0  0  0  0  0  0  0  0  0  0  0  0
   24.3484  -19.9476  -15.4069 C   0  0  1  0  0  0  0  0  0  0  0  0
   24.7011  -21.3118  -15.8964 C   0  0  0  0  0  0  0  0  0  0  0  0
   26.0645  -21.8412  -15.8829 C   0  0  0  0  0  0  0  0  0  0  0  0
   26.3604  -23.1469  -16.5000 C   0  0  0  0  0  0  0  0  0  0  0  0
   27.8621  -23.4551  -16.3022 C   0  0  0  0  0  0  0  0  0  0  0  0
   28.1585  -24.7115  -16.9354 N   0  0  0  0  0  0  0  0  0  0  0  0
   24.6617  -18.8397  -16.3008 C   0  0  0  0  0  0  0  0  0  0  0  0
   24.1888  -18.9056  -17.4627 O   0  0  0  0  0  0  0  0  0  0  0  0
   25.4367  -17.7220  -15.9344 N   0  0  0  0  0  0  0  0  0  0  0  0
   25.7956  -17.4708  -14.5573 C   0  0  0  0  0  0  0  0  0  0  0  0
   27.1329  -16.8063  -14.6494 C   0  0  0  0  0  0  0  0  0  0  0  0
   27.3658  -16.4703  -16.0843 C   0  0  0  0  0  0  0  0  0  0  0  0
   25.9596  -16.6823  -16.7238 C   0  0  1  0  0  0  0  0  0  0  0  0
   26.1705  -16.8926  -18.1500 C   0  0  0  0  0  0  0  0  0  0  0  0
   26.4846  -17.9674  -18.6536 O   0  0  0  0  0  0  0  0  0  0  0  0
   25.9998  -15.7868  -18.9898 O   0  0  0  0  0  0  0  0  0  0  0  0
  2  1  1  6
  2  3  1  0
  4  5  1  6
  4  2  1  0
  6  4  1  0
  7  6  2  0
  8  6  1  0
  9 10  1  6
  9  8  1  0
 10 11  1  0
 11 12  1  0
 13 14  1  0
 13 12  1  0
 15  9  1  0
 16 15  2  0
 17 15  1  0
 18 17  1  0
 19 20  1  0
 19 18  1  0
 20 21  1  0
 21 17  1  0
 22 24  1  0
 21 22  1  6
 23 22  2  0
M  END
$$$$
