VKP.pdb
     RDKit          3D

 24 24  0  0  1  0  0  0  0  0999 V2000
   11.8904   -7.8649  -13.3692 C   0  0  0  0  0  0  0  0  0  0  0  0
   13.3621   -8.0354  -13.0547 C   0  0  2  0  0  0  0  0  0  0  0  0
   14.0795   -6.8492  -13.6732 C   0  0  0  0  0  0  0  0  0  0  0  0
   13.8140   -9.3280  -13.6798 C   0  0  2  0  0  0  0  0  0  0  0  0
   13.3041  -10.4115  -12.8624 N   0  0  0  0  0  0  0  0  0  0  0  0
   15.3037   -9.3943  -13.7838 C   0  0  0  0  0  0  0  0  0  0  0  0
   16.0133   -9.7723  -12.8112 O   0  0  0  0  0  0  0  0  0  0  0  0
   15.9919   -9.0430  -14.9591 N   0  0  0  0  0  0  0  0  0  0  0  0
   17.4967   -9.1743  -15.0340 C   0  0  1  0  0  0  0  0  0  0  0  0
   17.6619   -9.8031  -16.3765 C   0  0  0  0  0  0  0  0  0  0  0  0
   18.5137  -10.9673  -16.6177 C   0  0  0  0  0  0  0  0  0  0  0  0
   18.5913  -11.5650  -17.9630 C   0  0  0  0  0  0  0  0  0  0  0  0
   19.3967  -12.8810  -17.8706 C   0  0  0  0  0  0  0  0  0  0  0  0
   19.4432  -13.4816  -19.1761 N   0  0  0  0  0  0  0  0  0  0  0  0
   18.0793   -7.8488  -14.8656 C   0  0  0  0  0  0  0  0  0  0  0  0
   17.5444   -6.9147  -15.5130 O   0  0  0  0  0  0  0  0  0  0  0  0
   19.1749   -7.5667  -14.0263 N   0  0  0  0  0  0  0  0  0  0  0  0
   19.6103   -8.5008  -13.0134 C   0  0  0  0  0  0  0  0  0  0  0  0
   21.0887   -8.2848  -12.9362 C   0  0  0  0  0  0  0  0  0  0  0  0
   21.4010   -7.0550  -13.7212 C   0  0  0  0  0  0  0  0  0  0  0  0
   19.9939   -6.4257  -13.9562 C   0  0  1  0  0  0  0  0  0  0  0  0
   20.1109   -5.5469  -15.1124 C   0  0  0  0  0  0  0  0  0  0  0  0
   19.7866   -5.8572  -16.2552 O   0  0  0  0  0  0  0  0  0  0  0  0
   20.6289   -4.2664  -14.8903 O   0  0  0  0  0  0  0  0  0  0  0  0
  2  1  1  6
  2  3  1  0
  4  5  1  1
  4  2  1  0
  6  4  1  0
  7  6  2  0
  8  6  1  0
  9 10  1  6
  9  8  1  0
 10 11  1  0
 11 12  1  0
 13 14  1  0
 13 12  1  0
 15  9  1  0
 16 15  2  0
 17 15  1  0
 18 17  1  0
 19 20  1  0
 19 18  1  0
 20 21  1  0
 21 17  1  0
 22 24  1  0
 21 22  1  6
 23 22  2  0
M  END
$$$$
