VKP.pdb
     RDKit          3D

 24 24  0  0  1  0  0  0  0  0999 V2000
   23.7168  -33.4860  -15.8853 C   0  0  0  0  0  0  0  0  0  0  0  0
   24.6247  -32.8384  -16.9103 C   0  0  2  0  0  0  0  0  0  0  0  0
   26.0487  -33.1648  -16.4981 C   0  0  0  0  0  0  0  0  0  0  0  0
   24.3745  -31.3548  -16.8666 C   0  0  2  0  0  0  0  0  0  0  0  0
   23.0176  -31.1259  -17.3233 N   0  0  0  0  0  0  0  0  0  0  0  0
   25.3548  -30.6093  -17.7137 C   0  0  0  0  0  0  0  0  0  0  0  0
   25.3083  -30.6635  -18.9735 O   0  0  0  0  0  0  0  0  0  0  0  0
   26.3740  -29.8133  -17.1606 N   0  0  0  0  0  0  0  0  0  0  0  0
   27.3588  -29.0971  -18.0577 C   0  0  1  0  0  0  0  0  0  0  0  0
   27.6094  -27.8543  -17.2718 C   0  0  0  0  0  0  0  0  0  0  0  0
   28.4977  -26.7843  -17.7247 C   0  0  0  0  0  0  0  0  0  0  0  0
   28.6504  -25.5566  -16.9231 C   0  0  0  0  0  0  0  0  0  0  0  0
   29.6026  -24.5961  -17.6715 C   0  0  0  0  0  0  0  0  0  0  0  0
   29.7223  -23.3836  -16.9081 N   0  0  0  0  0  0  0  0  0  0  0  0
   28.5060  -29.9719  -18.2659 C   0  0  0  0  0  0  0  0  0  0  0  0
   29.0456  -30.4442  -17.2346 O   0  0  0  0  0  0  0  0  0  0  0  0
   29.0195  -30.3159  -19.5317 N   0  0  0  0  0  0  0  0  0  0  0  0
   28.2896  -30.0304  -20.7457 C   0  0  0  0  0  0  0  0  0  0  0  0
   29.3611  -29.7772  -21.7587 C   0  0  0  0  0  0  0  0  0  0  0  0
   30.6591  -30.1834  -21.1456 C   0  0  0  0  0  0  0  0  0  0  0  0
   30.2127  -30.9746  -19.8783 C   0  0  1  0  0  0  0  0  0  0  0  0
   31.3393  -30.9648  -18.9545 C   0  0  0  0  0  0  0  0  0  0  0  0
   31.6929  -29.9866  -18.3022 O   0  0  0  0  0  0  0  0  0  0  0  0
   32.0567  -32.1573  -18.8109 O   0  0  0  0  0  0  0  0  0  0  0  0
  2  1  1  1
  2  3  1  0
  4  5  1  6
  4  2  1  0
  6  4  1  0
  7  6  2  0
  8  6  1  0
  9 10  1  1
  9  8  1  0
 10 11  1  0
 11 12  1  0
 13 14  1  0
 13 12  1  0
 15  9  1  0
 16 15  2  0
 17 15  1  0
 18 17  1  0
 19 20  1  0
 19 18  1  0
 20 21  1  0
 21 17  1  0
 22 24  1  0
 21 22  1  1
 23 22  2  0
M  END
$$$$
