VKP.pdb
     RDKit          3D

 24 24  0  0  1  0  0  0  0  0999 V2000
   21.8354  -17.6024  -20.0895 C   0  0  0  0  0  0  0  0  0  0  0  0
   22.0397  -16.6334  -21.2356 C   0  0  2  0  0  0  0  0  0  0  0  0
   23.3587  -17.0044  -21.8890 C   0  0  0  0  0  0  0  0  0  0  0  0
   22.0943  -15.2462  -20.6541 C   0  0  2  0  0  0  0  0  0  0  0  0
   23.3603  -15.1117  -19.9603 N   0  0  0  0  0  0  0  0  0  0  0  0
   20.9491  -14.9960  -19.7266 C   0  0  0  0  0  0  0  0  0  0  0  0
   19.7554  -15.1754  -20.0943 O   0  0  0  0  0  0  0  0  0  0  0  0
   21.1348  -14.5511  -18.4053 N   0  0  0  0  0  0  0  0  0  0  0  0
   19.9456  -14.1821  -17.5468 C   0  0  1  0  0  0  0  0  0  0  0  0
   20.1838  -15.0358  -16.3470 C   0  0  0  0  0  0  0  0  0  0  0  0
   19.7453  -16.4279  -16.2534 C   0  0  0  0  0  0  0  0  0  0  0  0
   20.0895  -17.2371  -15.0702 C   0  0  0  0  0  0  0  0  0  0  0  0
   19.5539  -18.6714  -15.2827 C   0  0  0  0  0  0  0  0  0  0  0  0
   19.8710  -19.4552  -14.1197 N   0  0  0  0  0  0  0  0  0  0  0  0
   19.9696  -12.7410  -17.3292 C   0  0  0  0  0  0  0  0  0  0  0  0
   21.0432  -12.2578  -16.8913 O   0  0  0  0  0  0  0  0  0  0  0  0
   18.8832  -11.8831  -17.5897 N   0  0  0  0  0  0  0  0  0  0  0  0
   17.7169  -12.3392  -18.3107 C   0  0  0  0  0  0  0  0  0  0  0  0
   16.5949  -11.5458  -17.7189 C   0  0  0  0  0  0  0  0  0  0  0  0
   17.2021  -10.4827  -16.8662 C   0  0  0  0  0  0  0  0  0  0  0  0
   18.7056  -10.5234  -17.2775 C   0  0  1  0  0  0  0  0  0  0  0  0
   19.4603   -9.9280  -16.1826 C   0  0  0  0  0  0  0  0  0  0  0  0
   19.5736   -8.7200  -15.9946 O   0  0  0  0  0  0  0  0  0  0  0  0
   20.0926  -10.8038  -15.2935 O   0  0  0  0  0  0  0  0  0  0  0  0
  2  1  1  1
  2  3  1  0
  4  5  1  1
  4  2  1  0
  6  4  1  0
  7  6  2  0
  8  6  1  0
  9 10  1  1
  9  8  1  0
 10 11  1  0
 11 12  1  0
 13 14  1  0
 13 12  1  0
 15  9  1  0
 16 15  2  0
 17 15  1  0
 18 17  1  0
 19 20  1  0
 19 18  1  0
 20 21  1  0
 21 17  1  0
 22 24  1  0
 21 22  1  1
 23 22  2  0
M  END
$$$$
