VKP.pdb
     RDKit          3D

 24 24  0  0  1  0  0  0  0  0999 V2000
   28.8137  -19.5704  -13.3824 C   0  0  0  0  0  0  0  0  0  0  0  0
   28.2760  -20.9531  -13.6878 C   0  0  2  0  0  0  0  0  0  0  0  0
   28.9596  -21.4140  -14.9624 C   0  0  0  0  0  0  0  0  0  0  0  0
   26.7888  -20.8295  -13.8848 C   0  0  2  0  0  0  0  0  0  0  0  0
   26.5694  -20.0139  -15.0633 N   0  0  0  0  0  0  0  0  0  0  0  0
   26.1266  -20.2261  -12.6883 C   0  0  0  0  0  0  0  0  0  0  0  0
   26.0486  -18.9752  -12.5422 O   0  0  0  0  0  0  0  0  0  0  0  0
   25.5586  -21.0101  -11.6679 N   0  0  0  0  0  0  0  0  0  0  0  0
   24.9950  -20.3583  -10.4248 C   0  0  1  0  0  0  0  0  0  0  0  0
   23.5383  -20.6301  -10.5954 C   0  0  0  0  0  0  0  0  0  0  0  0
   22.7574  -20.1352  -11.7287 C   0  0  0  0  0  0  0  0  0  0  0  0
   21.3198  -20.4448  -11.8318 C   0  0  0  0  0  0  0  0  0  0  0  0
   20.7823  -19.8495  -13.1532 C   0  0  0  0  0  0  0  0  0  0  0  0
   19.3879  -20.1803  -13.2702 N   0  0  0  0  0  0  0  0  0  0  0  0
   25.6333  -20.9641   -9.2628 C   0  0  0  0  0  0  0  0  0  0  0  0
   25.4359  -22.1928   -9.0913 O   0  0  0  0  0  0  0  0  0  0  0  0
   26.4490  -20.2635   -8.3529 N   0  0  0  0  0  0  0  0  0  0  0  0
   27.2004  -19.0968   -8.7559 C   0  0  0  0  0  0  0  0  0  0  0  0
   27.2375  -18.2492   -7.5236 C   0  0  0  0  0  0  0  0  0  0  0  0
   26.7304  -19.0820   -6.3944 C   0  0  0  0  0  0  0  0  0  0  0  0
   26.7246  -20.5198   -6.9979 C   0  0  1  0  0  0  0  0  0  0  0  0
   25.7892  -21.3075   -6.2058 C   0  0  0  0  0  0  0  0  0  0  0  0
   24.6530  -21.6029   -6.5653 O   0  0  0  0  0  0  0  0  0  0  0  0
   26.2292  -21.7506   -4.9538 O   0  0  0  0  0  0  0  0  0  0  0  0
  2  1  1  6
  2  3  1  0
  4  5  1  6
  4  2  1  0
  6  4  1  0
  7  6  2  0
  8  6  1  0
  9 10  1  1
  9  8  1  0
 10 11  1  0
 11 12  1  0
 13 14  1  0
 13 12  1  0
 15  9  1  0
 16 15  2  0
 17 15  1  0
 18 17  1  0
 19 20  1  0
 19 18  1  0
 20 21  1  0
 21 17  1  0
 22 24  1  0
 21 22  1  1
 23 22  2  0
M  END
$$$$
