VKP.pdb
     RDKit          3D

 24 24  0  0  1  0  0  0  0  0999 V2000
   17.2845  -15.3653  -17.6046 C   0  0  0  0  0  0  0  0  0  0  0  0
   16.6795  -15.2381  -16.2219 C   0  0  2  0  0  0  0  0  0  0  0  0
   15.1953  -15.5211  -16.3687 C   0  0  0  0  0  0  0  0  0  0  0  0
   16.9183  -13.8293  -15.7488 C   0  0  2  0  0  0  0  0  0  0  0  0
   16.1090  -12.9489  -16.5687 N   0  0  0  0  0  0  0  0  0  0  0  0
   18.3640  -13.4600  -15.8369 C   0  0  0  0  0  0  0  0  0  0  0  0
   19.2429  -14.0886  -15.1852 O   0  0  0  0  0  0  0  0  0  0  0  0
   18.8222  -12.4021  -16.6426 N   0  0  0  0  0  0  0  0  0  0  0  0
   20.2787  -11.9953  -16.6177 C   0  0  1  0  0  0  0  0  0  0  0  0
   20.5606  -11.8541  -18.0756 C   0  0  0  0  0  0  0  0  0  0  0  0
   21.9021  -11.9653  -18.6476 C   0  0  0  0  0  0  0  0  0  0  0  0
   22.4613  -13.2887  -18.9780 C   0  0  0  0  0  0  0  0  0  0  0  0
   23.8776  -13.0914  -19.5648 C   0  0  0  0  0  0  0  0  0  0  0  0
   24.4572  -14.3849  -19.8060 N   0  0  0  0  0  0  0  0  0  0  0  0
   20.4004  -10.7840  -15.8160 C   0  0  0  0  0  0  0  0  0  0  0  0
   19.5879   -9.8600  -16.0691 O   0  0  0  0  0  0  0  0  0  0  0  0
   21.3495  -10.6057  -14.7905 N   0  0  0  0  0  0  0  0  0  0  0  0
   22.1127  -11.7155  -14.2668 C   0  0  0  0  0  0  0  0  0  0  0  0
   23.4225  -11.1024  -13.8836 C   0  0  0  0  0  0  0  0  0  0  0  0
   23.2615   -9.6213  -13.9625 C   0  0  0  0  0  0  0  0  0  0  0  0
   21.7172   -9.4454  -14.0862 C   0  0  1  0  0  0  0  0  0  0  0  0
   21.4865   -8.1350  -14.6800 C   0  0  0  0  0  0  0  0  0  0  0  0
   21.0993   -7.1500  -14.0578 O   0  0  0  0  0  0  0  0  0  0  0  0
   21.7270   -8.0055  -16.0521 O   0  0  0  0  0  0  0  0  0  0  0  0
  2  1  1  6
  2  3  1  0
  4  5  1  6
  4  2  1  0
  6  4  1  0
  7  6  2  0
  8  6  1  0
  9 10  1  6
  9  8  1  0
 10 11  1  0
 11 12  1  0
 13 14  1  0
 13 12  1  0
 15  9  1  0
 16 15  2  0
 17 15  1  0
 18 17  1  0
 19 20  1  0
 19 18  1  0
 20 21  1  0
 21 17  1  0
 22 24  1  0
 21 22  1  6
 23 22  2  0
M  END
$$$$
