VKP.pdb
     RDKit          3D

 24 24  0  0  1  0  0  0  0  0999 V2000
   19.3856  -12.6739  -20.8423 C   0  0  0  0  0  0  0  0  0  0  0  0
   19.8583  -11.5578  -21.7507 C   0  0  2  0  0  0  0  0  0  0  0  0
   20.7353  -12.2008  -22.8098 C   0  0  0  0  0  0  0  0  0  0  0  0
   20.6461  -10.5896  -20.9095 C   0  0  2  0  0  0  0  0  0  0  0  0
   21.8945  -11.2348  -20.5525 N   0  0  0  0  0  0  0  0  0  0  0  0
   19.8875  -10.1833  -19.6873 C   0  0  0  0  0  0  0  0  0  0  0  0
   18.7357   -9.6745  -19.7686 O   0  0  0  0  0  0  0  0  0  0  0  0
   20.4089  -10.3434  -18.3908 N   0  0  0  0  0  0  0  0  0  0  0  0
   19.6208   -9.8809  -17.1856 C   0  0  1  0  0  0  0  0  0  0  0  0
   19.5169  -11.1499  -16.4085 C   0  0  0  0  0  0  0  0  0  0  0  0
   18.4216  -12.1048  -16.5746 C   0  0  0  0  0  0  0  0  0  0  0  0
   18.3546  -13.3123  -15.7316 C   0  0  0  0  0  0  0  0  0  0  0  0
   17.1507  -14.1662  -16.1906 C   0  0  0  0  0  0  0  0  0  0  0  0
   17.1648  -15.4058  -15.4623 N   0  0  0  0  0  0  0  0  0  0  0  0
   20.3544   -8.7931  -16.5508 C   0  0  0  0  0  0  0  0  0  0  0  0
   21.5251   -9.0503  -16.1750 O   0  0  0  0  0  0  0  0  0  0  0  0
   19.8360   -7.4983  -16.3535 N   0  0  0  0  0  0  0  0  0  0  0  0
   18.6219   -7.0636  -17.0056 C   0  0  0  0  0  0  0  0  0  0  0  0
   18.0107   -6.1091  -16.0290 C   0  0  0  0  0  0  0  0  0  0  0  0
   19.0293   -5.8387  -14.9729 C   0  0  0  0  0  0  0  0  0  0  0  0
   20.3346   -6.4279  -15.5897 C   0  0  1  0  0  0  0  0  0  0  0  0
   21.2446   -6.6911  -14.4828 C   0  0  0  0  0  0  0  0  0  0  0  0
   21.4490   -7.8022  -14.0020 O   0  0  0  0  0  0  0  0  0  0  0  0
   21.9245   -5.5947  -13.9416 O   0  0  0  0  0  0  0  0  0  0  0  0
  2  1  1  1
  2  3  1  0
  4  5  1  1
  4  2  1  0
  6  4  1  0
  7  6  2  0
  8  6  1  0
  9 10  1  1
  9  8  1  0
 10 11  1  0
 11 12  1  0
 13 14  1  0
 13 12  1  0
 15  9  1  0
 16 15  2  0
 17 15  1  0
 18 17  1  0
 19 20  1  0
 19 18  1  0
 20 21  1  0
 21 17  1  0
 22 24  1  0
 21 22  1  1
 23 22  2  0
M  END
$$$$
