VKP.pdb
     RDKit          3D

 24 24  0  0  1  0  0  0  0  0999 V2000
   19.4610  -15.2120  -18.2902 C   0  0  0  0  0  0  0  0  0  0  0  0
   20.6015  -14.8338  -19.2124 C   0  0  2  0  0  0  0  0  0  0  0  0
   21.7353  -15.8001  -18.9211 C   0  0  0  0  0  0  0  0  0  0  0  0
   20.9987  -13.4187  -18.8878 C   0  0  2  0  0  0  0  0  0  0  0  0
   21.7200  -13.4438  -17.6303 N   0  0  0  0  0  0  0  0  0  0  0  0
   19.8061  -12.5218  -18.8003 C   0  0  0  0  0  0  0  0  0  0  0  0
   19.0484  -12.3386  -19.7926 O   0  0  0  0  0  0  0  0  0  0  0  0
   19.4642  -11.8383  -17.6195 N   0  0  0  0  0  0  0  0  0  0  0  0
   18.2631  -10.9197  -17.5864 C   0  0  1  0  0  0  0  0  0  0  0  0
   17.3182  -11.7153  -16.7502 C   0  0  0  0  0  0  0  0  0  0  0  0
   15.9787  -11.2508  -16.3911 C   0  0  0  0  0  0  0  0  0  0  0  0
   15.1020  -12.0885  -15.5528 C   0  0  0  0  0  0  0  0  0  0  0  0
   13.8624  -11.2562  -15.1529 C   0  0  0  0  0  0  0  0  0  0  0  0
   12.8810  -12.1407  -14.5856 N   0  0  0  0  0  0  0  0  0  0  0  0
   18.6854   -9.6361  -17.0401 C   0  0  0  0  0  0  0  0  0  0  0  0
   19.2089   -9.6574  -15.8984 O   0  0  0  0  0  0  0  0  0  0  0  0
   18.5516   -8.4065  -17.7142 N   0  0  0  0  0  0  0  0  0  0  0  0
   18.1373   -8.3448  -19.0972 C   0  0  0  0  0  0  0  0  0  0  0  0
   17.3796   -7.0580  -19.1889 C   0  0  0  0  0  0  0  0  0  0  0  0
   17.6137   -6.3114  -17.9185 C   0  0  0  0  0  0  0  0  0  0  0  0
   18.7935   -7.0954  -17.2668 C   0  0  1  0  0  0  0  0  0  0  0  0
   18.7612   -6.8002  -15.8403 C   0  0  0  0  0  0  0  0  0  0  0  0
   18.4460   -7.6086  -14.9717 O   0  0  0  0  0  0  0  0  0  0  0  0
   19.1159   -5.5047  -15.4491 O   0  0  0  0  0  0  0  0  0  0  0  0
  2  1  1  1
  2  3  1  0
  4  5  1  1
  4  2  1  0
  6  4  1  0
  7  6  2  0
  8  6  1  0
  9 10  1  1
  9  8  1  0
 10 11  1  0
 11 12  1  0
 13 14  1  0
 13 12  1  0
 15  9  1  0
 16 15  2  0
 17 15  1  0
 18 17  1  0
 19 20  1  0
 19 18  1  0
 20 21  1  0
 21 17  1  0
 22 24  1  0
 21 22  1  1
 23 22  2  0
M  END
$$$$
