VKP.pdb
     RDKit          3D

 24 24  0  0  1  0  0  0  0  0999 V2000
   24.1596  -24.9637  -16.1614 C   0  0  0  0  0  0  0  0  0  0  0  0
   25.3091  -24.6309  -17.0899 C   0  0  2  0  0  0  0  0  0  0  0  0
   26.5745  -24.6879  -16.2534 C   0  0  0  0  0  0  0  0  0  0  0  0
   25.0749  -23.2435  -17.6245 C   0  0  2  0  0  0  0  0  0  0  0  0
   26.0362  -23.0151  -18.6857 N   0  0  0  0  0  0  0  0  0  0  0  0
   25.2118  -22.2128  -16.5506 C   0  0  0  0  0  0  0  0  0  0  0  0
   26.3357  -21.7253  -16.2481 O   0  0  0  0  0  0  0  0  0  0  0  0
   24.1073  -21.7328  -15.8239 N   0  0  0  0  0  0  0  0  0  0  0  0
   24.2859  -20.6455  -14.7879 C   0  0  1  0  0  0  0  0  0  0  0  0
   23.2564  -19.6599  -15.2281 C   0  0  0  0  0  0  0  0  0  0  0  0
   23.4578  -18.7328  -16.3412 C   0  0  0  0  0  0  0  0  0  0  0  0
   22.3705  -17.8309  -16.7626 C   0  0  0  0  0  0  0  0  0  0  0  0
   22.8213  -17.0785  -18.0354 C   0  0  0  0  0  0  0  0  0  0  0  0
   21.7268  -16.2708  -18.5013 N   0  0  0  0  0  0  0  0  0  0  0  0
   24.0929  -21.2356  -13.4691 C   0  0  0  0  0  0  0  0  0  0  0  0
   22.9955  -21.8132  -13.2684 O   0  0  0  0  0  0  0  0  0  0  0  0
   25.0533  -21.2033  -12.4393 N   0  0  0  0  0  0  0  0  0  0  0  0
   26.4672  -21.1256  -12.7276 C   0  0  0  0  0  0  0  0  0  0  0  0
   27.0265  -20.3471  -11.5789 C   0  0  0  0  0  0  0  0  0  0  0  0
   25.9515  -20.2358  -10.5504 C   0  0  0  0  0  0  0  0  0  0  0  0
   24.8900  -21.2658  -11.0439 C   0  0  1  0  0  0  0  0  0  0  0  0
   23.6178  -20.8818  -10.4465 C   0  0  0  0  0  0  0  0  0  0  0  0
   22.7467  -20.2376  -11.0240 O   0  0  0  0  0  0  0  0  0  0  0  0
   23.3872  -21.2813   -9.1256 O   0  0  0  0  0  0  0  0  0  0  0  0
  2  1  1  1
  2  3  1  0
  4  5  1  6
  4  2  1  0
  6  4  1  0
  7  6  2  0
  8  6  1  0
  9 10  1  6
  9  8  1  0
 10 11  1  0
 11 12  1  0
 13 14  1  0
 13 12  1  0
 15  9  1  0
 16 15  2  0
 17 15  1  0
 18 17  1  0
 19 20  1  0
 19 18  1  0
 20 21  1  0
 21 17  1  0
 22 24  1  0
 21 22  1  6
 23 22  2  0
M  END
$$$$
