VKP.pdb
     RDKit          3D

 24 24  0  0  1  0  0  0  0  0999 V2000
   26.2526  -22.1556  -15.5737 C   0  0  0  0  0  0  0  0  0  0  0  0
   25.4725  -21.6336  -14.3850 C   0  0  2  0  0  0  0  0  0  0  0  0
   25.1629  -22.8328  -13.5073 C   0  0  0  0  0  0  0  0  0  0  0  0
   24.2091  -21.0060  -14.9102 C   0  0  2  0  0  0  0  0  0  0  0  0
   24.5931  -19.9332  -15.8068 N   0  0  0  0  0  0  0  0  0  0  0  0
   23.3512  -20.4911  -13.7997 C   0  0  0  0  0  0  0  0  0  0  0  0
   23.7158  -19.5157  -13.0868 O   0  0  0  0  0  0  0  0  0  0  0  0
   22.1021  -21.0583  -13.4894 N   0  0  0  0  0  0  0  0  0  0  0  0
   21.2725  -20.5083  -12.3506 C   0  0  1  0  0  0  0  0  0  0  0  0
   20.1160  -19.9293  -13.0937 C   0  0  0  0  0  0  0  0  0  0  0  0
   20.1986  -18.6909  -13.8675 C   0  0  0  0  0  0  0  0  0  0  0  0
   19.0240  -18.1995  -14.6104 C   0  0  0  0  0  0  0  0  0  0  0  0
   19.4398  -16.9468  -15.4148 C   0  0  0  0  0  0  0  0  0  0  0  0
   18.3052  -16.4916  -16.1716 N   0  0  0  0  0  0  0  0  0  0  0  0
   20.9703  -21.6025  -11.4364 C   0  0  0  0  0  0  0  0  0  0  0  0
   20.3518  -22.5830  -11.9202 O   0  0  0  0  0  0  0  0  0  0  0  0
   21.3376  -21.6221  -10.0766 N   0  0  0  0  0  0  0  0  0  0  0  0
   22.3972  -20.7812   -9.5685 C   0  0  0  0  0  0  0  0  0  0  0  0
   21.9739  -20.4767   -8.1662 C   0  0  0  0  0  0  0  0  0  0  0  0
   20.8209  -21.3674   -7.8453 C   0  0  0  0  0  0  0  0  0  0  0  0
   20.8426  -22.3992   -9.0142 C   0  0  1  0  0  0  0  0  0  0  0  0
   19.5054  -22.9718   -9.0983 C   0  0  0  0  0  0  0  0  0  0  0  0
   19.1095  -23.9124   -8.4158 O   0  0  0  0  0  0  0  0  0  0  0  0
   18.6244  -22.4010  -10.0230 O   0  0  0  0  0  0  0  0  0  0  0  0
  2  1  1  6
  2  3  1  0
  4  5  1  6
  4  2  1  0
  6  4  1  0
  7  6  2  0
  8  6  1  0
  9 10  1  6
  9  8  1  0
 10 11  1  0
 11 12  1  0
 13 14  1  0
 13 12  1  0
 15  9  1  0
 16 15  2  0
 17 15  1  0
 18 17  1  0
 19 20  1  0
 19 18  1  0
 20 21  1  0
 21 17  1  0
 22 24  1  0
 21 22  1  6
 23 22  2  0
M  END
$$$$
