VKP.pdb
     RDKit          3D

 24 24  0  0  1  0  0  0  0  0999 V2000
   27.8498  -26.7896  -18.8774 C   0  0  0  0  0  0  0  0  0  0  0  0
   28.2346  -26.4114  -17.4622 C   0  0  2  0  0  0  0  0  0  0  0  0
   27.6569  -27.4814  -16.5535 C   0  0  0  0  0  0  0  0  0  0  0  0
   27.6265  -25.0659  -17.1696 C   0  0  2  0  0  0  0  0  0  0  0  0
   28.0950  -24.6485  -15.8625 N   0  0  0  0  0  0  0  0  0  0  0  0
   26.1332  -25.1202  -17.2082 C   0  0  0  0  0  0  0  0  0  0  0  0
   25.5099  -25.2748  -18.2944 O   0  0  0  0  0  0  0  0  0  0  0  0
   25.3462  -25.0032  -16.0483 N   0  0  0  0  0  0  0  0  0  0  0  0
   23.8447  -25.1700  -16.1212 C   0  0  1  0  0  0  0  0  0  0  0  0
   23.6161  -26.1722  -15.0402 C   0  0  0  0  0  0  0  0  0  0  0  0
   22.3675  -26.9188  -14.8897 C   0  0  0  0  0  0  0  0  0  0  0  0
   21.5036  -26.6926  -13.7168 C   0  0  0  0  0  0  0  0  0  0  0  0
   20.1972  -27.4968  -13.9059 C   0  0  0  0  0  0  0  0  0  0  0  0
   19.3471  -27.2622  -12.7703 N   0  0  0  0  0  0  0  0  0  0  0  0
   23.2306  -23.8621  -15.9298 C   0  0  0  0  0  0  0  0  0  0  0  0
   23.3444  -23.3507  -14.7880 O   0  0  0  0  0  0  0  0  0  0  0  0
   22.5446  -23.1549  -16.9365 N   0  0  0  0  0  0  0  0  0  0  0  0
   22.5784  -23.5825  -18.3164 C   0  0  0  0  0  0  0  0  0  0  0  0
   21.2430  -23.1733  -18.8528 C   0  0  0  0  0  0  0  0  0  0  0  0
   20.6014  -22.2969  -17.8300 C   0  0  0  0  0  0  0  0  0  0  0  0
   21.7778  -21.9787  -16.8573 C   0  0  1  0  0  0  0  0  0  0  0  0
   21.1823  -21.5874  -15.5864 C   0  0  0  0  0  0  0  0  0  0  0  0
   20.8683  -22.3729  -14.6965 O   0  0  0  0  0  0  0  0  0  0  0  0
   20.9595  -20.2217  -15.3802 O   0  0  0  0  0  0  0  0  0  0  0  0
  2  1  1  6
  2  3  1  0
  4  5  1  1
  4  2  1  0
  6  4  1  0
  7  6  2  0
  8  6  1  0
  9 10  1  1
  9  8  1  0
 10 11  1  0
 11 12  1  0
 13 14  1  0
 13 12  1  0
 15  9  1  0
 16 15  2  0
 17 15  1  0
 18 17  1  0
 19 20  1  0
 19 18  1  0
 20 21  1  0
 21 17  1  0
 22 24  1  0
 21 22  1  1
 23 22  2  0
M  END
$$$$
