VKP.pdb
     RDKit          3D

 24 24  0  0  1  0  0  0  0  0999 V2000
   20.2118  -13.2325  -16.7998 C   0  0  0  0  0  0  0  0  0  0  0  0
   18.9849  -12.8314  -16.0075 C   0  0  2  0  0  0  0  0  0  0  0  0
   17.8124  -13.5834  -16.6107 C   0  0  0  0  0  0  0  0  0  0  0  0
   18.8110  -11.3441  -16.1602 C   0  0  2  0  0  0  0  0  0  0  0  0
   18.5870  -11.0715  -17.5665 N   0  0  0  0  0  0  0  0  0  0  0  0
   20.0049  -10.5989  -15.6565 C   0  0  0  0  0  0  0  0  0  0  0  0
   20.3323  -10.6302  -14.4382 O   0  0  0  0  0  0  0  0  0  0  0  0
   20.8226   -9.8285  -16.5027 N   0  0  0  0  0  0  0  0  0  0  0  0
   21.9556   -9.0052  -15.9318 C   0  0  1  0  0  0  0  0  0  0  0  0
   23.1250   -9.5947  -16.6460 C   0  0  0  0  0  0  0  0  0  0  0  0
   24.3523  -10.0109  -15.9681 C   0  0  0  0  0  0  0  0  0  0  0  0
   25.4746  -10.5718  -16.7420 C   0  0  0  0  0  0  0  0  0  0  0  0
   26.5576  -11.0609  -15.7535 C   0  0  0  0  0  0  0  0  0  0  0  0
   27.5807  -11.7447  -16.4972 N   0  0  0  0  0  0  0  0  0  0  0  0
   21.6775   -7.5995  -16.1986 C   0  0  0  0  0  0  0  0  0  0  0  0
   21.4663   -7.2871  -17.3968 O   0  0  0  0  0  0  0  0  0  0  0  0
   21.6226   -6.6014  -15.2061 N   0  0  0  0  0  0  0  0  0  0  0  0
   21.5944   -6.9351  -13.8004 C   0  0  0  0  0  0  0  0  0  0  0  0
   22.3128   -5.7975  -13.1460 C   0  0  0  0  0  0  0  0  0  0  0  0
   22.4937   -4.7332  -14.1757 C   0  0  0  0  0  0  0  0  0  0  0  0
   21.5552   -5.2021  -15.3292 C   0  0  1  0  0  0  0  0  0  0  0  0
   22.0287   -4.5594  -16.5481 C   0  0  0  0  0  0  0  0  0  0  0  0
   22.8756   -5.0350  -17.2990 O   0  0  0  0  0  0  0  0  0  0  0  0
   21.4718   -3.3175  -16.8719 O   0  0  0  0  0  0  0  0  0  0  0  0
  2  1  1  6
  2  3  1  0
  4  5  1  6
  4  2  1  0
  6  4  1  0
  7  6  2  0
  8  6  1  0
  9 10  1  6
  9  8  1  0
 10 11  1  0
 11 12  1  0
 13 14  1  0
 13 12  1  0
 15  9  1  0
 16 15  2  0
 17 15  1  0
 18 17  1  0
 19 20  1  0
 19 18  1  0
 20 21  1  0
 21 17  1  0
 22 24  1  0
 21 22  1  6
 23 22  2  0
M  END
$$$$
