VKP.pdb
     RDKit          3D

 24 24  0  0  1  0  0  0  0  0999 V2000
   18.2430  -18.9755  -15.4881 C   0  0  0  0  0  0  0  0  0  0  0  0
   19.6337  -18.5212  -15.0962 C   0  0  2  0  0  0  0  0  0  0  0  0
   20.0215  -17.4205  -16.0669 C   0  0  0  0  0  0  0  0  0  0  0  0
   20.5527  -19.7063  -15.2254 C   0  0  2  0  0  0  0  0  0  0  0  0
   20.1676  -20.6713  -14.2141 N   0  0  0  0  0  0  0  0  0  0  0  0
   21.9846  -19.3086  -15.0648 C   0  0  0  0  0  0  0  0  0  0  0  0
   22.4783  -19.0790  -13.9265 O   0  0  0  0  0  0  0  0  0  0  0  0
   22.8539  -19.1693  -16.1617 N   0  0  0  0  0  0  0  0  0  0  0  0
   24.3159  -18.8483  -15.9447 C   0  0  1  0  0  0  0  0  0  0  0  0
   24.9531  -20.1372  -16.3418 C   0  0  0  0  0  0  0  0  0  0  0  0
   24.8019  -21.3754  -15.5781 C   0  0  0  0  0  0  0  0  0  0  0  0
   25.3891  -22.6321  -16.0771 C   0  0  0  0  0  0  0  0  0  0  0  0
   25.0551  -23.7621  -15.0767 C   0  0  0  0  0  0  0  0  0  0  0  0
   25.6194  -24.9899  -15.5681 N   0  0  0  0  0  0  0  0  0  0  0  0
   24.6527  -17.6846  -16.7553 C   0  0  0  0  0  0  0  0  0  0  0  0
   24.2990  -17.7190  -17.9602 O   0  0  0  0  0  0  0  0  0  0  0  0
   25.3258  -16.5478  -16.2667 N   0  0  0  0  0  0  0  0  0  0  0  0
   25.4707  -16.3072  -14.8492 C   0  0  0  0  0  0  0  0  0  0  0  0
   26.7827  -15.5970  -14.7370 C   0  0  0  0  0  0  0  0  0  0  0  0
   27.2104  -15.2298  -16.1184 C   0  0  0  0  0  0  0  0  0  0  0  0
   25.9210  -15.4783  -16.9592 C   0  0  1  0  0  0  0  0  0  0  0  0
   26.3451  -15.6580  -18.3415 C   0  0  0  0  0  0  0  0  0  0  0  0
   26.1971  -14.8206  -19.2270 O   0  0  0  0  0  0  0  0  0  0  0  0
   26.9612  -16.8713  -18.6668 O   0  0  0  0  0  0  0  0  0  0  0  0
  2  1  1  6
  2  3  1  0
  4  5  1  1
  4  2  1  0
  6  4  1  0
  7  6  2  0
  8  6  1  0
  9 10  1  6
  9  8  1  0
 10 11  1  0
 11 12  1  0
 13 14  1  0
 13 12  1  0
 15  9  1  0
 16 15  2  0
 17 15  1  0
 18 17  1  0
 19 20  1  0
 19 18  1  0
 20 21  1  0
 21 17  1  0
 22 24  1  0
 21 22  1  6
 23 22  2  0
M  END
$$$$
