VKP.pdb
     RDKit          3D

 24 24  0  0  1  0  0  0  0  0999 V2000
   26.3575  -15.4943  -18.9596 C   0  0  0  0  0  0  0  0  0  0  0  0
   26.9332  -16.5379  -18.0249 C   0  0  2  0  0  0  0  0  0  0  0  0
   28.0415  -17.2410  -18.7876 C   0  0  0  0  0  0  0  0  0  0  0  0
   25.8256  -17.4947  -17.6739 C   0  0  2  0  0  0  0  0  0  0  0  0
   25.3439  -18.0795  -18.9101 N   0  0  0  0  0  0  0  0  0  0  0  0
   24.7183  -16.8059  -16.9432 C   0  0  0  0  0  0  0  0  0  0  0  0
   24.9005  -16.2992  -15.8020 O   0  0  0  0  0  0  0  0  0  0  0  0
   23.4241  -16.6846  -17.4804 N   0  0  0  0  0  0  0  0  0  0  0  0
   22.3187  -16.0364  -16.6770 C   0  0  1  0  0  0  0  0  0  0  0  0
   22.1332  -14.7593  -17.4252 C   0  0  0  0  0  0  0  0  0  0  0  0
   21.0543  -13.8134  -17.1422 C   0  0  0  0  0  0  0  0  0  0  0  0
   21.3463  -12.5313  -16.4757 C   0  0  0  0  0  0  0  0  0  0  0  0
   20.0172  -11.7687  -16.2729 C   0  0  0  0  0  0  0  0  0  0  0  0
   20.3052  -10.5049  -15.6507 N   0  0  0  0  0  0  0  0  0  0  0  0
   21.1782  -16.9437  -16.6553 C   0  0  0  0  0  0  0  0  0  0  0  0
   20.6941  -17.2628  -17.7697 O   0  0  0  0  0  0  0  0  0  0  0  0
   20.6134  -17.4771  -15.4803 N   0  0  0  0  0  0  0  0  0  0  0  0
   21.2378  -17.2908  -14.1905 C   0  0  0  0  0  0  0  0  0  0  0  0
   20.0861  -17.2426  -13.2367 C   0  0  0  0  0  0  0  0  0  0  0  0
   18.8675  -17.6635  -13.9876 C   0  0  0  0  0  0  0  0  0  0  0  0
   19.4576  -18.2583  -15.3027 C   0  0  1  0  0  0  0  0  0  0  0  0
   18.3960  -18.2168  -16.2998 C   0  0  0  0  0  0  0  0  0  0  0  0
   18.2221  -17.2932  -17.0897 O   0  0  0  0  0  0  0  0  0  0  0  0
   17.5242  -19.3099  -16.3489 O   0  0  0  0  0  0  0  0  0  0  0  0
  2  1  1  6
  2  3  1  0
  4  5  1  6
  4  2  1  0
  6  4  1  0
  7  6  2  0
  8  6  1  0
  9 10  1  6
  9  8  1  0
 10 11  1  0
 11 12  1  0
 13 14  1  0
 13 12  1  0
 15  9  1  0
 16 15  2  0
 17 15  1  0
 18 17  1  0
 19 20  1  0
 19 18  1  0
 20 21  1  0
 21 17  1  0
 22 24  1  0
 21 22  1  6
 23 22  2  0
M  END
$$$$
