AKA.pdb
     RDKit          3D

 20 19  0  0  1  0  0  0  0  0999 V2000
   25.7455  -10.5573  -15.1027 C   0  0  0  0  0  0  0  0  0  0  0  0
   24.6335  -10.7995  -16.0876 C   0  0  2  0  0  0  0  0  0  0  0  0
   25.1780  -10.9239  -17.4220 N   0  0  0  0  0  0  0  0  0  0  0  0
   23.5974   -9.7337  -16.0271 C   0  0  0  0  0  0  0  0  0  0  0  0
   23.8376   -8.6634  -16.6386 O   0  0  0  0  0  0  0  0  0  0  0  0
   22.3839   -9.8685  -15.3290 N   0  0  0  0  0  0  0  0  0  0  0  0
   21.3881   -8.8256  -15.3382 C   0  0  1  0  0  0  0  0  0  0  0  0
   20.0495   -9.3292  -14.8662 C   0  0  0  0  0  0  0  0  0  0  0  0
   19.3485  -10.1958  -15.8885 C   0  0  0  0  0  0  0  0  0  0  0  0
   18.1091  -10.8350  -15.3581 C   0  0  0  0  0  0  0  0  0  0  0  0
   17.3320  -11.5755  -16.4252 C   0  0  0  0  0  0  0  0  0  0  0  0
   16.2147  -12.3065  -15.9064 N   0  0  0  0  0  0  0  0  0  0  0  0
   21.7832   -7.7346  -14.4014 C   0  0  0  0  0  0  0  0  0  0  0  0
   22.5006   -7.9651  -13.4048 O   0  0  0  0  0  0  0  0  0  0  0  0
   23.2832   -5.0313  -14.1501 C   0  0  0  0  0  0  0  0  0  0  0  0
   21.8148   -5.2948  -13.8545 C   0  0  2  0  0  0  0  0  0  0  0  0
   21.3396   -6.4127  -14.6422 N   0  0  0  0  0  0  0  0  0  0  0  0
   21.0196   -4.0662  -14.1732 C   0  0  0  0  0  0  0  0  0  0  0  0
   21.1663   -3.0346  -13.4853 O   0  0  0  0  0  0  0  0  0  0  0  0
   20.1313   -4.0639  -15.2139 O   0  0  0  0  0  0  0  0  0  0  0  0
  2  1  1  1
  2  3  1  0
  2  4  1  0
  4  6  1  0
  5  4  2  0
  6  7  1  0
  7 13  1  0
  7  8  1  1
  9  8  1  0
 10 11  1  0
 10  9  1  0
 12 11  1  0
 13 17  1  0
 13 14  2  0
 16 15  1  6
 17 16  1  0
 18 16  1  0
 18 20  1  0
 19 18  2  0
M  END
$$$$
