AKA.pdb
     RDKit          3D

 20 19  0  0  1  0  0  0  0  0999 V2000
   13.5690  -12.8291  -13.7047 C   0  0  0  0  0  0  0  0  0  0  0  0
   13.6200  -11.6287  -14.6111 C   0  0  2  0  0  0  0  0  0  0  0  0
   13.4137  -12.0400  -15.9826 N   0  0  0  0  0  0  0  0  0  0  0  0
   14.8937  -10.8749  -14.4618 C   0  0  0  0  0  0  0  0  0  0  0  0
   15.1793  -10.4508  -13.3147 O   0  0  0  0  0  0  0  0  0  0  0  0
   15.7758  -10.6208  -15.5274 N   0  0  0  0  0  0  0  0  0  0  0  0
   17.0417   -9.9627  -15.3187 C   0  0  1  0  0  0  0  0  0  0  0  0
   18.1332  -10.5759  -16.1559 C   0  0  0  0  0  0  0  0  0  0  0  0
   19.4749   -9.9046  -15.9642 C   0  0  0  0  0  0  0  0  0  0  0  0
   20.5550  -10.5152  -16.7928 C   0  0  0  0  0  0  0  0  0  0  0  0
   21.9115   -9.8970  -16.5305 C   0  0  0  0  0  0  0  0  0  0  0  0
   22.9787  -10.5636  -17.2151 N   0  0  0  0  0  0  0  0  0  0  0  0
   16.9470   -8.5323  -15.7300 C   0  0  0  0  0  0  0  0  0  0  0  0
   16.6080   -8.2131  -16.8894 O   0  0  0  0  0  0  0  0  0  0  0  0
   16.1125   -5.3807  -14.4961 C   0  0  0  0  0  0  0  0  0  0  0  0
   17.2621   -6.1165  -15.1667 C   0  0  2  0  0  0  0  0  0  0  0  0
   17.2458   -7.5151  -14.7929 N   0  0  0  0  0  0  0  0  0  0  0  0
   18.5575   -5.4887  -14.7531 C   0  0  0  0  0  0  0  0  0  0  0  0
   19.3465   -6.1175  -14.0175 O   0  0  0  0  0  0  0  0  0  0  0  0
   18.8853   -4.2290  -15.1749 O   0  0  0  0  0  0  0  0  0  0  0  0
  2  1  1  1
  2  3  1  0
  2  4  1  0
  4  6  1  0
  5  4  2  0
  6  7  1  0
  7 13  1  0
  7  8  1  6
  9  8  1  0
 10 11  1  0
 10  9  1  0
 12 11  1  0
 13 17  1  0
 13 14  2  0
 16 15  1  1
 17 16  1  0
 18 16  1  0
 18 20  1  0
 19 18  2  0
M  END
$$$$
