AKA.pdb
     RDKit          3D

 20 19  0  0  1  0  0  0  0  0999 V2000
   16.3915  -13.1966  -14.0652 C   0  0  0  0  0  0  0  0  0  0  0  0
   15.4207  -12.8599  -12.9654 C   0  0  2  0  0  0  0  0  0  0  0  0
   14.2929  -13.7646  -13.0123 N   0  0  0  0  0  0  0  0  0  0  0  0
   14.9757  -11.4421  -13.0336 C   0  0  0  0  0  0  0  0  0  0  0  0
   14.3642  -11.0810  -14.0695 O   0  0  0  0  0  0  0  0  0  0  0  0
   15.2046  -10.5057  -12.0095 N   0  0  0  0  0  0  0  0  0  0  0  0
   14.7249   -9.1493  -12.1061 C   0  0  1  0  0  0  0  0  0  0  0  0
   14.1302   -8.6747  -10.8063 C   0  0  0  0  0  0  0  0  0  0  0  0
   12.6731   -9.0487  -10.6500 C   0  0  0  0  0  0  0  0  0  0  0  0
   12.1207   -8.6908   -9.3110 C   0  0  0  0  0  0  0  0  0  0  0  0
   10.6904   -9.1511   -9.1280 C   0  0  0  0  0  0  0  0  0  0  0  0
   10.1422   -8.7999   -7.8521 N   0  0  0  0  0  0  0  0  0  0  0  0
   15.8569   -8.2285  -12.4138 C   0  0  0  0  0  0  0  0  0  0  0  0
   16.8595   -8.1642  -11.6710 O   0  0  0  0  0  0  0  0  0  0  0  0
   17.1653   -6.5519  -15.3897 C   0  0  0  0  0  0  0  0  0  0  0  0
   16.8622   -6.4875  -13.9008 C   0  0  2  0  0  0  0  0  0  0  0  0
   15.7983   -7.4110  -13.5672 N   0  0  0  0  0  0  0  0  0  0  0  0
   16.4626   -5.0902  -13.5389 C   0  0  0  0  0  0  0  0  0  0  0  0
   15.2606   -4.8197  -13.3366 O   0  0  0  0  0  0  0  0  0  0  0  0
   17.4051   -4.1046  -13.4275 O   0  0  0  0  0  0  0  0  0  0  0  0
  2  1  1  6
  2  3  1  0
  2  4  1  0
  4  6  1  0
  5  4  2  0
  6  7  1  0
  7 13  1  0
  7  8  1  1
  9  8  1  0
 10 11  1  0
 10  9  1  0
 12 11  1  0
 13 17  1  0
 13 14  2  0
 16 15  1  6
 17 16  1  0
 18 16  1  0
 18 20  1  0
 19 18  2  0
M  END
$$$$
