AKA.pdb
     RDKit          3D

 20 19  0  0  1  0  0  0  0  0999 V2000
   22.6574  -10.8190  -20.3839 C   0  0  0  0  0  0  0  0  0  0  0  0
   23.1298  -10.4825  -18.9950 C   0  0  2  0  0  0  0  0  0  0  0  0
   23.0730  -11.6612  -18.1582 N   0  0  0  0  0  0  0  0  0  0  0  0
   22.3510   -9.3632  -18.4005 C   0  0  0  0  0  0  0  0  0  0  0  0
   22.4256   -8.2457  -18.9688 O   0  0  0  0  0  0  0  0  0  0  0  0
   21.5500   -9.4977  -17.2523 N   0  0  0  0  0  0  0  0  0  0  0  0
   20.7131   -8.4202  -16.7855 C   0  0  1  0  0  0  0  0  0  0  0  0
   19.5029   -8.9331  -16.0501 C   0  0  0  0  0  0  0  0  0  0  0  0
   18.4839   -7.8535  -15.7608 C   0  0  0  0  0  0  0  0  0  0  0  0
   17.2494   -8.3783  -15.1074 C   0  0  0  0  0  0  0  0  0  0  0  0
   16.2341   -7.2927  -14.8217 C   0  0  0  0  0  0  0  0  0  0  0  0
   15.0560   -7.7783  -14.1674 N   0  0  0  0  0  0  0  0  0  0  0  0
   21.4666   -7.5712  -15.8183 C   0  0  0  0  0  0  0  0  0  0  0  0
   22.0880   -8.0773  -14.8598 O   0  0  0  0  0  0  0  0  0  0  0  0
   22.3591   -3.9047  -15.7809 C   0  0  0  0  0  0  0  0  0  0  0  0
   22.3633   -5.3163  -15.2148 C   0  0  2  0  0  0  0  0  0  0  0  0
   21.4806   -6.1662  -15.9858 N   0  0  0  0  0  0  0  0  0  0  0  0
   21.9187   -5.2755  -13.7852 C   0  0  0  0  0  0  0  0  0  0  0  0
   20.7263   -5.5089  -13.4977 O   0  0  0  0  0  0  0  0  0  0  0  0
   22.8096   -4.9841  -12.7884 O   0  0  0  0  0  0  0  0  0  0  0  0
  2  1  1  6
  2  3  1  0
  2  4  1  0
  4  6  1  0
  5  4  2  0
  6  7  1  0
  7 13  1  0
  7  8  1  1
  9  8  1  0
 10 11  1  0
 10  9  1  0
 12 11  1  0
 13 17  1  0
 13 14  2  0
 16 15  1  6
 17 16  1  0
 18 16  1  0
 18 20  1  0
 19 18  2  0
M  END
$$$$
