AKA.pdb
     RDKit          3D

 20 19  0  0  1  0  0  0  0  0999 V2000
   16.6196  -11.8641  -14.8721 C   0  0  0  0  0  0  0  0  0  0  0  0
   16.7531  -10.3672  -14.7910 C   0  0  2  0  0  0  0  0  0  0  0  0
   15.9372   -9.7455  -15.8110 N   0  0  0  0  0  0  0  0  0  0  0  0
   18.1712   -9.9305  -14.8969 C   0  0  0  0  0  0  0  0  0  0  0  0
   18.9114  -10.1357  -13.9032 O   0  0  0  0  0  0  0  0  0  0  0  0
   18.7100   -9.3099  -16.0383 N   0  0  0  0  0  0  0  0  0  0  0  0
   20.0707   -8.8336  -16.0669 C   0  0  1  0  0  0  0  0  0  0  0  0
   20.6270   -8.8204  -17.4665 C   0  0  0  0  0  0  0  0  0  0  0  0
   22.0578   -8.3344  -17.5307 C   0  0  0  0  0  0  0  0  0  0  0  0
   22.6255   -8.3765  -18.9099 C   0  0  0  0  0  0  0  0  0  0  0  0
   24.0342   -7.8269  -18.9778 C   0  0  0  0  0  0  0  0  0  0  0  0
   24.5564   -7.7727  -20.3106 N   0  0  0  0  0  0  0  0  0  0  0  0
   20.1293   -7.4268  -15.5758 C   0  0  0  0  0  0  0  0  0  0  0  0
   19.3061   -6.5707  -15.9638 O   0  0  0  0  0  0  0  0  0  0  0  0
   21.8666   -5.7188  -12.7512 C   0  0  0  0  0  0  0  0  0  0  0  0
   21.2192   -5.7043  -14.1273 C   0  0  2  0  0  0  0  0  0  0  0  0
   21.1342   -7.0505  -14.6534 N   0  0  0  0  0  0  0  0  0  0  0  0
   22.0316   -4.8438  -15.0453 C   0  0  0  0  0  0  0  0  0  0  0  0
   22.1274   -3.6183  -14.8265 O   0  0  0  0  0  0  0  0  0  0  0  0
   22.6715   -5.3897  -16.1245 O   0  0  0  0  0  0  0  0  0  0  0  0
  2  1  1  6
  2  3  1  0
  2  4  1  0
  4  6  1  0
  5  4  2  0
  6  7  1  0
  7 13  1  0
  7  8  1  6
  9  8  1  0
 10 11  1  0
 10  9  1  0
 12 11  1  0
 13 17  1  0
 13 14  2  0
 16 15  1  1
 17 16  1  0
 18 16  1  0
 18 20  1  0
 19 18  2  0
M  END
$$$$
