AKA.pdb
     RDKit          3D

 20 19  0  0  1  0  0  0  0  0999 V2000
   25.1491  -25.9083  -16.7193 C   0  0  0  0  0  0  0  0  0  0  0  0
   24.6044  -24.6464  -16.1059 C   0  0  2  0  0  0  0  0  0  0  0  0
   25.2748  -24.3811  -14.8519 N   0  0  0  0  0  0  0  0  0  0  0  0
   23.1294  -24.7104  -15.9238 C   0  0  0  0  0  0  0  0  0  0  0  0
   22.4310  -24.8943  -16.9513 O   0  0  0  0  0  0  0  0  0  0  0  0
   22.4939  -24.5766  -14.6763 N   0  0  0  0  0  0  0  0  0  0  0  0
   21.0576  -24.6137  -14.5531 C   0  0  1  0  0  0  0  0  0  0  0  0
   20.6275  -25.0033  -13.1633 C   0  0  0  0  0  0  0  0  0  0  0  0
   20.6152  -26.4999  -12.9446 C   0  0  0  0  0  0  0  0  0  0  0  0
   20.2163  -26.8824  -11.5588 C   0  0  0  0  0  0  0  0  0  0  0  0
   20.1081  -28.3810  -11.3756 C   0  0  0  0  0  0  0  0  0  0  0  0
   19.7223  -28.7622  -10.0498 N   0  0  0  0  0  0  0  0  0  0  0  0
   20.4887  -23.2588  -14.8071 C   0  0  0  0  0  0  0  0  0  0  0  0
   20.9732  -22.2415  -14.2673 O   0  0  0  0  0  0  0  0  0  0  0  0
   18.6222  -21.6613  -17.4720 C   0  0  0  0  0  0  0  0  0  0  0  0
   18.8037  -21.8237  -15.9709 C   0  0  2  0  0  0  0  0  0  0  0  0
   19.3797  -23.1186  -15.6747 N   0  0  0  0  0  0  0  0  0  0  0  0
   17.4740  -21.6858  -15.2956 C   0  0  0  0  0  0  0  0  0  0  0  0
   16.8021  -22.7044  -15.0311 O   0  0  0  0  0  0  0  0  0  0  0  0
   16.9873  -20.4505  -14.9648 O   0  0  0  0  0  0  0  0  0  0  0  0
  2  1  1  1
  2  3  1  0
  2  4  1  0
  4  6  1  0
  5  4  2  0
  6  7  1  0
  7 13  1  0
  7  8  1  1
  9  8  1  0
 10 11  1  0
 10  9  1  0
 12 11  1  0
 13 17  1  0
 13 14  2  0
 16 15  1  6
 17 16  1  0
 18 16  1  0
 18 20  1  0
 19 18  2  0
M  END
$$$$
