AKA.pdb
     RDKit          3D

 20 19  0  0  1  0  0  0  0  0999 V2000
   15.0190   -6.1966  -16.5378 C   0  0  0  0  0  0  0  0  0  0  0  0
   15.7358   -7.4874  -16.8296 C   0  0  2  0  0  0  0  0  0  0  0  0
   14.9201   -8.6070  -16.4127 N   0  0  0  0  0  0  0  0  0  0  0  0
   17.0782   -7.5329  -16.1902 C   0  0  0  0  0  0  0  0  0  0  0  0
   17.1203   -7.4635  -14.9369 O   0  0  0  0  0  0  0  0  0  0  0  0
   18.2794   -7.6480  -16.9126 N   0  0  0  0  0  0  0  0  0  0  0  0
   19.5593   -7.6774  -16.2489 C   0  0  1  0  0  0  0  0  0  0  0  0
   20.5795   -8.4530  -17.0400 C   0  0  0  0  0  0  0  0  0  0  0  0
   20.3539   -9.9478  -16.9933 C   0  0  0  0  0  0  0  0  0  0  0  0
   21.3680  -10.7143  -17.7743 C   0  0  0  0  0  0  0  0  0  0  0  0
   21.2137  -12.2121  -17.6191 C   0  0  0  0  0  0  0  0  0  0  0  0
   22.2115  -12.9594  -18.3247 N   0  0  0  0  0  0  0  0  0  0  0  0
   20.0949   -6.2923  -16.1121 C   0  0  0  0  0  0  0  0  0  0  0  0
   20.1866   -5.5330  -17.1001 O   0  0  0  0  0  0  0  0  0  0  0  0
   20.0436   -3.5301  -14.1760 C   0  0  0  0  0  0  0  0  0  0  0  0
   21.0947   -4.5138  -14.6663 C   0  0  2  0  0  0  0  0  0  0  0  0
   20.5078   -5.8256  -14.8417 N   0  0  0  0  0  0  0  0  0  0  0  0
   22.2115   -4.5791  -13.6704 C   0  0  0  0  0  0  0  0  0  0  0  0
   22.3424   -5.5890  -12.9480 O   0  0  0  0  0  0  0  0  0  0  0  0
   23.0921   -3.5394  -13.5446 O   0  0  0  0  0  0  0  0  0  0  0  0
  2  1  1  1
  2  3  1  0
  2  4  1  0
  4  6  1  0
  5  4  2  0
  6  7  1  0
  7 13  1  0
  7  8  1  6
  9  8  1  0
 10 11  1  0
 10  9  1  0
 12 11  1  0
 13 17  1  0
 13 14  2  0
 16 15  1  1
 17 16  1  0
 18 16  1  0
 18 20  1  0
 19 18  2  0
M  END
$$$$
