AKA.pdb
     RDKit          3D

 20 19  0  0  1  0  0  0  0  0999 V2000
   21.5640   -8.3633  -14.0005 C   0  0  0  0  0  0  0  0  0  0  0  0
   20.4947   -9.3672  -14.3380 C   0  0  2  0  0  0  0  0  0  0  0  0
   20.4274   -9.5496  -15.7714 N   0  0  0  0  0  0  0  0  0  0  0  0
   19.1712   -8.9751  -13.7833 C   0  0  0  0  0  0  0  0  0  0  0  0
   18.4947   -8.1470  -14.4421 O   0  0  0  0  0  0  0  0  0  0  0  0
   18.6535   -9.4805  -12.5773 N   0  0  0  0  0  0  0  0  0  0  0  0
   17.3616   -9.0745  -12.0817 C   0  0  1  0  0  0  0  0  0  0  0  0
   16.6251  -10.2214  -11.4409 C   0  0  0  0  0  0  0  0  0  0  0  0
   15.2043   -9.8727  -11.0574 C   0  0  0  0  0  0  0  0  0  0  0  0
   14.4473  -11.0355  -10.5089 C   0  0  0  0  0  0  0  0  0  0  0  0
   13.0156  -10.6881  -10.1614 C   0  0  0  0  0  0  0  0  0  0  0  0
   12.2626  -11.8079   -9.6811 N   0  0  0  0  0  0  0  0  0  0  0  0
   17.5242   -8.0341  -11.0257 C   0  0  0  0  0  0  0  0  0  0  0  0
   18.2560   -8.2291  -10.0319 O   0  0  0  0  0  0  0  0  0  0  0  0
   16.3185   -4.4762  -10.6509 C   0  0  0  0  0  0  0  0  0  0  0  0
   16.9645   -5.7592  -10.1515 C   0  0  2  0  0  0  0  0  0  0  0  0
   16.8389   -6.8022  -11.1477 N   0  0  0  0  0  0  0  0  0  0  0  0
   16.3004   -6.1822   -8.8775 C   0  0  0  0  0  0  0  0  0  0  0  0
   16.6230   -5.6422   -7.7989 O   0  0  0  0  0  0  0  0  0  0  0  0
   15.3408   -7.1575   -8.8845 O   0  0  0  0  0  0  0  0  0  0  0  0
  2  1  1  6
  2  3  1  0
  2  4  1  0
  4  6  1  0
  5  4  2  0
  6  7  1  0
  7 13  1  0
  7  8  1  1
  9  8  1  0
 10 11  1  0
 10  9  1  0
 12 11  1  0
 13 17  1  0
 13 14  2  0
 16 15  1  6
 17 16  1  0
 18 16  1  0
 18 20  1  0
 19 18  2  0
M  END
$$$$
