IHD.pdb
     RDKit          3D

 27 27  0  0  1  0  0  0  0  0999 V2000
    6.5890  -11.7221   27.6922 C   0  0  0  0  0  0  0  0  0  0  0  0
    5.9277  -12.6498   26.6629 C   0  0  0  0  0  0  0  0  0  0  0  0
    6.9866  -13.4429   25.9650 C   0  0  2  0  0  0  0  0  0  0  0  0
    8.1011  -12.5355   25.4279 C   0  0  0  0  0  0  0  0  0  0  0  0
    6.4934  -14.3752   24.9084 C   0  0  2  0  0  0  0  0  0  0  0  0
    5.4681  -15.2054   25.5287 N   0  0  0  0  0  0  0  0  0  0  0  0
    7.5521  -15.2150   24.2946 C   0  0  0  0  0  0  0  0  0  0  0  0
    7.7800  -16.3878   24.6702 O   0  0  0  0  0  0  0  0  0  0  0  0
    8.3276  -14.6819   23.2570 N   0  0  0  0  0  0  0  0  0  0  0  0
    9.3380  -15.3855   22.5068 C   0  0  1  0  0  0  0  0  0  0  0  0
    9.6369  -14.5503   21.2875 C   0  0  0  0  0  0  0  0  0  0  0  0
    8.5002  -14.4681   20.3438 C   0  0  0  0  0  0  0  0  0  0  0  0
    7.8930  -13.3290   19.8735 C   0  0  0  0  0  0  0  0  0  0  0  0
    6.8791  -13.6594   19.0181 N   0  0  0  0  0  0  0  0  0  0  0  0
    6.8644  -15.0010   18.9637 C   0  0  0  0  0  0  0  0  0  0  0  0
    7.8292  -15.5013   19.7522 N   0  0  0  0  0  0  0  0  0  0  0  0
   10.5024  -15.7908   23.2877 C   0  0  0  0  0  0  0  0  0  0  0  0
   11.0457  -14.9392   24.0364 O   0  0  0  0  0  0  0  0  0  0  0  0
   11.0360  -17.0848   23.2380 N   0  0  0  0  0  0  0  0  0  0  0  0
   12.2250  -17.5018   23.9763 C   0  0  1  0  0  0  0  0  0  0  0  0
   12.2164  -19.0123   24.1507 C   0  0  0  0  0  0  0  0  0  0  0  0
   11.0665  -19.5332   24.8882 C   0  0  0  0  0  0  0  0  0  0  0  0
   10.9435  -19.1493   26.1036 O   0  0  0  0  0  0  0  0  0  0  0  0
   13.4515  -17.0024   23.3296 C   0  0  0  0  0  0  0  0  0  0  0  0
   14.6712  -17.2538   23.9977 O   0  0  0  0  0  0  0  0  0  0  0  0
   10.1104  -20.3850   24.4254 O   0  0  0  0  0  0  0  0  0  0  0  0
   13.5409  -16.3845   22.2644 O   0  0  0  0  0  0  0  0  0  0  0  0
  2  3  1  0
  2  1  1  0
  3  5  1  0
  3  4  1  6
  5  6  1  1
  7  5  1  0
  8  7  2  0
  9  7  1  0
 10  9  1  0
 10 11  1  6
 11 12  1  0
 12 13  2  0
 12 16  1  0
 13 14  1  0
 14 15  1  0
 16 15  2  0
 17 19  1  0
 17 10  1  0
 18 17  2  0
 20 19  1  0
 20 24  1  0
 20 21  1  6
 22 23  2  0
 22 21  1  0
 24 25  1  0
 26 22  1  0
 27 24  2  0
M  END
$$$$
