IHD.pdb
     RDKit          3D

 27 27  0  0  1  0  0  0  0  0999 V2000
    6.7395  -11.5163   27.3642 C   0  0  0  0  0  0  0  0  0  0  0  0
    6.1183  -12.5574   26.4219 C   0  0  0  0  0  0  0  0  0  0  0  0
    7.2017  -13.4292   25.8709 C   0  0  2  0  0  0  0  0  0  0  0  0
    8.3490  -12.5936   25.2884 C   0  0  0  0  0  0  0  0  0  0  0  0
    6.7505  -14.4742   24.9048 C   0  0  2  0  0  0  0  0  0  0  0  0
    5.6905  -15.2253   25.5662 N   0  0  0  0  0  0  0  0  0  0  0  0
    7.8297  -15.3816   24.4412 C   0  0  0  0  0  0  0  0  0  0  0  0
    8.0952  -16.4594   25.0210 O   0  0  0  0  0  0  0  0  0  0  0  0
    8.5816  -15.0248   23.3145 N   0  0  0  0  0  0  0  0  0  0  0  0
    9.5922  -15.8337   22.6794 C   0  0  1  0  0  0  0  0  0  0  0  0
    9.9223  -15.1687   21.3671 C   0  0  0  0  0  0  0  0  0  0  0  0
    8.7370  -14.9528   20.5081 C   0  0  0  0  0  0  0  0  0  0  0  0
    7.8530  -15.9040   20.0597 C   0  0  0  0  0  0  0  0  0  0  0  0
    6.8871  -15.3179   19.2899 N   0  0  0  0  0  0  0  0  0  0  0  0
    7.1787  -14.0074   19.2663 C   0  0  0  0  0  0  0  0  0  0  0  0
    8.2840  -13.7716   19.9911 N   0  0  0  0  0  0  0  0  0  0  0  0
   10.7383  -16.1494   23.5260 C   0  0  0  0  0  0  0  0  0  0  0  0
   11.4556  -15.2025   23.9382 O   0  0  0  0  0  0  0  0  0  0  0  0
   11.0693  -17.4586   23.8974 N   0  0  0  0  0  0  0  0  0  0  0  0
   12.2071  -17.7987   24.7472 C   0  0  1  0  0  0  0  0  0  0  0  0
   11.8906  -19.0500   25.5510 C   0  0  0  0  0  0  0  0  0  0  0  0
   10.7521  -18.9184   26.4588 C   0  0  0  0  0  0  0  0  0  0  0  0
   10.7362  -17.8828   27.2116 O   0  0  0  0  0  0  0  0  0  0  0  0
   13.4428  -17.9198   23.9533 C   0  0  0  0  0  0  0  0  0  0  0  0
   14.6599  -17.9549   24.6709 O   0  0  0  0  0  0  0  0  0  0  0  0
    9.7052  -19.7783   26.5942 O   0  0  0  0  0  0  0  0  0  0  0  0
   13.5422  -17.9942   22.7249 O   0  0  0  0  0  0  0  0  0  0  0  0
  2  3  1  0
  2  1  1  0
  3  5  1  0
  3  4  1  6
  5  6  1  1
  7  5  1  0
  8  7  2  0
  9  7  1  0
 10  9  1  0
 10 11  1  6
 11 12  1  0
 12 13  2  0
 12 16  1  0
 13 14  1  0
 14 15  1  0
 16 15  2  0
 17 19  1  0
 17 10  1  0
 18 17  2  0
 20 19  1  0
 20 24  1  0
 20 21  1  6
 22 23  2  0
 22 21  1  0
 24 25  1  0
 26 22  1  0
 27 24  2  0
M  END
$$$$
