IHD.pdb
     RDKit          3D

 27 27  0  0  1  0  0  0  0  0999 V2000
   10.9284  -15.5361   16.7015 C   0  0  0  0  0  0  0  0  0  0  0  0
   10.3171  -14.4914   17.6463 C   0  0  0  0  0  0  0  0  0  0  0  0
    8.8261  -14.6012   17.6012 C   0  0  2  0  0  0  0  0  0  0  0  0
    8.3006  -14.4822   16.1646 C   0  0  0  0  0  0  0  0  0  0  0  0
    8.0905  -13.6855   18.5226 C   0  0  2  0  0  0  0  0  0  0  0  0
    8.3762  -12.3269   18.0778 N   0  0  0  0  0  0  0  0  0  0  0  0
    8.4379  -13.8554   19.9556 C   0  0  0  0  0  0  0  0  0  0  0  0
    9.4006  -13.2570   20.4880 O   0  0  0  0  0  0  0  0  0  0  0  0
    7.6642  -14.7148   20.7461 N   0  0  0  0  0  0  0  0  0  0  0  0
    7.9354  -15.0819   22.1138 C   0  0  1  0  0  0  0  0  0  0  0  0
    6.6196  -15.4934   22.7243 C   0  0  0  0  0  0  0  0  0  0  0  0
    6.7394  -15.9182   24.1366 C   0  0  0  0  0  0  0  0  0  0  0  0
    6.8779  -17.2011   24.6082 C   0  0  0  0  0  0  0  0  0  0  0  0
    6.9582  -17.1909   25.9729 N   0  0  0  0  0  0  0  0  0  0  0  0
    6.8689  -15.9019   26.3383 C   0  0  0  0  0  0  0  0  0  0  0  0
    6.7373  -15.1262   25.2503 N   0  0  0  0  0  0  0  0  0  0  0  0
    9.0278  -16.0350   22.2818 C   0  0  0  0  0  0  0  0  0  0  0  0
    9.2664  -16.8412   21.3469 O   0  0  0  0  0  0  0  0  0  0  0  0
    9.8185  -16.0867   23.4366 N   0  0  0  0  0  0  0  0  0  0  0  0
   11.0463  -16.8698   23.5459 C   0  0  1  0  0  0  0  0  0  0  0  0
   12.1693  -16.1691   22.7977 C   0  0  0  0  0  0  0  0  0  0  0  0
   13.4760  -16.8139   22.9182 C   0  0  0  0  0  0  0  0  0  0  0  0
   13.5139  -18.0761   22.7060 O   0  0  0  0  0  0  0  0  0  0  0  0
   11.3753  -17.1439   24.9560 C   0  0  0  0  0  0  0  0  0  0  0  0
   10.4845  -16.6352   25.9282 O   0  0  0  0  0  0  0  0  0  0  0  0
   14.6597  -16.2198   23.2337 O   0  0  0  0  0  0  0  0  0  0  0  0
   12.3455  -17.7701   25.3931 O   0  0  0  0  0  0  0  0  0  0  0  0
  2  3  1  0
  2  1  1  0
  3  5  1  0
  3  4  1  6
  5  6  1  6
  7  5  1  0
  8  7  2  0
  9  7  1  0
 10  9  1  0
 10 11  1  6
 11 12  1  0
 12 13  2  0
 12 16  1  0
 13 14  1  0
 14 15  1  0
 16 15  2  0
 17 19  1  0
 17 10  1  0
 18 17  2  0
 20 19  1  0
 20 24  1  0
 20 21  1  1
 22 23  2  0
 22 21  1  0
 24 25  1  0
 26 22  1  0
 27 24  2  0
M  END
$$$$
