IHD.pdb
     RDKit          3D

 27 27  0  0  1  0  0  0  0  0999 V2000
    7.8664  -12.4454   23.8382 C   0  0  0  0  0  0  0  0  0  0  0  0
    7.3960  -13.5580   22.8902 C   0  0  0  0  0  0  0  0  0  0  0  0
    8.1275  -13.4379   21.5911 C   0  0  2  0  0  0  0  0  0  0  0  0
    7.7462  -12.1482   20.8525 C   0  0  0  0  0  0  0  0  0  0  0  0
    8.0286  -14.6248   20.6909 C   0  0  2  0  0  0  0  0  0  0  0  0
    6.6458  -14.6885   20.2336 N   0  0  0  0  0  0  0  0  0  0  0  0
    8.4345  -15.9046   21.3236 C   0  0  0  0  0  0  0  0  0  0  0  0
    7.6407  -16.8622   21.4695 O   0  0  0  0  0  0  0  0  0  0  0  0
    9.7519  -16.0525   21.7757 N   0  0  0  0  0  0  0  0  0  0  0  0
   10.3715  -17.2861   22.1919 C   0  0  1  0  0  0  0  0  0  0  0  0
   11.4888  -17.5635   21.2183 C   0  0  0  0  0  0  0  0  0  0  0  0
   12.2372  -18.8022   21.5267 C   0  0  0  0  0  0  0  0  0  0  0  0
   12.0112  -19.6709   22.5668 C   0  0  0  0  0  0  0  0  0  0  0  0
   12.9093  -20.7005   22.5188 N   0  0  0  0  0  0  0  0  0  0  0  0
   13.6860  -20.4633   21.4495 C   0  0  0  0  0  0  0  0  0  0  0  0
   13.2969  -19.3299   20.8439 N   0  0  0  0  0  0  0  0  0  0  0  0
   10.7450  -17.3328   23.6020 C   0  0  0  0  0  0  0  0  0  0  0  0
   11.4564  -16.4040   24.0627 O   0  0  0  0  0  0  0  0  0  0  0  0
   10.3437  -18.3651   24.4593 N   0  0  0  0  0  0  0  0  0  0  0  0
   10.6119  -18.3791   25.8947 C   0  0  1  0  0  0  0  0  0  0  0  0
    9.4613  -19.0542   26.6244 C   0  0  0  0  0  0  0  0  0  0  0  0
    8.1541  -18.4390   26.4006 C   0  0  0  0  0  0  0  0  0  0  0  0
    8.1411  -17.3493   25.7285 O   0  0  0  0  0  0  0  0  0  0  0  0
   11.9191  -18.9957   26.1826 C   0  0  0  0  0  0  0  0  0  0  0  0
   12.3551  -18.9657   27.5266 O   0  0  0  0  0  0  0  0  0  0  0  0
    6.9459  -18.8967   26.8304 O   0  0  0  0  0  0  0  0  0  0  0  0
   12.6859  -19.5396   25.3821 O   0  0  0  0  0  0  0  0  0  0  0  0
  2  3  1  0
  2  1  1  0
  3  5  1  0
  3  4  1  6
  5  6  1  1
  7  5  1  0
  8  7  2  0
  9  7  1  0
 10  9  1  0
 10 11  1  6
 11 12  1  0
 12 13  2  0
 12 16  1  0
 13 14  1  0
 14 15  1  0
 16 15  2  0
 17 19  1  0
 17 10  1  0
 18 17  2  0
 20 19  1  0
 20 24  1  0
 20 21  1  1
 22 23  2  0
 22 21  1  0
 24 25  1  0
 26 22  1  0
 27 24  2  0
M  END
$$$$
