IHD.pdb
     RDKit          3D

 27 27  0  0  1  0  0  0  0  0999 V2000
    8.5697  -16.4519   14.5234 C   0  0  0  0  0  0  0  0  0  0  0  0
    7.7717  -15.3506   15.2362 C   0  0  0  0  0  0  0  0  0  0  0  0
    8.3322  -15.1478   16.6081 C   0  0  2  0  0  0  0  0  0  0  0  0
    8.6735  -16.4866   17.2753 C   0  0  0  0  0  0  0  0  0  0  0  0
    7.5121  -14.2879   17.5118 C   0  0  2  0  0  0  0  0  0  0  0  0
    7.3518  -13.0057   16.8369 N   0  0  0  0  0  0  0  0  0  0  0  0
    8.0903  -14.1025   18.8662 C   0  0  0  0  0  0  0  0  0  0  0  0
    9.1957  -13.5442   19.0530 O   0  0  0  0  0  0  0  0  0  0  0  0
    7.3782  -14.5666   19.9795 N   0  0  0  0  0  0  0  0  0  0  0  0
    7.8549  -14.5914   21.3400 C   0  0  1  0  0  0  0  0  0  0  0  0
    6.6376  -14.5670   22.2294 C   0  0  0  0  0  0  0  0  0  0  0  0
    6.9665  -14.6377   23.6704 C   0  0  0  0  0  0  0  0  0  0  0  0
    7.3441  -13.5995   24.4871 C   0  0  0  0  0  0  0  0  0  0  0  0
    7.5623  -14.0592   25.7560 N   0  0  0  0  0  0  0  0  0  0  0  0
    7.3185  -15.3790   25.7175 C   0  0  0  0  0  0  0  0  0  0  0  0
    6.9605  -15.7420   24.4754 N   0  0  0  0  0  0  0  0  0  0  0  0
    8.8177  -15.6500   21.6271 C   0  0  0  0  0  0  0  0  0  0  0  0
    8.6357  -16.7804   21.1073 O   0  0  0  0  0  0  0  0  0  0  0  0
    9.9321  -15.4582   22.4535 N   0  0  0  0  0  0  0  0  0  0  0  0
   10.7980  -16.5404   22.9134 C   0  0  1  0  0  0  0  0  0  0  0  0
   12.2547  -16.1387   22.7432 C   0  0  0  0  0  0  0  0  0  0  0  0
   13.2191  -17.1528   23.1664 C   0  0  0  0  0  0  0  0  0  0  0  0
   13.0872  -18.3185   22.6532 O   0  0  0  0  0  0  0  0  0  0  0  0
   10.4652  -16.9338   24.2941 C   0  0  0  0  0  0  0  0  0  0  0  0
   10.4504  -18.3186   24.5756 O   0  0  0  0  0  0  0  0  0  0  0  0
   14.2434  -16.9952   24.0494 O   0  0  0  0  0  0  0  0  0  0  0  0
   10.1948  -16.1908   25.2425 O   0  0  0  0  0  0  0  0  0  0  0  0
  2  3  1  0
  2  1  1  0
  3  5  1  0
  3  4  1  1
  5  6  1  6
  7  5  1  0
  8  7  2  0
  9  7  1  0
 10  9  1  0
 10 11  1  1
 11 12  1  0
 12 13  2  0
 12 16  1  0
 13 14  1  0
 14 15  1  0
 16 15  2  0
 17 19  1  0
 17 10  1  0
 18 17  2  0
 20 19  1  0
 20 24  1  0
 20 21  1  1
 22 23  2  0
 22 21  1  0
 24 25  1  0
 26 22  1  0
 27 24  2  0
M  END
$$$$
