IHD.pdb
     RDKit          3D

 27 27  0  0  1  0  0  0  0  0999 V2000
    7.2217  -11.5544   20.4139 C   0  0  0  0  0  0  0  0  0  0  0  0
    7.3168  -12.5120   19.2173 C   0  0  0  0  0  0  0  0  0  0  0  0
    8.5727  -13.3165   19.3308 C   0  0  2  0  0  0  0  0  0  0  0  0
    9.8089  -12.4123   19.4222 C   0  0  0  0  0  0  0  0  0  0  0  0
    8.7512  -14.3713   18.2895 C   0  0  2  0  0  0  0  0  0  0  0  0
    7.4804  -15.0785   18.1887 N   0  0  0  0  0  0  0  0  0  0  0  0
    9.8611  -15.3175   18.5650 C   0  0  0  0  0  0  0  0  0  0  0  0
    9.7300  -16.3010   19.3292 O   0  0  0  0  0  0  0  0  0  0  0  0
   11.1023  -15.1079   17.9506 N   0  0  0  0  0  0  0  0  0  0  0  0
   12.2993  -15.8799   18.1740 C   0  0  1  0  0  0  0  0  0  0  0  0
   13.0237  -15.9538   16.8536 C   0  0  0  0  0  0  0  0  0  0  0  0
   12.3038  -16.7527   15.8373 C   0  0  0  0  0  0  0  0  0  0  0  0
   11.8297  -18.0349   15.9731 C   0  0  0  0  0  0  0  0  0  0  0  0
   11.2195  -18.4323   14.8161 N   0  0  0  0  0  0  0  0  0  0  0  0
   11.3194  -17.3939   13.9707 C   0  0  0  0  0  0  0  0  0  0  0  0
   11.9663  -16.3795   14.5667 N   0  0  0  0  0  0  0  0  0  0  0  0
   13.1065  -15.4356   19.3058 C   0  0  0  0  0  0  0  0  0  0  0  0
   12.8722  -14.3028   19.7987 O   0  0  0  0  0  0  0  0  0  0  0  0
   14.1262  -16.2170   19.8636 N   0  0  0  0  0  0  0  0  0  0  0  0
   14.5616  -16.1122   21.2535 C   0  0  1  0  0  0  0  0  0  0  0  0
   13.3840  -16.3693   22.1804 C   0  0  0  0  0  0  0  0  0  0  0  0
   13.7010  -16.2849   23.6051 C   0  0  0  0  0  0  0  0  0  0  0  0
   14.9061  -15.9746   23.9066 O   0  0  0  0  0  0  0  0  0  0  0  0
   15.7081  -16.9999   21.5171 C   0  0  0  0  0  0  0  0  0  0  0  0
   15.5711  -18.3506   21.1245 O   0  0  0  0  0  0  0  0  0  0  0  0
   12.8551  -16.5019   24.6496 O   0  0  0  0  0  0  0  0  0  0  0  0
   16.7835  -16.7015   22.0454 O   0  0  0  0  0  0  0  0  0  0  0  0
  2  3  1  0
  2  1  1  0
  3  5  1  0
  3  4  1  6
  5  6  1  1
  7  5  1  0
  8  7  2  0
  9  7  1  0
 10  9  1  0
 10 11  1  6
 11 12  1  0
 12 13  2  0
 12 16  1  0
 13 14  1  0
 14 15  1  0
 16 15  2  0
 17 19  1  0
 17 10  1  0
 18 17  2  0
 20 19  1  0
 20 24  1  0
 20 21  1  1
 22 23  2  0
 22 21  1  0
 24 25  1  0
 26 22  1  0
 27 24  2  0
M  END
$$$$
