IHD.pdb
     RDKit          3D

 27 27  0  0  1  0  0  0  0  0999 V2000
    7.9555  -11.4618   20.1041 C   0  0  0  0  0  0  0  0  0  0  0  0
    7.9332  -12.5954   19.0687 C   0  0  0  0  0  0  0  0  0  0  0  0
    8.5094  -13.8320   19.6820 C   0  0  2  0  0  0  0  0  0  0  0  0
    9.9019  -13.5673   20.2694 C   0  0  0  0  0  0  0  0  0  0  0  0
    8.5151  -15.0378   18.8018 C   0  0  2  0  0  0  0  0  0  0  0  0
    7.1542  -15.1989   18.3044 N   0  0  0  0  0  0  0  0  0  0  0  0
    8.9827  -16.2777   19.4703 C   0  0  0  0  0  0  0  0  0  0  0  0
    8.2684  -16.9144   20.2783 O   0  0  0  0  0  0  0  0  0  0  0  0
   10.2685  -16.7581   19.1911 N   0  0  0  0  0  0  0  0  0  0  0  0
   10.9085  -17.8840   19.8247 C   0  0  1  0  0  0  0  0  0  0  0  0
   11.2708  -18.8538   18.7286 C   0  0  0  0  0  0  0  0  0  0  0  0
   11.8384  -20.1225   19.2362 C   0  0  0  0  0  0  0  0  0  0  0  0
   12.0472  -20.4717   20.5484 C   0  0  0  0  0  0  0  0  0  0  0  0
   12.5878  -21.7254   20.6177 N   0  0  0  0  0  0  0  0  0  0  0  0
   12.7106  -22.1451   19.3482 C   0  0  0  0  0  0  0  0  0  0  0  0
   12.2663  -21.1968   18.5079 N   0  0  0  0  0  0  0  0  0  0  0  0
   11.9955  -17.5328   20.7331 C   0  0  0  0  0  0  0  0  0  0  0  0
   12.8308  -16.6701   20.3601 O   0  0  0  0  0  0  0  0  0  0  0  0
   12.1445  -18.1144   21.9984 N   0  0  0  0  0  0  0  0  0  0  0  0
   13.1859  -17.7349   22.9492 C   0  0  1  0  0  0  0  0  0  0  0  0
   13.4498  -16.2406   22.8509 C   0  0  0  0  0  0  0  0  0  0  0  0
   14.7404  -15.8880   22.2614 C   0  0  0  0  0  0  0  0  0  0  0  0
   15.5557  -16.8520   22.0484 O   0  0  0  0  0  0  0  0  0  0  0  0
   12.8411  -18.1716   24.3138 C   0  0  0  0  0  0  0  0  0  0  0  0
   12.5016  -17.1593   25.2397 O   0  0  0  0  0  0  0  0  0  0  0  0
   15.1733  -14.6445   21.9147 O   0  0  0  0  0  0  0  0  0  0  0  0
   12.8140  -19.3270   24.7485 O   0  0  0  0  0  0  0  0  0  0  0  0
  2  3  1  0
  2  1  1  0
  3  5  1  0
  3  4  1  6
  5  6  1  1
  7  5  1  0
  8  7  2  0
  9  7  1  0
 10  9  1  0
 10 11  1  6
 11 12  1  0
 12 13  2  0
 12 16  1  0
 13 14  1  0
 14 15  1  0
 16 15  2  0
 17 19  1  0
 17 10  1  0
 18 17  2  0
 20 19  1  0
 20 24  1  0
 20 21  1  1
 22 23  2  0
 22 21  1  0
 24 25  1  0
 26 22  1  0
 27 24  2  0
M  END
$$$$
