IHD.pdb
     RDKit          3D

 27 27  0  0  1  0  0  0  0  0999 V2000
    6.6615  -11.4042   27.5006 C   0  0  0  0  0  0  0  0  0  0  0  0
    6.0160  -12.3576   26.4847 C   0  0  0  0  0  0  0  0  0  0  0  0
    7.0633  -13.2751   25.9382 C   0  0  2  0  0  0  0  0  0  0  0  0
    8.3010  -12.4962   25.4737 C   0  0  0  0  0  0  0  0  0  0  0  0
    6.5947  -14.2224   24.8839 C   0  0  2  0  0  0  0  0  0  0  0  0
    5.4096  -14.8854   25.4144 N   0  0  0  0  0  0  0  0  0  0  0  0
    7.6123  -15.2177   24.4634 C   0  0  0  0  0  0  0  0  0  0  0  0
    7.7666  -16.3104   25.0555 O   0  0  0  0  0  0  0  0  0  0  0  0
    8.4325  -14.9300   23.3650 N   0  0  0  0  0  0  0  0  0  0  0  0
    9.4510  -15.7923   22.8192 C   0  0  1  0  0  0  0  0  0  0  0  0
    9.8587  -15.2011   21.4934 C   0  0  0  0  0  0  0  0  0  0  0  0
    8.7075  -14.8461   20.6343 C   0  0  0  0  0  0  0  0  0  0  0  0
    7.7076  -15.6819   20.1997 C   0  0  0  0  0  0  0  0  0  0  0  0
    6.8216  -14.9866   19.4248 N   0  0  0  0  0  0  0  0  0  0  0  0
    7.2780  -13.7245   19.3841 C   0  0  0  0  0  0  0  0  0  0  0  0
    8.4071  -13.6231   20.1035 N   0  0  0  0  0  0  0  0  0  0  0  0
   10.5480  -16.0915   23.7341 C   0  0  0  0  0  0  0  0  0  0  0  0
   10.8736  -15.2213   24.5814 O   0  0  0  0  0  0  0  0  0  0  0  0
   11.2488  -17.3038   23.7075 N   0  0  0  0  0  0  0  0  0  0  0  0
   11.8566  -17.9165   24.8854 C   0  0  1  0  0  0  0  0  0  0  0  0
   10.8069  -18.0915   25.9714 C   0  0  0  0  0  0  0  0  0  0  0  0
   11.2836  -18.7713   27.1749 C   0  0  0  0  0  0  0  0  0  0  0  0
   12.4954  -18.5432   27.5198 O   0  0  0  0  0  0  0  0  0  0  0  0
   12.5395  -19.1745   24.5346 C   0  0  0  0  0  0  0  0  0  0  0  0
   13.5333  -19.6307   25.4298 O   0  0  0  0  0  0  0  0  0  0  0  0
   10.5806  -19.6236   27.9705 O   0  0  0  0  0  0  0  0  0  0  0  0
   12.3453  -19.8832   23.5423 O   0  0  0  0  0  0  0  0  0  0  0  0
  2  3  1  0
  2  1  1  0
  3  5  1  0
  3  4  1  6
  5  6  1  1
  7  5  1  0
  8  7  2  0
  9  7  1  0
 10  9  1  0
 10 11  1  6
 11 12  1  0
 12 13  2  0
 12 16  1  0
 13 14  1  0
 14 15  1  0
 16 15  2  0
 17 19  1  0
 17 10  1  0
 18 17  2  0
 20 19  1  0
 20 24  1  0
 20 21  1  1
 22 23  2  0
 22 21  1  0
 24 25  1  0
 26 22  1  0
 27 24  2  0
M  END
$$$$
