IHD.pdb
     RDKit          3D

 27 27  0  0  1  0  0  0  0  0999 V2000
    7.5051  -11.9334   20.6580 C   0  0  0  0  0  0  0  0  0  0  0  0
    7.5419  -12.8071   19.3959 C   0  0  0  0  0  0  0  0  0  0  0  0
    8.8735  -13.4822   19.3046 C   0  0  2  0  0  0  0  0  0  0  0  0
   10.0215  -12.4708   19.4208 C   0  0  0  0  0  0  0  0  0  0  0  0
    9.0573  -14.3737   18.1214 C   0  0  2  0  0  0  0  0  0  0  0  0
    7.8617  -15.2032   18.0332 N   0  0  0  0  0  0  0  0  0  0  0  0
   10.2795  -15.2140   18.1758 C   0  0  0  0  0  0  0  0  0  0  0  0
   10.3806  -16.2024   18.9382 O   0  0  0  0  0  0  0  0  0  0  0  0
   11.3623  -14.8949   17.3465 N   0  0  0  0  0  0  0  0  0  0  0  0
   12.6487  -15.5461   17.3445 C   0  0  1  0  0  0  0  0  0  0  0  0
   13.2349  -15.3500   15.9692 C   0  0  0  0  0  0  0  0  0  0  0  0
   12.6755  -16.2755   14.9593 C   0  0  0  0  0  0  0  0  0  0  0  0
   11.9080  -17.3911   15.1911 C   0  0  0  0  0  0  0  0  0  0  0  0
   11.5808  -17.9875   14.0053 N   0  0  0  0  0  0  0  0  0  0  0  0
   12.1475  -17.2378   13.0463 C   0  0  0  0  0  0  0  0  0  0  0  0
   12.8072  -16.2081   13.6007 N   0  0  0  0  0  0  0  0  0  0  0  0
   13.5200  -15.1734   18.4544 C   0  0  0  0  0  0  0  0  0  0  0  0
   13.6922  -13.9513   18.6945 O   0  0  0  0  0  0  0  0  0  0  0  0
   14.1682  -16.1179   19.2602 N   0  0  0  0  0  0  0  0  0  0  0  0
   15.1595  -15.7752   20.2762 C   0  0  1  0  0  0  0  0  0  0  0  0
   14.5078  -15.7788   21.6500 C   0  0  0  0  0  0  0  0  0  0  0  0
   15.4227  -15.5107   22.7584 C   0  0  0  0  0  0  0  0  0  0  0  0
   16.2949  -14.5920   22.5720 O   0  0  0  0  0  0  0  0  0  0  0  0
   16.3327  -16.6631   20.1915 C   0  0  0  0  0  0  0  0  0  0  0  0
   17.5706  -16.1243   20.6093 O   0  0  0  0  0  0  0  0  0  0  0  0
   15.4514  -16.1326   23.9692 O   0  0  0  0  0  0  0  0  0  0  0  0
   16.3631  -17.8320   19.7948 O   0  0  0  0  0  0  0  0  0  0  0  0
  2  3  1  0
  2  1  1  0
  3  5  1  0
  3  4  1  6
  5  6  1  1
  7  5  1  0
  8  7  2  0
  9  7  1  0
 10  9  1  0
 10 11  1  6
 11 12  1  0
 12 13  2  0
 12 16  1  0
 13 14  1  0
 14 15  1  0
 16 15  2  0
 17 19  1  0
 17 10  1  0
 18 17  2  0
 20 19  1  0
 20 24  1  0
 20 21  1  1
 22 23  2  0
 22 21  1  0
 24 25  1  0
 26 22  1  0
 27 24  2  0
M  END
$$$$
