FYR.pdb
     RDKit          3D

 35 36  0  0  1  0  0  0  0  0999 V2000
   30.0950  -23.4418  -10.2402 N   0  0  0  0  0  0  0  0  0  0  0  0
   29.9006  -21.9837  -10.2180 C   0  0  1  0  0  0  0  0  0  0  0  0
   30.4045  -21.3737  -11.5088 C   0  0  0  0  0  0  0  0  0  0  0  0
   31.8333  -21.0317  -11.4021 C   0  0  0  0  0  0  0  0  0  0  0  0
   32.2847  -19.7877  -11.0161 C   0  0  0  0  0  0  0  0  0  0  0  0
   33.6363  -19.5365  -10.9375 C   0  0  0  0  0  0  0  0  0  0  0  0
   34.5811  -20.5131  -11.2396 C   0  0  0  0  0  0  0  0  0  0  0  0
   34.0977  -21.7422  -11.6211 C   0  0  0  0  0  0  0  0  0  0  0  0
   32.7560  -22.0379  -11.7138 C   0  0  0  0  0  0  0  0  0  0  0  0
   28.4579  -21.7351  -10.0507 C   0  0  0  0  0  0  0  0  0  0  0  0
   27.5915  -22.5969  -10.4339 O   0  0  0  0  0  0  0  0  0  0  0  0
   28.1914  -20.0756   -3.1208 O   0  0  0  0  0  0  0  0  0  0  0  0
   27.6945  -19.8583   -4.4070 C   0  0  0  0  0  0  0  0  0  0  0  0
   26.8594  -20.7872   -4.9964 C   0  0  0  0  0  0  0  0  0  0  0  0
   26.3501  -20.5889   -6.2839 C   0  0  0  0  0  0  0  0  0  0  0  0
   26.6619  -19.4608   -7.0121 C   0  0  0  0  0  0  0  0  0  0  0  0
   26.1260  -19.2386   -8.3834 C   0  0  0  0  0  0  0  0  0  0  0  0
   26.4851  -20.3460   -9.3255 C   0  0  2  0  0  0  0  0  0  0  0  0
   27.8924  -20.5692   -9.4734 N   0  0  0  0  0  0  0  0  0  0  0  0
   25.7857  -20.1084  -10.6127 C   0  0  0  0  0  0  0  0  0  0  0  0
   26.1222  -19.1437  -11.3193 O   0  0  0  0  0  0  0  0  0  0  0  0
   27.5008  -18.5388   -6.4063 C   0  0  0  0  0  0  0  0  0  0  0  0
   28.0038  -18.7327   -5.1365 C   0  0  0  0  0  0  0  0  0  0  0  0
   23.8318  -26.5175  -15.8872 N   0  0  0  0  0  0  0  0  0  0  0  0
   23.0596  -25.4914  -16.4848 C   0  0  0  0  0  0  0  0  0  0  0  0
   22.3650  -25.7766  -17.5297 N   0  0  0  0  0  0  0  0  0  0  0  0
   23.0557  -24.1918  -15.9352 N   0  0  0  0  0  0  0  0  0  0  0  0
   23.6826  -23.9176  -14.6785 C   0  0  0  0  0  0  0  0  0  0  0  0
   23.5829  -22.4997  -14.2149 C   0  0  0  0  0  0  0  0  0  0  0  0
   24.2984  -22.3013  -12.9141 C   0  0  0  0  0  0  0  0  0  0  0  0
   24.1511  -20.9214  -12.3166 C   0  0  2  0  0  0  0  0  0  0  0  0
   24.7552  -21.0009  -10.9859 N   0  0  0  0  0  0  0  0  0  0  0  0
   22.7741  -20.4562  -12.1928 C   0  0  0  0  0  0  0  0  0  0  0  0
   22.0707  -20.0244  -13.2948 O   0  0  0  0  0  0  0  0  0  0  0  0
   22.2048  -20.4409  -11.0753 O   0  0  0  0  0  0  0  0  0  0  0  0
  2  1  1  6
  2  3  1  0
  3  4  1  0
  4  9  1  0
  5  4  2  0
  5  6  1  0
  6  7  2  0
  7  8  1  0
  9  8  2  0
 10  2  1  0
 10 19  1  0
 11 10  2  0
 12 13  1  0
 13 14  2  0
 14 15  1  0
 16 17  1  0
 16 15  2  0
 18 17  1  1
 18 19  1  0
 18 20  1  0
 20 32  1  0
 21 20  2  0
 22 16  1  0
 23 22  2  0
 23 13  1  0
 25 24  1  0
 25 26  2  0
 27 25  1  0
 28 27  1  0
 29 28  1  0
 30 29  1  0
 31 30  1  1
 31 33  1  0
 32 31  1  0
 33 34  1  0
 35 33  2  0
M  END
$$$$
