FYR.pdb
     RDKit          3D

 35 36  0  0  1  0  0  0  0  0999 V2000
   28.3526  -25.3679  -16.3572 N   0  0  0  0  0  0  0  0  0  0  0  0
   27.4607  -25.5587  -17.5115 C   0  0  1  0  0  0  0  0  0  0  0  0
   26.7333  -26.8811  -17.3916 C   0  0  0  0  0  0  0  0  0  0  0  0
   27.6543  -28.0069  -17.6242 C   0  0  0  0  0  0  0  0  0  0  0  0
   28.2143  -28.7468  -16.6048 C   0  0  0  0  0  0  0  0  0  0  0  0
   29.0682  -29.7875  -16.8943 C   0  0  0  0  0  0  0  0  0  0  0  0
   29.3921  -30.1254  -18.2053 C   0  0  0  0  0  0  0  0  0  0  0  0
   28.8168  -29.3679  -19.1979 C   0  0  0  0  0  0  0  0  0  0  0  0
   27.9584  -28.3190  -18.9551 C   0  0  0  0  0  0  0  0  0  0  0  0
   26.5063  -24.4361  -17.5201 C   0  0  0  0  0  0  0  0  0  0  0  0
   25.8332  -24.1349  -16.4729 O   0  0  0  0  0  0  0  0  0  0  0  0
   21.4304  -17.4662  -19.5836 O   0  0  0  0  0  0  0  0  0  0  0  0
   22.4305  -18.4399  -19.5939 C   0  0  0  0  0  0  0  0  0  0  0  0
   23.4052  -18.4465  -18.6154 C   0  0  0  0  0  0  0  0  0  0  0  0
   24.4160  -19.4133  -18.6069 C   0  0  0  0  0  0  0  0  0  0  0  0
   24.4775  -20.3944  -19.5732 C   0  0  0  0  0  0  0  0  0  0  0  0
   25.5486  -21.4288  -19.5747 C   0  0  0  0  0  0  0  0  0  0  0  0
   25.2500  -22.5644  -18.6452 C   0  0  2  0  0  0  0  0  0  0  0  0
   26.2381  -23.6016  -18.6354 N   0  0  0  0  0  0  0  0  0  0  0  0
   23.8799  -23.0558  -18.9343 C   0  0  0  0  0  0  0  0  0  0  0  0
   23.7037  -23.8507  -19.8726 O   0  0  0  0  0  0  0  0  0  0  0  0
   23.4921  -20.3736  -20.5475 C   0  0  0  0  0  0  0  0  0  0  0  0
   22.4944  -19.4209  -20.5573 C   0  0  0  0  0  0  0  0  0  0  0  0
   20.6495  -25.1497  -13.8232 N   0  0  0  0  0  0  0  0  0  0  0  0
   19.2547  -24.9051  -13.8544 C   0  0  0  0  0  0  0  0  0  0  0  0
   18.6455  -24.6873  -12.7421 N   0  0  0  0  0  0  0  0  0  0  0  0
   18.5606  -24.8976  -15.0829 N   0  0  0  0  0  0  0  0  0  0  0  0
   19.2612  -24.8240  -16.3285 C   0  0  0  0  0  0  0  0  0  0  0  0
   19.3722  -23.4532  -16.9148 C   0  0  0  0  0  0  0  0  0  0  0  0
   20.7965  -22.9915  -16.9524 C   0  0  0  0  0  0  0  0  0  0  0  0
   21.4647  -23.1147  -18.3018 C   0  0  2  0  0  0  0  0  0  0  0  0
   22.8207  -22.5949  -18.1198 N   0  0  0  0  0  0  0  0  0  0  0  0
   20.8073  -22.3780  -19.3755 C   0  0  0  0  0  0  0  0  0  0  0  0
   20.0912  -23.0357  -20.3504 O   0  0  0  0  0  0  0  0  0  0  0  0
   20.8838  -21.1273  -19.4299 O   0  0  0  0  0  0  0  0  0  0  0  0
  2  1  1  1
  2  3  1  0
  3  4  1  0
  4  9  1  0
  5  4  2  0
  5  6  1  0
  6  7  2  0
  7  8  1  0
  9  8  2  0
 10  2  1  0
 10 19  1  0
 11 10  2  0
 12 13  1  0
 13 14  2  0
 14 15  1  0
 16 17  1  0
 16 15  2  0
 18 17  1  6
 18 19  1  0
 18 20  1  0
 20 32  1  0
 21 20  2  0
 22 16  1  0
 23 22  2  0
 23 13  1  0
 25 24  1  0
 25 26  2  0
 27 25  1  0
 28 27  1  0
 29 28  1  0
 30 29  1  0
 31 30  1  1
 31 33  1  0
 32 31  1  0
 33 34  1  0
 35 33  2  0
M  END
$$$$
