FYR.pdb
     RDKit          3D

 35 36  0  0  1  0  0  0  0  0999 V2000
   25.8324  -17.6221  -18.0892 N   0  0  0  0  0  0  0  0  0  0  0  0
   26.2585  -18.4267  -16.9336 C   0  0  1  0  0  0  0  0  0  0  0  0
   27.0068  -17.5580  -15.9448 C   0  0  0  0  0  0  0  0  0  0  0  0
   28.3404  -17.2069  -16.4627 C   0  0  0  0  0  0  0  0  0  0  0  0
   29.3368  -18.1359  -16.6731 C   0  0  0  0  0  0  0  0  0  0  0  0
   30.5617  -17.7376  -17.1601 C   0  0  0  0  0  0  0  0  0  0  0  0
   30.8345  -16.4044  -17.4532 C   0  0  0  0  0  0  0  0  0  0  0  0
   29.8196  -15.5039  -17.2320 C   0  0  0  0  0  0  0  0  0  0  0  0
   28.5803  -15.8567  -16.7464 C   0  0  0  0  0  0  0  0  0  0  0  0
   25.0441  -18.9911  -16.3190 C   0  0  0  0  0  0  0  0  0  0  0  0
   23.9897  -18.2797  -16.1684 O   0  0  0  0  0  0  0  0  0  0  0  0
   21.3569  -21.0448  -21.2592 O   0  0  0  0  0  0  0  0  0  0  0  0
   21.7906  -21.2979  -19.9568 C   0  0  0  0  0  0  0  0  0  0  0  0
   23.1287  -21.5253  -19.7009 C   0  0  0  0  0  0  0  0  0  0  0  0
   23.5845  -21.7804  -18.4034 C   0  0  0  0  0  0  0  0  0  0  0  0
   22.7169  -21.8144  -17.3328 C   0  0  0  0  0  0  0  0  0  0  0  0
   23.1902  -22.0848  -15.9471 C   0  0  0  0  0  0  0  0  0  0  0  0
   23.7138  -20.8558  -15.2701 C   0  0  2  0  0  0  0  0  0  0  0  0
   24.9114  -20.3224  -15.8475 N   0  0  0  0  0  0  0  0  0  0  0  0
   23.8324  -21.1380  -13.8180 C   0  0  0  0  0  0  0  0  0  0  0  0
   24.9294  -21.4909  -13.3541 O   0  0  0  0  0  0  0  0  0  0  0  0
   21.3780  -21.5840  -17.6066 C   0  0  0  0  0  0  0  0  0  0  0  0
   20.9268  -21.3322  -18.8857 C   0  0  0  0  0  0  0  0  0  0  0  0
   28.0613  -20.3566  -12.4842 N   0  0  0  0  0  0  0  0  0  0  0  0
   28.0040  -20.2875  -11.0706 C   0  0  0  0  0  0  0  0  0  0  0  0
   28.9897  -19.7489  -10.4428 N   0  0  0  0  0  0  0  0  0  0  0  0
   26.8847  -20.7957  -10.3779 N   0  0  0  0  0  0  0  0  0  0  0  0
   25.5799  -20.7776  -10.9651 C   0  0  0  0  0  0  0  0  0  0  0  0
   24.5945  -19.8744  -10.2955 C   0  0  0  0  0  0  0  0  0  0  0  0
   23.3242  -19.7764  -11.0830 C   0  0  0  0  0  0  0  0  0  0  0  0
   22.7718  -21.1002  -11.5575 C   0  0  2  0  0  0  0  0  0  0  0  0
   22.6794  -20.9900  -13.0139 N   0  0  0  0  0  0  0  0  0  0  0  0
   21.4606  -21.4410  -11.0166 C   0  0  0  0  0  0  0  0  0  0  0  0
   20.3702  -21.5897  -11.8440 O   0  0  0  0  0  0  0  0  0  0  0  0
   21.3030  -21.6045   -9.7832 O   0  0  0  0  0  0  0  0  0  0  0  0
  2  1  1  6
  2  3  1  0
  3  4  1  0
  4  9  1  0
  5  4  2  0
  5  6  1  0
  6  7  2  0
  7  8  1  0
  9  8  2  0
 10  2  1  0
 10 19  1  0
 11 10  2  0
 12 13  1  0
 13 14  2  0
 14 15  1  0
 16 17  1  0
 16 15  2  0
 18 17  1  6
 18 19  1  0
 18 20  1  0
 20 32  1  0
 21 20  2  0
 22 16  1  0
 23 22  2  0
 23 13  1  0
 25 24  1  0
 25 26  2  0
 27 25  1  0
 28 27  1  0
 29 28  1  0
 30 29  1  0
 31 30  1  1
 31 33  1  0
 32 31  1  0
 33 34  1  0
 35 33  2  0
M  END
$$$$
