FYR.pdb
     RDKit          3D

 35 36  0  0  1  0  0  0  0  0999 V2000
   24.2397  -13.0560  -16.1201 N   0  0  0  0  0  0  0  0  0  0  0  0
   24.6647  -14.4357  -16.4031 C   0  0  1  0  0  0  0  0  0  0  0  0
   25.8301  -14.8121  -15.5130 C   0  0  0  0  0  0  0  0  0  0  0  0
   27.0462  -14.0804  -15.9072 C   0  0  0  0  0  0  0  0  0  0  0  0
   27.7227  -14.3197  -17.0842 C   0  0  0  0  0  0  0  0  0  0  0  0
   28.8545  -13.5975  -17.3902 C   0  0  0  0  0  0  0  0  0  0  0  0
   29.3490  -12.6153  -16.5368 C   0  0  0  0  0  0  0  0  0  0  0  0
   28.6510  -12.4017  -15.3718 C   0  0  0  0  0  0  0  0  0  0  0  0
   27.5158  -13.0996  -15.0249 C   0  0  0  0  0  0  0  0  0  0  0  0
   23.5083  -15.3129  -16.1491 C   0  0  0  0  0  0  0  0  0  0  0  0
   22.9615  -15.3644  -14.9920 O   0  0  0  0  0  0  0  0  0  0  0  0
   16.3776  -20.5153  -16.7460 O   0  0  0  0  0  0  0  0  0  0  0  0
   17.4248  -19.6320  -17.0133 C   0  0  0  0  0  0  0  0  0  0  0  0
   18.4415  -19.9983  -17.8734 C   0  0  0  0  0  0  0  0  0  0  0  0
   19.5000  -19.1284  -18.1553 C   0  0  0  0  0  0  0  0  0  0  0  0
   19.5683  -17.8747  -17.5863 C   0  0  0  0  0  0  0  0  0  0  0  0
   20.6898  -16.9399  -17.8786 C   0  0  0  0  0  0  0  0  0  0  0  0
   21.7702  -16.9995  -16.8432 C   0  0  2  0  0  0  0  0  0  0  0  0
   22.8987  -16.1586  -17.1111 N   0  0  0  0  0  0  0  0  0  0  0  0
   22.1314  -18.4226  -16.6274 C   0  0  0  0  0  0  0  0  0  0  0  0
   22.9294  -18.9727  -17.4046 O   0  0  0  0  0  0  0  0  0  0  0  0
   18.5403  -17.5228  -16.7259 C   0  0  0  0  0  0  0  0  0  0  0  0
   17.4956  -18.3795  -16.4469 C   0  0  0  0  0  0  0  0  0  0  0  0
   23.3987  -24.8439  -13.9120 N   0  0  0  0  0  0  0  0  0  0  0  0
   24.4383  -24.6817  -14.8602 C   0  0  0  0  0  0  0  0  0  0  0  0
   25.1750  -25.6985  -15.1419 N   0  0  0  0  0  0  0  0  0  0  0  0
   24.6485  -23.4313  -15.4792 N   0  0  0  0  0  0  0  0  0  0  0  0
   24.8382  -22.2439  -14.7034 C   0  0  0  0  0  0  0  0  0  0  0  0
   23.6352  -21.7811  -13.9460 C   0  0  0  0  0  0  0  0  0  0  0  0
   23.1602  -20.4495  -14.4406 C   0  0  0  0  0  0  0  0  0  0  0  0
   21.8894  -20.4958  -15.2565 C   0  0  2  0  0  0  0  0  0  0  0  0
   21.5470  -19.1000  -15.5332 N   0  0  0  0  0  0  0  0  0  0  0  0
   20.7640  -21.1447  -14.5929 C   0  0  0  0  0  0  0  0  0  0  0  0
   20.6426  -22.5161  -14.5833 O   0  0  0  0  0  0  0  0  0  0  0  0
   19.8834  -20.4616  -14.0177 O   0  0  0  0  0  0  0  0  0  0  0  0
  2  1  1  1
  2  3  1  0
  3  4  1  0
  4  9  1  0
  5  4  2  0
  5  6  1  0
  6  7  2  0
  7  8  1  0
  9  8  2  0
 10  2  1  0
 10 19  1  0
 11 10  2  0
 12 13  1  0
 13 14  2  0
 14 15  1  0
 16 17  1  0
 16 15  2  0
 18 17  1  6
 18 19  1  0
 18 20  1  0
 20 32  1  0
 21 20  2  0
 22 16  1  0
 23 22  2  0
 23 13  1  0
 25 24  1  0
 25 26  2  0
 27 25  1  0
 28 27  1  0
 29 28  1  0
 30 29  1  0
 31 30  1  1
 31 33  1  0
 32 31  1  0
 33 34  1  0
 35 33  2  0
M  END
$$$$
