FYR.pdb
     RDKit          3D

 35 36  0  0  1  0  0  0  0  0999 V2000
   25.2016  -20.5535   -6.9680 N   0  0  0  0  0  0  0  0  0  0  0  0
   26.2812  -20.2686   -7.9259 C   0  0  1  0  0  0  0  0  0  0  0  0
   27.6081  -20.7342   -7.3650 C   0  0  0  0  0  0  0  0  0  0  0  0
   27.9687  -19.9597   -6.1650 C   0  0  0  0  0  0  0  0  0  0  0  0
   28.0212  -18.5824   -6.1434 C   0  0  0  0  0  0  0  0  0  0  0  0
   28.3660  -17.9218   -4.9855 C   0  0  0  0  0  0  0  0  0  0  0  0
   28.6693  -18.6088   -3.8135 C   0  0  0  0  0  0  0  0  0  0  0  0
   28.6076  -19.9811   -3.8691 C   0  0  0  0  0  0  0  0  0  0  0  0
   28.2681  -20.6831   -5.0040 C   0  0  0  0  0  0  0  0  0  0  0  0
   25.9615  -20.9836   -9.1740 C   0  0  0  0  0  0  0  0  0  0  0  0
   25.4735  -22.1676   -9.1492 O   0  0  0  0  0  0  0  0  0  0  0  0
   20.8414  -21.4150  -16.1857 O   0  0  0  0  0  0  0  0  0  0  0  0
   21.5839  -21.1813  -15.0271 C   0  0  0  0  0  0  0  0  0  0  0  0
   22.0450  -19.9113  -14.7405 C   0  0  0  0  0  0  0  0  0  0  0  0
   22.7903  -19.6552  -13.5849 C   0  0  0  0  0  0  0  0  0  0  0  0
   23.0924  -20.6591  -12.6899 C   0  0  0  0  0  0  0  0  0  0  0  0
   23.8850  -20.3990  -11.4564 C   0  0  0  0  0  0  0  0  0  0  0  0
   25.3213  -20.7967  -11.6036 C   0  0  2  0  0  0  0  0  0  0  0  0
   26.1486  -20.4664  -10.4816 N   0  0  0  0  0  0  0  0  0  0  0  0
   25.8258  -20.2551  -12.8898 C   0  0  0  0  0  0  0  0  0  0  0  0
   25.9332  -19.0257  -13.0323 O   0  0  0  0  0  0  0  0  0  0  0  0
   22.6223  -21.9274  -12.9922 C   0  0  0  0  0  0  0  0  0  0  0  0
   21.8870  -22.1816  -14.1314 C   0  0  0  0  0  0  0  0  0  0  0  0
   30.3581  -25.2488  -17.9955 N   0  0  0  0  0  0  0  0  0  0  0  0
   29.4889  -25.3659  -16.8833 C   0  0  0  0  0  0  0  0  0  0  0  0
   28.8738  -26.4814  -16.7009 N   0  0  0  0  0  0  0  0  0  0  0  0
   29.3134  -24.2800  -15.9995 N   0  0  0  0  0  0  0  0  0  0  0  0
   29.9903  -23.0371  -16.2105 C   0  0  0  0  0  0  0  0  0  0  0  0
   29.1250  -21.8206  -16.1278 C   0  0  0  0  0  0  0  0  0  0  0  0
   28.0454  -21.9898  -15.1034 C   0  0  0  0  0  0  0  0  0  0  0  0
   27.1288  -20.7986  -14.9497 C   0  0  2  0  0  0  0  0  0  0  0  0
   26.1683  -21.1713  -13.9102 N   0  0  0  0  0  0  0  0  0  0  0  0
   26.4064  -20.4268  -16.1612 C   0  0  0  0  0  0  0  0  0  0  0  0
   27.0512  -19.8077  -17.2083 O   0  0  0  0  0  0  0  0  0  0  0  0
   25.1798  -20.6651  -16.2701 O   0  0  0  0  0  0  0  0  0  0  0  0
  2  1  1  1
  2  3  1  0
  3  4  1  0
  4  9  1  0
  5  4  2  0
  5  6  1  0
  6  7  2  0
  7  8  1  0
  9  8  2  0
 10  2  1  0
 10 19  1  0
 11 10  2  0
 12 13  1  0
 13 14  2  0
 14 15  1  0
 16 17  1  0
 16 15  2  0
 18 17  1  1
 18 19  1  0
 18 20  1  0
 20 32  1  0
 21 20  2  0
 22 16  1  0
 23 22  2  0
 23 13  1  0
 25 24  1  0
 25 26  2  0
 27 25  1  0
 28 27  1  0
 29 28  1  0
 30 29  1  0
 31 30  1  6
 31 33  1  0
 32 31  1  0
 33 34  1  0
 35 33  2  0
M  END
$$$$
