FYR.pdb
     RDKit          3D

 35 36  0  0  1  0  0  0  0  0999 V2000
   28.7809  -19.5142  -11.5233 N   0  0  0  0  0  0  0  0  0  0  0  0
   28.0232  -20.7678  -11.6606 C   0  0  1  0  0  0  0  0  0  0  0  0
   28.0226  -21.5198  -10.3466 C   0  0  0  0  0  0  0  0  0  0  0  0
   29.3988  -21.7337   -9.8665 C   0  0  0  0  0  0  0  0  0  0  0  0
   29.8336  -21.3362   -8.6203 C   0  0  0  0  0  0  0  0  0  0  0  0
   31.1352  -21.5683   -8.2357 C   0  0  0  0  0  0  0  0  0  0  0  0
   32.0450  -22.2025   -9.0770 C   0  0  0  0  0  0  0  0  0  0  0  0
   31.5794  -22.5860  -10.3123 C   0  0  0  0  0  0  0  0  0  0  0  0
   30.2873  -22.3743  -10.7389 C   0  0  0  0  0  0  0  0  0  0  0  0
   26.6503  -20.4104  -12.0589 C   0  0  0  0  0  0  0  0  0  0  0  0
   25.9854  -19.5266  -11.4131 O   0  0  0  0  0  0  0  0  0  0  0  0
   28.0949  -15.6574  -16.0906 O   0  0  0  0  0  0  0  0  0  0  0  0
   27.2620  -16.7495  -15.8416 C   0  0  0  0  0  0  0  0  0  0  0  0
   26.0310  -16.5636  -15.2435 C   0  0  0  0  0  0  0  0  0  0  0  0
   25.1809  -17.6439  -14.9855 C   0  0  0  0  0  0  0  0  0  0  0  0
   25.5390  -18.9329  -15.3177 C   0  0  0  0  0  0  0  0  0  0  0  0
   24.6427  -20.0910  -15.0481 C   0  0  0  0  0  0  0  0  0  0  0  0
   24.6690  -20.5138  -13.6116 C   0  0  2  0  0  0  0  0  0  0  0  0
   25.9437  -20.9773  -13.1505 N   0  0  0  0  0  0  0  0  0  0  0  0
   23.5710  -21.4877  -13.3920 C   0  0  0  0  0  0  0  0  0  0  0  0
   23.7454  -22.6800  -13.6943 O   0  0  0  0  0  0  0  0  0  0  0  0
   26.7771  -19.1021  -15.9171 C   0  0  0  0  0  0  0  0  0  0  0  0
   27.6167  -18.0377  -16.1724 C   0  0  0  0  0  0  0  0  0  0  0  0
   17.1377  -23.8309   -8.6351 N   0  0  0  0  0  0  0  0  0  0  0  0
   18.3577  -23.7880   -7.9168 C   0  0  0  0  0  0  0  0  0  0  0  0
   18.5249  -24.6123   -6.9430 N   0  0  0  0  0  0  0  0  0  0  0  0
   19.3614  -22.8624   -8.2732 N   0  0  0  0  0  0  0  0  0  0  0  0
   19.1602  -21.9248   -9.3352 C   0  0  0  0  0  0  0  0  0  0  0  0
   19.6143  -22.3850  -10.6833 C   0  0  0  0  0  0  0  0  0  0  0  0
   20.6974  -21.5023  -11.2230 C   0  0  0  0  0  0  0  0  0  0  0  0
   21.2616  -21.9380  -12.5551 C   0  0  2  0  0  0  0  0  0  0  0  0
   22.3594  -21.0130  -12.8402 N   0  0  0  0  0  0  0  0  0  0  0  0
   20.3082  -21.9077  -13.6586 C   0  0  0  0  0  0  0  0  0  0  0  0
   19.5879  -23.0294  -14.0031 O   0  0  0  0  0  0  0  0  0  0  0  0
   20.1277  -20.8550  -14.3161 O   0  0  0  0  0  0  0  0  0  0  0  0
  2  1  1  1
  2  3  1  0
  3  4  1  0
  4  9  1  0
  5  4  2  0
  5  6  1  0
  6  7  2  0
  7  8  1  0
  9  8  2  0
 10  2  1  0
 10 19  1  0
 11 10  2  0
 12 13  1  0
 13 14  2  0
 14 15  1  0
 16 17  1  0
 16 15  2  0
 18 17  1  6
 18 19  1  0
 18 20  1  0
 20 32  1  0
 21 20  2  0
 22 16  1  0
 23 22  2  0
 23 13  1  0
 25 24  1  0
 25 26  2  0
 27 25  1  0
 28 27  1  0
 29 28  1  0
 30 29  1  0
 31 30  1  1
 31 33  1  0
 32 31  1  0
 33 34  1  0
 35 33  2  0
M  END
$$$$
