FYR.pdb
     RDKit          3D

 35 36  0  0  1  0  0  0  0  0999 V2000
   29.4808  -22.3807  -13.3061 N   0  0  0  0  0  0  0  0  0  0  0  0
   28.5212  -21.9677  -12.2703 C   0  0  1  0  0  0  0  0  0  0  0  0
   29.0434  -20.7516  -11.5351 C   0  0  0  0  0  0  0  0  0  0  0  0
   29.9510  -21.1496  -10.4453 C   0  0  0  0  0  0  0  0  0  0  0  0
   29.5074  -21.5899   -9.2167 C   0  0  0  0  0  0  0  0  0  0  0  0
   30.4124  -21.9466   -8.2421 C   0  0  0  0  0  0  0  0  0  0  0  0
   31.7859  -21.8771   -8.4579 C   0  0  0  0  0  0  0  0  0  0  0  0
   32.1947  -21.4341   -9.6935 C   0  0  0  0  0  0  0  0  0  0  0  0
   31.3261  -21.0669  -10.6969 C   0  0  0  0  0  0  0  0  0  0  0  0
   27.2482  -21.6629  -12.9467 C   0  0  0  0  0  0  0  0  0  0  0  0
   27.2301  -21.2059  -14.1431 O   0  0  0  0  0  0  0  0  0  0  0  0
   19.3599  -23.8543  -16.1173 O   0  0  0  0  0  0  0  0  0  0  0  0
   20.5144  -23.7223  -15.3439 C   0  0  0  0  0  0  0  0  0  0  0  0
   20.4198  -23.4371  -13.9958 C   0  0  0  0  0  0  0  0  0  0  0  0
   21.5638  -23.3011  -13.2026 C   0  0  0  0  0  0  0  0  0  0  0  0
   22.8268  -23.4463  -13.7355 C   0  0  0  0  0  0  0  0  0  0  0  0
   24.0520  -23.3038  -12.9014 C   0  0  0  0  0  0  0  0  0  0  0  0
   24.7596  -22.0055  -13.1393 C   0  0  2  0  0  0  0  0  0  0  0  0
   25.9603  -21.8333  -12.3770 N   0  0  0  0  0  0  0  0  0  0  0  0
   23.7829  -20.9026  -12.9612 C   0  0  0  0  0  0  0  0  0  0  0  0
   23.3775  -20.6270  -11.8197 O   0  0  0  0  0  0  0  0  0  0  0  0
   22.9040  -23.7323  -15.0894 C   0  0  0  0  0  0  0  0  0  0  0  0
   21.7768  -23.8669  -15.8731 C   0  0  0  0  0  0  0  0  0  0  0  0
   20.9992  -14.4798  -15.9979 N   0  0  0  0  0  0  0  0  0  0  0  0
   19.8128  -14.9969  -16.5736 C   0  0  0  0  0  0  0  0  0  0  0  0
   18.7390  -14.2915  -16.5024 N   0  0  0  0  0  0  0  0  0  0  0  0
   19.8213  -16.2551  -17.2123 N   0  0  0  0  0  0  0  0  0  0  0  0
   20.8702  -17.1989  -16.9746 C   0  0  0  0  0  0  0  0  0  0  0  0
   20.9936  -17.6685  -15.5606 C   0  0  0  0  0  0  0  0  0  0  0  0
   22.0838  -18.6857  -15.4186 C   0  0  0  0  0  0  0  0  0  0  0  0
   22.2375  -19.2564  -14.0280 C   0  0  2  0  0  0  0  0  0  0  0  0
   23.3510  -20.2026  -14.1106 N   0  0  0  0  0  0  0  0  0  0  0  0
   21.0569  -19.9460  -13.5198 C   0  0  0  0  0  0  0  0  0  0  0  0
   20.5921  -21.0929  -14.1233 O   0  0  0  0  0  0  0  0  0  0  0  0
   20.4416  -19.5038  -12.5203 O   0  0  0  0  0  0  0  0  0  0  0  0
  2  1  1  6
  2  3  1  0
  3  4  1  0
  4  9  1  0
  5  4  2  0
  5  6  1  0
  6  7  2  0
  7  8  1  0
  9  8  2  0
 10  2  1  0
 10 19  1  0
 11 10  2  0
 12 13  1  0
 13 14  2  0
 14 15  1  0
 16 17  1  0
 16 15  2  0
 18 17  1  1
 18 19  1  0
 18 20  1  0
 20 32  1  0
 21 20  2  0
 22 16  1  0
 23 22  2  0
 23 13  1  0
 25 24  1  0
 25 26  2  0
 27 25  1  0
 28 27  1  0
 29 28  1  0
 30 29  1  0
 31 30  1  6
 31 33  1  0
 32 31  1  0
 33 34  1  0
 35 33  2  0
M  END
$$$$
