FYR.pdb
     RDKit          3D

 35 36  0  0  1  0  0  0  0  0999 V2000
   28.8994  -21.1786   -8.8376 N   0  0  0  0  0  0  0  0  0  0  0  0
   27.4397  -20.9956   -8.8291 C   0  0  1  0  0  0  0  0  0  0  0  0
   27.0781  -19.7493   -8.0493 C   0  0  0  0  0  0  0  0  0  0  0  0
   27.4701  -19.8852   -6.6358 C   0  0  0  0  0  0  0  0  0  0  0  0
   26.8628  -20.7649   -5.7655 C   0  0  0  0  0  0  0  0  0  0  0  0
   27.2802  -20.8404   -4.4555 C   0  0  0  0  0  0  0  0  0  0  0  0
   28.3139  -20.0446   -3.9697 C   0  0  0  0  0  0  0  0  0  0  0  0
   28.8980  -19.1784   -4.8633 C   0  0  0  0  0  0  0  0  0  0  0  0
   28.5132  -19.0691   -6.1810 C   0  0  0  0  0  0  0  0  0  0  0  0
   27.0028  -20.8797  -10.2315 C   0  0  0  0  0  0  0  0  0  0  0  0
   27.8457  -20.9550  -11.1930 O   0  0  0  0  0  0  0  0  0  0  0  0
   23.8394  -23.9260  -17.5626 O   0  0  0  0  0  0  0  0  0  0  0  0
   24.2066  -23.5971  -16.2567 C   0  0  0  0  0  0  0  0  0  0  0  0
   25.4015  -22.9489  -16.0124 C   0  0  0  0  0  0  0  0  0  0  0  0
   25.7885  -22.6098  -14.7118 C   0  0  0  0  0  0  0  0  0  0  0  0
   24.9933  -22.9093  -13.6264 C   0  0  0  0  0  0  0  0  0  0  0  0
   25.3944  -22.5536  -12.2373 C   0  0  0  0  0  0  0  0  0  0  0  0
   25.1487  -21.1103  -11.9216 C   0  0  2  0  0  0  0  0  0  0  0  0
   25.6636  -20.6817  -10.6553 N   0  0  0  0  0  0  0  0  0  0  0  0
   23.7008  -20.8351  -12.0947 C   0  0  0  0  0  0  0  0  0  0  0  0
   22.8935  -21.2739  -11.2587 O   0  0  0  0  0  0  0  0  0  0  0  0
   23.7979  -23.5597  -13.8889 C   0  0  0  0  0  0  0  0  0  0  0  0
   23.4147  -23.8947  -15.1710 C   0  0  0  0  0  0  0  0  0  0  0  0
   25.5666  -16.2834  -17.1630 N   0  0  0  0  0  0  0  0  0  0  0  0
   25.1872  -15.5142  -16.0358 C   0  0  0  0  0  0  0  0  0  0  0  0
   25.8456  -14.4392  -15.7775 N   0  0  0  0  0  0  0  0  0  0  0  0
   24.1073  -15.9240  -15.2253 N   0  0  0  0  0  0  0  0  0  0  0  0
   23.4864  -17.2000  -15.4090 C   0  0  0  0  0  0  0  0  0  0  0  0
   22.3249  -17.4766  -14.5091 C   0  0  0  0  0  0  0  0  0  0  0  0
   21.8425  -18.8864  -14.6617 C   0  0  0  0  0  0  0  0  0  0  0  0
   21.8903  -19.7104  -13.3962 C   0  0  2  0  0  0  0  0  0  0  0  0
   23.2962  -20.0750  -13.2157 N   0  0  0  0  0  0  0  0  0  0  0  0
   21.0794  -20.9225  -13.4288 C   0  0  0  0  0  0  0  0  0  0  0  0
   21.3469  -21.9296  -14.3287 O   0  0  0  0  0  0  0  0  0  0  0  0
   20.1197  -21.0686  -12.6345 O   0  0  0  0  0  0  0  0  0  0  0  0
  2  1  1  6
  2  3  1  0
  3  4  1  0
  4  9  1  0
  5  4  2  0
  5  6  1  0
  6  7  2  0
  7  8  1  0
  9  8  2  0
 10  2  1  0
 10 19  1  0
 11 10  2  0
 12 13  1  0
 13 14  2  0
 14 15  1  0
 16 17  1  0
 16 15  2  0
 18 17  1  1
 18 19  1  0
 18 20  1  0
 20 32  1  0
 21 20  2  0
 22 16  1  0
 23 22  2  0
 23 13  1  0
 25 24  1  0
 25 26  2  0
 27 25  1  0
 28 27  1  0
 29 28  1  0
 30 29  1  0
 31 30  1  6
 31 33  1  0
 32 31  1  0
 33 34  1  0
 35 33  2  0
M  END
$$$$
