FYR.pdb
     RDKit          3D

 35 36  0  0  1  0  0  0  0  0999 V2000
   25.3072   -1.3715   -3.1234 N   0  0  0  0  0  0  0  0  0  0  0  0
   24.7884    0.0032   -3.1964 C   0  0  1  0  0  0  0  0  0  0  0  0
   25.5731    0.9035   -2.2658 C   0  0  0  0  0  0  0  0  0  0  0  0
   25.4660    0.4358   -0.8731 C   0  0  0  0  0  0  0  0  0  0  0  0
   24.2920    0.4762   -0.1517 C   0  0  0  0  0  0  0  0  0  0  0  0
   24.2631    0.0217    1.1478 C   0  0  0  0  0  0  0  0  0  0  0  0
   25.3993   -0.4869    1.7707 C   0  0  0  0  0  0  0  0  0  0  0  0
   26.5531   -0.5131    1.0237 C   0  0  0  0  0  0  0  0  0  0  0  0
   26.6284   -0.0694   -0.2777 C   0  0  0  0  0  0  0  0  0  0  0  0
   24.9237    0.4507   -4.5937 C   0  0  0  0  0  0  0  0  0  0  0  0
   25.9130    0.0728   -5.3142 O   0  0  0  0  0  0  0  0  0  0  0  0
   23.5754    2.6445  -12.9887 O   0  0  0  0  0  0  0  0  0  0  0  0
   23.4048    2.3667  -11.6314 C   0  0  0  0  0  0  0  0  0  0  0  0
   22.8181    3.2996  -10.7988 C   0  0  0  0  0  0  0  0  0  0  0  0
   22.6373    3.0415   -9.4360 C   0  0  0  0  0  0  0  0  0  0  0  0
   23.0371    1.8483   -8.8734 C   0  0  0  0  0  0  0  0  0  0  0  0
   22.8500    1.5619   -7.4242 C   0  0  0  0  0  0  0  0  0  0  0  0
   24.1268    1.6707   -6.6490 C   0  0  2  0  0  0  0  0  0  0  0  0
   24.0171    1.3091   -5.2671 N   0  0  0  0  0  0  0  0  0  0  0  0
   24.6876    3.0280   -6.8621 C   0  0  0  0  0  0  0  0  0  0  0  0
   24.2091    3.9893   -6.2375 O   0  0  0  0  0  0  0  0  0  0  0  0
   23.6238    0.9232   -9.7225 C   0  0  0  0  0  0  0  0  0  0  0  0
   23.8027    1.1762  -11.0668 C   0  0  0  0  0  0  0  0  0  0  0  0
   33.0673    4.4109   -8.1397 N   0  0  0  0  0  0  0  0  0  0  0  0
   32.5748    5.7359   -8.2301 C   0  0  0  0  0  0  0  0  0  0  0  0
   33.4224    6.7006   -8.3109 N   0  0  0  0  0  0  0  0  0  0  0  0
   31.1851    5.9799   -8.2360 N   0  0  0  0  0  0  0  0  0  0  0  0
   30.2477    4.9278   -7.9868 C   0  0  0  0  0  0  0  0  0  0  0  0
   28.8090    5.3261   -8.0696 C   0  0  0  0  0  0  0  0  0  0  0  0
   27.9063    4.1685   -7.7716 C   0  0  0  0  0  0  0  0  0  0  0  0
   26.4324    4.4605   -7.9299 C   0  0  2  0  0  0  0  0  0  0  0  0
   25.7561    3.1717   -7.7762 N   0  0  0  0  0  0  0  0  0  0  0  0
   26.0631    5.0475   -9.2132 C   0  0  0  0  0  0  0  0  0  0  0  0
   26.1946    6.3996   -9.4374 O   0  0  0  0  0  0  0  0  0  0  0  0
   25.6168    4.3277  -10.1383 O   0  0  0  0  0  0  0  0  0  0  0  0
  2  1  1  6
  2  3  1  0
  3  4  1  0
  4  9  1  0
  5  4  2  0
  5  6  1  0
  6  7  2  0
  7  8  1  0
  9  8  2  0
 10  2  1  0
 10 19  1  0
 11 10  2  0
 12 13  1  0
 13 14  2  0
 14 15  1  0
 16 17  1  0
 16 15  2  0
 18 17  1  1
 18 19  1  0
 18 20  1  0
 20 32  1  0
 21 20  2  0
 22 16  1  0
 23 22  2  0
 23 13  1  0
 25 24  1  0
 25 26  2  0
 27 25  1  0
 28 27  1  0
 29 28  1  0
 30 29  1  0
 31 30  1  6
 31 33  1  0
 32 31  1  0
 33 34  1  0
 35 33  2  0
M  END
$$$$
