FYR.pdb
     RDKit          3D

 35 36  0  0  1  0  0  0  0  0999 V2000
   17.9466   -8.8311  -12.6323 N   0  0  0  0  0  0  0  0  0  0  0  0
   18.4112   -8.0202  -11.4962 C   0  0  1  0  0  0  0  0  0  0  0  0
   19.5544   -7.1272  -11.9297 C   0  0  0  0  0  0  0  0  0  0  0  0
   20.7486   -7.9271  -12.2525 C   0  0  0  0  0  0  0  0  0  0  0  0
   21.4013   -8.7151  -11.3288 C   0  0  0  0  0  0  0  0  0  0  0  0
   22.5133   -9.4378  -11.6994 C   0  0  0  0  0  0  0  0  0  0  0  0
   23.0111   -9.4000  -12.9988 C   0  0  0  0  0  0  0  0  0  0  0  0
   22.3372   -8.6046  -13.8949 C   0  0  0  0  0  0  0  0  0  0  0  0
   21.2222   -7.8652  -13.5688 C   0  0  0  0  0  0  0  0  0  0  0  0
   17.2667   -7.2161  -11.0328 C   0  0  0  0  0  0  0  0  0  0  0  0
   16.3759   -6.8021  -11.8546 O   0  0  0  0  0  0  0  0  0  0  0  0
   11.9226  -11.0643  -10.2911 O   0  0  0  0  0  0  0  0  0  0  0  0
   12.7042  -10.0269   -9.7800 C   0  0  0  0  0  0  0  0  0  0  0  0
   12.1254   -8.8168   -9.4508 C   0  0  0  0  0  0  0  0  0  0  0  0
   12.8901   -7.7644   -8.9370 C   0  0  0  0  0  0  0  0  0  0  0  0
   14.2481   -7.8949   -8.7400 C   0  0  0  0  0  0  0  0  0  0  0  0
   15.0727   -6.7819   -8.1937 C   0  0  0  0  0  0  0  0  0  0  0  0
   15.8822   -6.0960   -9.2507 C   0  0  2  0  0  0  0  0  0  0  0  0
   17.0330   -6.8283   -9.6884 N   0  0  0  0  0  0  0  0  0  0  0  0
   16.1981   -4.7247   -8.7797 C   0  0  0  0  0  0  0  0  0  0  0  0
   17.2937   -4.5048   -8.2369 O   0  0  0  0  0  0  0  0  0  0  0  0
   14.8132   -9.1152   -9.0752 C   0  0  0  0  0  0  0  0  0  0  0  0
   14.0604  -10.1542   -9.5820 C   0  0  0  0  0  0  0  0  0  0  0  0
   20.6754    0.8531   -7.7771 N   0  0  0  0  0  0  0  0  0  0  0  0
   19.4718    1.5512   -7.5120 C   0  0  0  0  0  0  0  0  0  0  0  0
   19.5259    2.6130   -6.7871 N   0  0  0  0  0  0  0  0  0  0  0  0
   18.2485    1.0868   -8.0402 N   0  0  0  0  0  0  0  0  0  0  0  0
   18.1920   -0.0901   -8.8521 C   0  0  0  0  0  0  0  0  0  0  0  0
   16.8569   -0.3789   -9.4599 C   0  0  0  0  0  0  0  0  0  0  0  0
   16.5912   -1.8520   -9.5139 C   0  0  0  0  0  0  0  0  0  0  0  0
   15.5086   -2.3331   -8.5761 C   0  0  2  0  0  0  0  0  0  0  0  0
   15.2288   -3.7140   -8.9718 N   0  0  0  0  0  0  0  0  0  0  0  0
   14.2733   -1.5588   -8.6252 C   0  0  0  0  0  0  0  0  0  0  0  0
   14.0765   -0.4855   -7.7857 O   0  0  0  0  0  0  0  0  0  0  0  0
   13.3649   -1.8592   -9.4361 O   0  0  0  0  0  0  0  0  0  0  0  0
  2  1  1  6
  2  3  1  0
  3  4  1  0
  4  9  1  0
  5  4  2  0
  5  6  1  0
  6  7  2  0
  7  8  1  0
  9  8  2  0
 10  2  1  0
 10 19  1  0
 11 10  2  0
 12 13  1  0
 13 14  2  0
 14 15  1  0
 16 17  1  0
 16 15  2  0
 18 17  1  1
 18 19  1  0
 18 20  1  0
 20 32  1  0
 21 20  2  0
 22 16  1  0
 23 22  2  0
 23 13  1  0
 25 24  1  0
 25 26  2  0
 27 25  1  0
 28 27  1  0
 29 28  1  0
 30 29  1  0
 31 30  1  6
 31 33  1  0
 32 31  1  0
 33 34  1  0
 35 33  2  0
M  END
$$$$
