YAD.pdb
     RDKit          3D

 26 26  0  0  1  0  0  0  0  0999 V2000
    5.9396  -10.5339   27.5228 O   0  0  0  0  0  0  0  0  0  0  0  0
    6.4943  -11.6965   26.9959 C   0  0  0  0  0  0  0  0  0  0  0  0
    7.8070  -11.7715   26.5817 C   0  0  0  0  0  0  0  0  0  0  0  0
    8.3487  -12.9264   26.0610 C   0  0  0  0  0  0  0  0  0  0  0  0
    7.5721  -14.0724   25.9358 C   0  0  0  0  0  0  0  0  0  0  0  0
    8.1061  -15.3195   25.3888 C   0  0  0  0  0  0  0  0  0  0  0  0
    7.2590  -15.8681   24.2608 C   0  0  2  0  0  0  0  0  0  0  0  0
    6.2309  -16.7507   24.7918 N   0  0  0  0  0  0  0  0  0  0  0  0
    8.0692  -16.6361   23.3046 C   0  0  0  0  0  0  0  0  0  0  0  0
    8.1668  -17.8893   23.3589 O   0  0  0  0  0  0  0  0  0  0  0  0
    6.2562  -14.0145   26.3457 C   0  0  0  0  0  0  0  0  0  0  0  0
    5.7285  -12.8517   26.8646 C   0  0  0  0  0  0  0  0  0  0  0  0
    9.8410  -15.9306   20.0334 C   0  0  0  0  0  0  0  0  0  0  0  0
    9.5561  -16.7420   21.2926 C   0  0  2  0  0  0  0  0  0  0  0  0
    8.7991  -15.9899   22.2478 N   0  0  0  0  0  0  0  0  0  0  0  0
   10.8298  -17.2534   21.8310 C   0  0  0  0  0  0  0  0  0  0  0  0
   11.6094  -18.0118   21.1977 O   0  0  0  0  0  0  0  0  0  0  0  0
   11.2002  -16.8607   23.1581 N   0  0  0  0  0  0  0  0  0  0  0  0
   12.3337  -17.4203   23.8430 C   0  0  1  0  0  0  0  0  0  0  0  0
   13.4060  -16.4006   24.1558 C   0  0  0  0  0  0  0  0  0  0  0  0
   14.0742  -15.8958   22.9438 C   0  0  0  0  0  0  0  0  0  0  0  0
   13.8637  -16.2827   21.7739 O   0  0  0  0  0  0  0  0  0  0  0  0
   11.9233  -18.0194   25.1442 C   0  0  0  0  0  0  0  0  0  0  0  0
   12.8252  -18.7868   25.8553 O   0  0  0  0  0  0  0  0  0  0  0  0
   15.0377  -14.8901   23.0883 O   0  0  0  0  0  0  0  0  0  0  0  0
   10.7785  -17.8566   25.6318 O   0  0  0  0  0  0  0  0  0  0  0  0
  2  3  2  0
  2  1  1  0
  4  3  1  0
  5  4  2  0
  6  5  1  0
  7  6  1  0
  7  9  1  0
  7  8  1  1
  9 15  1  0
  9 10  2  0
 11  5  1  0
 11 12  2  0
 12  2  1  0
 14 13  1  6
 15 14  1  0
 16 14  1  0
 16 17  2  0
 18 16  1  0
 19 18  1  0
 20 21  1  0
 19 20  1  1
 21 22  2  0
 23 19  1  0
 24 23  1  0
 25 21  1  0
 26 23  2  0
M  END
$$$$
