YAD.pdb
     RDKit          3D

 26 26  0  0  1  0  0  0  0  0999 V2000
   10.2984  -14.2207   30.9314 O   0  0  0  0  0  0  0  0  0  0  0  0
   10.0362  -14.5171   29.5971 C   0  0  0  0  0  0  0  0  0  0  0  0
   10.3177  -15.7463   29.0403 C   0  0  0  0  0  0  0  0  0  0  0  0
   10.0551  -16.0320   27.7182 C   0  0  0  0  0  0  0  0  0  0  0  0
    9.4874  -15.0700   26.8909 C   0  0  0  0  0  0  0  0  0  0  0  0
    9.1919  -15.3302   25.4821 C   0  0  0  0  0  0  0  0  0  0  0  0
    7.7057  -15.4080   25.2057 C   0  0  2  0  0  0  0  0  0  0  0  0
    7.1097  -16.4870   25.9792 N   0  0  0  0  0  0  0  0  0  0  0  0
    7.4362  -15.6640   23.7836 C   0  0  0  0  0  0  0  0  0  0  0  0
    6.9608  -16.7546   23.3742 O   0  0  0  0  0  0  0  0  0  0  0  0
    9.1994  -13.8344   27.4323 C   0  0  0  0  0  0  0  0  0  0  0  0
    9.4679  -13.5636   28.7568 C   0  0  0  0  0  0  0  0  0  0  0  0
    7.2821  -13.6083   20.6134 C   0  0  0  0  0  0  0  0  0  0  0  0
    7.4099  -14.9109   21.3956 C   0  0  2  0  0  0  0  0  0  0  0  0
    7.7040  -14.6731   22.7769 N   0  0  0  0  0  0  0  0  0  0  0  0
    8.4018  -15.7744   20.7290 C   0  0  0  0  0  0  0  0  0  0  0  0
    8.3222  -16.1430   19.5282 O   0  0  0  0  0  0  0  0  0  0  0  0
    9.5249  -16.2198   21.4988 N   0  0  0  0  0  0  0  0  0  0  0  0
   10.4558  -17.2019   21.0129 C   0  0  1  0  0  0  0  0  0  0  0  0
   11.8989  -16.8500   21.2983 C   0  0  0  0  0  0  0  0  0  0  0  0
   12.4682  -15.9428   20.2869 C   0  0  0  0  0  0  0  0  0  0  0  0
   11.8881  -15.5329   19.2582 O   0  0  0  0  0  0  0  0  0  0  0  0
   10.2072  -18.5269   21.6476 C   0  0  0  0  0  0  0  0  0  0  0  0
   10.8967  -19.6368   21.1998 O   0  0  0  0  0  0  0  0  0  0  0  0
   13.7779  -15.4829   20.4714 O   0  0  0  0  0  0  0  0  0  0  0  0
    9.3875  -18.6839   22.5848 O   0  0  0  0  0  0  0  0  0  0  0  0
  2  3  2  0
  2  1  1  0
  4  3  1  0
  5  4  2  0
  6  5  1  0
  7  6  1  0
  7  9  1  0
  7  8  1  1
  9 15  1  0
  9 10  2  0
 11  5  1  0
 11 12  2  0
 12  2  1  0
 14 13  1  6
 15 14  1  0
 16 14  1  0
 16 17  2  0
 18 16  1  0
 19 18  1  0
 20 21  1  0
 19 20  1  1
 21 22  2  0
 23 19  1  0
 24 23  1  0
 25 21  1  0
 26 23  2  0
M  END
$$$$
