YAD.pdb
     RDKit          3D

 26 26  0  0  1  0  0  0  0  0999 V2000
    5.7711  -10.3843   28.0244 O   0  0  0  0  0  0  0  0  0  0  0  0
    6.3490  -11.3871   27.2515 C   0  0  0  0  0  0  0  0  0  0  0  0
    7.1503  -12.3710   27.7900 C   0  0  0  0  0  0  0  0  0  0  0  0
    7.7188  -13.3605   27.0179 C   0  0  0  0  0  0  0  0  0  0  0  0
    7.4965  -13.3962   25.6462 C   0  0  0  0  0  0  0  0  0  0  0  0
    8.0798  -14.4280   24.7890 C   0  0  0  0  0  0  0  0  0  0  0  0
    7.0552  -15.4363   24.3152 C   0  0  2  0  0  0  0  0  0  0  0  0
    6.6258  -16.2720   25.4265 N   0  0  0  0  0  0  0  0  0  0  0  0
    7.6064  -16.3131   23.2722 C   0  0  0  0  0  0  0  0  0  0  0  0
    7.8499  -17.5307   23.4757 O   0  0  0  0  0  0  0  0  0  0  0  0
    6.6968  -12.4188   25.0911 C   0  0  0  0  0  0  0  0  0  0  0  0
    6.1351  -11.4354   25.8767 C   0  0  0  0  0  0  0  0  0  0  0  0
    8.2095  -16.0632   19.5371 C   0  0  0  0  0  0  0  0  0  0  0  0
    8.3689  -16.6914   20.9172 C   0  0  2  0  0  0  0  0  0  0  0  0
    7.8988  -15.8214   21.9532 N   0  0  0  0  0  0  0  0  0  0  0  0
    9.7729  -17.1046   21.0959 C   0  0  0  0  0  0  0  0  0  0  0  0
   10.3693  -17.9194   20.3447 O   0  0  0  0  0  0  0  0  0  0  0  0
   10.5007  -16.5417   22.1941 N   0  0  0  0  0  0  0  0  0  0  0  0
   11.8333  -16.9599   22.5350 C   0  0  1  0  0  0  0  0  0  0  0  0
   12.8580  -15.8549   22.4051 C   0  0  0  0  0  0  0  0  0  0  0  0
   13.3706  -15.7206   21.0305 C   0  0  0  0  0  0  0  0  0  0  0  0
   13.5056  -16.6480   20.2032 O   0  0  0  0  0  0  0  0  0  0  0  0
   11.8949  -17.4337   23.9464 C   0  0  0  0  0  0  0  0  0  0  0  0
   10.7907  -17.2863   24.7632 O   0  0  0  0  0  0  0  0  0  0  0  0
   13.7480  -14.4478   20.5855 O   0  0  0  0  0  0  0  0  0  0  0  0
   12.9192  -17.9690   24.4354 O   0  0  0  0  0  0  0  0  0  0  0  0
  2  3  2  0
  2  1  1  0
  4  3  1  0
  5  4  2  0
  6  5  1  0
  7  6  1  0
  7  9  1  0
  7  8  1  1
  9 15  1  0
  9 10  2  0
 11  5  1  0
 11 12  2  0
 12  2  1  0
 14 13  1  6
 15 14  1  0
 16 14  1  0
 16 17  2  0
 18 16  1  0
 19 18  1  0
 20 21  1  0
 19 20  1  1
 21 22  2  0
 23 19  1  0
 24 23  1  0
 25 21  1  0
 26 23  2  0
M  END
$$$$
