YAD.pdb
     RDKit          3D

 26 26  0  0  1  0  0  0  0  0999 V2000
    5.4925  -10.6502   28.3793 O   0  0  0  0  0  0  0  0  0  0  0  0
    6.1088  -11.5446   27.5092 C   0  0  0  0  0  0  0  0  0  0  0  0
    5.6289  -11.7983   26.2421 C   0  0  0  0  0  0  0  0  0  0  0  0
    6.2449  -12.6853   25.3865 C   0  0  0  0  0  0  0  0  0  0  0  0
    7.3912  -13.3639   25.7840 C   0  0  0  0  0  0  0  0  0  0  0  0
    8.0772  -14.3139   24.9085 C   0  0  0  0  0  0  0  0  0  0  0  0
    7.1798  -15.4510   24.4697 C   0  0  2  0  0  0  0  0  0  0  0  0
    6.9129  -16.3384   25.5918 N   0  0  0  0  0  0  0  0  0  0  0  0
    7.8014  -16.2440   23.3995 C   0  0  0  0  0  0  0  0  0  0  0  0
    8.5510  -17.2260   23.6379 O   0  0  0  0  0  0  0  0  0  0  0  0
    7.8848  -13.1216   27.0491 C   0  0  0  0  0  0  0  0  0  0  0  0
    7.2573  -12.2312   27.8936 C   0  0  0  0  0  0  0  0  0  0  0  0
    7.8840  -16.1313   19.5904 C   0  0  0  0  0  0  0  0  0  0  0  0
    8.2226  -16.6838   20.9706 C   0  0  2  0  0  0  0  0  0  0  0  0
    7.5837  -15.9366   22.0120 N   0  0  0  0  0  0  0  0  0  0  0  0
    9.6886  -16.7475   21.1144 C   0  0  0  0  0  0  0  0  0  0  0  0
   10.4058  -15.7745   21.4649 O   0  0  0  0  0  0  0  0  0  0  0  0
   10.3337  -17.9963   20.8371 N   0  0  0  0  0  0  0  0  0  0  0  0
   11.7566  -18.1726   20.9426 C   0  0  1  0  0  0  0  0  0  0  0  0
   12.1507  -19.4961   21.5595 C   0  0  0  0  0  0  0  0  0  0  0  0
   11.8917  -19.5413   23.0091 C   0  0  0  0  0  0  0  0  0  0  0  0
   11.4117  -20.5082   23.6396 O   0  0  0  0  0  0  0  0  0  0  0  0
   12.3976  -18.1219   19.5983 C   0  0  0  0  0  0  0  0  0  0  0  0
   13.7752  -18.0904   19.5013 O   0  0  0  0  0  0  0  0  0  0  0  0
   12.2033  -18.4103   23.7735 O   0  0  0  0  0  0  0  0  0  0  0  0
   11.7338  -18.1064   18.5335 O   0  0  0  0  0  0  0  0  0  0  0  0
  2  3  2  0
  2  1  1  0
  4  3  1  0
  5  4  2  0
  6  5  1  0
  7  6  1  0
  7  9  1  0
  7  8  1  1
  9 15  1  0
  9 10  2  0
 11  5  1  0
 11 12  2  0
 12  2  1  0
 14 13  1  6
 15 14  1  0
 16 14  1  0
 16 17  2  0
 18 16  1  0
 19 18  1  0
 20 21  1  0
 19 20  1  6
 21 22  2  0
 23 19  1  0
 24 23  1  0
 25 21  1  0
 26 23  2  0
M  END
$$$$
