YAD.pdb
     RDKit          3D

 26 26  0  0  1  0  0  0  0  0999 V2000
    5.5576  -11.4561   26.9862 O   0  0  0  0  0  0  0  0  0  0  0  0
    6.1048  -12.3488   26.0693 C   0  0  0  0  0  0  0  0  0  0  0  0
    6.0385  -13.7159   26.2334 C   0  0  0  0  0  0  0  0  0  0  0  0
    6.5828  -14.5931   25.3209 C   0  0  0  0  0  0  0  0  0  0  0  0
    7.2274  -14.1157   24.1856 C   0  0  0  0  0  0  0  0  0  0  0  0
    7.8191  -15.0107   23.1914 C   0  0  0  0  0  0  0  0  0  0  0  0
    9.3293  -14.9168   23.1519 C   0  0  2  0  0  0  0  0  0  0  0  0
    9.8507  -15.7122   22.0505 N   0  0  0  0  0  0  0  0  0  0  0  0
    9.9314  -15.4133   24.3975 C   0  0  0  0  0  0  0  0  0  0  0  0
   10.3887  -16.5805   24.5056 O   0  0  0  0  0  0  0  0  0  0  0  0
    7.3026  -12.7501   24.0060 C   0  0  0  0  0  0  0  0  0  0  0  0
    6.7532  -11.8851   24.9279 C   0  0  0  0  0  0  0  0  0  0  0  0
   10.5919  -14.0205   27.8830 C   0  0  0  0  0  0  0  0  0  0  0  0
   10.7001  -15.0358   26.7506 C   0  0  2  0  0  0  0  0  0  0  0  0
   10.0303  -14.5843   25.5680 N   0  0  0  0  0  0  0  0  0  0  0  0
   10.2161  -16.3428   27.2314 C   0  0  0  0  0  0  0  0  0  0  0  0
    9.0003  -16.6573   27.3152 O   0  0  0  0  0  0  0  0  0  0  0  0
   11.1931  -17.3130   27.6272 N   0  0  0  0  0  0  0  0  0  0  0  0
   10.8355  -18.6186   28.1115 C   0  0  1  0  0  0  0  0  0  0  0  0
   11.8323  -19.6908   27.7314 C   0  0  0  0  0  0  0  0  0  0  0  0
   11.6799  -20.1318   26.3340 C   0  0  0  0  0  0  0  0  0  0  0  0
   10.8013  -19.7447   25.5334 O   0  0  0  0  0  0  0  0  0  0  0  0
   10.7488  -18.6261   29.5991 C   0  0  0  0  0  0  0  0  0  0  0  0
   10.2182  -19.7258   30.2449 O   0  0  0  0  0  0  0  0  0  0  0  0
   12.5900  -21.0702   25.8323 O   0  0  0  0  0  0  0  0  0  0  0  0
   11.1415  -17.6648   30.3036 O   0  0  0  0  0  0  0  0  0  0  0  0
  2  3  2  0
  2  1  1  0
  4  3  1  0
  5  4  2  0
  6  5  1  0
  7  6  1  0
  7  9  1  0
  7  8  1  6
  9 15  1  0
  9 10  2  0
 11  5  1  0
 11 12  2  0
 12  2  1  0
 14 13  1  1
 15 14  1  0
 16 14  1  0
 16 17  2  0
 18 16  1  0
 19 18  1  0
 20 21  1  0
 19 20  1  1
 21 22  2  0
 23 19  1  0
 24 23  1  0
 25 21  1  0
 26 23  2  0
M  END
$$$$
