YAD.pdb
     RDKit          3D

 26 26  0  0  1  0  0  0  0  0999 V2000
    5.4435  -10.7149   28.4112 O   0  0  0  0  0  0  0  0  0  0  0  0
    6.0553  -11.6791   27.6155 C   0  0  0  0  0  0  0  0  0  0  0  0
    5.5851  -12.0171   26.3645 C   0  0  0  0  0  0  0  0  0  0  0  0
    6.1965  -12.9729   25.5829 C   0  0  0  0  0  0  0  0  0  0  0  0
    7.3279  -13.6373   26.0419 C   0  0  0  0  0  0  0  0  0  0  0  0
    8.0086  -14.6584   25.2458 C   0  0  0  0  0  0  0  0  0  0  0  0
    7.0539  -15.6937   24.6912 C   0  0  2  0  0  0  0  0  0  0  0  0
    6.9939  -16.8446   25.5797 N   0  0  0  0  0  0  0  0  0  0  0  0
    7.4811  -16.1632   23.3655 C   0  0  0  0  0  0  0  0  0  0  0  0
    7.8401  -17.3507   23.1553 O   0  0  0  0  0  0  0  0  0  0  0  0
    7.8117  -13.3110   27.2919 C   0  0  0  0  0  0  0  0  0  0  0  0
    7.1889  -12.3525   28.0622 C   0  0  0  0  0  0  0  0  0  0  0  0
    7.5250  -14.7228   19.8463 C   0  0  0  0  0  0  0  0  0  0  0  0
    7.8301  -15.7633   20.9183 C   0  0  2  0  0  0  0  0  0  0  0  0
    7.5116  -15.2828   22.2293 N   0  0  0  0  0  0  0  0  0  0  0  0
    9.2331  -16.1950   20.7809 C   0  0  0  0  0  0  0  0  0  0  0  0
    9.7159  -16.7018   19.7349 O   0  0  0  0  0  0  0  0  0  0  0  0
   10.0982  -16.0257   21.9103 N   0  0  0  0  0  0  0  0  0  0  0  0
   11.4608  -16.4844   21.9173 C   0  0  1  0  0  0  0  0  0  0  0  0
   12.3804  -15.6128   22.7433 C   0  0  0  0  0  0  0  0  0  0  0  0
   13.7936  -16.0109   22.6215 C   0  0  0  0  0  0  0  0  0  0  0  0
   14.3689  -16.8927   23.2956 O   0  0  0  0  0  0  0  0  0  0  0  0
   11.5539  -17.8591   22.4847 C   0  0  0  0  0  0  0  0  0  0  0  0
   10.9522  -18.1381   23.6963 O   0  0  0  0  0  0  0  0  0  0  0  0
   14.5868  -15.3568   21.6710 O   0  0  0  0  0  0  0  0  0  0  0  0
   12.1631  -18.7898   21.9039 O   0  0  0  0  0  0  0  0  0  0  0  0
  2  3  2  0
  2  1  1  0
  4  3  1  0
  5  4  2  0
  6  5  1  0
  7  6  1  0
  7  9  1  0
  7  8  1  1
  9 15  1  0
  9 10  2  0
 11  5  1  0
 11 12  2  0
 12  2  1  0
 14 13  1  6
 15 14  1  0
 16 14  1  0
 16 17  2  0
 18 16  1  0
 19 18  1  0
 20 21  1  0
 19 20  1  1
 21 22  2  0
 23 19  1  0
 24 23  1  0
 25 21  1  0
 26 23  2  0
M  END
$$$$
