YAD.pdb
     RDKit          3D

 26 26  0  0  1  0  0  0  0  0999 V2000
    6.1470  -10.4501   27.7047 O   0  0  0  0  0  0  0  0  0  0  0  0
    6.5083  -11.6924   27.1917 C   0  0  0  0  0  0  0  0  0  0  0  0
    5.6353  -12.7581   27.1429 C   0  0  0  0  0  0  0  0  0  0  0  0
    6.0007  -13.9850   26.6334 C   0  0  0  0  0  0  0  0  0  0  0  0
    7.2858  -14.1880   26.1439 C   0  0  0  0  0  0  0  0  0  0  0  0
    7.7161  -15.4735   25.5943 C   0  0  0  0  0  0  0  0  0  0  0  0
    6.7041  -16.0626   24.6353 C   0  0  2  0  0  0  0  0  0  0  0  0
    6.1453  -17.2870   25.1888 N   0  0  0  0  0  0  0  0  0  0  0  0
    7.3171  -16.3866   23.3392 C   0  0  0  0  0  0  0  0  0  0  0  0
    7.6248  -17.5629   23.0153 O   0  0  0  0  0  0  0  0  0  0  0  0
    8.1721  -13.1318   26.1853 C   0  0  0  0  0  0  0  0  0  0  0  0
    7.7917  -11.9102   26.6981 C   0  0  0  0  0  0  0  0  0  0  0  0
    7.9722  -14.5182   20.0996 C   0  0  0  0  0  0  0  0  0  0  0  0
    8.0935  -15.6953   21.0612 C   0  0  2  0  0  0  0  0  0  0  0  0
    7.5998  -15.3678   22.3650 N   0  0  0  0  0  0  0  0  0  0  0  0
    9.4909  -16.1656   21.0684 C   0  0  0  0  0  0  0  0  0  0  0  0
   10.1062  -16.5639   20.0453 O   0  0  0  0  0  0  0  0  0  0  0  0
   10.1888  -16.1679   22.3196 N   0  0  0  0  0  0  0  0  0  0  0  0
   11.5234  -16.6836   22.4604 C   0  0  1  0  0  0  0  0  0  0  0  0
   12.4875  -15.6888   23.0674 C   0  0  0  0  0  0  0  0  0  0  0  0
   13.7911  -15.6768   22.3811 C   0  0  0  0  0  0  0  0  0  0  0  0
   14.1143  -16.3891   21.4060 O   0  0  0  0  0  0  0  0  0  0  0  0
   11.5371  -17.8833   23.3442 C   0  0  0  0  0  0  0  0  0  0  0  0
   12.6400  -18.7150   23.3467 O   0  0  0  0  0  0  0  0  0  0  0  0
   14.7758  -14.7957   22.8444 O   0  0  0  0  0  0  0  0  0  0  0  0
   10.5782  -18.1778   24.0983 O   0  0  0  0  0  0  0  0  0  0  0  0
  2  3  2  0
  2  1  1  0
  4  3  1  0
  5  4  2  0
  6  5  1  0
  7  6  1  0
  7  9  1  0
  7  8  1  1
  9 15  1  0
  9 10  2  0
 11  5  1  0
 11 12  2  0
 12  2  1  0
 14 13  1  6
 15 14  1  0
 16 14  1  0
 16 17  2  0
 18 16  1  0
 19 18  1  0
 20 21  1  0
 19 20  1  1
 21 22  2  0
 23 19  1  0
 24 23  1  0
 25 21  1  0
 26 23  2  0
M  END
$$$$
