YAD.pdb
     RDKit          3D

 26 26  0  0  1  0  0  0  0  0999 V2000
    4.7260  -12.5125   27.1041 O   0  0  0  0  0  0  0  0  0  0  0  0
    5.8325  -12.7847   26.3051 C   0  0  0  0  0  0  0  0  0  0  0  0
    5.7188  -13.2071   24.9979 C   0  0  0  0  0  0  0  0  0  0  0  0
    6.8194  -13.4745   24.2133 C   0  0  0  0  0  0  0  0  0  0  0  0
    8.1021  -13.3232   24.7272 C   0  0  0  0  0  0  0  0  0  0  0  0
    9.2979  -13.5957   23.9302 C   0  0  0  0  0  0  0  0  0  0  0  0
    9.5169  -15.0756   23.6998 C   0  0  2  0  0  0  0  0  0  0  0  0
    8.4420  -15.6183   22.8827 N   0  0  0  0  0  0  0  0  0  0  0  0
    9.5449  -15.8185   24.9678 C   0  0  0  0  0  0  0  0  0  0  0  0
   10.3064  -15.5005   25.9177 O   0  0  0  0  0  0  0  0  0  0  0  0
    8.2337  -12.9011   26.0339 C   0  0  0  0  0  0  0  0  0  0  0  0
    7.1230  -12.6375   26.8064 C   0  0  0  0  0  0  0  0  0  0  0  0
    7.3082  -18.2414   26.7458 C   0  0  0  0  0  0  0  0  0  0  0  0
    8.6784  -17.6420   26.4491 C   0  0  2  0  0  0  0  0  0  0  0  0
    8.6965  -16.9575   25.1913 N   0  0  0  0  0  0  0  0  0  0  0  0
    9.6972  -18.7030   26.5498 C   0  0  0  0  0  0  0  0  0  0  0  0
    9.6912  -19.6056   27.4268 O   0  0  0  0  0  0  0  0  0  0  0  0
   10.7587  -18.7037   25.5877 N   0  0  0  0  0  0  0  0  0  0  0  0
   11.7955  -19.6997   25.5798 C   0  0  1  0  0  0  0  0  0  0  0  0
   12.6818  -19.6301   24.3561 C   0  0  0  0  0  0  0  0  0  0  0  0
   11.9089  -19.5785   23.1030 C   0  0  0  0  0  0  0  0  0  0  0  0
   10.8386  -20.1828   22.8748 O   0  0  0  0  0  0  0  0  0  0  0  0
   12.6891  -19.5433   26.7620 C   0  0  0  0  0  0  0  0  0  0  0  0
   13.6307  -20.5156   27.0375 O   0  0  0  0  0  0  0  0  0  0  0  0
   12.3966  -18.7872   22.0558 O   0  0  0  0  0  0  0  0  0  0  0  0
   12.6250  -18.5538   27.5311 O   0  0  0  0  0  0  0  0  0  0  0  0
  2  3  2  0
  2  1  1  0
  4  3  1  0
  5  4  2  0
  6  5  1  0
  7  6  1  0
  7  9  1  0
  7  8  1  6
  9 15  1  0
  9 10  2  0
 11  5  1  0
 11 12  2  0
 12  2  1  0
 14 13  1  6
 15 14  1  0
 16 14  1  0
 16 17  2  0
 18 16  1  0
 19 18  1  0
 20 21  1  0
 19 20  1  6
 21 22  2  0
 23 19  1  0
 24 23  1  0
 25 21  1  0
 26 23  2  0
M  END
$$$$
