YAD.pdb
     RDKit          3D

 26 26  0  0  1  0  0  0  0  0999 V2000
   16.4738  -16.2231   10.9339 O   0  0  0  0  0  0  0  0  0  0  0  0
   15.9886  -15.6861   12.1227 C   0  0  0  0  0  0  0  0  0  0  0  0
   14.6609  -15.3626   12.3042 C   0  0  0  0  0  0  0  0  0  0  0  0
   14.1884  -14.8313   13.4844 C   0  0  0  0  0  0  0  0  0  0  0  0
   15.0539  -14.6014   14.5476 C   0  0  0  0  0  0  0  0  0  0  0  0
   14.5954  -14.0393   15.8179 C   0  0  0  0  0  0  0  0  0  0  0  0
   14.7457  -15.0096   16.9698 C   0  0  2  0  0  0  0  0  0  0  0  0
   14.0734  -16.2622   16.6587 N   0  0  0  0  0  0  0  0  0  0  0  0
   14.1586  -14.4720   18.2054 C   0  0  0  0  0  0  0  0  0  0  0  0
   14.5484  -13.3929   18.7220 O   0  0  0  0  0  0  0  0  0  0  0  0
   16.3859  -14.9197   14.3827 C   0  0  0  0  0  0  0  0  0  0  0  0
   16.8436  -15.4506   13.1959 C   0  0  0  0  0  0  0  0  0  0  0  0
   11.1133  -15.0562   20.3229 C   0  0  0  0  0  0  0  0  0  0  0  0
   12.5765  -14.6702   20.1363 C   0  0  2  0  0  0  0  0  0  0  0  0
   13.0989  -15.1568   18.8948 N   0  0  0  0  0  0  0  0  0  0  0  0
   13.3449  -15.1243   21.3098 C   0  0  0  0  0  0  0  0  0  0  0  0
   13.1323  -14.7324   22.4867 O   0  0  0  0  0  0  0  0  0  0  0  0
   14.3987  -16.0705   21.0933 N   0  0  0  0  0  0  0  0  0  0  0  0
   15.2325  -16.5575   22.1585 C   0  0  1  0  0  0  0  0  0  0  0  0
   15.3961  -18.0611   22.1497 C   0  0  0  0  0  0  0  0  0  0  0  0
   14.5887  -18.7218   23.1899 C   0  0  0  0  0  0  0  0  0  0  0  0
   13.8950  -18.1470   24.0566 O   0  0  0  0  0  0  0  0  0  0  0  0
   16.6029  -15.9797   22.0647 C   0  0  0  0  0  0  0  0  0  0  0  0
   17.1399  -15.6981   20.8236 O   0  0  0  0  0  0  0  0  0  0  0  0
   14.5806  -20.1213   23.2333 O   0  0  0  0  0  0  0  0  0  0  0  0
   17.3029  -15.7332   23.0767 O   0  0  0  0  0  0  0  0  0  0  0  0
  2  3  2  0
  2  1  1  0
  4  3  1  0
  5  4  2  0
  6  5  1  0
  7  6  1  0
  7  9  1  0
  7  8  1  6
  9 15  1  0
  9 10  2  0
 11  5  1  0
 11 12  2  0
 12  2  1  0
 14 13  1  1
 15 14  1  0
 16 14  1  0
 16 17  2  0
 18 16  1  0
 19 18  1  0
 20 21  1  0
 19 20  1  6
 21 22  2  0
 23 19  1  0
 24 23  1  0
 25 21  1  0
 26 23  2  0
M  END
$$$$
