YAD.pdb
     RDKit          3D

 26 26  0  0  1  0  0  0  0  0999 V2000
    7.6527  -12.5351   28.0103 O   0  0  0  0  0  0  0  0  0  0  0  0
    7.3671  -12.6433   26.6524 C   0  0  0  0  0  0  0  0  0  0  0  0
    6.3259  -13.4078   26.1711 C   0  0  0  0  0  0  0  0  0  0  0  0
    6.0497  -13.5097   24.8251 C   0  0  0  0  0  0  0  0  0  0  0  0
    6.8283  -12.8311   23.8947 C   0  0  0  0  0  0  0  0  0  0  0  0
    6.5709  -12.9108   22.4570 C   0  0  0  0  0  0  0  0  0  0  0  0
    7.5832  -13.7725   21.7332 C   0  0  2  0  0  0  0  0  0  0  0  0
    7.2279  -13.8856   20.3265 N   0  0  0  0  0  0  0  0  0  0  0  0
    7.6383  -15.1277   22.2996 C   0  0  0  0  0  0  0  0  0  0  0  0
    6.6038  -15.8127   22.5085 O   0  0  0  0  0  0  0  0  0  0  0  0
    7.8745  -12.0614   24.3596 C   0  0  0  0  0  0  0  0  0  0  0  0
    8.1383  -11.9694   25.7094 C   0  0  0  0  0  0  0  0  0  0  0  0
    8.5818  -17.9131   21.5488 C   0  0  0  0  0  0  0  0  0  0  0  0
    9.0008  -17.1657   22.8100 C   0  0  2  0  0  0  0  0  0  0  0  0
    8.8881  -15.7472   22.6477 N   0  0  0  0  0  0  0  0  0  0  0  0
   10.3547  -17.6021   23.1977 C   0  0  0  0  0  0  0  0  0  0  0  0
   10.6805  -18.8023   23.3911 O   0  0  0  0  0  0  0  0  0  0  0  0
   11.3596  -16.5947   23.3639 N   0  0  0  0  0  0  0  0  0  0  0  0
   12.6866  -16.8944   23.8291 C   0  0  1  0  0  0  0  0  0  0  0  0
   13.5473  -15.6644   24.0134 C   0  0  0  0  0  0  0  0  0  0  0  0
   14.9330  -15.9972   24.3869 C   0  0  0  0  0  0  0  0  0  0  0  0
   15.2903  -16.5955   25.4248 O   0  0  0  0  0  0  0  0  0  0  0  0
   12.6417  -17.5842   25.1492 C   0  0  0  0  0  0  0  0  0  0  0  0
   13.5925  -18.5396   25.4512 O   0  0  0  0  0  0  0  0  0  0  0  0
   15.9628  -15.6196   23.5166 O   0  0  0  0  0  0  0  0  0  0  0  0
   11.7666  -17.3336   26.0130 O   0  0  0  0  0  0  0  0  0  0  0  0
  2  3  2  0
  2  1  1  0
  4  3  1  0
  5  4  2  0
  6  5  1  0
  7  6  1  0
  7  9  1  0
  7  8  1  6
  9 15  1  0
  9 10  2  0
 11  5  1  0
 11 12  2  0
 12  2  1  0
 14 13  1  6
 15 14  1  0
 16 14  1  0
 16 17  2  0
 18 16  1  0
 19 18  1  0
 20 21  1  0
 19 20  1  1
 21 22  2  0
 23 19  1  0
 24 23  1  0
 25 21  1  0
 26 23  2  0
M  END
$$$$
