YAD.pdb
     RDKit          3D

 26 26  0  0  1  0  0  0  0  0999 V2000
    6.2034  -10.6737   29.0171 O   0  0  0  0  0  0  0  0  0  0  0  0
    6.5369  -11.5311   27.9728 C   0  0  0  0  0  0  0  0  0  0  0  0
    5.6444  -11.8742   26.9798 C   0  0  0  0  0  0  0  0  0  0  0  0
    5.9824  -12.7238   25.9491 C   0  0  0  0  0  0  0  0  0  0  0  0
    7.2584  -13.2708   25.8791 C   0  0  0  0  0  0  0  0  0  0  0  0
    7.6598  -14.1767   24.8031 C   0  0  0  0  0  0  0  0  0  0  0  0
    6.6778  -15.3110   24.6029 C   0  0  2  0  0  0  0  0  0  0  0  0
    6.7452  -16.2341   25.7259 N   0  0  0  0  0  0  0  0  0  0  0  0
    6.9703  -16.0647   23.3753 C   0  0  0  0  0  0  0  0  0  0  0  0
    6.0807  -16.6873   22.7395 O   0  0  0  0  0  0  0  0  0  0  0  0
    8.1639  -12.9378   26.8651 C   0  0  0  0  0  0  0  0  0  0  0  0
    7.8109  -12.0863   27.8899 C   0  0  0  0  0  0  0  0  0  0  0  0
    8.1048  -14.6783   20.8710 C   0  0  0  0  0  0  0  0  0  0  0  0
    8.5382  -16.0319   21.4231 C   0  0  2  0  0  0  0  0  0  0  0  0
    8.2997  -16.1308   22.8318 N   0  0  0  0  0  0  0  0  0  0  0  0
    9.9446  -16.2723   21.0520 C   0  0  0  0  0  0  0  0  0  0  0  0
   10.3633  -16.3172   19.8659 O   0  0  0  0  0  0  0  0  0  0  0  0
   10.8912  -16.4666   22.1098 N   0  0  0  0  0  0  0  0  0  0  0  0
   12.2652  -16.8120   21.8651 C   0  0  1  0  0  0  0  0  0  0  0  0
   13.2093  -15.6379   21.9986 C   0  0  0  0  0  0  0  0  0  0  0  0
   14.6109  -16.0096   21.7381 C   0  0  0  0  0  0  0  0  0  0  0  0
   15.2825  -16.8419   22.3854 O   0  0  0  0  0  0  0  0  0  0  0  0
   12.7317  -17.8454   22.8320 C   0  0  0  0  0  0  0  0  0  0  0  0
   13.9326  -18.4915   22.6118 O   0  0  0  0  0  0  0  0  0  0  0  0
   15.2744  -15.3878   20.6733 O   0  0  0  0  0  0  0  0  0  0  0  0
   12.0740  -18.1612   23.8531 O   0  0  0  0  0  0  0  0  0  0  0  0
  2  3  2  0
  2  1  1  0
  4  3  1  0
  5  4  2  0
  6  5  1  0
  7  6  1  0
  7  9  1  0
  7  8  1  1
  9 15  1  0
  9 10  2  0
 11  5  1  0
 11 12  2  0
 12  2  1  0
 14 13  1  1
 15 14  1  0
 16 14  1  0
 16 17  2  0
 18 16  1  0
 19 18  1  0
 20 21  1  0
 19 20  1  1
 21 22  2  0
 23 19  1  0
 24 23  1  0
 25 21  1  0
 26 23  2  0
M  END
$$$$
