YAD.pdb
     RDKit          3D

 26 26  0  0  1  0  0  0  0  0999 V2000
    5.4940  -10.5658   27.9186 O   0  0  0  0  0  0  0  0  0  0  0  0
    6.1868  -11.6343   27.3570 C   0  0  0  0  0  0  0  0  0  0  0  0
    7.5631  -11.7111   27.3605 C   0  0  0  0  0  0  0  0  0  0  0  0
    8.2416  -12.7725   26.8023 C   0  0  0  0  0  0  0  0  0  0  0  0
    7.5442  -13.8175   26.2074 C   0  0  0  0  0  0  0  0  0  0  0  0
    8.2236  -14.9633   25.6031 C   0  0  0  0  0  0  0  0  0  0  0  0
    7.2958  -15.8077   24.7564 C   0  0  2  0  0  0  0  0  0  0  0  0
    6.6273  -16.7996   25.5852 N   0  0  0  0  0  0  0  0  0  0  0  0
    8.0298  -16.5174   23.6990 C   0  0  0  0  0  0  0  0  0  0  0  0
    8.3663  -17.7250   23.8073 O   0  0  0  0  0  0  0  0  0  0  0  0
    6.1662  -13.7563   26.1953 C   0  0  0  0  0  0  0  0  0  0  0  0
    5.5016  -12.6878   26.7579 C   0  0  0  0  0  0  0  0  0  0  0  0
    9.0323  -15.7696   20.1105 C   0  0  0  0  0  0  0  0  0  0  0  0
    9.0204  -16.5829   21.4001 C   0  0  2  0  0  0  0  0  0  0  0  0
    8.4052  -15.8635   22.4749 N   0  0  0  0  0  0  0  0  0  0  0  0
   10.3955  -17.0199   21.7034 C   0  0  0  0  0  0  0  0  0  0  0  0
   11.0847  -17.7545   20.9488 O   0  0  0  0  0  0  0  0  0  0  0  0
   10.9807  -16.5790   22.9345 N   0  0  0  0  0  0  0  0  0  0  0  0
   12.2778  -17.0156   23.3750 C   0  0  1  0  0  0  0  0  0  0  0  0
   13.3373  -15.9412   23.2706 C   0  0  0  0  0  0  0  0  0  0  0  0
   14.2585  -16.1659   22.1431 C   0  0  0  0  0  0  0  0  0  0  0  0
   14.1970  -17.1052   21.3205 O   0  0  0  0  0  0  0  0  0  0  0  0
   12.2379  -17.4366   24.8038 C   0  0  0  0  0  0  0  0  0  0  0  0
   13.3326  -18.0712   25.3578 O   0  0  0  0  0  0  0  0  0  0  0  0
   15.3076  -15.2582   21.9535 O   0  0  0  0  0  0  0  0  0  0  0  0
   11.2403  -17.2385   25.5389 O   0  0  0  0  0  0  0  0  0  0  0  0
  2  3  2  0
  2  1  1  0
  4  3  1  0
  5  4  2  0
  6  5  1  0
  7  6  1  0
  7  9  1  0
  7  8  1  1
  9 15  1  0
  9 10  2  0
 11  5  1  0
 11 12  2  0
 12  2  1  0
 14 13  1  6
 15 14  1  0
 16 14  1  0
 16 17  2  0
 18 16  1  0
 19 18  1  0
 20 21  1  0
 19 20  1  1
 21 22  2  0
 23 19  1  0
 24 23  1  0
 25 21  1  0
 26 23  2  0
M  END
$$$$
