YAD.pdb
     RDKit          3D

 26 26  0  0  1  0  0  0  0  0999 V2000
    8.9160  -12.1599   17.5830 O   0  0  0  0  0  0  0  0  0  0  0  0
    8.5300  -12.7175   18.7984 C   0  0  0  0  0  0  0  0  0  0  0  0
    9.4192  -12.9451   19.8268 C   0  0  0  0  0  0  0  0  0  0  0  0
    9.0291  -13.4977   21.0272 C   0  0  0  0  0  0  0  0  0  0  0  0
    7.7011  -13.8488   21.2405 C   0  0  0  0  0  0  0  0  0  0  0  0
    7.2433  -14.4378   22.4987 C   0  0  0  0  0  0  0  0  0  0  0  0
    7.9370  -15.7458   22.8134 C   0  0  2  0  0  0  0  0  0  0  0  0
    7.9038  -16.6210   21.6512 N   0  0  0  0  0  0  0  0  0  0  0  0
    7.2844  -16.4453   23.9293 C   0  0  0  0  0  0  0  0  0  0  0  0
    6.0399  -16.4090   24.1111 O   0  0  0  0  0  0  0  0  0  0  0  0
    6.7981  -13.6277   20.2214 C   0  0  0  0  0  0  0  0  0  0  0  0
    7.2036  -13.0740   19.0260 C   0  0  0  0  0  0  0  0  0  0  0  0
    6.4825  -19.0728   25.2149 C   0  0  0  0  0  0  0  0  0  0  0  0
    7.3955  -18.0359   25.8601 C   0  0  2  0  0  0  0  0  0  0  0  0
    8.0403  -17.2144   24.8801 N   0  0  0  0  0  0  0  0  0  0  0  0
    8.3416  -18.7235   26.7578 C   0  0  0  0  0  0  0  0  0  0  0  0
    8.0053  -19.5885   27.6080 O   0  0  0  0  0  0  0  0  0  0  0  0
    9.7294  -18.3834   26.6533 N   0  0  0  0  0  0  0  0  0  0  0  0
   10.7436  -19.0162   27.4521 C   0  0  1  0  0  0  0  0  0  0  0  0
   12.1437  -18.7967   26.9238 C   0  0  0  0  0  0  0  0  0  0  0  0
   12.2778  -19.1792   25.5074 C   0  0  0  0  0  0  0  0  0  0  0  0
   11.6480  -20.0920   24.9304 O   0  0  0  0  0  0  0  0  0  0  0  0
   10.7266  -18.4878   28.8453 C   0  0  0  0  0  0  0  0  0  0  0  0
   10.0034  -17.3465   29.1323 O   0  0  0  0  0  0  0  0  0  0  0  0
   13.1875  -18.4708   24.7130 O   0  0  0  0  0  0  0  0  0  0  0  0
   11.3487  -19.0401   29.7849 O   0  0  0  0  0  0  0  0  0  0  0  0
  2  3  2  0
  2  1  1  0
  4  3  1  0
  5  4  2  0
  6  5  1  0
  7  6  1  0
  7  9  1  0
  7  8  1  6
  9 15  1  0
  9 10  2  0
 11  5  1  0
 11 12  2  0
 12  2  1  0
 14 13  1  6
 15 14  1  0
 16 14  1  0
 16 17  2  0
 18 16  1  0
 19 18  1  0
 20 21  1  0
 19 20  1  6
 21 22  2  0
 23 19  1  0
 24 23  1  0
 25 21  1  0
 26 23  2  0
M  END
$$$$
