YAD.pdb
     RDKit          3D

 26 26  0  0  1  0  0  0  0  0999 V2000
    7.0584  -11.9406   28.7915 O   0  0  0  0  0  0  0  0  0  0  0  0
    6.9578  -12.5360   27.5375 C   0  0  0  0  0  0  0  0  0  0  0  0
    6.3642  -11.9088   26.4631 C   0  0  0  0  0  0  0  0  0  0  0  0
    6.2686  -12.5051   25.2246 C   0  0  0  0  0  0  0  0  0  0  0  0
    6.7780  -13.7819   25.0184 C   0  0  0  0  0  0  0  0  0  0  0  0
    6.6983  -14.4524   23.7208 C   0  0  0  0  0  0  0  0  0  0  0  0
    8.0598  -14.8312   23.1787 C   0  0  2  0  0  0  0  0  0  0  0  0
    9.0381  -13.8125   23.5294 N   0  0  0  0  0  0  0  0  0  0  0  0
    8.0389  -14.9581   21.7145 C   0  0  0  0  0  0  0  0  0  0  0  0
    7.2840  -15.7702   21.1198 O   0  0  0  0  0  0  0  0  0  0  0  0
    7.3754  -14.4238   26.0833 C   0  0  0  0  0  0  0  0  0  0  0  0
    7.4635  -13.8141   27.3164 C   0  0  0  0  0  0  0  0  0  0  0  0
    8.6897  -12.9607   18.7493 C   0  0  0  0  0  0  0  0  0  0  0  0
    8.8877  -14.2989   19.4528 C   0  0  2  0  0  0  0  0  0  0  0  0
    8.8874  -14.1539   20.8776 N   0  0  0  0  0  0  0  0  0  0  0  0
   10.1106  -14.9371   18.9322 C   0  0  0  0  0  0  0  0  0  0  0  0
   10.2827  -15.2530   17.7262 O   0  0  0  0  0  0  0  0  0  0  0  0
   11.1668  -15.2137   19.8598 N   0  0  0  0  0  0  0  0  0  0  0  0
   12.3387  -15.9637   19.4973 C   0  0  1  0  0  0  0  0  0  0  0  0
   13.6083  -15.1425   19.5326 C   0  0  0  0  0  0  0  0  0  0  0  0
   13.8195  -14.3780   18.2911 C   0  0  0  0  0  0  0  0  0  0  0  0
   13.3705  -14.6721   17.1621 O   0  0  0  0  0  0  0  0  0  0  0  0
   12.5452  -17.1071   20.4302 C   0  0  0  0  0  0  0  0  0  0  0  0
   13.6033  -17.9711   20.2250 O   0  0  0  0  0  0  0  0  0  0  0  0
   14.5903  -13.2107   18.3547 O   0  0  0  0  0  0  0  0  0  0  0  0
   11.7909  -17.3252   21.4091 O   0  0  0  0  0  0  0  0  0  0  0  0
  2  3  2  0
  2  1  1  0
  4  3  1  0
  5  4  2  0
  6  5  1  0
  7  6  1  0
  7  9  1  0
  7  8  1  6
  9 15  1  0
  9 10  2  0
 11  5  1  0
 11 12  2  0
 12  2  1  0
 14 13  1  6
 15 14  1  0
 16 14  1  0
 16 17  2  0
 18 16  1  0
 19 18  1  0
 20 21  1  0
 19 20  1  1
 21 22  2  0
 23 19  1  0
 24 23  1  0
 25 21  1  0
 26 23  2  0
M  END
$$$$
