YAD.pdb
     RDKit          3D

 26 26  0  0  1  0  0  0  0  0999 V2000
    5.7309  -10.4685   28.2944 O   0  0  0  0  0  0  0  0  0  0  0  0
    6.3335  -11.4736   27.5437 C   0  0  0  0  0  0  0  0  0  0  0  0
    7.5497  -12.0265   27.8834 C   0  0  0  0  0  0  0  0  0  0  0  0
    8.1397  -13.0214   27.1347 C   0  0  0  0  0  0  0  0  0  0  0  0
    7.5134  -13.5064   25.9925 C   0  0  0  0  0  0  0  0  0  0  0  0
    8.1034  -14.5612   25.1686 C   0  0  0  0  0  0  0  0  0  0  0  0
    7.0585  -15.4384   24.5131 C   0  0  2  0  0  0  0  0  0  0  0  0
    6.6940  -16.5309   25.4028 N   0  0  0  0  0  0  0  0  0  0  0  0
    7.5554  -16.0195   23.2578 C   0  0  0  0  0  0  0  0  0  0  0  0
    8.1382  -17.1339   23.2160 O   0  0  0  0  0  0  0  0  0  0  0  0
    6.2955  -12.9639   25.6383 C   0  0  0  0  0  0  0  0  0  0  0  0
    5.7179  -11.9689   26.3975 C   0  0  0  0  0  0  0  0  0  0  0  0
    7.5669  -15.0326   19.5777 C   0  0  0  0  0  0  0  0  0  0  0  0
    7.9787  -15.8528   20.7953 C   0  0  2  0  0  0  0  0  0  0  0  0
    7.4002  -15.3393   22.0007 N   0  0  0  0  0  0  0  0  0  0  0  0
    9.4501  -15.9328   20.8433 C   0  0  0  0  0  0  0  0  0  0  0  0
   10.2197  -15.0359   20.4106 O   0  0  0  0  0  0  0  0  0  0  0  0
   10.0372  -17.1061   21.4190 N   0  0  0  0  0  0  0  0  0  0  0  0
   11.4596  -17.2961   21.5074 C   0  0  1  0  0  0  0  0  0  0  0  0
   12.1588  -16.2145   22.3004 C   0  0  0  0  0  0  0  0  0  0  0  0
   13.6203  -16.3963   22.3344 C   0  0  0  0  0  0  0  0  0  0  0  0
   14.2559  -17.3358   21.8088 O   0  0  0  0  0  0  0  0  0  0  0  0
   11.7806  -18.5887   22.1756 C   0  0  0  0  0  0  0  0  0  0  0  0
   11.0093  -19.0159   23.2389 O   0  0  0  0  0  0  0  0  0  0  0  0
   14.3912  -15.4432   23.0110 O   0  0  0  0  0  0  0  0  0  0  0  0
   12.7341  -19.3189   21.8116 O   0  0  0  0  0  0  0  0  0  0  0  0
  2  3  2  0
  2  1  1  0
  4  3  1  0
  5  4  2  0
  6  5  1  0
  7  6  1  0
  7  9  1  0
  7  8  1  1
  9 15  1  0
  9 10  2  0
 11  5  1  0
 11 12  2  0
 12  2  1  0
 14 13  1  6
 15 14  1  0
 16 14  1  0
 16 17  2  0
 18 16  1  0
 19 18  1  0
 20 21  1  0
 19 20  1  1
 21 22  2  0
 23 19  1  0
 24 23  1  0
 25 21  1  0
 26 23  2  0
M  END
$$$$
