TSQ.pdb
     RDKit          3D

 23 22  0  0  1  0  0  0  0  0999 V2000
   16.6219  -11.3437  -19.6099 C   0  0  0  0  0  0  0  0  0  0  0  0
   16.7773  -10.6520  -18.2476 C   0  0  1  0  0  0  0  0  0  0  0  0
   16.4658  -11.5033  -17.2250 O   0  0  0  0  0  0  0  0  0  0  0  0
   18.1828  -10.1084  -18.2124 C   0  0  2  0  0  0  0  0  0  0  0  0
   19.1522  -11.2116  -18.2098 N   0  0  0  0  0  0  0  0  0  0  0  0
   18.4333   -9.1669  -17.1219 C   0  0  0  0  0  0  0  0  0  0  0  0
   17.6292   -8.1688  -17.0460 O   0  0  0  0  0  0  0  0  0  0  0  0
   21.4835   -9.6203  -14.2757 O   0  0  0  0  0  0  0  0  0  0  0  0
   20.2484   -9.0874  -13.9233 C   0  0  0  0  0  0  0  0  0  0  0  0
   19.6020   -8.3608  -15.1082 C   0  0  2  0  0  0  0  0  0  0  0  0
   19.4904   -9.3179  -16.1883 N   0  0  0  0  0  0  0  0  0  0  0  0
   20.4184   -7.1963  -15.4860 C   0  0  0  0  0  0  0  0  0  0  0  0
   21.1688   -7.2807  -16.4942 O   0  0  0  0  0  0  0  0  0  0  0  0
   19.3827   -2.0184  -17.1786 N   0  0  0  0  0  0  0  0  0  0  0  0
   20.5714   -1.5602  -16.5714 C   0  0  0  0  0  0  0  0  0  0  0  0
   21.0424   -0.4456  -16.8758 O   0  0  0  0  0  0  0  0  0  0  0  0
   21.2582   -2.4198  -15.5639 C   0  0  0  0  0  0  0  0  0  0  0  0
   20.4766   -3.6827  -15.3678 C   0  0  0  0  0  0  0  0  0  0  0  0
   21.3099   -4.9004  -15.1272 C   0  0  2  0  0  0  0  0  0  0  0  0
   20.3990   -5.9781  -14.7653 N   0  0  0  0  0  0  0  0  0  0  0  0
   22.2965   -4.7217  -14.0525 C   0  0  0  0  0  0  0  0  0  0  0  0
   23.5032   -4.0949  -14.3018 O   0  0  0  0  0  0  0  0  0  0  0  0
   22.0699   -5.1306  -12.8902 O   0  0  0  0  0  0  0  0  0  0  0  0
  2  1  1  6
  2  4  1  0
  3  2  1  0
  4  5  1  1
  6  4  1  0
  6 11  1  0
  7  6  2  0
  8  9  1  0
 10  9  1  1
 10 11  1  0
 10 12  1  0
 12 20  1  0
 13 12  2  0
 15 17  1  0
 15 14  1  0
 16 15  2  0
 18 17  1  0
 19 18  1  1
 20 19  1  0
 21 19  1  0
 21 22  1  0
 23 21  2  0
M  END
$$$$
