TSQ.pdb
     RDKit          3D

 23 22  0  0  1  0  0  0  0  0999 V2000
   19.9790   -9.1437  -17.7827 C   0  0  0  0  0  0  0  0  0  0  0  0
   18.7841   -9.5391  -16.9028 C   0  0  1  0  0  0  0  0  0  0  0  0
   18.3049  -10.7714  -17.2481 O   0  0  0  0  0  0  0  0  0  0  0  0
   19.2577   -9.4213  -15.4766 C   0  0  2  0  0  0  0  0  0  0  0  0
   18.3113  -10.0874  -14.5725 N   0  0  0  0  0  0  0  0  0  0  0  0
   19.5385   -8.0510  -15.0503 C   0  0  0  0  0  0  0  0  0  0  0  0
   18.5502   -7.2331  -15.1024 O   0  0  0  0  0  0  0  0  0  0  0  0
   22.6363   -4.7850  -13.2295 O   0  0  0  0  0  0  0  0  0  0  0  0
   22.4072   -6.0800  -13.6814 C   0  0  0  0  0  0  0  0  0  0  0  0
   20.9767   -6.2357  -14.2096 C   0  0  2  0  0  0  0  0  0  0  0  0
   20.8129   -7.6195  -14.6011 N   0  0  0  0  0  0  0  0  0  0  0  0
   20.7568   -5.3145  -15.3359 C   0  0  0  0  0  0  0  0  0  0  0  0
   20.9886   -5.7184  -16.5063 O   0  0  0  0  0  0  0  0  0  0  0  0
   17.4342   -5.1048  -18.8625 N   0  0  0  0  0  0  0  0  0  0  0  0
   17.7527   -3.7833  -19.2420 C   0  0  0  0  0  0  0  0  0  0  0  0
   17.2387   -3.2821  -20.2625 O   0  0  0  0  0  0  0  0  0  0  0  0
   18.7081   -2.9927  -18.4127 C   0  0  0  0  0  0  0  0  0  0  0  0
   19.1305   -3.8038  -17.2261 C   0  0  0  0  0  0  0  0  0  0  0  0
   20.1077   -3.1235  -16.3219 C   0  0  2  0  0  0  0  0  0  0  0  0
   20.2937   -3.9880  -15.1643 N   0  0  0  0  0  0  0  0  0  0  0  0
   19.6512   -1.8020  -15.8685 C   0  0  0  0  0  0  0  0  0  0  0  0
   19.3440   -1.5814  -14.5388 O   0  0  0  0  0  0  0  0  0  0  0  0
   19.5297   -0.8478  -16.6712 O   0  0  0  0  0  0  0  0  0  0  0  0
  2  1  1  6
  2  4  1  0
  3  2  1  0
  4  5  1  1
  6  4  1  0
  6 11  1  0
  7  6  2  0
  8  9  1  0
 10  9  1  6
 10 11  1  0
 10 12  1  0
 12 20  1  0
 13 12  2  0
 15 17  1  0
 15 14  1  0
 16 15  2  0
 18 17  1  0
 19 18  1  6
 20 19  1  0
 21 19  1  0
 21 22  1  0
 23 21  2  0
M  END
$$$$
