TSQ.pdb
     RDKit          3D

 23 22  0  0  1  0  0  0  0  0999 V2000
   23.1242  -11.8071  -21.6039 C   0  0  0  0  0  0  0  0  0  0  0  0
   23.0115  -11.0057  -20.2988 C   0  0  1  0  0  0  0  0  0  0  0  0
   21.7602  -10.4762  -20.1529 O   0  0  0  0  0  0  0  0  0  0  0  0
   23.4352  -11.9412  -19.1955 C   0  0  2  0  0  0  0  0  0  0  0  0
   22.5735  -13.1304  -19.1814 N   0  0  0  0  0  0  0  0  0  0  0  0
   23.5128  -11.3150  -17.8764 C   0  0  0  0  0  0  0  0  0  0  0  0
   22.4598  -11.4085  -17.1477 O   0  0  0  0  0  0  0  0  0  0  0  0
   26.7960   -9.0822  -16.5359 O   0  0  0  0  0  0  0  0  0  0  0  0
   26.0470   -9.8136  -15.6206 C   0  0  0  0  0  0  0  0  0  0  0  0
   24.6042   -9.9937  -16.1061 C   0  0  2  0  0  0  0  0  0  0  0  0
   24.6652  -10.6385  -17.4006 N   0  0  0  0  0  0  0  0  0  0  0  0
   23.9324   -8.6862  -16.1728 C   0  0  0  0  0  0  0  0  0  0  0  0
   23.8190   -8.1168  -17.2907 O   0  0  0  0  0  0  0  0  0  0  0  0
   19.2061   -7.5374  -17.2993 N   0  0  0  0  0  0  0  0  0  0  0  0
   19.3363   -6.2144  -16.8258 C   0  0  0  0  0  0  0  0  0  0  0  0
   18.4316   -5.3809  -17.0349 O   0  0  0  0  0  0  0  0  0  0  0  0
   20.5640   -5.8226  -16.0741 C   0  0  0  0  0  0  0  0  0  0  0  0
   21.4861   -6.9990  -15.9740 C   0  0  0  0  0  0  0  0  0  0  0  0
   22.7239   -6.7542  -15.1720 C   0  0  2  0  0  0  0  0  0  0  0  0
   23.4041   -8.0349  -15.0325 N   0  0  0  0  0  0  0  0  0  0  0  0
   22.4475   -6.2070  -13.8362 C   0  0  0  0  0  0  0  0  0  0  0  0
   22.2071   -7.0490  -12.7665 O   0  0  0  0  0  0  0  0  0  0  0  0
   22.4230   -4.9707  -13.6347 O   0  0  0  0  0  0  0  0  0  0  0  0
  2  1  1  6
  2  4  1  0
  3  2  1  0
  4  5  1  1
  6  4  1  0
  6 11  1  0
  7  6  2  0
  8  9  1  0
 10  9  1  6
 10 11  1  0
 10 12  1  0
 12 20  1  0
 13 12  2  0
 15 17  1  0
 15 14  1  0
 16 15  2  0
 18 17  1  0
 19 18  1  1
 20 19  1  0
 21 19  1  0
 21 22  1  0
 23 21  2  0
M  END
$$$$
