TSQ.pdb
     RDKit          3D

 23 22  0  0  1  0  0  0  0  0999 V2000
   16.0949   -1.6836  -10.7872 C   0  0  0  0  0  0  0  0  0  0  0  0
   16.8337   -1.2342   -9.5181 C   0  0  1  0  0  0  0  0  0  0  0  0
   16.6381    0.0972   -9.2802 O   0  0  0  0  0  0  0  0  0  0  0  0
   16.3659   -2.1493   -8.4155 C   0  0  2  0  0  0  0  0  0  0  0  0
   16.9763   -1.7566   -7.1388 N   0  0  0  0  0  0  0  0  0  0  0  0
   16.5632   -3.5713   -8.6935 C   0  0  0  0  0  0  0  0  0  0  0  0
   17.7476   -4.0239   -8.4913 O   0  0  0  0  0  0  0  0  0  0  0  0
   14.5020   -6.9097   -7.6827 O   0  0  0  0  0  0  0  0  0  0  0  0
   14.5686   -6.6208   -9.0413 C   0  0  0  0  0  0  0  0  0  0  0  0
   15.8349   -5.8242   -9.3752 C   0  0  2  0  0  0  0  0  0  0  0  0
   15.5309   -4.4258   -9.1585 N   0  0  0  0  0  0  0  0  0  0  0  0
   16.2416   -6.0911  -10.7640 C   0  0  0  0  0  0  0  0  0  0  0  0
   15.6688   -5.4668  -11.6962 O   0  0  0  0  0  0  0  0  0  0  0  0
   21.5340   -8.7943  -12.3715 N   0  0  0  0  0  0  0  0  0  0  0  0
   21.0169   -8.5721  -13.6657 C   0  0  0  0  0  0  0  0  0  0  0  0
   21.7079   -8.8335  -14.6712 O   0  0  0  0  0  0  0  0  0  0  0  0
   19.6385   -8.0228  -13.8197 C   0  0  0  0  0  0  0  0  0  0  0  0
   19.0558   -7.7470  -12.4674 C   0  0  0  0  0  0  0  0  0  0  0  0
   17.6787   -7.1654  -12.4888 C   0  0  2  0  0  0  0  0  0  0  0  0
   17.2528   -7.0217  -11.1031 N   0  0  0  0  0  0  0  0  0  0  0  0
   16.7088   -8.0045  -13.2068 C   0  0  0  0  0  0  0  0  0  0  0  0
   16.5483   -7.8819  -14.5743 O   0  0  0  0  0  0  0  0  0  0  0  0
   16.0071   -8.8471  -12.6007 O   0  0  0  0  0  0  0  0  0  0  0  0
  2  1  1  6
  2  4  1  0
  3  2  1  0
  4  5  1  1
  6  4  1  0
  6 11  1  0
  7  6  2  0
  8  9  1  0
 10  9  1  6
 10 11  1  0
 10 12  1  0
 12 20  1  0
 13 12  2  0
 15 17  1  0
 15 14  1  0
 16 15  2  0
 18 17  1  0
 19 18  1  1
 20 19  1  0
 21 19  1  0
 21 22  1  0
 23 21  2  0
M  END
$$$$
