TSQ.pdb
     RDKit          3D

 23 22  0  0  1  0  0  0  0  0999 V2000
   24.9750  -10.6496  -15.0537 C   0  0  0  0  0  0  0  0  0  0  0  0
   24.9850  -11.1790  -16.4952 C   0  0  1  0  0  0  0  0  0  0  0  0
   25.8945  -12.1882  -16.6426 O   0  0  0  0  0  0  0  0  0  0  0  0
   23.5611  -11.5594  -16.8111 C   0  0  2  0  0  0  0  0  0  0  0  0
   23.4954  -12.2389  -18.1114 N   0  0  0  0  0  0  0  0  0  0  0  0
   22.6134  -10.4485  -16.7339 C   0  0  0  0  0  0  0  0  0  0  0  0
   22.6806   -9.5862  -17.6828 O   0  0  0  0  0  0  0  0  0  0  0  0
   20.0028   -9.6625  -13.4823 O   0  0  0  0  0  0  0  0  0  0  0  0
   19.5955   -9.4774  -14.7989 C   0  0  0  0  0  0  0  0  0  0  0  0
   20.7880   -9.1520  -15.7054 C   0  0  2  0  0  0  0  0  0  0  0  0
   21.6653  -10.3031  -15.6889 N   0  0  0  0  0  0  0  0  0  0  0  0
   21.4643   -7.9367  -15.2246 C   0  0  0  0  0  0  0  0  0  0  0  0
   22.6952   -7.9888  -14.9622 O   0  0  0  0  0  0  0  0  0  0  0  0
   24.9150   -5.5815  -16.0840 N   0  0  0  0  0  0  0  0  0  0  0  0
   24.4307   -4.3027  -16.4331 C   0  0  0  0  0  0  0  0  0  0  0  0
   25.2206   -3.3452  -16.5593 O   0  0  0  0  0  0  0  0  0  0  0  0
   22.9676   -4.1071  -16.6493 C   0  0  0  0  0  0  0  0  0  0  0  0
   22.2465   -5.3936  -16.3862 C   0  0  0  0  0  0  0  0  0  0  0  0
   21.5386   -5.4537  -15.0707 C   0  0  2  0  0  0  0  0  0  0  0  0
   20.7920   -6.7043  -15.0429 N   0  0  0  0  0  0  0  0  0  0  0  0
   20.6103   -4.3333  -14.8631 C   0  0  0  0  0  0  0  0  0  0  0  0
   19.3529   -4.3451  -15.4375 O   0  0  0  0  0  0  0  0  0  0  0  0
   20.9335   -3.3449  -14.1642 O   0  0  0  0  0  0  0  0  0  0  0  0
  2  1  1  1
  2  4  1  0
  3  2  1  0
  4  5  1  6
  6  4  1  0
  6 11  1  0
  7  6  2  0
  8  9  1  0
 10  9  1  1
 10 11  1  0
 10 12  1  0
 12 20  1  0
 13 12  2  0
 15 17  1  0
 15 14  1  0
 16 15  2  0
 18 17  1  0
 19 18  1  6
 20 19  1  0
 21 19  1  0
 21 22  1  0
 23 21  2  0
M  END
$$$$
