TSQ.pdb
     RDKit          3D

 23 22  0  0  1  0  0  0  0  0999 V2000
   19.5990  -11.3988  -15.6730 C   0  0  0  0  0  0  0  0  0  0  0  0
   18.2371  -11.4100  -16.3823 C   0  0  1  0  0  0  0  0  0  0  0  0
   18.0122  -12.6095  -16.9973 O   0  0  0  0  0  0  0  0  0  0  0  0
   17.2180  -11.0339  -15.3373 C   0  0  2  0  0  0  0  0  0  0  0  0
   15.8613  -11.1576  -15.8859 N   0  0  0  0  0  0  0  0  0  0  0  0
   17.4379   -9.7213  -14.7317 C   0  0  0  0  0  0  0  0  0  0  0  0
   17.4753   -8.7274  -15.5437 O   0  0  0  0  0  0  0  0  0  0  0  0
   16.4591   -8.5916  -10.9387 O   0  0  0  0  0  0  0  0  0  0  0  0
   17.7417   -8.2202  -11.3269 C   0  0  0  0  0  0  0  0  0  0  0  0
   17.8680   -8.1849  -12.8541 C   0  0  2  0  0  0  0  0  0  0  0  0
   17.6032   -9.5235  -13.3368 N   0  0  0  0  0  0  0  0  0  0  0  0
   19.2107   -7.7177  -13.2339 C   0  0  0  0  0  0  0  0  0  0  0  0
   20.1566   -8.5488  -13.2695 O   0  0  0  0  0  0  0  0  0  0  0  0
   20.2921   -3.6420  -17.4362 N   0  0  0  0  0  0  0  0  0  0  0  0
   21.6273   -3.7653  -16.9960 C   0  0  0  0  0  0  0  0  0  0  0  0
   22.5510   -3.2186  -17.6322 O   0  0  0  0  0  0  0  0  0  0  0  0
   21.9231   -4.5541  -15.7648 C   0  0  0  0  0  0  0  0  0  0  0  0
   20.6543   -5.1481  -15.2342 C   0  0  0  0  0  0  0  0  0  0  0  0
   20.8238   -5.9882  -14.0092 C   0  0  2  0  0  0  0  0  0  0  0  0
   19.4904   -6.3698  -13.5636 N   0  0  0  0  0  0  0  0  0  0  0  0
   21.5140   -5.2854  -12.9182 C   0  0  0  0  0  0  0  0  0  0  0  0
   20.8011   -4.7638  -11.8548 O   0  0  0  0  0  0  0  0  0  0  0  0
   22.7586   -5.1422  -12.9247 O   0  0  0  0  0  0  0  0  0  0  0  0
  2  1  1  1
  2  4  1  0
  3  2  1  0
  4  5  1  6
  6  4  1  0
  6 11  1  0
  7  6  2  0
  8  9  1  0
 10  9  1  1
 10 11  1  0
 10 12  1  0
 12 20  1  0
 13 12  2  0
 15 17  1  0
 15 14  1  0
 16 15  2  0
 18 17  1  0
 19 18  1  6
 20 19  1  0
 21 19  1  0
 21 22  1  0
 23 21  2  0
M  END
$$$$
