TSQ.pdb
     RDKit          3D

 23 22  0  0  1  0  0  0  0  0999 V2000
   34.7110  -10.0935  -13.8117 C   0  0  0  0  0  0  0  0  0  0  0  0
   35.6838   -8.9069  -13.8741 C   0  0  1  0  0  0  0  0  0  0  0  0
   36.5384   -8.9145  -12.8077 O   0  0  0  0  0  0  0  0  0  0  0  0
   36.3537   -8.9855  -15.2222 C   0  0  2  0  0  0  0  0  0  0  0  0
   37.4821   -8.0475  -15.2820 N   0  0  0  0  0  0  0  0  0  0  0  0
   35.4443   -8.8091  -16.3536 C   0  0  0  0  0  0  0  0  0  0  0  0
   35.4933   -7.6684  -16.9408 O   0  0  0  0  0  0  0  0  0  0  0  0
   32.1291  -10.6265  -19.3922 O   0  0  0  0  0  0  0  0  0  0  0  0
   32.9632  -10.8168  -18.2960 C   0  0  0  0  0  0  0  0  0  0  0  0
   33.6493   -9.5074  -17.8901 C   0  0  2  0  0  0  0  0  0  0  0  0
   34.5510   -9.8161  -16.8008 N   0  0  0  0  0  0  0  0  0  0  0  0
   32.6370   -8.5121  -17.5025 C   0  0  0  0  0  0  0  0  0  0  0  0
   32.0830   -8.6149  -16.3759 O   0  0  0  0  0  0  0  0  0  0  0  0
   33.0989   -2.8400  -17.2263 N   0  0  0  0  0  0  0  0  0  0  0  0
   31.7130   -2.8621  -16.9605 C   0  0  0  0  0  0  0  0  0  0  0  0
   31.1441   -1.8472  -16.5097 O   0  0  0  0  0  0  0  0  0  0  0  0
   30.9362   -4.1083  -17.2234 C   0  0  0  0  0  0  0  0  0  0  0  0
   31.8694   -5.1981  -17.6542 C   0  0  0  0  0  0  0  0  0  0  0  0
   31.2114   -6.5146  -17.9170 C   0  0  2  0  0  0  0  0  0  0  0  0
   32.2551   -7.4380  -18.3415 N   0  0  0  0  0  0  0  0  0  0  0  0
   30.1764   -6.4450  -18.9583 C   0  0  0  0  0  0  0  0  0  0  0  0
   28.8932   -6.0341  -18.6490 O   0  0  0  0  0  0  0  0  0  0  0  0
   30.4298   -6.7546  -20.1455 O   0  0  0  0  0  0  0  0  0  0  0  0
  2  1  1  1
  2  4  1  0
  3  2  1  0
  4  5  1  1
  6  4  1  0
  6 11  1  0
  7  6  2  0
  8  9  1  0
 10  9  1  1
 10 11  1  0
 10 12  1  0
 12 20  1  0
 13 12  2  0
 15 17  1  0
 15 14  1  0
 16 15  2  0
 18 17  1  0
 19 18  1  6
 20 19  1  0
 21 19  1  0
 21 22  1  0
 23 21  2  0
M  END
$$$$
