TSQ.pdb
     RDKit          3D

 23 22  0  0  1  0  0  0  0  0999 V2000
   17.1612  -10.5009  -10.3688 C   0  0  0  0  0  0  0  0  0  0  0  0
   15.7578  -10.9939  -10.7504 C   0  0  1  0  0  0  0  0  0  0  0  0
   15.6948  -12.3590  -10.7359 O   0  0  0  0  0  0  0  0  0  0  0  0
   14.8025  -10.3065   -9.8087 C   0  0  2  0  0  0  0  0  0  0  0  0
   13.4506  -10.8580   -9.9675 N   0  0  0  0  0  0  0  0  0  0  0  0
   14.8060   -8.8479   -9.9117 C   0  0  0  0  0  0  0  0  0  0  0  0
   14.3625   -8.3617  -11.0142 O   0  0  0  0  0  0  0  0  0  0  0  0
   14.9159   -4.4950   -7.9416 O   0  0  0  0  0  0  0  0  0  0  0  0
   14.8339   -5.8785   -7.8278 C   0  0  0  0  0  0  0  0  0  0  0  0
   15.2942   -6.5671   -9.1177 C   0  0  2  0  0  0  0  0  0  0  0  0
   15.2640   -7.9938   -8.8759 N   0  0  0  0  0  0  0  0  0  0  0  0
   16.6407   -6.0981   -9.4815 C   0  0  0  0  0  0  0  0  0  0  0  0
   17.5944   -6.3107   -8.6864 O   0  0  0  0  0  0  0  0  0  0  0  0
   20.4912   -8.5743  -11.4572 N   0  0  0  0  0  0  0  0  0  0  0  0
   19.9120   -8.0811  -12.6459 C   0  0  0  0  0  0  0  0  0  0  0  0
   20.0908   -8.6789  -13.7263 O   0  0  0  0  0  0  0  0  0  0  0  0
   19.0853   -6.8402  -12.5981 C   0  0  0  0  0  0  0  0  0  0  0  0
   19.0556   -6.3123  -11.1965 C   0  0  0  0  0  0  0  0  0  0  0  0
   18.2841   -5.0433  -11.0245 C   0  0  2  0  0  0  0  0  0  0  0  0
   16.9159   -5.4157  -10.6907 N   0  0  0  0  0  0  0  0  0  0  0  0
   18.2748   -4.2052  -12.2319 C   0  0  0  0  0  0  0  0  0  0  0  0
   19.4437   -3.6376  -12.7038 O   0  0  0  0  0  0  0  0  0  0  0  0
   17.2134   -3.9856  -12.8601 O   0  0  0  0  0  0  0  0  0  0  0  0
  2  1  1  1
  2  4  1  0
  3  2  1  0
  4  5  1  6
  6  4  1  0
  6 11  1  0
  7  6  2  0
  8  9  1  0
 10  9  1  1
 10 11  1  0
 10 12  1  0
 12 20  1  0
 13 12  2  0
 15 17  1  0
 15 14  1  0
 16 15  2  0
 18 17  1  0
 19 18  1  6
 20 19  1  0
 21 19  1  0
 21 22  1  0
 23 21  2  0
M  END
$$$$
