TSQ.pdb
     RDKit          3D

 23 22  0  0  1  0  0  0  0  0999 V2000
   19.8026  -11.3621  -21.3543 C   0  0  0  0  0  0  0  0  0  0  0  0
   19.6415  -11.0691  -19.8555 C   0  0  1  0  0  0  0  0  0  0  0  0
   19.1862  -12.1694  -19.1850 O   0  0  0  0  0  0  0  0  0  0  0  0
   20.9758  -10.5488  -19.3851 C   0  0  2  0  0  0  0  0  0  0  0  0
   21.9968  -11.5984  -19.4986 N   0  0  0  0  0  0  0  0  0  0  0  0
   20.9511   -9.9619  -18.0460 C   0  0  0  0  0  0  0  0  0  0  0  0
   20.1476   -8.9743  -17.8805 O   0  0  0  0  0  0  0  0  0  0  0  0
   21.6744  -11.8832  -14.4829 O   0  0  0  0  0  0  0  0  0  0  0  0
   22.3459  -10.6788  -14.6620 C   0  0  0  0  0  0  0  0  0  0  0  0
   21.6246   -9.7907  -15.6822 C   0  0  2  0  0  0  0  0  0  0  0  0
   21.7525  -10.4312  -16.9738 N   0  0  0  0  0  0  0  0  0  0  0  0
   22.2132   -8.4420  -15.6751 C   0  0  0  0  0  0  0  0  0  0  0  0
   23.1844   -8.1980  -16.4394 O   0  0  0  0  0  0  0  0  0  0  0  0
   21.1049   -4.3491  -18.5017 N   0  0  0  0  0  0  0  0  0  0  0  0
   21.9209   -3.5283  -17.6941 C   0  0  0  0  0  0  0  0  0  0  0  0
   22.2224   -2.3778  -18.0712 O   0  0  0  0  0  0  0  0  0  0  0  0
   22.4185   -4.0486  -16.3875 C   0  0  0  0  0  0  0  0  0  0  0  0
   21.9066   -5.4404  -16.1755 C   0  0  0  0  0  0  0  0  0  0  0  0
   22.3521   -6.0810  -14.9002 C   0  0  2  0  0  0  0  0  0  0  0  0
   21.7356   -7.3997  -14.8450 N   0  0  0  0  0  0  0  0  0  0  0  0
   21.9656   -5.3176  -13.7051 C   0  0  0  0  0  0  0  0  0  0  0  0
   22.6345   -4.1568  -13.3644 O   0  0  0  0  0  0  0  0  0  0  0  0
   21.0255   -5.6978  -12.9693 O   0  0  0  0  0  0  0  0  0  0  0  0
  2  1  1  6
  2  4  1  0
  3  2  1  0
  4  5  1  1
  6  4  1  0
  6 11  1  0
  7  6  2  0
  8  9  1  0
 10  9  1  1
 10 11  1  0
 10 12  1  0
 12 20  1  0
 13 12  2  0
 15 17  1  0
 15 14  1  0
 16 15  2  0
 18 17  1  0
 19 18  1  6
 20 19  1  0
 21 19  1  0
 21 22  1  0
 23 21  2  0
M  END
$$$$
