TSQ.pdb
     RDKit          3D

 23 22  0  0  1  0  0  0  0  0999 V2000
   32.6261  -37.6146   -5.4677 C   0  0  0  0  0  0  0  0  0  0  0  0
   33.4306  -36.4532   -6.0697 C   0  0  1  0  0  0  0  0  0  0  0  0
   34.0834  -36.8431   -7.2051 O   0  0  0  0  0  0  0  0  0  0  0  0
   32.4535  -35.3212   -6.2587 C   0  0  2  0  0  0  0  0  0  0  0  0
   33.1117  -34.1907   -6.9264 N   0  0  0  0  0  0  0  0  0  0  0  0
   31.7763  -34.9037   -5.0318 C   0  0  0  0  0  0  0  0  0  0  0  0
   32.5132  -34.3289   -4.1514 O   0  0  0  0  0  0  0  0  0  0  0  0
   28.3372  -32.7770   -4.1637 O   0  0  0  0  0  0  0  0  0  0  0  0
   28.3858  -34.1417   -3.9010 C   0  0  0  0  0  0  0  0  0  0  0  0
   29.8146  -34.5906   -3.5743 C   0  0  2  0  0  0  0  0  0  0  0  0
   30.3920  -35.1059   -4.7974 N   0  0  0  0  0  0  0  0  0  0  0  0
   29.7884  -35.6040   -2.5076 C   0  0  0  0  0  0  0  0  0  0  0  0
   29.3748  -36.7625   -2.7790 O   0  0  0  0  0  0  0  0  0  0  0  0
   33.1084  -37.4519    3.7894 N   0  0  0  0  0  0  0  0  0  0  0  0
   32.7619  -36.6860    2.6558 C   0  0  0  0  0  0  0  0  0  0  0  0
   33.4173  -35.6654    2.3635 O   0  0  0  0  0  0  0  0  0  0  0  0
   31.6064  -37.1079    1.8117 C   0  0  0  0  0  0  0  0  0  0  0  0
   31.4632  -36.1682    0.6538 C   0  0  0  0  0  0  0  0  0  0  0  0
   30.2610  -36.4111   -0.2011 C   0  0  2  0  0  0  0  0  0  0  0  0
   30.2093  -35.3361   -1.1829 N   0  0  0  0  0  0  0  0  0  0  0  0
   29.0045  -36.4286    0.5613 C   0  0  0  0  0  0  0  0  0  0  0  0
   28.2211  -35.2933    0.6533 O   0  0  0  0  0  0  0  0  0  0  0  0
   28.6142  -37.4670    1.1435 O   0  0  0  0  0  0  0  0  0  0  0  0
  2  1  1  6
  2  4  1  0
  3  2  1  0
  4  5  1  1
  6  4  1  0
  6 11  1  0
  7  6  2  0
  8  9  1  0
 10  9  1  6
 10 11  1  0
 10 12  1  0
 12 20  1  0
 13 12  2  0
 15 17  1  0
 15 14  1  0
 16 15  2  0
 18 17  1  0
 19 18  1  1
 20 19  1  0
 21 19  1  0
 21 22  1  0
 23 21  2  0
M  END
$$$$
