TSQ.pdb
     RDKit          3D

 23 22  0  0  1  0  0  0  0  0999 V2000
   18.2305  -12.0062  -14.6950 C   0  0  0  0  0  0  0  0  0  0  0  0
   17.9024  -11.4410  -16.0847 C   0  0  1  0  0  0  0  0  0  0  0  0
   17.6018  -12.4422  -16.9649 O   0  0  0  0  0  0  0  0  0  0  0  0
   16.8036  -10.4304  -15.8765 C   0  0  2  0  0  0  0  0  0  0  0  0
   16.0906  -10.1910  -17.1380 N   0  0  0  0  0  0  0  0  0  0  0  0
   17.2485   -9.1803  -15.2622 C   0  0  0  0  0  0  0  0  0  0  0  0
   17.7961   -8.3298  -16.0529 O   0  0  0  0  0  0  0  0  0  0  0  0
   17.6921   -8.5401  -11.1637 O   0  0  0  0  0  0  0  0  0  0  0  0
   17.1316   -7.5147  -11.9174 C   0  0  0  0  0  0  0  0  0  0  0  0
   17.5577   -7.6127  -13.3866 C   0  0  2  0  0  0  0  0  0  0  0  0
   17.0989   -8.8933  -13.8811 N   0  0  0  0  0  0  0  0  0  0  0  0
   19.0186   -7.4719  -13.4937 C   0  0  0  0  0  0  0  0  0  0  0  0
   19.7200   -8.5071  -13.6457 O   0  0  0  0  0  0  0  0  0  0  0  0
   23.7378   -6.5826  -17.7244 N   0  0  0  0  0  0  0  0  0  0  0  0
   23.0111   -7.2759  -16.7330 C   0  0  0  0  0  0  0  0  0  0  0  0
   22.5083   -8.3893  -16.9866 O   0  0  0  0  0  0  0  0  0  0  0  0
   22.8503   -6.6658  -15.3811 C   0  0  0  0  0  0  0  0  0  0  0  0
   21.4153   -6.7534  -14.9601 C   0  0  0  0  0  0  0  0  0  0  0  0
   21.1177   -6.1415  -13.6289 C   0  0  2  0  0  0  0  0  0  0  0  0
   19.6761   -6.2198  -13.4341 N   0  0  0  0  0  0  0  0  0  0  0  0
   21.5420   -4.7377  -13.5310 C   0  0  0  0  0  0  0  0  0  0  0  0
   22.8353   -4.4172  -13.1627 O   0  0  0  0  0  0  0  0  0  0  0  0
   20.7466   -3.8017  -13.7775 O   0  0  0  0  0  0  0  0  0  0  0  0
  2  1  1  1
  2  4  1  0
  3  2  1  0
  4  5  1  6
  6  4  1  0
  6 11  1  0
  7  6  2  0
  8  9  1  0
 10  9  1  1
 10 11  1  0
 10 12  1  0
 12 20  1  0
 13 12  2  0
 15 17  1  0
 15 14  1  0
 16 15  2  0
 18 17  1  0
 19 18  1  6
 20 19  1  0
 21 19  1  0
 21 22  1  0
 23 21  2  0
M  END
$$$$
