TSQ.pdb
     RDKit          3D

 23 22  0  0  1  0  0  0  0  0999 V2000
   21.6592  -11.0998  -16.0875 C   0  0  0  0  0  0  0  0  0  0  0  0
   20.8251  -11.3017  -17.3609 C   0  0  1  0  0  0  0  0  0  0  0  0
   20.9152  -12.5895  -17.8093 O   0  0  0  0  0  0  0  0  0  0  0  0
   19.4286  -10.8457  -17.0230 C   0  0  2  0  0  0  0  0  0  0  0  0
   18.5078  -11.1828  -18.1163 N   0  0  0  0  0  0  0  0  0  0  0  0
   19.3330   -9.4345  -16.6523 C   0  0  0  0  0  0  0  0  0  0  0  0
   19.9928   -8.6147  -17.3878 O   0  0  0  0  0  0  0  0  0  0  0  0
   16.3084   -8.1219  -14.5684 O   0  0  0  0  0  0  0  0  0  0  0  0
   17.3915   -7.2920  -14.3003 C   0  0  0  0  0  0  0  0  0  0  0  0
   18.5382   -7.5447  -15.2856 C   0  0  2  0  0  0  0  0  0  0  0  0
   18.5670   -8.9667  -15.5538 N   0  0  0  0  0  0  0  0  0  0  0  0
   19.8056   -7.0665  -14.7108 C   0  0  0  0  0  0  0  0  0  0  0  0
   20.5544   -7.8893  -14.1200 O   0  0  0  0  0  0  0  0  0  0  0  0
   24.4307   -7.4483  -16.5030 N   0  0  0  0  0  0  0  0  0  0  0  0
   23.6295   -6.5708  -17.2644 C   0  0  0  0  0  0  0  0  0  0  0  0
   23.8178   -6.4549  -18.4924 O   0  0  0  0  0  0  0  0  0  0  0  0
   22.5571   -5.7846  -16.5881 C   0  0  0  0  0  0  0  0  0  0  0  0
   22.5425   -6.1125  -15.1265 C   0  0  0  0  0  0  0  0  0  0  0  0
   21.5503   -5.3345  -14.3230 C   0  0  2  0  0  0  0  0  0  0  0  0
   20.2252   -5.7170  -14.7918 N   0  0  0  0  0  0  0  0  0  0  0  0
   21.7093   -3.8799  -14.4611 C   0  0  0  0  0  0  0  0  0  0  0  0
   20.7436   -3.1235  -15.0986 O   0  0  0  0  0  0  0  0  0  0  0  0
   22.7184   -3.2923  -14.0071 O   0  0  0  0  0  0  0  0  0  0  0  0
  2  1  1  1
  2  4  1  0
  3  2  1  0
  4  5  1  6
  6  4  1  0
  6 11  1  0
  7  6  2  0
  8  9  1  0
 10  9  1  1
 10 11  1  0
 10 12  1  0
 12 20  1  0
 13 12  2  0
 15 17  1  0
 15 14  1  0
 16 15  2  0
 18 17  1  0
 19 18  1  6
 20 19  1  0
 21 19  1  0
 21 22  1  0
 23 21  2  0
M  END
$$$$
