TMD.pdb
     RDKit          3D

 24 23  0  0  1  0  0  0  0  0999 V2000
    6.9192  -14.2701   17.3893 C   0  0  0  0  0  0  0  0  0  0  0  0
    7.4196  -14.4700   18.7734 C   0  0  1  0  0  0  0  0  0  0  0  0
    8.6359  -15.1465   18.7284 O   0  0  0  0  0  0  0  0  0  0  0  0
    7.6390  -13.1985   19.5674 C   0  0  2  0  0  0  0  0  0  0  0  0
    8.5961  -12.4279   18.7656 N   0  0  0  0  0  0  0  0  0  0  0  0
    8.1196  -13.4560   20.9357 C   0  0  0  0  0  0  0  0  0  0  0  0
    9.3708  -13.5524   21.1357 O   0  0  0  0  0  0  0  0  0  0  0  0
    7.2510  -12.5112   28.6674 C   0  0  0  0  0  0  0  0  0  0  0  0
    6.3946  -12.5451   27.0655 S   0  0  0  0  0  0  0  0  0  0  0  0
    7.4782  -13.4029   25.8628 C   0  0  0  0  0  0  0  0  0  0  0  0
    6.9384  -13.2361   24.4648 C   0  0  0  0  0  0  0  0  0  0  0  0
    7.8226  -13.8630   23.4245 C   0  0  2  0  0  0  0  0  0  0  0  0
    7.3022  -13.6108   22.0786 N   0  0  0  0  0  0  0  0  0  0  0  0
    8.1090  -15.2844   23.6324 C   0  0  0  0  0  0  0  0  0  0  0  0
    7.5619  -16.1919   22.9683 O   0  0  0  0  0  0  0  0  0  0  0  0
    9.0454  -15.7463   24.6189 N   0  0  0  0  0  0  0  0  0  0  0  0
    9.8709  -16.9322   24.4335 C   0  0  1  0  0  0  0  0  0  0  0  0
   10.6434  -16.8698   23.1420 C   0  0  0  0  0  0  0  0  0  0  0  0
   11.6191  -17.9729   23.0062 C   0  0  0  0  0  0  0  0  0  0  0  0
   11.7465  -18.8788   23.8690 O   0  0  0  0  0  0  0  0  0  0  0  0
   10.7642  -17.0452   25.6013 C   0  0  0  0  0  0  0  0  0  0  0  0
   10.6657  -18.1542   26.4394 O   0  0  0  0  0  0  0  0  0  0  0  0
   12.4531  -18.0473   21.8863 O   0  0  0  0  0  0  0  0  0  0  0  0
   11.6101  -16.1595   25.8522 O   0  0  0  0  0  0  0  0  0  0  0  0
  2  1  1  6
  2  3  1  0
  4  6  1  0
  4  2  1  0
  4  5  1  6
  6 13  1  0
  6  7  2  0
  8  9  1  0
  9 10  1  0
 10 11  1  0
 12 11  1  1
 12 14  1  0
 13 12  1  0
 14 16  1  0
 14 15  2  0
 16 17  1  0
 17 21  1  0
 17 18  1  6
 19 20  2  0
 19 18  1  0
 21 22  1  0
 23 19  1  0
 24 21  2  0
M  END
$$$$
