TMD.pdb
     RDKit          3D

 24 23  0  0  1  0  0  0  0  0999 V2000
    7.8978  -18.4843   21.5572 C   0  0  0  0  0  0  0  0  0  0  0  0
    8.1863  -17.5853   20.4106 C   0  0  1  0  0  0  0  0  0  0  0  0
    7.7589  -18.1925   19.2326 O   0  0  0  0  0  0  0  0  0  0  0  0
    7.5283  -16.2225   20.4810 C   0  0  2  0  0  0  0  0  0  0  0  0
    7.7242  -15.6529   19.1431 N   0  0  0  0  0  0  0  0  0  0  0  0
    8.0858  -15.3741   21.5482 C   0  0  0  0  0  0  0  0  0  0  0  0
    9.1704  -14.7495   21.3283 O   0  0  0  0  0  0  0  0  0  0  0  0
    7.0339  -11.1155   28.1273 C   0  0  0  0  0  0  0  0  0  0  0  0
    6.3145  -12.3304   26.9841 S   0  0  0  0  0  0  0  0  0  0  0  0
    7.6431  -12.9076   25.8625 C   0  0  0  0  0  0  0  0  0  0  0  0
    7.0685  -13.7993   24.7908 C   0  0  0  0  0  0  0  0  0  0  0  0
    8.1212  -14.3529   23.8729 C   0  0  2  0  0  0  0  0  0  0  0  0
    7.5164  -15.1824   22.8278 N   0  0  0  0  0  0  0  0  0  0  0  0
    9.2209  -15.0503   24.5436 C   0  0  0  0  0  0  0  0  0  0  0  0
    9.8778  -14.5420   25.4785 O   0  0  0  0  0  0  0  0  0  0  0  0
    9.6298  -16.3778   24.1776 N   0  0  0  0  0  0  0  0  0  0  0  0
   10.7203  -17.0815   24.8392 C   0  0  1  0  0  0  0  0  0  0  0  0
   10.4434  -18.5587   24.9385 C   0  0  0  0  0  0  0  0  0  0  0  0
    9.3531  -18.8730   25.8869 C   0  0  0  0  0  0  0  0  0  0  0  0
    8.4565  -19.7186   25.6370 O   0  0  0  0  0  0  0  0  0  0  0  0
   11.9568  -16.8052   24.0849 C   0  0  0  0  0  0  0  0  0  0  0  0
   13.1792  -17.2614   24.5744 O   0  0  0  0  0  0  0  0  0  0  0  0
    9.2810  -18.2248   27.1238 O   0  0  0  0  0  0  0  0  0  0  0  0
   11.9258  -16.1662   23.0107 O   0  0  0  0  0  0  0  0  0  0  0  0
  2  1  1  1
  2  3  1  0
  4  6  1  0
  4  2  1  0
  4  5  1  6
  6 13  1  0
  6  7  2  0
  8  9  1  0
  9 10  1  0
 10 11  1  0
 12 11  1  1
 12 14  1  0
 13 12  1  0
 14 16  1  0
 14 15  2  0
 16 17  1  0
 17 21  1  0
 17 18  1  6
 19 20  2  0
 19 18  1  0
 21 22  1  0
 23 19  1  0
 24 21  2  0
M  END
$$$$
