TMD.pdb
     RDKit          3D

 24 23  0  0  1  0  0  0  0  0999 V2000
    6.6004  -17.1347   18.7450 C   0  0  0  0  0  0  0  0  0  0  0  0
    7.2278  -16.7680   20.0403 C   0  0  1  0  0  0  0  0  0  0  0  0
    8.3310  -17.5876   20.2641 O   0  0  0  0  0  0  0  0  0  0  0  0
    7.7034  -15.3330   20.1406 C   0  0  2  0  0  0  0  0  0  0  0  0
    8.7067  -15.2057   19.0777 N   0  0  0  0  0  0  0  0  0  0  0  0
    8.2390  -15.0011   21.4720 C   0  0  0  0  0  0  0  0  0  0  0  0
    9.4748  -15.1924   21.6984 O   0  0  0  0  0  0  0  0  0  0  0  0
    6.7447  -10.6167   26.7646 C   0  0  0  0  0  0  0  0  0  0  0  0
    6.3857  -12.3558   27.1481 S   0  0  0  0  0  0  0  0  0  0  0  0
    7.5478  -13.3981   26.1890 C   0  0  0  0  0  0  0  0  0  0  0  0
    7.0635  -13.5456   24.7686 C   0  0  0  0  0  0  0  0  0  0  0  0
    8.0196  -14.3232   23.9092 C   0  0  2  0  0  0  0  0  0  0  0  0
    7.4919  -14.4768   22.5514 N   0  0  0  0  0  0  0  0  0  0  0  0
    8.4479  -15.6077   24.4680 C   0  0  0  0  0  0  0  0  0  0  0  0
    7.7193  -16.6242   24.4706 O   0  0  0  0  0  0  0  0  0  0  0  0
    9.7438  -15.7988   25.0574 N   0  0  0  0  0  0  0  0  0  0  0  0
   10.2028  -17.0863   25.5613 C   0  0  1  0  0  0  0  0  0  0  0  0
   11.5593  -17.4418   25.0113 C   0  0  0  0  0  0  0  0  0  0  0  0
   12.1407  -18.6394   25.6553 C   0  0  0  0  0  0  0  0  0  0  0  0
   11.6460  -19.7885   25.5276 O   0  0  0  0  0  0  0  0  0  0  0  0
   10.2099  -17.0161   27.0341 C   0  0  0  0  0  0  0  0  0  0  0  0
   10.4613  -18.1675   27.7777 O   0  0  0  0  0  0  0  0  0  0  0  0
   13.2883  -18.5316   26.4470 O   0  0  0  0  0  0  0  0  0  0  0  0
    9.9928  -15.9374   27.6278 O   0  0  0  0  0  0  0  0  0  0  0  0
  2  1  1  6
  2  3  1  0
  4  6  1  0
  4  2  1  0
  4  5  1  6
  6 13  1  0
  6  7  2  0
  8  9  1  0
  9 10  1  0
 10 11  1  0
 12 11  1  1
 12 14  1  0
 13 12  1  0
 14 16  1  0
 14 15  2  0
 16 17  1  0
 17 21  1  0
 17 18  1  6
 19 20  2  0
 19 18  1  0
 21 22  1  0
 23 19  1  0
 24 21  2  0
M  END
$$$$
