TMD.pdb
     RDKit          3D

 24 23  0  0  1  0  0  0  0  0999 V2000
    6.9282  -16.9086   19.1166 C   0  0  0  0  0  0  0  0  0  0  0  0
    7.5045  -16.4871   20.4191 C   0  0  1  0  0  0  0  0  0  0  0  0
    8.8210  -16.9327   20.5041 O   0  0  0  0  0  0  0  0  0  0  0  0
    7.5171  -14.9917   20.6624 C   0  0  2  0  0  0  0  0  0  0  0  0
    8.2486  -14.4413   19.5158 N   0  0  0  0  0  0  0  0  0  0  0  0
    8.1260  -14.6289   21.9536 C   0  0  0  0  0  0  0  0  0  0  0  0
    9.3003  -14.1433   21.9603 O   0  0  0  0  0  0  0  0  0  0  0  0
    6.1150  -10.2195   27.0887 C   0  0  0  0  0  0  0  0  0  0  0  0
    6.5878  -11.9700   27.2010 S   0  0  0  0  0  0  0  0  0  0  0  0
    6.7290  -12.6283   25.4972 C   0  0  0  0  0  0  0  0  0  0  0  0
    7.1415  -14.0783   25.5321 C   0  0  0  0  0  0  0  0  0  0  0  0
    8.1637  -14.4145   24.4835 C   0  0  2  0  0  0  0  0  0  0  0  0
    7.5146  -14.7726   23.2201 N   0  0  0  0  0  0  0  0  0  0  0  0
    9.1520  -15.4187   24.8838 C   0  0  0  0  0  0  0  0  0  0  0  0
    9.8148  -15.3358   25.9411 O   0  0  0  0  0  0  0  0  0  0  0  0
    9.4357  -16.5813   24.0893 N   0  0  0  0  0  0  0  0  0  0  0  0
   10.4770  -17.5405   24.4324 C   0  0  1  0  0  0  0  0  0  0  0  0
   10.1512  -18.9169   23.9146 C   0  0  0  0  0  0  0  0  0  0  0  0
    9.7903  -19.8623   24.9931 C   0  0  0  0  0  0  0  0  0  0  0  0
    9.1462  -19.5144   26.0156 O   0  0  0  0  0  0  0  0  0  0  0  0
   11.7503  -17.0366   23.8856 C   0  0  0  0  0  0  0  0  0  0  0  0
   12.8863  -17.0148   24.6925 O   0  0  0  0  0  0  0  0  0  0  0  0
   10.1621  -21.2077   24.9099 O   0  0  0  0  0  0  0  0  0  0  0  0
   11.8269  -16.6270   22.7069 O   0  0  0  0  0  0  0  0  0  0  0  0
  2  1  1  6
  2  3  1  0
  4  6  1  0
  4  2  1  0
  4  5  1  6
  6 13  1  0
  6  7  2  0
  8  9  1  0
  9 10  1  0
 10 11  1  0
 12 11  1  1
 12 14  1  0
 13 12  1  0
 14 16  1  0
 14 15  2  0
 16 17  1  0
 17 21  1  0
 17 18  1  6
 19 20  2  0
 19 18  1  0
 21 22  1  0
 23 19  1  0
 24 21  2  0
M  END
$$$$
