TMD.pdb
     RDKit          3D

 24 23  0  0  1  0  0  0  0  0999 V2000
    7.0456  -18.2284   19.6292 C   0  0  0  0  0  0  0  0  0  0  0  0
    7.5575  -17.4769   20.8037 C   0  0  1  0  0  0  0  0  0  0  0  0
    8.6807  -18.1261   21.3097 O   0  0  0  0  0  0  0  0  0  0  0  0
    7.9527  -16.0410   20.5255 C   0  0  2  0  0  0  0  0  0  0  0  0
    8.9670  -16.1394   19.4699 N   0  0  0  0  0  0  0  0  0  0  0  0
    8.4451  -15.3421   21.7249 C   0  0  0  0  0  0  0  0  0  0  0  0
    9.6993  -15.2606   21.9128 O   0  0  0  0  0  0  0  0  0  0  0  0
    6.8343  -10.9967   28.2120 C   0  0  0  0  0  0  0  0  0  0  0  0
    6.1952  -11.7414   26.6831 S   0  0  0  0  0  0  0  0  0  0  0  0
    7.5615  -12.6714   25.8927 C   0  0  0  0  0  0  0  0  0  0  0  0
    7.1045  -13.2500   24.5774 C   0  0  0  0  0  0  0  0  0  0  0  0
    8.1674  -14.0735   23.9070 C   0  0  2  0  0  0  0  0  0  0  0  0
    7.6363  -14.7374   22.7141 N   0  0  0  0  0  0  0  0  0  0  0  0
    8.8615  -15.0189   24.7844 C   0  0  0  0  0  0  0  0  0  0  0  0
    9.4391  -14.6702   25.8373 O   0  0  0  0  0  0  0  0  0  0  0  0
    8.9310  -16.4256   24.5015 N   0  0  0  0  0  0  0  0  0  0  0  0
    9.5527  -17.3853   25.4039 C   0  0  1  0  0  0  0  0  0  0  0  0
    9.3772  -18.7982   24.9123 C   0  0  0  0  0  0  0  0  0  0  0  0
   10.0651  -19.7900   25.7668 C   0  0  0  0  0  0  0  0  0  0  0  0
   10.2790  -19.6011   26.9915 O   0  0  0  0  0  0  0  0  0  0  0  0
   10.9762  -17.0233   25.5340 C   0  0  0  0  0  0  0  0  0  0  0  0
   11.5052  -16.7490   26.7937 O   0  0  0  0  0  0  0  0  0  0  0  0
   10.5117  -21.0007   25.2284 O   0  0  0  0  0  0  0  0  0  0  0  0
   11.7177  -16.9579   24.5294 O   0  0  0  0  0  0  0  0  0  0  0  0
  2  1  1  6
  2  3  1  0
  4  6  1  0
  4  2  1  0
  4  5  1  6
  6 13  1  0
  6  7  2  0
  8  9  1  0
  9 10  1  0
 10 11  1  0
 12 11  1  1
 12 14  1  0
 13 12  1  0
 14 16  1  0
 14 15  2  0
 16 17  1  0
 17 21  1  0
 17 18  1  6
 19 20  2  0
 19 18  1  0
 21 22  1  0
 23 19  1  0
 24 21  2  0
M  END
$$$$
