TMD.pdb
     RDKit          3D

 24 23  0  0  1  0  0  0  0  0999 V2000
    7.1965  -16.1826   19.3310 C   0  0  0  0  0  0  0  0  0  0  0  0
    7.9681  -14.9965   18.8797 C   0  0  1  0  0  0  0  0  0  0  0  0
    7.6461  -14.7167   17.5542 O   0  0  0  0  0  0  0  0  0  0  0  0
    7.7290  -13.7320   19.6792 C   0  0  2  0  0  0  0  0  0  0  0  0
    8.4053  -12.6807   18.9108 N   0  0  0  0  0  0  0  0  0  0  0  0
    8.2208  -13.8309   21.0641 C   0  0  0  0  0  0  0  0  0  0  0  0
    9.4749  -13.8226   21.2691 O   0  0  0  0  0  0  0  0  0  0  0  0
    6.3910  -10.7895   26.7946 C   0  0  0  0  0  0  0  0  0  0  0  0
    6.2677  -12.5784   27.0864 S   0  0  0  0  0  0  0  0  0  0  0  0
    7.4604  -13.4162   25.9764 C   0  0  0  0  0  0  0  0  0  0  0  0
    6.9814  -13.3442   24.5484 C   0  0  0  0  0  0  0  0  0  0  0  0
    7.9409  -13.9809   23.5834 C   0  0  2  0  0  0  0  0  0  0  0  0
    7.4115  -13.9374   22.2182 N   0  0  0  0  0  0  0  0  0  0  0  0
    8.3787  -15.3304   23.9475 C   0  0  0  0  0  0  0  0  0  0  0  0
    7.6350  -16.3322   23.8619 O   0  0  0  0  0  0  0  0  0  0  0  0
    9.7023  -15.6076   24.4319 N   0  0  0  0  0  0  0  0  0  0  0  0
   10.1443  -16.9434   24.8092 C   0  0  1  0  0  0  0  0  0  0  0  0
   11.5958  -17.1602   24.4702 C   0  0  0  0  0  0  0  0  0  0  0  0
   11.8545  -17.1209   23.0147 C   0  0  0  0  0  0  0  0  0  0  0  0
   11.1530  -17.7498   22.1817 O   0  0  0  0  0  0  0  0  0  0  0  0
    9.8874  -17.1114   26.2514 C   0  0  0  0  0  0  0  0  0  0  0  0
    9.5414  -16.0040   27.0233 O   0  0  0  0  0  0  0  0  0  0  0  0
   12.9136  -16.3646   22.5033 O   0  0  0  0  0  0  0  0  0  0  0  0
    9.9760  -18.2342   26.7941 O   0  0  0  0  0  0  0  0  0  0  0  0
  2  1  1  1
  2  3  1  0
  4  6  1  0
  4  2  1  0
  4  5  1  6
  6 13  1  0
  6  7  2  0
  8  9  1  0
  9 10  1  0
 10 11  1  0
 12 11  1  1
 12 14  1  0
 13 12  1  0
 14 16  1  0
 14 15  2  0
 16 17  1  0
 17 21  1  0
 17 18  1  1
 19 20  2  0
 19 18  1  0
 21 22  1  0
 23 19  1  0
 24 21  2  0
M  END
$$$$
