TMD.pdb
     RDKit          3D

 24 23  0  0  1  0  0  0  0  0999 V2000
    7.2429  -16.3424   20.3045 C   0  0  0  0  0  0  0  0  0  0  0  0
    7.8628  -15.0765   19.8359 C   0  0  1  0  0  0  0  0  0  0  0  0
    7.5042  -14.8537   18.5090 O   0  0  0  0  0  0  0  0  0  0  0  0
    7.4746  -13.8412   20.6224 C   0  0  2  0  0  0  0  0  0  0  0  0
    7.9749  -12.7225   19.8156 N   0  0  0  0  0  0  0  0  0  0  0  0
    8.0168  -13.8428   21.9919 C   0  0  0  0  0  0  0  0  0  0  0  0
    9.1648  -13.3371   22.1951 O   0  0  0  0  0  0  0  0  0  0  0  0
    6.9299  -11.7167   28.0432 C   0  0  0  0  0  0  0  0  0  0  0  0
    7.1181  -11.5201   26.2470 S   0  0  0  0  0  0  0  0  0  0  0  0
    6.0983  -12.8026   25.4276 C   0  0  0  0  0  0  0  0  0  0  0  0
    6.7910  -14.1403   25.4957 C   0  0  0  0  0  0  0  0  0  0  0  0
    7.9022  -14.2681   24.4927 C   0  0  2  0  0  0  0  0  0  0  0  0
    7.3669  -14.3668   23.1327 N   0  0  0  0  0  0  0  0  0  0  0  0
    8.8650  -15.3365   24.7703 C   0  0  0  0  0  0  0  0  0  0  0  0
    9.4106  -15.4865   25.8856 O   0  0  0  0  0  0  0  0  0  0  0  0
    9.2570  -16.2987   23.7783 N   0  0  0  0  0  0  0  0  0  0  0  0
   10.4227  -17.1596   23.9268 C   0  0  1  0  0  0  0  0  0  0  0  0
   11.6926  -16.4357   23.5638 C   0  0  0  0  0  0  0  0  0  0  0  0
   12.9056  -17.2328   23.8475 C   0  0  0  0  0  0  0  0  0  0  0  0
   13.1793  -17.6707   24.9941 O   0  0  0  0  0  0  0  0  0  0  0  0
   10.4479  -17.6461   25.3185 C   0  0  0  0  0  0  0  0  0  0  0  0
   10.5659  -19.0118   25.5692 O   0  0  0  0  0  0  0  0  0  0  0  0
   13.8109  -17.5337   22.8252 O   0  0  0  0  0  0  0  0  0  0  0  0
   10.3644  -16.8507   26.2796 O   0  0  0  0  0  0  0  0  0  0  0  0
  2  1  1  1
  2  3  1  0
  4  6  1  0
  4  2  1  0
  4  5  1  6
  6 13  1  0
  6  7  2  0
  8  9  1  0
  9 10  1  0
 10 11  1  0
 12 11  1  1
 12 14  1  0
 13 12  1  0
 14 16  1  0
 14 15  2  0
 16 17  1  0
 17 21  1  0
 17 18  1  1
 19 20  2  0
 19 18  1  0
 21 22  1  0
 23 19  1  0
 24 21  2  0
M  END
$$$$
