TMD.pdb
     RDKit          3D

 24 23  0  0  1  0  0  0  0  0999 V2000
    8.0677  -12.3186   19.6969 C   0  0  0  0  0  0  0  0  0  0  0  0
    7.6285  -13.7356   19.7700 C   0  0  1  0  0  0  0  0  0  0  0  0
    7.2887  -14.1771   18.4939 O   0  0  0  0  0  0  0  0  0  0  0  0
    8.6582  -14.6999   20.3224 C   0  0  2  0  0  0  0  0  0  0  0  0
    8.0279  -16.0189   20.1962 N   0  0  0  0  0  0  0  0  0  0  0  0
    9.0491  -14.3857   21.7073 C   0  0  0  0  0  0  0  0  0  0  0  0
    9.5933  -13.2629   21.9487 O   0  0  0  0  0  0  0  0  0  0  0  0
    6.4078  -11.2746   27.6329 C   0  0  0  0  0  0  0  0  0  0  0  0
    6.4999  -11.8041   25.8975 S   0  0  0  0  0  0  0  0  0  0  0  0
    7.6696  -13.2105   25.7964 C   0  0  0  0  0  0  0  0  0  0  0  0
    7.8439  -13.6403   24.3616 C   0  0  0  0  0  0  0  0  0  0  0  0
    8.8330  -14.7609   24.2094 C   0  0  2  0  0  0  0  0  0  0  0  0
    8.8735  -15.2347   22.8238 N   0  0  0  0  0  0  0  0  0  0  0  0
    8.6608  -15.8691   25.1516 C   0  0  0  0  0  0  0  0  0  0  0  0
    8.4637  -15.6966   26.3745 O   0  0  0  0  0  0  0  0  0  0  0  0
    8.7044  -17.2448   24.7408 N   0  0  0  0  0  0  0  0  0  0  0  0
    9.8885  -18.0798   24.8926 C   0  0  1  0  0  0  0  0  0  0  0  0
   10.9506  -17.7182   23.8877 C   0  0  0  0  0  0  0  0  0  0  0  0
   12.1381  -18.5957   23.9708 C   0  0  0  0  0  0  0  0  0  0  0  0
   12.1830  -19.7324   23.4348 O   0  0  0  0  0  0  0  0  0  0  0  0
   10.3706  -17.9287   26.2778 C   0  0  0  0  0  0  0  0  0  0  0  0
   10.7674  -19.0550   26.9961 O   0  0  0  0  0  0  0  0  0  0  0  0
   13.2787  -18.1808   24.6651 O   0  0  0  0  0  0  0  0  0  0  0  0
   10.4286  -16.8034   26.8196 O   0  0  0  0  0  0  0  0  0  0  0  0
  2  1  1  6
  2  3  1  0
  4  6  1  0
  4  2  1  0
  4  5  1  1
  6 13  1  0
  6  7  2  0
  8  9  1  0
  9 10  1  0
 10 11  1  0
 12 11  1  6
 12 14  1  0
 13 12  1  0
 14 16  1  0
 14 15  2  0
 16 17  1  0
 17 21  1  0
 17 18  1  6
 19 20  2  0
 19 18  1  0
 21 22  1  0
 23 19  1  0
 24 21  2  0
M  END
$$$$
