TMD.pdb
     RDKit          3D

 24 23  0  0  1  0  0  0  0  0999 V2000
    6.9385  -18.0551   20.8651 C   0  0  0  0  0  0  0  0  0  0  0  0
    7.9827  -17.4035   20.0336 C   0  0  1  0  0  0  0  0  0  0  0  0
    7.7465  -17.6913   18.6918 O   0  0  0  0  0  0  0  0  0  0  0  0
    8.0613  -15.8962   20.1653 C   0  0  2  0  0  0  0  0  0  0  0  0
    9.0014  -15.4865   19.1161 N   0  0  0  0  0  0  0  0  0  0  0  0
    8.4822  -15.4620   21.5084 C   0  0  0  0  0  0  0  0  0  0  0  0
    9.7246  -15.3768   21.7614 O   0  0  0  0  0  0  0  0  0  0  0  0
    7.1257  -10.9971   27.8253 C   0  0  0  0  0  0  0  0  0  0  0  0
    6.4397  -11.7380   26.3150 S   0  0  0  0  0  0  0  0  0  0  0  0
    7.6156  -13.0135   25.7261 C   0  0  0  0  0  0  0  0  0  0  0  0
    7.1411  -13.5943   24.4179 C   0  0  0  0  0  0  0  0  0  0  0  0
    8.0754  -14.6385   23.8757 C   0  0  2  0  0  0  0  0  0  0  0  0
    7.6151  -15.1221   22.5718 N   0  0  0  0  0  0  0  0  0  0  0  0
    8.3608  -15.7467   24.7900 C   0  0  0  0  0  0  0  0  0  0  0  0
    8.0858  -15.7094   26.0094 O   0  0  0  0  0  0  0  0  0  0  0  0
    8.9801  -16.9671   24.3533 N   0  0  0  0  0  0  0  0  0  0  0  0
   10.3674  -17.3006   24.6470 C   0  0  1  0  0  0  0  0  0  0  0  0
   11.3143  -16.2867   24.0602 C   0  0  0  0  0  0  0  0  0  0  0  0
   12.7341  -16.6540   24.2505 C   0  0  0  0  0  0  0  0  0  0  0  0
   13.0917  -17.7353   24.7837 O   0  0  0  0  0  0  0  0  0  0  0  0
   10.5064  -17.3965   26.1118 C   0  0  0  0  0  0  0  0  0  0  0  0
   10.4781  -16.2369   26.8842 O   0  0  0  0  0  0  0  0  0  0  0  0
   13.7516  -15.7902   23.8336 O   0  0  0  0  0  0  0  0  0  0  0  0
   10.6501  -18.5044   26.6731 O   0  0  0  0  0  0  0  0  0  0  0  0
  2  1  1  1
  2  3  1  0
  4  6  1  0
  4  2  1  0
  4  5  1  6
  6 13  1  0
  6  7  2  0
  8  9  1  0
  9 10  1  0
 10 11  1  0
 12 11  1  1
 12 14  1  0
 13 12  1  0
 14 16  1  0
 14 15  2  0
 16 17  1  0
 17 21  1  0
 17 18  1  1
 19 20  2  0
 19 18  1  0
 21 22  1  0
 23 19  1  0
 24 21  2  0
M  END
$$$$
