TMD.pdb
     RDKit          3D

 24 23  0  0  1  0  0  0  0  0999 V2000
    7.4185  -16.1341   19.5500 C   0  0  0  0  0  0  0  0  0  0  0  0
    7.9206  -14.8433   19.0134 C   0  0  1  0  0  0  0  0  0  0  0  0
    7.4004  -14.6435   17.7372 O   0  0  0  0  0  0  0  0  0  0  0  0
    7.5695  -13.6234   19.8403 C   0  0  2  0  0  0  0  0  0  0  0  0
    8.0493  -12.4901   19.0413 N   0  0  0  0  0  0  0  0  0  0  0  0
    8.1598  -13.6593   21.1893 C   0  0  0  0  0  0  0  0  0  0  0  0
    9.4075  -13.4542   21.3159 O   0  0  0  0  0  0  0  0  0  0  0  0
    6.4139  -10.9850   26.7654 C   0  0  0  0  0  0  0  0  0  0  0  0
    6.7073  -12.6740   27.3667 S   0  0  0  0  0  0  0  0  0  0  0  0
    7.7771  -13.5297   26.1502 C   0  0  0  0  0  0  0  0  0  0  0  0
    7.2008  -13.3929   24.7635 C   0  0  0  0  0  0  0  0  0  0  0  0
    8.0895  -13.9850   23.7066 C   0  0  2  0  0  0  0  0  0  0  0  0
    7.4543  -13.9070   22.3890 N   0  0  0  0  0  0  0  0  0  0  0  0
    8.5714  -15.3385   23.9919 C   0  0  0  0  0  0  0  0  0  0  0  0
    7.8565  -16.3560   23.8596 O   0  0  0  0  0  0  0  0  0  0  0  0
    9.9085  -15.6015   24.4463 N   0  0  0  0  0  0  0  0  0  0  0  0
   10.4015  -16.9441   24.7225 C   0  0  1  0  0  0  0  0  0  0  0  0
   11.8793  -17.0550   24.4531 C   0  0  0  0  0  0  0  0  0  0  0  0
   12.1795  -17.3944   23.0453 C   0  0  0  0  0  0  0  0  0  0  0  0
   11.3271  -17.8987   22.2703 O   0  0  0  0  0  0  0  0  0  0  0  0
   10.0746  -17.2637   26.1243 C   0  0  0  0  0  0  0  0  0  0  0  0
   10.1344  -18.5855   26.5618 O   0  0  0  0  0  0  0  0  0  0  0  0
   13.4522  -17.1601   22.5158 O   0  0  0  0  0  0  0  0  0  0  0  0
    9.7432  -16.3655   26.9284 O   0  0  0  0  0  0  0  0  0  0  0  0
  2  1  1  1
  2  3  1  0
  4  6  1  0
  4  2  1  0
  4  5  1  6
  6 13  1  0
  6  7  2  0
  8  9  1  0
  9 10  1  0
 10 11  1  0
 12 11  1  1
 12 14  1  0
 13 12  1  0
 14 16  1  0
 14 15  2  0
 16 17  1  0
 17 21  1  0
 17 18  1  1
 19 20  2  0
 19 18  1  0
 21 22  1  0
 23 19  1  0
 24 21  2  0
M  END
$$$$
