TMD.pdb
     RDKit          3D

 24 23  0  0  1  0  0  0  0  0999 V2000
    7.0044  -16.1169   19.2026 C   0  0  0  0  0  0  0  0  0  0  0  0
    7.7759  -14.9660   18.6676 C   0  0  1  0  0  0  0  0  0  0  0  0
    7.4024  -14.7380   17.3457 O   0  0  0  0  0  0  0  0  0  0  0  0
    7.5924  -13.6638   19.4199 C   0  0  2  0  0  0  0  0  0  0  0  0
    8.2976  -12.6685   18.6046 N   0  0  0  0  0  0  0  0  0  0  0  0
    8.0962  -13.7277   20.8025 C   0  0  0  0  0  0  0  0  0  0  0  0
    9.3519  -13.7691   20.9938 O   0  0  0  0  0  0  0  0  0  0  0  0
    7.0378  -12.0338   28.4330 C   0  0  0  0  0  0  0  0  0  0  0  0
    6.2631  -12.1805   26.7963 S   0  0  0  0  0  0  0  0  0  0  0  0
    7.4157  -13.0952   25.7048 C   0  0  0  0  0  0  0  0  0  0  0  0
    6.8881  -13.1167   24.2924 C   0  0  0  0  0  0  0  0  0  0  0  0
    7.8410  -13.7652   23.3286 C   0  0  2  0  0  0  0  0  0  0  0  0
    7.2973  -13.7483   21.9685 N   0  0  0  0  0  0  0  0  0  0  0  0
    8.2899  -15.1058   23.7116 C   0  0  0  0  0  0  0  0  0  0  0  0
    7.5631  -16.1189   23.6153 O   0  0  0  0  0  0  0  0  0  0  0  0
    9.6058  -15.3603   24.2283 N   0  0  0  0  0  0  0  0  0  0  0  0
   10.0771  -16.6950   24.5727 C   0  0  1  0  0  0  0  0  0  0  0  0
   11.4915  -16.9180   24.1052 C   0  0  0  0  0  0  0  0  0  0  0  0
   12.0364  -18.2236   24.5361 C   0  0  0  0  0  0  0  0  0  0  0  0
   11.3379  -19.0951   25.1141 O   0  0  0  0  0  0  0  0  0  0  0  0
    9.9515  -16.8532   26.0333 C   0  0  0  0  0  0  0  0  0  0  0  0
    9.6243  -18.0986   26.5661 O   0  0  0  0  0  0  0  0  0  0  0  0
   13.3793  -18.5406   24.3096 O   0  0  0  0  0  0  0  0  0  0  0  0
   10.1338  -15.8851   26.8032 O   0  0  0  0  0  0  0  0  0  0  0  0
  2  1  1  1
  2  3  1  0
  4  6  1  0
  4  2  1  0
  4  5  1  6
  6 13  1  0
  6  7  2  0
  8  9  1  0
  9 10  1  0
 10 11  1  0
 12 11  1  1
 12 14  1  0
 13 12  1  0
 14 16  1  0
 14 15  2  0
 16 17  1  0
 17 21  1  0
 17 18  1  1
 19 20  2  0
 19 18  1  0
 21 22  1  0
 23 19  1  0
 24 21  2  0
M  END
$$$$
