TMD.pdb
     RDKit          3D

 24 23  0  0  1  0  0  0  0  0999 V2000
    6.6017  -17.2432   18.7074 C   0  0  0  0  0  0  0  0  0  0  0  0
    7.2163  -16.8297   19.9948 C   0  0  1  0  0  0  0  0  0  0  0  0
    8.3778  -17.5680   20.2068 O   0  0  0  0  0  0  0  0  0  0  0  0
    7.5893  -15.3642   20.0874 C   0  0  2  0  0  0  0  0  0  0  0  0
    8.5521  -15.1629   18.9987 N   0  0  0  0  0  0  0  0  0  0  0  0
    8.1349  -14.9965   21.4053 C   0  0  0  0  0  0  0  0  0  0  0  0
    9.3864  -15.1015   21.5993 O   0  0  0  0  0  0  0  0  0  0  0  0
    6.2907  -10.6584   26.4212 C   0  0  0  0  0  0  0  0  0  0  0  0
    6.3130  -12.3506   27.0819 S   0  0  0  0  0  0  0  0  0  0  0  0
    7.5150  -13.3250   26.1011 C   0  0  0  0  0  0  0  0  0  0  0  0
    6.9572  -13.6109   24.7296 C   0  0  0  0  0  0  0  0  0  0  0  0
    7.9296  -14.3459   23.8512 C   0  0  2  0  0  0  0  0  0  0  0  0
    7.3813  -14.5259   22.5048 N   0  0  0  0  0  0  0  0  0  0  0  0
    8.4275  -15.6085   24.4021 C   0  0  0  0  0  0  0  0  0  0  0  0
    7.7847  -16.6792   24.3353 O   0  0  0  0  0  0  0  0  0  0  0  0
    9.6984  -15.7138   25.0633 N   0  0  0  0  0  0  0  0  0  0  0  0
   10.2790  -16.9878   25.4654 C   0  0  1  0  0  0  0  0  0  0  0  0
   11.6177  -17.2141   24.8131 C   0  0  0  0  0  0  0  0  0  0  0  0
   12.3067  -18.4181   25.3258 C   0  0  0  0  0  0  0  0  0  0  0  0
   11.7084  -19.5015   25.5483 O   0  0  0  0  0  0  0  0  0  0  0  0
   10.3786  -16.9922   26.9365 C   0  0  0  0  0  0  0  0  0  0  0  0
    9.8827  -15.9121   27.6640 O   0  0  0  0  0  0  0  0  0  0  0  0
   13.6802  -18.3915   25.5864 O   0  0  0  0  0  0  0  0  0  0  0  0
   10.9028  -17.9517   27.5429 O   0  0  0  0  0  0  0  0  0  0  0  0
  2  1  1  6
  2  3  1  0
  4  6  1  0
  4  2  1  0
  4  5  1  6
  6 13  1  0
  6  7  2  0
  8  9  1  0
  9 10  1  0
 10 11  1  0
 12 11  1  1
 12 14  1  0
 13 12  1  0
 14 16  1  0
 14 15  2  0
 16 17  1  0
 17 21  1  0
 17 18  1  6
 19 20  2  0
 19 18  1  0
 21 22  1  0
 23 19  1  0
 24 21  2  0
M  END
$$$$
