TMD.pdb
     RDKit          3D

 24 23  0  0  1  0  0  0  0  0999 V2000
    7.0496  -14.6926   17.6787 C   0  0  0  0  0  0  0  0  0  0  0  0
    7.5877  -14.6513   19.0625 C   0  0  1  0  0  0  0  0  0  0  0  0
    8.9086  -15.0920   19.0545 O   0  0  0  0  0  0  0  0  0  0  0  0
    7.5711  -13.2856   19.7181 C   0  0  2  0  0  0  0  0  0  0  0  0
    8.3109  -12.4250   18.7881 N   0  0  0  0  0  0  0  0  0  0  0  0
    8.1534  -13.2949   21.0710 C   0  0  0  0  0  0  0  0  0  0  0  0
    9.3816  -12.9995   21.2095 O   0  0  0  0  0  0  0  0  0  0  0  0
    5.4542  -12.6505   27.6041 C   0  0  0  0  0  0  0  0  0  0  0  0
    6.9819  -11.8100   27.0940 S   0  0  0  0  0  0  0  0  0  0  0  0
    7.8965  -12.9314   25.9704 C   0  0  0  0  0  0  0  0  0  0  0  0
    7.2812  -12.9042   24.5940 C   0  0  0  0  0  0  0  0  0  0  0  0
    8.0922  -13.6636   23.5826 C   0  0  2  0  0  0  0  0  0  0  0  0
    7.4603  -13.6095   22.2622 N   0  0  0  0  0  0  0  0  0  0  0  0
    8.4244  -15.0384   23.9637 C   0  0  0  0  0  0  0  0  0  0  0  0
    7.6147  -15.9861   23.8618 O   0  0  0  0  0  0  0  0  0  0  0  0
    9.7119  -15.4047   24.4849 N   0  0  0  0  0  0  0  0  0  0  0  0
   10.0066  -16.7323   25.0070 C   0  0  1  0  0  0  0  0  0  0  0  0
   11.4167  -17.1516   24.6836 C   0  0  0  0  0  0  0  0  0  0  0  0
   11.6314  -17.3643   23.2359 C   0  0  0  0  0  0  0  0  0  0  0  0
   12.6825  -17.0082   22.6444 O   0  0  0  0  0  0  0  0  0  0  0  0
    9.7620  -16.7081   26.4609 C   0  0  0  0  0  0  0  0  0  0  0  0
    9.5262  -15.4924   27.1000 O   0  0  0  0  0  0  0  0  0  0  0  0
   10.6491  -17.9840   22.4573 O   0  0  0  0  0  0  0  0  0  0  0  0
    9.7634  -17.7636   27.1312 O   0  0  0  0  0  0  0  0  0  0  0  0
  2  1  1  6
  2  3  1  0
  4  6  1  0
  4  2  1  0
  4  5  1  6
  6 13  1  0
  6  7  2  0
  8  9  1  0
  9 10  1  0
 10 11  1  0
 12 11  1  1
 12 14  1  0
 13 12  1  0
 14 16  1  0
 14 15  2  0
 16 17  1  0
 17 21  1  0
 17 18  1  1
 19 20  2  0
 19 18  1  0
 21 22  1  0
 23 19  1  0
 24 21  2  0
M  END
$$$$
