CPS.pdb
     RDKit          3D

 20 20  0  0  1  0  0  0  0  0999 V2000
   18.7529  -27.8579  -11.0723 N   0  0  0  0  0  0  0  0  0  0  0  0
   18.0311  -26.7428  -10.5157 C   0  0  1  0  0  0  0  0  0  0  0  0
   16.5984  -26.7812  -11.0193 C   0  0  0  0  0  0  0  0  0  0  0  0
   15.6018  -25.4898  -10.2286 S   0  0  0  0  0  0  0  0  0  0  0  0
   18.0342  -26.7410   -9.0325 C   0  0  0  0  0  0  0  0  0  0  0  0
   17.6943  -27.8280   -8.4863 O   0  0  0  0  0  0  0  0  0  0  0  0
   18.3851  -25.6256   -8.2328 N   0  0  0  0  0  0  0  0  0  0  0  0
   18.7385  -24.3261   -8.7651 C   0  0  0  0  0  0  0  0  0  0  0  0
   19.0643  -23.4390   -7.5862 C   0  0  0  0  0  0  0  0  0  0  0  0
   19.1495  -24.3449   -6.3963 C   0  0  0  0  0  0  0  0  0  0  0  0
   18.4407  -25.6209   -6.8033 C   0  0  1  0  0  0  0  0  0  0  0  0
   17.1140  -25.6177   -6.1623 C   0  0  0  0  0  0  0  0  0  0  0  0
   16.1309  -25.2295   -6.8220 O   0  0  0  0  0  0  0  0  0  0  0  0
   16.4449  -28.0552   -3.0110 O   0  0  0  0  0  0  0  0  0  0  0  0
   15.8105  -26.8283   -2.8094 C   0  0  0  0  0  0  0  0  0  0  0  0
   15.7055  -26.1235   -4.1358 C   0  0  2  0  0  0  0  0  0  0  0  0
   16.9765  -26.0491   -4.8265 N   0  0  0  0  0  0  0  0  0  0  0  0
   15.2344  -24.7371   -3.8666 C   0  0  0  0  0  0  0  0  0  0  0  0
   13.9057  -24.4277   -3.6437 O   0  0  0  0  0  0  0  0  0  0  0  0
   16.0508  -23.7669   -3.8308 O   0  0  0  0  0  0  0  0  0  0  0  0
  2  1  1  1
  2  3  1  0
  4  3  1  0
  5  2  1  0
  5  6  2  0
  7  5  1  0
  8  7  1  0
  9  8  1  0
 10  9  1  0
 10 11  1  0
 11  7  1  0
 11 12  1  1
 12 17  1  0
 12 13  2  0
 15 14  1  0
 16 15  1  1
 17 16  1  0
 18 16  1  0
 18 19  1  0
 20 18  2  0
M  END
$$$$
