CPS.pdb
     RDKit          3D

 20 20  0  0  1  0  0  0  0  0999 V2000
   22.0758  -12.8967  -15.7356 N   0  0  0  0  0  0  0  0  0  0  0  0
   21.6950  -11.8125  -16.6038 C   0  0  1  0  0  0  0  0  0  0  0  0
   20.1804  -11.6961  -16.6128 C   0  0  0  0  0  0  0  0  0  0  0  0
   19.5510  -11.3371  -14.9511 S   0  0  0  0  0  0  0  0  0  0  0  0
   22.2883  -10.5159  -16.1956 C   0  0  0  0  0  0  0  0  0  0  0  0
   22.4966  -10.3785  -14.9573 O   0  0  0  0  0  0  0  0  0  0  0  0
   22.6188   -9.4684  -17.0901 N   0  0  0  0  0  0  0  0  0  0  0  0
   22.4100   -9.5293  -18.5217 C   0  0  0  0  0  0  0  0  0  0  0  0
   22.9163   -8.2277  -19.0984 C   0  0  0  0  0  0  0  0  0  0  0  0
   23.6626   -7.5465  -17.9926 C   0  0  0  0  0  0  0  0  0  0  0  0
   23.1987   -8.2156  -16.7145 C   0  0  1  0  0  0  0  0  0  0  0  0
   22.2506   -7.3028  -16.0521 C   0  0  0  0  0  0  0  0  0  0  0  0
   21.0302   -7.4647  -16.2434 O   0  0  0  0  0  0  0  0  0  0  0  0
   21.6934   -3.9225  -12.6247 O   0  0  0  0  0  0  0  0  0  0  0  0
   22.6174   -4.6414  -13.3849 C   0  0  0  0  0  0  0  0  0  0  0  0
   21.8712   -5.3900  -14.4571 C   0  0  2  0  0  0  0  0  0  0  0  0
   22.7318   -6.2703  -15.2204 N   0  0  0  0  0  0  0  0  0  0  0  0
   21.2913   -4.3792  -15.3838 C   0  0  0  0  0  0  0  0  0  0  0  0
   20.0230   -3.8542  -15.2207 O   0  0  0  0  0  0  0  0  0  0  0  0
   21.9524   -3.9523  -16.3787 O   0  0  0  0  0  0  0  0  0  0  0  0
  2  1  1  1
  2  3  1  0
  4  3  1  0
  5  2  1  0
  5  6  2  0
  7  5  1  0
  8  7  1  0
  9  8  1  0
 10  9  1  0
 10 11  1  0
 11  7  1  0
 11 12  1  6
 12 17  1  0
 12 13  2  0
 15 14  1  0
 16 15  1  1
 17 16  1  0
 18 16  1  0
 18 19  1  0
 20 18  2  0
M  END
$$$$
