CPS.pdb
     RDKit          3D

 20 20  0  0  1  0  0  0  0  0999 V2000
   18.2928  -12.3246  -16.5822 N   0  0  0  0  0  0  0  0  0  0  0  0
   19.5714  -11.7173  -16.8477 C   0  0  1  0  0  0  0  0  0  0  0  0
   19.5393  -11.0823  -18.2273 C   0  0  0  0  0  0  0  0  0  0  0  0
   19.6413  -12.3469  -19.5221 S   0  0  0  0  0  0  0  0  0  0  0  0
   19.9397  -10.6930  -15.8402 C   0  0  0  0  0  0  0  0  0  0  0  0
   18.9854   -9.9879  -15.4071 O   0  0  0  0  0  0  0  0  0  0  0  0
   21.2550  -10.4767  -15.3605 N   0  0  0  0  0  0  0  0  0  0  0  0
   22.3928  -11.2983  -15.7171 C   0  0  0  0  0  0  0  0  0  0  0  0
   23.5876  -10.7447  -14.9761 C   0  0  0  0  0  0  0  0  0  0  0  0
   23.0426   -9.7626  -13.9851 C   0  0  0  0  0  0  0  0  0  0  0  0
   21.6448   -9.4300  -14.4665 C   0  0  1  0  0  0  0  0  0  0  0  0
   21.6964   -8.1016  -15.1020 C   0  0  0  0  0  0  0  0  0  0  0  0
   22.1236   -8.0120  -16.2689 O   0  0  0  0  0  0  0  0  0  0  0  0
   19.4519   -5.1688  -13.4310 O   0  0  0  0  0  0  0  0  0  0  0  0
   19.8064   -5.0251  -14.7734 C   0  0  0  0  0  0  0  0  0  0  0  0
   21.1648   -5.6424  -14.9752 C   0  0  2  0  0  0  0  0  0  0  0  0
   21.2667   -6.9630  -14.3890 N   0  0  0  0  0  0  0  0  0  0  0  0
   22.1594   -4.7551  -14.3116 C   0  0  0  0  0  0  0  0  0  0  0  0
   22.4316   -3.4737  -14.7528 O   0  0  0  0  0  0  0  0  0  0  0  0
   22.8083   -5.1491  -13.2953 O   0  0  0  0  0  0  0  0  0  0  0  0
  2  1  1  1
  2  3  1  0
  4  3  1  0
  5  2  1  0
  5  6  2  0
  7  5  1  0
  8  7  1  0
  9  8  1  0
 10  9  1  0
 10 11  1  0
 11  7  1  0
 11 12  1  6
 12 17  1  0
 12 13  2  0
 15 14  1  0
 16 15  1  1
 17 16  1  0
 18 16  1  0
 18 19  1  0
 20 18  2  0
M  END
$$$$
