CPS.pdb
     RDKit          3D

 20 20  0  0  1  0  0  0  0  0999 V2000
   25.9513  -21.1183  -10.9754 N   0  0  0  0  0  0  0  0  0  0  0  0
   26.3812  -20.7505  -12.2998 C   0  0  1  0  0  0  0  0  0  0  0  0
   26.4829  -22.0041  -13.1517 C   0  0  0  0  0  0  0  0  0  0  0  0
   27.7274  -21.8000  -14.4539 S   0  0  0  0  0  0  0  0  0  0  0  0
   25.4655  -19.7826  -12.9514 C   0  0  0  0  0  0  0  0  0  0  0  0
   24.2474  -19.8873  -12.6339 O   0  0  0  0  0  0  0  0  0  0  0  0
   25.8743  -18.7883  -13.8739 N   0  0  0  0  0  0  0  0  0  0  0  0
   27.2531  -18.5408  -14.2403 C   0  0  0  0  0  0  0  0  0  0  0  0
   27.2506  -17.3919  -15.2218 C   0  0  0  0  0  0  0  0  0  0  0  0
   25.8655  -16.8225  -15.1903 C   0  0  0  0  0  0  0  0  0  0  0  0
   24.9966  -17.8967  -14.5678 C   0  0  1  0  0  0  0  0  0  0  0  0
   24.2394  -18.5426  -15.6543 C   0  0  0  0  0  0  0  0  0  0  0  0
   24.8352  -19.3307  -16.4134 O   0  0  0  0  0  0  0  0  0  0  0  0
   20.6779  -19.5229  -14.8711 O   0  0  0  0  0  0  0  0  0  0  0  0
   21.1986  -20.0515  -16.0535 C   0  0  0  0  0  0  0  0  0  0  0  0
   22.0075  -18.9813  -16.7372 C   0  0  2  0  0  0  0  0  0  0  0  0
   22.8666  -18.2633  -15.8182 N   0  0  0  0  0  0  0  0  0  0  0  0
   21.0480  -18.0140  -17.3376 C   0  0  0  0  0  0  0  0  0  0  0  0
   20.0831  -18.3875  -18.2542 O   0  0  0  0  0  0  0  0  0  0  0  0
   21.0800  -16.7851  -17.0247 O   0  0  0  0  0  0  0  0  0  0  0  0
  2  1  1  1
  2  3  1  0
  4  3  1  0
  5  2  1  0
  5  6  2  0
  7  5  1  0
  8  7  1  0
  9  8  1  0
 10  9  1  0
 10 11  1  0
 11  7  1  0
 11 12  1  6
 12 17  1  0
 12 13  2  0
 15 14  1  0
 16 15  1  1
 17 16  1  0
 18 16  1  0
 18 19  1  0
 20 18  2  0
M  END
$$$$
