CPS.pdb
     RDKit          3D

 20 20  0  0  1  0  0  0  0  0999 V2000
   14.9879  -13.2272  -11.7246 N   0  0  0  0  0  0  0  0  0  0  0  0
   14.2861  -12.0173  -12.0678 C   0  0  1  0  0  0  0  0  0  0  0  0
   13.1131  -11.8409  -11.1188 C   0  0  0  0  0  0  0  0  0  0  0  0
   12.0032  -13.2724  -11.1920 S   0  0  0  0  0  0  0  0  0  0  0  0
   15.1536  -10.8156  -12.0104 C   0  0  0  0  0  0  0  0  0  0  0  0
   15.9408  -10.7593  -11.0242 O   0  0  0  0  0  0  0  0  0  0  0  0
   15.1422   -9.7720  -12.9684 N   0  0  0  0  0  0  0  0  0  0  0  0
   14.3173   -9.7737  -14.1585 C   0  0  0  0  0  0  0  0  0  0  0  0
   14.6252   -8.5005  -14.9117 C   0  0  0  0  0  0  0  0  0  0  0  0
   15.8386   -7.9145  -14.2575 C   0  0  0  0  0  0  0  0  0  0  0  0
   15.9328   -8.5817  -12.9002 C   0  0  1  0  0  0  0  0  0  0  0  0
   15.4571   -7.6155  -11.8946 C   0  0  0  0  0  0  0  0  0  0  0  0
   14.2298   -7.4747  -11.7328 O   0  0  0  0  0  0  0  0  0  0  0  0
   16.5272   -5.7690   -7.6584 O   0  0  0  0  0  0  0  0  0  0  0  0
   16.9583   -6.4770   -8.7815 C   0  0  0  0  0  0  0  0  0  0  0  0
   16.0414   -6.1504   -9.9303 C   0  0  2  0  0  0  0  0  0  0  0  0
   16.3866   -6.8720  -11.1379 N   0  0  0  0  0  0  0  0  0  0  0  0
   16.1694   -4.6919  -10.2007 C   0  0  0  0  0  0  0  0  0  0  0  0
   16.7636   -4.1917  -11.3441 O   0  0  0  0  0  0  0  0  0  0  0  0
   15.7292   -3.8351   -9.3754 O   0  0  0  0  0  0  0  0  0  0  0  0
  2  1  1  1
  2  3  1  0
  4  3  1  0
  5  2  1  0
  5  6  2  0
  7  5  1  0
  8  7  1  0
  9  8  1  0
 10  9  1  0
 10 11  1  0
 11  7  1  0
 11 12  1  1
 12 17  1  0
 12 13  2  0
 15 14  1  0
 16 15  1  1
 17 16  1  0
 18 16  1  0
 18 19  1  0
 20 18  2  0
M  END
$$$$
