CPS.pdb
     RDKit          3D

 20 20  0  0  1  0  0  0  0  0999 V2000
   19.0762  -12.4447  -16.0956 N   0  0  0  0  0  0  0  0  0  0  0  0
   18.7776  -11.1270  -16.5943 C   0  0  1  0  0  0  0  0  0  0  0  0
   17.5640  -10.5844  -15.8593 C   0  0  0  0  0  0  0  0  0  0  0  0
   16.0418  -11.3585  -16.4677 S   0  0  0  0  0  0  0  0  0  0  0  0
   19.9123  -10.1846  -16.4386 C   0  0  0  0  0  0  0  0  0  0  0  0
   20.5361  -10.2602  -15.3429 O   0  0  0  0  0  0  0  0  0  0  0  0
   20.3131   -9.2435  -17.4186 N   0  0  0  0  0  0  0  0  0  0  0  0
   19.7168   -9.1397  -18.7341 C   0  0  0  0  0  0  0  0  0  0  0  0
   20.4462   -8.0364  -19.4646 C   0  0  0  0  0  0  0  0  0  0  0  0
   21.6444   -7.7067  -18.6283 C   0  0  0  0  0  0  0  0  0  0  0  0
   21.3508   -8.2726  -17.2535 C   0  0  1  0  0  0  0  0  0  0  0  0
   20.9716   -7.1480  -16.3802 C   0  0  0  0  0  0  0  0  0  0  0  0
   19.7873   -6.7610  -16.3821 O   0  0  0  0  0  0  0  0  0  0  0  0
   21.7281   -5.1872  -12.1755 O   0  0  0  0  0  0  0  0  0  0  0  0
   22.1684   -6.0724  -13.1609 C   0  0  0  0  0  0  0  0  0  0  0  0
   21.6213   -5.6173  -14.4878 C   0  0  2  0  0  0  0  0  0  0  0  0
   21.9429   -6.5323  -15.5636 N   0  0  0  0  0  0  0  0  0  0  0  0
   22.2372   -4.2967  -14.7933 C   0  0  0  0  0  0  0  0  0  0  0  0
   23.2385   -4.1367  -15.7327 O   0  0  0  0  0  0  0  0  0  0  0  0
   21.8588   -3.2463  -14.1911 O   0  0  0  0  0  0  0  0  0  0  0  0
  2  1  1  1
  2  3  1  0
  4  3  1  0
  5  2  1  0
  5  6  2  0
  7  5  1  0
  8  7  1  0
  9  8  1  0
 10  9  1  0
 10 11  1  0
 11  7  1  0
 11 12  1  1
 12 17  1  0
 12 13  2  0
 15 14  1  0
 16 15  1  1
 17 16  1  0
 18 16  1  0
 18 19  1  0
 20 18  2  0
M  END
$$$$
