CPS.pdb
     RDKit          3D

 20 20  0  0  1  0  0  0  0  0999 V2000
   34.4054   -9.2806  -15.6819 N   0  0  0  0  0  0  0  0  0  0  0  0
   35.8347   -9.4560  -15.6608 C   0  0  1  0  0  0  0  0  0  0  0  0
   36.4713   -8.4330  -16.5859 C   0  0  0  0  0  0  0  0  0  0  0  0
   36.1450   -8.8415  -18.3217 S   0  0  0  0  0  0  0  0  0  0  0  0
   36.4091   -9.3177  -14.3004 C   0  0  0  0  0  0  0  0  0  0  0  0
   35.7950   -8.5290  -13.5280 O   0  0  0  0  0  0  0  0  0  0  0  0
   37.5646   -9.9988  -13.8449 N   0  0  0  0  0  0  0  0  0  0  0  0
   38.3400  -10.9123  -14.6580 C   0  0  0  0  0  0  0  0  0  0  0  0
   39.4621  -11.4332  -13.7905 C   0  0  0  0  0  0  0  0  0  0  0  0
   39.1405  -11.0014  -12.3927 C   0  0  0  0  0  0  0  0  0  0  0  0
   38.1256   -9.8850  -12.5337 C   0  0  1  0  0  0  0  0  0  0  0  0
   38.8291   -8.6111  -12.3027 C   0  0  0  0  0  0  0  0  0  0  0  0
   39.3875   -8.0520  -13.2660 O   0  0  0  0  0  0  0  0  0  0  0  0
   39.0314   -7.1636   -8.4350 O   0  0  0  0  0  0  0  0  0  0  0  0
   38.8892   -6.1799   -9.4152 C   0  0  0  0  0  0  0  0  0  0  0  0
   39.3943   -6.7334  -10.7212 C   0  0  2  0  0  0  0  0  0  0  0  0
   38.8606   -8.0487  -11.0096 N   0  0  0  0  0  0  0  0  0  0  0  0
   40.8757   -6.8395  -10.6160 C   0  0  0  0  0  0  0  0  0  0  0  0
   41.5429   -8.0499  -10.6331 O   0  0  0  0  0  0  0  0  0  0  0  0
   41.5969   -5.8019  -10.5043 O   0  0  0  0  0  0  0  0  0  0  0  0
  2  1  1  1
  2  3  1  0
  4  3  1  0
  5  2  1  0
  5  6  2  0
  7  5  1  0
  8  7  1  0
  9  8  1  0
 10  9  1  0
 10 11  1  0
 11  7  1  0
 11 12  1  6
 12 17  1  0
 12 13  2  0
 15 14  1  0
 16 15  1  1
 17 16  1  0
 18 16  1  0
 18 19  1  0
 20 18  2  0
M  END
$$$$
