CPS.pdb
     RDKit          3D

 20 20  0  0  1  0  0  0  0  0999 V2000
   29.9210   -8.3142  -17.7559 N   0  0  0  0  0  0  0  0  0  0  0  0
   31.0377   -9.1970  -17.5376 C   0  0  1  0  0  0  0  0  0  0  0  0
   31.2788  -10.0092  -18.7985 C   0  0  0  0  0  0  0  0  0  0  0  0
   29.9048  -11.1521  -19.1022 S   0  0  0  0  0  0  0  0  0  0  0  0
   32.2787   -8.4718  -17.1716 C   0  0  0  0  0  0  0  0  0  0  0  0
   32.3693   -7.2916  -17.6125 O   0  0  0  0  0  0  0  0  0  0  0  0
   33.3231   -9.0163  -16.3846 N   0  0  0  0  0  0  0  0  0  0  0  0
   33.3454  -10.3806  -15.8997 C   0  0  0  0  0  0  0  0  0  0  0  0
   34.6103  -10.5412  -15.0890 C   0  0  0  0  0  0  0  0  0  0  0  0
   35.1619   -9.1611  -14.9030 C   0  0  0  0  0  0  0  0  0  0  0  0
   34.4912   -8.3075  -15.9603 C   0  0  1  0  0  0  0  0  0  0  0  0
   35.4691   -8.0844  -17.0396 C   0  0  0  0  0  0  0  0  0  0  0  0
   35.4367   -8.8263  -18.0401 O   0  0  0  0  0  0  0  0  0  0  0  0
   38.0936   -4.9605  -16.5667 O   0  0  0  0  0  0  0  0  0  0  0  0
   37.7399   -5.2152  -17.8927 C   0  0  0  0  0  0  0  0  0  0  0  0
   37.3053   -6.6527  -18.0013 C   0  0  2  0  0  0  0  0  0  0  0  0
   36.4174   -7.0464  -16.9268 N   0  0  0  0  0  0  0  0  0  0  0  0
   38.5314   -7.4944  -17.9308 C   0  0  0  0  0  0  0  0  0  0  0  0
   39.5065   -7.4808  -18.9105 O   0  0  0  0  0  0  0  0  0  0  0  0
   38.7323   -8.2721  -16.9490 O   0  0  0  0  0  0  0  0  0  0  0  0
  2  1  1  6
  2  3  1  0
  4  3  1  0
  5  2  1  0
  5  6  2  0
  7  5  1  0
  8  7  1  0
  9  8  1  0
 10  9  1  0
 10 11  1  0
 11  7  1  0
 11 12  1  6
 12 17  1  0
 12 13  2  0
 15 14  1  0
 16 15  1  1
 17 16  1  0
 18 16  1  0
 18 19  1  0
 20 18  2  0
M  END
$$$$
