CPS.pdb
     RDKit          3D

 20 20  0  0  1  0  0  0  0  0999 V2000
   14.7973  -24.3594  -11.0854 N   0  0  0  0  0  0  0  0  0  0  0  0
   15.2828  -23.7087   -9.8959 C   0  0  1  0  0  0  0  0  0  0  0  0
   14.2537  -22.6908   -9.4349 C   0  0  0  0  0  0  0  0  0  0  0  0
   14.3749  -21.1653  -10.4068 S   0  0  0  0  0  0  0  0  0  0  0  0
   15.5630  -24.6621   -8.7948 C   0  0  0  0  0  0  0  0  0  0  0  0
   14.6404  -25.4866   -8.5409 O   0  0  0  0  0  0  0  0  0  0  0  0
   16.7651  -24.6912   -8.0458 N   0  0  0  0  0  0  0  0  0  0  0  0
   17.8577  -23.7590   -8.2307 C   0  0  0  0  0  0  0  0  0  0  0  0
   18.9447  -24.1532   -7.2581 C   0  0  0  0  0  0  0  0  0  0  0  0
   18.5489  -25.4913   -6.7136 C   0  0  0  0  0  0  0  0  0  0  0  0
   17.0701  -25.6325   -7.0125 C   0  0  1  0  0  0  0  0  0  0  0  0
   16.3365  -25.3884   -5.7583 C   0  0  0  0  0  0  0  0  0  0  0  0
   16.1382  -24.2118   -5.3995 O   0  0  0  0  0  0  0  0  0  0  0  0
   14.4801  -28.6175   -4.0446 O   0  0  0  0  0  0  0  0  0  0  0  0
   13.9142  -27.3644   -3.8037 C   0  0  0  0  0  0  0  0  0  0  0  0
   15.0109  -26.3333   -3.8356 C   0  0  2  0  0  0  0  0  0  0  0  0
   15.8741  -26.4770   -4.9899 N   0  0  0  0  0  0  0  0  0  0  0  0
   15.8323  -26.5196   -2.6078 C   0  0  0  0  0  0  0  0  0  0  0  0
   15.3037  -26.4351   -1.3333 O   0  0  0  0  0  0  0  0  0  0  0  0
   17.0737  -26.7681   -2.6858 O   0  0  0  0  0  0  0  0  0  0  0  0
  2  1  1  6
  2  3  1  0
  4  3  1  0
  5  2  1  0
  5  6  2  0
  7  5  1  0
  8  7  1  0
  9  8  1  0
 10  9  1  0
 10 11  1  0
 11  7  1  0
 11 12  1  1
 12 17  1  0
 12 13  2  0
 15 14  1  0
 16 15  1  6
 17 16  1  0
 18 16  1  0
 18 19  1  0
 20 18  2  0
M  END
$$$$
