CPS.pdb
     RDKit          3D

 20 20  0  0  1  0  0  0  0  0999 V2000
   19.8995  -10.6697  -15.1434 N   0  0  0  0  0  0  0  0  0  0  0  0
   20.1665   -9.5503  -16.0094 C   0  0  1  0  0  0  0  0  0  0  0  0
   18.9349   -9.2759  -16.8554 C   0  0  0  0  0  0  0  0  0  0  0  0
   19.2658   -7.9749  -18.0736 S   0  0  0  0  0  0  0  0  0  0  0  0
   20.5370   -8.3236  -15.2627 C   0  0  0  0  0  0  0  0  0  0  0  0
   19.7349   -7.9792  -14.3497 O   0  0  0  0  0  0  0  0  0  0  0  0
   21.6983   -7.5521  -15.5137 N   0  0  0  0  0  0  0  0  0  0  0  0
   22.6755   -7.8676  -16.5346 C   0  0  0  0  0  0  0  0  0  0  0  0
   23.7575   -6.8161  -16.4511 C   0  0  0  0  0  0  0  0  0  0  0  0
   23.5044   -6.0603  -15.1829 C   0  0  0  0  0  0  0  0  0  0  0  0
   22.0692   -6.3660  -14.8050 C   0  0  1  0  0  0  0  0  0  0  0  0
   21.2550   -5.1899  -15.1584 C   0  0  0  0  0  0  0  0  0  0  0  0
   20.7242   -5.1453  -16.2847 O   0  0  0  0  0  0  0  0  0  0  0  0
   19.1034   -1.1556  -13.5378 O   0  0  0  0  0  0  0  0  0  0  0  0
   19.8988   -2.2532  -13.2047 C   0  0  0  0  0  0  0  0  0  0  0  0
   20.2669   -2.9761  -14.4731 C   0  0  2  0  0  0  0  0  0  0  0  0
   21.0894   -4.1429  -14.2279 N   0  0  0  0  0  0  0  0  0  0  0  0
   21.0397   -2.0251  -15.3188 C   0  0  0  0  0  0  0  0  0  0  0  0
   20.4360   -1.0646  -16.1086 O   0  0  0  0  0  0  0  0  0  0  0  0
   22.3073   -2.0605  -15.3476 O   0  0  0  0  0  0  0  0  0  0  0  0
  2  1  1  1
  2  3  1  0
  4  3  1  0
  5  2  1  0
  5  6  2  0
  7  5  1  0
  8  7  1  0
  9  8  1  0
 10  9  1  0
 10 11  1  0
 11  7  1  0
 11 12  1  6
 12 17  1  0
 12 13  2  0
 15 14  1  0
 16 15  1  1
 17 16  1  0
 18 16  1  0
 18 19  1  0
 20 18  2  0
M  END
$$$$
