CPS.pdb
     RDKit          3D

 20 20  0  0  1  0  0  0  0  0999 V2000
   20.0235  -12.8470  -17.3115 N   0  0  0  0  0  0  0  0  0  0  0  0
   21.2258  -12.1434  -17.6772 C   0  0  1  0  0  0  0  0  0  0  0  0
   21.0056  -11.4499  -19.0108 C   0  0  0  0  0  0  0  0  0  0  0  0
   20.8693  -12.6609  -20.3529 S   0  0  0  0  0  0  0  0  0  0  0  0
   21.6361  -11.1435  -16.6616 C   0  0  0  0  0  0  0  0  0  0  0  0
   20.6913  -10.5519  -16.0676 O   0  0  0  0  0  0  0  0  0  0  0  0
   22.9802  -10.8332  -16.3393 N   0  0  0  0  0  0  0  0  0  0  0  0
   24.1263  -11.5246  -16.8918 C   0  0  0  0  0  0  0  0  0  0  0  0
   25.3575  -10.9047  -16.2729 C   0  0  0  0  0  0  0  0  0  0  0  0
   24.8673  -10.0339  -15.1571 C   0  0  0  0  0  0  0  0  0  0  0  0
   23.3949   -9.8061  -15.4338 C   0  0  1  0  0  0  0  0  0  0  0  0
   23.2493   -8.4454  -15.9801 C   0  0  0  0  0  0  0  0  0  0  0  0
   23.2249   -8.2958  -17.2168 O   0  0  0  0  0  0  0  0  0  0  0  0
   20.3099   -5.2066  -15.9779 O   0  0  0  0  0  0  0  0  0  0  0  0
   20.9305   -6.4069  -15.6279 C   0  0  0  0  0  0  0  0  0  0  0  0
   22.3982   -6.1410  -15.4219 C   0  0  2  0  0  0  0  0  0  0  0  0
   23.1408   -7.3438  -15.1060 N   0  0  0  0  0  0  0  0  0  0  0  0
   22.5226   -5.1969  -14.2773 C   0  0  0  0  0  0  0  0  0  0  0  0
   22.6371   -3.8294  -14.4436 O   0  0  0  0  0  0  0  0  0  0  0  0
   22.5285   -5.6199  -13.0815 O   0  0  0  0  0  0  0  0  0  0  0  0
  2  1  1  1
  2  3  1  0
  4  3  1  0
  5  2  1  0
  5  6  2  0
  7  5  1  0
  8  7  1  0
  9  8  1  0
 10  9  1  0
 10 11  1  0
 11  7  1  0
 11 12  1  6
 12 17  1  0
 12 13  2  0
 15 14  1  0
 16 15  1  1
 17 16  1  0
 18 16  1  0
 18 19  1  0
 20 18  2  0
M  END
$$$$
