CPS.pdb
     RDKit          3D

 20 20  0  0  1  0  0  0  0  0999 V2000
   23.6871  -19.1594  -13.1196 N   0  0  0  0  0  0  0  0  0  0  0  0
   24.8137  -19.8703  -12.5722 C   0  0  1  0  0  0  0  0  0  0  0  0
   24.3668  -21.2632  -12.1627 C   0  0  0  0  0  0  0  0  0  0  0  0
   23.4824  -21.2180  -10.5809 S   0  0  0  0  0  0  0  0  0  0  0  0
   25.9444  -19.9742  -13.5264 C   0  0  0  0  0  0  0  0  0  0  0  0
   25.6859  -19.6355  -14.7155 O   0  0  0  0  0  0  0  0  0  0  0  0
   27.2455  -20.4166  -13.1827 N   0  0  0  0  0  0  0  0  0  0  0  0
   27.6544  -20.7633  -11.8375 C   0  0  0  0  0  0  0  0  0  0  0  0
   29.1119  -21.1562  -11.9057 C   0  0  0  0  0  0  0  0  0  0  0  0
   29.5844  -20.7617  -13.2713 C   0  0  0  0  0  0  0  0  0  0  0  0
   28.3295  -20.5826  -14.1015 C   0  0  1  0  0  0  0  0  0  0  0  0
   28.1931  -21.7687  -14.9650 C   0  0  0  0  0  0  0  0  0  0  0  0
   27.4001  -22.6681  -14.6265 O   0  0  0  0  0  0  0  0  0  0  0  0
   28.2847  -21.2571  -18.7074 O   0  0  0  0  0  0  0  0  0  0  0  0
   27.8878  -22.5201  -18.2646 C   0  0  0  0  0  0  0  0  0  0  0  0
   28.7820  -22.9265  -17.1235 C   0  0  2  0  0  0  0  0  0  0  0  0
   28.9532  -21.8687  -16.1489 N   0  0  0  0  0  0  0  0  0  0  0  0
   30.1150  -23.2564  -17.6988 C   0  0  0  0  0  0  0  0  0  0  0  0
   30.3299  -24.3560  -18.5084 O   0  0  0  0  0  0  0  0  0  0  0  0
   31.1252  -22.5263  -17.4633 O   0  0  0  0  0  0  0  0  0  0  0  0
  2  1  1  6
  2  3  1  0
  4  3  1  0
  5  2  1  0
  5  6  2  0
  7  5  1  0
  8  7  1  0
  9  8  1  0
 10  9  1  0
 10 11  1  0
 11  7  1  0
 11 12  1  1
 12 17  1  0
 12 13  2  0
 15 14  1  0
 16 15  1  6
 17 16  1  0
 18 16  1  0
 18 19  1  0
 20 18  2  0
M  END
$$$$
