CPS.pdb
     RDKit          3D

 20 20  0  0  1  0  0  0  0  0999 V2000
   19.9350  -10.7000  -15.3632 N   0  0  0  0  0  0  0  0  0  0  0  0
   19.9426   -9.2599  -15.3740 C   0  0  1  0  0  0  0  0  0  0  0  0
   18.8116   -8.7669  -16.2603 C   0  0  0  0  0  0  0  0  0  0  0  0
   19.1703   -9.0953  -18.0066 S   0  0  0  0  0  0  0  0  0  0  0  0
   19.7992   -8.6758  -14.0183 C   0  0  0  0  0  0  0  0  0  0  0  0
   19.0583   -9.3202  -13.2237 O   0  0  0  0  0  0  0  0  0  0  0  0
   20.4268   -7.4802  -13.5899 N   0  0  0  0  0  0  0  0  0  0  0  0
   21.2841   -6.6695  -14.4292 C   0  0  0  0  0  0  0  0  0  0  0  0
   21.7607   -5.5101  -13.5855 C   0  0  0  0  0  0  0  0  0  0  0  0
   21.3708   -5.8347  -12.1762 C   0  0  0  0  0  0  0  0  0  0  0  0
   20.3068   -6.9083  -12.2840 C   0  0  1  0  0  0  0  0  0  0  0  0
   19.0021   -6.2690  -12.0389 C   0  0  0  0  0  0  0  0  0  0  0  0
   18.4099   -5.7305  -12.9937 O   0  0  0  0  0  0  0  0  0  0  0  0
   15.2798   -5.9511   -8.9535 O   0  0  0  0  0  0  0  0  0  0  0  0
   16.5487   -6.4794   -9.1968 C   0  0  0  0  0  0  0  0  0  0  0  0
   17.0973   -5.8429  -10.4461 C   0  0  2  0  0  0  0  0  0  0  0  0
   18.4477   -6.2752  -10.7419 N   0  0  0  0  0  0  0  0  0  0  0  0
   17.1123   -4.3705  -10.2252 C   0  0  0  0  0  0  0  0  0  0  0  0
   16.0378   -3.5565  -10.5309 O   0  0  0  0  0  0  0  0  0  0  0  0
   18.1325   -3.7951   -9.7382 O   0  0  0  0  0  0  0  0  0  0  0  0
  2  1  1  1
  2  3  1  0
  4  3  1  0
  5  2  1  0
  5  6  2  0
  7  5  1  0
  8  7  1  0
  9  8  1  0
 10  9  1  0
 10 11  1  0
 11  7  1  0
 11 12  1  6
 12 17  1  0
 12 13  2  0
 15 14  1  0
 16 15  1  1
 17 16  1  0
 18 16  1  0
 18 19  1  0
 20 18  2  0
M  END
$$$$
