CPS.pdb
     RDKit          3D

 20 20  0  0  1  0  0  0  0  0999 V2000
   15.1948   -9.0293   -9.7269 N   0  0  0  0  0  0  0  0  0  0  0  0
   15.3505   -7.6931  -10.2411 C   0  0  1  0  0  0  0  0  0  0  0  0
   15.7035   -6.7610   -9.0946 C   0  0  0  0  0  0  0  0  0  0  0  0
   14.2925   -6.5510   -7.9761 S   0  0  0  0  0  0  0  0  0  0  0  0
   16.3931   -7.6013  -11.2920 C   0  0  0  0  0  0  0  0  0  0  0  0
   17.4066   -8.3350  -11.1187 O   0  0  0  0  0  0  0  0  0  0  0  0
   16.3103   -6.7654  -12.4327 N   0  0  0  0  0  0  0  0  0  0  0  0
   15.1995   -5.8783  -12.7082 C   0  0  0  0  0  0  0  0  0  0  0  0
   15.4950   -5.1947  -14.0229 C   0  0  0  0  0  0  0  0  0  0  0  0
   16.6657   -5.9190  -14.6132 C   0  0  0  0  0  0  0  0  0  0  0  0
   17.2981   -6.6776  -13.4639 C   0  0  1  0  0  0  0  0  0  0  0  0
   18.5094   -5.9434  -13.0581 C   0  0  0  0  0  0  0  0  0  0  0  0
   18.4050   -5.0394  -12.2071 O   0  0  0  0  0  0  0  0  0  0  0  0
   22.1576   -7.2730  -14.5780 O   0  0  0  0  0  0  0  0  0  0  0  0
   22.0935   -6.9109  -13.2314 C   0  0  0  0  0  0  0  0  0  0  0  0
   21.0272   -5.8599  -13.0718 C   0  0  2  0  0  0  0  0  0  0  0  0
   19.7559   -6.2701  -13.6317 N   0  0  0  0  0  0  0  0  0  0  0  0
   21.4896   -4.6438  -13.7956 C   0  0  0  0  0  0  0  0  0  0  0  0
   22.5136   -3.8398  -13.3309 O   0  0  0  0  0  0  0  0  0  0  0  0
   20.9508   -4.2917  -14.8887 O   0  0  0  0  0  0  0  0  0  0  0  0
  2  1  1  1
  2  3  1  0
  4  3  1  0
  5  2  1  0
  5  6  2  0
  7  5  1  0
  8  7  1  0
  9  8  1  0
 10  9  1  0
 10 11  1  0
 11  7  1  0
 11 12  1  1
 12 17  1  0
 12 13  2  0
 15 14  1  0
 16 15  1  6
 17 16  1  0
 18 16  1  0
 18 19  1  0
 20 18  2  0
M  END
$$$$
