RKQ.pdb
     RDKit          3D

 30 29  0  0  1  0  0  0  0  0999 V2000
   21.1454  -24.3050  -14.4307 N   0  0  0  0  0  0  0  0  0  0  0  0
   20.2803  -23.2808  -14.9645 C   0  0  0  0  0  0  0  0  0  0  0  0
   20.5281  -22.7352  -16.1178 N   0  0  0  0  0  0  0  0  0  0  0  0
   19.1353  -22.8408  -14.2459 N   0  0  0  0  0  0  0  0  0  0  0  0
   18.5670  -23.6633  -13.1877 C   0  0  0  0  0  0  0  0  0  0  0  0
   19.1138  -23.2830  -11.8370 C   0  0  0  0  0  0  0  0  0  0  0  0
   18.5707  -24.0935  -10.7185 C   0  0  0  0  0  0  0  0  0  0  0  0
   19.5736  -24.9237   -9.9705 C   0  0  2  0  0  0  0  0  0  0  0  0
   20.3977  -25.6664  -10.9174 N   0  0  0  0  0  0  0  0  0  0  0  0
   18.9312  -25.8961   -9.0600 C   0  0  0  0  0  0  0  0  0  0  0  0
   18.6340  -27.0536   -9.4606 O   0  0  0  0  0  0  0  0  0  0  0  0
   19.9033  -21.9934  -16.4431 N   0  0  0  0  0  0  0  0  0  0  0  0
   18.6526  -25.5104   -7.7273 C   0  0  2  0  0  0  0  0  0  0  0  0
   18.1356  -26.4938   -6.7797 C   0  0  0  0  0  0  0  0  0  0  0  0
   18.2978  -25.9587   -5.3911 C   0  0  0  0  0  0  0  0  0  0  0  0
   17.7958  -26.9102   -4.3508 C   0  0  0  0  0  0  0  0  0  0  0  0
   18.0588  -26.3697   -2.9489 C   0  0  0  0  0  0  0  0  0  0  0  0
   17.5523  -27.3900   -1.9436 N   0  0  0  0  0  0  0  0  0  0  0  0
   17.9226  -27.0251   -0.6056 C   0  0  0  0  0  0  0  0  0  0  0  0
   16.6778  -26.6776   -7.0762 O   0  0  0  0  0  0  0  0  0  0  0  0
   15.8768  -25.6957   -7.1600 N   0  0  0  0  0  0  0  0  0  0  0  0
   14.0616  -30.5416  -11.0499 C   0  0  0  0  0  0  0  0  0  0  0  0
   12.9389  -30.1322  -10.2893 O   0  0  0  0  0  0  0  0  0  0  0  0
   11.7974  -30.4915  -10.6424 C   0  0  0  0  0  0  0  0  0  0  0  0
   13.1274  -29.2885   -9.0952 C   0  0  0  0  0  0  0  0  0  0  0  0
   14.5438  -28.9277   -8.8286 C   0  0  1  0  0  0  0  0  0  0  0  0
   14.7145  -28.1467   -7.5619 N   0  0  0  0  0  0  0  0  0  0  0  0
   16.1438  -27.9684   -7.2743 C   0  0  0  0  0  0  0  0  0  0  0  0
   14.0372  -28.7619   -6.3980 O   0  0  0  0  0  0  0  0  0  0  0  0
   12.8067  -28.7409   -6.1906 O   0  0  0  0  0  0  0  0  0  0  0  0
  2  3  2  0
  2  1  1  0
  4  2  1  0
  5  4  1  0
  6  5  1  0
  7  6  1  0
  8  9  1  6
  8  7  1  0
 10  8  1  0
 11 10  2  0
 12 10  1  0
 13 19  1  0
 13 12  1  0
 13 14  1  1
 15 14  1  0
 16 15  1  0
 17 16  1  0
 18 17  1  0
 19 20  2  0
 22 21  1  0
 22 24  1  0
 23 22  2  0
 25 24  1  0
 26 25  1  6
 27 19  1  0
 27 26  1  0
 28 30  1  0
 28 26  1  0
 29 28  2  0
M  END
$$$$
