RKQ.pdb
     RDKit          3D

 30 29  0  0  1  0  0  0  0  0999 V2000
   27.4481  -24.8666  -16.5301 N   0  0  0  0  0  0  0  0  0  0  0  0
   26.0792  -25.1613  -16.8786 C   0  0  0  0  0  0  0  0  0  0  0  0
   25.7761  -26.2477  -17.5243 N   0  0  0  0  0  0  0  0  0  0  0  0
   25.0259  -24.2738  -16.5262 N   0  0  0  0  0  0  0  0  0  0  0  0
   25.2947  -23.0937  -15.7172 C   0  0  0  0  0  0  0  0  0  0  0  0
   25.5634  -23.4571  -14.2806 C   0  0  0  0  0  0  0  0  0  0  0  0
   24.3622  -23.3981  -13.4108 C   0  0  0  0  0  0  0  0  0  0  0  0
   23.7109  -22.0504  -13.2923 C   0  0  2  0  0  0  0  0  0  0  0  0
   24.2466  -21.3483  -12.1314 N   0  0  0  0  0  0  0  0  0  0  0  0
   22.2437  -22.1470  -13.1333 C   0  0  0  0  0  0  0  0  0  0  0  0
   21.5113  -22.4755  -14.1051 O   0  0  0  0  0  0  0  0  0  0  0  0
   24.8053  -26.3761  -17.8206 N   0  0  0  0  0  0  0  0  0  0  0  0
   21.6685  -21.8652  -11.8715 C   0  0  1  0  0  0  0  0  0  0  0  0
   20.2292  -22.0188  -11.6789 C   0  0  0  0  0  0  0  0  0  0  0  0
   19.9579  -22.2473  -10.2246 C   0  0  0  0  0  0  0  0  0  0  0  0
   19.1065  -23.4547   -9.9859 C   0  0  0  0  0  0  0  0  0  0  0  0
   18.7080  -23.5560   -8.5170 C   0  0  0  0  0  0  0  0  0  0  0  0
   17.6306  -24.6195   -8.3893 N   0  0  0  0  0  0  0  0  0  0  0  0
   17.2238  -24.7813   -7.0222 C   0  0  0  0  0  0  0  0  0  0  0  0
   19.5806  -20.7389  -12.1121 O   0  0  0  0  0  0  0  0  0  0  0  0
   20.2257  -19.6477  -12.1903 N   0  0  0  0  0  0  0  0  0  0  0  0
   20.0598  -20.5281  -17.2202 C   0  0  0  0  0  0  0  0  0  0  0  0
   19.7363  -19.2118  -16.8086 O   0  0  0  0  0  0  0  0  0  0  0  0
   20.0195  -18.2515  -17.5531 C   0  0  0  0  0  0  0  0  0  0  0  0
   19.0734  -18.9889  -15.5108 C   0  0  0  0  0  0  0  0  0  0  0  0
   18.7634  -20.2383  -14.7689 C   0  0  2  0  0  0  0  0  0  0  0  0
   17.7626  -20.0293  -13.6742 N   0  0  0  0  0  0  0  0  0  0  0  0
   18.2115  -20.7080  -12.4514 C   0  0  0  0  0  0  0  0  0  0  0  0
   16.3991  -20.4816  -14.0323 O   0  0  0  0  0  0  0  0  0  0  0  0
   15.4230  -19.7296  -14.2305 O   0  0  0  0  0  0  0  0  0  0  0  0
  2  3  2  0
  2  1  1  0
  4  2  1  0
  5  4  1  0
  6  5  1  0
  7  6  1  0
  8  9  1  1
  8  7  1  0
 10  8  1  0
 11 10  2  0
 12 10  1  0
 13 19  1  0
 13 12  1  0
 13 14  1  6
 15 14  1  0
 16 15  1  0
 17 16  1  0
 18 17  1  0
 19 20  2  0
 22 21  1  0
 22 24  1  0
 23 22  2  0
 25 24  1  0
 26 25  1  1
 27 19  1  0
 27 26  1  0
 28 30  1  0
 28 26  1  0
 29 28  2  0
M  END
$$$$
