RKQ.pdb
     RDKit          3D

 30 29  0  0  1  0  0  0  0  0999 V2000
   27.7120  -25.9039  -16.0717 N   0  0  0  0  0  0  0  0  0  0  0  0
   26.5893  -26.1792  -16.9353 C   0  0  0  0  0  0  0  0  0  0  0  0
   26.3059  -27.3970  -17.2902 N   0  0  0  0  0  0  0  0  0  0  0  0
   25.7634  -25.1290  -17.4210 N   0  0  0  0  0  0  0  0  0  0  0  0
   26.0278  -23.7479  -17.0445 C   0  0  0  0  0  0  0  0  0  0  0  0
   26.1030  -23.5867  -15.5490 C   0  0  0  0  0  0  0  0  0  0  0  0
   25.1959  -22.5426  -15.0105 C   0  0  0  0  0  0  0  0  0  0  0  0
   25.3331  -21.1808  -15.6278 C   0  0  2  0  0  0  0  0  0  0  0  0
   26.6615  -20.6478  -15.3470 N   0  0  0  0  0  0  0  0  0  0  0  0
   24.3346  -20.2232  -15.1048 C   0  0  0  0  0  0  0  0  0  0  0  0
   24.1646  -20.0844  -13.8637 O   0  0  0  0  0  0  0  0  0  0  0  0
   25.5520  -27.5375  -17.9673 N   0  0  0  0  0  0  0  0  0  0  0  0
   23.5686  -19.4608  -16.0182 C   0  0  2  0  0  0  0  0  0  0  0  0
   22.5547  -18.5354  -15.5203 C   0  0  0  0  0  0  0  0  0  0  0  0
   22.3384  -17.4611  -16.5402 C   0  0  0  0  0  0  0  0  0  0  0  0
   21.3656  -16.4224  -16.0771 C   0  0  0  0  0  0  0  0  0  0  0  0
   21.0273  -15.4540  -17.2061 C   0  0  0  0  0  0  0  0  0  0  0  0
   20.0695  -14.4072  -16.6630 N   0  0  0  0  0  0  0  0  0  0  0  0
   19.6930  -13.4717  -17.6846 C   0  0  0  0  0  0  0  0  0  0  0  0
   21.2871  -19.3148  -15.3405 O   0  0  0  0  0  0  0  0  0  0  0  0
   21.1329  -20.4759  -15.8314 N   0  0  0  0  0  0  0  0  0  0  0  0
   19.3031  -21.6979  -10.6228 C   0  0  0  0  0  0  0  0  0  0  0  0
   18.1442  -21.8777  -11.4174 O   0  0  0  0  0  0  0  0  0  0  0  0
   17.2242  -22.6097  -10.9998 C   0  0  0  0  0  0  0  0  0  0  0  0
   18.0366  -21.2039  -12.7242 C   0  0  0  0  0  0  0  0  0  0  0  0
   19.2108  -20.3607  -13.0671 C   0  0  1  0  0  0  0  0  0  0  0  0
   19.0157  -19.5816  -14.3314 N   0  0  0  0  0  0  0  0  0  0  0  0
   20.2098  -18.7725  -14.6084 C   0  0  0  0  0  0  0  0  0  0  0  0
   17.8136  -18.7176  -14.3079 O   0  0  0  0  0  0  0  0  0  0  0  0
   16.7052  -19.0175  -14.7968 O   0  0  0  0  0  0  0  0  0  0  0  0
  2  3  2  0
  2  1  1  0
  4  2  1  0
  5  4  1  0
  6  5  1  0
  7  6  1  0
  8  9  1  1
  8  7  1  0
 10  8  1  0
 11 10  2  0
 12 10  1  0
 13 19  1  0
 13 12  1  0
 13 14  1  6
 15 14  1  0
 16 15  1  0
 17 16  1  0
 18 17  1  0
 19 20  2  0
 22 21  1  0
 22 24  1  0
 23 22  2  0
 25 24  1  0
 26 25  1  6
 27 19  1  0
 27 26  1  0
 28 30  1  0
 28 26  1  0
 29 28  2  0
M  END
$$$$
