RKQ.pdb
     RDKit          3D

 30 29  0  0  1  0  0  0  0  0999 V2000
   16.6265  -24.3734   -5.0254 N   0  0  0  0  0  0  0  0  0  0  0  0
   17.6602  -25.3750   -5.1268 C   0  0  0  0  0  0  0  0  0  0  0  0
   17.8189  -26.2643   -4.1924 N   0  0  0  0  0  0  0  0  0  0  0  0
   18.5322  -25.4173   -6.2489 N   0  0  0  0  0  0  0  0  0  0  0  0
   18.6326  -24.2775   -7.1488 C   0  0  0  0  0  0  0  0  0  0  0  0
   17.4929  -24.2472   -8.1328 C   0  0  0  0  0  0  0  0  0  0  0  0
   17.5444  -23.1035   -9.0774 C   0  0  0  0  0  0  0  0  0  0  0  0
   18.6011  -23.1858  -10.1410 C   0  0  2  0  0  0  0  0  0  0  0  0
   18.6278  -21.9414  -10.9015 N   0  0  0  0  0  0  0  0  0  0  0  0
   18.3611  -24.2968  -11.0872 C   0  0  0  0  0  0  0  0  0  0  0  0
   17.3539  -24.2905  -11.8450 O   0  0  0  0  0  0  0  0  0  0  0  0
   18.6362  -26.8773   -4.2456 N   0  0  0  0  0  0  0  0  0  0  0  0
   19.2795  -25.3723  -11.1325 C   0  0  2  0  0  0  0  0  0  0  0  0
   19.0823  -26.4558  -12.0914 C   0  0  0  0  0  0  0  0  0  0  0  0
   20.4067  -26.8237  -12.6841 C   0  0  0  0  0  0  0  0  0  0  0  0
   20.2903  -27.9012  -13.7162 C   0  0  0  0  0  0  0  0  0  0  0  0
   21.6227  -28.1188  -14.4262 C   0  0  0  0  0  0  0  0  0  0  0  0
   21.4285  -29.1943  -15.4816 N   0  0  0  0  0  0  0  0  0  0  0  0
   22.6318  -29.4008  -16.2365 C   0  0  0  0  0  0  0  0  0  0  0  0
   18.5315  -27.6273  -11.3357 O   0  0  0  0  0  0  0  0  0  0  0  0
   18.7667  -27.8050  -10.1005 N   0  0  0  0  0  0  0  0  0  0  0  0
   13.8126  -25.7830  -10.3038 C   0  0  0  0  0  0  0  0  0  0  0  0
   14.6184  -26.3738   -9.2997 O   0  0  0  0  0  0  0  0  0  0  0  0
   14.5126  -25.9798   -8.1206 C   0  0  0  0  0  0  0  0  0  0  0  0
   15.5710  -27.4415   -9.6546 C   0  0  0  0  0  0  0  0  0  0  0  0
   15.6165  -27.7515  -11.1069 C   0  0  2  0  0  0  0  0  0  0  0  0
   16.4266  -28.9735  -11.4138 N   0  0  0  0  0  0  0  0  0  0  0  0
   17.7220  -28.5829  -11.9854 C   0  0  0  0  0  0  0  0  0  0  0  0
   15.7386  -29.9205  -12.3202 O   0  0  0  0  0  0  0  0  0  0  0  0
   15.7292  -29.8428  -13.5657 O   0  0  0  0  0  0  0  0  0  0  0  0
  2  3  2  0
  2  1  1  0
  4  2  1  0
  5  4  1  0
  6  5  1  0
  7  6  1  0
  8  9  1  6
  8  7  1  0
 10  8  1  0
 11 10  2  0
 12 10  1  0
 13 19  1  0
 13 12  1  0
 13 14  1  1
 15 14  1  0
 16 15  1  0
 17 16  1  0
 18 17  1  0
 19 20  2  0
 22 21  1  0
 22 24  1  0
 23 22  2  0
 25 24  1  0
 26 25  1  1
 27 19  1  0
 27 26  1  0
 28 30  1  0
 28 26  1  0
 29 28  2  0
M  END
$$$$
