RKQ.pdb
     RDKit          3D

 30 29  0  0  1  0  0  0  0  0999 V2000
   27.9636  -22.1357  -16.3012 N   0  0  0  0  0  0  0  0  0  0  0  0
   28.3065  -20.7371  -16.3933 C   0  0  0  0  0  0  0  0  0  0  0  0
   28.7634  -20.2357  -17.5019 N   0  0  0  0  0  0  0  0  0  0  0  0
   28.1544  -19.8702  -15.2768 N   0  0  0  0  0  0  0  0  0  0  0  0
   26.8891  -19.8052  -14.5599 C   0  0  0  0  0  0  0  0  0  0  0  0
   25.7652  -19.3633  -15.4597 C   0  0  0  0  0  0  0  0  0  0  0  0
   24.4139  -19.5877  -14.8884 C   0  0  0  0  0  0  0  0  0  0  0  0
   24.3736  -20.3450  -13.5924 C   0  0  2  0  0  0  0  0  0  0  0  0
   25.5044  -21.2640  -13.5272 N   0  0  0  0  0  0  0  0  0  0  0  0
   23.1318  -21.1339  -13.4406 C   0  0  0  0  0  0  0  0  0  0  0  0
   22.7718  -21.9458  -14.3350 O   0  0  0  0  0  0  0  0  0  0  0  0
   28.9738  -19.2348  -17.5263 N   0  0  0  0  0  0  0  0  0  0  0  0
   22.3486  -20.9662  -12.2741 C   0  0  1  0  0  0  0  0  0  0  0  0
   21.2018  -21.8387  -12.0378 C   0  0  0  0  0  0  0  0  0  0  0  0
   20.9826  -21.9596  -10.5619 C   0  0  0  0  0  0  0  0  0  0  0  0
   19.9681  -23.0052  -10.2196 C   0  0  0  0  0  0  0  0  0  0  0  0
   19.6934  -23.0243   -8.7193 C   0  0  0  0  0  0  0  0  0  0  0  0
   18.5977  -24.0417   -8.4499 N   0  0  0  0  0  0  0  0  0  0  0  0
   18.2463  -24.0665   -7.0583 C   0  0  0  0  0  0  0  0  0  0  0  0
   20.0073  -21.1883  -12.6677 O   0  0  0  0  0  0  0  0  0  0  0  0
   19.7776  -19.9444  -12.5544 N   0  0  0  0  0  0  0  0  0  0  0  0
   17.3048  -22.8448  -18.0200 C   0  0  0  0  0  0  0  0  0  0  0  0
   16.5005  -21.7652  -17.5793 O   0  0  0  0  0  0  0  0  0  0  0  0
   15.6143  -21.3155  -18.3336 C   0  0  0  0  0  0  0  0  0  0  0  0
   16.7175  -21.1844  -16.2418 C   0  0  0  0  0  0  0  0  0  0  0  0
   17.8769  -21.7617  -15.5139 C   0  0  1  0  0  0  0  0  0  0  0  0
   17.9551  -21.3020  -14.0905 N   0  0  0  0  0  0  0  0  0  0  0  0
   19.0878  -21.9515  -13.4177 C   0  0  0  0  0  0  0  0  0  0  0  0
   16.7089  -21.5413  -13.3278 O   0  0  0  0  0  0  0  0  0  0  0  0
   16.4680  -22.5604  -12.6489 O   0  0  0  0  0  0  0  0  0  0  0  0
  2  3  2  0
  2  1  1  0
  4  2  1  0
  5  4  1  0
  6  5  1  0
  7  6  1  0
  8  9  1  6
  8  7  1  0
 10  8  1  0
 11 10  2  0
 12 10  1  0
 13 19  1  0
 13 12  1  0
 13 14  1  6
 15 14  1  0
 16 15  1  0
 17 16  1  0
 18 17  1  0
 19 20  2  0
 22 21  1  0
 22 24  1  0
 23 22  2  0
 25 24  1  0
 26 25  1  6
 27 19  1  0
 27 26  1  0
 28 30  1  0
 28 26  1  0
 29 28  2  0
M  END
$$$$
