RKQ.pdb
     RDKit          3D

 30 29  0  0  1  0  0  0  0  0999 V2000
   19.5368  -24.6604  -11.6255 N   0  0  0  0  0  0  0  0  0  0  0  0
   18.9086  -23.4573  -11.1356 C   0  0  0  0  0  0  0  0  0  0  0  0
   18.1496  -22.7405  -11.9096 N   0  0  0  0  0  0  0  0  0  0  0  0
   19.1016  -23.0231   -9.7956 N   0  0  0  0  0  0  0  0  0  0  0  0
   18.8074  -23.9132   -8.6819 C   0  0  0  0  0  0  0  0  0  0  0  0
   17.4038  -24.4533   -8.7609 C   0  0  0  0  0  0  0  0  0  0  0  0
   17.0161  -25.2922   -7.5995 C   0  0  0  0  0  0  0  0  0  0  0  0
   18.0639  -26.2503   -7.1110 C   0  0  2  0  0  0  0  0  0  0  0  0
   18.3092  -27.2673   -8.1274 N   0  0  0  0  0  0  0  0  0  0  0  0
   17.6613  -26.9358   -5.8638 C   0  0  0  0  0  0  0  0  0  0  0  0
   16.7375  -27.7933   -5.8702 O   0  0  0  0  0  0  0  0  0  0  0  0
   17.6944  -21.9169  -11.5082 N   0  0  0  0  0  0  0  0  0  0  0  0
   18.3282  -26.6165   -4.6574 C   0  0  2  0  0  0  0  0  0  0  0  0
   17.8902  -27.2228   -3.4031 C   0  0  0  0  0  0  0  0  0  0  0  0
   19.0177  -27.1673   -2.4200 C   0  0  0  0  0  0  0  0  0  0  0  0
   18.6644  -27.8002   -1.1106 C   0  0  0  0  0  0  0  0  0  0  0  0
   19.8525  -27.7685   -0.1545 C   0  0  0  0  0  0  0  0  0  0  0  0
   19.4176  -28.3852    1.1641 N   0  0  0  0  0  0  0  0  0  0  0  0
   20.5271  -28.5118    2.0662 C   0  0  0  0  0  0  0  0  0  0  0  0
   16.7408  -26.4089   -2.8901 O   0  0  0  0  0  0  0  0  0  0  0  0
   16.7693  -25.1395   -2.8672 N   0  0  0  0  0  0  0  0  0  0  0  0
   10.4922  -26.7265   -2.4290 C   0  0  0  0  0  0  0  0  0  0  0  0
   11.3162  -27.2162   -3.4721 O   0  0  0  0  0  0  0  0  0  0  0  0
   10.8032  -27.5033   -4.5726 C   0  0  0  0  0  0  0  0  0  0  0  0
   12.7638  -27.3833   -3.2491 C   0  0  0  0  0  0  0  0  0  0  0  0
   13.2058  -27.0418   -1.8724 C   0  0  2  0  0  0  0  0  0  0  0  0
   14.4730  -26.2433   -1.8517 N   0  0  0  0  0  0  0  0  0  0  0  0
   15.5738  -27.0397   -2.4096 C   0  0  0  0  0  0  0  0  0  0  0  0
   14.8358  -25.7544   -0.5022 O   0  0  0  0  0  0  0  0  0  0  0  0
   15.8554  -26.0925    0.1331 O   0  0  0  0  0  0  0  0  0  0  0  0
  2  3  2  0
  2  1  1  0
  4  2  1  0
  5  4  1  0
  6  5  1  0
  7  6  1  0
  8  9  1  6
  8  7  1  0
 10  8  1  0
 11 10  2  0
 12 10  1  0
 13 19  1  0
 13 12  1  0
 13 14  1  6
 15 14  1  0
 16 15  1  0
 17 16  1  0
 18 17  1  0
 19 20  2  0
 22 21  1  0
 22 24  1  0
 23 22  2  0
 25 24  1  0
 26 25  1  6
 27 19  1  0
 27 26  1  0
 28 30  1  0
 28 26  1  0
 29 28  2  0
M  END
$$$$
