RKQ.pdb
     RDKit          3D

 30 29  0  0  1  0  0  0  0  0999 V2000
   21.8460  -15.7283  -20.4382 N   0  0  0  0  0  0  0  0  0  0  0  0
   23.2860  -15.7917  -20.3691 C   0  0  0  0  0  0  0  0  0  0  0  0
   24.0198  -15.3115  -21.3283 N   0  0  0  0  0  0  0  0  0  0  0  0
   23.9410  -16.3796  -19.2527 N   0  0  0  0  0  0  0  0  0  0  0  0
   23.1707  -16.8668  -18.1176 C   0  0  0  0  0  0  0  0  0  0  0  0
   22.5649  -18.2167  -18.3982 C   0  0  0  0  0  0  0  0  0  0  0  0
   21.7761  -18.7684  -17.2685 C   0  0  0  0  0  0  0  0  0  0  0  0
   22.4741  -18.7935  -15.9393 C   0  0  2  0  0  0  0  0  0  0  0  0
   23.8757  -19.1498  -16.1293 N   0  0  0  0  0  0  0  0  0  0  0  0
   21.8740  -19.7728  -15.0075 C   0  0  0  0  0  0  0  0  0  0  0  0
   21.7649  -20.9860  -15.3313 O   0  0  0  0  0  0  0  0  0  0  0  0
   25.0361  -15.3899  -21.2417 N   0  0  0  0  0  0  0  0  0  0  0  0
   21.4214  -19.3301  -13.7420 C   0  0  1  0  0  0  0  0  0  0  0  0
   20.9621  -20.3025  -12.7541 C   0  0  0  0  0  0  0  0  0  0  0  0
   21.0595  -19.6900  -11.3917 C   0  0  0  0  0  0  0  0  0  0  0  0
   20.6660  -20.6441  -10.3079 C   0  0  0  0  0  0  0  0  0  0  0  0
   20.6229  -19.9409   -8.9550 C   0  0  0  0  0  0  0  0  0  0  0  0
   20.2200  -20.9598   -7.9026 N   0  0  0  0  0  0  0  0  0  0  0  0
   20.1950  -20.3692   -6.5944 C   0  0  0  0  0  0  0  0  0  0  0  0
   19.5275  -20.6093  -13.0616 O   0  0  0  0  0  0  0  0  0  0  0  0
   18.6988  -19.7045  -13.3894 N   0  0  0  0  0  0  0  0  0  0  0  0
   16.8596  -26.4281  -13.5435 C   0  0  0  0  0  0  0  0  0  0  0  0
   15.7872  -25.5255  -13.7486 O   0  0  0  0  0  0  0  0  0  0  0  0
   14.6562  -25.9731  -14.0265 C   0  0  0  0  0  0  0  0  0  0  0  0
   16.0156  -24.0736  -13.6345 C   0  0  0  0  0  0  0  0  0  0  0  0
   17.4183  -23.7070  -13.3097 C   0  0  2  0  0  0  0  0  0  0  0  0
   17.6290  -22.2257  -13.2401 N   0  0  0  0  0  0  0  0  0  0  0  0
   19.0476  -21.9343  -12.9948 C   0  0  0  0  0  0  0  0  0  0  0  0
   16.7918  -21.5620  -12.2152 O   0  0  0  0  0  0  0  0  0  0  0  0
   17.1438  -21.3328  -11.0400 O   0  0  0  0  0  0  0  0  0  0  0  0
  2  3  2  0
  2  1  1  0
  4  2  1  0
  5  4  1  0
  6  5  1  0
  7  6  1  0
  8  9  1  6
  8  7  1  0
 10  8  1  0
 11 10  2  0
 12 10  1  0
 13 19  1  0
 13 12  1  0
 13 14  1  1
 15 14  1  0
 16 15  1  0
 17 16  1  0
 18 17  1  0
 19 20  2  0
 22 21  1  0
 22 24  1  0
 23 22  2  0
 25 24  1  0
 26 25  1  6
 27 19  1  0
 27 26  1  0
 28 30  1  0
 28 26  1  0
 29 28  2  0
M  END
$$$$
