RKQ.pdb
     RDKit          3D

 30 29  0  0  1  0  0  0  0  0999 V2000
   24.2541  -21.2972   -9.6715 N   0  0  0  0  0  0  0  0  0  0  0  0
   25.6053  -20.8895   -9.3709 C   0  0  0  0  0  0  0  0  0  0  0  0
   26.0055  -20.7687   -8.1403 N   0  0  0  0  0  0  0  0  0  0  0  0
   26.5345  -20.6093  -10.4096 N   0  0  0  0  0  0  0  0  0  0  0  0
   26.1153  -20.6417  -11.8034 C   0  0  0  0  0  0  0  0  0  0  0  0
   26.2736  -22.0166  -12.3971 C   0  0  0  0  0  0  0  0  0  0  0  0
   25.8966  -22.0998  -13.8302 C   0  0  0  0  0  0  0  0  0  0  0  0
   26.6748  -21.2136  -14.7596 C   0  0  2  0  0  0  0  0  0  0  0  0
   27.9821  -20.9252  -14.1806 N   0  0  0  0  0  0  0  0  0  0  0  0
   25.9913  -19.9268  -15.0132 C   0  0  0  0  0  0  0  0  0  0  0  0
   26.0627  -18.9848  -14.1789 O   0  0  0  0  0  0  0  0  0  0  0  0
   26.9844  -20.5215   -7.9750 N   0  0  0  0  0  0  0  0  0  0  0  0
   25.2527  -19.7643  -16.2091 C   0  0  1  0  0  0  0  0  0  0  0  0
   24.6024  -18.4880  -16.4933 C   0  0  0  0  0  0  0  0  0  0  0  0
   25.0813  -17.9865  -17.8199 C   0  0  0  0  0  0  0  0  0  0  0  0
   26.5296  -17.6100  -17.7984 C   0  0  0  0  0  0  0  0  0  0  0  0
   26.9613  -17.0370  -19.1445 C   0  0  0  0  0  0  0  0  0  0  0  0
   28.4588  -16.7855  -19.0954 N   0  0  0  0  0  0  0  0  0  0  0  0
   28.9236  -16.1926  -20.3174 C   0  0  0  0  0  0  0  0  0  0  0  0
   23.1268  -18.7427  -16.5595 O   0  0  0  0  0  0  0  0  0  0  0  0
   22.6503  -19.8998  -16.7759 N   0  0  0  0  0  0  0  0  0  0  0  0
   20.8836  -20.0300  -12.1310 C   0  0  0  0  0  0  0  0  0  0  0  0
   19.6398  -19.6129  -12.6655 O   0  0  0  0  0  0  0  0  0  0  0  0
   18.5907  -19.8601  -12.0371 C   0  0  0  0  0  0  0  0  0  0  0  0
   19.5958  -18.8964  -13.9531 C   0  0  0  0  0  0  0  0  0  0  0  0
   20.9329  -18.6441  -14.5496 C   0  0  1  0  0  0  0  0  0  0  0  0
   20.8549  -17.9545  -15.8769 N   0  0  0  0  0  0  0  0  0  0  0  0
   22.2084  -17.6867  -16.3806 C   0  0  0  0  0  0  0  0  0  0  0  0
   20.0713  -16.6988  -15.8400 O   0  0  0  0  0  0  0  0  0  0  0  0
   18.8374  -16.6282  -15.6667 O   0  0  0  0  0  0  0  0  0  0  0  0
  2  3  2  0
  2  1  1  0
  4  2  1  0
  5  4  1  0
  6  5  1  0
  7  6  1  0
  8  9  1  1
  8  7  1  0
 10  8  1  0
 11 10  2  0
 12 10  1  0
 13 19  1  0
 13 12  1  0
 13 14  1  1
 15 14  1  0
 16 15  1  0
 17 16  1  0
 18 17  1  0
 19 20  2  0
 22 21  1  0
 22 24  1  0
 23 22  2  0
 25 24  1  0
 26 25  1  6
 27 19  1  0
 27 26  1  0
 28 30  1  0
 28 26  1  0
 29 28  2  0
M  END
$$$$
