RKQ.pdb
     RDKit          3D

 30 29  0  0  1  0  0  0  0  0999 V2000
   30.9036  -21.2308   -8.3695 N   0  0  0  0  0  0  0  0  0  0  0  0
   31.3532  -21.8945   -9.5693 C   0  0  0  0  0  0  0  0  0  0  0  0
   32.3363  -22.7438   -9.5311 N   0  0  0  0  0  0  0  0  0  0  0  0
   30.7351  -21.6390  -10.8237 N   0  0  0  0  0  0  0  0  0  0  0  0
   29.2965  -21.7954  -10.9831 C   0  0  0  0  0  0  0  0  0  0  0  0
   28.5350  -20.9302  -10.0139 C   0  0  0  0  0  0  0  0  0  0  0  0
   27.4229  -20.1677  -10.6341 C   0  0  0  0  0  0  0  0  0  0  0  0
   26.1435  -20.9285  -10.8310 C   0  0  2  0  0  0  0  0  0  0  0  0
   26.4421  -22.3387  -11.0538 N   0  0  0  0  0  0  0  0  0  0  0  0
   25.3685  -20.4349  -11.9900 C   0  0  0  0  0  0  0  0  0  0  0  0
   25.0679  -19.2150  -12.0908 O   0  0  0  0  0  0  0  0  0  0  0  0
   32.6768  -23.1254  -10.4172 N   0  0  0  0  0  0  0  0  0  0  0  0
   24.9664  -21.3523  -12.9895 C   0  0  1  0  0  0  0  0  0  0  0  0
   24.2180  -20.8791  -14.1507 C   0  0  0  0  0  0  0  0  0  0  0  0
   24.5087  -21.7779  -15.3120 C   0  0  0  0  0  0  0  0  0  0  0  0
   23.7919  -21.3534  -16.5553 C   0  0  0  0  0  0  0  0  0  0  0  0
   24.1939  -22.2277  -17.7388 C   0  0  0  0  0  0  0  0  0  0  0  0
   23.4377  -21.7447  -18.9648 N   0  0  0  0  0  0  0  0  0  0  0  0
   23.8056  -22.4991  -20.1293 C   0  0  0  0  0  0  0  0  0  0  0  0
   22.7611  -20.9622  -13.8083 O   0  0  0  0  0  0  0  0  0  0  0  0
   22.2592  -21.9780  -13.2346 N   0  0  0  0  0  0  0  0  0  0  0  0
   18.6295  -16.0770  -13.8137 C   0  0  0  0  0  0  0  0  0  0  0  0
   17.8387  -17.2002  -13.4676 O   0  0  0  0  0  0  0  0  0  0  0  0
   16.6228  -17.0436  -13.2358 C   0  0  0  0  0  0  0  0  0  0  0  0
   18.4559  -18.5363  -13.3830 C   0  0  0  0  0  0  0  0  0  0  0  0
   19.8901  -18.5643  -13.7698 C   0  0  1  0  0  0  0  0  0  0  0  0
   20.4838  -19.9374  -13.6958 N   0  0  0  0  0  0  0  0  0  0  0  0
   21.8899  -19.8967  -14.1185 C   0  0  0  0  0  0  0  0  0  0  0  0
   19.7440  -20.9399  -14.4956 O   0  0  0  0  0  0  0  0  0  0  0  0
   19.9998  -21.2439  -15.6787 O   0  0  0  0  0  0  0  0  0  0  0  0
  2  3  2  0
  2  1  1  0
  4  2  1  0
  5  4  1  0
  6  5  1  0
  7  6  1  0
  8  9  1  6
  8  7  1  0
 10  8  1  0
 11 10  2  0
 12 10  1  0
 13 19  1  0
 13 12  1  0
 13 14  1  6
 15 14  1  0
 16 15  1  0
 17 16  1  0
 18 17  1  0
 19 20  2  0
 22 21  1  0
 22 24  1  0
 23 22  2  0
 25 24  1  0
 26 25  1  1
 27 19  1  0
 27 26  1  0
 28 30  1  0
 28 26  1  0
 29 28  2  0
M  END
$$$$
