RKQ.pdb
     RDKit          3D

 30 29  0  0  1  0  0  0  0  0999 V2000
   28.8759  -26.9932  -16.4288 N   0  0  0  0  0  0  0  0  0  0  0  0
   28.9094  -26.9989  -17.8714 C   0  0  0  0  0  0  0  0  0  0  0  0
   29.6476  -27.8522  -18.5164 N   0  0  0  0  0  0  0  0  0  0  0  0
   28.1378  -26.0736  -18.6261 N   0  0  0  0  0  0  0  0  0  0  0  0
   27.1448  -25.2341  -17.9716 C   0  0  0  0  0  0  0  0  0  0  0  0
   25.9116  -26.0177  -17.6064 C   0  0  0  0  0  0  0  0  0  0  0  0
   24.8272  -25.1926  -17.0182 C   0  0  0  0  0  0  0  0  0  0  0  0
   25.1961  -23.7758  -16.6850 C   0  0  2  0  0  0  0  0  0  0  0  0
   26.6308  -23.6893  -16.4364 N   0  0  0  0  0  0  0  0  0  0  0  0
   24.4915  -23.2790  -15.4833 C   0  0  0  0  0  0  0  0  0  0  0  0
   23.3163  -23.6546  -15.2251 O   0  0  0  0  0  0  0  0  0  0  0  0
   29.6788  -27.7864  -19.5369 N   0  0  0  0  0  0  0  0  0  0  0  0
   25.1548  -22.3729  -14.6224 C   0  0  1  0  0  0  0  0  0  0  0  0
   24.4617  -21.8448  -13.4506 C   0  0  0  0  0  0  0  0  0  0  0  0
   25.4730  -21.5257  -12.3940 C   0  0  0  0  0  0  0  0  0  0  0  0
   24.8382  -21.1278  -11.0984 C   0  0  0  0  0  0  0  0  0  0  0  0
   25.8965  -20.7207  -10.0781 C   0  0  0  0  0  0  0  0  0  0  0  0
   25.1970  -20.4138   -8.7648 N   0  0  0  0  0  0  0  0  0  0  0  0
   26.1157  -19.8715   -7.8044 C   0  0  0  0  0  0  0  0  0  0  0  0
   23.7662  -20.5856  -13.8717 O   0  0  0  0  0  0  0  0  0  0  0  0
   24.1831  -19.8748  -14.8381 N   0  0  0  0  0  0  0  0  0  0  0  0
   18.9692  -22.1327  -16.2228 C   0  0  0  0  0  0  0  0  0  0  0  0
   19.7513  -21.1875  -16.9311 O   0  0  0  0  0  0  0  0  0  0  0  0
   19.4209  -20.8670  -18.0907 C   0  0  0  0  0  0  0  0  0  0  0  0
   20.9429  -20.5955  -16.2963 C   0  0  0  0  0  0  0  0  0  0  0  0
   21.2282  -21.1237  -14.9373 C   0  0  2  0  0  0  0  0  0  0  0  0
   21.3262  -20.0435  -13.9043 N   0  0  0  0  0  0  0  0  0  0  0  0
   22.6087  -20.1455  -13.1957 C   0  0  0  0  0  0  0  0  0  0  0  0
   20.2090  -20.0583  -12.9329 O   0  0  0  0  0  0  0  0  0  0  0  0
   20.0035  -20.9552  -12.0897 O   0  0  0  0  0  0  0  0  0  0  0  0
  2  3  2  0
  2  1  1  0
  4  2  1  0
  5  4  1  0
  6  5  1  0
  7  6  1  0
  8  9  1  1
  8  7  1  0
 10  8  1  0
 11 10  2  0
 12 10  1  0
 13 19  1  0
 13 12  1  0
 13 14  1  1
 15 14  1  0
 16 15  1  0
 17 16  1  0
 18 17  1  0
 19 20  2  0
 22 21  1  0
 22 24  1  0
 23 22  2  0
 25 24  1  0
 26 25  1  6
 27 19  1  0
 27 26  1  0
 28 30  1  0
 28 26  1  0
 29 28  2  0
M  END
$$$$
