RKQ.pdb
     RDKit          3D

 30 29  0  0  1  0  0  0  0  0999 V2000
   27.7337  -20.6592   -9.3254 N   0  0  0  0  0  0  0  0  0  0  0  0
   26.3809  -21.0201   -8.9763 C   0  0  0  0  0  0  0  0  0  0  0  0
   25.9281  -20.8201   -7.7746 N   0  0  0  0  0  0  0  0  0  0  0  0
   25.5074  -21.6030   -9.9345 N   0  0  0  0  0  0  0  0  0  0  0  0
   25.9790  -21.8981  -11.2798 C   0  0  0  0  0  0  0  0  0  0  0  0
   25.6335  -20.7925  -12.2423 C   0  0  0  0  0  0  0  0  0  0  0  0
   24.2129  -20.7917  -12.6722 C   0  0  0  0  0  0  0  0  0  0  0  0
   23.9824  -20.7384  -14.1550 C   0  0  2  0  0  0  0  0  0  0  0  0
   25.2570  -20.5636  -14.8423 N   0  0  0  0  0  0  0  0  0  0  0  0
   23.0935  -19.6229  -14.5460 C   0  0  0  0  0  0  0  0  0  0  0  0
   22.1915  -19.2150  -13.7659 O   0  0  0  0  0  0  0  0  0  0  0  0
   24.9552  -21.0692   -7.5797 N   0  0  0  0  0  0  0  0  0  0  0  0
   23.2680  -19.0158  -15.8122 C   0  0  1  0  0  0  0  0  0  0  0  0
   22.2980  -18.0324  -16.2859 C   0  0  0  0  0  0  0  0  0  0  0  0
   23.0015  -17.0426  -17.1613 C   0  0  0  0  0  0  0  0  0  0  0  0
   22.1970  -15.7994  -17.3776 C   0  0  0  0  0  0  0  0  0  0  0  0
   22.9531  -14.8101  -18.2587 C   0  0  0  0  0  0  0  0  0  0  0  0
   22.0814  -13.5803  -18.4485 N   0  0  0  0  0  0  0  0  0  0  0  0
   22.7916  -12.3840  -18.0951 C   0  0  0  0  0  0  0  0  0  0  0  0
   21.2709  -18.7690  -17.0914 O   0  0  0  0  0  0  0  0  0  0  0  0
   21.5100  -19.8991  -17.6192 N   0  0  0  0  0  0  0  0  0  0  0  0
   20.6929  -21.6189  -14.3515 C   0  0  0  0  0  0  0  0  0  0  0  0
   19.3783  -21.9462  -14.7654 O   0  0  0  0  0  0  0  0  0  0  0  0
   18.9794  -23.1236  -14.6597 C   0  0  0  0  0  0  0  0  0  0  0  0
   18.4986  -20.8993  -15.3163 C   0  0  0  0  0  0  0  0  0  0  0  0
   19.1527  -19.5725  -15.4547 C   0  0  2  0  0  0  0  0  0  0  0  0
   18.7991  -18.8828  -16.7364 N   0  0  0  0  0  0  0  0  0  0  0  0
   19.9867  -18.2195  -17.2904 C   0  0  0  0  0  0  0  0  0  0  0  0
   17.6957  -17.9063  -16.5916 O   0  0  0  0  0  0  0  0  0  0  0  0
   17.8067  -16.7673  -16.0937 O   0  0  0  0  0  0  0  0  0  0  0  0
  2  3  2  0
  2  1  1  0
  4  2  1  0
  5  4  1  0
  6  5  1  0
  7  6  1  0
  8  9  1  6
  8  7  1  0
 10  8  1  0
 11 10  2  0
 12 10  1  0
 13 19  1  0
 13 12  1  0
 13 14  1  1
 15 14  1  0
 16 15  1  0
 17 16  1  0
 18 17  1  0
 19 20  2  0
 22 21  1  0
 22 24  1  0
 23 22  2  0
 25 24  1  0
 26 25  1  6
 27 19  1  0
 27 26  1  0
 28 30  1  0
 28 26  1  0
 29 28  2  0
M  END
$$$$
