TDH.pdb
     RDKit          3D

 26 26  0  0  1  0  0  0  0  0999 V2000
    8.0370  -12.1317   19.1640 C   0  0  0  0  0  0  0  0  0  0  0  0
    8.9716  -13.2210   19.5720 C   0  0  1  0  0  0  0  0  0  0  0  0
    8.4260  -13.8606   20.6977 O   0  0  0  0  0  0  0  0  0  0  0  0
    9.1956  -14.2808   18.5208 C   0  0  2  0  0  0  0  0  0  0  0  0
    7.8973  -14.6740   17.9925 N   0  0  0  0  0  0  0  0  0  0  0  0
    9.9091  -15.4844   19.0825 C   0  0  0  0  0  0  0  0  0  0  0  0
    9.2902  -16.5686   19.1494 O   0  0  0  0  0  0  0  0  0  0  0  0
   11.2404  -15.3940   19.5223 N   0  0  0  0  0  0  0  0  0  0  0  0
   12.1043  -16.4072   20.0397 C   0  0  1  0  0  0  0  0  0  0  0  0
   13.3716  -16.6724   19.2437 C   0  0  0  0  0  0  0  0  0  0  0  0
   14.1761  -17.7875   19.7853 C   0  0  0  0  0  0  0  0  0  0  0  0
   13.8454  -18.9674   19.5134 O   0  0  0  0  0  0  0  0  0  0  0  0
   12.2775  -16.4431   21.4842 C   0  0  0  0  0  0  0  0  0  0  0  0
   13.2227  -17.1205   21.9556 O   0  0  0  0  0  0  0  0  0  0  0  0
   15.2817  -17.5820   20.5816 O   0  0  0  0  0  0  0  0  0  0  0  0
   11.4175  -15.7430   22.3387 N   0  0  0  0  0  0  0  0  0  0  0  0
   10.8918  -16.3245   23.5842 C   0  0  1  0  0  0  0  0  0  0  0  0
    9.4356  -16.6764   23.2571 C   0  0  0  0  0  0  0  0  0  0  0  0
    8.6363  -15.5037   22.9352 C   0  0  0  0  0  0  0  0  0  0  0  0
    8.5418  -14.3466   23.6724 C   0  0  0  0  0  0  0  0  0  0  0  0
    7.6931  -13.4962   23.0302 N   0  0  0  0  0  0  0  0  0  0  0  0
    7.2672  -14.1032   21.9208 C   0  0  0  0  0  0  0  0  0  0  0  0
    7.8473  -15.3379   21.8620 N   0  0  0  0  0  0  0  0  0  0  0  0
   11.6920  -17.5384   23.8689 C   0  0  0  0  0  0  0  0  0  0  0  0
   12.3082  -18.0954   22.9212 O   0  0  0  0  0  0  0  0  0  0  0  0
   11.8114  -18.1132   25.1268 O   0  0  0  0  0  0  0  0  0  0  0  0
  2  1  1  6
  2  4  1  0
  3  2  1  0
  4  5  1  1
  6  4  1  0
  7  6  2  0
  8  6  1  0
  9  8  1  0
  9 10  1  6
 10 11  1  0
 11 15  1  0
 12 11  2  0
 13  9  1  0
 14 13  2  0
 16 13  1  0
 17 16  1  0
 17 18  1  6
 18 19  1  0
 19 23  1  0
 20 19  2  0
 20 21  1  0
 21 22  1  0
 23 22  2  0
 24 26  1  0
 24 17  1  0
 25 24  2  0
M  END
$$$$
