TDH.pdb
     RDKit          3D

 26 26  0  0  1  0  0  0  0  0999 V2000
    9.2507  -12.4326   19.7651 C   0  0  0  0  0  0  0  0  0  0  0  0
    8.1674  -13.2164   19.1028 C   0  0  1  0  0  0  0  0  0  0  0  0
    7.8947  -12.6159   17.8622 O   0  0  0  0  0  0  0  0  0  0  0  0
    8.5140  -14.6605   18.8334 C   0  0  2  0  0  0  0  0  0  0  0  0
    7.4162  -15.2562   18.0854 N   0  0  0  0  0  0  0  0  0  0  0  0
    8.7438  -15.4287   20.1103 C   0  0  0  0  0  0  0  0  0  0  0  0
    7.7595  -15.9460   20.6818 O   0  0  0  0  0  0  0  0  0  0  0  0
   10.0342  -15.5625   20.6497 N   0  0  0  0  0  0  0  0  0  0  0  0
   10.4592  -16.1868   21.8622 C   0  0  1  0  0  0  0  0  0  0  0  0
   11.8486  -16.8027   21.8429 C   0  0  0  0  0  0  0  0  0  0  0  0
   12.0373  -17.7782   20.7488 C   0  0  0  0  0  0  0  0  0  0  0  0
   11.4369  -18.8792   20.8022 O   0  0  0  0  0  0  0  0  0  0  0  0
   10.1147  -15.5077   23.1024 C   0  0  0  0  0  0  0  0  0  0  0  0
    9.9313  -14.2667   23.0725 O   0  0  0  0  0  0  0  0  0  0  0  0
   12.8507  -17.5252   19.6659 O   0  0  0  0  0  0  0  0  0  0  0  0
    9.9873  -16.2101   24.3066 N   0  0  0  0  0  0  0  0  0  0  0  0
    9.2964  -15.6522   25.4801 C   0  0  1  0  0  0  0  0  0  0  0  0
    7.8598  -15.4128   25.0000 C   0  0  0  0  0  0  0  0  0  0  0  0
    7.2766  -14.2045   25.5638 C   0  0  0  0  0  0  0  0  0  0  0  0
    7.8561  -13.3670   26.4879 C   0  0  0  0  0  0  0  0  0  0  0  0
    6.9856  -12.3534   26.7543 N   0  0  0  0  0  0  0  0  0  0  0  0
    5.8905  -12.5499   26.0175 C   0  0  0  0  0  0  0  0  0  0  0  0
    6.0694  -13.6883   25.2849 N   0  0  0  0  0  0  0  0  0  0  0  0
    9.3476  -16.6812   26.5447 C   0  0  0  0  0  0  0  0  0  0  0  0
    9.3464  -16.3096   27.7489 O   0  0  0  0  0  0  0  0  0  0  0  0
    9.3973  -18.0474   26.3034 O   0  0  0  0  0  0  0  0  0  0  0  0
  2  1  1  6
  2  4  1  0
  3  2  1  0
  4  5  1  1
  6  4  1  0
  7  6  2  0
  8  6  1  0
  9  8  1  0
  9 10  1  6
 10 11  1  0
 11 15  1  0
 12 11  2  0
 13  9  1  0
 14 13  2  0
 16 13  1  0
 17 16  1  0
 17 18  1  6
 18 19  1  0
 19 23  1  0
 20 19  2  0
 20 21  1  0
 21 22  1  0
 23 22  2  0
 24 26  1  0
 24 17  1  0
 25 24  2  0
M  END
$$$$
