TDH.pdb
     RDKit          3D

 26 26  0  0  1  0  0  0  0  0999 V2000
    7.8262  -13.2180   19.1162 C   0  0  0  0  0  0  0  0  0  0  0  0
    8.9271  -13.1206   18.1137 C   0  0  1  0  0  0  0  0  0  0  0  0
   10.0760  -12.6566   18.7757 O   0  0  0  0  0  0  0  0  0  0  0  0
    9.2898  -14.4282   17.4526 C   0  0  2  0  0  0  0  0  0  0  0  0
    8.1406  -14.8774   16.6799 N   0  0  0  0  0  0  0  0  0  0  0  0
    9.6734  -15.4791   18.4634 C   0  0  0  0  0  0  0  0  0  0  0  0
    8.7914  -16.2650   18.8723 O   0  0  0  0  0  0  0  0  0  0  0  0
   10.9922  -15.5763   18.9383 N   0  0  0  0  0  0  0  0  0  0  0  0
   11.5502  -16.4546   19.9170 C   0  0  1  0  0  0  0  0  0  0  0  0
   12.9293  -17.0113   19.6034 C   0  0  0  0  0  0  0  0  0  0  0  0
   13.3488  -18.0826   20.5311 C   0  0  0  0  0  0  0  0  0  0  0  0
   12.6171  -19.0933   20.6676 O   0  0  0  0  0  0  0  0  0  0  0  0
   11.3454  -16.0932   21.3117 C   0  0  0  0  0  0  0  0  0  0  0  0
   11.8641  -15.0322   21.7359 O   0  0  0  0  0  0  0  0  0  0  0  0
   14.5185  -18.0155   21.2561 O   0  0  0  0  0  0  0  0  0  0  0  0
   10.5899  -16.9007   22.1703 N   0  0  0  0  0  0  0  0  0  0  0  0
   10.3150  -16.5311   23.5679 C   0  0  1  0  0  0  0  0  0  0  0  0
    8.8040  -16.7379   23.7281 C   0  0  0  0  0  0  0  0  0  0  0  0
    8.0245  -15.7410   23.0094 C   0  0  0  0  0  0  0  0  0  0  0  0
    8.0838  -14.3770   23.1742 C   0  0  0  0  0  0  0  0  0  0  0  0
    7.1975  -13.8016   22.3144 N   0  0  0  0  0  0  0  0  0  0  0  0
    6.5989  -14.7778   21.6293 C   0  0  0  0  0  0  0  0  0  0  0  0
    7.1076  -15.9709   22.0564 N   0  0  0  0  0  0  0  0  0  0  0  0
   11.0835  -17.4648   24.4238 C   0  0  0  0  0  0  0  0  0  0  0  0
   11.7305  -18.3975   23.8763 O   0  0  0  0  0  0  0  0  0  0  0  0
   11.1410  -17.3816   25.8083 O   0  0  0  0  0  0  0  0  0  0  0  0
  2  1  1  1
  2  4  1  0
  3  2  1  0
  4  5  1  1
  6  4  1  0
  7  6  2  0
  8  6  1  0
  9  8  1  0
  9 10  1  6
 10 11  1  0
 11 15  1  0
 12 11  2  0
 13  9  1  0
 14 13  2  0
 16 13  1  0
 17 16  1  0
 17 18  1  1
 18 19  1  0
 19 23  1  0
 20 19  2  0
 20 21  1  0
 21 22  1  0
 23 22  2  0
 24 26  1  0
 24 17  1  0
 25 24  2  0
M  END
$$$$
