TDH.pdb
     RDKit          3D

 26 26  0  0  1  0  0  0  0  0999 V2000
    8.5742  -12.5899   19.5066 C   0  0  0  0  0  0  0  0  0  0  0  0
    8.0222  -13.6432   18.6052 C   0  0  1  0  0  0  0  0  0  0  0  0
    7.1138  -13.0291   17.7269 O   0  0  0  0  0  0  0  0  0  0  0  0
    9.0548  -14.3478   17.7592 C   0  0  2  0  0  0  0  0  0  0  0  0
    8.3610  -15.2862   16.8888 N   0  0  0  0  0  0  0  0  0  0  0  0
   10.0659  -15.0803   18.6044 C   0  0  0  0  0  0  0  0  0  0  0  0
    9.7616  -16.2036   19.0610 O   0  0  0  0  0  0  0  0  0  0  0  0
   11.3238  -14.5163   18.8757 N   0  0  0  0  0  0  0  0  0  0  0  0
   12.3050  -14.8903   19.8441 C   0  0  1  0  0  0  0  0  0  0  0  0
   13.6874  -14.2861   19.6595 C   0  0  0  0  0  0  0  0  0  0  0  0
   14.3071  -14.6362   18.3642 C   0  0  0  0  0  0  0  0  0  0  0  0
   14.7288  -13.7170   17.6208 O   0  0  0  0  0  0  0  0  0  0  0  0
   11.8597  -14.9731   21.2271 C   0  0  0  0  0  0  0  0  0  0  0  0
   11.1134  -14.0665   21.6693 O   0  0  0  0  0  0  0  0  0  0  0  0
   14.4412  -15.9396   17.9381 O   0  0  0  0  0  0  0  0  0  0  0  0
   12.2470  -16.0336   22.0550 N   0  0  0  0  0  0  0  0  0  0  0  0
   11.6479  -16.2647   23.3791 C   0  0  1  0  0  0  0  0  0  0  0  0
   10.1784  -16.5881   23.0827 C   0  0  0  0  0  0  0  0  0  0  0  0
    9.4212  -16.8986   24.2861 C   0  0  0  0  0  0  0  0  0  0  0  0
    9.8952  -16.9003   25.5770 C   0  0  0  0  0  0  0  0  0  0  0  0
    8.8729  -17.2437   26.4095 N   0  0  0  0  0  0  0  0  0  0  0  0
    7.7877  -17.4515   25.6611 C   0  0  0  0  0  0  0  0  0  0  0  0
    8.1247  -17.2391   24.3551 N   0  0  0  0  0  0  0  0  0  0  0  0
   12.3483  -17.4253   23.9767 C   0  0  0  0  0  0  0  0  0  0  0  0
   12.8952  -18.2642   23.2117 O   0  0  0  0  0  0  0  0  0  0  0  0
   12.4452  -17.6557   25.3422 O   0  0  0  0  0  0  0  0  0  0  0  0
  2  1  1  6
  2  4  1  0
  3  2  1  0
  4  5  1  6
  6  4  1  0
  7  6  2  0
  8  6  1  0
  9  8  1  0
  9 10  1  1
 10 11  1  0
 11 15  1  0
 12 11  2  0
 13  9  1  0
 14 13  2  0
 16 13  1  0
 17 16  1  0
 17 18  1  6
 18 19  1  0
 19 23  1  0
 20 19  2  0
 20 21  1  0
 21 22  1  0
 23 22  2  0
 24 26  1  0
 24 17  1  0
 25 24  2  0
M  END
$$$$
