TDH.pdb
     RDKit          3D

 26 26  0  0  1  0  0  0  0  0999 V2000
    7.6696  -12.1163   19.7045 C   0  0  0  0  0  0  0  0  0  0  0  0
    8.2000  -13.1727   20.6151 C   0  0  1  0  0  0  0  0  0  0  0  0
    7.5470  -13.0458   21.8525 O   0  0  0  0  0  0  0  0  0  0  0  0
    7.9746  -14.5855   20.1339 C   0  0  2  0  0  0  0  0  0  0  0  0
    6.5762  -14.7138   19.7499 N   0  0  0  0  0  0  0  0  0  0  0  0
    8.3118  -15.5997   21.1974 C   0  0  0  0  0  0  0  0  0  0  0  0
    7.3760  -16.1381   21.8277 O   0  0  0  0  0  0  0  0  0  0  0  0
    9.6472  -15.9351   21.4772 N   0  0  0  0  0  0  0  0  0  0  0  0
   10.1903  -16.7207   22.5395 C   0  0  1  0  0  0  0  0  0  0  0  0
   11.4992  -17.4327   22.2396 C   0  0  0  0  0  0  0  0  0  0  0  0
   11.9323  -18.3358   23.3264 C   0  0  0  0  0  0  0  0  0  0  0  0
   12.9498  -18.0382   23.9985 O   0  0  0  0  0  0  0  0  0  0  0  0
   10.0986  -16.1602   23.8794 C   0  0  0  0  0  0  0  0  0  0  0  0
   10.6861  -15.0767   24.1149 O   0  0  0  0  0  0  0  0  0  0  0  0
   11.2592  -19.4983   23.6330 O   0  0  0  0  0  0  0  0  0  0  0  0
    9.3753  -16.8039   24.8905 N   0  0  0  0  0  0  0  0  0  0  0  0
    9.1129  -16.1799   26.1972 C   0  0  1  0  0  0  0  0  0  0  0  0
    7.5861  -16.0508   26.2596 C   0  0  0  0  0  0  0  0  0  0  0  0
    7.1322  -14.6838   26.0512 C   0  0  0  0  0  0  0  0  0  0  0  0
    6.1072  -14.2750   25.2306 C   0  0  0  0  0  0  0  0  0  0  0  0
    6.0018  -12.9195   25.3178 N   0  0  0  0  0  0  0  0  0  0  0  0
    6.9350  -12.4903   26.1697 C   0  0  0  0  0  0  0  0  0  0  0  0
    7.6303  -13.5753   26.6211 N   0  0  0  0  0  0  0  0  0  0  0  0
    9.6209  -17.1095   27.2329 C   0  0  0  0  0  0  0  0  0  0  0  0
    9.8373  -18.3102   26.9175 O   0  0  0  0  0  0  0  0  0  0  0  0
    9.8789  -16.7432   28.5468 O   0  0  0  0  0  0  0  0  0  0  0  0
  2  1  1  6
  2  4  1  0
  3  2  1  0
  4  5  1  1
  6  4  1  0
  7  6  2  0
  8  6  1  0
  9  8  1  0
  9 10  1  6
 10 11  1  0
 11 15  1  0
 12 11  2  0
 13  9  1  0
 14 13  2  0
 16 13  1  0
 17 16  1  0
 17 18  1  1
 18 19  1  0
 19 23  1  0
 20 19  2  0
 20 21  1  0
 21 22  1  0
 23 22  2  0
 24 26  1  0
 24 17  1  0
 25 24  2  0
M  END
$$$$
