TDH.pdb
     RDKit          3D

 26 26  0  0  1  0  0  0  0  0999 V2000
    8.1182  -12.2907   19.0791 C   0  0  0  0  0  0  0  0  0  0  0  0
    8.5358  -13.3265   20.0686 C   0  0  1  0  0  0  0  0  0  0  0  0
    8.2670  -12.8298   21.3550 O   0  0  0  0  0  0  0  0  0  0  0  0
    7.8123  -14.6448   19.9386 C   0  0  2  0  0  0  0  0  0  0  0  0
    6.4002  -14.3652   19.7213 N   0  0  0  0  0  0  0  0  0  0  0  0
    7.9846  -15.5016   21.1673 C   0  0  0  0  0  0  0  0  0  0  0  0
    6.9785  -15.7555   21.8646 O   0  0  0  0  0  0  0  0  0  0  0  0
    9.2466  -16.0055   21.5245 N   0  0  0  0  0  0  0  0  0  0  0  0
    9.6101  -16.9018   22.5757 C   0  0  1  0  0  0  0  0  0  0  0  0
    9.8722  -18.3410   22.1631 C   0  0  0  0  0  0  0  0  0  0  0  0
   10.2590  -19.2093   23.2948 C   0  0  0  0  0  0  0  0  0  0  0  0
   11.4757  -19.3471   23.5706 O   0  0  0  0  0  0  0  0  0  0  0  0
   10.5196  -16.3866   23.5883 C   0  0  0  0  0  0  0  0  0  0  0  0
   11.4048  -17.1523   24.0408 O   0  0  0  0  0  0  0  0  0  0  0  0
    9.3312  -19.8771   24.0639 O   0  0  0  0  0  0  0  0  0  0  0  0
   10.4205  -15.0704   24.0548 N   0  0  0  0  0  0  0  0  0  0  0  0
    9.6002  -14.7024   25.2198 C   0  0  1  0  0  0  0  0  0  0  0  0
    8.2029  -14.4516   24.6398 C   0  0  0  0  0  0  0  0  0  0  0  0
    7.3657  -13.6552   25.5245 C   0  0  0  0  0  0  0  0  0  0  0  0
    7.3552  -12.2842   25.6311 C   0  0  0  0  0  0  0  0  0  0  0  0
    6.4321  -11.9334   26.5696 N   0  0  0  0  0  0  0  0  0  0  0  0
    5.8789  -13.0536   27.0385 C   0  0  0  0  0  0  0  0  0  0  0  0
    6.4528  -14.1128   26.3957 N   0  0  0  0  0  0  0  0  0  0  0  0
    9.6048  -15.8640   26.1393 C   0  0  0  0  0  0  0  0  0  0  0  0
    9.4587  -17.0196   25.6583 O   0  0  0  0  0  0  0  0  0  0  0  0
    9.7615  -15.7656   27.5150 O   0  0  0  0  0  0  0  0  0  0  0  0
  2  1  1  6
  2  4  1  0
  3  2  1  0
  4  5  1  1
  6  4  1  0
  7  6  2  0
  8  6  1  0
  9  8  1  0
  9 10  1  6
 10 11  1  0
 11 15  1  0
 12 11  2  0
 13  9  1  0
 14 13  2  0
 16 13  1  0
 17 16  1  0
 17 18  1  6
 18 19  1  0
 19 23  1  0
 20 19  2  0
 20 21  1  0
 21 22  1  0
 23 22  2  0
 24 26  1  0
 24 17  1  0
 25 24  2  0
M  END
$$$$
