TDH.pdb
     RDKit          3D

 26 26  0  0  1  0  0  0  0  0999 V2000
    9.0459  -12.1108   18.7084 C   0  0  0  0  0  0  0  0  0  0  0  0
    8.4494  -13.2572   17.9625 C   0  0  1  0  0  0  0  0  0  0  0  0
    7.6725  -12.7350   16.9148 O   0  0  0  0  0  0  0  0  0  0  0  0
    9.4576  -14.1962   17.3460 C   0  0  2  0  0  0  0  0  0  0  0  0
    8.7406  -15.1279   16.4874 N   0  0  0  0  0  0  0  0  0  0  0  0
   10.2316  -14.9537   18.3950 C   0  0  0  0  0  0  0  0  0  0  0  0
    9.6904  -15.9393   18.9414 O   0  0  0  0  0  0  0  0  0  0  0  0
   11.5329  -14.5638   18.7537 N   0  0  0  0  0  0  0  0  0  0  0  0
   12.4267  -15.1308   19.7129 C   0  0  1  0  0  0  0  0  0  0  0  0
   13.9000  -14.8096   19.5221 C   0  0  0  0  0  0  0  0  0  0  0  0
   14.4106  -15.1913   18.1887 C   0  0  0  0  0  0  0  0  0  0  0  0
   14.6999  -14.2897   17.3647 O   0  0  0  0  0  0  0  0  0  0  0  0
   11.9818  -15.1340   21.0985 C   0  0  0  0  0  0  0  0  0  0  0  0
   12.2217  -14.1251   21.8050 O   0  0  0  0  0  0  0  0  0  0  0  0
   14.5829  -16.5054   17.8123 O   0  0  0  0  0  0  0  0  0  0  0  0
   11.3012  -16.2297   21.6427 N   0  0  0  0  0  0  0  0  0  0  0  0
   10.9002  -16.2904   23.0573 C   0  0  1  0  0  0  0  0  0  0  0  0
    9.4512  -16.7913   23.0229 C   0  0  0  0  0  0  0  0  0  0  0  0
    8.5170  -15.7680   22.5780 C   0  0  0  0  0  0  0  0  0  0  0  0
    8.0307  -14.7198   23.3238 C   0  0  0  0  0  0  0  0  0  0  0  0
    7.1844  -13.9927   22.5421 N   0  0  0  0  0  0  0  0  0  0  0  0
    7.1412  -14.5690   21.3393 C   0  0  0  0  0  0  0  0  0  0  0  0
    7.9609  -15.6608   21.3611 N   0  0  0  0  0  0  0  0  0  0  0  0
   11.7953  -17.2665   23.7214 C   0  0  0  0  0  0  0  0  0  0  0  0
   12.5566  -17.9745   23.0092 O   0  0  0  0  0  0  0  0  0  0  0  0
   11.8541  -17.4575   25.0951 O   0  0  0  0  0  0  0  0  0  0  0  0
  2  1  1  6
  2  4  1  0
  3  2  1  0
  4  5  1  6
  6  4  1  0
  7  6  2  0
  8  6  1  0
  9  8  1  0
  9 10  1  1
 10 11  1  0
 11 15  1  0
 12 11  2  0
 13  9  1  0
 14 13  2  0
 16 13  1  0
 17 16  1  0
 17 18  1  6
 18 19  1  0
 19 23  1  0
 20 19  2  0
 20 21  1  0
 21 22  1  0
 23 22  2  0
 24 26  1  0
 24 17  1  0
 25 24  2  0
M  END
$$$$
