TDH.pdb
     RDKit          3D

 26 26  0  0  1  0  0  0  0  0999 V2000
    7.6896  -12.4626   19.0088 C   0  0  0  0  0  0  0  0  0  0  0  0
    8.2936  -13.4300   19.9710 C   0  0  1  0  0  0  0  0  0  0  0  0
    7.7391  -13.1839   21.2382 O   0  0  0  0  0  0  0  0  0  0  0  0
    8.0363  -14.8811   19.6449 C   0  0  2  0  0  0  0  0  0  0  0  0
    6.6072  -15.0473   19.4224 N   0  0  0  0  0  0  0  0  0  0  0  0
    8.4944  -15.7939   20.7541 C   0  0  0  0  0  0  0  0  0  0  0  0
    7.6320  -16.3120   21.4963 O   0  0  0  0  0  0  0  0  0  0  0  0
    9.8598  -16.0591   20.9530 N   0  0  0  0  0  0  0  0  0  0  0  0
   10.4985  -16.8958   21.9186 C   0  0  1  0  0  0  0  0  0  0  0  0
   11.8351  -17.4899   21.5051 C   0  0  0  0  0  0  0  0  0  0  0  0
   12.3415  -18.5009   22.4568 C   0  0  0  0  0  0  0  0  0  0  0  0
   13.3406  -18.2260   23.1653 O   0  0  0  0  0  0  0  0  0  0  0  0
   10.4318  -16.4612   23.3059 C   0  0  0  0  0  0  0  0  0  0  0  0
   11.1680  -15.5127   23.6704 O   0  0  0  0  0  0  0  0  0  0  0  0
   11.7567  -19.7404   22.5983 O   0  0  0  0  0  0  0  0  0  0  0  0
    9.5712  -17.0777   24.2219 N   0  0  0  0  0  0  0  0  0  0  0  0
    9.5157  -16.6912   25.6408 C   0  0  1  0  0  0  0  0  0  0  0  0
    8.0182  -16.6537   25.9686 C   0  0  0  0  0  0  0  0  0  0  0  0
    7.4256  -15.3471   25.7246 C   0  0  0  0  0  0  0  0  0  0  0  0
    8.0937  -14.1906   25.3968 C   0  0  0  0  0  0  0  0  0  0  0  0
    7.1784  -13.1917   25.2536 N   0  0  0  0  0  0  0  0  0  0  0  0
    5.9697  -13.7076   25.4852 C   0  0  0  0  0  0  0  0  0  0  0  0
    6.1214  -15.0333   25.7747 N   0  0  0  0  0  0  0  0  0  0  0  0
   10.2120  -17.7506   26.4075 C   0  0  0  0  0  0  0  0  0  0  0  0
   10.5415  -18.8125   25.8142 O   0  0  0  0  0  0  0  0  0  0  0  0
   10.5312  -17.6524   27.7549 O   0  0  0  0  0  0  0  0  0  0  0  0
  2  1  1  6
  2  4  1  0
  3  2  1  0
  4  5  1  1
  6  4  1  0
  7  6  2  0
  8  6  1  0
  9  8  1  0
  9 10  1  6
 10 11  1  0
 11 15  1  0
 12 11  2  0
 13  9  1  0
 14 13  2  0
 16 13  1  0
 17 16  1  0
 17 18  1  1
 18 19  1  0
 19 23  1  0
 20 19  2  0
 20 21  1  0
 21 22  1  0
 23 22  2  0
 24 26  1  0
 24 17  1  0
 25 24  2  0
M  END
$$$$
