TDH.pdb
     RDKit          3D

 26 26  0  0  1  0  0  0  0  0999 V2000
    8.8247  -21.5214   18.1910 C   0  0  0  0  0  0  0  0  0  0  0  0
    8.4359  -20.1390   17.7857 C   0  0  1  0  0  0  0  0  0  0  0  0
    8.4835  -20.0692   16.3833 O   0  0  0  0  0  0  0  0  0  0  0  0
    7.0450  -19.7307   18.2064 C   0  0  2  0  0  0  0  0  0  0  0  0
    6.7509  -18.4399   17.6006 N   0  0  0  0  0  0  0  0  0  0  0  0
    6.9185  -19.6368   19.7059 C   0  0  0  0  0  0  0  0  0  0  0  0
    7.5703  -18.7552   20.3065 O   0  0  0  0  0  0  0  0  0  0  0  0
    6.0874  -20.5189   20.4166 N   0  0  0  0  0  0  0  0  0  0  0  0
    5.9295  -20.6927   21.8257 C   0  0  1  0  0  0  0  0  0  0  0  0
    4.5962  -21.2627   22.2813 C   0  0  0  0  0  0  0  0  0  0  0  0
    3.4374  -20.4647   21.8292 C   0  0  0  0  0  0  0  0  0  0  0  0
    3.5160  -19.2120   21.8430 O   0  0  0  0  0  0  0  0  0  0  0  0
    7.0842  -21.1944   22.5556 C   0  0  0  0  0  0  0  0  0  0  0  0
    7.5829  -22.2907   22.2034 O   0  0  0  0  0  0  0  0  0  0  0  0
    2.2672  -21.0448   21.3902 O   0  0  0  0  0  0  0  0  0  0  0  0
    7.6354  -20.4810   23.6266 N   0  0  0  0  0  0  0  0  0  0  0  0
    8.7524  -20.9991   24.4325 C   0  0  1  0  0  0  0  0  0  0  0  0
    9.8742  -19.9721   24.2362 C   0  0  0  0  0  0  0  0  0  0  0  0
   10.6453  -20.2119   23.0255 C   0  0  0  0  0  0  0  0  0  0  0  0
   10.4460  -21.2195   22.1110 C   0  0  0  0  0  0  0  0  0  0  0  0
   11.3773  -21.0946   21.1246 N   0  0  0  0  0  0  0  0  0  0  0  0
   12.1395  -20.0378   21.4126 C   0  0  0  0  0  0  0  0  0  0  0  0
   11.6893  -19.4946   22.5816 N   0  0  0  0  0  0  0  0  0  0  0  0
    8.2922  -21.0366   25.8403 C   0  0  0  0  0  0  0  0  0  0  0  0
    7.3166  -20.3146   26.1795 O   0  0  0  0  0  0  0  0  0  0  0  0
    8.8705  -21.8243   26.8262 O   0  0  0  0  0  0  0  0  0  0  0  0
  2  1  1  6
  2  4  1  0
  3  2  1  0
  4  5  1  6
  6  4  1  0
  7  6  2  0
  8  6  1  0
  9  8  1  0
  9 10  1  6
 10 11  1  0
 11 15  1  0
 12 11  2  0
 13  9  1  0
 14 13  2  0
 16 13  1  0
 17 16  1  0
 17 18  1  1
 18 19  1  0
 19 23  1  0
 20 19  2  0
 20 21  1  0
 21 22  1  0
 23 22  2  0
 24 26  1  0
 24 17  1  0
 25 24  2  0
M  END
$$$$
