TDH.pdb
     RDKit          3D

 26 26  0  0  1  0  0  0  0  0999 V2000
    8.1187  -14.1599   15.6072 C   0  0  0  0  0  0  0  0  0  0  0  0
    8.4762  -14.7836   16.9148 C   0  0  1  0  0  0  0  0  0  0  0  0
    9.8651  -14.9947   16.9287 O   0  0  0  0  0  0  0  0  0  0  0  0
    8.1400  -13.9429   18.1225 C   0  0  2  0  0  0  0  0  0  0  0  0
    8.6842  -12.6095   17.9100 N   0  0  0  0  0  0  0  0  0  0  0  0
    8.7038  -14.5333   19.3902 C   0  0  0  0  0  0  0  0  0  0  0  0
    9.8193  -14.1350   19.7902 O   0  0  0  0  0  0  0  0  0  0  0  0
    7.9945  -15.5101   20.1091 N   0  0  0  0  0  0  0  0  0  0  0  0
    8.4095  -16.3148   21.2140 C   0  0  1  0  0  0  0  0  0  0  0  0
    7.4480  -17.4137   21.6361 C   0  0  0  0  0  0  0  0  0  0  0  0
    7.3480  -18.5096   20.6496 C   0  0  0  0  0  0  0  0  0  0  0  0
    7.9335  -19.5953   20.8816 O   0  0  0  0  0  0  0  0  0  0  0  0
    9.8150  -16.6898   21.2577 C   0  0  0  0  0  0  0  0  0  0  0  0
   10.2627  -17.4344   20.3523 O   0  0  0  0  0  0  0  0  0  0  0  0
    6.6328  -18.3860   19.4784 O   0  0  0  0  0  0  0  0  0  0  0  0
   10.6584  -16.2373   22.2794 N   0  0  0  0  0  0  0  0  0  0  0  0
   12.0471  -16.7019   22.4245 C   0  0  1  0  0  0  0  0  0  0  0  0
   12.8948  -15.4376   22.2383 C   0  0  0  0  0  0  0  0  0  0  0  0
   13.0706  -15.0843   20.8376 C   0  0  0  0  0  0  0  0  0  0  0  0
   12.5972  -15.7796   19.7496 C   0  0  0  0  0  0  0  0  0  0  0  0
   12.9755  -15.1190   18.6199 N   0  0  0  0  0  0  0  0  0  0  0  0
   13.6670  -14.0391   18.9892 C   0  0  0  0  0  0  0  0  0  0  0  0
   13.7255  -14.0175   20.3532 N   0  0  0  0  0  0  0  0  0  0  0  0
   12.1820  -17.2478   23.7952 C   0  0  0  0  0  0  0  0  0  0  0  0
   13.2815  -17.7581   24.1399 O   0  0  0  0  0  0  0  0  0  0  0  0
   11.1652  -17.2356   24.7401 O   0  0  0  0  0  0  0  0  0  0  0  0
  2  1  1  6
  2  4  1  0
  3  2  1  0
  4  5  1  6
  6  4  1  0
  7  6  2  0
  8  6  1  0
  9  8  1  0
  9 10  1  6
 10 11  1  0
 11 15  1  0
 12 11  2  0
 13  9  1  0
 14 13  2  0
 16 13  1  0
 17 16  1  0
 17 18  1  1
 18 19  1  0
 19 23  1  0
 20 19  2  0
 20 21  1  0
 21 22  1  0
 23 22  2  0
 24 26  1  0
 24 17  1  0
 25 24  2  0
M  END
$$$$
