NND.pdb
     RDKit          3D

 25 24  0  0  1  0  0  0  0  0999 V2000
   10.9680  -15.2767   13.8223 N   0  0  0  0  0  0  0  0  0  0  0  0
   11.7873  -15.5639   14.9302 C   0  0  0  0  0  0  0  0  0  0  0  0
   12.6948  -16.4259   14.8406 O   0  0  0  0  0  0  0  0  0  0  0  0
   11.5231  -14.8002   16.1960 C   0  0  0  0  0  0  0  0  0  0  0  0
   11.5590  -15.7520   17.4012 C   0  0  2  0  0  0  0  0  0  0  0  0
   10.5266  -16.7498   17.2424 N   0  0  0  0  0  0  0  0  0  0  0  0
   11.2644  -14.9326   18.5879 C   0  0  0  0  0  0  0  0  0  0  0  0
   12.1578  -14.1690   19.0415 O   0  0  0  0  0  0  0  0  0  0  0  0
    6.8386  -13.3992   18.3461 N   0  0  0  0  0  0  0  0  0  0  0  0
    8.0559  -13.0866   19.0548 C   0  0  0  0  0  0  0  0  0  0  0  0
    8.8701  -12.3188   18.5031 O   0  0  0  0  0  0  0  0  0  0  0  0
    8.3335  -13.6518   20.3843 C   0  0  0  0  0  0  0  0  0  0  0  0
    9.7721  -14.1691   20.3924 C   0  0  2  0  0  0  0  0  0  0  0  0
    9.9825  -14.9960   19.2249 N   0  0  0  0  0  0  0  0  0  0  0  0
   10.0691  -14.9043   21.6433 C   0  0  0  0  0  0  0  0  0  0  0  0
    9.7592  -14.4404   22.7700 O   0  0  0  0  0  0  0  0  0  0  0  0
   10.7150  -16.1652   21.6495 N   0  0  0  0  0  0  0  0  0  0  0  0
   11.0225  -16.8417   22.9079 C   0  0  1  0  0  0  0  0  0  0  0  0
   11.0582  -18.3494   22.6679 C   0  0  0  0  0  0  0  0  0  0  0  0
    9.8449  -18.8703   22.0267 C   0  0  0  0  0  0  0  0  0  0  0  0
    8.6873  -18.5356   22.3932 O   0  0  0  0  0  0  0  0  0  0  0  0
   12.2852  -16.3199   23.4654 C   0  0  0  0  0  0  0  0  0  0  0  0
   12.6114  -16.6614   24.6569 O   0  0  0  0  0  0  0  0  0  0  0  0
    9.9236  -19.7669   20.9783 O   0  0  0  0  0  0  0  0  0  0  0  0
   13.1765  -15.4866   22.8350 O   0  0  0  0  0  0  0  0  0  0  0  0
  1  2  1  0
  2  3  2  0
  4  2  1  0
  5  4  1  0
  5  6  1  6
  7  8  2  0
  7  5  1  0
 10  9  1  0
 10 12  1  0
 11 10  2  0
 13 12  1  1
 13 14  1  0
 14  7  1  0
 15 13  1  0
 15 17  1  0
 16 15  2  0
 18 17  1  0
 18 22  1  0
 18 19  1  6
 19 20  1  0
 20 24  1  0
 20 21  2  0
 22 25  1  0
 23 22  2  0
M  END
$$$$
