NND.pdb
     RDKit          3D

 25 24  0  0  1  0  0  0  0  0999 V2000
    9.0594  -16.9272   15.4425 N   0  0  0  0  0  0  0  0  0  0  0  0
    8.2225  -15.7976   15.3710 C   0  0  0  0  0  0  0  0  0  0  0  0
    7.3176  -15.7335   14.5039 O   0  0  0  0  0  0  0  0  0  0  0  0
    8.4650  -14.6991   16.3658 C   0  0  0  0  0  0  0  0  0  0  0  0
    9.4978  -15.1530   17.4084 C   0  0  2  0  0  0  0  0  0  0  0  0
    9.2531  -16.5374   17.7399 N   0  0  0  0  0  0  0  0  0  0  0  0
    9.2774  -14.3211   18.6024 C   0  0  0  0  0  0  0  0  0  0  0  0
    8.4072  -13.4110   18.5622 O   0  0  0  0  0  0  0  0  0  0  0  0
    7.1229  -12.0588   20.2114 N   0  0  0  0  0  0  0  0  0  0  0  0
    7.3920  -13.0899   21.1841 C   0  0  0  0  0  0  0  0  0  0  0  0
    7.2490  -12.8041   22.3903 O   0  0  0  0  0  0  0  0  0  0  0  0
    7.8213  -14.4356   20.7733 C   0  0  0  0  0  0  0  0  0  0  0  0
    9.3187  -14.5652   21.0529 C   0  0  2  0  0  0  0  0  0  0  0  0
   10.0370  -14.5359   19.7982 N   0  0  0  0  0  0  0  0  0  0  0  0
    9.6146  -15.7953   21.8230 C   0  0  0  0  0  0  0  0  0  0  0  0
    9.0415  -16.0437   22.9142 O   0  0  0  0  0  0  0  0  0  0  0  0
   10.5530  -16.7610   21.3829 N   0  0  0  0  0  0  0  0  0  0  0  0
   11.7156  -17.1008   22.2007 C   0  0  1  0  0  0  0  0  0  0  0  0
   12.8069  -16.0567   21.9744 C   0  0  0  0  0  0  0  0  0  0  0  0
   14.0402  -16.3254   22.7235 C   0  0  0  0  0  0  0  0  0  0  0  0
   14.8200  -17.2699   22.4295 O   0  0  0  0  0  0  0  0  0  0  0  0
   11.3190  -17.2178   23.6171 C   0  0  0  0  0  0  0  0  0  0  0  0
   11.6696  -18.2683   24.2624 O   0  0  0  0  0  0  0  0  0  0  0  0
   14.4019  -15.5419   23.8026 O   0  0  0  0  0  0  0  0  0  0  0  0
   10.5967  -16.3033   24.3438 O   0  0  0  0  0  0  0  0  0  0  0  0
  1  2  1  0
  2  3  2  0
  4  2  1  0
  5  4  1  0
  5  6  1  1
  7  8  2  0
  7  5  1  0
 10  9  1  0
 10 12  1  0
 11 10  2  0
 13 12  1  6
 13 14  1  0
 14  7  1  0
 15 13  1  0
 15 17  1  0
 16 15  2  0
 18 17  1  0
 18 22  1  0
 18 19  1  1
 19 20  1  0
 20 24  1  0
 20 21  2  0
 22 25  1  0
 23 22  2  0
M  END
$$$$
