NND.pdb
     RDKit          3D

 25 24  0  0  1  0  0  0  0  0999 V2000
   10.7422  -16.8583   13.8018 N   0  0  0  0  0  0  0  0  0  0  0  0
   11.7722  -15.9029   13.8889 C   0  0  0  0  0  0  0  0  0  0  0  0
   12.4139  -15.5680   12.8639 O   0  0  0  0  0  0  0  0  0  0  0  0
   12.0546  -15.3191   15.2434 C   0  0  0  0  0  0  0  0  0  0  0  0
   11.2230  -16.0444   16.3120 C   0  0  2  0  0  0  0  0  0  0  0  0
    9.8574  -16.1493   15.8531 N   0  0  0  0  0  0  0  0  0  0  0  0
   11.2671  -15.2009   17.5175 C   0  0  0  0  0  0  0  0  0  0  0  0
   12.3843  -14.9201   18.0274 O   0  0  0  0  0  0  0  0  0  0  0  0
    6.6617  -12.5524   19.2750 N   0  0  0  0  0  0  0  0  0  0  0  0
    7.8336  -13.3548   19.5289 C   0  0  0  0  0  0  0  0  0  0  0  0
    7.6629  -14.5304   19.9106 O   0  0  0  0  0  0  0  0  0  0  0  0
    9.1878  -12.8101   19.3458 C   0  0  0  0  0  0  0  0  0  0  0  0
   10.1768  -13.9759   19.3550 C   0  0  2  0  0  0  0  0  0  0  0  0
   10.0616  -14.7018   18.1096 N   0  0  0  0  0  0  0  0  0  0  0  0
    9.9533  -14.8576   20.5239 C   0  0  0  0  0  0  0  0  0  0  0  0
    8.9261  -15.5760   20.6208 O   0  0  0  0  0  0  0  0  0  0  0  0
   10.8744  -14.9467   21.5965 N   0  0  0  0  0  0  0  0  0  0  0  0
   11.1908  -16.2370   22.2054 C   0  0  1  0  0  0  0  0  0  0  0  0
   11.5208  -17.2411   21.1031 C   0  0  0  0  0  0  0  0  0  0  0  0
   11.8768  -18.5721   21.6093 C   0  0  0  0  0  0  0  0  0  0  0  0
   11.2464  -19.1327   22.5446 O   0  0  0  0  0  0  0  0  0  0  0  0
   12.2847  -16.0786   23.1829 C   0  0  0  0  0  0  0  0  0  0  0  0
   13.4337  -15.7048   22.7551 O   0  0  0  0  0  0  0  0  0  0  0  0
   12.9381  -19.2762   21.0736 O   0  0  0  0  0  0  0  0  0  0  0  0
   12.2101  -16.2918   24.5376 O   0  0  0  0  0  0  0  0  0  0  0  0
  1  2  1  0
  2  3  2  0
  4  2  1  0
  5  4  1  0
  5  6  1  6
  7  8  2  0
  7  5  1  0
 10  9  1  0
 10 12  1  0
 11 10  2  0
 13 12  1  6
 13 14  1  0
 14  7  1  0
 15 13  1  0
 15 17  1  0
 16 15  2  0
 18 17  1  0
 18 22  1  0
 18 19  1  6
 19 20  1  0
 20 24  1  0
 20 21  2  0
 22 25  1  0
 23 22  2  0
M  END
$$$$
