NND.pdb
     RDKit          3D

 25 24  0  0  1  0  0  0  0  0999 V2000
    8.2262  -14.5908   15.2448 N   0  0  0  0  0  0  0  0  0  0  0  0
    7.3504  -13.5626   15.6409 C   0  0  0  0  0  0  0  0  0  0  0  0
    6.2874  -13.3565   15.0066 O   0  0  0  0  0  0  0  0  0  0  0  0
    7.7473  -12.7448   16.8362 C   0  0  0  0  0  0  0  0  0  0  0  0
    9.1173  -13.2053   17.3564 C   0  0  2  0  0  0  0  0  0  0  0  0
    9.5812  -14.3073   16.5459 N   0  0  0  0  0  0  0  0  0  0  0  0
    8.9034  -13.6728   18.7356 C   0  0  0  0  0  0  0  0  0  0  0  0
    8.5264  -12.8479   19.6100 O   0  0  0  0  0  0  0  0  0  0  0  0
    6.9945  -14.8572   20.8015 N   0  0  0  0  0  0  0  0  0  0  0  0
    7.4774  -16.1720   21.1477 C   0  0  0  0  0  0  0  0  0  0  0  0
    6.6527  -16.9974   21.5900 O   0  0  0  0  0  0  0  0  0  0  0  0
    8.8943  -16.5332   20.9868 C   0  0  0  0  0  0  0  0  0  0  0  0
    9.6326  -15.3250   20.4103 C   0  0  2  0  0  0  0  0  0  0  0  0
    9.1183  -15.0449   19.0881 N   0  0  0  0  0  0  0  0  0  0  0  0
   11.0961  -15.5520   20.3904 C   0  0  0  0  0  0  0  0  0  0  0  0
   11.6991  -15.8726   19.3348 O   0  0  0  0  0  0  0  0  0  0  0  0
   11.9016  -15.4233   21.5486 N   0  0  0  0  0  0  0  0  0  0  0  0
   13.3345  -15.7061   21.4982 C   0  0  1  0  0  0  0  0  0  0  0  0
   14.0665  -14.4791   20.9590 C   0  0  0  0  0  0  0  0  0  0  0  0
   15.5037  -14.6961   20.7545 C   0  0  0  0  0  0  0  0  0  0  0  0
   16.0019  -15.8435   20.6073 O   0  0  0  0  0  0  0  0  0  0  0  0
   13.8140  -16.1201   22.8309 C   0  0  0  0  0  0  0  0  0  0  0  0
   15.0416  -16.4670   22.9552 O   0  0  0  0  0  0  0  0  0  0  0  0
   16.3852  -13.6328   20.7173 O   0  0  0  0  0  0  0  0  0  0  0  0
   13.0739  -16.1773   23.9864 O   0  0  0  0  0  0  0  0  0  0  0  0
  1  2  1  0
  2  3  2  0
  4  2  1  0
  5  4  1  0
  5  6  1  6
  7  8  2  0
  7  5  1  0
 10  9  1  0
 10 12  1  0
 11 10  2  0
 13 12  1  6
 13 14  1  0
 14  7  1  0
 15 13  1  0
 15 17  1  0
 16 15  2  0
 18 17  1  0
 18 22  1  0
 18 19  1  1
 19 20  1  0
 20 24  1  0
 20 21  2  0
 22 25  1  0
 23 22  2  0
M  END
$$$$
