NND.pdb
     RDKit          3D

 25 24  0  0  1  0  0  0  0  0999 V2000
    8.1982  -14.4600   16.5095 N   0  0  0  0  0  0  0  0  0  0  0  0
    7.4743  -13.4008   17.0887 C   0  0  0  0  0  0  0  0  0  0  0  0
    6.6170  -12.7775   16.4169 O   0  0  0  0  0  0  0  0  0  0  0  0
    7.7761  -13.0650   18.5209 C   0  0  0  0  0  0  0  0  0  0  0  0
    8.8075  -14.0530   19.0862 C   0  0  2  0  0  0  0  0  0  0  0  0
    8.6631  -15.3210   18.4096 N   0  0  0  0  0  0  0  0  0  0  0  0
    8.4834  -14.2233   20.5118 C   0  0  0  0  0  0  0  0  0  0  0  0
    8.6109  -13.2409   21.2901 O   0  0  0  0  0  0  0  0  0  0  0  0
    7.9160  -16.1055   25.1199 N   0  0  0  0  0  0  0  0  0  0  0  0
    6.7767  -16.5242   24.3400 C   0  0  0  0  0  0  0  0  0  0  0  0
    5.8153  -17.0410   24.9446 O   0  0  0  0  0  0  0  0  0  0  0  0
    6.7439  -16.3503   22.8796 C   0  0  0  0  0  0  0  0  0  0  0  0
    8.0493  -15.6811   22.4490 C   0  0  2  0  0  0  0  0  0  0  0  0
    8.0285  -15.4848   21.0164 N   0  0  0  0  0  0  0  0  0  0  0  0
    9.2239  -16.4768   22.8742 C   0  0  0  0  0  0  0  0  0  0  0  0
    9.2856  -17.7172   22.6788 O   0  0  0  0  0  0  0  0  0  0  0  0
   10.3419  -15.8959   23.5220 N   0  0  0  0  0  0  0  0  0  0  0  0
   11.5861  -16.6458   23.6824 C   0  0  1  0  0  0  0  0  0  0  0  0
   12.7678  -15.6930   23.5152 C   0  0  0  0  0  0  0  0  0  0  0  0
   14.0737  -16.3581   23.5968 C   0  0  0  0  0  0  0  0  0  0  0  0
   14.6295  -16.6285   24.6943 O   0  0  0  0  0  0  0  0  0  0  0  0
   11.5908  -17.3423   24.9833 C   0  0  0  0  0  0  0  0  0  0  0  0
   10.9488  -16.8140   25.9587 O   0  0  0  0  0  0  0  0  0  0  0  0
   14.7608  -16.7186   22.4535 O   0  0  0  0  0  0  0  0  0  0  0  0
   12.2223  -18.5261   25.2763 O   0  0  0  0  0  0  0  0  0  0  0  0
  1  2  1  0
  2  3  2  0
  4  2  1  0
  5  4  1  0
  5  6  1  6
  7  8  2  0
  7  5  1  0
 10  9  1  0
 10 12  1  0
 11 10  2  0
 13 12  1  6
 13 14  1  0
 14  7  1  0
 15 13  1  0
 15 17  1  0
 16 15  2  0
 18 17  1  0
 18 22  1  0
 18 19  1  1
 19 20  1  0
 20 24  1  0
 20 21  2  0
 22 25  1  0
 23 22  2  0
M  END
$$$$
