NND.pdb
     RDKit          3D

 25 24  0  0  1  0  0  0  0  0999 V2000
    8.4484  -18.5616   13.3855 N   0  0  0  0  0  0  0  0  0  0  0  0
    9.5798  -17.7492   13.5886 C   0  0  0  0  0  0  0  0  0  0  0  0
   10.7291  -18.1924   13.3496 O   0  0  0  0  0  0  0  0  0  0  0  0
    9.3424  -16.3553   14.0945 C   0  0  0  0  0  0  0  0  0  0  0  0
   10.4205  -15.9786   15.1219 C   0  0  2  0  0  0  0  0  0  0  0  0
   11.5370  -16.8847   14.9847 N   0  0  0  0  0  0  0  0  0  0  0  0
    9.8107  -16.1565   16.4497 C   0  0  0  0  0  0  0  0  0  0  0  0
    8.8365  -15.4286   16.7783 O   0  0  0  0  0  0  0  0  0  0  0  0
    8.7567  -18.0727   21.1650 N   0  0  0  0  0  0  0  0  0  0  0  0
    7.9861  -18.3466   19.9764 C   0  0  0  0  0  0  0  0  0  0  0  0
    6.7830  -18.6458   20.1184 O   0  0  0  0  0  0  0  0  0  0  0  0
    8.5934  -18.2772   18.6383 C   0  0  0  0  0  0  0  0  0  0  0  0
    9.6963  -17.2190   18.6688 C   0  0  2  0  0  0  0  0  0  0  0  0
   10.3114  -17.1411   17.3624 N   0  0  0  0  0  0  0  0  0  0  0  0
   10.6921  -17.5145   19.7246 C   0  0  0  0  0  0  0  0  0  0  0  0
   10.3873  -17.4882   20.9441 O   0  0  0  0  0  0  0  0  0  0  0  0
   12.0383  -17.8427   19.4301 N   0  0  0  0  0  0  0  0  0  0  0  0
   13.0639  -17.7969   20.4702 C   0  0  1  0  0  0  0  0  0  0  0  0
   13.0598  -16.4122   21.1142 C   0  0  0  0  0  0  0  0  0  0  0  0
   14.1070  -16.2330   22.1269 C   0  0  0  0  0  0  0  0  0  0  0  0
   15.2995  -16.5933   21.9403 O   0  0  0  0  0  0  0  0  0  0  0  0
   12.8429  -18.8829   21.4445 C   0  0  0  0  0  0  0  0  0  0  0  0
   11.6620  -19.3683   21.5569 O   0  0  0  0  0  0  0  0  0  0  0  0
   13.8229  -15.6544   23.3490 O   0  0  0  0  0  0  0  0  0  0  0  0
   13.7850  -19.4493   22.2676 O   0  0  0  0  0  0  0  0  0  0  0  0
  1  2  1  0
  2  3  2  0
  4  2  1  0
  5  4  1  0
  5  6  1  1
  7  8  2  0
  7  5  1  0
 10  9  1  0
 10 12  1  0
 11 10  2  0
 13 12  1  6
 13 14  1  0
 14  7  1  0
 15 13  1  0
 15 17  1  0
 16 15  2  0
 18 17  1  0
 18 22  1  0
 18 19  1  1
 19 20  1  0
 20 24  1  0
 20 21  2  0
 22 25  1  0
 23 22  2  0
M  END
$$$$
