NND.pdb
     RDKit          3D

 25 24  0  0  1  0  0  0  0  0999 V2000
    7.8112  -11.8188   17.4844 N   0  0  0  0  0  0  0  0  0  0  0  0
    7.3376  -13.0990   17.8282 C   0  0  0  0  0  0  0  0  0  0  0  0
    6.9752  -13.9015   16.9341 O   0  0  0  0  0  0  0  0  0  0  0  0
    7.2910  -13.4447   19.2888 C   0  0  0  0  0  0  0  0  0  0  0  0
    8.3464  -14.5137   19.6097 C   0  0  2  0  0  0  0  0  0  0  0  0
    7.9890  -15.7424   18.9395 N   0  0  0  0  0  0  0  0  0  0  0  0
    8.2980  -14.7227   21.0659 C   0  0  0  0  0  0  0  0  0  0  0  0
    8.5593  -13.7573   21.8318 O   0  0  0  0  0  0  0  0  0  0  0  0
    8.2850  -16.6380   25.7055 N   0  0  0  0  0  0  0  0  0  0  0  0
    7.0871  -17.0909   25.0410 C   0  0  0  0  0  0  0  0  0  0  0  0
    6.1927  -17.6075   25.7411 O   0  0  0  0  0  0  0  0  0  0  0  0
    6.9200  -16.9509   23.5862 C   0  0  0  0  0  0  0  0  0  0  0  0
    8.1262  -16.1879   23.0382 C   0  0  2  0  0  0  0  0  0  0  0  0
    7.9596  -16.0027   21.6137 N   0  0  0  0  0  0  0  0  0  0  0  0
    9.3915  -16.8900   23.3535 C   0  0  0  0  0  0  0  0  0  0  0  0
    9.4742  -18.1442   23.3251 O   0  0  0  0  0  0  0  0  0  0  0  0
   10.5778  -16.1993   23.7037 N   0  0  0  0  0  0  0  0  0  0  0  0
   11.8224  -16.9260   23.9459 C   0  0  1  0  0  0  0  0  0  0  0  0
   13.0037  -16.0038   23.6523 C   0  0  0  0  0  0  0  0  0  0  0  0
   14.3098  -16.6529   23.8166 C   0  0  0  0  0  0  0  0  0  0  0  0
   15.0596  -16.4277   24.8034 O   0  0  0  0  0  0  0  0  0  0  0  0
   11.8371  -17.4558   25.3230 C   0  0  0  0  0  0  0  0  0  0  0  0
   11.2188  -16.7997   26.2341 O   0  0  0  0  0  0  0  0  0  0  0  0
   14.7806  -17.5512   22.8782 O   0  0  0  0  0  0  0  0  0  0  0  0
   12.4550  -18.6048   25.7522 O   0  0  0  0  0  0  0  0  0  0  0  0
  1  2  1  0
  2  3  2  0
  4  2  1  0
  5  4  1  0
  5  6  1  6
  7  8  2  0
  7  5  1  0
 10  9  1  0
 10 12  1  0
 11 10  2  0
 13 12  1  6
 13 14  1  0
 14  7  1  0
 15 13  1  0
 15 17  1  0
 16 15  2  0
 18 17  1  0
 18 22  1  0
 18 19  1  1
 19 20  1  0
 20 24  1  0
 20 21  2  0
 22 25  1  0
 23 22  2  0
M  END
$$$$
