NND.pdb
     RDKit          3D

 25 24  0  0  1  0  0  0  0  0999 V2000
    6.9170  -13.9591   14.2080 N   0  0  0  0  0  0  0  0  0  0  0  0
    8.2188  -13.9098   14.7412 C   0  0  0  0  0  0  0  0  0  0  0  0
    9.2021  -14.2602   14.0448 O   0  0  0  0  0  0  0  0  0  0  0  0
    8.3639  -13.4261   16.1554 C   0  0  0  0  0  0  0  0  0  0  0  0
    9.2188  -14.4139   16.9635 C   0  0  2  0  0  0  0  0  0  0  0  0
    8.6129  -15.7234   16.8962 N   0  0  0  0  0  0  0  0  0  0  0  0
    9.1977  -13.9398   18.3568 C   0  0  0  0  0  0  0  0  0  0  0  0
    9.7946  -12.8694   18.6482 O   0  0  0  0  0  0  0  0  0  0  0  0
    7.8011  -12.7071   23.1314 N   0  0  0  0  0  0  0  0  0  0  0  0
    7.4342  -14.0765   22.8631 C   0  0  0  0  0  0  0  0  0  0  0  0
    7.2093  -14.8210   23.8388 O   0  0  0  0  0  0  0  0  0  0  0  0
    7.3275  -14.5840   21.4865 C   0  0  0  0  0  0  0  0  0  0  0  0
    8.5978  -14.1902   20.7325 C   0  0  2  0  0  0  0  0  0  0  0  0
    8.5106  -14.6787   19.3742 N   0  0  0  0  0  0  0  0  0  0  0  0
    9.8071  -14.6993   21.4195 C   0  0  0  0  0  0  0  0  0  0  0  0
   10.1110  -14.3272   22.5813 O   0  0  0  0  0  0  0  0  0  0  0  0
   10.6897  -15.6292   20.8167 N   0  0  0  0  0  0  0  0  0  0  0  0
   11.8640  -16.1196   21.5352 C   0  0  1  0  0  0  0  0  0  0  0  0
   12.9650  -15.0633   21.4714 C   0  0  0  0  0  0  0  0  0  0  0  0
   13.6094  -14.9663   20.1563 C   0  0  0  0  0  0  0  0  0  0  0  0
   13.2859  -15.7024   19.1867 O   0  0  0  0  0  0  0  0  0  0  0  0
   11.4949  -16.4803   22.9177 C   0  0  0  0  0  0  0  0  0  0  0  0
   10.3584  -16.0918   23.3651 O   0  0  0  0  0  0  0  0  0  0  0  0
   14.6170  -14.0498   19.9239 O   0  0  0  0  0  0  0  0  0  0  0  0
   12.2517  -17.2058   23.8048 O   0  0  0  0  0  0  0  0  0  0  0  0
  1  2  1  0
  2  3  2  0
  4  2  1  0
  5  4  1  0
  5  6  1  1
  7  8  2  0
  7  5  1  0
 10  9  1  0
 10 12  1  0
 11 10  2  0
 13 12  1  1
 13 14  1  0
 14  7  1  0
 15 13  1  0
 15 17  1  0
 16 15  2  0
 18 17  1  0
 18 22  1  0
 18 19  1  1
 19 20  1  0
 20 24  1  0
 20 21  2  0
 22 25  1  0
 23 22  2  0
M  END
$$$$
