NND.pdb
     RDKit          3D

 25 24  0  0  1  0  0  0  0  0999 V2000
    8.0091  -12.4880   14.8112 N   0  0  0  0  0  0  0  0  0  0  0  0
    8.0302  -13.8742   15.0545 C   0  0  0  0  0  0  0  0  0  0  0  0
    8.0550  -14.6851   14.0971 O   0  0  0  0  0  0  0  0  0  0  0  0
    8.0223  -14.3201   16.4884 C   0  0  0  0  0  0  0  0  0  0  0  0
    8.9855  -15.5018   16.6766 C   0  0  2  0  0  0  0  0  0  0  0  0
    8.5283  -16.6125   15.8743 N   0  0  0  0  0  0  0  0  0  0  0  0
    8.9189  -15.8707   18.1000 C   0  0  0  0  0  0  0  0  0  0  0  0
    9.3168  -15.0461   18.9653 O   0  0  0  0  0  0  0  0  0  0  0  0
    7.6971  -19.4319   18.1928 N   0  0  0  0  0  0  0  0  0  0  0  0
    6.8921  -19.2260   19.3724 C   0  0  0  0  0  0  0  0  0  0  0  0
    5.9041  -19.9693   19.5402 O   0  0  0  0  0  0  0  0  0  0  0  0
    7.2205  -18.1756   20.3486 C   0  0  0  0  0  0  0  0  0  0  0  0
    8.5172  -17.4989   19.9039 C   0  0  2  0  0  0  0  0  0  0  0  0
    8.4102  -17.1475   18.5052 N   0  0  0  0  0  0  0  0  0  0  0  0
    9.6891  -18.3674   20.1608 C   0  0  0  0  0  0  0  0  0  0  0  0
    9.5584  -19.5895   20.4256 O   0  0  0  0  0  0  0  0  0  0  0  0
   11.0190  -17.8807   20.1246 N   0  0  0  0  0  0  0  0  0  0  0  0
   12.1272  -18.6955   20.6185 C   0  0  1  0  0  0  0  0  0  0  0  0
   13.2825  -18.6228   19.6225 C   0  0  0  0  0  0  0  0  0  0  0  0
   12.8880  -18.9315   18.2428 C   0  0  0  0  0  0  0  0  0  0  0  0
   12.2144  -19.9526   17.9427 O   0  0  0  0  0  0  0  0  0  0  0  0
   12.5106  -18.2566   21.9742 C   0  0  0  0  0  0  0  0  0  0  0  0
   13.4118  -18.9219   22.5970 O   0  0  0  0  0  0  0  0  0  0  0  0
   13.2478  -18.1023   17.1978 O   0  0  0  0  0  0  0  0  0  0  0  0
   11.9975  -17.1858   22.6643 O   0  0  0  0  0  0  0  0  0  0  0  0
  1  2  1  0
  2  3  2  0
  4  2  1  0
  5  4  1  0
  5  6  1  6
  7  8  2  0
  7  5  1  0
 10  9  1  0
 10 12  1  0
 11 10  2  0
 13 12  1  6
 13 14  1  0
 14  7  1  0
 15 13  1  0
 15 17  1  0
 16 15  2  0
 18 17  1  0
 18 22  1  0
 18 19  1  6
 19 20  1  0
 20 24  1  0
 20 21  2  0
 22 25  1  0
 23 22  2  0
M  END
$$$$
