NND.pdb
     RDKit          3D

 25 24  0  0  1  0  0  0  0  0999 V2000
    8.9840  -14.0030   15.4782 N   0  0  0  0  0  0  0  0  0  0  0  0
    7.6512  -13.7593   15.8594 C   0  0  0  0  0  0  0  0  0  0  0  0
    6.8335  -13.2830   15.0353 O   0  0  0  0  0  0  0  0  0  0  0  0
    7.2692  -14.0929   17.2729 C   0  0  0  0  0  0  0  0  0  0  0  0
    8.4930  -14.6196   18.0376 C   0  0  2  0  0  0  0  0  0  0  0  0
    9.1884  -15.5766   17.2088 N   0  0  0  0  0  0  0  0  0  0  0  0
    7.9744  -15.3002   19.2353 C   0  0  0  0  0  0  0  0  0  0  0  0
    7.3877  -14.6211   20.1194 O   0  0  0  0  0  0  0  0  0  0  0  0
    6.1196  -19.1281   18.1829 N   0  0  0  0  0  0  0  0  0  0  0  0
    6.0514  -18.5505   19.5032 C   0  0  0  0  0  0  0  0  0  0  0  0
    5.0106  -17.9384   19.8180 O   0  0  0  0  0  0  0  0  0  0  0  0
    7.1691  -18.6756   20.4515 C   0  0  0  0  0  0  0  0  0  0  0  0
    7.7606  -17.2843   20.6787 C   0  0  2  0  0  0  0  0  0  0  0  0
    8.1301  -16.7147   19.4020 N   0  0  0  0  0  0  0  0  0  0  0  0
    8.9134  -17.3383   21.6070 C   0  0  0  0  0  0  0  0  0  0  0  0
    8.8510  -17.9562   22.7002 O   0  0  0  0  0  0  0  0  0  0  0  0
   10.1478  -16.7033   21.3245 N   0  0  0  0  0  0  0  0  0  0  0  0
   11.2920  -16.8609   22.2200 C   0  0  1  0  0  0  0  0  0  0  0  0
   11.6585  -18.3409   22.3054 C   0  0  0  0  0  0  0  0  0  0  0  0
   12.9121  -18.5943   23.0257 C   0  0  0  0  0  0  0  0  0  0  0  0
   12.9611  -18.7197   24.2780 O   0  0  0  0  0  0  0  0  0  0  0  0
   12.4125  -16.0184   21.7594 C   0  0  0  0  0  0  0  0  0  0  0  0
   13.4956  -16.0185   22.4447 O   0  0  0  0  0  0  0  0  0  0  0  0
   14.1114  -18.7047   22.3486 O   0  0  0  0  0  0  0  0  0  0  0  0
   12.4278  -15.2115   20.6482 O   0  0  0  0  0  0  0  0  0  0  0  0
  1  2  1  0
  2  3  2  0
  4  2  1  0
  5  4  1  0
  5  6  1  6
  7  8  2  0
  7  5  1  0
 10  9  1  0
 10 12  1  0
 11 10  2  0
 13 12  1  6
 13 14  1  0
 14  7  1  0
 15 13  1  0
 15 17  1  0
 16 15  2  0
 18 17  1  0
 18 22  1  0
 18 19  1  6
 19 20  1  0
 20 24  1  0
 20 21  2  0
 22 25  1  0
 23 22  2  0
M  END
$$$$
