NND.pdb
     RDKit          3D

 25 24  0  0  1  0  0  0  0  0999 V2000
    8.6181  -11.8993   17.5517 N   0  0  0  0  0  0  0  0  0  0  0  0
    8.2114  -13.2299   17.7647 C   0  0  0  0  0  0  0  0  0  0  0  0
    8.1801  -14.0434   16.8098 O   0  0  0  0  0  0  0  0  0  0  0  0
    7.8263  -13.6146   19.1643 C   0  0  0  0  0  0  0  0  0  0  0  0
    8.8941  -14.5395   19.7677 C   0  0  2  0  0  0  0  0  0  0  0  0
    8.9125  -15.7804   19.0285 N   0  0  0  0  0  0  0  0  0  0  0  0
    8.4787  -14.8061   21.1544 C   0  0  0  0  0  0  0  0  0  0  0  0
    8.3949  -13.8445   21.9638 O   0  0  0  0  0  0  0  0  0  0  0  0
    5.6714  -15.7551   21.4340 N   0  0  0  0  0  0  0  0  0  0  0  0
    5.5988  -16.9585   22.2266 C   0  0  0  0  0  0  0  0  0  0  0  0
    4.5484  -17.6299   22.1711 O   0  0  0  0  0  0  0  0  0  0  0  0
    6.7228  -17.3849   23.0744 C   0  0  0  0  0  0  0  0  0  0  0  0
    7.8225  -16.3273   22.9769 C   0  0  2  0  0  0  0  0  0  0  0  0
    8.1720  -16.1374   21.5866 N   0  0  0  0  0  0  0  0  0  0  0  0
    9.0015  -16.7051   23.7898 C   0  0  0  0  0  0  0  0  0  0  0  0
   10.0594  -17.1293   23.2593 O   0  0  0  0  0  0  0  0  0  0  0  0
    9.0117  -16.6130   25.2035 N   0  0  0  0  0  0  0  0  0  0  0  0
    9.9203  -17.4352   25.9998 C   0  0  1  0  0  0  0  0  0  0  0  0
    9.7503  -17.0805   27.4754 C   0  0  0  0  0  0  0  0  0  0  0  0
   10.6162  -17.8586   28.3694 C   0  0  0  0  0  0  0  0  0  0  0  0
   10.1771  -18.7840   29.1024 O   0  0  0  0  0  0  0  0  0  0  0  0
    9.6807  -18.8646   25.7225 C   0  0  0  0  0  0  0  0  0  0  0  0
    8.4845  -19.2409   25.4575 O   0  0  0  0  0  0  0  0  0  0  0  0
   11.9716  -17.6019   28.4476 O   0  0  0  0  0  0  0  0  0  0  0  0
   10.6202  -19.8664   25.7154 O   0  0  0  0  0  0  0  0  0  0  0  0
  1  2  1  0
  2  3  2  0
  4  2  1  0
  5  4  1  0
  5  6  1  6
  7  8  2  0
  7  5  1  0
 10  9  1  0
 10 12  1  0
 11 10  2  0
 13 12  1  6
 13 14  1  0
 14  7  1  0
 15 13  1  0
 15 17  1  0
 16 15  2  0
 18 17  1  0
 18 22  1  0
 18 19  1  1
 19 20  1  0
 20 24  1  0
 20 21  2  0
 22 25  1  0
 23 22  2  0
M  END
$$$$
