MHH.pdb
     RDKit          3D

 29 30  0  0  1  0  0  0  0  0999 V2000
    5.9147  -11.6360   27.0799 C   0  0  0  0  0  0  0  0  0  0  0  0
    7.1892  -12.8323   27.5040 S   0  0  0  0  0  0  0  0  0  0  0  0
    6.9756  -14.3822   26.5505 C   0  0  0  0  0  0  0  0  0  0  0  0
    6.4330  -14.0184   25.2008 C   0  0  0  0  0  0  0  0  0  0  0  0
    6.2188  -15.1843   24.2808 C   0  0  2  0  0  0  0  0  0  0  0  0
    5.5197  -16.1967   25.0591 N   0  0  0  0  0  0  0  0  0  0  0  0
    7.4639  -15.7253   23.6988 C   0  0  0  0  0  0  0  0  0  0  0  0
    7.9300  -16.8167   24.0526 O   0  0  0  0  0  0  0  0  0  0  0  0
    8.1376  -14.9789   22.7157 N   0  0  0  0  0  0  0  0  0  0  0  0
    9.3640  -15.3864   22.0797 C   0  0  1  0  0  0  0  0  0  0  0  0
    9.7197  -14.4054   21.0156 C   0  0  0  0  0  0  0  0  0  0  0  0
    8.7330  -14.3237   19.9251 C   0  0  0  0  0  0  0  0  0  0  0  0
    8.2503  -13.1036   19.4602 C   0  0  0  0  0  0  0  0  0  0  0  0
    7.3739  -13.3565   18.4720 N   0  0  0  0  0  0  0  0  0  0  0  0
    7.2903  -14.6840   18.3015 C   0  0  0  0  0  0  0  0  0  0  0  0
    8.1223  -15.2491   19.1927 N   0  0  0  0  0  0  0  0  0  0  0  0
   10.4637  -15.6085   23.0481 C   0  0  0  0  0  0  0  0  0  0  0  0
   10.7640  -14.8033   23.9659 O   0  0  0  0  0  0  0  0  0  0  0  0
   11.2248  -16.8033   22.9337 N   0  0  0  0  0  0  0  0  0  0  0  0
   12.3842  -17.0825   23.7641 C   0  0  1  0  0  0  0  0  0  0  0  0
   12.1796  -18.4825   24.3207 C   0  0  0  0  0  0  0  0  0  0  0  0
   11.2867  -18.5416   25.4683 C   0  0  0  0  0  0  0  0  0  0  0  0
   10.8408  -17.4714   26.2035 C   0  0  0  0  0  0  0  0  0  0  0  0
   10.0318  -17.9104   27.1853 N   0  0  0  0  0  0  0  0  0  0  0  0
    9.9822  -19.2499   27.0515 C   0  0  0  0  0  0  0  0  0  0  0  0
   10.7408  -19.6360   26.0128 N   0  0  0  0  0  0  0  0  0  0  0  0
   13.6473  -16.9572   23.0216 C   0  0  0  0  0  0  0  0  0  0  0  0
   14.7353  -17.0967   23.6212 O   0  0  0  0  0  0  0  0  0  0  0  0
   13.6353  -16.6888   21.6774 O   0  0  0  0  0  0  0  0  0  0  0  0
  2  1  1  0
  3  4  1  0
  3  2  1  0
  4  5  1  0
  5  6  1  1
  7  8  2  0
  7  5  1  0
  9  7  1  0
 10  9  1  0
 10 11  1  6
 12 16  1  0
 12 11  1  0
 13 12  2  0
 14 13  1  0
 14 15  1  0
 15 16  2  0
 17 10  1  0
 18 17  2  0
 19 17  1  0
 20 21  1  6
 20 19  1  0
 21 22  1  0
 22 26  1  0
 22 23  2  0
 23 24  1  0
 25 24  1  0
 26 25  2  0
 27 20  1  0
 28 27  2  0
 29 27  1  0
M  END
$$$$
