MHH.pdb
     RDKit          3D

 29 30  0  0  1  0  0  0  0  0999 V2000
    8.0490  -11.6032   21.6442 C   0  0  0  0  0  0  0  0  0  0  0  0
    7.3797  -12.2371   20.0997 S   0  0  0  0  0  0  0  0  0  0  0  0
    7.7084  -14.0318   19.9315 C   0  0  0  0  0  0  0  0  0  0  0  0
    9.1934  -14.2187   19.8398 C   0  0  0  0  0  0  0  0  0  0  0  0
    9.6424  -15.6504   19.8451 C   0  0  2  0  0  0  0  0  0  0  0  0
    9.1647  -16.2337   18.5997 N   0  0  0  0  0  0  0  0  0  0  0  0
    9.1685  -16.4229   21.0114 C   0  0  0  0  0  0  0  0  0  0  0  0
    8.0850  -17.0225   21.0014 O   0  0  0  0  0  0  0  0  0  0  0  0
    9.9712  -16.4779   22.1647 N   0  0  0  0  0  0  0  0  0  0  0  0
    9.5486  -17.0270   23.4275 C   0  0  1  0  0  0  0  0  0  0  0  0
    9.9185  -18.4694   23.4889 C   0  0  0  0  0  0  0  0  0  0  0  0
   11.1135  -18.8134   22.6996 C   0  0  0  0  0  0  0  0  0  0  0  0
   11.8140  -17.8562   21.9711 C   0  0  0  0  0  0  0  0  0  0  0  0
   12.8441  -18.4723   21.3644 N   0  0  0  0  0  0  0  0  0  0  0  0
   12.8148  -19.7741   21.6847 C   0  0  0  0  0  0  0  0  0  0  0  0
   11.7579  -19.9572   22.4943 N   0  0  0  0  0  0  0  0  0  0  0  0
   10.0555  -16.2533   24.5855 C   0  0  0  0  0  0  0  0  0  0  0  0
   11.1305  -15.6012   24.5776 O   0  0  0  0  0  0  0  0  0  0  0  0
    9.2806  -16.2471   25.7769 N   0  0  0  0  0  0  0  0  0  0  0  0
    9.7009  -15.5622   26.9876 C   0  0  1  0  0  0  0  0  0  0  0  0
    8.4292  -15.0652   27.6566 C   0  0  0  0  0  0  0  0  0  0  0  0
    7.7075  -14.0605   26.8902 C   0  0  0  0  0  0  0  0  0  0  0  0
    8.0478  -12.7361   26.7682 C   0  0  0  0  0  0  0  0  0  0  0  0
    7.1491  -12.1149   25.9823 N   0  0  0  0  0  0  0  0  0  0  0  0
    6.2580  -13.0591   25.6229 C   0  0  0  0  0  0  0  0  0  0  0  0
    6.5928  -14.2386   26.1707 N   0  0  0  0  0  0  0  0  0  0  0  0
   10.4947  -16.4273   27.8730 C   0  0  0  0  0  0  0  0  0  0  0  0
   10.6587  -17.6312   27.5792 O   0  0  0  0  0  0  0  0  0  0  0  0
   11.0539  -15.9188   29.0166 O   0  0  0  0  0  0  0  0  0  0  0  0
  2  1  1  0
  3  4  1  0
  3  2  1  0
  4  5  1  0
  5  6  1  6
  7  8  2  0
  7  5  1  0
  9  7  1  0
 10  9  1  0
 10 11  1  1
 12 16  1  0
 12 11  1  0
 13 12  2  0
 14 13  1  0
 14 15  1  0
 15 16  2  0
 17 10  1  0
 18 17  2  0
 19 17  1  0
 20 21  1  1
 20 19  1  0
 21 22  1  0
 22 26  1  0
 22 23  2  0
 23 24  1  0
 25 24  1  0
 26 25  2  0
 27 20  1  0
 28 27  2  0
 29 27  1  0
M  END
$$$$
