MHH.pdb
     RDKit          3D

 29 30  0  0  1  0  0  0  0  0999 V2000
    6.6311  -10.9422   25.5198 C   0  0  0  0  0  0  0  0  0  0  0  0
    7.0107  -11.9549   26.9571 S   0  0  0  0  0  0  0  0  0  0  0  0
    6.6198  -13.7164   26.6385 C   0  0  0  0  0  0  0  0  0  0  0  0
    6.7272  -13.9493   25.1611 C   0  0  0  0  0  0  0  0  0  0  0  0
    6.5233  -15.3747   24.7389 C   0  0  2  0  0  0  0  0  0  0  0  0
    5.6651  -15.9811   25.7465 N   0  0  0  0  0  0  0  0  0  0  0  0
    7.7778  -16.1376   24.5784 C   0  0  0  0  0  0  0  0  0  0  0  0
    8.1947  -16.9022   25.4590 O   0  0  0  0  0  0  0  0  0  0  0  0
    8.5183  -15.9906   23.3920 N   0  0  0  0  0  0  0  0  0  0  0  0
    9.7355  -16.7018   23.0966 C   0  0  1  0  0  0  0  0  0  0  0  0
   10.1052  -16.4793   21.6701 C   0  0  0  0  0  0  0  0  0  0  0  0
   11.1702  -17.3725   21.1831 C   0  0  0  0  0  0  0  0  0  0  0  0
   11.1949  -18.7279   21.4994 C   0  0  0  0  0  0  0  0  0  0  0  0
   12.2780  -19.2683   20.9134 N   0  0  0  0  0  0  0  0  0  0  0  0
   12.9297  -18.3058   20.2447 C   0  0  0  0  0  0  0  0  0  0  0  0
   12.2402  -17.1662   20.4226 N   0  0  0  0  0  0  0  0  0  0  0  0
   10.8340  -16.3688   24.0342 C   0  0  0  0  0  0  0  0  0  0  0  0
   11.2906  -15.2086   24.1966 O   0  0  0  0  0  0  0  0  0  0  0  0
   11.4059  -17.4233   24.7962 N   0  0  0  0  0  0  0  0  0  0  0  0
   12.4984  -17.2175   25.7321 C   0  0  1  0  0  0  0  0  0  0  0  0
   11.9364  -17.5185   27.1124 C   0  0  0  0  0  0  0  0  0  0  0  0
   11.0625  -16.4804   27.6381 C   0  0  0  0  0  0  0  0  0  0  0  0
   10.6622  -15.3466   26.9755 C   0  0  0  0  0  0  0  0  0  0  0  0
    9.8579  -14.6226   27.7756 N   0  0  0  0  0  0  0  0  0  0  0  0
    9.7656  -15.3131   28.9286 C   0  0  0  0  0  0  0  0  0  0  0  0
   10.4938  -16.4387   28.8492 N   0  0  0  0  0  0  0  0  0  0  0  0
   13.6706  -18.0468   25.4149 C   0  0  0  0  0  0  0  0  0  0  0  0
   13.5104  -19.1818   24.9162 O   0  0  0  0  0  0  0  0  0  0  0  0
   14.9353  -17.5801   25.6637 O   0  0  0  0  0  0  0  0  0  0  0  0
  2  1  1  0
  3  4  1  0
  3  2  1  0
  4  5  1  0
  5  6  1  1
  7  8  2  0
  7  5  1  0
  9  7  1  0
 10  9  1  0
 10 11  1  6
 12 16  1  0
 12 11  1  0
 13 12  2  0
 14 13  1  0
 14 15  1  0
 15 16  2  0
 17 10  1  0
 18 17  2  0
 19 17  1  0
 20 21  1  1
 20 19  1  0
 21 22  1  0
 22 26  1  0
 22 23  2  0
 23 24  1  0
 25 24  1  0
 26 25  2  0
 27 20  1  0
 28 27  2  0
 29 27  1  0
M  END
$$$$
