MHH.pdb
     RDKit          3D

 29 30  0  0  1  0  0  0  0  0999 V2000
    9.3679  -11.7891   20.5018 C   0  0  0  0  0  0  0  0  0  0  0  0
    7.8869  -12.0744   19.5215 S   0  0  0  0  0  0  0  0  0  0  0  0
    7.9354  -13.7249   18.7275 C   0  0  0  0  0  0  0  0  0  0  0  0
    7.9672  -14.7559   19.8158 C   0  0  0  0  0  0  0  0  0  0  0  0
    9.2760  -15.4769   19.9527 C   0  0  2  0  0  0  0  0  0  0  0  0
    9.5139  -16.1388   18.6781 N   0  0  0  0  0  0  0  0  0  0  0  0
    9.3145  -16.4424   21.0698 C   0  0  0  0  0  0  0  0  0  0  0  0
    8.2855  -16.8045   21.6561 O   0  0  0  0  0  0  0  0  0  0  0  0
   10.5550  -16.9642   21.4778 N   0  0  0  0  0  0  0  0  0  0  0  0
   10.7335  -17.8823   22.5731 C   0  0  1  0  0  0  0  0  0  0  0  0
   11.9248  -18.7389   22.3122 C   0  0  0  0  0  0  0  0  0  0  0  0
   11.6776  -19.8293   21.3534 C   0  0  0  0  0  0  0  0  0  0  0  0
   10.4776  -19.9373   20.6562 C   0  0  0  0  0  0  0  0  0  0  0  0
   10.5557  -21.0233   19.8669 N   0  0  0  0  0  0  0  0  0  0  0  0
   11.7549  -21.5970   20.0433 C   0  0  0  0  0  0  0  0  0  0  0  0
   12.4170  -20.8563   20.9481 N   0  0  0  0  0  0  0  0  0  0  0  0
   10.7926  -17.1996   23.8873 C   0  0  0  0  0  0  0  0  0  0  0  0
   11.6039  -16.2799   24.1646 O   0  0  0  0  0  0  0  0  0  0  0  0
    9.8776  -17.6080   24.8951 N   0  0  0  0  0  0  0  0  0  0  0  0
    9.9375  -17.1158   26.2612 C   0  0  1  0  0  0  0  0  0  0  0  0
    8.5230  -16.6892   26.6203 C   0  0  0  0  0  0  0  0  0  0  0  0
    8.0804  -15.4745   25.9521 C   0  0  0  0  0  0  0  0  0  0  0  0
    8.8384  -14.6829   25.1253 C   0  0  0  0  0  0  0  0  0  0  0  0
    8.0943  -13.6482   24.6928 N   0  0  0  0  0  0  0  0  0  0  0  0
    6.8803  -13.8061   25.2548 C   0  0  0  0  0  0  0  0  0  0  0  0
    6.8680  -14.9109   26.0182 N   0  0  0  0  0  0  0  0  0  0  0  0
   10.4706  -18.1192   27.1945 C   0  0  0  0  0  0  0  0  0  0  0  0
   11.6487  -18.0234   27.6013 O   0  0  0  0  0  0  0  0  0  0  0  0
    9.6816  -19.1568   27.6188 O   0  0  0  0  0  0  0  0  0  0  0  0
  2  1  1  0
  3  4  1  0
  3  2  1  0
  4  5  1  0
  5  6  1  6
  7  8  2  0
  7  5  1  0
  9  7  1  0
 10  9  1  0
 10 11  1  6
 12 16  1  0
 12 11  1  0
 13 12  2  0
 14 13  1  0
 14 15  1  0
 15 16  2  0
 17 10  1  0
 18 17  2  0
 19 17  1  0
 20 21  1  1
 20 19  1  0
 21 22  1  0
 22 26  1  0
 22 23  2  0
 23 24  1  0
 25 24  1  0
 26 25  2  0
 27 20  1  0
 28 27  2  0
 29 27  1  0
M  END
$$$$
