MHH.pdb
     RDKit          3D

 29 30  0  0  1  0  0  0  0  0999 V2000
    8.2472  -11.4517   26.4329 C   0  0  0  0  0  0  0  0  0  0  0  0
    6.8306  -11.9309   25.4333 S   0  0  0  0  0  0  0  0  0  0  0  0
    6.8843  -13.7187   25.0362 C   0  0  0  0  0  0  0  0  0  0  0  0
    6.6776  -13.8660   23.5584 C   0  0  0  0  0  0  0  0  0  0  0  0
    7.8517  -14.4378   22.8192 C   0  0  2  0  0  0  0  0  0  0  0  0
    7.4524  -14.5255   21.4220 N   0  0  0  0  0  0  0  0  0  0  0  0
    8.2994  -15.7499   23.3287 C   0  0  0  0  0  0  0  0  0  0  0  0
    7.5022  -16.5794   23.7871 O   0  0  0  0  0  0  0  0  0  0  0  0
    9.6695  -16.0645   23.2916 N   0  0  0  0  0  0  0  0  0  0  0  0
   10.2350  -17.3041   23.7587 C   0  0  1  0  0  0  0  0  0  0  0  0
   11.0293  -17.9297   22.6638 C   0  0  0  0  0  0  0  0  0  0  0  0
   11.5447  -19.2700   22.9909 C   0  0  0  0  0  0  0  0  0  0  0  0
   10.6947  -20.3407   23.2536 C   0  0  0  0  0  0  0  0  0  0  0  0
   11.4567  -21.4174   23.5157 N   0  0  0  0  0  0  0  0  0  0  0  0
   12.7468  -21.0622   23.4272 C   0  0  0  0  0  0  0  0  0  0  0  0
   12.7754  -19.7571   23.1084 N   0  0  0  0  0  0  0  0  0  0  0  0
   11.0100  -17.1425   25.0117 C   0  0  0  0  0  0  0  0  0  0  0  0
   11.9390  -16.3083   25.1597 O   0  0  0  0  0  0  0  0  0  0  0  0
   10.6841  -17.9801   26.1126 N   0  0  0  0  0  0  0  0  0  0  0  0
   11.5400  -18.1186   27.2788 C   0  0  1  0  0  0  0  0  0  0  0  0
   10.7379  -17.5920   28.4582 C   0  0  0  0  0  0  0  0  0  0  0  0
   10.5236  -16.1528   28.4366 C   0  0  0  0  0  0  0  0  0  0  0  0
   10.8996  -15.2930   27.4345 C   0  0  0  0  0  0  0  0  0  0  0  0
   10.5357  -14.0394   27.7622 N   0  0  0  0  0  0  0  0  0  0  0  0
    9.9368  -14.1314   28.9653 C   0  0  0  0  0  0  0  0  0  0  0  0
    9.9275  -15.4096   29.3770 N   0  0  0  0  0  0  0  0  0  0  0  0
   11.9869  -19.5045   27.4834 C   0  0  0  0  0  0  0  0  0  0  0  0
   12.7685  -19.7718   28.4216 O   0  0  0  0  0  0  0  0  0  0  0  0
   11.5500  -20.5017   26.6505 O   0  0  0  0  0  0  0  0  0  0  0  0
  2  1  1  0
  3  4  1  0
  3  2  1  0
  4  5  1  0
  5  6  1  6
  7  8  2  0
  7  5  1  0
  9  7  1  0
 10  9  1  0
 10 11  1  6
 12 16  1  0
 12 11  1  0
 13 12  2  0
 14 13  1  0
 14 15  1  0
 15 16  2  0
 17 10  1  0
 18 17  2  0
 19 17  1  0
 20 21  1  1
 20 19  1  0
 21 22  1  0
 22 26  1  0
 22 23  2  0
 23 24  1  0
 25 24  1  0
 26 25  2  0
 27 20  1  0
 28 27  2  0
 29 27  1  0
M  END
$$$$
