MHH.pdb
     RDKit          3D

 29 30  0  0  1  0  0  0  0  0999 V2000
    7.8055  -11.8072   25.5247 C   0  0  0  0  0  0  0  0  0  0  0  0
    6.3872  -12.4863   24.6513 S   0  0  0  0  0  0  0  0  0  0  0  0
    6.8873  -13.1808   23.0312 C   0  0  0  0  0  0  0  0  0  0  0  0
    7.6285  -14.4584   23.2899 C   0  0  0  0  0  0  0  0  0  0  0  0
    8.1636  -15.1282   22.0584 C   0  0  2  0  0  0  0  0  0  0  0  0
    7.0086  -15.4491   21.2324 N   0  0  0  0  0  0  0  0  0  0  0  0
    8.9722  -16.3330   22.3347 C   0  0  0  0  0  0  0  0  0  0  0  0
    8.4515  -17.4423   22.5140 O   0  0  0  0  0  0  0  0  0  0  0  0
   10.3722  -16.2155   22.3956 N   0  0  0  0  0  0  0  0  0  0  0  0
   11.2492  -17.2007   22.9744 C   0  0  1  0  0  0  0  0  0  0  0  0
   12.6220  -17.0278   22.4206 C   0  0  0  0  0  0  0  0  0  0  0  0
   12.7411  -17.3869   20.9972 C   0  0  0  0  0  0  0  0  0  0  0  0
   11.9982  -18.4213   20.4352 C   0  0  0  0  0  0  0  0  0  0  0  0
   12.3248  -18.5033   19.1332 N   0  0  0  0  0  0  0  0  0  0  0  0
   13.2408  -17.5627   18.8602 C   0  0  0  0  0  0  0  0  0  0  0  0
   13.4774  -16.8989   20.0045 N   0  0  0  0  0  0  0  0  0  0  0  0
   11.2211  -17.1908   24.4562 C   0  0  0  0  0  0  0  0  0  0  0  0
   11.7293  -16.2826   25.1618 O   0  0  0  0  0  0  0  0  0  0  0  0
   10.5813  -18.2721   25.1205 N   0  0  0  0  0  0  0  0  0  0  0  0
   10.4617  -18.3495   26.5667 C   0  0  1  0  0  0  0  0  0  0  0  0
    9.0711  -18.8962   26.8482 C   0  0  0  0  0  0  0  0  0  0  0  0
    7.9908  -18.0637   26.3407 C   0  0  0  0  0  0  0  0  0  0  0  0
    7.6759  -16.7971   26.7665 C   0  0  0  0  0  0  0  0  0  0  0  0
    6.6193  -16.3414   26.0684 N   0  0  0  0  0  0  0  0  0  0  0  0
    6.2869  -17.3291   25.2149 C   0  0  0  0  0  0  0  0  0  0  0  0
    7.1151  -18.3738   25.3768 N   0  0  0  0  0  0  0  0  0  0  0  0
   11.5177  -19.1745   27.1721 C   0  0  0  0  0  0  0  0  0  0  0  0
   12.3717  -19.7222   26.4418 O   0  0  0  0  0  0  0  0  0  0  0  0
   11.5683  -19.3443   28.5314 O   0  0  0  0  0  0  0  0  0  0  0  0
  2  1  1  0
  3  4  1  0
  3  2  1  0
  4  5  1  0
  5  6  1  6
  7  8  2  0
  7  5  1  0
  9  7  1  0
 10  9  1  0
 10 11  1  1
 12 16  1  0
 12 11  1  0
 13 12  2  0
 14 13  1  0
 14 15  1  0
 15 16  2  0
 17 10  1  0
 18 17  2  0
 19 17  1  0
 20 21  1  6
 20 19  1  0
 21 22  1  0
 22 26  1  0
 22 23  2  0
 23 24  1  0
 25 24  1  0
 26 25  2  0
 27 20  1  0
 28 27  2  0
 29 27  1  0
M  END
$$$$
