MHH.pdb
     RDKit          3D

 29 30  0  0  1  0  0  0  0  0999 V2000
    8.5318  -11.9750   26.7258 C   0  0  0  0  0  0  0  0  0  0  0  0
    6.8059  -12.4459   26.5383 S   0  0  0  0  0  0  0  0  0  0  0  0
    6.6560  -14.0475   25.6612 C   0  0  0  0  0  0  0  0  0  0  0  0
    6.9586  -13.8064   24.2125 C   0  0  0  0  0  0  0  0  0  0  0  0
    6.8683  -15.0279   23.3457 C   0  0  2  0  0  0  0  0  0  0  0  0
    5.5762  -15.6360   23.6288 N   0  0  0  0  0  0  0  0  0  0  0  0
    7.9678  -15.9923   23.5526 C   0  0  0  0  0  0  0  0  0  0  0  0
    7.8496  -16.9653   24.3094 O   0  0  0  0  0  0  0  0  0  0  0  0
    9.1821  -15.7986   22.8703 N   0  0  0  0  0  0  0  0  0  0  0  0
   10.2874  -16.7218   22.8939 C   0  0  1  0  0  0  0  0  0  0  0  0
   11.1740  -16.4627   21.7243 C   0  0  0  0  0  0  0  0  0  0  0  0
   10.6287  -16.9442   20.4436 C   0  0  0  0  0  0  0  0  0  0  0  0
    9.6000  -17.8804   20.3880 C   0  0  0  0  0  0  0  0  0  0  0  0
    9.3254  -18.1147   19.0926 N   0  0  0  0  0  0  0  0  0  0  0  0
   10.1403  -17.3631   18.3380 C   0  0  0  0  0  0  0  0  0  0  0  0
   10.9208  -16.6626   19.1783 N   0  0  0  0  0  0  0  0  0  0  0  0
   11.0174  -16.7065   24.1837 C   0  0  0  0  0  0  0  0  0  0  0  0
   11.4554  -15.6621   24.7299 O   0  0  0  0  0  0  0  0  0  0  0  0
   11.2356  -17.9461   24.8436 N   0  0  0  0  0  0  0  0  0  0  0  0
   11.9480  -18.0530   26.1058 C   0  0  1  0  0  0  0  0  0  0  0  0
   11.5356  -19.3842   26.7137 C   0  0  0  0  0  0  0  0  0  0  0  0
   10.1341  -19.4531   27.0995 C   0  0  0  0  0  0  0  0  0  0  0  0
    9.4061  -18.4493   27.6889 C   0  0  0  0  0  0  0  0  0  0  0  0
    8.1469  -18.8754   27.8986 N   0  0  0  0  0  0  0  0  0  0  0  0
    8.1036  -20.1405   27.4376 C   0  0  0  0  0  0  0  0  0  0  0  0
    9.3051  -20.4938   26.9529 N   0  0  0  0  0  0  0  0  0  0  0  0
   13.4048  -17.9452   25.9368 C   0  0  0  0  0  0  0  0  0  0  0  0
   13.8921  -17.8742   24.7878 O   0  0  0  0  0  0  0  0  0  0  0  0
   14.2280  -17.9223   27.0327 O   0  0  0  0  0  0  0  0  0  0  0  0
  2  1  1  0
  3  4  1  0
  3  2  1  0
  4  5  1  0
  5  6  1  1
  7  8  2  0
  7  5  1  0
  9  7  1  0
 10  9  1  0
 10 11  1  6
 12 16  1  0
 12 11  1  0
 13 12  2  0
 14 13  1  0
 14 15  1  0
 15 16  2  0
 17 10  1  0
 18 17  2  0
 19 17  1  0
 20 21  1  6
 20 19  1  0
 21 22  1  0
 22 26  1  0
 22 23  2  0
 23 24  1  0
 25 24  1  0
 26 25  2  0
 27 20  1  0
 28 27  2  0
 29 27  1  0
M  END
$$$$
