MHH.pdb
     RDKit          3D

 29 30  0  0  1  0  0  0  0  0999 V2000
    5.2873  -10.9343   27.4256 C   0  0  0  0  0  0  0  0  0  0  0  0
    6.0523  -12.0181   26.2108 S   0  0  0  0  0  0  0  0  0  0  0  0
    5.2319  -13.6562   26.1865 C   0  0  0  0  0  0  0  0  0  0  0  0
    5.9615  -14.5191   25.2007 C   0  0  0  0  0  0  0  0  0  0  0  0
    7.4212  -14.2029   25.0569 C   0  0  2  0  0  0  0  0  0  0  0  0
    7.4977  -12.9470   24.3247 N   0  0  0  0  0  0  0  0  0  0  0  0
    8.2001  -15.2612   24.3823 C   0  0  0  0  0  0  0  0  0  0  0  0
    8.1462  -16.4440   24.7452 O   0  0  0  0  0  0  0  0  0  0  0  0
    9.0254  -14.9143   23.2979 N   0  0  0  0  0  0  0  0  0  0  0  0
    9.8754  -15.8378   22.5913 C   0  0  1  0  0  0  0  0  0  0  0  0
   10.1609  -15.3050   21.2290 C   0  0  0  0  0  0  0  0  0  0  0  0
    8.9749  -14.7760   20.5342 C   0  0  0  0  0  0  0  0  0  0  0  0
    8.8581  -13.4297   20.2001 C   0  0  0  0  0  0  0  0  0  0  0  0
    7.6765  -13.2597   19.5808 N   0  0  0  0  0  0  0  0  0  0  0  0
    7.0518  -14.4444   19.5149 C   0  0  0  0  0  0  0  0  0  0  0  0
    7.8573  -15.3478   20.0988 N   0  0  0  0  0  0  0  0  0  0  0  0
   11.1052  -16.1753   23.3464 C   0  0  0  0  0  0  0  0  0  0  0  0
   11.9823  -15.3350   23.6709 O   0  0  0  0  0  0  0  0  0  0  0  0
   11.3058  -17.5297   23.7275 N   0  0  0  0  0  0  0  0  0  0  0  0
   11.5333  -17.9364   25.1040 C   0  0  1  0  0  0  0  0  0  0  0  0
   10.4140  -17.3110   25.9212 C   0  0  0  0  0  0  0  0  0  0  0  0
   10.8706  -16.3701   26.9331 C   0  0  0  0  0  0  0  0  0  0  0  0
   12.1631  -15.9473   27.1214 C   0  0  0  0  0  0  0  0  0  0  0  0
   12.2033  -15.0784   28.1484 N   0  0  0  0  0  0  0  0  0  0  0  0
   10.9350  -14.9691   28.5893 C   0  0  0  0  0  0  0  0  0  0  0  0
   10.1251  -15.7498   27.8558 N   0  0  0  0  0  0  0  0  0  0  0  0
   11.5832  -19.3983   25.2545 C   0  0  0  0  0  0  0  0  0  0  0  0
   12.5053  -19.9223   25.9161 O   0  0  0  0  0  0  0  0  0  0  0  0
   10.6240  -20.1862   24.6729 O   0  0  0  0  0  0  0  0  0  0  0  0
  2  1  1  0
  3  4  1  0
  3  2  1  0
  4  5  1  0
  5  6  1  6
  7  8  2  0
  7  5  1  0
  9  7  1  0
 10  9  1  0
 10 11  1  6
 12 16  1  0
 12 11  1  0
 13 12  2  0
 14 13  1  0
 14 15  1  0
 15 16  2  0
 17 10  1  0
 18 17  2  0
 19 17  1  0
 20 21  1  1
 20 19  1  0
 21 22  1  0
 22 26  1  0
 22 23  2  0
 23 24  1  0
 25 24  1  0
 26 25  2  0
 27 20  1  0
 28 27  2  0
 29 27  1  0
M  END
$$$$
