MHH.pdb
     RDKit          3D

 29 30  0  0  1  0  0  0  0  0999 V2000
    8.5360  -12.0120   18.3837 C   0  0  0  0  0  0  0  0  0  0  0  0
    7.3456  -12.3647   19.6852 S   0  0  0  0  0  0  0  0  0  0  0  0
    6.5184  -13.9740   19.3972 C   0  0  0  0  0  0  0  0  0  0  0  0
    6.7761  -14.8418   20.5926 C   0  0  0  0  0  0  0  0  0  0  0  0
    8.2066  -14.8704   21.0447 C   0  0  2  0  0  0  0  0  0  0  0  0
    8.9831  -15.3596   19.9147 N   0  0  0  0  0  0  0  0  0  0  0  0
    8.4386  -15.6953   22.2477 C   0  0  0  0  0  0  0  0  0  0  0  0
    7.8336  -15.4886   23.3083 O   0  0  0  0  0  0  0  0  0  0  0  0
    9.3729  -16.7445   22.1853 N   0  0  0  0  0  0  0  0  0  0  0  0
    9.7843  -17.5389   23.3142 C   0  0  1  0  0  0  0  0  0  0  0  0
   10.9112  -18.4267   22.9106 C   0  0  0  0  0  0  0  0  0  0  0  0
   11.3043  -19.3997   23.9440 C   0  0  0  0  0  0  0  0  0  0  0  0
   10.6747  -19.4493   25.1846 C   0  0  0  0  0  0  0  0  0  0  0  0
   11.2504  -20.4318   25.9000 N   0  0  0  0  0  0  0  0  0  0  0  0
   12.2130  -20.9969   25.1567 C   0  0  0  0  0  0  0  0  0  0  0  0
   12.2271  -20.3553   23.9761 N   0  0  0  0  0  0  0  0  0  0  0  0
   10.0980  -16.7174   24.5073 C   0  0  0  0  0  0  0  0  0  0  0  0
   10.4513  -15.5118   24.4562 O   0  0  0  0  0  0  0  0  0  0  0  0
    9.9931  -17.3279   25.7864 N   0  0  0  0  0  0  0  0  0  0  0  0
    9.3588  -16.6780   26.9209 C   0  0  1  0  0  0  0  0  0  0  0  0
    7.9633  -16.2882   26.4602 C   0  0  0  0  0  0  0  0  0  0  0  0
    7.7172  -14.8539   26.4563 C   0  0  0  0  0  0  0  0  0  0  0  0
    8.5950  -13.8805   26.8650 C   0  0  0  0  0  0  0  0  0  0  0  0
    8.0216  -12.6720   26.7169 N   0  0  0  0  0  0  0  0  0  0  0  0
    6.7925  -12.9051   26.2175 C   0  0  0  0  0  0  0  0  0  0  0  0
    6.6044  -14.2252   26.0583 N   0  0  0  0  0  0  0  0  0  0  0  0
    9.3320  -17.5367   28.1143 C   0  0  0  0  0  0  0  0  0  0  0  0
    9.4042  -17.0211   29.2508 O   0  0  0  0  0  0  0  0  0  0  0  0
    9.2282  -18.8974   27.9847 O   0  0  0  0  0  0  0  0  0  0  0  0
  2  1  1  0
  3  4  1  0
  3  2  1  0
  4  5  1  0
  5  6  1  6
  7  8  2  0
  7  5  1  0
  9  7  1  0
 10  9  1  0
 10 11  1  6
 12 16  1  0
 12 11  1  0
 13 12  2  0
 14 13  1  0
 14 15  1  0
 15 16  2  0
 17 10  1  0
 18 17  2  0
 19 17  1  0
 20 21  1  6
 20 19  1  0
 21 22  1  0
 22 26  1  0
 22 23  2  0
 23 24  1  0
 25 24  1  0
 26 25  2  0
 27 20  1  0
 28 27  2  0
 29 27  1  0
M  END
$$$$
