MHH.pdb
     RDKit          3D

 29 30  0  0  1  0  0  0  0  0999 V2000
    8.7475  -11.3933   19.6983 C   0  0  0  0  0  0  0  0  0  0  0  0
    7.5309  -12.3420   20.6233 S   0  0  0  0  0  0  0  0  0  0  0  0
    7.4527  -14.0705   20.0206 C   0  0  0  0  0  0  0  0  0  0  0  0
    8.0078  -14.9560   21.0959 C   0  0  0  0  0  0  0  0  0  0  0  0
    8.1202  -16.4029   20.7148 C   0  0  2  0  0  0  0  0  0  0  0  0
    6.7990  -16.8098   20.2586 N   0  0  0  0  0  0  0  0  0  0  0  0
    8.5988  -17.2749   21.8067 C   0  0  0  0  0  0  0  0  0  0  0  0
    7.8152  -17.8759   22.5540 O   0  0  0  0  0  0  0  0  0  0  0  0
    9.9833  -17.4257   22.0019 N   0  0  0  0  0  0  0  0  0  0  0  0
   10.5783  -18.2199   23.0459 C   0  0  1  0  0  0  0  0  0  0  0  0
   11.9859  -18.5448   22.6796 C   0  0  0  0  0  0  0  0  0  0  0  0
   12.1083  -19.4535   21.5270 C   0  0  0  0  0  0  0  0  0  0  0  0
   11.4482  -20.6783   21.4830 C   0  0  0  0  0  0  0  0  0  0  0  0
   11.7552  -21.2704   20.3152 N   0  0  0  0  0  0  0  0  0  0  0  0
   12.5795  -20.4653   19.6292 C   0  0  0  0  0  0  0  0  0  0  0  0
   12.7792  -19.3709   20.3830 N   0  0  0  0  0  0  0  0  0  0  0  0
   10.4626  -17.5877   24.3814 C   0  0  0  0  0  0  0  0  0  0  0  0
   10.5901  -16.3539   24.5872 O   0  0  0  0  0  0  0  0  0  0  0  0
   10.1910  -18.4254   25.4969 N   0  0  0  0  0  0  0  0  0  0  0  0
    9.6655  -17.9195   26.7537 C   0  0  1  0  0  0  0  0  0  0  0  0
    8.1540  -17.8763   26.5943 C   0  0  0  0  0  0  0  0  0  0  0  0
    7.6605  -16.6827   25.9238 C   0  0  0  0  0  0  0  0  0  0  0  0
    8.3793  -15.5411   25.6693 C   0  0  0  0  0  0  0  0  0  0  0  0
    7.5942  -14.6519   25.0335 N   0  0  0  0  0  0  0  0  0  0  0  0
    6.3943  -15.2490   24.8985 C   0  0  0  0  0  0  0  0  0  0  0  0
    6.4305  -16.4790   25.4364 N   0  0  0  0  0  0  0  0  0  0  0  0
   10.0813  -18.7365   27.9034 C   0  0  0  0  0  0  0  0  0  0  0  0
    9.7650  -18.3851   29.0605 O   0  0  0  0  0  0  0  0  0  0  0  0
   10.8129  -19.8796   27.7105 O   0  0  0  0  0  0  0  0  0  0  0  0
  2  1  1  0
  3  4  1  0
  3  2  1  0
  4  5  1  0
  5  6  1  1
  7  8  2  0
  7  5  1  0
  9  7  1  0
 10  9  1  0
 10 11  1  6
 12 16  1  0
 12 11  1  0
 13 12  2  0
 14 13  1  0
 14 15  1  0
 15 16  2  0
 17 10  1  0
 18 17  2  0
 19 17  1  0
 20 21  1  6
 20 19  1  0
 21 22  1  0
 22 26  1  0
 22 23  2  0
 23 24  1  0
 25 24  1  0
 26 25  2  0
 27 20  1  0
 28 27  2  0
 29 27  1  0
M  END
$$$$
