PYL.pdb
     RDKit          3D

 28 29  0  0  1  0  0  0  0  0999 V2000
   28.2251  -20.1133  -16.6796 N   0  0  0  0  0  0  0  0  0  0  0  0
   28.9191  -19.5024  -17.8190 C   0  0  0  0  0  0  0  0  0  0  0  0
   28.3505  -18.0769  -17.7550 C   0  0  0  0  0  0  0  0  0  0  0  0
   28.4213  -17.8173  -16.2487 C   0  0  0  0  0  0  0  0  0  0  0  0
   28.5245  -19.1823  -15.6341 C   0  0  1  0  0  0  0  0  0  0  0  0
   27.6831  -19.3541  -14.4270 C   0  0  0  0  0  0  0  0  0  0  0  0
   27.8672  -18.5498  -13.4771 O   0  0  0  0  0  0  0  0  0  0  0  0
   19.8918  -19.9494  -10.4240 O   0  0  0  0  0  0  0  0  0  0  0  0
   20.9920  -20.1915  -11.2515 C   0  0  0  0  0  0  0  0  0  0  0  0
   21.4682  -19.2423  -12.1215 C   0  0  0  0  0  0  0  0  0  0  0  0
   22.5522  -19.4836  -12.9352 C   0  0  0  0  0  0  0  0  0  0  0  0
   23.2143  -20.6995  -12.9132 C   0  0  0  0  0  0  0  0  0  0  0  0
   24.3703  -20.9765  -13.7639 C   0  0  0  0  0  0  0  0  0  0  0  0
   25.6606  -20.3679  -13.3300 C   0  0  2  0  0  0  0  0  0  0  0  0
   26.7010  -20.3680  -14.3057 N   0  0  0  0  0  0  0  0  0  0  0  0
   26.0718  -21.0512  -12.0637 C   0  0  0  0  0  0  0  0  0  0  0  0
   26.5855  -22.1890  -12.1670 O   0  0  0  0  0  0  0  0  0  0  0  0
   22.7321  -21.6457  -12.0395 C   0  0  0  0  0  0  0  0  0  0  0  0
   21.6441  -21.4161  -11.2165 C   0  0  0  0  0  0  0  0  0  0  0  0
   26.4405  -18.9625   -7.3659 C   0  0  0  0  0  0  0  0  0  0  0  0
   27.4116  -20.0423   -7.6215 C   0  0  2  0  0  0  0  0  0  0  0  0
   28.8174  -19.5511   -7.2302 C   0  0  0  0  0  0  0  0  0  0  0  0
   27.4361  -20.7242   -8.9256 C   0  0  0  0  0  0  0  0  0  0  0  0
   26.2036  -21.2285   -9.5359 C   0  0  2  0  0  0  0  0  0  0  0  0
   25.9137  -20.4905  -10.7849 N   0  0  0  0  0  0  0  0  0  0  0  0
   24.9882  -21.1466   -8.7352 C   0  0  0  0  0  0  0  0  0  0  0  0
   24.0258  -20.3638   -8.8924 O   0  0  0  0  0  0  0  0  0  0  0  0
   24.8157  -22.0292   -7.6366 O   0  0  0  0  0  0  0  0  0  0  0  0
  1  5  1  0
  2  3  1  0
  2  1  1  0
  3  4  1  0
  4  5  1  0
  5  6  1  1
  6  7  2  0
  9 10  2  0
  9  8  1  0
 11 10  1  0
 12 11  2  0
 13 12  1  0
 14 13  1  6
 14 16  1  0
 15  6  1  0
 15 14  1  0
 16 25  1  0
 16 17  2  0
 18 12  1  0
 18 19  2  0
 19  9  1  0
 21 20  1  6
 21 23  1  0
 22 21  1  0
 24 23  1  1
 24 26  1  0
 25 24  1  0
 26 27  2  0
 26 28  1  0
M  END
$$$$
