PYL.pdb
     RDKit          3D

 28 29  0  0  1  0  0  0  0  0999 V2000
   24.9021  -33.7068  -13.4545 N   0  0  0  0  0  0  0  0  0  0  0  0
   24.4728  -34.7902  -14.3462 C   0  0  0  0  0  0  0  0  0  0  0  0
   25.3429  -35.9411  -13.8191 C   0  0  0  0  0  0  0  0  0  0  0  0
   25.1954  -35.7319  -12.3105 C   0  0  0  0  0  0  0  0  0  0  0  0
   24.7282  -34.3130  -12.1693 C   0  0  1  0  0  0  0  0  0  0  0  0
   25.3943  -33.5761  -11.0702 C   0  0  0  0  0  0  0  0  0  0  0  0
   25.9831  -32.5050  -11.3687 O   0  0  0  0  0  0  0  0  0  0  0  0
   21.3614  -28.8641  -10.1636 O   0  0  0  0  0  0  0  0  0  0  0  0
   22.2206  -29.7923   -9.5685 C   0  0  0  0  0  0  0  0  0  0  0  0
   23.4908  -29.4546   -9.1718 C   0  0  0  0  0  0  0  0  0  0  0  0
   24.3348  -30.3710   -8.5857 C   0  0  0  0  0  0  0  0  0  0  0  0
   23.9395  -31.6802   -8.3688 C   0  0  0  0  0  0  0  0  0  0  0  0
   24.8161  -32.6688   -7.7437 C   0  0  0  0  0  0  0  0  0  0  0  0
   25.8687  -33.2557   -8.6220 C   0  0  2  0  0  0  0  0  0  0  0  0
   25.3928  -34.0233   -9.7259 N   0  0  0  0  0  0  0  0  0  0  0  0
   26.7947  -34.0386   -7.7451 C   0  0  0  0  0  0  0  0  0  0  0  0
   26.4262  -35.1855   -7.4015 O   0  0  0  0  0  0  0  0  0  0  0  0
   22.6661  -32.0115   -8.7685 C   0  0  0  0  0  0  0  0  0  0  0  0
   21.8081  -31.1006   -9.3583 C   0  0  0  0  0  0  0  0  0  0  0  0
   31.6088  -36.0930   -6.3203 C   0  0  0  0  0  0  0  0  0  0  0  0
   31.5108  -34.6295   -6.1697 C   0  0  2  0  0  0  0  0  0  0  0  0
   31.7296  -34.2651   -4.6898 C   0  0  0  0  0  0  0  0  0  0  0  0
   30.3587  -33.9021   -6.7263 C   0  0  0  0  0  0  0  0  0  0  0  0
   28.9914  -34.3876   -6.5239 C   0  0  2  0  0  0  0  0  0  0  0  0
   28.0371  -33.5607   -7.2946 N   0  0  0  0  0  0  0  0  0  0  0  0
   28.4905  -34.4001   -5.1550 C   0  0  0  0  0  0  0  0  0  0  0  0
   28.6987  -35.2663   -4.2774 O   0  0  0  0  0  0  0  0  0  0  0  0
   27.6667  -33.3355   -4.7037 O   0  0  0  0  0  0  0  0  0  0  0  0
  1  5  1  0
  2  3  1  0
  2  1  1  0
  3  4  1  0
  4  5  1  0
  5  6  1  1
  6  7  2  0
  9 10  2  0
  9  8  1  0
 11 10  1  0
 12 11  2  0
 13 12  1  0
 14 13  1  1
 14 16  1  0
 15  6  1  0
 15 14  1  0
 16 25  1  0
 16 17  2  0
 18 12  1  0
 18 19  2  0
 19  9  1  0
 21 20  1  1
 21 23  1  0
 22 21  1  0
 24 23  1  1
 24 26  1  0
 25 24  1  0
 26 27  2  0
 26 28  1  0
M  END
$$$$
