PYL.pdb
     RDKit          3D

 28 29  0  0  1  0  0  0  0  0999 V2000
   27.9359  -21.3394  -15.3840 N   0  0  0  0  0  0  0  0  0  0  0  0
   28.5466  -21.1815  -16.7088 C   0  0  0  0  0  0  0  0  0  0  0  0
   27.8115  -19.9263  -17.2024 C   0  0  0  0  0  0  0  0  0  0  0  0
   27.8575  -19.0633  -15.9397 C   0  0  0  0  0  0  0  0  0  0  0  0
   28.1263  -20.0341  -14.8277 C   0  0  1  0  0  0  0  0  0  0  0  0
   27.3170  -19.7826  -13.6126 C   0  0  0  0  0  0  0  0  0  0  0  0
   27.3267  -18.6144  -13.1455 O   0  0  0  0  0  0  0  0  0  0  0  0
   21.8139  -18.4649  -16.9814 O   0  0  0  0  0  0  0  0  0  0  0  0
   22.3835  -19.0853  -15.8658 C   0  0  0  0  0  0  0  0  0  0  0  0
   22.2270  -18.5831  -14.5977 C   0  0  0  0  0  0  0  0  0  0  0  0
   22.7891  -19.1964  -13.5007 C   0  0  0  0  0  0  0  0  0  0  0  0
   23.5410  -20.3523  -13.6268 C   0  0  0  0  0  0  0  0  0  0  0  0
   24.1428  -21.0236  -12.4763 C   0  0  0  0  0  0  0  0  0  0  0  0
   25.4853  -20.5262  -12.0591 C   0  0  2  0  0  0  0  0  0  0  0  0
   26.5500  -20.7867  -12.9717 N   0  0  0  0  0  0  0  0  0  0  0  0
   25.7605  -21.0778  -10.6955 C   0  0  0  0  0  0  0  0  0  0  0  0
   25.9072  -22.3180  -10.5976 O   0  0  0  0  0  0  0  0  0  0  0  0
   23.6937  -20.8498  -14.8997 C   0  0  0  0  0  0  0  0  0  0  0  0
   23.1343  -20.2435  -16.0102 C   0  0  0  0  0  0  0  0  0  0  0  0
   28.9805  -20.7401   -7.1490 C   0  0  0  0  0  0  0  0  0  0  0  0
   28.0128  -19.6439   -7.3389 C   0  0  2  0  0  0  0  0  0  0  0  0
   28.4077  -18.4671   -6.4279 C   0  0  0  0  0  0  0  0  0  0  0  0
   26.5671  -19.9089   -7.2598 C   0  0  0  0  0  0  0  0  0  0  0  0
   25.9233  -20.8563   -8.1730 C   0  0  2  0  0  0  0  0  0  0  0  0
   25.8615  -20.2882   -9.5375 N   0  0  0  0  0  0  0  0  0  0  0  0
   24.5613  -21.2633   -7.8503 C   0  0  0  0  0  0  0  0  0  0  0  0
   24.1938  -22.0269   -6.9306 O   0  0  0  0  0  0  0  0  0  0  0  0
   23.4824  -20.7713   -8.6313 O   0  0  0  0  0  0  0  0  0  0  0  0
  1  5  1  0
  2  3  1  0
  2  1  1  0
  3  4  1  0
  4  5  1  0
  5  6  1  1
  6  7  2  0
  9 10  2  0
  9  8  1  0
 11 10  1  0
 12 11  2  0
 13 12  1  0
 14 13  1  6
 14 16  1  0
 15  6  1  0
 15 14  1  0
 16 25  1  0
 16 17  2  0
 18 12  1  0
 18 19  2  0
 19  9  1  0
 21 20  1  1
 21 23  1  0
 22 21  1  0
 24 23  1  1
 24 26  1  0
 25 24  1  0
 26 27  2  0
 26 28  1  0
M  END
$$$$
