PYL.pdb
     RDKit          3D

 28 29  0  0  1  0  0  0  0  0999 V2000
   27.8430  -21.3606  -15.2294 N   0  0  0  0  0  0  0  0  0  0  0  0
   28.4527  -21.2360  -16.5583 C   0  0  0  0  0  0  0  0  0  0  0  0
   27.6714  -20.0328  -17.1073 C   0  0  0  0  0  0  0  0  0  0  0  0
   27.6784  -19.1153  -15.8829 C   0  0  0  0  0  0  0  0  0  0  0  0
   27.9801  -20.0262  -14.7294 C   0  0  1  0  0  0  0  0  0  0  0  0
   27.1563  -19.7547  -13.5284 C   0  0  0  0  0  0  0  0  0  0  0  0
   27.0912  -18.5623  -13.1320 O   0  0  0  0  0  0  0  0  0  0  0  0
   21.3248  -18.6744  -16.4670 O   0  0  0  0  0  0  0  0  0  0  0  0
   22.0135  -19.2729  -15.4081 C   0  0  0  0  0  0  0  0  0  0  0  0
   22.9071  -20.2955  -15.6098 C   0  0  0  0  0  0  0  0  0  0  0  0
   23.5842  -20.8830  -14.5649 C   0  0  0  0  0  0  0  0  0  0  0  0
   23.3940  -20.4679  -13.2576 C   0  0  0  0  0  0  0  0  0  0  0  0
   24.1053  -21.0730  -12.1332 C   0  0  0  0  0  0  0  0  0  0  0  0
   25.4563  -20.5146  -11.8390 C   0  0  2  0  0  0  0  0  0  0  0  0
   26.4552  -20.7655  -12.8256 N   0  0  0  0  0  0  0  0  0  0  0  0
   25.8589  -21.0122  -10.4863 C   0  0  0  0  0  0  0  0  0  0  0  0
   26.2051  -22.2127  -10.3967 O   0  0  0  0  0  0  0  0  0  0  0  0
   22.4976  -19.4433  -13.0629 C   0  0  0  0  0  0  0  0  0  0  0  0
   21.8109  -18.8443  -14.1038 C   0  0  0  0  0  0  0  0  0  0  0  0
   29.0995  -20.5232   -7.0253 C   0  0  0  0  0  0  0  0  0  0  0  0
   28.1031  -19.4464   -7.1737 C   0  0  2  0  0  0  0  0  0  0  0  0
   28.4723  -18.2917   -6.2244 C   0  0  0  0  0  0  0  0  0  0  0  0
   26.6651  -19.7510   -7.0980 C   0  0  0  0  0  0  0  0  0  0  0  0
   26.0618  -20.7623   -7.9693 C   0  0  2  0  0  0  0  0  0  0  0  0
   25.8685  -20.2141   -9.3296 N   0  0  0  0  0  0  0  0  0  0  0  0
   24.7650  -21.2925   -7.5669 C   0  0  0  0  0  0  0  0  0  0  0  0
   23.6527  -21.0566   -8.0874 O   0  0  0  0  0  0  0  0  0  0  0  0
   24.6873  -22.1846   -6.4651 O   0  0  0  0  0  0  0  0  0  0  0  0
  1  5  1  0
  2  3  1  0
  2  1  1  0
  3  4  1  0
  4  5  1  0
  5  6  1  1
  6  7  2  0
  9 10  2  0
  9  8  1  0
 11 10  1  0
 12 11  2  0
 13 12  1  0
 14 13  1  6
 14 16  1  0
 15  6  1  0
 15 14  1  0
 16 25  1  0
 16 17  2  0
 18 12  1  0
 18 19  2  0
 19  9  1  0
 21 20  1  1
 21 23  1  0
 22 21  1  0
 24 23  1  1
 24 26  1  0
 25 24  1  0
 26 27  2  0
 26 28  1  0
M  END
$$$$
