PYL.pdb
     RDKit          3D

 28 29  0  0  1  0  0  0  0  0999 V2000
   28.3327  -20.4312  -16.9088 N   0  0  0  0  0  0  0  0  0  0  0  0
   29.4131  -20.0495  -17.8254 C   0  0  0  0  0  0  0  0  0  0  0  0
   28.9290  -18.6566  -18.2558 C   0  0  0  0  0  0  0  0  0  0  0  0
   28.4766  -18.0914  -16.9079 C   0  0  0  0  0  0  0  0  0  0  0  0
   28.2894  -19.2977  -16.0354 C   0  0  1  0  0  0  0  0  0  0  0  0
   27.0690  -19.2398  -15.1977 C   0  0  0  0  0  0  0  0  0  0  0  0
   26.9557  -18.2642  -14.4113 O   0  0  0  0  0  0  0  0  0  0  0  0
   18.4700  -19.1415  -13.4665 O   0  0  0  0  0  0  0  0  0  0  0  0
   19.7337  -19.4954  -13.9475 C   0  0  0  0  0  0  0  0  0  0  0  0
   20.2897  -20.7241  -13.6908 C   0  0  0  0  0  0  0  0  0  0  0  0
   21.5347  -21.0699  -14.1662 C   0  0  0  0  0  0  0  0  0  0  0  0
   22.2860  -20.1908  -14.9278 C   0  0  0  0  0  0  0  0  0  0  0  0
   23.6074  -20.5377  -15.4474 C   0  0  0  0  0  0  0  0  0  0  0  0
   24.7696  -20.0841  -14.6306 C   0  0  2  0  0  0  0  0  0  0  0  0
   26.0478  -20.2206  -15.2484 N   0  0  0  0  0  0  0  0  0  0  0  0
   24.6963  -20.7975  -13.3172 C   0  0  0  0  0  0  0  0  0  0  0  0
   24.9504  -22.0241  -13.3160 O   0  0  0  0  0  0  0  0  0  0  0  0
   21.7231  -18.9619  -15.1810 C   0  0  0  0  0  0  0  0  0  0  0  0
   20.4733  -18.6019  -14.7096 C   0  0  0  0  0  0  0  0  0  0  0  0
   27.2566  -21.4676   -9.9205 C   0  0  0  0  0  0  0  0  0  0  0  0
   26.4878  -20.2113   -9.8495 C   0  0  2  0  0  0  0  0  0  0  0  0
   27.0717  -19.3326   -8.7280 C   0  0  0  0  0  0  0  0  0  0  0  0
   25.0179  -20.2441   -9.7815 C   0  0  0  0  0  0  0  0  0  0  0  0
   24.2294  -20.9034  -10.8253 C   0  0  2  0  0  0  0  0  0  0  0  0
   24.3625  -20.1716  -12.1041 N   0  0  0  0  0  0  0  0  0  0  0  0
   22.7968  -21.0324  -10.5889 C   0  0  0  0  0  0  0  0  0  0  0  0
   21.8799  -20.3380  -11.0795 O   0  0  0  0  0  0  0  0  0  0  0  0
   22.3227  -22.0431   -9.7116 O   0  0  0  0  0  0  0  0  0  0  0  0
  1  5  1  0
  2  3  1  0
  2  1  1  0
  3  4  1  0
  4  5  1  0
  5  6  1  6
  6  7  2  0
  9 10  2  0
  9  8  1  0
 11 10  1  0
 12 11  2  0
 13 12  1  0
 14 13  1  6
 14 16  1  0
 15  6  1  0
 15 14  1  0
 16 25  1  0
 16 17  2  0
 18 12  1  0
 18 19  2  0
 19  9  1  0
 21 20  1  1
 21 23  1  0
 22 21  1  0
 24 23  1  1
 24 26  1  0
 25 24  1  0
 26 27  2  0
 26 28  1  0
M  END
$$$$
