PYL.pdb
     RDKit          3D

 28 29  0  0  1  0  0  0  0  0999 V2000
   28.1193  -21.3605  -15.0689 N   0  0  0  0  0  0  0  0  0  0  0  0
   28.7099  -21.2178  -16.4045 C   0  0  0  0  0  0  0  0  0  0  0  0
   27.9371  -19.9932  -16.9172 C   0  0  0  0  0  0  0  0  0  0  0  0
   27.9761  -19.1005  -15.6752 C   0  0  0  0  0  0  0  0  0  0  0  0
   28.2828  -20.0384  -14.5448 C   0  0  1  0  0  0  0  0  0  0  0  0
   27.4818  -19.7796  -13.3258 C   0  0  0  0  0  0  0  0  0  0  0  0
   27.4511  -18.5972  -12.8968 O   0  0  0  0  0  0  0  0  0  0  0  0
   21.4983  -18.7333  -16.1357 O   0  0  0  0  0  0  0  0  0  0  0  0
   22.2247  -19.3295  -15.1010 C   0  0  0  0  0  0  0  0  0  0  0  0
   23.0984  -20.3635  -15.3300 C   0  0  0  0  0  0  0  0  0  0  0  0
   23.8126  -20.9486  -14.3088 C   0  0  0  0  0  0  0  0  0  0  0  0
   23.6819  -20.5195  -12.9988 C   0  0  0  0  0  0  0  0  0  0  0  0
   24.4335  -21.1219  -11.8994 C   0  0  0  0  0  0  0  0  0  0  0  0
   25.7827  -20.5435  -11.6372 C   0  0  2  0  0  0  0  0  0  0  0  0
   26.7654  -20.7919  -12.6407 N   0  0  0  0  0  0  0  0  0  0  0  0
   26.2178  -21.0221  -10.2878 C   0  0  0  0  0  0  0  0  0  0  0  0
   26.7078  -22.1729  -10.2182 O   0  0  0  0  0  0  0  0  0  0  0  0
   22.8051  -19.4836  -12.7765 C   0  0  0  0  0  0  0  0  0  0  0  0
   22.0816  -18.8868  -13.7935 C   0  0  0  0  0  0  0  0  0  0  0  0
   29.0888  -20.3083   -6.7092 C   0  0  0  0  0  0  0  0  0  0  0  0
   27.9576  -19.3665   -6.7968 C   0  0  2  0  0  0  0  0  0  0  0  0
   28.1556  -18.2515   -5.7536 C   0  0  0  0  0  0  0  0  0  0  0  0
   26.5733  -19.8663   -6.7770 C   0  0  0  0  0  0  0  0  0  0  0  0
   26.1136  -20.8522   -7.7582 C   0  0  2  0  0  0  0  0  0  0  0  0
   26.1069  -20.2587   -9.1132 N   0  0  0  0  0  0  0  0  0  0  0  0
   24.7805  -21.4081   -7.5615 C   0  0  0  0  0  0  0  0  0  0  0  0
   24.4368  -22.2864   -6.7403 O   0  0  0  0  0  0  0  0  0  0  0  0
   23.7048  -20.9413   -8.3620 O   0  0  0  0  0  0  0  0  0  0  0  0
  1  5  1  0
  2  3  1  0
  2  1  1  0
  3  4  1  0
  4  5  1  0
  5  6  1  1
  6  7  2  0
  9 10  2  0
  9  8  1  0
 11 10  1  0
 12 11  2  0
 13 12  1  0
 14 13  1  6
 14 16  1  0
 15  6  1  0
 15 14  1  0
 16 25  1  0
 16 17  2  0
 18 12  1  0
 18 19  2  0
 19  9  1  0
 21 20  1  1
 21 23  1  0
 22 21  1  0
 24 23  1  1
 24 26  1  0
 25 24  1  0
 26 27  2  0
 26 28  1  0
M  END
$$$$
