PYL.pdb
     RDKit          3D

 28 29  0  0  1  0  0  0  0  0999 V2000
   27.8942  -21.3525  -14.4661 N   0  0  0  0  0  0  0  0  0  0  0  0
   28.2918  -21.2637  -15.8757 C   0  0  0  0  0  0  0  0  0  0  0  0
   27.3180  -20.1827  -16.3683 C   0  0  0  0  0  0  0  0  0  0  0  0
   27.4026  -19.1849  -15.2114 C   0  0  0  0  0  0  0  0  0  0  0  0
   27.9597  -19.9793  -14.0669 C   0  0  1  0  0  0  0  0  0  0  0  0
   27.2915  -19.7043  -12.7736 C   0  0  0  0  0  0  0  0  0  0  0  0
   27.1624  -18.4990  -12.4366 O   0  0  0  0  0  0  0  0  0  0  0  0
   20.9305  -18.9224  -14.6291 O   0  0  0  0  0  0  0  0  0  0  0  0
   21.8356  -19.4852  -13.7248 C   0  0  0  0  0  0  0  0  0  0  0  0
   22.7650  -20.4176  -14.1141 C   0  0  0  0  0  0  0  0  0  0  0  0
   23.6554  -20.9702  -13.2211 C   0  0  0  0  0  0  0  0  0  0  0  0
   23.6542  -20.6093  -11.8842 C   0  0  0  0  0  0  0  0  0  0  0  0
   24.5930  -21.1784  -10.9193 C   0  0  0  0  0  0  0  0  0  0  0  0
   25.9199  -20.5044  -10.8242 C   0  0  2  0  0  0  0  0  0  0  0  0
   26.8036  -20.7258  -11.9216 N   0  0  0  0  0  0  0  0  0  0  0  0
   26.5293  -20.9034   -9.5169 C   0  0  0  0  0  0  0  0  0  0  0  0
   27.0373  -22.0462   -9.4462 O   0  0  0  0  0  0  0  0  0  0  0  0
   22.7207  -19.6749  -11.5012 C   0  0  0  0  0  0  0  0  0  0  0  0
   21.8206  -19.1120  -12.3882 C   0  0  0  0  0  0  0  0  0  0  0  0
   29.8513  -20.1598   -5.8080 C   0  0  0  0  0  0  0  0  0  0  0  0
   28.8697  -19.1181   -6.1621 C   0  0  2  0  0  0  0  0  0  0  0  0
   29.1185  -17.8792   -5.2824 C   0  0  0  0  0  0  0  0  0  0  0  0
   27.4350  -19.4411   -6.2231 C   0  0  0  0  0  0  0  0  0  0  0  0
   26.9472  -20.5561   -7.0384 C   0  0  2  0  0  0  0  0  0  0  0  0
   26.5605  -20.0745   -8.3826 N   0  0  0  0  0  0  0  0  0  0  0  0
   25.7936  -21.2896   -6.5323 C   0  0  0  0  0  0  0  0  0  0  0  0
   24.6021  -21.1758   -6.8943 O   0  0  0  0  0  0  0  0  0  0  0  0
   25.9762  -22.2588   -5.5109 O   0  0  0  0  0  0  0  0  0  0  0  0
  1  5  1  0
  2  3  1  0
  2  1  1  0
  3  4  1  0
  4  5  1  0
  5  6  1  1
  6  7  2  0
  9 10  2  0
  9  8  1  0
 11 10  1  0
 12 11  2  0
 13 12  1  0
 14 13  1  6
 14 16  1  0
 15  6  1  0
 15 14  1  0
 16 25  1  0
 16 17  2  0
 18 12  1  0
 18 19  2  0
 19  9  1  0
 21 20  1  1
 21 23  1  0
 22 21  1  0
 24 23  1  1
 24 26  1  0
 25 24  1  0
 26 27  2  0
 26 28  1  0
M  END
$$$$
