PYL.pdb
     RDKit          3D

 28 29  0  0  1  0  0  0  0  0999 V2000
   27.7561  -20.1740  -17.7780 N   0  0  0  0  0  0  0  0  0  0  0  0
   28.9635  -20.0106  -18.5957 C   0  0  0  0  0  0  0  0  0  0  0  0
   28.7984  -18.5496  -19.0405 C   0  0  0  0  0  0  0  0  0  0  0  0
   28.3531  -17.9077  -17.7249 C   0  0  0  0  0  0  0  0  0  0  0  0
   27.8613  -19.0546  -16.8918 C   0  0  1  0  0  0  0  0  0  0  0  0
   26.6094  -18.7595  -16.1568 C   0  0  0  0  0  0  0  0  0  0  0  0
   26.6020  -17.7419  -15.4168 O   0  0  0  0  0  0  0  0  0  0  0  0
   23.6604  -14.7770  -20.3329 O   0  0  0  0  0  0  0  0  0  0  0  0
   23.5181  -15.8339  -19.4294 C   0  0  0  0  0  0  0  0  0  0  0  0
   24.0288  -17.0820  -19.6867 C   0  0  0  0  0  0  0  0  0  0  0  0
   23.8872  -18.1212  -18.7947 C   0  0  0  0  0  0  0  0  0  0  0  0
   23.2205  -17.9544  -17.5927 C   0  0  0  0  0  0  0  0  0  0  0  0
   23.0624  -19.0413  -16.6282 C   0  0  0  0  0  0  0  0  0  0  0  0
   24.1885  -19.2320  -15.6694 C   0  0  2  0  0  0  0  0  0  0  0  0
   25.4465  -19.5629  -16.2542 N   0  0  0  0  0  0  0  0  0  0  0  0
   23.7481  -20.2466  -14.6614 C   0  0  0  0  0  0  0  0  0  0  0  0
   23.5308  -21.4088  -15.0751 O   0  0  0  0  0  0  0  0  0  0  0  0
   22.7115  -16.7018  -17.3414 C   0  0  0  0  0  0  0  0  0  0  0  0
   22.8469  -15.6492  -18.2288 C   0  0  0  0  0  0  0  0  0  0  0  0
   26.3724  -21.3776  -11.5472 C   0  0  0  0  0  0  0  0  0  0  0  0
   25.4104  -20.4049  -10.9970 C   0  0  2  0  0  0  0  0  0  0  0  0
   25.8626  -20.0034   -9.5809 C   0  0  0  0  0  0  0  0  0  0  0  0
   23.9669  -20.6909  -11.0275 C   0  0  0  0  0  0  0  0  0  0  0  0
   23.2882  -21.0103  -12.2857 C   0  0  2  0  0  0  0  0  0  0  0  0
   23.5688  -19.9667  -13.2960 N   0  0  0  0  0  0  0  0  0  0  0  0
   21.8368  -21.1381  -12.2396 C   0  0  0  0  0  0  0  0  0  0  0  0
   20.9883  -20.3279  -12.6725 O   0  0  0  0  0  0  0  0  0  0  0  0
   21.2564  -22.2914  -11.6489 O   0  0  0  0  0  0  0  0  0  0  0  0
  1  5  1  0
  2  3  1  0
  2  1  1  0
  3  4  1  0
  4  5  1  0
  5  6  1  6
  6  7  2  0
  9 10  2  0
  9  8  1  0
 11 10  1  0
 12 11  2  0
 13 12  1  0
 14 13  1  6
 14 16  1  0
 15  6  1  0
 15 14  1  0
 16 25  1  0
 16 17  2  0
 18 12  1  0
 18 19  2  0
 19  9  1  0
 21 20  1  1
 21 23  1  0
 22 21  1  0
 24 23  1  1
 24 26  1  0
 25 24  1  0
 26 27  2  0
 26 28  1  0
M  END
$$$$
