PYL.pdb
     RDKit          3D

 28 29  0  0  1  0  0  0  0  0999 V2000
   28.0288  -21.3246  -15.2143 N   0  0  0  0  0  0  0  0  0  0  0  0
   28.6441  -21.1542  -16.5355 C   0  0  0  0  0  0  0  0  0  0  0  0
   27.9120  -19.8932  -17.0189 C   0  0  0  0  0  0  0  0  0  0  0  0
   27.9548  -19.0430  -15.7476 C   0  0  0  0  0  0  0  0  0  0  0  0
   28.2187  -20.0252  -14.6444 C   0  0  1  0  0  0  0  0  0  0  0  0
   27.4056  -19.7850  -13.4296 C   0  0  0  0  0  0  0  0  0  0  0  0
   27.4004  -18.6171  -12.9614 O   0  0  0  0  0  0  0  0  0  0  0  0
   21.6543  -18.4803  -16.5341 O   0  0  0  0  0  0  0  0  0  0  0  0
   22.3010  -19.1317  -15.4800 C   0  0  0  0  0  0  0  0  0  0  0  0
   23.1261  -20.2088  -15.6900 C   0  0  0  0  0  0  0  0  0  0  0  0
   23.7620  -20.8484  -14.6498 C   0  0  0  0  0  0  0  0  0  0  0  0
   23.5978  -20.4330  -13.3391 C   0  0  0  0  0  0  0  0  0  0  0  0
   24.2666  -21.0930  -12.2195 C   0  0  0  0  0  0  0  0  0  0  0  0
   25.6067  -20.5534  -11.8499 C   0  0  2  0  0  0  0  0  0  0  0  0
   26.6507  -20.7992  -12.7901 N   0  0  0  0  0  0  0  0  0  0  0  0
   25.9371  -21.0765  -10.4873 C   0  0  0  0  0  0  0  0  0  0  0  0
   26.2394  -22.2888  -10.3963 O   0  0  0  0  0  0  0  0  0  0  0  0
   22.7701  -19.3536  -13.1360 C   0  0  0  0  0  0  0  0  0  0  0  0
   22.1254  -18.7020  -14.1722 C   0  0  0  0  0  0  0  0  0  0  0  0
   28.9447  -20.3064   -6.9629 C   0  0  0  0  0  0  0  0  0  0  0  0
   27.8111  -19.3685   -7.0613 C   0  0  2  0  0  0  0  0  0  0  0  0
   28.0271  -18.2189   -6.0601 C   0  0  0  0  0  0  0  0  0  0  0  0
   26.4279  -19.8678   -6.9993 C   0  0  0  0  0  0  0  0  0  0  0  0
   25.9416  -20.8621   -7.9589 C   0  0  2  0  0  0  0  0  0  0  0  0
   25.9259  -20.2897   -9.3230 N   0  0  0  0  0  0  0  0  0  0  0  0
   24.6033  -21.3955   -7.7367 C   0  0  0  0  0  0  0  0  0  0  0  0
   23.5600  -21.1178   -8.3678 O   0  0  0  0  0  0  0  0  0  0  0  0
   24.3930  -22.3432   -6.7006 O   0  0  0  0  0  0  0  0  0  0  0  0
  1  5  1  0
  2  3  1  0
  2  1  1  0
  3  4  1  0
  4  5  1  0
  5  6  1  1
  6  7  2  0
  9 10  2  0
  9  8  1  0
 11 10  1  0
 12 11  2  0
 13 12  1  0
 14 13  1  6
 14 16  1  0
 15  6  1  0
 15 14  1  0
 16 25  1  0
 16 17  2  0
 18 12  1  0
 18 19  2  0
 19  9  1  0
 21 20  1  1
 21 23  1  0
 22 21  1  0
 24 23  1  1
 24 26  1  0
 25 24  1  0
 26 27  2  0
 26 28  1  0
M  END
$$$$
