PYL.pdb
     RDKit          3D

 28 29  0  0  1  0  0  0  0  0999 V2000
   27.5505  -21.8549  -18.3781 N   0  0  0  0  0  0  0  0  0  0  0  0
   27.7981  -21.1984  -19.6669 C   0  0  0  0  0  0  0  0  0  0  0  0
   26.5861  -20.2570  -19.7330 C   0  0  0  0  0  0  0  0  0  0  0  0
   26.5664  -19.7287  -18.2971 C   0  0  0  0  0  0  0  0  0  0  0  0
   27.3703  -20.7263  -17.5161 C   0  0  1  0  0  0  0  0  0  0  0  0
   26.7749  -21.0704  -16.2039 C   0  0  0  0  0  0  0  0  0  0  0  0
   25.9217  -21.9949  -16.1831 O   0  0  0  0  0  0  0  0  0  0  0  0
   24.6484  -21.0910   -7.5619 O   0  0  0  0  0  0  0  0  0  0  0  0
   25.2561  -20.8173   -8.7906 C   0  0  0  0  0  0  0  0  0  0  0  0
   25.4329  -19.5330   -9.2423 C   0  0  0  0  0  0  0  0  0  0  0  0
   26.0320  -19.2665  -10.4529 C   0  0  0  0  0  0  0  0  0  0  0  0
   26.4852  -20.2856  -11.2735 C   0  0  0  0  0  0  0  0  0  0  0  0
   27.1287  -20.0267  -12.5601 C   0  0  0  0  0  0  0  0  0  0  0  0
   26.4435  -20.5916  -13.7580 C   0  0  2  0  0  0  0  0  0  0  0  0
   27.1231  -20.4116  -14.9989 N   0  0  0  0  0  0  0  0  0  0  0  0
   25.0571  -20.0288  -13.7847 C   0  0  0  0  0  0  0  0  0  0  0  0
   24.9285  -18.8388  -14.1542 O   0  0  0  0  0  0  0  0  0  0  0  0
   26.3049  -21.5695  -10.8149 C   0  0  0  0  0  0  0  0  0  0  0  0
   25.7047  -21.8510   -9.6006 C   0  0  0  0  0  0  0  0  0  0  0  0
   21.9553  -18.9042  -16.5047 C   0  0  0  0  0  0  0  0  0  0  0  0
   22.2638  -20.2597  -16.0130 C   0  0  2  0  0  0  0  0  0  0  0  0
   21.8171  -21.2867  -17.0696 C   0  0  0  0  0  0  0  0  0  0  0  0
   21.8418  -20.6736  -14.6651 C   0  0  0  0  0  0  0  0  0  0  0  0
   22.5440  -20.1905  -13.4737 C   0  0  2  0  0  0  0  0  0  0  0  0
   23.9102  -20.7555  -13.4225 N   0  0  0  0  0  0  0  0  0  0  0  0
   21.9401  -20.4941  -12.1822 C   0  0  0  0  0  0  0  0  0  0  0  0
   22.2182  -21.4437  -11.4175 O   0  0  0  0  0  0  0  0  0  0  0  0
   20.9131  -19.6537  -11.6773 O   0  0  0  0  0  0  0  0  0  0  0  0
  1  5  1  0
  2  3  1  0
  2  1  1  0
  3  4  1  0
  4  5  1  0
  5  6  1  1
  6  7  2  0
  9 10  2  0
  9  8  1  0
 11 10  1  0
 12 11  2  0
 13 12  1  0
 14 13  1  1
 14 16  1  0
 15  6  1  0
 15 14  1  0
 16 25  1  0
 16 17  2  0
 18 12  1  0
 18 19  2  0
 19  9  1  0
 21 20  1  6
 21 23  1  0
 22 21  1  0
 24 23  1  6
 24 26  1  0
 25 24  1  0
 26 27  2  0
 26 28  1  0
M  END
$$$$
