PYL.pdb
     RDKit          3D

 28 29  0  0  1  0  0  0  0  0999 V2000
   25.2598  -27.8776  -20.2531 N   0  0  0  0  0  0  0  0  0  0  0  0
   25.8493  -27.3180  -21.4748 C   0  0  0  0  0  0  0  0  0  0  0  0
   27.1021  -28.1976  -21.6032 C   0  0  0  0  0  0  0  0  0  0  0  0
   26.5102  -29.5719  -21.2835 C   0  0  0  0  0  0  0  0  0  0  0  0
   25.2244  -29.2732  -20.5701 C   0  0  1  0  0  0  0  0  0  0  0  0
   24.9823  -30.1429  -19.3954 C   0  0  0  0  0  0  0  0  0  0  0  0
   24.7282  -31.3548  -19.6184 O   0  0  0  0  0  0  0  0  0  0  0  0
   30.8688  -32.9000  -16.8008 O   0  0  0  0  0  0  0  0  0  0  0  0
   29.6408  -32.2777  -16.5587 C   0  0  0  0  0  0  0  0  0  0  0  0
   28.7410  -32.7775  -15.6502 C   0  0  0  0  0  0  0  0  0  0  0  0
   27.5322  -32.1623  -15.4136 C   0  0  0  0  0  0  0  0  0  0  0  0
   27.1674  -31.0069  -16.0839 C   0  0  0  0  0  0  0  0  0  0  0  0
   25.8921  -30.3335  -15.8456 C   0  0  0  0  0  0  0  0  0  0  0  0
   24.8595  -30.4960  -16.9091 C   0  0  2  0  0  0  0  0  0  0  0  0
   25.0253  -29.6706  -18.0604 N   0  0  0  0  0  0  0  0  0  0  0  0
   23.5225  -30.3065  -16.2642 C   0  0  0  0  0  0  0  0  0  0  0  0
   23.2153  -29.1442  -15.9122 O   0  0  0  0  0  0  0  0  0  0  0  0
   28.0733  -30.5118  -16.9924 C   0  0  0  0  0  0  0  0  0  0  0  0
   29.2911  -31.1200  -17.2394 C   0  0  0  0  0  0  0  0  0  0  0  0
   17.8466  -31.5635  -17.2307 C   0  0  0  0  0  0  0  0  0  0  0  0
   18.9651  -30.9330  -16.5056 C   0  0  2  0  0  0  0  0  0  0  0  0
   19.2177  -29.5344  -17.0981 C   0  0  0  0  0  0  0  0  0  0  0  0
   20.2303  -31.6609  -16.3161 C   0  0  0  0  0  0  0  0  0  0  0  0
   21.2749  -31.1393  -15.4315 C   0  0  2  0  0  0  0  0  0  0  0  0
   22.6081  -31.3492  -16.0372 N   0  0  0  0  0  0  0  0  0  0  0  0
   21.3527  -31.7103  -14.0925 C   0  0  0  0  0  0  0  0  0  0  0  0
   20.5554  -31.5371  -13.1448 O   0  0  0  0  0  0  0  0  0  0  0  0
   22.4331  -32.5704  -13.7625 O   0  0  0  0  0  0  0  0  0  0  0  0
  1  5  1  0
  2  3  1  0
  2  1  1  0
  3  4  1  0
  4  5  1  0
  5  6  1  1
  6  7  2  0
  9 10  2  0
  9  8  1  0
 11 10  1  0
 12 11  2  0
 13 12  1  0
 14 13  1  1
 14 16  1  0
 15  6  1  0
 15 14  1  0
 16 25  1  0
 16 17  2  0
 18 12  1  0
 18 19  2  0
 19  9  1  0
 21 20  1  6
 21 23  1  0
 22 21  1  0
 24 23  1  6
 24 26  1  0
 25 24  1  0
 26 27  2  0
 26 28  1  0
M  END
$$$$
