PYL.pdb
     RDKit          3D

 28 29  0  0  1  0  0  0  0  0999 V2000
   23.4842   -9.2707  -17.3157 N   0  0  0  0  0  0  0  0  0  0  0  0
   23.8451  -10.6616  -17.6133 C   0  0  0  0  0  0  0  0  0  0  0  0
   22.7195  -11.4015  -16.8750 C   0  0  0  0  0  0  0  0  0  0  0  0
   21.5163  -10.5440  -17.2727 C   0  0  0  0  0  0  0  0  0  0  0  0
   22.1117   -9.2419  -17.7216 C   0  0  1  0  0  0  0  0  0  0  0  0
   21.3734   -8.0533  -17.2349 C   0  0  0  0  0  0  0  0  0  0  0  0
   20.1476   -7.9838  -17.5103 O   0  0  0  0  0  0  0  0  0  0  0  0
   18.4417   -9.3392  -11.2247 O   0  0  0  0  0  0  0  0  0  0  0  0
   19.1884   -8.4589  -12.0130 C   0  0  0  0  0  0  0  0  0  0  0  0
   20.5524   -8.5655  -12.1265 C   0  0  0  0  0  0  0  0  0  0  0  0
   21.2852   -7.6971  -12.9038 C   0  0  0  0  0  0  0  0  0  0  0  0
   20.6775   -6.6723  -13.6095 C   0  0  0  0  0  0  0  0  0  0  0  0
   21.4342   -5.7418  -14.4450 C   0  0  0  0  0  0  0  0  0  0  0  0
   21.2793   -5.9135  -15.9182 C   0  0  2  0  0  0  0  0  0  0  0  0
   21.9831   -7.0155  -16.4877 N   0  0  0  0  0  0  0  0  0  0  0  0
   21.6492   -4.6129  -16.5594 C   0  0  0  0  0  0  0  0  0  0  0  0
   22.8700   -4.3529  -16.6657 O   0  0  0  0  0  0  0  0  0  0  0  0
   19.3111   -6.5713  -13.4913 C   0  0  0  0  0  0  0  0  0  0  0  0
   18.5631   -7.4372  -12.7139 C   0  0  0  0  0  0  0  0  0  0  0  0
   19.0492   -0.0981  -20.0434 C   0  0  0  0  0  0  0  0  0  0  0  0
   20.1919   -0.6723  -19.3094 C   0  0  2  0  0  0  0  0  0  0  0  0
   21.3867   -0.8041  -20.2717 C   0  0  0  0  0  0  0  0  0  0  0  0
   20.0210   -1.8972  -18.5114 C   0  0  0  0  0  0  0  0  0  0  0  0
   21.0935   -2.3861  -17.6417 C   0  0  2  0  0  0  0  0  0  0  0  0
   20.7120   -3.6831  -17.0410 N   0  0  0  0  0  0  0  0  0  0  0  0
   21.4816   -1.5310  -16.5267 C   0  0  0  0  0  0  0  0  0  0  0  0
   20.8570   -1.3429  -15.4598 O   0  0  0  0  0  0  0  0  0  0  0  0
   22.6974   -0.8011  -16.5974 O   0  0  0  0  0  0  0  0  0  0  0  0
  1  5  1  0
  2  3  1  0
  2  1  1  0
  3  4  1  0
  4  5  1  0
  5  6  1  1
  6  7  2  0
  9 10  2  0
  9  8  1  0
 11 10  1  0
 12 11  2  0
 13 12  1  0
 14 13  1  1
 14 16  1  0
 15  6  1  0
 15 14  1  0
 16 25  1  0
 16 17  2  0
 18 12  1  0
 18 19  2  0
 19  9  1  0
 21 20  1  6
 21 23  1  0
 22 21  1  0
 24 23  1  1
 24 26  1  0
 25 24  1  0
 26 27  2  0
 26 28  1  0
M  END
$$$$
