CQI.pdb
     RDKit          3D

 24 23  0  0  1  0  0  0  0  0999 V2000
    8.4201  -15.3046   17.7860 N   0  0  0  0  0  0  0  0  0  0  0  0
    8.4441  -14.5849   19.0170 C   0  0  1  0  0  0  0  0  0  0  0  0
    7.6928  -13.2734   18.9393 C   0  0  0  0  0  0  0  0  0  0  0  0
    8.9283  -11.9374   18.8271 S   0  0  0  0  0  0  0  0  0  0  0  0
    7.7961  -15.4037   20.0690 C   0  0  0  0  0  0  0  0  0  0  0  0
    6.9132  -16.2688   19.7870 O   0  0  0  0  0  0  0  0  0  0  0  0
    5.7415  -19.7079   24.3802 N   0  0  0  0  0  0  0  0  0  0  0  0
    6.1740  -19.1165   23.1707 C   0  0  0  0  0  0  0  0  0  0  0  0
    5.3784  -19.1402   22.1972 O   0  0  0  0  0  0  0  0  0  0  0  0
    7.5161  -18.5049   23.1183 C   0  0  0  0  0  0  0  0  0  0  0  0
    7.7217  -17.4335   22.1230 C   0  0  0  0  0  0  0  0  0  0  0  0
    7.5586  -16.0203   22.5248 C   0  0  2  0  0  0  0  0  0  0  0  0
    8.1473  -15.2387   21.4073 N   0  0  0  0  0  0  0  0  0  0  0  0
    8.2279  -15.5507   23.7477 C   0  0  0  0  0  0  0  0  0  0  0  0
    9.4876  -15.6265   23.8987 O   0  0  0  0  0  0  0  0  0  0  0  0
    5.7458  -11.5176   26.3051 C   0  0  0  0  0  0  0  0  0  0  0  0
    6.8780  -12.3298   25.8132 C   0  0  0  0  0  0  0  0  0  0  0  0
    7.4345  -13.4009   26.6376 C   0  0  2  0  0  0  0  0  0  0  0  0
    8.1518  -12.7761   27.8410 C   0  0  0  0  0  0  0  0  0  0  0  0
    8.2323  -14.4819   26.0220 C   0  0  2  0  0  0  0  0  0  0  0  0
    7.5268  -14.9882   24.8302 N   0  0  0  0  0  0  0  0  0  0  0  0
    8.6059  -15.6486   26.7847 C   0  0  0  0  0  0  0  0  0  0  0  0
    9.7848  -15.7441   27.4805 O   0  0  0  0  0  0  0  0  0  0  0  0
    7.8552  -16.6835   26.8560 O   0  0  0  0  0  0  0  0  0  0  0  0
  2  1  1  6
  2  3  1  0
  3  4  1  0
  5  2  1  0
  5  6  2  0
  7  8  1  0
  8  9  2  0
  8 10  1  0
 10 11  1  0
 12 11  1  6
 12 13  1  0
 13  5  1  0
 14 12  1  0
 15 14  2  0
 17 16  1  0
 18 17  1  0
 18 20  1  0
 18 19  1  1
 20 22  1  0
 20 21  1  6
 21 14  1  0
 22 23  1  0
 24 22  2  0
M  END
$$$$
