CQI.pdb
     RDKit          3D

 24 23  0  0  1  0  0  0  0  0999 V2000
    8.1785  -15.0961   17.4397 N   0  0  0  0  0  0  0  0  0  0  0  0
    8.5072  -14.3542   18.6125 C   0  0  1  0  0  0  0  0  0  0  0  0
    7.8715  -12.9808   18.6297 C   0  0  0  0  0  0  0  0  0  0  0  0
    8.3102  -12.1913   20.2133 S   0  0  0  0  0  0  0  0  0  0  0  0
    8.0115  -15.0855   19.8026 C   0  0  0  0  0  0  0  0  0  0  0  0
    6.8924  -15.6814   19.7969 O   0  0  0  0  0  0  0  0  0  0  0  0
   10.1510  -19.8453   21.6206 N   0  0  0  0  0  0  0  0  0  0  0  0
   11.0491  -18.7567   21.7099 C   0  0  0  0  0  0  0  0  0  0  0  0
   12.2787  -19.0140   21.6530 O   0  0  0  0  0  0  0  0  0  0  0  0
   10.5022  -17.3938   21.8562 C   0  0  0  0  0  0  0  0  0  0  0  0
    9.0319  -17.2684   21.9124 C   0  0  0  0  0  0  0  0  0  0  0  0
    8.4193  -15.9462   22.1607 C   0  0  2  0  0  0  0  0  0  0  0  0
    8.7737  -15.1348   20.9680 N   0  0  0  0  0  0  0  0  0  0  0  0
    8.8623  -15.1692   23.3285 C   0  0  0  0  0  0  0  0  0  0  0  0
    9.9216  -14.4670   23.3091 O   0  0  0  0  0  0  0  0  0  0  0  0
    6.7243  -11.1681   27.1123 C   0  0  0  0  0  0  0  0  0  0  0  0
    7.7606  -12.1944   26.8746 C   0  0  0  0  0  0  0  0  0  0  0  0
    7.5224  -13.2820   25.9276 C   0  0  2  0  0  0  0  0  0  0  0  0
    6.1737  -13.9354   26.2547 C   0  0  0  0  0  0  0  0  0  0  0  0
    8.5719  -14.2886   25.6642 C   0  0  2  0  0  0  0  0  0  0  0  0
    8.1506  -15.1476   24.5422 N   0  0  0  0  0  0  0  0  0  0  0  0
    9.0106  -15.1863   26.7054 C   0  0  0  0  0  0  0  0  0  0  0  0
    9.8232  -14.7954   27.7397 O   0  0  0  0  0  0  0  0  0  0  0  0
    8.6708  -16.4206   26.7268 O   0  0  0  0  0  0  0  0  0  0  0  0
  2  1  1  6
  2  3  1  0
  3  4  1  0
  5  2  1  0
  5  6  2  0
  7  8  1  0
  8  9  2  0
  8 10  1  0
 10 11  1  0
 12 11  1  6
 12 13  1  0
 13  5  1  0
 14 12  1  0
 15 14  2  0
 17 16  1  0
 18 17  1  0
 18 20  1  0
 18 19  1  1
 20 22  1  0
 20 21  1  6
 21 14  1  0
 22 23  1  0
 24 22  2  0
M  END
$$$$
