CQI.pdb
     RDKit          3D

 24 23  0  0  1  0  0  0  0  0999 V2000
    8.1831  -15.0796   17.7730 N   0  0  0  0  0  0  0  0  0  0  0  0
    8.5631  -14.3888   18.9615 C   0  0  1  0  0  0  0  0  0  0  0  0
    7.9548  -13.0059   19.0508 C   0  0  0  0  0  0  0  0  0  0  0  0
    8.6012  -12.2171   20.5620 S   0  0  0  0  0  0  0  0  0  0  0  0
    8.0916  -15.1559   20.1389 C   0  0  0  0  0  0  0  0  0  0  0  0
    6.8967  -15.5711   20.2254 O   0  0  0  0  0  0  0  0  0  0  0  0
   11.3201  -19.5046   22.0198 N   0  0  0  0  0  0  0  0  0  0  0  0
   10.9223  -18.8775   20.8165 C   0  0  0  0  0  0  0  0  0  0  0  0
   11.5328  -19.2003   19.7656 O   0  0  0  0  0  0  0  0  0  0  0  0
    9.8214  -17.8953   20.8567 C   0  0  0  0  0  0  0  0  0  0  0  0
    9.2954  -17.5384   22.1896 C   0  0  0  0  0  0  0  0  0  0  0  0
    8.5933  -16.2513   22.3785 C   0  0  2  0  0  0  0  0  0  0  0  0
    8.9616  -15.4411   21.1892 N   0  0  0  0  0  0  0  0  0  0  0  0
    8.9271  -15.4286   23.5514 C   0  0  0  0  0  0  0  0  0  0  0  0
    9.9873  -14.7296   23.6052 O   0  0  0  0  0  0  0  0  0  0  0  0
    5.3243  -12.2093   25.7607 C   0  0  0  0  0  0  0  0  0  0  0  0
    6.5631  -12.9011   25.3479 C   0  0  0  0  0  0  0  0  0  0  0  0
    7.2828  -13.7565   26.2896 C   0  0  2  0  0  0  0  0  0  0  0  0
    7.5623  -12.9573   27.5687 C   0  0  0  0  0  0  0  0  0  0  0  0
    8.4672  -14.5232   25.8500 C   0  0  2  0  0  0  0  0  0  0  0  0
    8.1031  -15.3571   24.6896 N   0  0  0  0  0  0  0  0  0  0  0  0
    9.1593  -15.3995   26.7641 C   0  0  0  0  0  0  0  0  0  0  0  0
    8.9207  -16.7490   26.8353 O   0  0  0  0  0  0  0  0  0  0  0  0
   10.0455  -14.9673   27.5810 O   0  0  0  0  0  0  0  0  0  0  0  0
  2  1  1  6
  2  3  1  0
  3  4  1  0
  5  2  1  0
  5  6  2  0
  7  8  1  0
  8  9  2  0
  8 10  1  0
 10 11  1  0
 12 11  1  1
 12 13  1  0
 13  5  1  0
 14 12  1  0
 15 14  2  0
 17 16  1  0
 18 17  1  0
 18 20  1  0
 18 19  1  1
 20 22  1  0
 20 21  1  6
 21 14  1  0
 22 23  1  0
 24 22  2  0
M  END
$$$$
