CQI.pdb
     RDKit          3D

 24 23  0  0  1  0  0  0  0  0999 V2000
    7.8780  -14.8172   17.7640 N   0  0  0  0  0  0  0  0  0  0  0  0
    8.3639  -14.1632   18.9346 C   0  0  1  0  0  0  0  0  0  0  0  0
    7.7466  -12.7962   19.1364 C   0  0  0  0  0  0  0  0  0  0  0  0
    8.4527  -12.0937   20.6634 S   0  0  0  0  0  0  0  0  0  0  0  0
    8.0235  -14.9816   20.1227 C   0  0  0  0  0  0  0  0  0  0  0  0
    6.8799  -15.5124   20.2575 O   0  0  0  0  0  0  0  0  0  0  0  0
   11.1950  -19.5171   21.3645 N   0  0  0  0  0  0  0  0  0  0  0  0
   10.4984  -19.5442   22.5948 C   0  0  0  0  0  0  0  0  0  0  0  0
   10.6820  -20.5383   23.3427 O   0  0  0  0  0  0  0  0  0  0  0  0
    9.6099  -18.4156   22.9339 C   0  0  0  0  0  0  0  0  0  0  0  0
    9.5447  -17.3042   21.9637 C   0  0  0  0  0  0  0  0  0  0  0  0
    8.7581  -16.0953   22.2877 C   0  0  2  0  0  0  0  0  0  0  0  0
    8.9641  -15.1881   21.1297 N   0  0  0  0  0  0  0  0  0  0  0  0
    9.1166  -15.3175   23.4837 C   0  0  0  0  0  0  0  0  0  0  0  0
   10.1635  -14.5982   23.5318 O   0  0  0  0  0  0  0  0  0  0  0  0
    5.9649  -11.8271   25.6007 C   0  0  0  0  0  0  0  0  0  0  0  0
    7.1318  -12.6682   25.2622 C   0  0  0  0  0  0  0  0  0  0  0  0
    7.6604  -13.6262   26.2314 C   0  0  2  0  0  0  0  0  0  0  0  0
    7.9793  -12.8844   27.5356 C   0  0  0  0  0  0  0  0  0  0  0  0
    8.7422  -14.5577   25.8496 C   0  0  2  0  0  0  0  0  0  0  0  0
    8.3323  -15.3139   24.6519 N   0  0  0  0  0  0  0  0  0  0  0  0
    9.2352  -15.5388   26.7860 C   0  0  0  0  0  0  0  0  0  0  0  0
   10.2738  -15.2962   27.6496 O   0  0  0  0  0  0  0  0  0  0  0  0
    8.7333  -16.7140   26.8671 O   0  0  0  0  0  0  0  0  0  0  0  0
  2  1  1  6
  2  3  1  0
  3  4  1  0
  5  2  1  0
  5  6  2  0
  7  8  1  0
  8  9  2  0
  8 10  1  0
 10 11  1  0
 12 11  1  6
 12 13  1  0
 13  5  1  0
 14 12  1  0
 15 14  2  0
 17 16  1  0
 18 17  1  0
 18 20  1  0
 18 19  1  1
 20 22  1  0
 20 21  1  6
 21 14  1  0
 22 23  1  0
 24 22  2  0
M  END
$$$$
