CQI.pdb
     RDKit          3D

 24 23  0  0  1  0  0  0  0  0999 V2000
    6.7470  -15.9450   18.7004 N   0  0  0  0  0  0  0  0  0  0  0  0
    7.5615  -15.2895   19.6703 C   0  0  1  0  0  0  0  0  0  0  0  0
    7.6395  -13.7942   19.4502 C   0  0  0  0  0  0  0  0  0  0  0  0
    8.6547  -13.5092   17.9629 S   0  0  0  0  0  0  0  0  0  0  0  0
    6.9816  -15.5083   21.0168 C   0  0  0  0  0  0  0  0  0  0  0  0
    5.8733  -14.9930   21.3538 O   0  0  0  0  0  0  0  0  0  0  0  0
    8.1980  -20.8533   24.2172 N   0  0  0  0  0  0  0  0  0  0  0  0
    7.0559  -20.2075   24.7444 C   0  0  0  0  0  0  0  0  0  0  0  0
    6.1452  -20.9349   25.2166 O   0  0  0  0  0  0  0  0  0  0  0  0
    6.9974  -18.7330   24.7188 C   0  0  0  0  0  0  0  0  0  0  0  0
    7.2064  -18.0805   23.4106 C   0  0  0  0  0  0  0  0  0  0  0  0
    7.1214  -16.6085   23.3053 C   0  0  2  0  0  0  0  0  0  0  0  0
    7.6498  -16.2947   21.9530 N   0  0  0  0  0  0  0  0  0  0  0  0
    7.8964  -15.7858   24.2468 C   0  0  0  0  0  0  0  0  0  0  0  0
    9.1361  -15.5589   24.0819 O   0  0  0  0  0  0  0  0  0  0  0  0
    5.8066  -11.2619   26.2803 C   0  0  0  0  0  0  0  0  0  0  0  0
    6.7635  -12.2955   25.8336 C   0  0  0  0  0  0  0  0  0  0  0  0
    7.3353  -13.2393   26.7922 C   0  0  2  0  0  0  0  0  0  0  0  0
    8.0602  -12.4504   27.8899 C   0  0  0  0  0  0  0  0  0  0  0  0
    8.1342  -14.3909   26.3235 C   0  0  2  0  0  0  0  0  0  0  0  0
    7.3253  -15.1954   25.3893 N   0  0  0  0  0  0  0  0  0  0  0  0
    8.6993  -15.3280   27.2641 C   0  0  0  0  0  0  0  0  0  0  0  0
    8.1060  -16.5245   27.5795 O   0  0  0  0  0  0  0  0  0  0  0  0
    9.7999  -15.0969   27.8764 O   0  0  0  0  0  0  0  0  0  0  0  0
  2  1  1  6
  2  3  1  0
  3  4  1  0
  5  2  1  0
  5  6  2  0
  7  8  1  0
  8  9  2  0
  8 10  1  0
 10 11  1  0
 12 11  1  1
 12 13  1  0
 13  5  1  0
 14 12  1  0
 15 14  2  0
 17 16  1  0
 18 17  1  0
 18 20  1  0
 18 19  1  1
 20 22  1  0
 20 21  1  6
 21 14  1  0
 22 23  1  0
 24 22  2  0
M  END
$$$$
