CQI.pdb
     RDKit          3D

 24 23  0  0  1  0  0  0  0  0999 V2000
    7.5201  -15.2674   18.2149 N   0  0  0  0  0  0  0  0  0  0  0  0
    8.1209  -14.7002   19.3775 C   0  0  1  0  0  0  0  0  0  0  0  0
    7.8908  -13.2081   19.4825 C   0  0  0  0  0  0  0  0  0  0  0  0
    8.8109  -12.4126   18.1243 S   0  0  0  0  0  0  0  0  0  0  0  0
    7.5265  -15.3249   20.5831 C   0  0  0  0  0  0  0  0  0  0  0  0
    6.2740  -15.4830   20.6998 O   0  0  0  0  0  0  0  0  0  0  0  0
    5.6590  -19.1659   22.9525 N   0  0  0  0  0  0  0  0  0  0  0  0
    6.6466  -19.4043   23.9361 C   0  0  0  0  0  0  0  0  0  0  0  0
    6.3207  -20.1087   24.9256 O   0  0  0  0  0  0  0  0  0  0  0  0
    7.9916  -18.8268   23.7479 C   0  0  0  0  0  0  0  0  0  0  0  0
    8.1559  -17.8694   22.6356 C   0  0  0  0  0  0  0  0  0  0  0  0
    7.8388  -16.4411   22.8468 C   0  0  2  0  0  0  0  0  0  0  0  0
    8.3412  -15.7575   21.6274 N   0  0  0  0  0  0  0  0  0  0  0  0
    8.4502  -15.7417   23.9873 C   0  0  0  0  0  0  0  0  0  0  0  0
    9.6965  -15.4979   24.0396 O   0  0  0  0  0  0  0  0  0  0  0  0
    6.0256  -11.5015   26.1345 C   0  0  0  0  0  0  0  0  0  0  0  0
    6.9654  -12.5590   25.7076 C   0  0  0  0  0  0  0  0  0  0  0  0
    7.5177  -13.4970   26.6831 C   0  0  2  0  0  0  0  0  0  0  0  0
    8.1870  -12.7004   27.8102 C   0  0  0  0  0  0  0  0  0  0  0  0
    8.3539  -14.6320   26.2400 C   0  0  2  0  0  0  0  0  0  0  0  0
    7.7048  -15.2957   25.0943 N   0  0  0  0  0  0  0  0  0  0  0  0
    8.7105  -15.6875   27.1572 C   0  0  0  0  0  0  0  0  0  0  0  0
    9.8637  -15.6773   27.9008 O   0  0  0  0  0  0  0  0  0  0  0  0
    7.9680  -16.7158   27.3325 O   0  0  0  0  0  0  0  0  0  0  0  0
  2  1  1  6
  2  3  1  0
  3  4  1  0
  5  2  1  0
  5  6  2  0
  7  8  1  0
  8  9  2  0
  8 10  1  0
 10 11  1  0
 12 11  1  6
 12 13  1  0
 13  5  1  0
 14 12  1  0
 15 14  2  0
 17 16  1  0
 18 17  1  0
 18 20  1  0
 18 19  1  1
 20 22  1  0
 20 21  1  6
 21 14  1  0
 22 23  1  0
 24 22  2  0
M  END
$$$$
