CQI.pdb
     RDKit          3D

 24 23  0  0  1  0  0  0  0  0999 V2000
    7.8085  -14.5830   18.1974 N   0  0  0  0  0  0  0  0  0  0  0  0
    8.4321  -14.1211   19.3939 C   0  0  1  0  0  0  0  0  0  0  0  0
    7.9013  -12.7777   19.8457 C   0  0  0  0  0  0  0  0  0  0  0  0
    8.5812  -11.5119   18.7234 S   0  0  0  0  0  0  0  0  0  0  0  0
    8.1663  -15.0904   20.4834 C   0  0  0  0  0  0  0  0  0  0  0  0
    7.0533  -15.6895   20.5820 O   0  0  0  0  0  0  0  0  0  0  0  0
   11.4146  -19.6848   21.5591 N   0  0  0  0  0  0  0  0  0  0  0  0
   10.7237  -19.7454   22.7914 C   0  0  0  0  0  0  0  0  0  0  0  0
   10.8635  -20.7861   23.4834 O   0  0  0  0  0  0  0  0  0  0  0  0
    9.8916  -18.5961   23.1973 C   0  0  0  0  0  0  0  0  0  0  0  0
    9.7785  -17.4823   22.2344 C   0  0  0  0  0  0  0  0  0  0  0  0
    8.9579  -16.3009   22.5752 C   0  0  2  0  0  0  0  0  0  0  0  0
    9.1458  -15.3678   21.4348 N   0  0  0  0  0  0  0  0  0  0  0  0
    9.2886  -15.5354   23.7870 C   0  0  0  0  0  0  0  0  0  0  0  0
   10.3766  -14.8880   23.8999 O   0  0  0  0  0  0  0  0  0  0  0  0
    6.0416  -11.9795   25.6867 C   0  0  0  0  0  0  0  0  0  0  0  0
    7.1972  -12.8544   25.3992 C   0  0  0  0  0  0  0  0  0  0  0  0
    7.7260  -13.7457   26.4300 C   0  0  2  0  0  0  0  0  0  0  0  0
    8.0543  -12.9172   27.6785 C   0  0  0  0  0  0  0  0  0  0  0  0
    8.8018  -14.7067   26.1089 C   0  0  2  0  0  0  0  0  0  0  0  0
    8.4308  -15.4654   24.9001 N   0  0  0  0  0  0  0  0  0  0  0  0
    9.2259  -15.6893   27.0768 C   0  0  0  0  0  0  0  0  0  0  0  0
   10.2528  -15.4761   27.9618 O   0  0  0  0  0  0  0  0  0  0  0  0
    8.6689  -16.8386   27.1680 O   0  0  0  0  0  0  0  0  0  0  0  0
  2  1  1  6
  2  3  1  0
  3  4  1  0
  5  2  1  0
  5  6  2  0
  7  8  1  0
  8  9  2  0
  8 10  1  0
 10 11  1  0
 12 11  1  6
 12 13  1  0
 13  5  1  0
 14 12  1  0
 15 14  2  0
 17 16  1  0
 18 17  1  0
 18 20  1  0
 18 19  1  1
 20 22  1  0
 20 21  1  6
 21 14  1  0
 22 23  1  0
 24 22  2  0
M  END
$$$$
