CQI.pdb
     RDKit          3D

 24 23  0  0  1  0  0  0  0  0999 V2000
    7.8741  -14.1343   17.9398 N   0  0  0  0  0  0  0  0  0  0  0  0
    8.8983  -14.2081   18.9296 C   0  0  1  0  0  0  0  0  0  0  0  0
    9.4219  -12.8451   19.3281 C   0  0  0  0  0  0  0  0  0  0  0  0
    7.9869  -11.8145   19.7782 S   0  0  0  0  0  0  0  0  0  0  0  0
    8.3470  -14.8438   20.1499 C   0  0  0  0  0  0  0  0  0  0  0  0
    7.1001  -14.8736   20.3773 O   0  0  0  0  0  0  0  0  0  0  0  0
   10.7930  -19.9761   21.7371 N   0  0  0  0  0  0  0  0  0  0  0  0
    9.9620  -19.8585   22.8752 C   0  0  0  0  0  0  0  0  0  0  0  0
    9.9163  -20.8378   23.6628 O   0  0  0  0  0  0  0  0  0  0  0  0
    9.2079  -18.6063   23.0788 C   0  0  0  0  0  0  0  0  0  0  0  0
    9.3353  -17.5739   22.0306 C   0  0  0  0  0  0  0  0  0  0  0  0
    8.7327  -16.2405   22.2399 C   0  0  2  0  0  0  0  0  0  0  0  0
    9.1975  -15.4296   21.0854 N   0  0  0  0  0  0  0  0  0  0  0  0
    9.0977  -15.4803   23.4452 C   0  0  0  0  0  0  0  0  0  0  0  0
   10.2131  -14.8801   23.5520 O   0  0  0  0  0  0  0  0  0  0  0  0
    5.7321  -12.0399   25.7525 C   0  0  0  0  0  0  0  0  0  0  0  0
    6.8999  -12.8326   25.3148 C   0  0  0  0  0  0  0  0  0  0  0  0
    7.5353  -13.7812   26.2274 C   0  0  2  0  0  0  0  0  0  0  0  0
    7.8660  -13.0585   27.5394 C   0  0  0  0  0  0  0  0  0  0  0  0
    8.6566  -14.6266   25.7671 C   0  0  2  0  0  0  0  0  0  0  0  0
    8.2449  -15.3639   24.5583 N   0  0  0  0  0  0  0  0  0  0  0  0
    9.2495  -15.6069   26.6445 C   0  0  0  0  0  0  0  0  0  0  0  0
   10.3026  -15.3276   27.4788 O   0  0  0  0  0  0  0  0  0  0  0  0
    8.8300  -16.8156   26.6960 O   0  0  0  0  0  0  0  0  0  0  0  0
  2  1  1  6
  2  3  1  0
  3  4  1  0
  5  2  1  0
  5  6  2  0
  7  8  1  0
  8  9  2  0
  8 10  1  0
 10 11  1  0
 12 11  1  1
 12 13  1  0
 13  5  1  0
 14 12  1  0
 15 14  2  0
 17 16  1  0
 18 17  1  0
 18 20  1  0
 18 19  1  1
 20 22  1  0
 20 21  1  6
 21 14  1  0
 22 23  1  0
 24 22  2  0
M  END
$$$$
