CQI.pdb
     RDKit          3D

 24 23  0  0  1  0  0  0  0  0999 V2000
    7.2029  -15.2662   18.2645 N   0  0  0  0  0  0  0  0  0  0  0  0
    8.0180  -14.5981   19.2255 C   0  0  1  0  0  0  0  0  0  0  0  0
    7.6633  -13.1342   19.3726 C   0  0  0  0  0  0  0  0  0  0  0  0
    8.9763  -12.3468   20.3624 S   0  0  0  0  0  0  0  0  0  0  0  0
    7.8250  -15.2349   20.5500 C   0  0  0  0  0  0  0  0  0  0  0  0
    6.6725  -15.5529   20.9720 O   0  0  0  0  0  0  0  0  0  0  0  0
   11.4330  -19.6386   21.9910 N   0  0  0  0  0  0  0  0  0  0  0  0
   10.8814  -19.4995   23.2855 C   0  0  0  0  0  0  0  0  0  0  0  0
   11.1660  -20.3824   24.1345 O   0  0  0  0  0  0  0  0  0  0  0  0
   10.0178  -18.3368   23.5693 C   0  0  0  0  0  0  0  0  0  0  0  0
    9.7730  -17.4007   22.4538 C   0  0  0  0  0  0  0  0  0  0  0  0
    8.8406  -16.2688   22.6398 C   0  0  2  0  0  0  0  0  0  0  0  0
    8.9193  -15.5011   21.3705 N   0  0  0  0  0  0  0  0  0  0  0  0
    9.1061  -15.3031   23.7172 C   0  0  0  0  0  0  0  0  0  0  0  0
   10.0563  -14.4616   23.6498 O   0  0  0  0  0  0  0  0  0  0  0  0
    5.5750  -11.9788   25.5702 C   0  0  0  0  0  0  0  0  0  0  0  0
    6.8294  -12.7022   25.2755 C   0  0  0  0  0  0  0  0  0  0  0  0
    7.4903  -13.4919   26.3130 C   0  0  2  0  0  0  0  0  0  0  0  0
    7.7369  -12.5962   27.5335 C   0  0  0  0  0  0  0  0  0  0  0  0
    8.6730  -14.3158   25.9872 C   0  0  2  0  0  0  0  0  0  0  0  0
    8.3330  -15.2421   24.8913 N   0  0  0  0  0  0  0  0  0  0  0  0
    9.3127  -15.1205   26.9999 C   0  0  0  0  0  0  0  0  0  0  0  0
    9.1034  -16.4707   27.1282 O   0  0  0  0  0  0  0  0  0  0  0  0
   10.1205  -14.6188   27.8573 O   0  0  0  0  0  0  0  0  0  0  0  0
  2  1  1  6
  2  3  1  0
  3  4  1  0
  5  2  1  0
  5  6  2  0
  7  8  1  0
  8  9  2  0
  8 10  1  0
 10 11  1  0
 12 11  1  6
 12 13  1  0
 13  5  1  0
 14 12  1  0
 15 14  2  0
 17 16  1  0
 18 17  1  0
 18 20  1  0
 18 19  1  1
 20 22  1  0
 20 21  1  6
 21 14  1  0
 22 23  1  0
 24 22  2  0
M  END
$$$$
