CQI.pdb
     RDKit          3D

 24 23  0  0  1  0  0  0  0  0999 V2000
    8.6311  -14.6051   17.3989 N   0  0  0  0  0  0  0  0  0  0  0  0
    9.2131  -14.2718   18.6576 C   0  0  1  0  0  0  0  0  0  0  0  0
    8.8871  -12.8599   19.0940 C   0  0  0  0  0  0  0  0  0  0  0  0
    7.1914  -12.8686   19.7636 S   0  0  0  0  0  0  0  0  0  0  0  0
    8.6820  -15.1886   19.6942 C   0  0  0  0  0  0  0  0  0  0  0  0
    7.8151  -16.0716   19.4182 O   0  0  0  0  0  0  0  0  0  0  0  0
   10.7609  -19.4378   22.8410 N   0  0  0  0  0  0  0  0  0  0  0  0
   11.4403  -18.5759   21.9493 C   0  0  0  0  0  0  0  0  0  0  0  0
   12.6589  -18.8039   21.7386 O   0  0  0  0  0  0  0  0  0  0  0  0
   10.6908  -17.4732   21.3166 C   0  0  0  0  0  0  0  0  0  0  0  0
    9.2633  -17.3471   21.6733 C   0  0  0  0  0  0  0  0  0  0  0  0
    8.7270  -16.0347   22.0920 C   0  0  2  0  0  0  0  0  0  0  0  0
    9.1292  -15.0990   21.0108 N   0  0  0  0  0  0  0  0  0  0  0  0
    9.2118  -15.4400   23.3471 C   0  0  0  0  0  0  0  0  0  0  0  0
   10.2713  -14.7397   23.3965 O   0  0  0  0  0  0  0  0  0  0  0  0
    6.6946  -11.7165   27.0201 C   0  0  0  0  0  0  0  0  0  0  0  0
    7.7429  -12.7550   26.9402 C   0  0  0  0  0  0  0  0  0  0  0  0
    7.7038  -13.7673   25.8866 C   0  0  2  0  0  0  0  0  0  0  0  0
    6.3465  -14.4803   25.9367 C   0  0  0  0  0  0  0  0  0  0  0  0
    8.8206  -14.7212   25.7230 C   0  0  2  0  0  0  0  0  0  0  0  0
    8.5425  -15.6026   24.5740 N   0  0  0  0  0  0  0  0  0  0  0  0
    9.2095  -15.5937   26.8046 C   0  0  0  0  0  0  0  0  0  0  0  0
    9.0284  -16.9536   26.7737 O   0  0  0  0  0  0  0  0  0  0  0  0
    9.7486  -15.1483   27.8773 O   0  0  0  0  0  0  0  0  0  0  0  0
  2  1  1  6
  2  3  1  0
  3  4  1  0
  5  2  1  0
  5  6  2  0
  7  8  1  0
  8  9  2  0
  8 10  1  0
 10 11  1  0
 12 11  1  6
 12 13  1  0
 13  5  1  0
 14 12  1  0
 15 14  2  0
 17 16  1  0
 18 17  1  0
 18 20  1  0
 18 19  1  1
 20 22  1  0
 20 21  1  6
 21 14  1  0
 22 23  1  0
 24 22  2  0
M  END
$$$$
