CQI.pdb
     RDKit          3D

 24 23  0  0  1  0  0  0  0  0999 V2000
    7.5932  -15.1353   18.0540 N   0  0  0  0  0  0  0  0  0  0  0  0
    8.2222  -14.4169   19.1133 C   0  0  1  0  0  0  0  0  0  0  0  0
    7.6991  -13.0032   19.2488 C   0  0  0  0  0  0  0  0  0  0  0  0
    8.6148  -12.2058   20.6088 S   0  0  0  0  0  0  0  0  0  0  0  0
    7.9547  -15.1119   20.3949 C   0  0  0  0  0  0  0  0  0  0  0  0
    6.7885  -15.4968   20.7104 O   0  0  0  0  0  0  0  0  0  0  0  0
   12.2053  -19.2162   23.1894 N   0  0  0  0  0  0  0  0  0  0  0  0
   10.8092  -19.4402   23.1753 C   0  0  0  0  0  0  0  0  0  0  0  0
   10.4126  -20.6112   22.9455 O   0  0  0  0  0  0  0  0  0  0  0  0
    9.9040  -18.3037   23.4345 C   0  0  0  0  0  0  0  0  0  0  0  0
    9.7421  -17.3192   22.3458 C   0  0  0  0  0  0  0  0  0  0  0  0
    8.8431  -16.1610   22.5345 C   0  0  2  0  0  0  0  0  0  0  0  0
    8.9914  -15.3604   21.2921 N   0  0  0  0  0  0  0  0  0  0  0  0
    9.1042  -15.2367   23.6486 C   0  0  0  0  0  0  0  0  0  0  0  0
   10.0966  -14.4425   23.6476 O   0  0  0  0  0  0  0  0  0  0  0  0
    5.4182  -12.0144   25.5494 C   0  0  0  0  0  0  0  0  0  0  0  0
    6.6974  -12.6849   25.2369 C   0  0  0  0  0  0  0  0  0  0  0  0
    7.3846  -13.4798   26.2531 C   0  0  2  0  0  0  0  0  0  0  0  0
    7.6042  -12.6087   27.4965 C   0  0  0  0  0  0  0  0  0  0  0  0
    8.5926  -14.2567   25.9053 C   0  0  2  0  0  0  0  0  0  0  0  0
    8.2804  -15.1659   24.7871 N   0  0  0  0  0  0  0  0  0  0  0  0
    9.2600  -15.0654   26.8968 C   0  0  0  0  0  0  0  0  0  0  0  0
    9.0763  -16.4209   27.0069 O   0  0  0  0  0  0  0  0  0  0  0  0
   10.0704  -14.5626   27.7512 O   0  0  0  0  0  0  0  0  0  0  0  0
  2  1  1  6
  2  3  1  0
  3  4  1  0
  5  2  1  0
  5  6  2  0
  7  8  1  0
  8  9  2  0
  8 10  1  0
 10 11  1  0
 12 11  1  6
 12 13  1  0
 13  5  1  0
 14 12  1  0
 15 14  2  0
 17 16  1  0
 18 17  1  0
 18 20  1  0
 18 19  1  1
 20 22  1  0
 20 21  1  6
 21 14  1  0
 22 23  1  0
 24 22  2  0
M  END
$$$$
