CQI.pdb
     RDKit          3D

 24 23  0  0  1  0  0  0  0  0999 V2000
    8.1180  -15.3532   17.7856 N   0  0  0  0  0  0  0  0  0  0  0  0
    8.3515  -14.6524   19.0055 C   0  0  1  0  0  0  0  0  0  0  0  0
    7.5954  -13.3434   19.0788 C   0  0  0  0  0  0  0  0  0  0  0  0
    8.7043  -12.0324   18.4661 S   0  0  0  0  0  0  0  0  0  0  0  0
    7.8955  -15.4903   20.1400 C   0  0  0  0  0  0  0  0  0  0  0  0
    7.0421  -16.4145   19.9815 O   0  0  0  0  0  0  0  0  0  0  0  0
    9.3271  -20.1035   21.5573 N   0  0  0  0  0  0  0  0  0  0  0  0
   10.3442  -19.1768   21.8829 C   0  0  0  0  0  0  0  0  0  0  0  0
   11.5304  -19.5943   21.8819 O   0  0  0  0  0  0  0  0  0  0  0  0
    9.9648  -17.7852   22.1958 C   0  0  0  0  0  0  0  0  0  0  0  0
    8.5204  -17.4796   22.2275 C   0  0  0  0  0  0  0  0  0  0  0  0
    8.0678  -16.1219   22.5974 C   0  0  2  0  0  0  0  0  0  0  0  0
    8.4008  -15.2782   21.4210 N   0  0  0  0  0  0  0  0  0  0  0  0
    8.6838  -15.4627   23.7592 C   0  0  0  0  0  0  0  0  0  0  0  0
    9.8610  -14.9851   23.7181 O   0  0  0  0  0  0  0  0  0  0  0  0
    5.7436  -11.8619   26.0932 C   0  0  0  0  0  0  0  0  0  0  0  0
    6.8665  -12.7034   25.6300 C   0  0  0  0  0  0  0  0  0  0  0  0
    7.5952  -13.5504   26.5724 C   0  0  2  0  0  0  0  0  0  0  0  0
    8.1473  -12.6714   27.7017 C   0  0  0  0  0  0  0  0  0  0  0  0
    8.6012  -14.5178   26.0863 C   0  0  2  0  0  0  0  0  0  0  0  0
    8.0192  -15.3147   24.9906 N   0  0  0  0  0  0  0  0  0  0  0  0
    9.2058  -15.4685   26.9878 C   0  0  0  0  0  0  0  0  0  0  0  0
    8.7645  -16.7611   27.1214 O   0  0  0  0  0  0  0  0  0  0  0  0
   10.1998  -15.1610   27.7341 O   0  0  0  0  0  0  0  0  0  0  0  0
  2  1  1  6
  2  3  1  0
  3  4  1  0
  5  2  1  0
  5  6  2  0
  7  8  1  0
  8  9  2  0
  8 10  1  0
 10 11  1  0
 12 11  1  6
 12 13  1  0
 13  5  1  0
 14 12  1  0
 15 14  2  0
 17 16  1  0
 18 17  1  0
 18 20  1  0
 18 19  1  1
 20 22  1  0
 20 21  1  6
 21 14  1  0
 22 23  1  0
 24 22  2  0
M  END
$$$$
