CQI.pdb
     RDKit          3D

 24 23  0  0  1  0  0  0  0  0999 V2000
    7.8703  -15.1189   17.7124 N   0  0  0  0  0  0  0  0  0  0  0  0
    8.3213  -14.4224   18.8724 C   0  0  1  0  0  0  0  0  0  0  0  0
    7.6945  -13.0516   19.0088 C   0  0  0  0  0  0  0  0  0  0  0  0
    8.4023  -12.2685   20.4953 S   0  0  0  0  0  0  0  0  0  0  0  0
    7.9502  -15.2000   20.0786 C   0  0  0  0  0  0  0  0  0  0  0  0
    6.7659  -15.6134   20.2633 O   0  0  0  0  0  0  0  0  0  0  0  0
   11.2393  -19.0823   24.6567 N   0  0  0  0  0  0  0  0  0  0  0  0
   10.7276  -19.2138   23.3451 C   0  0  0  0  0  0  0  0  0  0  0  0
   11.4360  -19.8258   22.5054 O   0  0  0  0  0  0  0  0  0  0  0  0
    9.4035  -18.6391   23.0374 C   0  0  0  0  0  0  0  0  0  0  0  0
    9.3554  -17.6004   21.9889 C   0  0  0  0  0  0  0  0  0  0  0  0
    8.6430  -16.3314   22.2482 C   0  0  2  0  0  0  0  0  0  0  0  0
    8.9062  -15.4973   21.0476 N   0  0  0  0  0  0  0  0  0  0  0  0
    9.0454  -15.5179   23.4059 C   0  0  0  0  0  0  0  0  0  0  0  0
   10.1805  -14.9494   23.4688 O   0  0  0  0  0  0  0  0  0  0  0  0
    5.8475  -11.8512   25.4939 C   0  0  0  0  0  0  0  0  0  0  0  0
    7.0009  -12.6963   25.1208 C   0  0  0  0  0  0  0  0  0  0  0  0
    7.6040  -13.6000   26.0986 C   0  0  2  0  0  0  0  0  0  0  0  0
    8.0046  -12.7902   27.3382 C   0  0  0  0  0  0  0  0  0  0  0  0
    8.6660  -14.5433   25.6908 C   0  0  2  0  0  0  0  0  0  0  0  0
    8.2091  -15.3122   24.5185 N   0  0  0  0  0  0  0  0  0  0  0  0
    9.1863  -15.5152   26.6220 C   0  0  0  0  0  0  0  0  0  0  0  0
    8.5776  -16.7206   26.8666 O   0  0  0  0  0  0  0  0  0  0  0  0
   10.2579  -15.3095   27.2920 O   0  0  0  0  0  0  0  0  0  0  0  0
  2  1  1  6
  2  3  1  0
  3  4  1  0
  5  2  1  0
  5  6  2  0
  7  8  1  0
  8  9  2  0
  8 10  1  0
 10 11  1  0
 12 11  1  6
 12 13  1  0
 13  5  1  0
 14 12  1  0
 15 14  2  0
 17 16  1  0
 18 17  1  0
 18 20  1  0
 18 19  1  1
 20 22  1  0
 20 21  1  6
 21 14  1  0
 22 23  1  0
 24 22  2  0
M  END
$$$$
