CQI.pdb
     RDKit          3D

 24 23  0  0  1  0  0  0  0  0999 V2000
    7.9671  -14.9216   17.6507 N   0  0  0  0  0  0  0  0  0  0  0  0
    8.4344  -14.2405   18.8134 C   0  0  1  0  0  0  0  0  0  0  0  0
    7.8617  -12.8454   18.9403 C   0  0  0  0  0  0  0  0  0  0  0  0
    8.5719  -12.0937   20.4419 S   0  0  0  0  0  0  0  0  0  0  0  0
    8.0208  -14.9993   20.0177 C   0  0  0  0  0  0  0  0  0  0  0  0
    6.8654  -15.5124   20.1145 O   0  0  0  0  0  0  0  0  0  0  0  0
   10.8635  -19.6286   21.3192 N   0  0  0  0  0  0  0  0  0  0  0  0
   10.1540  -19.6177   22.5422 C   0  0  0  0  0  0  0  0  0  0  0  0
   10.2130  -20.6516   23.2556 O   0  0  0  0  0  0  0  0  0  0  0  0
    9.3973  -18.4065   22.9145 C   0  0  0  0  0  0  0  0  0  0  0  0
    9.4081  -17.2907   21.9473 C   0  0  0  0  0  0  0  0  0  0  0  0
    8.6471  -16.0584   22.2433 C   0  0  2  0  0  0  0  0  0  0  0  0
    8.9033  -15.1673   21.0828 N   0  0  0  0  0  0  0  0  0  0  0  0
    8.9994  -15.2797   23.4406 C   0  0  0  0  0  0  0  0  0  0  0  0
   10.1000  -14.6513   23.5368 O   0  0  0  0  0  0  0  0  0  0  0  0
    5.4432  -12.0775   25.8996 C   0  0  0  0  0  0  0  0  0  0  0  0
    6.6664  -12.7506   25.4156 C   0  0  0  0  0  0  0  0  0  0  0  0
    7.3952  -13.6753   26.2820 C   0  0  2  0  0  0  0  0  0  0  0  0
    7.7207  -12.9635   27.6012 C   0  0  0  0  0  0  0  0  0  0  0  0
    8.5548  -14.4305   25.7636 C   0  0  2  0  0  0  0  0  0  0  0  0
    8.1496  -15.1755   24.5573 N   0  0  0  0  0  0  0  0  0  0  0  0
    9.2495  -15.3801   26.5990 C   0  0  0  0  0  0  0  0  0  0  0  0
    8.9056  -16.7065   26.6732 O   0  0  0  0  0  0  0  0  0  0  0  0
   10.2384  -15.0400   27.3380 O   0  0  0  0  0  0  0  0  0  0  0  0
  2  1  1  6
  2  3  1  0
  3  4  1  0
  5  2  1  0
  5  6  2  0
  7  8  1  0
  8  9  2  0
  8 10  1  0
 10 11  1  0
 12 11  1  6
 12 13  1  0
 13  5  1  0
 14 12  1  0
 15 14  2  0
 17 16  1  0
 18 17  1  0
 18 20  1  0
 18 19  1  1
 20 22  1  0
 20 21  1  6
 21 14  1  0
 22 23  1  0
 24 22  2  0
M  END
$$$$
