CQI.pdb
     RDKit          3D

 24 23  0  0  1  0  0  0  0  0999 V2000
    7.6587  -14.2060   17.9332 N   0  0  0  0  0  0  0  0  0  0  0  0
    8.6807  -14.3292   18.9204 C   0  0  1  0  0  0  0  0  0  0  0  0
    9.2832  -12.9950   19.3041 C   0  0  0  0  0  0  0  0  0  0  0  0
    7.9129  -11.8080   19.4983 S   0  0  0  0  0  0  0  0  0  0  0  0
    8.0985  -14.9208   20.1484 C   0  0  0  0  0  0  0  0  0  0  0  0
    6.8491  -14.9075   20.3637 O   0  0  0  0  0  0  0  0  0  0  0  0
    9.8423  -20.2845   21.5305 N   0  0  0  0  0  0  0  0  0  0  0  0
    9.1212  -20.0749   22.7287 C   0  0  0  0  0  0  0  0  0  0  0  0
    8.9318  -21.0709   23.4727 O   0  0  0  0  0  0  0  0  0  0  0  0
    8.6416  -18.7146   23.0414 C   0  0  0  0  0  0  0  0  0  0  0  0
    8.8997  -17.6687   22.0313 C   0  0  0  0  0  0  0  0  0  0  0  0
    8.4212  -16.2900   22.2671 C   0  0  2  0  0  0  0  0  0  0  0  0
    8.9215  -15.5119   21.1049 N   0  0  0  0  0  0  0  0  0  0  0  0
    8.8851  -15.5754   23.4662 C   0  0  0  0  0  0  0  0  0  0  0  0
   10.0729  -15.1356   23.5720 O   0  0  0  0  0  0  0  0  0  0  0  0
    5.7875  -11.8521   25.6262 C   0  0  0  0  0  0  0  0  0  0  0  0
    6.8761  -12.7615   25.2119 C   0  0  0  0  0  0  0  0  0  0  0  0
    7.5340  -13.6239   26.1917 C   0  0  2  0  0  0  0  0  0  0  0  0
    8.0353  -12.7580   27.3543 C   0  0  0  0  0  0  0  0  0  0  0  0
    8.5490  -14.6078   25.7609 C   0  0  2  0  0  0  0  0  0  0  0  0
    8.0535  -15.3294   24.5742 N   0  0  0  0  0  0  0  0  0  0  0  0
    9.0245  -15.6228   26.6699 C   0  0  0  0  0  0  0  0  0  0  0  0
   10.1215  -15.4530   27.4766 O   0  0  0  0  0  0  0  0  0  0  0  0
    8.4501  -16.7621   26.7778 O   0  0  0  0  0  0  0  0  0  0  0  0
  2  1  1  6
  2  3  1  0
  3  4  1  0
  5  2  1  0
  5  6  2  0
  7  8  1  0
  8  9  2  0
  8 10  1  0
 10 11  1  0
 12 11  1  6
 12 13  1  0
 13  5  1  0
 14 12  1  0
 15 14  2  0
 17 16  1  0
 18 17  1  0
 18 20  1  0
 18 19  1  1
 20 22  1  0
 20 21  1  6
 21 14  1  0
 22 23  1  0
 24 22  2  0
M  END
$$$$
