PQL.pdb
     RDKit          3D

 25 25  0  0  1  0  0  0  0  0999 V2000
    8.9303  -14.5062   18.8888 N   0  0  0  0  0  0  0  0  0  0  0  0
    8.6684  -13.6394   17.7488 C   0  0  0  0  0  0  0  0  0  0  0  0
    7.3040  -13.0721   18.1319 C   0  0  0  0  0  0  0  0  0  0  0  0
    7.5716  -12.6888   19.5923 C   0  0  0  0  0  0  0  0  0  0  0  0
    8.7040  -13.6130   20.0044 C   0  0  1  0  0  0  0  0  0  0  0  0
    8.3751  -14.3405   21.2487 C   0  0  0  0  0  0  0  0  0  0  0  0
    7.8278  -13.7044   22.1748 O   0  0  0  0  0  0  0  0  0  0  0  0
    8.7900  -20.6946   21.8875 N   0  0  0  0  0  0  0  0  0  0  0  0
    8.4932  -19.8456   20.7944 C   0  0  0  0  0  0  0  0  0  0  0  0
    8.3932  -20.3986   19.6445 O   0  0  0  0  0  0  0  0  0  0  0  0
    8.2905  -18.3916   20.9021 C   0  0  0  0  0  0  0  0  0  0  0  0
    8.4390  -17.8921   22.2693 C   0  0  0  0  0  0  0  0  0  0  0  0
    8.2382  -16.4858   22.6100 C   0  0  2  0  0  0  0  0  0  0  0  0
    8.6560  -15.7111   21.4206 N   0  0  0  0  0  0  0  0  0  0  0  0
    8.7941  -15.8765   23.7852 C   0  0  0  0  0  0  0  0  0  0  0  0
    9.9696  -15.4393   23.9204 O   0  0  0  0  0  0  0  0  0  0  0  0
    7.9888  -12.1779   26.0693 C   0  0  0  0  0  0  0  0  0  0  0  0
    6.8596  -13.2212   26.0590 C   0  0  2  0  0  0  0  0  0  0  0  0
    5.6344  -12.5929   26.6850 C   0  0  0  0  0  0  0  0  0  0  0  0
    7.3806  -14.3838   26.8596 C   0  0  0  0  0  0  0  0  0  0  0  0
    8.4996  -15.1421   26.1874 C   0  0  2  0  0  0  0  0  0  0  0  0
    7.9810  -15.7247   24.9448 N   0  0  0  0  0  0  0  0  0  0  0  0
    9.0911  -16.2043   26.9948 C   0  0  0  0  0  0  0  0  0  0  0  0
    8.8016  -17.4030   26.7696 O   0  0  0  0  0  0  0  0  0  0  0  0
    9.9771  -15.9276   28.0179 O   0  0  0  0  0  0  0  0  0  0  0  0
  2  1  1  0
  3  2  1  0
  4  5  1  0
  4  3  1  0
  5  6  1  1
  5  1  1  0
  6  7  2  0
  9  8  1  0
  9 11  1  0
 10  9  2  0
 12 11  1  0
 13 12  1  6
 14 13  1  0
 14  6  1  0
 15 16  2  0
 15 13  1  0
 18 17  1  1
 18 19  1  0
 18 20  1  0
 21 20  1  1
 21 22  1  0
 21 23  1  0
 22 15  1  0
 23 25  1  0
 24 23  2  0
M  END
$$$$
