PQL.pdb
     RDKit          3D

 25 25  0  0  1  0  0  0  0  0999 V2000
    9.2400  -14.5810   18.2600 N   0  0  0  0  0  0  0  0  0  0  0  0
    8.8958  -13.8252   17.0643 C   0  0  0  0  0  0  0  0  0  0  0  0
    7.4262  -13.5160   17.3378 C   0  0  0  0  0  0  0  0  0  0  0  0
    7.5180  -13.0326   18.7901 C   0  0  0  0  0  0  0  0  0  0  0  0
    8.7745  -13.7056   19.3139 C   0  0  1  0  0  0  0  0  0  0  0  0
    8.5065  -14.4342   20.5721 C   0  0  0  0  0  0  0  0  0  0  0  0
    7.8201  -13.8643   21.4471 O   0  0  0  0  0  0  0  0  0  0  0  0
   10.5412  -20.3783   21.6825 N   0  0  0  0  0  0  0  0  0  0  0  0
    9.7543  -19.8937   20.6103 C   0  0  0  0  0  0  0  0  0  0  0  0
    9.6440  -20.6530   19.5858 O   0  0  0  0  0  0  0  0  0  0  0  0
    9.0631  -18.5940   20.6072 C   0  0  0  0  0  0  0  0  0  0  0  0
    9.2724  -17.8309   21.8380 C   0  0  0  0  0  0  0  0  0  0  0  0
    8.6938  -16.5047   22.0391 C   0  0  2  0  0  0  0  0  0  0  0  0
    8.9948  -15.7346   20.8120 N   0  0  0  0  0  0  0  0  0  0  0  0
    8.9802  -15.6898   23.1859 C   0  0  0  0  0  0  0  0  0  0  0  0
   10.0503  -15.0616   23.4129 O   0  0  0  0  0  0  0  0  0  0  0  0
    6.0220  -13.0522   27.3190 C   0  0  0  0  0  0  0  0  0  0  0  0
    7.1908  -12.5914   26.4329 C   0  0  2  0  0  0  0  0  0  0  0  0
    6.9410  -11.1531   26.0370 C   0  0  0  0  0  0  0  0  0  0  0  0
    7.1876  -13.5208   25.2496 C   0  0  0  0  0  0  0  0  0  0  0  0
    8.1865  -14.6483   25.3497 C   0  0  2  0  0  0  0  0  0  0  0  0
    7.9924  -15.5402   24.2011 N   0  0  0  0  0  0  0  0  0  0  0  0
    8.1019  -15.4344   26.5764 C   0  0  0  0  0  0  0  0  0  0  0  0
    7.3823  -16.4600   26.6196 O   0  0  0  0  0  0  0  0  0  0  0  0
    8.8024  -15.0800   27.7130 O   0  0  0  0  0  0  0  0  0  0  0  0
  2  1  1  0
  3  2  1  0
  4  5  1  0
  4  3  1  0
  5  6  1  1
  5  1  1  0
  6  7  2  0
  9  8  1  0
  9 11  1  0
 10  9  2  0
 12 11  1  0
 13 12  1  1
 14 13  1  0
 14  6  1  0
 15 16  2  0
 15 13  1  0
 18 17  1  1
 18 19  1  0
 18 20  1  0
 21 20  1  1
 21 22  1  0
 21 23  1  0
 22 15  1  0
 23 25  1  0
 24 23  2  0
M  END
$$$$
