PQL.pdb
     RDKit          3D

 25 25  0  0  1  0  0  0  0  0999 V2000
    8.3961  -17.0395   19.5228 N   0  0  0  0  0  0  0  0  0  0  0  0
    8.2118  -16.8171   18.0959 C   0  0  0  0  0  0  0  0  0  0  0  0
    6.8402  -16.1471   18.0885 C   0  0  0  0  0  0  0  0  0  0  0  0
    7.0373  -15.1166   19.2068 C   0  0  0  0  0  0  0  0  0  0  0  0
    8.1282  -15.7268   20.0693 C   0  0  1  0  0  0  0  0  0  0  0  0
    7.7197  -15.7820   21.4891 C   0  0  0  0  0  0  0  0  0  0  0  0
    7.3809  -14.7156   22.0455 O   0  0  0  0  0  0  0  0  0  0  0  0
    6.9956  -21.3447   24.2098 N   0  0  0  0  0  0  0  0  0  0  0  0
    6.7202  -20.4860   25.3009 C   0  0  0  0  0  0  0  0  0  0  0  0
    6.4621  -21.0437   26.4237 O   0  0  0  0  0  0  0  0  0  0  0  0
    6.7194  -19.0161   25.2226 C   0  0  0  0  0  0  0  0  0  0  0  0
    7.0647  -18.5131   23.8927 C   0  0  0  0  0  0  0  0  0  0  0  0
    7.1860  -17.0853   23.6082 C   0  0  2  0  0  0  0  0  0  0  0  0
    7.7010  -16.9843   22.2247 N   0  0  0  0  0  0  0  0  0  0  0  0
    7.9158  -16.1776   24.4476 C   0  0  0  0  0  0  0  0  0  0  0  0
    9.1586  -15.9626   24.4196 O   0  0  0  0  0  0  0  0  0  0  0  0
    5.8957  -11.2694   27.4955 C   0  0  0  0  0  0  0  0  0  0  0  0
    7.1767  -12.0428   27.1425 C   0  0  2  0  0  0  0  0  0  0  0  0
    8.0524  -11.1413   26.3008 C   0  0  0  0  0  0  0  0  0  0  0  0
    6.7151  -13.2605   26.3888 C   0  0  0  0  0  0  0  0  0  0  0  0
    7.8160  -14.2450   26.0759 C   0  0  2  0  0  0  0  0  0  0  0  0
    7.2168  -15.4171   25.4282 N   0  0  0  0  0  0  0  0  0  0  0  0
    8.5877  -14.6887   27.2324 C   0  0  0  0  0  0  0  0  0  0  0  0
    9.5370  -13.9917   27.6620 O   0  0  0  0  0  0  0  0  0  0  0  0
    8.3010  -15.8734   27.8826 O   0  0  0  0  0  0  0  0  0  0  0  0
  2  1  1  0
  3  2  1  0
  4  5  1  0
  4  3  1  0
  5  6  1  1
  5  1  1  0
  6  7  2  0
  9  8  1  0
  9 11  1  0
 10  9  2  0
 12 11  1  0
 13 12  1  1
 14 13  1  0
 14  6  1  0
 15 16  2  0
 15 13  1  0
 18 17  1  6
 18 19  1  0
 18 20  1  0
 21 20  1  1
 21 22  1  0
 21 23  1  0
 22 15  1  0
 23 25  1  0
 24 23  2  0
M  END
$$$$
