PQL.pdb
     RDKit          3D

 25 25  0  0  1  0  0  0  0  0999 V2000
    7.6326  -14.7454   18.8151 N   0  0  0  0  0  0  0  0  0  0  0  0
    7.7167  -13.5793   17.9475 C   0  0  0  0  0  0  0  0  0  0  0  0
    7.4988  -12.4571   18.9592 C   0  0  0  0  0  0  0  0  0  0  0  0
    8.4585  -12.9040   20.0685 C   0  0  0  0  0  0  0  0  0  0  0  0
    8.5655  -14.4055   19.8676 C   0  0  1  0  0  0  0  0  0  0  0  0
    8.2862  -15.1346   21.1230 C   0  0  0  0  0  0  0  0  0  0  0  0
    7.0941  -15.2658   21.4743 O   0  0  0  0  0  0  0  0  0  0  0  0
   10.9316  -20.1932   22.5945 N   0  0  0  0  0  0  0  0  0  0  0  0
   10.3464  -19.9122   23.8524 C   0  0  0  0  0  0  0  0  0  0  0  0
   10.4482  -20.8173   24.7516 O   0  0  0  0  0  0  0  0  0  0  0  0
    9.6458  -18.6604   24.1825 C   0  0  0  0  0  0  0  0  0  0  0  0
    9.6318  -17.7029   23.0763 C   0  0  0  0  0  0  0  0  0  0  0  0
    9.0580  -16.3662   23.2115 C   0  0  2  0  0  0  0  0  0  0  0  0
    9.3093  -15.6791   21.9253 N   0  0  0  0  0  0  0  0  0  0  0  0
    9.3864  -15.4771   24.2899 C   0  0  0  0  0  0  0  0  0  0  0  0
   10.4582  -14.8262   24.4271 O   0  0  0  0  0  0  0  0  0  0  0  0
    8.3561  -11.5933   25.7238 C   0  0  0  0  0  0  0  0  0  0  0  0
    7.1949  -12.6007   25.7415 C   0  0  2  0  0  0  0  0  0  0  0  0
    5.9210  -11.8432   26.0436 C   0  0  0  0  0  0  0  0  0  0  0  0
    7.5412  -13.5929   26.8183 C   0  0  0  0  0  0  0  0  0  0  0  0
    8.7506  -14.4414   26.5078 C   0  0  2  0  0  0  0  0  0  0  0  0
    8.4439  -15.2717   25.3378 N   0  0  0  0  0  0  0  0  0  0  0  0
    9.1877  -15.3071   27.5985 C   0  0  0  0  0  0  0  0  0  0  0  0
    8.9346  -16.5345   27.5693 O   0  0  0  0  0  0  0  0  0  0  0  0
    9.8853  -14.8099   28.6822 O   0  0  0  0  0  0  0  0  0  0  0  0
  2  1  1  0
  3  2  1  0
  4  5  1  0
  4  3  1  0
  5  6  1  1
  5  1  1  0
  6  7  2  0
  9  8  1  0
  9 11  1  0
 10  9  2  0
 12 11  1  0
 13 12  1  6
 14 13  1  0
 14  6  1  0
 15 16  2  0
 15 13  1  0
 18 17  1  1
 18 19  1  0
 18 20  1  0
 21 20  1  1
 21 22  1  0
 21 23  1  0
 22 15  1  0
 23 25  1  0
 24 23  2  0
M  END
$$$$
