PQL.pdb
     RDKit          3D

 25 25  0  0  1  0  0  0  0  0999 V2000
    8.8542  -15.3091   18.7403 N   0  0  0  0  0  0  0  0  0  0  0  0
    8.8757  -14.6459   17.4446 C   0  0  0  0  0  0  0  0  0  0  0  0
    7.5157  -13.9528   17.4584 C   0  0  0  0  0  0  0  0  0  0  0  0
    7.5441  -13.3309   18.8597 C   0  0  0  0  0  0  0  0  0  0  0  0
    8.5031  -14.2226   19.6289 C   0  0  1  0  0  0  0  0  0  0  0  0
    7.8950  -14.7012   20.8887 C   0  0  0  0  0  0  0  0  0  0  0  0
    7.2925  -13.8717   21.6033 O   0  0  0  0  0  0  0  0  0  0  0  0
    5.9428  -20.2792   22.2552 N   0  0  0  0  0  0  0  0  0  0  0  0
    6.4346  -19.9135   23.5312 C   0  0  0  0  0  0  0  0  0  0  0  0
    6.0319  -20.6101   24.5265 O   0  0  0  0  0  0  0  0  0  0  0  0
    7.3697  -18.8030   23.7749 C   0  0  0  0  0  0  0  0  0  0  0  0
    7.6016  -17.9785   22.5887 C   0  0  0  0  0  0  0  0  0  0  0  0
    7.4980  -16.5217   22.6214 C   0  0  2  0  0  0  0  0  0  0  0  0
    7.9728  -16.0463   21.3030 N   0  0  0  0  0  0  0  0  0  0  0  0
    8.0907  -15.7162   23.6515 C   0  0  0  0  0  0  0  0  0  0  0  0
    9.2983  -15.3589   23.7244 O   0  0  0  0  0  0  0  0  0  0  0  0
    5.6338  -11.6550   27.4670 C   0  0  0  0  0  0  0  0  0  0  0  0
    6.9665  -12.3437   27.1304 C   0  0  2  0  0  0  0  0  0  0  0  0
    7.9501  -11.2780   26.7008 C   0  0  0  0  0  0  0  0  0  0  0  0
    6.6493  -13.3116   26.0229 C   0  0  0  0  0  0  0  0  0  0  0  0
    7.7726  -14.2669   25.6996 C   0  0  2  0  0  0  0  0  0  0  0  0
    7.2799  -15.2453   24.7237 N   0  0  0  0  0  0  0  0  0  0  0  0
    8.3186  -14.9816   26.8490 C   0  0  0  0  0  0  0  0  0  0  0  0
    9.0295  -14.3784   27.6869 O   0  0  0  0  0  0  0  0  0  0  0  0
    8.0727  -16.3262   27.0488 O   0  0  0  0  0  0  0  0  0  0  0  0
  2  1  1  0
  3  2  1  0
  4  5  1  0
  4  3  1  0
  5  6  1  1
  5  1  1  0
  6  7  2  0
  9  8  1  0
  9 11  1  0
 10  9  2  0
 12 11  1  0
 13 12  1  1
 14 13  1  0
 14  6  1  0
 15 16  2  0
 15 13  1  0
 18 17  1  6
 18 19  1  0
 18 20  1  0
 21 20  1  1
 21 22  1  0
 21 23  1  0
 22 15  1  0
 23 25  1  0
 24 23  2  0
M  END
$$$$
