PQL.pdb
     RDKit          3D

 25 25  0  0  1  0  0  0  0  0999 V2000
    7.7498  -14.6504   18.5387 N   0  0  0  0  0  0  0  0  0  0  0  0
    7.8455  -13.4788   17.6799 C   0  0  0  0  0  0  0  0  0  0  0  0
    7.6115  -12.3633   18.6953 C   0  0  0  0  0  0  0  0  0  0  0  0
    8.5552  -12.8162   19.8159 C   0  0  0  0  0  0  0  0  0  0  0  0
    8.6667  -14.3163   19.6070 C   0  0  1  0  0  0  0  0  0  0  0  0
    8.3696  -15.0537   20.8536 C   0  0  0  0  0  0  0  0  0  0  0  0
    7.1726  -15.1886   21.1861 O   0  0  0  0  0  0  0  0  0  0  0  0
   10.8920  -20.1980   21.8863 N   0  0  0  0  0  0  0  0  0  0  0  0
   10.2682  -20.0446   23.1476 C   0  0  0  0  0  0  0  0  0  0  0  0
   10.2501  -21.0715   23.9115 O   0  0  0  0  0  0  0  0  0  0  0  0
    9.6557  -18.7944   23.6257 C   0  0  0  0  0  0  0  0  0  0  0  0
    9.7407  -17.7058   22.6518 C   0  0  0  0  0  0  0  0  0  0  0  0
    9.1064  -16.4091   22.8769 C   0  0  2  0  0  0  0  0  0  0  0  0
    9.3814  -15.6018   21.6677 N   0  0  0  0  0  0  0  0  0  0  0  0
    9.3529  -15.6072   24.0420 C   0  0  0  0  0  0  0  0  0  0  0  0
   10.3380  -14.8428   24.2333 O   0  0  0  0  0  0  0  0  0  0  0  0
    8.0454  -11.9894   26.0958 C   0  0  0  0  0  0  0  0  0  0  0  0
    6.9837  -13.0762   25.8607 C   0  0  2  0  0  0  0  0  0  0  0  0
    5.6320  -12.4959   26.2130 C   0  0  0  0  0  0  0  0  0  0  0  0
    7.3709  -14.2168   26.7624 C   0  0  0  0  0  0  0  0  0  0  0  0
    8.6566  -14.9033   26.3692 C   0  0  2  0  0  0  0  0  0  0  0  0
    8.4242  -15.6391   25.1214 N   0  0  0  0  0  0  0  0  0  0  0  0
    9.1887  -15.8253   27.3677 C   0  0  0  0  0  0  0  0  0  0  0  0
    8.9615  -17.0546   27.2753 O   0  0  0  0  0  0  0  0  0  0  0  0
    9.9499  -15.3801   28.4311 O   0  0  0  0  0  0  0  0  0  0  0  0
  2  1  1  0
  3  2  1  0
  4  5  1  0
  4  3  1  0
  5  6  1  1
  5  1  1  0
  6  7  2  0
  9  8  1  0
  9 11  1  0
 10  9  2  0
 12 11  1  0
 13 12  1  1
 14 13  1  0
 14  6  1  0
 15 16  2  0
 15 13  1  0
 18 17  1  1
 18 19  1  0
 18 20  1  0
 21 20  1  1
 21 22  1  0
 21 23  1  0
 22 15  1  0
 23 25  1  0
 24 23  2  0
M  END
$$$$
