PQL.pdb
     RDKit          3D

 25 25  0  0  1  0  0  0  0  0999 V2000
    8.7232  -15.4781   18.8847 N   0  0  0  0  0  0  0  0  0  0  0  0
    8.6559  -14.9263   17.5392 C   0  0  0  0  0  0  0  0  0  0  0  0
    7.3385  -14.1588   17.6133 C   0  0  0  0  0  0  0  0  0  0  0  0
    7.5278  -13.4260   18.9469 C   0  0  0  0  0  0  0  0  0  0  0  0
    8.5099  -14.3038   19.7027 C   0  0  1  0  0  0  0  0  0  0  0  0
    7.9995  -14.6417   21.0485 C   0  0  0  0  0  0  0  0  0  0  0  0
    7.7005  -13.7028   21.8170 O   0  0  0  0  0  0  0  0  0  0  0  0
    6.9014  -20.6227   22.4398 N   0  0  0  0  0  0  0  0  0  0  0  0
    6.4377  -19.9928   23.6196 C   0  0  0  0  0  0  0  0  0  0  0  0
    5.9904  -20.7565   24.5442 O   0  0  0  0  0  0  0  0  0  0  0  0
    6.4454  -18.5379   23.8434 C   0  0  0  0  0  0  0  0  0  0  0  0
    6.9842  -17.7867   22.7093 C   0  0  0  0  0  0  0  0  0  0  0  0
    7.1796  -16.3397   22.7569 C   0  0  2  0  0  0  0  0  0  0  0  0
    7.8419  -15.9725   21.4857 N   0  0  0  0  0  0  0  0  0  0  0  0
    7.8440  -15.6733   23.8412 C   0  0  0  0  0  0  0  0  0  0  0  0
    9.0897  -15.5946   24.0244 O   0  0  0  0  0  0  0  0  0  0  0  0
    5.9414  -10.9711   27.2014 C   0  0  0  0  0  0  0  0  0  0  0  0
    7.1407  -11.9124   27.0029 C   0  0  2  0  0  0  0  0  0  0  0  0
    8.3055  -11.0889   26.5000 C   0  0  0  0  0  0  0  0  0  0  0  0
    6.6853  -12.9355   25.9979 C   0  0  0  0  0  0  0  0  0  0  0  0
    7.6610  -14.0680   25.7869 C   0  0  2  0  0  0  0  0  0  0  0  0
    7.0677  -15.0181   24.8395 N   0  0  0  0  0  0  0  0  0  0  0  0
    8.0379  -14.7858   27.0005 C   0  0  0  0  0  0  0  0  0  0  0  0
    7.4323  -15.8338   27.3268 O   0  0  0  0  0  0  0  0  0  0  0  0
    9.0598  -14.3412   27.8167 O   0  0  0  0  0  0  0  0  0  0  0  0
  2  1  1  0
  3  2  1  0
  4  5  1  0
  4  3  1  0
  5  6  1  1
  5  1  1  0
  6  7  2  0
  9  8  1  0
  9 11  1  0
 10  9  2  0
 12 11  1  0
 13 12  1  1
 14 13  1  0
 14  6  1  0
 15 16  2  0
 15 13  1  0
 18 17  1  6
 18 19  1  0
 18 20  1  0
 21 20  1  1
 21 22  1  0
 21 23  1  0
 22 15  1  0
 23 25  1  0
 24 23  2  0
M  END
$$$$
