PQL.pdb
     RDKit          3D

 25 25  0  0  1  0  0  0  0  0999 V2000
    9.0482  -14.5224   18.9482 N   0  0  0  0  0  0  0  0  0  0  0  0
    8.7122  -13.7579   17.7557 C   0  0  0  0  0  0  0  0  0  0  0  0
    7.2894  -13.3189   18.0920 C   0  0  0  0  0  0  0  0  0  0  0  0
    7.4926  -12.8233   19.5288 C   0  0  0  0  0  0  0  0  0  0  0  0
    8.7110  -13.5943   20.0057 C   0  0  1  0  0  0  0  0  0  0  0  0
    8.4430  -14.2779   21.2890 C   0  0  0  0  0  0  0  0  0  0  0  0
    7.8686  -13.6314   22.1911 O   0  0  0  0  0  0  0  0  0  0  0  0
    9.7949  -20.3408   23.0280 N   0  0  0  0  0  0  0  0  0  0  0  0
   10.3451  -19.5293   22.0070 C   0  0  0  0  0  0  0  0  0  0  0  0
   11.3494  -20.0036   21.3708 O   0  0  0  0  0  0  0  0  0  0  0  0
    9.8353  -18.1989   21.6369 C   0  0  0  0  0  0  0  0  0  0  0  0
    8.6972  -17.7743   22.4526 C   0  0  0  0  0  0  0  0  0  0  0  0
    8.4282  -16.3675   22.7406 C   0  0  2  0  0  0  0  0  0  0  0  0
    8.8105  -15.6184   21.5231 N   0  0  0  0  0  0  0  0  0  0  0  0
    8.9517  -15.6888   23.8924 C   0  0  0  0  0  0  0  0  0  0  0  0
   10.0590  -15.0897   23.9727 O   0  0  0  0  0  0  0  0  0  0  0  0
    8.0339  -12.0317   26.1160 C   0  0  0  0  0  0  0  0  0  0  0  0
    6.9680  -13.1393   26.0848 C   0  0  2  0  0  0  0  0  0  0  0  0
    5.6823  -12.5691   26.6413 C   0  0  0  0  0  0  0  0  0  0  0  0
    7.5190  -14.2502   26.9371 C   0  0  0  0  0  0  0  0  0  0  0  0
    8.6719  -14.9947   26.3082 C   0  0  2  0  0  0  0  0  0  0  0  0
    8.1857  -15.6570   25.0928 N   0  0  0  0  0  0  0  0  0  0  0  0
    9.2995  -15.9920   27.1693 C   0  0  0  0  0  0  0  0  0  0  0  0
    9.1959  -17.2120   26.9005 O   0  0  0  0  0  0  0  0  0  0  0  0
   10.0187  -15.6295   28.2917 O   0  0  0  0  0  0  0  0  0  0  0  0
  2  1  1  0
  3  2  1  0
  4  5  1  0
  4  3  1  0
  5  6  1  1
  5  1  1  0
  6  7  2  0
  9  8  1  0
  9 11  1  0
 10  9  2  0
 12 11  1  0
 13 12  1  6
 14 13  1  0
 14  6  1  0
 15 16  2  0
 15 13  1  0
 18 17  1  1
 18 19  1  0
 18 20  1  0
 21 20  1  1
 21 22  1  0
 21 23  1  0
 22 15  1  0
 23 25  1  0
 24 23  2  0
M  END
$$$$
