PQL.pdb
     RDKit          3D

 25 25  0  0  1  0  0  0  0  0999 V2000
    8.9607  -14.7547   18.3963 N   0  0  0  0  0  0  0  0  0  0  0  0
    8.9359  -13.9726   17.1686 C   0  0  0  0  0  0  0  0  0  0  0  0
    7.5844  -13.2759   17.3037 C   0  0  0  0  0  0  0  0  0  0  0  0
    7.6760  -12.7887   18.7548 C   0  0  0  0  0  0  0  0  0  0  0  0
    8.6567  -13.7544   19.3966 C   0  0  1  0  0  0  0  0  0  0  0  0
    8.0958  -14.3457   20.6301 C   0  0  0  0  0  0  0  0  0  0  0  0
    7.6840  -13.5704   21.5195 O   0  0  0  0  0  0  0  0  0  0  0  0
    7.0727  -20.5688   21.2110 N   0  0  0  0  0  0  0  0  0  0  0  0
    6.5202  -19.6473   20.2895 C   0  0  0  0  0  0  0  0  0  0  0  0
    5.9995  -20.1352   19.2269 O   0  0  0  0  0  0  0  0  0  0  0  0
    6.5042  -18.1879   20.4812 C   0  0  0  0  0  0  0  0  0  0  0  0
    7.1928  -17.7627   21.7001 C   0  0  0  0  0  0  0  0  0  0  0  0
    7.3961  -16.3535   22.0277 C   0  0  2  0  0  0  0  0  0  0  0  0
    8.0124  -15.7384   20.8313 N   0  0  0  0  0  0  0  0  0  0  0  0
    8.1032  -15.9144   23.1975 C   0  0  0  0  0  0  0  0  0  0  0  0
    9.3471  -15.7302   23.2986 O   0  0  0  0  0  0  0  0  0  0  0  0
    6.2214  -11.8480   27.1104 C   0  0  0  0  0  0  0  0  0  0  0  0
    7.4200  -12.7790   26.8646 C   0  0  2  0  0  0  0  0  0  0  0  0
    8.6242  -11.9201   26.5485 C   0  0  0  0  0  0  0  0  0  0  0  0
    7.0186  -13.6524   25.7070 C   0  0  0  0  0  0  0  0  0  0  0  0
    7.9370  -14.8279   25.4752 C   0  0  2  0  0  0  0  0  0  0  0  0
    7.3771  -15.6447   24.3927 N   0  0  0  0  0  0  0  0  0  0  0  0
    8.1521  -15.6765   26.6429 C   0  0  0  0  0  0  0  0  0  0  0  0
    7.3832  -16.6396   26.8726 O   0  0  0  0  0  0  0  0  0  0  0  0
    9.1952  -15.4503   27.5199 O   0  0  0  0  0  0  0  0  0  0  0  0
  2  1  1  0
  3  2  1  0
  4  5  1  0
  4  3  1  0
  5  6  1  1
  5  1  1  0
  6  7  2  0
  9  8  1  0
  9 11  1  0
 10  9  2  0
 12 11  1  0
 13 12  1  6
 14 13  1  0
 14  6  1  0
 15 16  2  0
 15 13  1  0
 18 17  1  6
 18 19  1  0
 18 20  1  0
 21 20  1  1
 21 22  1  0
 21 23  1  0
 22 15  1  0
 23 25  1  0
 24 23  2  0
M  END
$$$$
