PQL.pdb
     RDKit          3D

 25 25  0  0  1  0  0  0  0  0999 V2000
    8.5415  -15.4722   19.3619 N   0  0  0  0  0  0  0  0  0  0  0  0
    8.5264  -14.8908   18.0273 C   0  0  0  0  0  0  0  0  0  0  0  0
    7.3358  -13.9427   18.1447 C   0  0  0  0  0  0  0  0  0  0  0  0
    7.6573  -13.2706   19.4849 C   0  0  0  0  0  0  0  0  0  0  0  0
    8.5177  -14.2953   20.2032 C   0  0  1  0  0  0  0  0  0  0  0  0
    7.9924  -14.5816   21.5552 C   0  0  0  0  0  0  0  0  0  0  0  0
    7.8034  -13.6187   22.3290 O   0  0  0  0  0  0  0  0  0  0  0  0
    6.5885  -20.4532   23.1409 N   0  0  0  0  0  0  0  0  0  0  0  0
    6.3819  -19.7939   24.3764 C   0  0  0  0  0  0  0  0  0  0  0  0
    6.0507  -20.5256   25.3729 O   0  0  0  0  0  0  0  0  0  0  0  0
    6.5290  -18.3434   24.5796 C   0  0  0  0  0  0  0  0  0  0  0  0
    6.9135  -17.6303   23.3613 C   0  0  0  0  0  0  0  0  0  0  0  0
    7.2519  -16.2091   23.3654 C   0  0  2  0  0  0  0  0  0  0  0  0
    7.7019  -15.8898   21.9925 N   0  0  0  0  0  0  0  0  0  0  0  0
    8.1644  -15.6230   24.3061 C   0  0  0  0  0  0  0  0  0  0  0  0
    9.4183  -15.5475   24.1895 O   0  0  0  0  0  0  0  0  0  0  0  0
    7.5183  -11.6011   25.5167 C   0  0  0  0  0  0  0  0  0  0  0  0
    6.6904  -12.6055   26.3350 C   0  0  2  0  0  0  0  0  0  0  0  0
    5.6781  -11.8283   27.1467 C   0  0  0  0  0  0  0  0  0  0  0  0
    7.6835  -13.3325   27.2007 C   0  0  0  0  0  0  0  0  0  0  0  0
    8.5227  -14.3443   26.4585 C   0  0  2  0  0  0  0  0  0  0  0  0
    7.6579  -15.0544   25.5098 N   0  0  0  0  0  0  0  0  0  0  0  0
    9.1947  -15.3232   27.3072 C   0  0  0  0  0  0  0  0  0  0  0  0
   10.0461  -14.9496   28.1481 O   0  0  0  0  0  0  0  0  0  0  0  0
    8.9179  -16.6733   27.2139 O   0  0  0  0  0  0  0  0  0  0  0  0
  2  1  1  0
  3  2  1  0
  4  5  1  0
  4  3  1  0
  5  6  1  1
  5  1  1  0
  6  7  2  0
  9  8  1  0
  9 11  1  0
 10  9  2  0
 12 11  1  0
 13 12  1  6
 14 13  1  0
 14  6  1  0
 15 16  2  0
 15 13  1  0
 18 17  1  6
 18 19  1  0
 18 20  1  0
 21 20  1  1
 21 22  1  0
 21 23  1  0
 22 15  1  0
 23 25  1  0
 24 23  2  0
M  END
$$$$
