PQL.pdb
     RDKit          3D

 25 25  0  0  1  0  0  0  0  0999 V2000
    8.9698  -14.6976   18.2799 N   0  0  0  0  0  0  0  0  0  0  0  0
    8.6965  -13.9118   17.0852 C   0  0  0  0  0  0  0  0  0  0  0  0
    7.3414  -13.3089   17.4464 C   0  0  0  0  0  0  0  0  0  0  0  0
    7.6328  -12.8252   18.8720 C   0  0  0  0  0  0  0  0  0  0  0  0
    8.7654  -13.7261   19.3325 C   0  0  1  0  0  0  0  0  0  0  0  0
    8.4502  -14.3613   20.6298 C   0  0  0  0  0  0  0  0  0  0  0  0
    8.1352  -13.6210   21.5860 O   0  0  0  0  0  0  0  0  0  0  0  0
    8.5869  -20.5800   22.5112 N   0  0  0  0  0  0  0  0  0  0  0  0
    9.5315  -19.8578   21.7432 C   0  0  0  0  0  0  0  0  0  0  0  0
   10.6022  -20.4769   21.4139 O   0  0  0  0  0  0  0  0  0  0  0  0
    9.3548  -18.4640   21.3040 C   0  0  0  0  0  0  0  0  0  0  0  0
    8.1083  -17.8660   21.7831 C   0  0  0  0  0  0  0  0  0  0  0  0
    7.9780  -16.4322   22.0306 C   0  0  2  0  0  0  0  0  0  0  0  0
    8.4935  -15.7575   20.8188 N   0  0  0  0  0  0  0  0  0  0  0  0
    8.5174  -15.7848   23.1930 C   0  0  0  0  0  0  0  0  0  0  0  0
    9.6921  -15.3462   23.3316 O   0  0  0  0  0  0  0  0  0  0  0  0
    5.7543  -11.9818   26.8601 C   0  0  0  0  0  0  0  0  0  0  0  0
    7.1080  -12.6920   26.6966 C   0  0  2  0  0  0  0  0  0  0  0  0
    8.1541  -11.6435   26.3898 C   0  0  0  0  0  0  0  0  0  0  0  0
    6.9176  -13.6617   25.5619 C   0  0  0  0  0  0  0  0  0  0  0  0
    8.0433  -14.6553   25.4057 C   0  0  2  0  0  0  0  0  0  0  0  0
    7.6870  -15.5918   24.3340 N   0  0  0  0  0  0  0  0  0  0  0  0
    8.3601  -15.4161   26.6102 C   0  0  0  0  0  0  0  0  0  0  0  0
    7.8111  -16.5236   26.8190 O   0  0  0  0  0  0  0  0  0  0  0  0
    9.2628  -14.9482   27.5453 O   0  0  0  0  0  0  0  0  0  0  0  0
  2  1  1  0
  3  2  1  0
  4  5  1  0
  4  3  1  0
  5  6  1  1
  5  1  1  0
  6  7  2  0
  9  8  1  0
  9 11  1  0
 10  9  2  0
 12 11  1  0
 13 12  1  6
 14 13  1  0
 14  6  1  0
 15 16  2  0
 15 13  1  0
 18 17  1  6
 18 19  1  0
 18 20  1  0
 21 20  1  1
 21 22  1  0
 21 23  1  0
 22 15  1  0
 23 25  1  0
 24 23  2  0
M  END
$$$$
