PQL.pdb
     RDKit          3D

 25 25  0  0  1  0  0  0  0  0999 V2000
    9.2602  -14.5058   19.0366 N   0  0  0  0  0  0  0  0  0  0  0  0
    9.0730  -13.7360   17.8151 C   0  0  0  0  0  0  0  0  0  0  0  0
    7.5856  -13.4069   17.9128 C   0  0  0  0  0  0  0  0  0  0  0  0
    7.5086  -12.9358   19.3700 C   0  0  0  0  0  0  0  0  0  0  0  0
    8.6835  -13.6314   20.0348 C   0  0  1  0  0  0  0  0  0  0  0  0
    8.2558  -14.3653   21.2449 C   0  0  0  0  0  0  0  0  0  0  0  0
    7.5307  -13.7685   22.0693 O   0  0  0  0  0  0  0  0  0  0  0  0
    8.9802  -20.6515   22.4212 N   0  0  0  0  0  0  0  0  0  0  0  0
    9.7853  -19.7732   21.6569 C   0  0  0  0  0  0  0  0  0  0  0  0
   10.7088  -20.3058   20.9485 O   0  0  0  0  0  0  0  0  0  0  0  0
    9.6214  -18.3107   21.6249 C   0  0  0  0  0  0  0  0  0  0  0  0
    8.5147  -17.8399   22.4580 C   0  0  0  0  0  0  0  0  0  0  0  0
    8.3023  -16.4226   22.7414 C   0  0  2  0  0  0  0  0  0  0  0  0
    8.6357  -15.6997   21.4941 N   0  0  0  0  0  0  0  0  0  0  0  0
    8.9093  -15.7454   23.8523 C   0  0  0  0  0  0  0  0  0  0  0  0
   10.0865  -15.2950   23.9056 O   0  0  0  0  0  0  0  0  0  0  0  0
    8.1606  -11.8657   25.7771 C   0  0  0  0  0  0  0  0  0  0  0  0
    7.0950  -12.9692   25.8797 C   0  0  2  0  0  0  0  0  0  0  0  0
    5.8203  -12.3438   26.4011 C   0  0  0  0  0  0  0  0  0  0  0  0
    7.6636  -13.9888   26.8290 C   0  0  0  0  0  0  0  0  0  0  0  0
    8.7236  -14.8740   26.2193 C   0  0  2  0  0  0  0  0  0  0  0  0
    8.1521  -15.5332   25.0399 N   0  0  0  0  0  0  0  0  0  0  0  0
    9.2599  -15.8935   27.1154 C   0  0  0  0  0  0  0  0  0  0  0  0
    9.9040  -15.5588   28.1375 O   0  0  0  0  0  0  0  0  0  0  0  0
    9.0772  -17.2408   26.8709 O   0  0  0  0  0  0  0  0  0  0  0  0
  2  1  1  0
  3  2  1  0
  4  5  1  0
  4  3  1  0
  5  6  1  1
  5  1  1  0
  6  7  2  0
  9  8  1  0
  9 11  1  0
 10  9  2  0
 12 11  1  0
 13 12  1  6
 14 13  1  0
 14  6  1  0
 15 16  2  0
 15 13  1  0
 18 17  1  1
 18 19  1  0
 18 20  1  0
 21 20  1  1
 21 22  1  0
 21 23  1  0
 22 15  1  0
 23 25  1  0
 24 23  2  0
M  END
$$$$
