PQL.pdb
     RDKit          3D

 25 25  0  0  1  0  0  0  0  0999 V2000
    8.7931  -15.2411   18.9504 N   0  0  0  0  0  0  0  0  0  0  0  0
    8.8207  -14.6586   17.6165 C   0  0  0  0  0  0  0  0  0  0  0  0
    7.5211  -13.8580   17.6300 C   0  0  0  0  0  0  0  0  0  0  0  0
    7.6486  -13.1596   18.9892 C   0  0  0  0  0  0  0  0  0  0  0  0
    8.5610  -14.0796   19.7814 C   0  0  1  0  0  0  0  0  0  0  0  0
    7.9623  -14.4329   21.0863 C   0  0  0  0  0  0  0  0  0  0  0  0
    7.6038  -13.5029   21.8401 O   0  0  0  0  0  0  0  0  0  0  0  0
    7.1409  -20.3862   22.6003 N   0  0  0  0  0  0  0  0  0  0  0  0
    6.4129  -19.7637   23.6425 C   0  0  0  0  0  0  0  0  0  0  0  0
    5.9488  -20.5276   24.5587 O   0  0  0  0  0  0  0  0  0  0  0  0
    6.1682  -18.3152   23.7358 C   0  0  0  0  0  0  0  0  0  0  0  0
    6.7777  -17.5596   22.6411 C   0  0  0  0  0  0  0  0  0  0  0  0
    7.1291  -16.1476   22.7714 C   0  0  2  0  0  0  0  0  0  0  0  0
    7.7858  -15.7686   21.5008 N   0  0  0  0  0  0  0  0  0  0  0  0
    7.8958  -15.6282   23.8685 C   0  0  0  0  0  0  0  0  0  0  0  0
    9.1515  -15.6543   23.9865 O   0  0  0  0  0  0  0  0  0  0  0  0
    6.1704  -11.1994   26.9445 C   0  0  0  0  0  0  0  0  0  0  0  0
    7.4021  -12.0132   26.5151 C   0  0  2  0  0  0  0  0  0  0  0  0
    7.6466  -11.7541   25.0451 C   0  0  0  0  0  0  0  0  0  0  0  0
    7.0508  -13.4495   26.7938 C   0  0  0  0  0  0  0  0  0  0  0  0
    7.9492  -14.4479   26.1047 C   0  0  2  0  0  0  0  0  0  0  0  0
    7.2225  -15.0105   24.9611 N   0  0  0  0  0  0  0  0  0  0  0  0
    8.4131  -15.5416   26.9525 C   0  0  0  0  0  0  0  0  0  0  0  0
    7.7736  -16.6188   26.9981 O   0  0  0  0  0  0  0  0  0  0  0  0
    9.5559  -15.4276   27.7202 O   0  0  0  0  0  0  0  0  0  0  0  0
  2  1  1  0
  3  2  1  0
  4  5  1  0
  4  3  1  0
  5  6  1  1
  5  1  1  0
  6  7  2  0
  9  8  1  0
  9 11  1  0
 10  9  2  0
 12 11  1  0
 13 12  1  1
 14 13  1  0
 14  6  1  0
 15 16  2  0
 15 13  1  0
 18 17  1  6
 18 19  1  0
 18 20  1  0
 21 20  1  1
 21 22  1  0
 21 23  1  0
 22 15  1  0
 23 25  1  0
 24 23  2  0
M  END
$$$$
