PQL.pdb
     RDKit          3D

 25 25  0  0  1  0  0  0  0  0999 V2000
    8.5458  -15.3037   18.4770 N   0  0  0  0  0  0  0  0  0  0  0  0
    8.3857  -14.5072   17.2689 C   0  0  0  0  0  0  0  0  0  0  0  0
    7.2841  -13.5458   17.7073 C   0  0  0  0  0  0  0  0  0  0  0  0
    7.8266  -13.1205   19.0770 C   0  0  0  0  0  0  0  0  0  0  0  0
    8.7107  -14.2841   19.4902 C   0  0  1  0  0  0  0  0  0  0  0  0
    8.3572  -14.7715   20.8405 C   0  0  0  0  0  0  0  0  0  0  0  0
    8.3910  -13.9567   21.7875 O   0  0  0  0  0  0  0  0  0  0  0  0
    4.6662  -19.3026   22.4924 N   0  0  0  0  0  0  0  0  0  0  0  0
    5.9114  -19.7684   22.9784 C   0  0  0  0  0  0  0  0  0  0  0  0
    6.0709  -21.0370   23.0354 O   0  0  0  0  0  0  0  0  0  0  0  0
    7.0156  -18.8949   23.4083 C   0  0  0  0  0  0  0  0  0  0  0  0
    7.5334  -18.0531   22.3295 C   0  0  0  0  0  0  0  0  0  0  0  0
    7.5236  -16.5943   22.4078 C   0  0  2  0  0  0  0  0  0  0  0  0
    7.9881  -16.1089   21.0894 N   0  0  0  0  0  0  0  0  0  0  0  0
    8.1969  -15.8599   23.4415 C   0  0  0  0  0  0  0  0  0  0  0  0
    9.4227  -15.5643   23.4767 O   0  0  0  0  0  0  0  0  0  0  0  0
    7.8885  -12.9906   27.8659 C   0  0  0  0  0  0  0  0  0  0  0  0
    7.2353  -12.2628   26.6796 C   0  0  2  0  0  0  0  0  0  0  0  0
    6.0214  -11.5216   27.1943 C   0  0  0  0  0  0  0  0  0  0  0  0
    6.8737  -13.3428   25.6964 C   0  0  0  0  0  0  0  0  0  0  0  0
    7.9708  -14.3524   25.4596 C   0  0  2  0  0  0  0  0  0  0  0  0
    7.4546  -15.3936   24.5642 N   0  0  0  0  0  0  0  0  0  0  0  0
    8.4917  -14.9853   26.6672 C   0  0  0  0  0  0  0  0  0  0  0  0
    9.4866  -14.4992   27.2547 O   0  0  0  0  0  0  0  0  0  0  0  0
    7.9133  -16.1233   27.1951 O   0  0  0  0  0  0  0  0  0  0  0  0
  2  1  1  0
  3  2  1  0
  4  5  1  0
  4  3  1  0
  5  6  1  1
  5  1  1  0
  6  7  2  0
  9  8  1  0
  9 11  1  0
 10  9  2  0
 12 11  1  0
 13 12  1  1
 14 13  1  0
 14  6  1  0
 15 16  2  0
 15 13  1  0
 18 17  1  1
 18 19  1  0
 18 20  1  0
 21 20  1  1
 21 22  1  0
 21 23  1  0
 22 15  1  0
 23 25  1  0
 24 23  2  0
M  END
$$$$
