PQL.pdb
     RDKit          3D

 25 25  0  0  1  0  0  0  0  0999 V2000
    9.1472  -14.1832   18.6956 N   0  0  0  0  0  0  0  0  0  0  0  0
    8.8748  -13.3640   17.5233 C   0  0  0  0  0  0  0  0  0  0  0  0
    7.3620  -13.1968   17.6397 C   0  0  0  0  0  0  0  0  0  0  0  0
    7.2450  -12.8256   19.1229 C   0  0  0  0  0  0  0  0  0  0  0  0
    8.4891  -13.4353   19.7449 C   0  0  1  0  0  0  0  0  0  0  0  0
    8.1461  -14.2816   20.9077 C   0  0  0  0  0  0  0  0  0  0  0  0
    7.4398  -13.7832   21.8101 O   0  0  0  0  0  0  0  0  0  0  0  0
   10.8376  -19.4666   22.0882 N   0  0  0  0  0  0  0  0  0  0  0  0
    9.6586  -19.7340   22.8245 C   0  0  0  0  0  0  0  0  0  0  0  0
    9.7094  -20.6971   23.6660 O   0  0  0  0  0  0  0  0  0  0  0  0
    8.4025  -18.9791   22.6858 C   0  0  0  0  0  0  0  0  0  0  0  0
    8.5138  -17.8455   21.7675 C   0  0  0  0  0  0  0  0  0  0  0  0
    8.2889  -16.4685   22.2004 C   0  0  2  0  0  0  0  0  0  0  0  0
    8.5854  -15.6156   21.0282 N   0  0  0  0  0  0  0  0  0  0  0  0
    8.9110  -15.9004   23.3629 C   0  0  0  0  0  0  0  0  0  0  0  0
    9.7020  -14.9179   23.3874 O   0  0  0  0  0  0  0  0  0  0  0  0
    5.6132  -13.2725   26.5647 C   0  0  0  0  0  0  0  0  0  0  0  0
    7.0346  -13.8057   26.8074 C   0  0  2  0  0  0  0  0  0  0  0  0
    7.9700  -12.6210   26.9049 C   0  0  0  0  0  0  0  0  0  0  0  0
    7.3414  -14.6828   25.6240 C   0  0  0  0  0  0  0  0  0  0  0  0
    8.4957  -15.6308   25.8431 C   0  0  2  0  0  0  0  0  0  0  0  0
    8.6437  -16.4628   24.6439 N   0  0  0  0  0  0  0  0  0  0  0  0
    8.3610  -16.5011   27.0069 C   0  0  0  0  0  0  0  0  0  0  0  0
    7.4971  -17.4094   27.0182 O   0  0  0  0  0  0  0  0  0  0  0  0
    9.1699  -16.3555   28.1172 O   0  0  0  0  0  0  0  0  0  0  0  0
  2  1  1  0
  3  2  1  0
  4  5  1  0
  4  3  1  0
  5  6  1  1
  5  1  1  0
  6  7  2  0
  9  8  1  0
  9 11  1  0
 10  9  2  0
 12 11  1  0
 13 12  1  6
 14 13  1  0
 14  6  1  0
 15 16  2  0
 15 13  1  0
 18 17  1  6
 18 19  1  0
 18 20  1  0
 21 20  1  6
 21 22  1  0
 21 23  1  0
 22 15  1  0
 23 25  1  0
 24 23  2  0
M  END
$$$$
