GFV.pdb
     RDKit          3D

 23 23  0  0  1  0  0  0  0  0999 V2000
   21.7034  -22.3412   -6.6782 N   0  0  0  0  0  0  0  0  0  0  0  0
   23.0408  -22.6199   -7.1314 C   0  0  0  0  0  0  0  0  0  0  0  0
   23.4958  -21.5569   -8.0969 C   0  0  0  0  0  0  0  0  0  0  0  0
   22.7032  -20.6382   -8.4080 O   0  0  0  0  0  0  0  0  0  0  0  0
   24.7949  -21.5761   -8.6566 N   0  0  0  0  0  0  0  0  0  0  0  0
   25.1839  -20.4899   -9.5888 C   0  0  1  0  0  0  0  0  0  0  0  0
   26.6646  -20.3978   -9.5788 C   0  0  0  0  0  0  0  0  0  0  0  0
   27.3218  -19.9117   -8.3714 C   0  0  0  0  0  0  0  0  0  0  0  0
   28.3335  -20.6745   -7.7699 C   0  0  0  0  0  0  0  0  0  0  0  0
   29.0177  -20.2469   -6.6540 C   0  0  0  0  0  0  0  0  0  0  0  0
   28.7167  -19.0277   -6.0869 C   0  0  0  0  0  0  0  0  0  0  0  0
   27.7317  -18.2529   -6.6481 C   0  0  0  0  0  0  0  0  0  0  0  0
   27.0602  -18.7081   -7.7699 C   0  0  0  0  0  0  0  0  0  0  0  0
   24.6571  -20.8502  -10.9141 C   0  0  0  0  0  0  0  0  0  0  0  0
   24.9169  -22.0289  -11.3796 O   0  0  0  0  0  0  0  0  0  0  0  0
   21.7622  -18.6989  -13.1169 C   0  0  0  0  0  0  0  0  0  0  0  0
   21.8272  -20.2109  -13.0176 C   0  0  1  0  0  0  0  0  0  0  0  0
   21.2114  -20.8728  -14.2150 C   0  0  0  0  0  0  0  0  0  0  0  0
   23.2984  -20.6352  -12.9718 C   0  0  2  0  0  0  0  0  0  0  0  0
   23.8718  -20.0620  -11.7755 N   0  0  0  0  0  0  0  0  0  0  0  0
   24.0215  -20.1761  -14.1593 C   0  0  0  0  0  0  0  0  0  0  0  0
   24.0219  -20.7677  -15.4086 O   0  0  0  0  0  0  0  0  0  0  0  0
   24.7513  -19.1152  -14.0938 O   0  0  0  0  0  0  0  0  0  0  0  0
  1  2  1  0
  3  4  2  0
  3  2  1  0
  5  3  1  0
  6  5  1  0
  6 14  1  0
  6  7  1  6
  8  7  1  0
  9  8  2  0
 10  9  1  0
 11 12  1  0
 11 10  2  0
 12 13  2  0
 13  8  1  0
 14 20  1  0
 15 14  2  0
 17 19  1  0
 17 16  1  6
 17 18  1  0
 19 21  1  0
 19 20  1  1
 21 23  2  0
 21 22  1  0
M  END
$$$$
