GFV.pdb
     RDKit          3D

 23 23  0  0  1  0  0  0  0  0999 V2000
   28.4659  -22.9187  -17.5633 N   0  0  0  0  0  0  0  0  0  0  0  0
   28.0562  -21.6515  -17.0170 C   0  0  0  0  0  0  0  0  0  0  0  0
   27.2883  -21.8595  -15.7379 C   0  0  0  0  0  0  0  0  0  0  0  0
   26.9386  -23.0196  -15.4201 O   0  0  0  0  0  0  0  0  0  0  0  0
   26.9559  -20.7750  -14.8926 N   0  0  0  0  0  0  0  0  0  0  0  0
   26.1989  -21.0502  -13.6469 C   0  0  1  0  0  0  0  0  0  0  0  0
   26.8382  -20.2785  -12.5528 C   0  0  0  0  0  0  0  0  0  0  0  0
   26.2577  -20.3561  -11.2176 C   0  0  0  0  0  0  0  0  0  0  0  0
   26.7522  -21.2874  -10.2927 C   0  0  0  0  0  0  0  0  0  0  0  0
   26.2721  -21.3775   -9.0051 C   0  0  0  0  0  0  0  0  0  0  0  0
   25.2683  -20.5327   -8.5840 C   0  0  0  0  0  0  0  0  0  0  0  0
   24.7590  -19.6077   -9.4618 C   0  0  0  0  0  0  0  0  0  0  0  0
   25.2608  -19.5398  -10.7503 C   0  0  0  0  0  0  0  0  0  0  0  0
   24.8093  -20.6312  -13.8858 C   0  0  0  0  0  0  0  0  0  0  0  0
   24.5999  -19.4768  -14.4310 O   0  0  0  0  0  0  0  0  0  0  0  0
   22.5638  -21.4848  -16.2457 C   0  0  0  0  0  0  0  0  0  0  0  0
   21.7037  -21.6033  -15.0020 C   0  0  1  0  0  0  0  0  0  0  0  0
   21.6337  -23.0185  -14.5085 C   0  0  0  0  0  0  0  0  0  0  0  0
   22.3377  -20.7654  -13.8874 C   0  0  2  0  0  0  0  0  0  0  0  0
   23.6304  -21.3441  -13.5998 N   0  0  0  0  0  0  0  0  0  0  0  0
   21.4999  -20.7563  -12.6867 C   0  0  0  0  0  0  0  0  0  0  0  0
   20.3051  -20.0824  -12.5158 O   0  0  0  0  0  0  0  0  0  0  0  0
   21.8633  -21.4279  -11.6477 O   0  0  0  0  0  0  0  0  0  0  0  0
  1  2  1  0
  3  4  2  0
  3  2  1  0
  5  3  1  0
  6  5  1  0
  6 14  1  0
  6  7  1  1
  8  7  1  0
  9  8  2  0
 10  9  1  0
 11 12  1  0
 11 10  2  0
 12 13  2  0
 13  8  1  0
 14 20  1  0
 15 14  2  0
 17 19  1  0
 17 16  1  6
 17 18  1  0
 19 21  1  0
 19 20  1  1
 21 23  2  0
 21 22  1  0
M  END
$$$$
