GFV.pdb
     RDKit          3D

 23 23  0  0  1  0  0  0  0  0999 V2000
   16.0485  -12.8764  -17.5563 N   0  0  0  0  0  0  0  0  0  0  0  0
   16.2071  -11.4459  -17.5305 C   0  0  0  0  0  0  0  0  0  0  0  0
   17.6692  -11.0836  -17.5382 C   0  0  0  0  0  0  0  0  0  0  0  0
   18.5229  -11.9985  -17.4819 O   0  0  0  0  0  0  0  0  0  0  0  0
   18.0948   -9.7363  -17.6076 N   0  0  0  0  0  0  0  0  0  0  0  0
   19.5497   -9.4481  -17.5881 C   0  0  1  0  0  0  0  0  0  0  0  0
   19.8578   -8.6101  -18.7730 C   0  0  0  0  0  0  0  0  0  0  0  0
   19.9409   -9.2562  -20.0775 C   0  0  0  0  0  0  0  0  0  0  0  0
   18.8077   -9.3168  -20.9017 C   0  0  0  0  0  0  0  0  0  0  0  0
   18.8371   -9.8764  -22.1596 C   0  0  0  0  0  0  0  0  0  0  0  0
   20.0114  -10.4038  -22.6512 C   0  0  0  0  0  0  0  0  0  0  0  0
   21.1418  -10.3626  -21.8727 C   0  0  0  0  0  0  0  0  0  0  0  0
   21.0828   -9.7940  -20.6118 C   0  0  0  0  0  0  0  0  0  0  0  0
   19.8340   -8.7514  -16.3240 C   0  0  0  0  0  0  0  0  0  0  0  0
   18.9322   -7.9591  -15.8421 O   0  0  0  0  0  0  0  0  0  0  0  0
   22.9620   -9.6246  -13.6514 C   0  0  0  0  0  0  0  0  0  0  0  0
   21.5769   -9.1718  -13.2307 C   0  0  1  0  0  0  0  0  0  0  0  0
   21.5993   -8.4816  -11.8987 C   0  0  0  0  0  0  0  0  0  0  0  0
   21.0607   -8.1590  -14.2574 C   0  0  2  0  0  0  0  0  0  0  0  0
   20.9935   -8.8379  -15.5315 N   0  0  0  0  0  0  0  0  0  0  0  0
   21.9410   -6.9922  -14.3425 C   0  0  0  0  0  0  0  0  0  0  0  0
   21.9960   -5.9303  -13.4592 O   0  0  0  0  0  0  0  0  0  0  0  0
   22.7729   -6.8882  -15.3221 O   0  0  0  0  0  0  0  0  0  0  0  0
  1  2  1  0
  3  4  2  0
  3  2  1  0
  5  3  1  0
  6  5  1  0
  6 14  1  0
  6  7  1  6
  8  7  1  0
  9  8  2  0
 10  9  1  0
 11 12  1  0
 11 10  2  0
 12 13  2  0
 13  8  1  0
 14 20  1  0
 15 14  2  0
 17 19  1  0
 17 16  1  6
 17 18  1  0
 19 21  1  0
 19 20  1  6
 21 23  2  0
 21 22  1  0
M  END
$$$$
