GFV.pdb
     RDKit          3D

 23 23  0  0  1  0  0  0  0  0999 V2000
   31.7586  -20.9919  -18.9221 N   0  0  0  0  0  0  0  0  0  0  0  0
   30.9981  -22.0430  -18.2988 C   0  0  0  0  0  0  0  0  0  0  0  0
   31.9213  -23.1013  -17.7540 C   0  0  0  0  0  0  0  0  0  0  0  0
   33.1518  -23.0031  -17.9664 O   0  0  0  0  0  0  0  0  0  0  0  0
   31.4277  -24.1989  -17.0104 N   0  0  0  0  0  0  0  0  0  0  0  0
   32.3932  -25.1982  -16.4913 C   0  0  1  0  0  0  0  0  0  0  0  0
   31.9733  -25.5554  -15.1139 C   0  0  0  0  0  0  0  0  0  0  0  0
   32.3144  -24.6461  -14.0263 C   0  0  0  0  0  0  0  0  0  0  0  0
   33.5526  -24.7639  -13.3781 C   0  0  0  0  0  0  0  0  0  0  0  0
   33.9462  -23.9077  -12.3740 C   0  0  0  0  0  0  0  0  0  0  0  0
   33.1110  -22.8882  -11.9717 C   0  0  0  0  0  0  0  0  0  0  0  0
   31.8903  -22.7416  -12.5833 C   0  0  0  0  0  0  0  0  0  0  0  0
   31.5208  -23.6173  -13.5900 C   0  0  0  0  0  0  0  0  0  0  0  0
   32.3516  -26.3517  -17.4032 C   0  0  0  0  0  0  0  0  0  0  0  0
   31.1981  -26.7735  -17.8092 O   0  0  0  0  0  0  0  0  0  0  0  0
   34.2566  -26.7487  -20.6800 C   0  0  0  0  0  0  0  0  0  0  0  0
   34.3696  -28.0487  -19.9070 C   0  0  1  0  0  0  0  0  0  0  0  0
   35.6468  -28.1189  -19.1228 C   0  0  0  0  0  0  0  0  0  0  0  0
   33.2159  -28.1218  -18.9019 C   0  0  2  0  0  0  0  0  0  0  0  0
   33.4362  -27.0829  -17.9216 N   0  0  0  0  0  0  0  0  0  0  0  0
   33.1561  -29.4341  -18.2555 C   0  0  0  0  0  0  0  0  0  0  0  0
   32.5804  -30.5828  -18.7654 O   0  0  0  0  0  0  0  0  0  0  0  0
   33.6769  -29.5964  -17.0872 O   0  0  0  0  0  0  0  0  0  0  0  0
  1  2  1  0
  3  4  2  0
  3  2  1  0
  5  3  1  0
  6  5  1  0
  6 14  1  0
  6  7  1  1
  8  7  1  0
  9  8  2  0
 10  9  1  0
 11 12  1  0
 11 10  2  0
 12 13  2  0
 13  8  1  0
 14 20  1  0
 15 14  2  0
 17 19  1  0
 17 16  1  1
 17 18  1  0
 19 21  1  0
 19 20  1  1
 21 23  2  0
 21 22  1  0
M  END
$$$$
