GFV.pdb
     RDKit          3D

 23 23  0  0  1  0  0  0  0  0999 V2000
   32.0948  -22.9911  -11.9339 N   0  0  0  0  0  0  0  0  0  0  0  0
   31.6255  -21.6757  -11.5857 C   0  0  0  0  0  0  0  0  0  0  0  0
   30.6827  -21.7523  -10.4133 C   0  0  0  0  0  0  0  0  0  0  0  0
   30.2037  -22.8635  -10.0896 O   0  0  0  0  0  0  0  0  0  0  0  0
   30.3295  -20.5989   -9.6744 N   0  0  0  0  0  0  0  0  0  0  0  0
   29.3205  -20.7272   -8.5947 C   0  0  1  0  0  0  0  0  0  0  0  0
   29.7276  -19.8250   -7.4895 C   0  0  0  0  0  0  0  0  0  0  0  0
   28.8651  -19.7296   -6.3178 C   0  0  0  0  0  0  0  0  0  0  0  0
   29.0388  -20.6186   -5.2469 C   0  0  0  0  0  0  0  0  0  0  0  0
   28.2826  -20.5493   -4.0981 C   0  0  0  0  0  0  0  0  0  0  0  0
   27.3122  -19.5795   -3.9700 C   0  0  0  0  0  0  0  0  0  0  0  0
   27.1132  -18.6913   -4.9981 C   0  0  0  0  0  0  0  0  0  0  0  0
   27.8880  -18.7847   -6.1415 C   0  0  0  0  0  0  0  0  0  0  0  0
   28.0213  -20.3496   -9.1722 C   0  0  0  0  0  0  0  0  0  0  0  0
   27.9239  -19.2086   -9.7740 O   0  0  0  0  0  0  0  0  0  0  0  0
   24.2443  -21.1147  -11.8582 C   0  0  0  0  0  0  0  0  0  0  0  0
   25.5080  -21.5195  -11.1236 C   0  0  1  0  0  0  0  0  0  0  0  0
   26.7292  -21.3322  -11.9751 C   0  0  0  0  0  0  0  0  0  0  0  0
   25.6694  -20.6187   -9.8952 C   0  0  2  0  0  0  0  0  0  0  0  0
   26.8253  -21.0909   -9.1675 N   0  0  0  0  0  0  0  0  0  0  0  0
   24.4767  -20.6574   -9.0469 C   0  0  0  0  0  0  0  0  0  0  0  0
   23.3006  -19.9571   -9.2395 O   0  0  0  0  0  0  0  0  0  0  0  0
   24.4631  -21.4039   -7.9957 O   0  0  0  0  0  0  0  0  0  0  0  0
  1  2  1  0
  3  4  2  0
  3  2  1  0
  5  3  1  0
  6  5  1  0
  6 14  1  0
  6  7  1  1
  8  7  1  0
  9  8  2  0
 10  9  1  0
 11 12  1  0
 11 10  2  0
 12 13  2  0
 13  8  1  0
 14 20  1  0
 15 14  2  0
 17 19  1  0
 17 16  1  6
 17 18  1  0
 19 21  1  0
 19 20  1  1
 21 23  2  0
 21 22  1  0
M  END
$$$$
