GFV.pdb
     RDKit          3D

 23 23  0  0  1  0  0  0  0  0999 V2000
   21.9562  -21.7604   -6.6937 N   0  0  0  0  0  0  0  0  0  0  0  0
   23.3445  -22.1363   -6.6362 C   0  0  0  0  0  0  0  0  0  0  0  0
   24.1605  -21.2570   -7.5474 C   0  0  0  0  0  0  0  0  0  0  0  0
   23.5829  -20.3619   -8.2065 O   0  0  0  0  0  0  0  0  0  0  0  0
   25.5599  -21.4218   -7.6725 N   0  0  0  0  0  0  0  0  0  0  0  0
   26.3189  -20.4531   -8.5006 C   0  0  1  0  0  0  0  0  0  0  0  0
   27.7130  -20.4241   -7.9939 C   0  0  0  0  0  0  0  0  0  0  0  0
   27.9521  -19.9165   -6.6481 C   0  0  0  0  0  0  0  0  0  0  0  0
   28.4547  -20.7718   -5.6567 C   0  0  0  0  0  0  0  0  0  0  0  0
   28.7395  -20.3386   -4.3810 C   0  0  0  0  0  0  0  0  0  0  0  0
   28.5319  -19.0199   -4.0393 C   0  0  0  0  0  0  0  0  0  0  0  0
   28.0405  -18.1527   -4.9837 C   0  0  0  0  0  0  0  0  0  0  0  0
   27.7630  -18.6161   -6.2584 C   0  0  0  0  0  0  0  0  0  0  0  0
   26.2417  -20.9228   -9.8925 C   0  0  0  0  0  0  0  0  0  0  0  0
   26.5066  -22.1649  -10.1381 O   0  0  0  0  0  0  0  0  0  0  0  0
   23.4957  -19.9889  -12.4693 C   0  0  0  0  0  0  0  0  0  0  0  0
   24.8355  -20.0165  -13.1797 C   0  0  1  0  0  0  0  0  0  0  0  0
   25.4078  -18.6386  -13.3387 C   0  0  0  0  0  0  0  0  0  0  0  0
   25.8231  -20.8222  -12.3300 C   0  0  2  0  0  0  0  0  0  0  0  0
   25.8979  -20.1803  -11.0373 N   0  0  0  0  0  0  0  0  0  0  0  0
   27.1455  -20.8728  -12.9561 C   0  0  0  0  0  0  0  0  0  0  0  0
   28.2890  -20.2236  -12.5296 O   0  0  0  0  0  0  0  0  0  0  0  0
   27.3234  -21.5796  -14.0198 O   0  0  0  0  0  0  0  0  0  0  0  0
  1  2  1  0
  3  4  2  0
  3  2  1  0
  5  3  1  0
  6  5  1  0
  6 14  1  0
  6  7  1  1
  8  7  1  0
  9  8  2  0
 10  9  1  0
 11 12  1  0
 11 10  2  0
 12 13  2  0
 13  8  1  0
 14 20  1  0
 15 14  2  0
 17 19  1  0
 17 16  1  1
 17 18  1  0
 19 21  1  0
 19 20  1  1
 21 23  2  0
 21 22  1  0
M  END
$$$$
