GFV.pdb
     RDKit          3D

 23 23  0  0  1  0  0  0  0  0999 V2000
   30.3166  -20.0397   14.3557 N   0  0  0  0  0  0  0  0  0  0  0  0
   31.5893  -20.0709   13.6841 C   0  0  0  0  0  0  0  0  0  0  0  0
   31.4267  -20.6026   12.2841 C   0  0  0  0  0  0  0  0  0  0  0  0
   30.3641  -21.1901   11.9762 O   0  0  0  0  0  0  0  0  0  0  0  0
   32.4461  -20.4521   11.3149 N   0  0  0  0  0  0  0  0  0  0  0  0
   32.2540  -21.0677    9.9791 C   0  0  1  0  0  0  0  0  0  0  0  0
   32.4299  -20.0008    8.9631 C   0  0  0  0  0  0  0  0  0  0  0  0
   32.2473  -20.3437    7.5578 C   0  0  0  0  0  0  0  0  0  0  0  0
   30.9772  -20.2407    6.9717 C   0  0  0  0  0  0  0  0  0  0  0  0
   30.7532  -20.5102    5.6400 C   0  0  0  0  0  0  0  0  0  0  0  0
   31.7988  -20.8977    4.8305 C   0  0  0  0  0  0  0  0  0  0  0  0
   33.0569  -21.0097    5.3691 C   0  0  0  0  0  0  0  0  0  0  0  0
   33.2528  -20.7325    6.7113 C   0  0  0  0  0  0  0  0  0  0  0  0
   33.2592  -22.1335    9.8473 C   0  0  0  0  0  0  0  0  0  0  0  0
   34.4671  -21.8923   10.2428 O   0  0  0  0  0  0  0  0  0  0  0  0
   33.6043  -25.3348   11.4830 C   0  0  0  0  0  0  0  0  0  0  0  0
   33.7486  -25.6363   10.0035 C   0  0  1  0  0  0  0  0  0  0  0  0
   32.4452  -26.0619    9.3942 C   0  0  0  0  0  0  0  0  0  0  0  0
   34.1889  -24.3574    9.2845 C   0  0  2  0  0  0  0  0  0  0  0  0
   33.0793  -23.4329    9.3382 N   0  0  0  0  0  0  0  0  0  0  0  0
   34.5639  -24.6302    7.8958 C   0  0  0  0  0  0  0  0  0  0  0  0
   35.7865  -25.0899    7.4433 O   0  0  0  0  0  0  0  0  0  0  0  0
   33.7063  -24.4397    6.9521 O   0  0  0  0  0  0  0  0  0  0  0  0
  1  2  1  0
  3  4  2  0
  3  2  1  0
  5  3  1  0
  6  5  1  0
  6 14  1  0
  6  7  1  6
  8  7  1  0
  9  8  2  0
 10  9  1  0
 11 12  1  0
 11 10  2  0
 12 13  2  0
 13  8  1  0
 14 20  1  0
 15 14  2  0
 17 19  1  0
 17 16  1  1
 17 18  1  0
 19 21  1  0
 19 20  1  6
 21 23  2  0
 21 22  1  0
M  END
$$$$
