GFV.pdb
     RDKit          3D

 23 23  0  0  1  0  0  0  0  0999 V2000
   22.4137  -21.8301  -11.7515 N   0  0  0  0  0  0  0  0  0  0  0  0
   22.9303  -20.7514  -10.9506 C   0  0  0  0  0  0  0  0  0  0  0  0
   24.3298  -21.0674  -10.4915 C   0  0  0  0  0  0  0  0  0  0  0  0
   24.7164  -22.2588  -10.4943 O   0  0  0  0  0  0  0  0  0  0  0  0
   25.2117  -20.0493  -10.0591 N   0  0  0  0  0  0  0  0  0  0  0  0
   26.5989  -20.4205   -9.6874 C   0  0  1  0  0  0  0  0  0  0  0  0
   27.5198  -19.6210  -10.5325 C   0  0  0  0  0  0  0  0  0  0  0  0
   27.7575  -20.0560  -11.9037 C   0  0  0  0  0  0  0  0  0  0  0  0
   28.6982  -21.0629  -12.1652 C   0  0  0  0  0  0  0  0  0  0  0  0
   28.9341  -21.5432  -13.4341 C   0  0  0  0  0  0  0  0  0  0  0  0
   28.2333  -21.0325  -14.5049 C   0  0  0  0  0  0  0  0  0  0  0  0
   27.3039  -20.0452  -14.2876 C   0  0  0  0  0  0  0  0  0  0  0  0
   27.0876  -19.5815  -13.0013 C   0  0  0  0  0  0  0  0  0  0  0  0
   26.7558  -20.1217   -8.2557 C   0  0  0  0  0  0  0  0  0  0  0  0
   25.9301  -19.2910   -7.7065 O   0  0  0  0  0  0  0  0  0  0  0  0
   28.9876  -20.4988   -3.8672 C   0  0  0  0  0  0  0  0  0  0  0  0
   28.7749  -21.0655   -5.2579 C   0  0  1  0  0  0  0  0  0  0  0  0
   28.2136  -22.4562   -5.2106 C   0  0  0  0  0  0  0  0  0  0  0  0
   27.7550  -20.1897   -5.9921 C   0  0  2  0  0  0  0  0  0  0  0  0
   27.7124  -20.6416   -7.3642 N   0  0  0  0  0  0  0  0  0  0  0  0
   28.1252  -18.7746   -5.9281 C   0  0  0  0  0  0  0  0  0  0  0  0
   27.8003  -17.8782   -4.9272 O   0  0  0  0  0  0  0  0  0  0  0  0
   28.8264  -18.2531   -6.8762 O   0  0  0  0  0  0  0  0  0  0  0  0
  1  2  1  0
  3  4  2  0
  3  2  1  0
  5  3  1  0
  6  5  1  0
  6 14  1  0
  6  7  1  6
  8  7  1  0
  9  8  2  0
 10  9  1  0
 11 12  1  0
 11 10  2  0
 12 13  2  0
 13  8  1  0
 14 20  1  0
 15 14  2  0
 17 19  1  0
 17 16  1  1
 17 18  1  0
 19 21  1  0
 19 20  1  6
 21 23  2  0
 21 22  1  0
M  END
$$$$
