GFV.pdb
     RDKit          3D

 23 23  0  0  1  0  0  0  0  0999 V2000
   29.4266  -22.0788  -13.9062 N   0  0  0  0  0  0  0  0  0  0  0  0
   29.3769  -20.8921  -13.0931 C   0  0  0  0  0  0  0  0  0  0  0  0
   28.8396  -21.2203  -11.7246 C   0  0  0  0  0  0  0  0  0  0  0  0
   28.3122  -22.3398  -11.5306 O   0  0  0  0  0  0  0  0  0  0  0  0
   28.9188  -20.2930  -10.6593 N   0  0  0  0  0  0  0  0  0  0  0  0
   28.3209  -20.6588   -9.3520 C   0  0  1  0  0  0  0  0  0  0  0  0
   29.0465  -19.9058   -8.2995 C   0  0  0  0  0  0  0  0  0  0  0  0
   28.5874  -20.0230   -6.9206 C   0  0  0  0  0  0  0  0  0  0  0  0
   27.6944  -19.0763   -6.3976 C   0  0  0  0  0  0  0  0  0  0  0  0
   27.1944  -19.1595   -5.1172 C   0  0  0  0  0  0  0  0  0  0  0  0
   27.5695  -20.2020   -4.2980 C   0  0  0  0  0  0  0  0  0  0  0  0
   28.4425  -21.1483   -4.7754 C   0  0  0  0  0  0  0  0  0  0  0  0
   28.9293  -21.0393   -6.0669 C   0  0  0  0  0  0  0  0  0  0  0  0
   26.8963  -20.2975   -9.4136 C   0  0  0  0  0  0  0  0  0  0  0  0
   26.5833  -19.0768   -9.7058 O   0  0  0  0  0  0  0  0  0  0  0  0
   22.5894  -21.0250  -11.1198 C   0  0  0  0  0  0  0  0  0  0  0  0
   24.0195  -21.4134  -10.7969 C   0  0  1  0  0  0  0  0  0  0  0  0
   24.9646  -21.0098  -11.8901 C   0  0  0  0  0  0  0  0  0  0  0  0
   24.4525  -20.6735   -9.5274 C   0  0  2  0  0  0  0  0  0  0  0  0
   25.7833  -21.1311   -9.1984 N   0  0  0  0  0  0  0  0  0  0  0  0
   23.5309  -20.9337   -8.4198 C   0  0  0  0  0  0  0  0  0  0  0  0
   22.3549  -20.2609   -8.1457 O   0  0  0  0  0  0  0  0  0  0  0  0
   23.7910  -21.8758   -7.5788 O   0  0  0  0  0  0  0  0  0  0  0  0
  1  2  1  0
  3  4  2  0
  3  2  1  0
  5  3  1  0
  6  5  1  0
  6 14  1  0
  6  7  1  1
  8  7  1  0
  9  8  2  0
 10  9  1  0
 11 12  1  0
 11 10  2  0
 12 13  2  0
 13  8  1  0
 14 20  1  0
 15 14  2  0
 17 19  1  0
 17 16  1  6
 17 18  1  0
 19 21  1  0
 19 20  1  1
 21 23  2  0
 21 22  1  0
M  END
$$$$
