GFV.pdb
     RDKit          3D

 23 23  0  0  1  0  0  0  0  0999 V2000
   31.2547  -22.3128  -10.2792 N   0  0  0  0  0  0  0  0  0  0  0  0
   30.6281  -21.0351  -10.0634 C   0  0  0  0  0  0  0  0  0  0  0  0
   29.1693  -21.2189   -9.7358 C   0  0  0  0  0  0  0  0  0  0  0  0
   28.6627  -22.3602   -9.8350 O   0  0  0  0  0  0  0  0  0  0  0  0
   28.3641  -20.1326   -9.3203 N   0  0  0  0  0  0  0  0  0  0  0  0
   26.9738  -20.4049   -8.8808 C   0  0  1  0  0  0  0  0  0  0  0  0
   26.6779  -19.5027   -7.7407 C   0  0  0  0  0  0  0  0  0  0  0  0
   27.4220  -19.6848   -6.5001 C   0  0  0  0  0  0  0  0  0  0  0  0
   27.3799  -20.9182   -5.8337 C   0  0  0  0  0  0  0  0  0  0  0  0
   28.0950  -21.1615   -4.6822 C   0  0  0  0  0  0  0  0  0  0  0  0
   28.8895  -20.1730   -4.1434 C   0  0  0  0  0  0  0  0  0  0  0  0
   28.9557  -18.9520   -4.7681 C   0  0  0  0  0  0  0  0  0  0  0  0
   28.2258  -18.7356   -5.9245 C   0  0  0  0  0  0  0  0  0  0  0  0
   26.0990  -20.1489  -10.0354 C   0  0  0  0  0  0  0  0  0  0  0  0
   26.1551  -18.9885  -10.6043 O   0  0  0  0  0  0  0  0  0  0  0  0
   26.2896  -21.3503  -13.2126 C   0  0  0  0  0  0  0  0  0  0  0  0
   24.8050  -21.5181  -12.9516 C   0  0  1  0  0  0  0  0  0  0  0  0
   24.4667  -22.9252  -12.5555 C   0  0  0  0  0  0  0  0  0  0  0  0
   24.4082  -20.6106  -11.7831 C   0  0  2  0  0  0  0  0  0  0  0  0
   25.1797  -21.0294  -10.6351 N   0  0  0  0  0  0  0  0  0  0  0  0
   22.9746  -20.7034  -11.5006 C   0  0  0  0  0  0  0  0  0  0  0  0
   22.3837  -21.3061  -10.4058 O   0  0  0  0  0  0  0  0  0  0  0  0
   22.1256  -20.1884  -12.3231 O   0  0  0  0  0  0  0  0  0  0  0  0
  1  2  1  0
  3  4  2  0
  3  2  1  0
  5  3  1  0
  6  5  1  0
  6 14  1  0
  6  7  1  1
  8  7  1  0
  9  8  2  0
 10  9  1  0
 11 12  1  0
 11 10  2  0
 12 13  2  0
 13  8  1  0
 14 20  1  0
 15 14  2  0
 17 19  1  0
 17 16  1  1
 17 18  1  0
 19 21  1  0
 19 20  1  1
 21 23  2  0
 21 22  1  0
M  END
$$$$
