GFV.pdb
     RDKit          3D

 23 23  0  0  1  0  0  0  0  0999 V2000
   31.4446  -22.2164  -10.3231 N   0  0  0  0  0  0  0  0  0  0  0  0
   30.7404  -20.9702  -10.1723 C   0  0  0  0  0  0  0  0  0  0  0  0
   29.3540  -21.2166   -9.6371 C   0  0  0  0  0  0  0  0  0  0  0  0
   28.9471  -22.3956   -9.5220 O   0  0  0  0  0  0  0  0  0  0  0  0
   28.5067  -20.1471   -9.2637 N   0  0  0  0  0  0  0  0  0  0  0  0
   27.1101  -20.4512   -8.8672 C   0  0  1  0  0  0  0  0  0  0  0  0
   26.7431  -19.5248   -7.7680 C   0  0  0  0  0  0  0  0  0  0  0  0
   27.3973  -19.6879   -6.4752 C   0  0  0  0  0  0  0  0  0  0  0  0
   28.5386  -18.9327   -6.1683 C   0  0  0  0  0  0  0  0  0  0  0  0
   29.1731  -19.0135   -4.9488 C   0  0  0  0  0  0  0  0  0  0  0  0
   28.6890  -19.8605   -3.9756 C   0  0  0  0  0  0  0  0  0  0  0  0
   27.5732  -20.6160   -4.2399 C   0  0  0  0  0  0  0  0  0  0  0  0
   26.9559  -20.5144   -5.4748 C   0  0  0  0  0  0  0  0  0  0  0  0
   26.2719  -20.2593  -10.0607 C   0  0  0  0  0  0  0  0  0  0  0  0
   26.4002  -19.1611  -10.7323 O   0  0  0  0  0  0  0  0  0  0  0  0
   24.6596  -23.2278  -12.4068 C   0  0  0  0  0  0  0  0  0  0  0  0
   25.0754  -21.8470  -12.8770 C   0  0  1  0  0  0  0  0  0  0  0  0
   24.4095  -21.4770  -14.1696 C   0  0  0  0  0  0  0  0  0  0  0  0
   24.6338  -20.8203  -11.8295 C   0  0  2  0  0  0  0  0  0  0  0  0
   25.3186  -21.1435  -10.5985 N   0  0  0  0  0  0  0  0  0  0  0  0
   23.1831  -20.8502  -11.6339 C   0  0  0  0  0  0  0  0  0  0  0  0
   22.2227  -20.3270  -12.4793 O   0  0  0  0  0  0  0  0  0  0  0  0
   22.6907  -21.4086  -10.5811 O   0  0  0  0  0  0  0  0  0  0  0  0
  1  2  1  0
  3  4  2  0
  3  2  1  0
  5  3  1  0
  6  5  1  0
  6 14  1  0
  6  7  1  1
  8  7  1  0
  9  8  2  0
 10  9  1  0
 11 12  1  0
 11 10  2  0
 12 13  2  0
 13  8  1  0
 14 20  1  0
 15 14  2  0
 17 19  1  0
 17 16  1  1
 17 18  1  0
 19 21  1  0
 19 20  1  1
 21 23  2  0
 21 22  1  0
M  END
$$$$
