GFV.pdb
     RDKit          3D

 23 23  0  0  1  0  0  0  0  0999 V2000
   27.7109  -22.8115  -16.9078 N   0  0  0  0  0  0  0  0  0  0  0  0
   27.8346  -21.6331  -16.0906 C   0  0  0  0  0  0  0  0  0  0  0  0
   27.0476  -21.7975  -14.8167 C   0  0  0  0  0  0  0  0  0  0  0  0
   26.1802  -22.6988  -14.7496 O   0  0  0  0  0  0  0  0  0  0  0  0
   27.2681  -20.9577  -13.6999 N   0  0  0  0  0  0  0  0  0  0  0  0
   26.4485  -21.1651  -12.4811 C   0  0  1  0  0  0  0  0  0  0  0  0
   27.2214  -20.6459  -11.3260 C   0  0  0  0  0  0  0  0  0  0  0  0
   26.5530  -20.5406  -10.0345 C   0  0  0  0  0  0  0  0  0  0  0  0
   26.5492  -19.3185   -9.3463 C   0  0  0  0  0  0  0  0  0  0  0  0
   25.8989  -19.1486   -8.1444 C   0  0  0  0  0  0  0  0  0  0  0  0
   25.2188  -20.2028   -7.5744 C   0  0  0  0  0  0  0  0  0  0  0  0
   25.2006  -21.4150   -8.2192 C   0  0  0  0  0  0  0  0  0  0  0  0
   25.8632  -21.5570   -9.4264 C   0  0  0  0  0  0  0  0  0  0  0  0
   25.1872  -20.4350  -12.6807 C   0  0  0  0  0  0  0  0  0  0  0  0
   25.2443  -19.2076  -13.0853 O   0  0  0  0  0  0  0  0  0  0  0  0
   22.0483  -21.9965  -14.3680 C   0  0  0  0  0  0  0  0  0  0  0  0
   22.4159  -20.5250  -14.3553 C   0  0  1  0  0  0  0  0  0  0  0  0
   21.2755  -19.6641  -14.8130 C   0  0  0  0  0  0  0  0  0  0  0  0
   22.7440  -20.1153  -12.9163 C   0  0  2  0  0  0  0  0  0  0  0  0
   23.8755  -20.9087  -12.4931 N   0  0  0  0  0  0  0  0  0  0  0  0
   21.6015  -20.3343  -12.0273 C   0  0  0  0  0  0  0  0  0  0  0  0
   20.5452  -19.4698  -11.8082 O   0  0  0  0  0  0  0  0  0  0  0  0
   21.5172  -21.4289  -11.3511 O   0  0  0  0  0  0  0  0  0  0  0  0
  1  2  1  0
  3  4  2  0
  3  2  1  0
  5  3  1  0
  6  5  1  0
  6 14  1  0
  6  7  1  1
  8  7  1  0
  9  8  2  0
 10  9  1  0
 11 12  1  0
 11 10  2  0
 12 13  2  0
 13  8  1  0
 14 20  1  0
 15 14  2  0
 17 19  1  0
 17 16  1  1
 17 18  1  0
 19 21  1  0
 19 20  1  1
 21 23  2  0
 21 22  1  0
M  END
$$$$
