GFV.pdb
     RDKit          3D

 23 23  0  0  1  0  0  0  0  0999 V2000
   27.8586  -24.1698  -16.8025 N   0  0  0  0  0  0  0  0  0  0  0  0
   27.8551  -22.7937  -16.3800 C   0  0  0  0  0  0  0  0  0  0  0  0
   27.0369  -22.6362  -15.1250 C   0  0  0  0  0  0  0  0  0  0  0  0
   26.0903  -23.4286  -14.9126 O   0  0  0  0  0  0  0  0  0  0  0  0
   27.3157  -21.6155  -14.1861 N   0  0  0  0  0  0  0  0  0  0  0  0
   26.4848  -21.5303  -12.9603 C   0  0  1  0  0  0  0  0  0  0  0  0
   27.2783  -20.8190  -11.9281 C   0  0  0  0  0  0  0  0  0  0  0  0
   26.6382  -20.5017  -10.6570 C   0  0  0  0  0  0  0  0  0  0  0  0
   26.3310  -21.5289   -9.7527 C   0  0  0  0  0  0  0  0  0  0  0  0
   25.7655  -21.2853   -8.5210 C   0  0  0  0  0  0  0  0  0  0  0  0
   25.4807  -19.9928   -8.1376 C   0  0  0  0  0  0  0  0  0  0  0  0
   25.7674  -18.9608   -8.9968 C   0  0  0  0  0  0  0  0  0  0  0  0
   26.3357  -19.2353  -10.2290 C   0  0  0  0  0  0  0  0  0  0  0  0
   25.2588  -20.8017  -13.3207 C   0  0  0  0  0  0  0  0  0  0  0  0
   25.3686  -19.7272  -14.0325 O   0  0  0  0  0  0  0  0  0  0  0  0
   22.0886  -22.3584  -14.6955 C   0  0  0  0  0  0  0  0  0  0  0  0
   22.4462  -20.8936  -14.8594 C   0  0  1  0  0  0  0  0  0  0  0  0
   21.2806  -20.0900  -15.3562 C   0  0  0  0  0  0  0  0  0  0  0  0
   22.8350  -20.3289  -13.4895 C   0  0  2  0  0  0  0  0  0  0  0  0
   23.9304  -21.1297  -12.9921 N   0  0  0  0  0  0  0  0  0  0  0  0
   21.7058  -20.3674  -12.5584 C   0  0  0  0  0  0  0  0  0  0  0  0
   21.5894  -21.1578  -11.4304 O   0  0  0  0  0  0  0  0  0  0  0  0
   20.6838  -19.6075  -12.7601 O   0  0  0  0  0  0  0  0  0  0  0  0
  1  2  1  0
  3  4  2  0
  3  2  1  0
  5  3  1  0
  6  5  1  0
  6 14  1  0
  6  7  1  1
  8  7  1  0
  9  8  2  0
 10  9  1  0
 11 12  1  0
 11 10  2  0
 12 13  2  0
 13  8  1  0
 14 20  1  0
 15 14  2  0
 17 19  1  0
 17 16  1  1
 17 18  1  0
 19 21  1  0
 19 20  1  1
 21 23  2  0
 21 22  1  0
M  END
$$$$
