GFV.pdb
     RDKit          3D

 23 23  0  0  1  0  0  0  0  0999 V2000
   15.7548  -21.8143    0.7099 N   0  0  0  0  0  0  0  0  0  0  0  0
   15.4391  -20.7285    1.6005 C   0  0  0  0  0  0  0  0  0  0  0  0
   16.6856  -20.2439    2.2936 C   0  0  0  0  0  0  0  0  0  0  0  0
   17.7589  -20.8662    2.1206 O   0  0  0  0  0  0  0  0  0  0  0  0
   16.6677  -19.1049    3.1323 N   0  0  0  0  0  0  0  0  0  0  0  0
   17.9535  -18.5977    3.6707 C   0  0  1  0  0  0  0  0  0  0  0  0
   18.0732  -17.1716    3.2794 C   0  0  0  0  0  0  0  0  0  0  0  0
   19.1844  -16.7782    2.4212 C   0  0  0  0  0  0  0  0  0  0  0  0
   19.9171  -17.7561    1.7328 C   0  0  0  0  0  0  0  0  0  0  0  0
   20.9485  -17.4413    0.8765 C   0  0  0  0  0  0  0  0  0  0  0  0
   21.2942  -16.1235    0.6702 C   0  0  0  0  0  0  0  0  0  0  0  0
   20.5993  -15.1380    1.3271 C   0  0  0  0  0  0  0  0  0  0  0  0
   19.5670  -15.4839    2.1823 C   0  0  0  0  0  0  0  0  0  0  0  0
   17.9084  -18.7729    5.1305 C   0  0  0  0  0  0  0  0  0  0  0  0
   16.7549  -18.7627    5.7159 O   0  0  0  0  0  0  0  0  0  0  0  0
   21.2249  -18.8996    7.6853 C   0  0  0  0  0  0  0  0  0  0  0  0
   19.9960  -19.7075    8.0561 C   0  0  1  0  0  0  0  0  0  0  0  0
   19.7827  -19.7436    9.5409 C   0  0  0  0  0  0  0  0  0  0  0  0
   18.7652  -19.0374    7.4376 C   0  0  2  0  0  0  0  0  0  0  0  0
   18.9885  -18.9661    6.0115 N   0  0  0  0  0  0  0  0  0  0  0  0
   18.5532  -17.6991    7.9922 C   0  0  0  0  0  0  0  0  0  0  0  0
   17.8431  -17.3791    9.1343 O   0  0  0  0  0  0  0  0  0  0  0  0
   19.0565  -16.6723    7.3965 O   0  0  0  0  0  0  0  0  0  0  0  0
  1  2  1  0
  3  4  2  0
  3  2  1  0
  5  3  1  0
  6  5  1  0
  6 14  1  0
  6  7  1  1
  8  7  1  0
  9  8  2  0
 10  9  1  0
 11 12  1  0
 11 10  2  0
 12 13  2  0
 13  8  1  0
 14 20  1  0
 15 14  2  0
 17 19  1  0
 17 16  1  1
 17 18  1  0
 19 21  1  0
 19 20  1  6
 21 23  2  0
 21 22  1  0
M  END
$$$$
