PPQ.pdb
     RDKit          3D

 24 25  0  0  1  0  0  0  0  0999 V2000
    8.6337  -14.4559   21.3073 N   0  0  0  0  0  0  0  0  0  0  0  0
    7.9646  -15.2071   20.2858 C   0  0  0  0  0  0  0  0  0  0  0  0
    6.9753  -16.0529   21.0759 C   0  0  0  0  0  0  0  0  0  0  0  0
    6.5669  -15.1047   22.1906 C   0  0  0  0  0  0  0  0  0  0  0  0
    7.7425  -14.1521   22.3751 C   0  0  1  0  0  0  0  0  0  0  0  0
    8.3494  -14.4295   23.7047 C   0  0  0  0  0  0  0  0  0  0  0  0
    9.1249  -15.4006   23.7529 O   0  0  0  0  0  0  0  0  0  0  0  0
    8.0505  -13.6399   24.7967 N   0  0  0  0  0  0  0  0  0  0  0  0
    7.6319  -12.2193   24.6534 C   0  0  0  0  0  0  0  0  0  0  0  0
    6.3568  -12.2683   25.4687 C   0  0  0  0  0  0  0  0  0  0  0  0
    6.5442  -13.4277   26.4610 C   0  0  0  0  0  0  0  0  0  0  0  0
    8.0091  -13.7669   26.2113 C   0  0  1  0  0  0  0  0  0  0  0  0
    8.4631  -14.9565   26.8661 C   0  0  0  0  0  0  0  0  0  0  0  0
    7.6981  -15.9025   27.1669 O   0  0  0  0  0  0  0  0  0  0  0  0
   12.0298  -19.1329   25.1556 N   0  0  0  0  0  0  0  0  0  0  0  0
   12.2396  -19.3276   26.5422 C   0  0  0  0  0  0  0  0  0  0  0  0
   12.6915  -20.4381   26.9012 O   0  0  0  0  0  0  0  0  0  0  0  0
   11.9476  -18.2932   27.5300 C   0  0  0  0  0  0  0  0  0  0  0  0
   11.4398  -16.9960   26.9994 C   0  0  0  0  0  0  0  0  0  0  0  0
   10.3145  -16.4205   27.7793 C   0  0  2  0  0  0  0  0  0  0  0  0
    9.8221  -15.1749   27.2357 N   0  0  0  0  0  0  0  0  0  0  0  0
   10.6619  -16.2186   29.1960 C   0  0  0  0  0  0  0  0  0  0  0  0
   10.7354  -15.1048   29.7659 O   0  0  0  0  0  0  0  0  0  0  0  0
   10.9433  -17.3212   30.0242 O   0  0  0  0  0  0  0  0  0  0  0  0
  1  5  1  0
  1  2  1  0
  2  3  1  0
  4  3  1  0
  5  4  1  0
  6  8  1  0
  5  6  1  1
  7  6  2  0
  8 12  1  0
  9  8  1  0
  9 10  1  0
 10 11  1  0
 12 11  1  0
 12 13  1  6
 13 14  2  0
 16 15  1  0
 16 17  2  0
 18 16  1  0
 19 18  1  0
 20 19  1  6
 20 21  1  0
 21 13  1  0
 22 20  1  0
 22 24  1  0
 23 22  2  0
M  END
$$$$
