PPQ.pdb
     RDKit          3D

 24 25  0  0  1  0  0  0  0  0999 V2000
    8.9821  -13.6470   20.8866 N   0  0  0  0  0  0  0  0  0  0  0  0
    8.3362  -13.8109   19.6171 C   0  0  0  0  0  0  0  0  0  0  0  0
    6.9904  -14.4153   19.9937 C   0  0  0  0  0  0  0  0  0  0  0  0
    6.6809  -13.7092   21.3029 C   0  0  0  0  0  0  0  0  0  0  0  0
    8.0319  -13.3304   21.8984 C   0  0  1  0  0  0  0  0  0  0  0  0
    8.2327  -14.1448   23.1270 C   0  0  0  0  0  0  0  0  0  0  0  0
    8.7567  -15.2598   22.9568 O   0  0  0  0  0  0  0  0  0  0  0  0
    7.8510  -13.6646   24.3635 N   0  0  0  0  0  0  0  0  0  0  0  0
    7.5645  -12.2234   24.5971 C   0  0  0  0  0  0  0  0  0  0  0  0
    6.1916  -12.3565   25.2220 C   0  0  0  0  0  0  0  0  0  0  0  0
    6.1557  -13.7608   25.8469 C   0  0  0  0  0  0  0  0  0  0  0  0
    7.6108  -14.1773   25.6667 C   0  0  1  0  0  0  0  0  0  0  0  0
    7.8813  -15.5456   25.9905 C   0  0  0  0  0  0  0  0  0  0  0  0
    6.9767  -16.3923   26.1790 O   0  0  0  0  0  0  0  0  0  0  0  0
   12.5442  -18.8172   23.2884 N   0  0  0  0  0  0  0  0  0  0  0  0
   11.9883  -19.7037   24.2422 C   0  0  0  0  0  0  0  0  0  0  0  0
   12.4046  -20.8839   24.2360 O   0  0  0  0  0  0  0  0  0  0  0  0
   10.9711  -19.2829   25.2010 C   0  0  0  0  0  0  0  0  0  0  0  0
   10.5779  -17.8456   25.1604 C   0  0  0  0  0  0  0  0  0  0  0  0
    9.5041  -17.4831   26.1204 C   0  0  2  0  0  0  0  0  0  0  0  0
    9.1992  -16.0702   26.1282 N   0  0  0  0  0  0  0  0  0  0  0  0
    9.8148  -17.9118   27.4945 C   0  0  0  0  0  0  0  0  0  0  0  0
    9.9994  -19.0987   27.8523 O   0  0  0  0  0  0  0  0  0  0  0  0
    9.9260  -16.9634   28.5284 O   0  0  0  0  0  0  0  0  0  0  0  0
  1  5  1  0
  1  2  1  0
  2  3  1  0
  4  3  1  0
  5  4  1  0
  6  8  1  0
  5  6  1  1
  7  6  2  0
  8 12  1  0
  9  8  1  0
  9 10  1  0
 10 11  1  0
 12 11  1  0
 12 13  1  6
 13 14  2  0
 16 15  1  0
 16 17  2  0
 18 16  1  0
 19 18  1  0
 20 19  1  6
 20 21  1  0
 21 13  1  0
 22 20  1  0
 22 24  1  0
 23 22  2  0
M  END
$$$$
