PPQ.pdb
     RDKit          3D

 24 25  0  0  1  0  0  0  0  0999 V2000
    7.7882  -18.3980   18.8787 N   0  0  0  0  0  0  0  0  0  0  0  0
    7.0232  -19.5804   19.1476 C   0  0  0  0  0  0  0  0  0  0  0  0
    6.5020  -19.3373   20.5574 C   0  0  0  0  0  0  0  0  0  0  0  0
    6.2461  -17.8397   20.5469 C   0  0  0  0  0  0  0  0  0  0  0  0
    7.2009  -17.2639   19.5075 C   0  0  1  0  0  0  0  0  0  0  0  0
    8.2098  -16.4379   20.2237 C   0  0  0  0  0  0  0  0  0  0  0  0
    9.0850  -17.0694   20.8420 O   0  0  0  0  0  0  0  0  0  0  0  0
    8.1511  -15.0594   20.1849 N   0  0  0  0  0  0  0  0  0  0  0  0
    7.4866  -14.3282   19.0725 C   0  0  0  0  0  0  0  0  0  0  0  0
    6.5621  -13.4502   19.8896 C   0  0  0  0  0  0  0  0  0  0  0  0
    7.2386  -13.3014   21.2622 C   0  0  0  0  0  0  0  0  0  0  0  0
    8.5825  -13.9618   20.9774 C   0  0  1  0  0  0  0  0  0  0  0  0
    9.4058  -14.1553   22.1329 C   0  0  0  0  0  0  0  0  0  0  0  0
   10.3906  -13.4266   22.3970 O   0  0  0  0  0  0  0  0  0  0  0  0
    6.6316  -13.0228   28.3602 N   0  0  0  0  0  0  0  0  0  0  0  0
    6.9017  -13.1446   26.9757 C   0  0  0  0  0  0  0  0  0  0  0  0
    6.1492  -12.5258   26.1902 O   0  0  0  0  0  0  0  0  0  0  0  0
    8.0039  -13.9524   26.4623 C   0  0  0  0  0  0  0  0  0  0  0  0
    8.0817  -14.1007   24.9811 C   0  0  0  0  0  0  0  0  0  0  0  0
    9.1868  -14.9773   24.5163 C   0  0  2  0  0  0  0  0  0  0  0  0
    9.1829  -15.1906   23.0866 N   0  0  0  0  0  0  0  0  0  0  0  0
    9.1856  -16.2849   25.1937 C   0  0  0  0  0  0  0  0  0  0  0  0
    8.6717  -17.3315   24.7341 O   0  0  0  0  0  0  0  0  0  0  0  0
    9.7918  -16.4338   26.4552 O   0  0  0  0  0  0  0  0  0  0  0  0
  1  5  1  0
  1  2  1  0
  2  3  1  0
  4  3  1  0
  5  4  1  0
  6  8  1  0
  5  6  1  1
  7  6  2  0
  8 12  1  0
  9  8  1  0
  9 10  1  0
 10 11  1  0
 12 11  1  0
 12 13  1  1
 13 14  2  0
 16 15  1  0
 16 17  2  0
 18 16  1  0
 19 18  1  0
 20 19  1  1
 20 21  1  0
 21 13  1  0
 22 20  1  0
 22 24  1  0
 23 22  2  0
M  END
$$$$
