PPQ.pdb
     RDKit          3D

 24 25  0  0  1  0  0  0  0  0999 V2000
    8.4686  -14.1981   21.3117 N   0  0  0  0  0  0  0  0  0  0  0  0
    7.7355  -14.8365   20.2577 C   0  0  0  0  0  0  0  0  0  0  0  0
    6.6755  -15.6294   21.0101 C   0  0  0  0  0  0  0  0  0  0  0  0
    6.3528  -14.7048   22.1716 C   0  0  0  0  0  0  0  0  0  0  0  0
    7.6079  -13.8698   22.3971 C   0  0  1  0  0  0  0  0  0  0  0  0
    8.1883  -14.2645   23.7088 C   0  0  0  0  0  0  0  0  0  0  0  0
    8.8844  -15.2951   23.7037 O   0  0  0  0  0  0  0  0  0  0  0  0
    7.9505  -13.5129   24.8418 N   0  0  0  0  0  0  0  0  0  0  0  0
    7.5953  -12.0698   24.7722 C   0  0  0  0  0  0  0  0  0  0  0  0
    6.3376  -12.0980   25.6151 C   0  0  0  0  0  0  0  0  0  0  0  0
    6.4928  -13.3088   26.5498 C   0  0  0  0  0  0  0  0  0  0  0  0
    7.9346  -13.7023   26.2499 C   0  0  1  0  0  0  0  0  0  0  0  0
    8.3472  -14.9400   26.8399 C   0  0  0  0  0  0  0  0  0  0  0  0
    7.5484  -15.8700   27.1002 O   0  0  0  0  0  0  0  0  0  0  0  0
   12.6424  -16.7587   24.3070 N   0  0  0  0  0  0  0  0  0  0  0  0
   13.1204  -16.0950   25.4627 C   0  0  0  0  0  0  0  0  0  0  0  0
   14.1380  -15.3786   25.3304 O   0  0  0  0  0  0  0  0  0  0  0  0
   12.4720  -16.2262   26.7641 C   0  0  0  0  0  0  0  0  0  0  0  0
   11.2530  -17.0828   26.8125 C   0  0  0  0  0  0  0  0  0  0  0  0
   10.1518  -16.5246   27.6381 C   0  0  2  0  0  0  0  0  0  0  0  0
    9.6996  -15.2287   27.1848 N   0  0  0  0  0  0  0  0  0  0  0  0
   10.5128  -16.4324   29.0628 C   0  0  0  0  0  0  0  0  0  0  0  0
   10.4937  -15.3792   29.7420 O   0  0  0  0  0  0  0  0  0  0  0  0
   10.9180  -17.5796   29.7704 O   0  0  0  0  0  0  0  0  0  0  0  0
  1  5  1  0
  1  2  1  0
  2  3  1  0
  4  3  1  0
  5  4  1  0
  6  8  1  0
  5  6  1  1
  7  6  2  0
  8 12  1  0
  9  8  1  0
  9 10  1  0
 10 11  1  0
 12 11  1  0
 12 13  1  6
 13 14  2  0
 16 15  1  0
 16 17  2  0
 18 16  1  0
 19 18  1  0
 20 19  1  6
 20 21  1  0
 21 13  1  0
 22 20  1  0
 22 24  1  0
 23 22  2  0
M  END
$$$$
