PPQ.pdb
     RDKit          3D

 24 25  0  0  1  0  0  0  0  0999 V2000
    8.7770  -14.3567   20.9224 N   0  0  0  0  0  0  0  0  0  0  0  0
    8.0406  -14.6882   19.7377 C   0  0  0  0  0  0  0  0  0  0  0  0
    6.8039  -15.3855   20.2877 C   0  0  0  0  0  0  0  0  0  0  0  0
    6.5411  -14.6048   21.5644 C   0  0  0  0  0  0  0  0  0  0  0  0
    7.8935  -14.0491   21.9954 C   0  0  1  0  0  0  0  0  0  0  0  0
    8.2867  -14.7342   23.2561 C   0  0  0  0  0  0  0  0  0  0  0  0
    8.8397  -15.8399   23.1206 O   0  0  0  0  0  0  0  0  0  0  0  0
    8.0398  -14.1527   24.4833 N   0  0  0  0  0  0  0  0  0  0  0  0
    7.8379  -12.6865   24.6363 C   0  0  0  0  0  0  0  0  0  0  0  0
    6.5229  -12.7089   25.3869 C   0  0  0  0  0  0  0  0  0  0  0  0
    6.4835  -14.0639   26.1124 C   0  0  0  0  0  0  0  0  0  0  0  0
    7.8970  -14.5629   25.8361 C   0  0  1  0  0  0  0  0  0  0  0  0
    8.1367  -15.9176   26.2330 C   0  0  0  0  0  0  0  0  0  0  0  0
    7.2500  -16.8027   26.2039 O   0  0  0  0  0  0  0  0  0  0  0  0
   13.0399  -19.4024   24.5913 N   0  0  0  0  0  0  0  0  0  0  0  0
   12.3587  -20.1889   25.5514 C   0  0  0  0  0  0  0  0  0  0  0  0
   12.7433  -21.3707   25.6987 O   0  0  0  0  0  0  0  0  0  0  0  0
   11.2513  -19.6666   26.3464 C   0  0  0  0  0  0  0  0  0  0  0  0
   10.8571  -18.2532   26.0838 C   0  0  0  0  0  0  0  0  0  0  0  0
    9.7132  -17.7799   26.9044 C   0  0  2  0  0  0  0  0  0  0  0  0
    9.4012  -16.3839   26.6965 N   0  0  0  0  0  0  0  0  0  0  0  0
    9.9234  -18.0128   28.3432 C   0  0  0  0  0  0  0  0  0  0  0  0
   10.2394  -17.1302   29.1751 O   0  0  0  0  0  0  0  0  0  0  0  0
    9.7727  -19.3029   28.8852 O   0  0  0  0  0  0  0  0  0  0  0  0
  1  5  1  0
  1  2  1  0
  2  3  1  0
  4  3  1  0
  5  4  1  0
  6  8  1  0
  5  6  1  1
  7  6  2  0
  8 12  1  0
  9  8  1  0
  9 10  1  0
 10 11  1  0
 12 11  1  0
 12 13  1  6
 13 14  2  0
 16 15  1  0
 16 17  2  0
 18 16  1  0
 19 18  1  0
 20 19  1  6
 20 21  1  0
 21 13  1  0
 22 20  1  0
 22 24  1  0
 23 22  2  0
M  END
$$$$
