PPQ.pdb
     RDKit          3D

 24 25  0  0  1  0  0  0  0  0999 V2000
    8.6197  -13.4589   21.0690 N   0  0  0  0  0  0  0  0  0  0  0  0
    7.9924  -13.9062   19.8599 C   0  0  0  0  0  0  0  0  0  0  0  0
    6.9826  -14.9314   20.3576 C   0  0  0  0  0  0  0  0  0  0  0  0
    6.5285  -14.3174   21.6710 C   0  0  0  0  0  0  0  0  0  0  0  0
    7.6895  -13.4519   22.1467 C   0  0  1  0  0  0  0  0  0  0  0  0
    8.2519  -14.0781   23.3734 C   0  0  0  0  0  0  0  0  0  0  0  0
    9.0377  -15.0237   23.1860 O   0  0  0  0  0  0  0  0  0  0  0  0
    7.9039  -13.6154   24.6263 N   0  0  0  0  0  0  0  0  0  0  0  0
    7.3948  -12.2345   24.8451 C   0  0  0  0  0  0  0  0  0  0  0  0
    6.1262  -12.5703   25.6006 C   0  0  0  0  0  0  0  0  0  0  0  0
    6.3884  -13.9315   26.2657 C   0  0  0  0  0  0  0  0  0  0  0  0
    7.8719  -14.1034   25.9604 C   0  0  1  0  0  0  0  0  0  0  0  0
    8.4019  -15.3905   26.2958 C   0  0  0  0  0  0  0  0  0  0  0  0
    7.6858  -16.4123   26.4130 O   0  0  0  0  0  0  0  0  0  0  0  0
   13.7385  -17.5264   24.0064 N   0  0  0  0  0  0  0  0  0  0  0  0
   13.5590  -16.3123   24.7122 C   0  0  0  0  0  0  0  0  0  0  0  0
   14.3907  -15.4010   24.5020 O   0  0  0  0  0  0  0  0  0  0  0  0
   12.4597  -16.1087   25.6508 C   0  0  0  0  0  0  0  0  0  0  0  0
   11.4831  -17.2276   25.7787 C   0  0  0  0  0  0  0  0  0  0  0  0
   10.3559  -16.9461   26.7040 C   0  0  2  0  0  0  0  0  0  0  0  0
    9.7879  -15.6288   26.5268 N   0  0  0  0  0  0  0  0  0  0  0  0
   10.7365  -17.1157   28.1164 C   0  0  0  0  0  0  0  0  0  0  0  0
   11.2457  -18.1521   28.6037 O   0  0  0  0  0  0  0  0  0  0  0  0
   10.5380  -16.0704   29.0378 O   0  0  0  0  0  0  0  0  0  0  0  0
  1  5  1  0
  1  2  1  0
  2  3  1  0
  4  3  1  0
  5  4  1  0
  6  8  1  0
  5  6  1  1
  7  6  2  0
  8 12  1  0
  9  8  1  0
  9 10  1  0
 10 11  1  0
 12 11  1  0
 12 13  1  6
 13 14  2  0
 16 15  1  0
 16 17  2  0
 18 16  1  0
 19 18  1  0
 20 19  1  6
 20 21  1  0
 21 13  1  0
 22 20  1  0
 22 24  1  0
 23 22  2  0
M  END
$$$$
