PPQ.pdb
     RDKit          3D

 24 25  0  0  1  0  0  0  0  0999 V2000
    9.4586  -17.9936   18.7414 N   0  0  0  0  0  0  0  0  0  0  0  0
    8.9344  -19.2866   18.4112 C   0  0  0  0  0  0  0  0  0  0  0  0
    7.8827  -19.5145   19.4884 C   0  0  0  0  0  0  0  0  0  0  0  0
    7.3211  -18.1164   19.6840 C   0  0  0  0  0  0  0  0  0  0  0  0
    8.4406  -17.1612   19.2868 C   0  0  1  0  0  0  0  0  0  0  0  0
    8.8950  -16.4558   20.5152 C   0  0  0  0  0  0  0  0  0  0  0  0
    9.6123  -17.1188   21.2852 O   0  0  0  0  0  0  0  0  0  0  0  0
    8.5267  -15.1476   20.7563 N   0  0  0  0  0  0  0  0  0  0  0  0
    8.0965  -14.2341   19.6635 C   0  0  0  0  0  0  0  0  0  0  0  0
    6.7802  -13.7706   20.2514 C   0  0  0  0  0  0  0  0  0  0  0  0
    6.9303  -13.9231   21.7739 C   0  0  0  0  0  0  0  0  0  0  0  0
    8.4111  -14.2715   21.8689 C   0  0  1  0  0  0  0  0  0  0  0  0
    8.8460  -14.6648   23.1752 C   0  0  0  0  0  0  0  0  0  0  0  0
    9.9440  -14.3086   23.6632 O   0  0  0  0  0  0  0  0  0  0  0  0
    7.5223  -11.9218   27.5394 N   0  0  0  0  0  0  0  0  0  0  0  0
    6.5329  -12.5603   26.7533 C   0  0  0  0  0  0  0  0  0  0  0  0
    5.4051  -12.0198   26.7048 O   0  0  0  0  0  0  0  0  0  0  0  0
    6.7926  -13.7972   26.0228 C   0  0  0  0  0  0  0  0  0  0  0  0
    8.1266  -14.4260   26.2397 C   0  0  0  0  0  0  0  0  0  0  0  0
    8.3506  -15.6623   25.4476 C   0  0  2  0  0  0  0  0  0  0  0  0
    8.0738  -15.4949   24.0388 N   0  0  0  0  0  0  0  0  0  0  0  0
    7.5674  -16.8012   25.9557 C   0  0  0  0  0  0  0  0  0  0  0  0
    6.6506  -17.3800   25.3270 O   0  0  0  0  0  0  0  0  0  0  0  0
    7.8208  -17.3243   27.2374 O   0  0  0  0  0  0  0  0  0  0  0  0
  1  5  1  0
  1  2  1  0
  2  3  1  0
  4  3  1  0
  5  4  1  0
  6  8  1  0
  5  6  1  1
  7  6  2  0
  8 12  1  0
  9  8  1  0
  9 10  1  0
 10 11  1  0
 12 11  1  0
 12 13  1  1
 13 14  2  0
 16 15  1  0
 16 17  2  0
 18 16  1  0
 19 18  1  0
 20 19  1  1
 20 21  1  0
 21 13  1  0
 22 20  1  0
 22 24  1  0
 23 22  2  0
M  END
$$$$
