PPQ.pdb
     RDKit          3D

 24 25  0  0  1  0  0  0  0  0999 V2000
    9.1515  -14.3792   21.5394 N   0  0  0  0  0  0  0  0  0  0  0  0
    8.6036  -14.6525   20.2429 C   0  0  0  0  0  0  0  0  0  0  0  0
    7.1535  -14.9999   20.5509 C   0  0  0  0  0  0  0  0  0  0  0  0
    6.8398  -14.0596   21.7023 C   0  0  0  0  0  0  0  0  0  0  0  0
    8.1744  -13.7795   22.3833 C   0  0  1  0  0  0  0  0  0  0  0  0
    8.1392  -14.4085   23.7310 C   0  0  0  0  0  0  0  0  0  0  0  0
    8.5918  -15.5649   23.7998 O   0  0  0  0  0  0  0  0  0  0  0  0
    7.6300  -13.7253   24.8168 N   0  0  0  0  0  0  0  0  0  0  0  0
    7.5946  -12.2387   24.8689 C   0  0  0  0  0  0  0  0  0  0  0  0
    6.1287  -12.0514   25.1990 C   0  0  0  0  0  0  0  0  0  0  0  0
    5.6968  -13.3431   25.9125 C   0  0  0  0  0  0  0  0  0  0  0  0
    7.0479  -14.0292   26.0769 C   0  0  1  0  0  0  0  0  0  0  0  0
    6.9754  -15.3756   26.5587 C   0  0  0  0  0  0  0  0  0  0  0  0
    5.9952  -15.8163   27.2034 O   0  0  0  0  0  0  0  0  0  0  0  0
    5.6775  -20.4960   24.3728 N   0  0  0  0  0  0  0  0  0  0  0  0
    6.7685  -19.7692   23.8382 C   0  0  0  0  0  0  0  0  0  0  0  0
    7.0712  -19.9891   22.6439 O   0  0  0  0  0  0  0  0  0  0  0  0
    7.5242  -18.8005   24.6267 C   0  0  0  0  0  0  0  0  0  0  0  0
    7.0448  -18.5618   26.0178 C   0  0  0  0  0  0  0  0  0  0  0  0
    7.9414  -17.6991   26.8288 C   0  0  2  0  0  0  0  0  0  0  0  0
    8.0073  -16.3365   26.3509 N   0  0  0  0  0  0  0  0  0  0  0  0
    9.3080  -18.2403   26.9172 C   0  0  0  0  0  0  0  0  0  0  0  0
    9.6084  -19.3572   27.4002 O   0  0  0  0  0  0  0  0  0  0  0  0
   10.4018  -17.4940   26.4402 O   0  0  0  0  0  0  0  0  0  0  0  0
  1  5  1  0
  1  2  1  0
  2  3  1  0
  4  3  1  0
  5  4  1  0
  6  8  1  0
  5  6  1  1
  7  6  2  0
  8 12  1  0
  9  8  1  0
  9 10  1  0
 10 11  1  0
 12 11  1  0
 12 13  1  6
 13 14  2  0
 16 15  1  0
 16 17  2  0
 18 16  1  0
 19 18  1  0
 20 19  1  6
 20 21  1  0
 21 13  1  0
 22 20  1  0
 22 24  1  0
 23 22  2  0
M  END
$$$$
