PPQ.pdb
     RDKit          3D

 24 25  0  0  1  0  0  0  0  0999 V2000
    7.3727  -14.3657   18.8277 N   0  0  0  0  0  0  0  0  0  0  0  0
    7.5634  -13.1645   18.0686 C   0  0  0  0  0  0  0  0  0  0  0  0
    8.3588  -12.2812   19.0202 C   0  0  0  0  0  0  0  0  0  0  0  0
    9.2493  -13.2926   19.7219 C   0  0  0  0  0  0  0  0  0  0  0  0
    8.4968  -14.6169   19.6644 C   0  0  1  0  0  0  0  0  0  0  0  0
    8.0920  -14.9715   21.0514 C   0  0  0  0  0  0  0  0  0  0  0  0
    7.5809  -14.0533   21.7167 O   0  0  0  0  0  0  0  0  0  0  0  0
    8.2847  -16.2481   21.5395 N   0  0  0  0  0  0  0  0  0  0  0  0
    7.9326  -17.4578   20.7480 C   0  0  0  0  0  0  0  0  0  0  0  0
    9.2554  -18.1892   20.8385 C   0  0  0  0  0  0  0  0  0  0  0  0
    9.9207  -17.6833   22.1290 C   0  0  0  0  0  0  0  0  0  0  0  0
    8.7804  -16.8629   22.7206 C   0  0  1  0  0  0  0  0  0  0  0  0
    9.1404  -16.0876   23.8693 C   0  0  0  0  0  0  0  0  0  0  0  0
   10.2847  -15.6033   24.0324 O   0  0  0  0  0  0  0  0  0  0  0  0
    5.3052  -12.3789   26.9045 N   0  0  0  0  0  0  0  0  0  0  0  0
    6.3549  -12.0213   26.0243 C   0  0  0  0  0  0  0  0  0  0  0  0
    6.2935  -10.8906   25.4914 O   0  0  0  0  0  0  0  0  0  0  0  0
    7.4709  -12.9165   25.7340 C   0  0  0  0  0  0  0  0  0  0  0  0
    7.5924  -14.1245   26.5988 C   0  0  0  0  0  0  0  0  0  0  0  0
    8.6139  -15.0996   26.1389 C   0  0  2  0  0  0  0  0  0  0  0  0
    8.2346  -15.7955   24.9301 N   0  0  0  0  0  0  0  0  0  0  0  0
    8.9470  -16.0910   27.1756 C   0  0  0  0  0  0  0  0  0  0  0  0
    9.4827  -15.8259   28.2773 O   0  0  0  0  0  0  0  0  0  0  0  0
    8.6670  -17.4552   26.9725 O   0  0  0  0  0  0  0  0  0  0  0  0
  1  5  1  0
  1  2  1  0
  2  3  1  0
  4  3  1  0
  5  4  1  0
  6  8  1  0
  5  6  1  1
  7  6  2  0
  8 12  1  0
  9  8  1  0
  9 10  1  0
 10 11  1  0
 12 11  1  0
 12 13  1  1
 13 14  2  0
 16 15  1  0
 16 17  2  0
 18 16  1  0
 19 18  1  0
 20 19  1  1
 20 21  1  0
 21 13  1  0
 22 20  1  0
 22 24  1  0
 23 22  2  0
M  END
$$$$
