PPQ.pdb
     RDKit          3D

 24 25  0  0  1  0  0  0  0  0999 V2000
    7.8214  -14.8636   19.2006 N   0  0  0  0  0  0  0  0  0  0  0  0
    7.4039  -13.7492   18.4008 C   0  0  0  0  0  0  0  0  0  0  0  0
    7.3664  -12.6038   19.4033 C   0  0  0  0  0  0  0  0  0  0  0  0
    8.5453  -12.9318   20.3038 C   0  0  0  0  0  0  0  0  0  0  0  0
    8.7230  -14.4434   20.2191 C   0  0  1  0  0  0  0  0  0  0  0  0
    8.3734  -15.0183   21.5459 C   0  0  0  0  0  0  0  0  0  0  0  0
    7.5208  -14.3913   22.1991 O   0  0  0  0  0  0  0  0  0  0  0  0
    8.9752  -16.1765   21.9950 N   0  0  0  0  0  0  0  0  0  0  0  0
    9.0257  -17.4123   21.1681 C   0  0  0  0  0  0  0  0  0  0  0  0
   10.5152  -17.6771   21.2346 C   0  0  0  0  0  0  0  0  0  0  0  0
   10.9947  -17.0189   22.5387 C   0  0  0  0  0  0  0  0  0  0  0  0
    9.6567  -16.6299   23.1564 C   0  0  1  0  0  0  0  0  0  0  0  0
    9.7586  -15.8121   24.3273 C   0  0  0  0  0  0  0  0  0  0  0  0
   10.7016  -15.0086   24.5167 O   0  0  0  0  0  0  0  0  0  0  0  0
    6.2387  -10.8756   25.9169 N   0  0  0  0  0  0  0  0  0  0  0  0
    6.2946  -12.2607   26.2049 C   0  0  0  0  0  0  0  0  0  0  0  0
    5.2601  -12.7898   26.6697 O   0  0  0  0  0  0  0  0  0  0  0  0
    7.4963  -13.0582   25.9793 C   0  0  0  0  0  0  0  0  0  0  0  0
    7.6800  -14.2432   26.8648 C   0  0  0  0  0  0  0  0  0  0  0  0
    8.9064  -15.0303   26.5784 C   0  0  2  0  0  0  0  0  0  0  0  0
    8.8010  -15.8355   25.3826 N   0  0  0  0  0  0  0  0  0  0  0  0
    9.2900  -15.8973   27.7052 C   0  0  0  0  0  0  0  0  0  0  0  0
    9.1947  -17.1470   27.7148 O   0  0  0  0  0  0  0  0  0  0  0  0
    9.8094  -15.3393   28.8883 O   0  0  0  0  0  0  0  0  0  0  0  0
  1  5  1  0
  1  2  1  0
  2  3  1  0
  4  3  1  0
  5  4  1  0
  6  8  1  0
  5  6  1  1
  7  6  2  0
  8 12  1  0
  9  8  1  0
  9 10  1  0
 10 11  1  0
 12 11  1  0
 12 13  1  1
 13 14  2  0
 16 15  1  0
 16 17  2  0
 18 16  1  0
 19 18  1  0
 20 19  1  1
 20 21  1  0
 21 13  1  0
 22 20  1  0
 22 24  1  0
 23 22  2  0
M  END
$$$$
