PPQ.pdb
     RDKit          3D

 24 25  0  0  1  0  0  0  0  0999 V2000
    8.8557  -16.4945   16.7079 N   0  0  0  0  0  0  0  0  0  0  0  0
    8.0891  -17.5081   16.0441 C   0  0  0  0  0  0  0  0  0  0  0  0
    7.1672  -18.0152   17.1447 C   0  0  0  0  0  0  0  0  0  0  0  0
    6.8713  -16.7435   17.9215 C   0  0  0  0  0  0  0  0  0  0  0  0
    8.0682  -15.8287   17.6894 C   0  0  1  0  0  0  0  0  0  0  0  0
    8.7905  -15.6865   18.9821 C   0  0  0  0  0  0  0  0  0  0  0  0
    9.6106  -16.5840   19.2447 O   0  0  0  0  0  0  0  0  0  0  0  0
    8.5438  -14.6143   19.8155 N   0  0  0  0  0  0  0  0  0  0  0  0
    8.2577  -13.2530   19.2875 C   0  0  0  0  0  0  0  0  0  0  0  0
    6.9685  -12.9795   20.0332 C   0  0  0  0  0  0  0  0  0  0  0  0
    7.0320  -13.8461   21.3016 C   0  0  0  0  0  0  0  0  0  0  0  0
    8.4648  -14.3583   21.2109 C   0  0  1  0  0  0  0  0  0  0  0  0
    8.7974  -15.3652   22.1731 C   0  0  0  0  0  0  0  0  0  0  0  0
    7.9328  -16.0449   22.7740 O   0  0  0  0  0  0  0  0  0  0  0  0
   12.9566  -19.8415   21.8198 N   0  0  0  0  0  0  0  0  0  0  0  0
   11.6367  -19.6097   21.3628 C   0  0  0  0  0  0  0  0  0  0  0  0
   11.2259  -20.3208   20.4184 O   0  0  0  0  0  0  0  0  0  0  0  0
   10.7734  -18.5901   21.9512 C   0  0  0  0  0  0  0  0  0  0  0  0
   11.3830  -17.7391   23.0125 C   0  0  0  0  0  0  0  0  0  0  0  0
   10.4827  -16.6775   23.5304 C   0  0  2  0  0  0  0  0  0  0  0  0
   10.1376  -15.6870   22.5358 N   0  0  0  0  0  0  0  0  0  0  0  0
   11.0431  -15.9952   24.7089 C   0  0  0  0  0  0  0  0  0  0  0  0
   11.3929  -14.7921   24.7436 O   0  0  0  0  0  0  0  0  0  0  0  0
   11.2239  -16.6938   25.9172 O   0  0  0  0  0  0  0  0  0  0  0  0
  1  5  1  0
  1  2  1  0
  2  3  1  0
  4  3  1  0
  5  4  1  0
  6  8  1  0
  5  6  1  1
  7  6  2  0
  8 12  1  0
  9  8  1  0
  9 10  1  0
 10 11  1  0
 12 11  1  0
 12 13  1  1
 13 14  2  0
 16 15  1  0
 16 17  2  0
 18 16  1  0
 19 18  1  0
 20 19  1  6
 20 21  1  0
 21 13  1  0
 22 20  1  0
 22 24  1  0
 23 22  2  0
M  END
$$$$
