WVV.pdb
     RDKit          3D

 29 30  0  0  1  0  0  0  0  0999 V2000
   28.5549  -21.0214  -15.6491 N   0  0  0  0  0  0  0  0  0  0  0  0
   27.6635  -20.0746  -15.0141 C   0  0  1  0  0  0  0  0  0  0  0  0
   26.8650  -19.4133  -16.1216 C   0  0  0  0  0  0  0  0  0  0  0  0
   27.6355  -18.3075  -16.7461 C   0  0  0  0  0  0  0  0  0  0  0  0
   28.3057  -18.2721  -17.9534 C   0  0  0  0  0  0  0  0  0  0  0  0
   28.8597  -17.0695  -18.1077 N   0  0  0  0  0  0  0  0  0  0  0  0
   28.6007  -16.2743  -17.0592 C   0  0  0  0  0  0  0  0  0  0  0  0
   28.9519  -14.9616  -16.7623 C   0  0  0  0  0  0  0  0  0  0  0  0
   28.5050  -14.4401  -15.5666 C   0  0  0  0  0  0  0  0  0  0  0  0
   27.7390  -15.2064  -14.7086 C   0  0  0  0  0  0  0  0  0  0  0  0
   27.3904  -16.5091  -15.0030 C   0  0  0  0  0  0  0  0  0  0  0  0
   27.8368  -17.0346  -16.2010 C   0  0  0  0  0  0  0  0  0  0  0  0
   26.8081  -20.7917  -14.0602 C   0  0  0  0  0  0  0  0  0  0  0  0
   26.4740  -21.9778  -14.3337 O   0  0  0  0  0  0  0  0  0  0  0  0
   27.0487  -20.7885  -10.0673 C   0  0  0  0  0  0  0  0  0  0  0  0
   25.6570  -20.4587  -10.5285 C   0  0  2  0  0  0  0  0  0  0  0  0
   24.7134  -21.0606   -9.5179 C   0  0  0  0  0  0  0  0  0  0  0  0
   25.4540  -20.9957  -11.9284 C   0  0  2  0  0  0  0  0  0  0  0  0
   26.3258  -20.2626  -12.8562 N   0  0  0  0  0  0  0  0  0  0  0  0
   24.0754  -20.7045  -12.3486 C   0  0  0  0  0  0  0  0  0  0  0  0
   23.7279  -19.4745  -12.4344 O   0  0  0  0  0  0  0  0  0  0  0  0
   22.2072  -21.2366  -15.4499 C   0  0  0  0  0  0  0  0  0  0  0  0
   21.3172  -21.8181  -14.3890 C   0  0  1  0  0  0  0  0  0  0  0  0
   21.4056  -23.3198  -14.3571 C   0  0  0  0  0  0  0  0  0  0  0  0
   21.7137  -21.1947  -13.0548 C   0  0  2  0  0  0  0  0  0  0  0  0
   23.0613  -21.6245  -12.6822 N   0  0  0  0  0  0  0  0  0  0  0  0
   20.7376  -21.6861  -12.0584 C   0  0  0  0  0  0  0  0  0  0  0  0
   19.6508  -21.0987  -11.8771 O   0  0  0  0  0  0  0  0  0  0  0  0
   20.9956  -22.8065  -11.2991 O   0  0  0  0  0  0  0  0  0  0  0  0
  2  1  1  6
  2 13  1  0
  3  2  1  0
  4  3  1  0
  4 12  1  0
  5  6  1  0
  5  4  2  0
  6  7  1  0
  7 12  2  0
  7  8  1  0
  8  9  2  0
  9 10  1  0
 11 10  2  0
 12 11  1  0
 13 14  2  0
 16 17  1  1
 16 15  1  0
 16 18  1  0
 18 19  1  6
 19 13  1  0
 20 21  2  0
 20 18  1  0
 23 22  1  6
 23 25  1  0
 24 23  1  0
 25 26  1  1
 25 27  1  0
 26 20  1  0
 27 29  1  0
 28 27  2  0
M  END
$$$$
