WVV.pdb
     RDKit          3D

 29 30  0  0  1  0  0  0  0  0999 V2000
   24.4793  -15.1886  -19.1627 N   0  0  0  0  0  0  0  0  0  0  0  0
   23.4588  -14.7933  -18.2158 C   0  0  1  0  0  0  0  0  0  0  0  0
   23.8124  -15.4451  -16.8923 C   0  0  0  0  0  0  0  0  0  0  0  0
   23.7066  -16.9240  -16.9820 C   0  0  0  0  0  0  0  0  0  0  0  0
   24.7003  -17.8826  -16.9445 C   0  0  0  0  0  0  0  0  0  0  0  0
   24.1449  -19.0889  -17.0612 N   0  0  0  0  0  0  0  0  0  0  0  0
   22.8115  -19.0034  -17.1774 C   0  0  0  0  0  0  0  0  0  0  0  0
   21.8143  -19.9625  -17.3199 C   0  0  0  0  0  0  0  0  0  0  0  0
   20.5130  -19.5161  -17.4128 C   0  0  0  0  0  0  0  0  0  0  0  0
   20.2290  -18.1643  -17.3643 C   0  0  0  0  0  0  0  0  0  0  0  0
   21.2183  -17.2124  -17.2228 C   0  0  0  0  0  0  0  0  0  0  0  0
   22.5239  -17.6568  -17.1294 C   0  0  0  0  0  0  0  0  0  0  0  0
   23.4326  -13.3280  -18.1277 C   0  0  0  0  0  0  0  0  0  0  0  0
   24.5173  -12.7018  -18.2839 O   0  0  0  0  0  0  0  0  0  0  0  0
   21.7847  -10.9679  -20.3160 C   0  0  0  0  0  0  0  0  0  0  0  0
   21.2712  -10.6243  -18.9461 C   0  0  2  0  0  0  0  0  0  0  0  0
   21.0464   -9.1333  -18.9309 C   0  0  0  0  0  0  0  0  0  0  0  0
   22.2689  -11.0880  -17.9075 C   0  0  2  0  0  0  0  0  0  0  0  0
   22.2893  -12.5568  -17.8819 N   0  0  0  0  0  0  0  0  0  0  0  0
   21.7982  -10.6639  -16.5806 C   0  0  0  0  0  0  0  0  0  0  0  0
   20.6749  -11.1257  -16.1734 O   0  0  0  0  0  0  0  0  0  0  0  0
   22.3079   -9.0396  -12.0060 C   0  0  0  0  0  0  0  0  0  0  0  0
   22.9595   -9.3498  -13.3231 C   0  0  1  0  0  0  0  0  0  0  0  0
   23.7961  -10.5979  -13.2443 C   0  0  0  0  0  0  0  0  0  0  0  0
   21.8584   -9.4662  -14.3719 C   0  0  2  0  0  0  0  0  0  0  0  0
   22.4392   -9.7971  -15.6729 N   0  0  0  0  0  0  0  0  0  0  0  0
   21.2034   -8.1419  -14.4377 C   0  0  0  0  0  0  0  0  0  0  0  0
   20.3965   -7.7777  -13.5573 O   0  0  0  0  0  0  0  0  0  0  0  0
   21.4622   -7.2684  -15.4714 O   0  0  0  0  0  0  0  0  0  0  0  0
  2  1  1  6
  2 13  1  0
  3  2  1  0
  4  3  1  0
  4 12  1  0
  5  6  1  0
  5  4  2  0
  6  7  1  0
  7 12  2  0
  7  8  1  0
  8  9  2  0
  9 10  1  0
 11 10  2  0
 12 11  1  0
 13 14  2  0
 16 17  1  6
 16 15  1  0
 16 18  1  0
 18 19  1  1
 19 13  1  0
 20 21  2  0
 20 18  1  0
 23 22  1  1
 23 25  1  0
 24 23  1  0
 25 26  1  6
 25 27  1  0
 26 20  1  0
 27 29  1  0
 28 27  2  0
M  END
$$$$
