WVV.pdb
     RDKit          3D

 29 30  0  0  1  0  0  0  0  0999 V2000
   28.0226  -21.2091  -12.5903 N   0  0  0  0  0  0  0  0  0  0  0  0
   26.8216  -21.5392  -11.8535 C   0  0  1  0  0  0  0  0  0  0  0  0
   26.7543  -20.5866  -10.6748 C   0  0  0  0  0  0  0  0  0  0  0  0
   27.9311  -20.7572   -9.7846 C   0  0  0  0  0  0  0  0  0  0  0  0
   29.1263  -21.4089  -10.0184 C   0  0  0  0  0  0  0  0  0  0  0  0
   29.8946  -21.3100   -8.9335 N   0  0  0  0  0  0  0  0  0  0  0  0
   29.2810  -20.6184   -7.9619 C   0  0  0  0  0  0  0  0  0  0  0  0
   29.6660  -20.2565   -6.6753 C   0  0  0  0  0  0  0  0  0  0  0  0
   28.7681  -19.5258   -5.9262 C   0  0  0  0  0  0  0  0  0  0  0  0
   27.5378  -19.1753   -6.4496 C   0  0  0  0  0  0  0  0  0  0  0  0
   27.1557  -19.5342   -7.7264 C   0  0  0  0  0  0  0  0  0  0  0  0
   28.0537  -20.2668   -8.4798 C   0  0  0  0  0  0  0  0  0  0  0  0
   25.6635  -21.4061  -12.7463 C   0  0  0  0  0  0  0  0  0  0  0  0
   25.6250  -20.4171  -13.5296 O   0  0  0  0  0  0  0  0  0  0  0  0
   24.6803  -23.8000  -15.3191 C   0  0  0  0  0  0  0  0  0  0  0  0
   23.4296  -23.5734  -14.5174 C   0  0  2  0  0  0  0  0  0  0  0  0
   22.2756  -23.6593  -15.4844 C   0  0  0  0  0  0  0  0  0  0  0  0
   23.5215  -22.2364  -13.8151 C   0  0  2  0  0  0  0  0  0  0  0  0
   24.5839  -22.2970  -12.8022 N   0  0  0  0  0  0  0  0  0  0  0  0
   22.2697  -22.0045  -13.0793 C   0  0  0  0  0  0  0  0  0  0  0  0
   21.9884  -22.8042  -12.1191 O   0  0  0  0  0  0  0  0  0  0  0  0
   21.0515  -19.5089  -10.7941 C   0  0  0  0  0  0  0  0  0  0  0  0
   19.9630  -19.5726  -11.8270 C   0  0  1  0  0  0  0  0  0  0  0  0
   20.0507  -18.4220  -12.7925 C   0  0  0  0  0  0  0  0  0  0  0  0
   20.0692  -20.9199  -12.5337 C   0  0  2  0  0  0  0  0  0  0  0  0
   21.3165  -20.9891  -13.2946 N   0  0  0  0  0  0  0  0  0  0  0  0
   18.9151  -20.9997  -13.4550 C   0  0  0  0  0  0  0  0  0  0  0  0
   17.7575  -21.1807  -13.0235 O   0  0  0  0  0  0  0  0  0  0  0  0
   19.0798  -20.8769  -14.8174 O   0  0  0  0  0  0  0  0  0  0  0  0
  2  1  1  6
  2 13  1  0
  3  2  1  0
  4  3  1  0
  4 12  1  0
  5  6  1  0
  5  4  2  0
  6  7  1  0
  7 12  2  0
  7  8  1  0
  8  9  2  0
  9 10  1  0
 11 10  2  0
 12 11  1  0
 13 14  2  0
 16 17  1  6
 16 15  1  0
 16 18  1  0
 18 19  1  1
 19 13  1  0
 20 21  2  0
 20 18  1  0
 23 22  1  1
 23 25  1  0
 24 23  1  0
 25 26  1  6
 25 27  1  0
 26 20  1  0
 27 29  1  0
 28 27  2  0
M  END
$$$$
