WVV.pdb
     RDKit          3D

 29 30  0  0  1  0  0  0  0  0999 V2000
   26.9065  -21.2590  -11.8564 N   0  0  0  0  0  0  0  0  0  0  0  0
   25.9047  -20.9105  -10.8719 C   0  0  1  0  0  0  0  0  0  0  0  0
   26.4853  -19.7869  -10.0341 C   0  0  0  0  0  0  0  0  0  0  0  0
   27.7261  -20.2237   -9.3441 C   0  0  0  0  0  0  0  0  0  0  0  0
   28.7718  -20.9939   -9.8144 C   0  0  0  0  0  0  0  0  0  0  0  0
   29.6766  -21.1360   -8.8457 N   0  0  0  0  0  0  0  0  0  0  0  0
   29.3000  -20.4972   -7.7281 C   0  0  0  0  0  0  0  0  0  0  0  0
   29.8933  -20.3553   -6.4782 C   0  0  0  0  0  0  0  0  0  0  0  0
   29.2158  -19.6121   -5.5348 C   0  0  0  0  0  0  0  0  0  0  0  0
   27.9955  -19.0377   -5.8370 C   0  0  0  0  0  0  0  0  0  0  0  0
   27.4066  -19.1784   -7.0774 C   0  0  0  0  0  0  0  0  0  0  0  0
   28.0834  -19.9229   -8.0252 C   0  0  0  0  0  0  0  0  0  0  0  0
   24.6737  -20.5115  -11.5657 C   0  0  0  0  0  0  0  0  0  0  0  0
   24.6179  -19.3522  -12.0618 O   0  0  0  0  0  0  0  0  0  0  0  0
   23.6588  -19.6248  -14.1530 C   0  0  0  0  0  0  0  0  0  0  0  0
   22.7761  -20.8284  -13.9782 C   0  0  2  0  0  0  0  0  0  0  0  0
   21.6059  -20.6444  -14.9114 C   0  0  0  0  0  0  0  0  0  0  0  0
   22.3688  -20.9427  -12.5255 C   0  0  2  0  0  0  0  0  0  0  0  0
   23.5415  -21.3208  -11.7254 N   0  0  0  0  0  0  0  0  0  0  0  0
   21.4101  -22.0496  -12.3915 C   0  0  0  0  0  0  0  0  0  0  0  0
   21.7715  -23.2029  -12.8160 O   0  0  0  0  0  0  0  0  0  0  0  0
   17.6302  -21.8709  -10.4927 C   0  0  0  0  0  0  0  0  0  0  0  0
   18.4761  -23.1077  -10.3902 C   0  0  1  0  0  0  0  0  0  0  0  0
   17.6348  -24.3340  -10.1616 C   0  0  0  0  0  0  0  0  0  0  0  0
   19.3038  -23.2134  -11.6668 C   0  0  2  0  0  0  0  0  0  0  0  0
   20.1143  -22.0081  -11.8392 N   0  0  0  0  0  0  0  0  0  0  0  0
   18.3386  -23.3319  -12.7810 C   0  0  0  0  0  0  0  0  0  0  0  0
   17.8354  -22.3181  -13.3081 O   0  0  0  0  0  0  0  0  0  0  0  0
   17.9641  -24.5633  -13.2728 O   0  0  0  0  0  0  0  0  0  0  0  0
  2  1  1  6
  2 13  1  0
  3  2  1  0
  4  3  1  0
  4 12  1  0
  5  6  1  0
  5  4  2  0
  6  7  1  0
  7 12  2  0
  7  8  1  0
  8  9  2  0
  9 10  1  0
 11 10  2  0
 12 11  1  0
 13 14  2  0
 16 17  1  6
 16 15  1  0
 16 18  1  0
 18 19  1  1
 19 13  1  0
 20 21  2  0
 20 18  1  0
 23 22  1  6
 23 25  1  0
 24 23  1  0
 25 26  1  6
 25 27  1  0
 26 20  1  0
 27 29  1  0
 28 27  2  0
M  END
$$$$
