WVV.pdb
     RDKit          3D

 29 30  0  0  1  0  0  0  0  0999 V2000
   24.1505  -20.3158  -18.5126 N   0  0  0  0  0  0  0  0  0  0  0  0
   23.9877  -19.5760  -17.2795 C   0  0  1  0  0  0  0  0  0  0  0  0
   22.5203  -19.6648  -16.9052 C   0  0  0  0  0  0  0  0  0  0  0  0
   21.7213  -18.6500  -17.6388 C   0  0  0  0  0  0  0  0  0  0  0  0
   21.0101  -18.7712  -18.8167 C   0  0  0  0  0  0  0  0  0  0  0  0
   20.4448  -17.5989  -19.1054 N   0  0  0  0  0  0  0  0  0  0  0  0
   20.7355  -16.6749  -18.1778 C   0  0  0  0  0  0  0  0  0  0  0  0
   20.3869  -15.3355  -18.0401 C   0  0  0  0  0  0  0  0  0  0  0  0
   20.8707  -14.6641  -16.9371 C   0  0  0  0  0  0  0  0  0  0  0  0
   21.6697  -15.3127  -16.0145 C   0  0  0  0  0  0  0  0  0  0  0  0
   22.0157  -16.6419  -16.1510 C   0  0  0  0  0  0  0  0  0  0  0  0
   21.5321  -17.3177  -17.2556 C   0  0  0  0  0  0  0  0  0  0  0  0
   24.8621  -20.1600  -16.2547 C   0  0  0  0  0  0  0  0  0  0  0  0
   24.7949  -21.4041  -16.0521 O   0  0  0  0  0  0  0  0  0  0  0  0
   28.7110  -19.6915  -15.7538 C   0  0  0  0  0  0  0  0  0  0  0  0
   27.9916  -19.3558  -14.4777 C   0  0  2  0  0  0  0  0  0  0  0  0
   28.8961  -19.7799  -13.3481 C   0  0  0  0  0  0  0  0  0  0  0  0
   26.6496  -20.0542  -14.4620 C   0  0  2  0  0  0  0  0  0  0  0  0
   25.7769  -19.4425  -15.4733 N   0  0  0  0  0  0  0  0  0  0  0  0
   26.0052  -19.8058  -13.1639 C   0  0  0  0  0  0  0  0  0  0  0  0
   25.7334  -18.5919  -12.8584 O   0  0  0  0  0  0  0  0  0  0  0  0
   22.8369  -20.2188  -11.7870 C   0  0  0  0  0  0  0  0  0  0  0  0
   23.6764  -20.8660  -10.7229 C   0  0  1  0  0  0  0  0  0  0  0  0
   23.6011  -22.3669  -10.7978 C   0  0  0  0  0  0  0  0  0  0  0  0
   25.1054  -20.3577  -10.8831 C   0  0  2  0  0  0  0  0  0  0  0  0
   25.6339  -20.7528  -12.1885 N   0  0  0  0  0  0  0  0  0  0  0  0
   25.8973  -20.9940   -9.8083 C   0  0  0  0  0  0  0  0  0  0  0  0
   26.7269  -21.8912  -10.0643 O   0  0  0  0  0  0  0  0  0  0  0  0
   25.7453  -20.6176   -8.4916 O   0  0  0  0  0  0  0  0  0  0  0  0
  2  1  1  6
  2 13  1  0
  3  2  1  0
  4  3  1  0
  4 12  1  0
  5  6  1  0
  5  4  2  0
  6  7  1  0
  7 12  2  0
  7  8  1  0
  8  9  2  0
  9 10  1  0
 11 10  2  0
 12 11  1  0
 13 14  2  0
 16 17  1  1
 16 15  1  0
 16 18  1  0
 18 19  1  6
 19 13  1  0
 20 21  2  0
 20 18  1  0
 23 22  1  6
 23 25  1  0
 24 23  1  0
 25 26  1  6
 25 27  1  0
 26 20  1  0
 27 29  1  0
 28 27  2  0
M  END
$$$$
