WVV.pdb
     RDKit          3D

 29 30  0  0  1  0  0  0  0  0999 V2000
   25.6607  -29.1598  -18.7284 N   0  0  0  0  0  0  0  0  0  0  0  0
   26.3998  -29.4809  -17.5264 C   0  0  1  0  0  0  0  0  0  0  0  0
   25.8552  -28.5904  -16.4256 C   0  0  0  0  0  0  0  0  0  0  0  0
   26.2584  -27.1764  -16.6362 C   0  0  0  0  0  0  0  0  0  0  0  0
   25.4769  -26.0638  -16.8797 C   0  0  0  0  0  0  0  0  0  0  0  0
   26.2666  -24.9972  -17.0055 N   0  0  0  0  0  0  0  0  0  0  0  0
   27.5586  -25.3262  -16.8593 C   0  0  0  0  0  0  0  0  0  0  0  0
   28.7319  -24.5805  -16.9031 C   0  0  0  0  0  0  0  0  0  0  0  0
   29.9191  -25.2533  -16.7053 C   0  0  0  0  0  0  0  0  0  0  0  0
   29.9243  -26.6159  -16.4737 C   0  0  0  0  0  0  0  0  0  0  0  0
   28.7600  -27.3560  -16.4301 C   0  0  0  0  0  0  0  0  0  0  0  0
   27.5682  -26.6844  -16.6280 C   0  0  0  0  0  0  0  0  0  0  0  0
   26.2267  -30.9080  -17.2276 C   0  0  0  0  0  0  0  0  0  0  0  0
   25.3611  -31.5533  -17.8816 O   0  0  0  0  0  0  0  0  0  0  0  0
   28.9409  -33.4447  -17.4752 C   0  0  0  0  0  0  0  0  0  0  0  0
   28.3307  -33.6171  -16.1127 C   0  0  2  0  0  0  0  0  0  0  0  0
   28.4099  -35.0874  -15.7874 C   0  0  0  0  0  0  0  0  0  0  0  0
   26.9145  -33.0848  -16.1284 C   0  0  2  0  0  0  0  0  0  0  0  0
   26.9516  -31.6225  -16.2652 N   0  0  0  0  0  0  0  0  0  0  0  0
   26.2955  -33.3563  -14.8225 C   0  0  0  0  0  0  0  0  0  0  0  0
   26.7207  -32.6909  -13.8139 O   0  0  0  0  0  0  0  0  0  0  0  0
   22.6841  -33.2990  -13.3485 C   0  0  0  0  0  0  0  0  0  0  0  0
   23.2847  -34.6603  -13.1441 C   0  0  1  0  0  0  0  0  0  0  0  0
   22.8054  -35.6364  -14.1839 C   0  0  0  0  0  0  0  0  0  0  0  0
   24.8021  -34.5077  -13.1611 C   0  0  2  0  0  0  0  0  0  0  0  0
   25.2662  -34.2728  -14.5282 N   0  0  0  0  0  0  0  0  0  0  0  0
   25.3551  -35.7829  -12.6562 C   0  0  0  0  0  0  0  0  0  0  0  0
   25.8141  -36.6408  -13.4385 O   0  0  0  0  0  0  0  0  0  0  0  0
   25.3818  -36.0649  -11.3077 O   0  0  0  0  0  0  0  0  0  0  0  0
  2  1  1  6
  2 13  1  0
  3  2  1  0
  4  3  1  0
  4 12  1  0
  5  6  1  0
  5  4  2  0
  6  7  1  0
  7 12  2  0
  7  8  1  0
  8  9  2  0
  9 10  1  0
 11 10  2  0
 12 11  1  0
 13 14  2  0
 16 17  1  6
 16 15  1  0
 16 18  1  0
 18 19  1  1
 19 13  1  0
 20 21  2  0
 20 18  1  0
 23 22  1  6
 23 25  1  0
 24 23  1  0
 25 26  1  6
 25 27  1  0
 26 20  1  0
 27 29  1  0
 28 27  2  0
M  END
$$$$
