WVV.pdb
     RDKit          3D

 29 30  0  0  1  0  0  0  0  0999 V2000
   27.0282  -22.6323  -12.9082 N   0  0  0  0  0  0  0  0  0  0  0  0
   26.0718  -21.7000  -12.3511 C   0  0  1  0  0  0  0  0  0  0  0  0
   26.8390  -20.4370  -12.0083 C   0  0  0  0  0  0  0  0  0  0  0  0
   27.8112  -20.6852  -10.9130 C   0  0  0  0  0  0  0  0  0  0  0  0
   29.1189  -21.1253  -10.9780 C   0  0  0  0  0  0  0  0  0  0  0  0
   29.6121  -21.2056   -9.7420 N   0  0  0  0  0  0  0  0  0  0  0  0
   28.7012  -20.8401   -8.8280 C   0  0  0  0  0  0  0  0  0  0  0  0
   28.7392  -20.7579   -7.4400 C   0  0  0  0  0  0  0  0  0  0  0  0
   27.5954  -20.3326   -6.7980 C   0  0  0  0  0  0  0  0  0  0  0  0
   26.4642  -20.0049   -7.5216 C   0  0  0  0  0  0  0  0  0  0  0  0
   26.4264  -20.0864   -8.8989 C   0  0  0  0  0  0  0  0  0  0  0  0
   27.5715  -20.5124   -9.5453 C   0  0  0  0  0  0  0  0  0  0  0  0
   25.0112  -21.4592  -13.3375 C   0  0  0  0  0  0  0  0  0  0  0  0
   25.3106  -21.5212  -14.5621 O   0  0  0  0  0  0  0  0  0  0  0  0
   21.9612  -23.4641  -13.6892 C   0  0  0  0  0  0  0  0  0  0  0  0
   21.4839  -22.0423  -13.5936 C   0  0  2  0  0  0  0  0  0  0  0  0
   20.2551  -21.9404  -14.4618 C   0  0  0  0  0  0  0  0  0  0  0  0
   22.5968  -21.1116  -14.0230 C   0  0  2  0  0  0  0  0  0  0  0  0
   23.6773  -21.1628  -13.0289 N   0  0  0  0  0  0  0  0  0  0  0  0
   22.0899  -19.7315  -14.0029 C   0  0  0  0  0  0  0  0  0  0  0  0
   21.7684  -19.2333  -12.8674 O   0  0  0  0  0  0  0  0  0  0  0  0
   21.1317  -15.3096  -15.9825 C   0  0  0  0  0  0  0  0  0  0  0  0
   21.8403  -16.6288  -16.0990 C   0  0  1  0  0  0  0  0  0  0  0  0
   23.3341  -16.4518  -16.1285 C   0  0  0  0  0  0  0  0  0  0  0  0
   21.3922  -17.5032  -14.9325 C   0  0  2  0  0  0  0  0  0  0  0  0
   21.9107  -18.8610  -15.0967 N   0  0  0  0  0  0  0  0  0  0  0  0
   19.9139  -17.5233  -14.9702 C   0  0  0  0  0  0  0  0  0  0  0  0
   19.3000  -18.2392  -15.7883 O   0  0  0  0  0  0  0  0  0  0  0  0
   19.1675  -16.7537  -14.1048 O   0  0  0  0  0  0  0  0  0  0  0  0
  2  1  1  6
  2 13  1  0
  3  2  1  0
  4  3  1  0
  4 12  1  0
  5  6  1  0
  5  4  2  0
  6  7  1  0
  7 12  2  0
  7  8  1  0
  8  9  2  0
  9 10  1  0
 11 10  2  0
 12 11  1  0
 13 14  2  0
 16 17  1  6
 16 15  1  0
 16 18  1  0
 18 19  1  1
 19 13  1  0
 20 21  2  0
 20 18  1  0
 23 22  1  1
 23 25  1  0
 24 23  1  0
 25 26  1  6
 25 27  1  0
 26 20  1  0
 27 29  1  0
 28 27  2  0
M  END
$$$$
