WVV.pdb
     RDKit          3D

 29 30  0  0  1  0  0  0  0  0999 V2000
   27.8699  -21.8595  -13.6992 N   0  0  0  0  0  0  0  0  0  0  0  0
   26.7151  -21.6157  -12.8617 C   0  0  1  0  0  0  0  0  0  0  0  0
   26.9629  -20.3022  -12.1444 C   0  0  0  0  0  0  0  0  0  0  0  0
   28.0069  -20.4552  -11.0989 C   0  0  0  0  0  0  0  0  0  0  0  0
   29.3634  -20.6776  -11.2336 C   0  0  0  0  0  0  0  0  0  0  0  0
   29.9144  -20.7491  -10.0218 N   0  0  0  0  0  0  0  0  0  0  0  0
   28.9966  -20.5857   -9.0576 C   0  0  0  0  0  0  0  0  0  0  0  0
   29.0792  -20.5780   -7.6692 C   0  0  0  0  0  0  0  0  0  0  0  0
   27.9108  -20.3771   -6.9650 C   0  0  0  0  0  0  0  0  0  0  0  0
   26.7131  -20.1924   -7.6296 C   0  0  0  0  0  0  0  0  0  0  0  0
   26.6309  -20.2000   -9.0074 C   0  0  0  0  0  0  0  0  0  0  0  0
   27.8005  -20.4011   -9.7160 C   0  0  0  0  0  0  0  0  0  0  0  0
   25.5147  -21.5734  -13.7062 C   0  0  0  0  0  0  0  0  0  0  0  0
   25.5336  -20.8395  -14.7329 O   0  0  0  0  0  0  0  0  0  0  0  0
   24.2430  -24.0419  -15.8092 C   0  0  0  0  0  0  0  0  0  0  0  0
   23.0544  -23.7291  -14.9445 C   0  0  2  0  0  0  0  0  0  0  0  0
   21.8324  -23.9064  -15.8103 C   0  0  0  0  0  0  0  0  0  0  0  0
   23.1946  -22.3283  -14.3899 C   0  0  2  0  0  0  0  0  0  0  0  0
   24.3351  -22.2893  -13.4645 N   0  0  0  0  0  0  0  0  0  0  0  0
   22.0045  -22.0205  -13.5831 C   0  0  0  0  0  0  0  0  0  0  0  0
   21.7833  -22.7455  -12.5505 O   0  0  0  0  0  0  0  0  0  0  0  0
   20.9363  -18.9917  -11.7237 C   0  0  0  0  0  0  0  0  0  0  0  0
   19.7339  -19.3715  -12.5396 C   0  0  1  0  0  0  0  0  0  0  0  0
   19.5757  -18.4763  -13.7385 C   0  0  0  0  0  0  0  0  0  0  0  0
   19.8840  -20.8363  -12.9370 C   0  0  2  0  0  0  0  0  0  0  0  0
   21.0533  -21.0036  -13.7998 N   0  0  0  0  0  0  0  0  0  0  0  0
   18.6570  -21.1944  -13.6809 C   0  0  0  0  0  0  0  0  0  0  0  0
   18.6708  -21.3231  -14.9227 O   0  0  0  0  0  0  0  0  0  0  0  0
   17.4606  -21.3974  -13.0282 O   0  0  0  0  0  0  0  0  0  0  0  0
  2  1  1  6
  2 13  1  0
  3  2  1  0
  4  3  1  0
  4 12  1  0
  5  6  1  0
  5  4  2  0
  6  7  1  0
  7 12  2  0
  7  8  1  0
  8  9  2  0
  9 10  1  0
 11 10  2  0
 12 11  1  0
 13 14  2  0
 16 17  1  6
 16 15  1  0
 16 18  1  0
 18 19  1  1
 19 13  1  0
 20 21  2  0
 20 18  1  0
 23 22  1  6
 23 25  1  0
 24 23  1  0
 25 26  1  6
 25 27  1  0
 26 20  1  0
 27 29  1  0
 28 27  2  0
M  END
$$$$
