WVV.pdb
     RDKit          3D

 29 30  0  0  1  0  0  0  0  0999 V2000
   28.3184  -21.4156  -11.0205 N   0  0  0  0  0  0  0  0  0  0  0  0
   27.0188  -21.2012  -10.4209 C   0  0  1  0  0  0  0  0  0  0  0  0
   27.1805  -20.0787   -9.4133 C   0  0  0  0  0  0  0  0  0  0  0  0
   28.2302  -20.4067   -8.4147 C   0  0  0  0  0  0  0  0  0  0  0  0
   29.4497  -21.0311   -8.5904 C   0  0  0  0  0  0  0  0  0  0  0  0
   30.0671  -21.1178   -7.4120 N   0  0  0  0  0  0  0  0  0  0  0  0
   29.3262  -20.5803   -6.4317 C   0  0  0  0  0  0  0  0  0  0  0  0
   29.5353  -20.4338   -5.0645 C   0  0  0  0  0  0  0  0  0  0  0  0
   28.5418  -19.8179   -4.3330 C   0  0  0  0  0  0  0  0  0  0  0  0
   27.3895  -19.3699   -4.9510 C   0  0  0  0  0  0  0  0  0  0  0  0
   27.1818  -19.5152   -6.3078 C   0  0  0  0  0  0  0  0  0  0  0  0
   28.1760  -20.1322   -7.0438 C   0  0  0  0  0  0  0  0  0  0  0  0
   26.0556  -20.8687  -11.4780 C   0  0  0  0  0  0  0  0  0  0  0  0
   26.3193  -19.8988  -12.2414 O   0  0  0  0  0  0  0  0  0  0  0  0
   25.4199  -22.7328  -14.2807 C   0  0  0  0  0  0  0  0  0  0  0  0
   24.0198  -22.5235  -13.7763 C   0  0  2  0  0  0  0  0  0  0  0  0
   23.1390  -22.3863  -14.9927 C   0  0  0  0  0  0  0  0  0  0  0  0
   23.9891  -21.3070  -12.8772 C   0  0  2  0  0  0  0  0  0  0  0  0
   24.8528  -21.5472  -11.7132 N   0  0  0  0  0  0  0  0  0  0  0  0
   22.6267  -21.1477  -12.3476 C   0  0  0  0  0  0  0  0  0  0  0  0
   22.2633  -21.9279  -11.3988 O   0  0  0  0  0  0  0  0  0  0  0  0
   20.9379  -18.0941  -10.8822 C   0  0  0  0  0  0  0  0  0  0  0  0
   19.9687  -18.6701  -11.8745 C   0  0  1  0  0  0  0  0  0  0  0  0
   19.9666  -17.8892  -13.1606 C   0  0  0  0  0  0  0  0  0  0  0  0
   20.3416  -20.1323  -12.0954 C   0  0  2  0  0  0  0  0  0  0  0  0
   21.6444  -20.2227  -12.7543 N   0  0  0  0  0  0  0  0  0  0  0  0
   19.2958  -20.7014  -12.9727 C   0  0  0  0  0  0  0  0  0  0  0  0
   19.5042  -20.8815  -14.1905 O   0  0  0  0  0  0  0  0  0  0  0  0
   18.0594  -21.0509  -12.4750 O   0  0  0  0  0  0  0  0  0  0  0  0
  2  1  1  6
  2 13  1  0
  3  2  1  0
  4  3  1  0
  4 12  1  0
  5  6  1  0
  5  4  2  0
  6  7  1  0
  7 12  2  0
  7  8  1  0
  8  9  2  0
  9 10  1  0
 11 10  2  0
 12 11  1  0
 13 14  2  0
 16 17  1  6
 16 15  1  0
 16 18  1  0
 18 19  1  1
 19 13  1  0
 20 21  2  0
 20 18  1  0
 23 22  1  1
 23 25  1  0
 24 23  1  0
 25 26  1  6
 25 27  1  0
 26 20  1  0
 27 29  1  0
 28 27  2  0
M  END
$$$$
