WVV.pdb
     RDKit          3D

 29 30  0  0  1  0  0  0  0  0999 V2000
   24.4176  -18.9007  -15.4240 N   0  0  0  0  0  0  0  0  0  0  0  0
   25.4409  -19.0456  -14.4109 C   0  0  1  0  0  0  0  0  0  0  0  0
   26.2868  -17.7873  -14.4588 C   0  0  0  0  0  0  0  0  0  0  0  0
   27.6040  -18.0550  -15.0910 C   0  0  0  0  0  0  0  0  0  0  0  0
   28.1067  -17.6164  -16.3005 C   0  0  0  0  0  0  0  0  0  0  0  0
   29.3358  -18.1061  -16.4635 N   0  0  0  0  0  0  0  0  0  0  0  0
   29.7023  -18.8633  -15.4189 C   0  0  0  0  0  0  0  0  0  0  0  0
   30.8633  -19.5727  -15.1302 C   0  0  0  0  0  0  0  0  0  0  0  0
   30.9065  -20.2602  -13.9357 C   0  0  0  0  0  0  0  0  0  0  0  0
   29.8286  -20.2342  -13.0709 C   0  0  0  0  0  0  0  0  0  0  0  0
   28.6764  -19.5303  -13.3572 C   0  0  0  0  0  0  0  0  0  0  0  0
   28.6301  -18.8401  -14.5539 C   0  0  0  0  0  0  0  0  0  0  0  0
   24.7955  -19.2358  -13.1059 C   0  0  0  0  0  0  0  0  0  0  0  0
   23.7421  -18.5848  -12.8612 O   0  0  0  0  0  0  0  0  0  0  0  0
   24.8085  -22.7337  -11.2956 C   0  0  0  0  0  0  0  0  0  0  0  0
   23.8253  -21.6614  -10.9189 C   0  0  2  0  0  0  0  0  0  0  0  0
   22.7386  -21.6859  -11.9641 C   0  0  0  0  0  0  0  0  0  0  0  0
   24.5432  -20.3321  -10.8355 C   0  0  2  0  0  0  0  0  0  0  0  0
   25.2570  -20.0908  -12.0968 N   0  0  0  0  0  0  0  0  0  0  0  0
   25.5764  -20.4200   -9.7931 C   0  0  0  0  0  0  0  0  0  0  0  0
   26.6940  -20.9607  -10.1086 O   0  0  0  0  0  0  0  0  0  0  0  0
   27.9288  -19.0764   -5.7526 C   0  0  0  0  0  0  0  0  0  0  0  0
   26.8171  -18.8412   -6.7347 C   0  0  1  0  0  0  0  0  0  0  0  0
   27.1167  -17.6760   -7.6383 C   0  0  0  0  0  0  0  0  0  0  0  0
   26.6072  -20.1322   -7.5191 C   0  0  2  0  0  0  0  0  0  0  0  0
   25.4981  -19.9721   -8.4592 N   0  0  0  0  0  0  0  0  0  0  0  0
   26.2745  -21.1750   -6.5245 C   0  0  0  0  0  0  0  0  0  0  0  0
   25.1306  -21.6723   -6.4705 O   0  0  0  0  0  0  0  0  0  0  0  0
   27.2151  -21.6307   -5.6267 O   0  0  0  0  0  0  0  0  0  0  0  0
  2  1  1  6
  2 13  1  0
  3  2  1  0
  4  3  1  0
  4 12  1  0
  5  6  1  0
  5  4  2  0
  6  7  1  0
  7 12  2  0
  7  8  1  0
  8  9  2  0
  9 10  1  0
 11 10  2  0
 12 11  1  0
 13 14  2  0
 16 17  1  6
 16 15  1  0
 16 18  1  0
 18 19  1  6
 19 13  1  0
 20 21  2  0
 20 18  1  0
 23 22  1  1
 23 25  1  0
 24 23  1  0
 25 26  1  6
 25 27  1  0
 26 20  1  0
 27 29  1  0
 28 27  2  0
M  END
$$$$
