WVV.pdb
     RDKit          3D

 29 30  0  0  1  0  0  0  0  0999 V2000
   26.3895  -22.6552  -11.5593 N   0  0  0  0  0  0  0  0  0  0  0  0
   25.7603  -21.4372  -11.0956 C   0  0  1  0  0  0  0  0  0  0  0  0
   26.7560  -20.3154  -11.3222 C   0  0  0  0  0  0  0  0  0  0  0  0
   27.8743  -20.3910  -10.3474 C   0  0  0  0  0  0  0  0  0  0  0  0
   29.1781  -20.8078  -10.5322 C   0  0  0  0  0  0  0  0  0  0  0  0
   29.8341  -20.7081   -9.3759 N   0  0  0  0  0  0  0  0  0  0  0  0
   29.0391  -20.2407   -8.4021 C   0  0  0  0  0  0  0  0  0  0  0  0
   29.2580  -19.9690   -7.0557 C   0  0  0  0  0  0  0  0  0  0  0  0
   28.1938  -19.4845   -6.3249 C   0  0  0  0  0  0  0  0  0  0  0  0
   26.9644  -19.2829   -6.9234 C   0  0  0  0  0  0  0  0  0  0  0  0
   26.7470  -19.5525   -8.2596 C   0  0  0  0  0  0  0  0  0  0  0  0
   27.8120  -20.0382   -8.9948 C   0  0  0  0  0  0  0  0  0  0  0  0
   24.5106  -21.2339  -11.8390 C   0  0  0  0  0  0  0  0  0  0  0  0
   24.3969  -21.7754  -12.9735 O   0  0  0  0  0  0  0  0  0  0  0  0
   21.1598  -21.1674   -9.6698 C   0  0  0  0  0  0  0  0  0  0  0  0
   21.0717  -20.2096  -10.8246 C   0  0  2  0  0  0  0  0  0  0  0  0
   19.6369  -20.2238  -11.2884 C   0  0  0  0  0  0  0  0  0  0  0  0
   22.0504  -20.6306  -11.8989 C   0  0  2  0  0  0  0  0  0  0  0  0
   23.4197  -20.4795  -11.3883 N   0  0  0  0  0  0  0  0  0  0  0  0
   21.9333  -19.7013  -13.0323 C   0  0  0  0  0  0  0  0  0  0  0  0
   22.2683  -18.4805  -12.8364 O   0  0  0  0  0  0  0  0  0  0  0  0
   21.8001  -20.7180  -17.0336 C   0  0  0  0  0  0  0  0  0  0  0  0
   22.2734  -19.3676  -16.5774 C   0  0  1  0  0  0  0  0  0  0  0  0
   22.2056  -18.3550  -17.6882 C   0  0  0  0  0  0  0  0  0  0  0  0
   21.4251  -18.9569  -15.3783 C   0  0  2  0  0  0  0  0  0  0  0  0
   21.4937  -19.9855  -14.3407 N   0  0  0  0  0  0  0  0  0  0  0  0
   20.0364  -18.8350  -15.8721 C   0  0  0  0  0  0  0  0  0  0  0  0
   19.2977  -19.8366  -15.9716 O   0  0  0  0  0  0  0  0  0  0  0  0
   19.5137  -17.6137  -16.2377 O   0  0  0  0  0  0  0  0  0  0  0  0
  2  1  1  6
  2 13  1  0
  3  2  1  0
  4  3  1  0
  4 12  1  0
  5  6  1  0
  5  4  2  0
  6  7  1  0
  7 12  2  0
  7  8  1  0
  8  9  2  0
  9 10  1  0
 11 10  2  0
 12 11  1  0
 13 14  2  0
 16 17  1  6
 16 15  1  0
 16 18  1  0
 18 19  1  1
 19 13  1  0
 20 21  2  0
 20 18  1  0
 23 22  1  6
 23 25  1  0
 24 23  1  0
 25 26  1  1
 25 27  1  0
 26 20  1  0
 27 29  1  0
 28 27  2  0
M  END
$$$$
