WVV.pdb
     RDKit          3D

 29 30  0  0  1  0  0  0  0  0999 V2000
   28.6499  -21.2357   -9.8840 N   0  0  0  0  0  0  0  0  0  0  0  0
   27.2809  -20.7683   -9.8432 C   0  0  1  0  0  0  0  0  0  0  0  0
   27.3181  -19.3476   -9.3125 C   0  0  0  0  0  0  0  0  0  0  0  0
   27.8989  -19.3047   -7.9460 C   0  0  0  0  0  0  0  0  0  0  0  0
   29.0205  -18.6430   -7.4853 C   0  0  0  0  0  0  0  0  0  0  0  0
   29.1658  -18.8891   -6.1832 N   0  0  0  0  0  0  0  0  0  0  0  0
   28.1931  -19.6916   -5.7263 C   0  0  0  0  0  0  0  0  0  0  0  0
   27.9189  -20.2185   -4.4686 C   0  0  0  0  0  0  0  0  0  0  0  0
   26.8085  -21.0270   -4.3477 C   0  0  0  0  0  0  0  0  0  0  0  0
   26.0102  -21.2928   -5.4442 C   0  0  0  0  0  0  0  0  0  0  0  0
   26.2821  -20.7699   -6.6923 C   0  0  0  0  0  0  0  0  0  0  0  0
   27.3946  -19.9590   -6.8168 C   0  0  0  0  0  0  0  0  0  0  0  0
   26.7109  -20.8454  -11.1941 C   0  0  0  0  0  0  0  0  0  0  0  0
   27.5046  -20.9024  -12.1738 O   0  0  0  0  0  0  0  0  0  0  0  0
   24.9234  -23.5228  -12.6309 C   0  0  0  0  0  0  0  0  0  0  0  0
   23.9970  -22.3600  -12.8504 C   0  0  2  0  0  0  0  0  0  0  0  0
   23.2939  -22.6098  -14.1609 C   0  0  0  0  0  0  0  0  0  0  0  0
   24.7960  -21.0751  -12.8374 C   0  0  2  0  0  0  0  0  0  0  0  0
   25.3418  -20.8616  -11.4902 N   0  0  0  0  0  0  0  0  0  0  0  0
   23.8827  -19.9507  -13.0898 C   0  0  0  0  0  0  0  0  0  0  0  0
   23.1111  -19.5863  -12.1344 O   0  0  0  0  0  0  0  0  0  0  0  0
   24.5139  -16.4234  -14.7307 C   0  0  0  0  0  0  0  0  0  0  0  0
   23.2999  -17.0488  -15.3558 C   0  0  1  0  0  0  0  0  0  0  0  0
   23.6108  -17.6216  -16.7120 C   0  0  0  0  0  0  0  0  0  0  0  0
   22.7752  -18.1104  -14.3947 C   0  0  2  0  0  0  0  0  0  0  0  0
   23.7443  -19.1992  -14.2739 N   0  0  0  0  0  0  0  0  0  0  0  0
   21.5183  -18.6212  -14.9833 C   0  0  0  0  0  0  0  0  0  0  0  0
   21.4954  -19.6930  -15.6232 O   0  0  0  0  0  0  0  0  0  0  0  0
   20.3335  -17.9316  -14.8445 O   0  0  0  0  0  0  0  0  0  0  0  0
  2  1  1  6
  2 13  1  0
  3  2  1  0
  4  3  1  0
  4 12  1  0
  5  6  1  0
  5  4  2  0
  6  7  1  0
  7 12  2  0
  7  8  1  0
  8  9  2  0
  9 10  1  0
 11 10  2  0
 12 11  1  0
 13 14  2  0
 16 17  1  6
 16 15  1  0
 16 18  1  0
 18 19  1  1
 19 13  1  0
 20 21  2  0
 20 18  1  0
 23 22  1  1
 23 25  1  0
 24 23  1  0
 25 26  1  6
 25 27  1  0
 26 20  1  0
 27 29  1  0
 28 27  2  0
M  END
$$$$
