WVV.pdb
     RDKit          3D

 29 30  0  0  1  0  0  0  0  0999 V2000
   27.8676  -21.9951  -13.8543 N   0  0  0  0  0  0  0  0  0  0  0  0
   26.7297  -21.7042  -13.0088 C   0  0  1  0  0  0  0  0  0  0  0  0
   27.0394  -20.4058  -12.2880 C   0  0  0  0  0  0  0  0  0  0  0  0
   27.9921  -20.6310  -11.1708 C   0  0  0  0  0  0  0  0  0  0  0  0
   29.3457  -20.9036  -11.2081 C   0  0  0  0  0  0  0  0  0  0  0  0
   29.7973  -21.0327   -9.9604 N   0  0  0  0  0  0  0  0  0  0  0  0
   28.8138  -20.8610   -9.0648 C   0  0  0  0  0  0  0  0  0  0  0  0
   28.7881  -20.8973   -7.6747 C   0  0  0  0  0  0  0  0  0  0  0  0
   27.5767  -20.6704   -7.0563 C   0  0  0  0  0  0  0  0  0  0  0  0
   26.4423  -20.4184   -7.8046 C   0  0  0  0  0  0  0  0  0  0  0  0
   26.4676  -20.3823   -9.1841 C   0  0  0  0  0  0  0  0  0  0  0  0
   27.6806  -20.6093   -9.8069 C   0  0  0  0  0  0  0  0  0  0  0  0
   25.5273  -21.6057  -13.8457 C   0  0  0  0  0  0  0  0  0  0  0  0
   25.5847  -20.9009  -14.8912 O   0  0  0  0  0  0  0  0  0  0  0  0
   24.0711  -23.8883  -15.9802 C   0  0  0  0  0  0  0  0  0  0  0  0
   22.9183  -23.5522  -15.0768 C   0  0  2  0  0  0  0  0  0  0  0  0
   21.6710  -23.6332  -15.9205 C   0  0  0  0  0  0  0  0  0  0  0  0
   23.1408  -22.1839  -14.4705 C   0  0  2  0  0  0  0  0  0  0  0  0
   24.3060  -22.2372  -13.5773 N   0  0  0  0  0  0  0  0  0  0  0  0
   21.9889  -21.8539  -13.6183 C   0  0  0  0  0  0  0  0  0  0  0  0
   21.7673  -22.6030  -12.6031 O   0  0  0  0  0  0  0  0  0  0  0  0
   21.1622  -19.0065  -11.4811 C   0  0  0  0  0  0  0  0  0  0  0  0
   19.9335  -19.1805  -12.3272 C   0  0  1  0  0  0  0  0  0  0  0  0
   19.8733  -18.1578  -13.4292 C   0  0  0  0  0  0  0  0  0  0  0  0
   19.9398  -20.6054  -12.8709 C   0  0  2  0  0  0  0  0  0  0  0  0
   21.0757  -20.7918  -13.7734 N   0  0  0  0  0  0  0  0  0  0  0  0
   18.6740  -20.7726  -13.6172 C   0  0  0  0  0  0  0  0  0  0  0  0
   17.5796  -20.8478  -13.0210 O   0  0  0  0  0  0  0  0  0  0  0  0
   18.6617  -20.8507  -14.9928 O   0  0  0  0  0  0  0  0  0  0  0  0
  2  1  1  6
  2 13  1  0
  3  2  1  0
  4  3  1  0
  4 12  1  0
  5  6  1  0
  5  4  2  0
  6  7  1  0
  7 12  2  0
  7  8  1  0
  8  9  2  0
  9 10  1  0
 11 10  2  0
 12 11  1  0
 13 14  2  0
 16 17  1  6
 16 15  1  0
 16 18  1  0
 18 19  1  1
 19 13  1  0
 20 21  2  0
 20 18  1  0
 23 22  1  6
 23 25  1  0
 24 23  1  0
 25 26  1  6
 25 27  1  0
 26 20  1  0
 27 29  1  0
 28 27  2  0
M  END
$$$$
