WVV.pdb
     RDKit          3D

 29 30  0  0  1  0  0  0  0  0999 V2000
   28.1645  -21.9259  -10.3749 N   0  0  0  0  0  0  0  0  0  0  0  0
   27.0030  -21.1239  -10.0557 C   0  0  1  0  0  0  0  0  0  0  0  0
   27.5055  -19.8998   -9.3139 C   0  0  0  0  0  0  0  0  0  0  0  0
   28.3737  -20.2877   -8.1729 C   0  0  0  0  0  0  0  0  0  0  0  0
   29.4754  -21.1205   -8.1468 C   0  0  0  0  0  0  0  0  0  0  0  0
   29.9448  -21.1812   -6.9005 N   0  0  0  0  0  0  0  0  0  0  0  0
   29.2145  -20.4264   -6.0664 C   0  0  0  0  0  0  0  0  0  0  0  0
   29.3061  -20.1705   -4.7023 C   0  0  0  0  0  0  0  0  0  0  0  0
   28.3676  -19.3238   -4.1511 C   0  0  0  0  0  0  0  0  0  0  0  0
   27.3813  -18.7603   -4.9385 C   0  0  0  0  0  0  0  0  0  0  0  0
   27.2904  -19.0141   -6.2922 C   0  0  0  0  0  0  0  0  0  0  0  0
   28.2297  -19.8624   -6.8477 C   0  0  0  0  0  0  0  0  0  0  0  0
   26.3074  -20.7762  -11.3012 C   0  0  0  0  0  0  0  0  0  0  0  0
   27.0040  -20.5349  -12.3257 O   0  0  0  0  0  0  0  0  0  0  0  0
   23.9228  -22.9918  -12.7321 C   0  0  0  0  0  0  0  0  0  0  0  0
   24.4227  -21.8264  -13.5386 C   0  0  2  0  0  0  0  0  0  0  0  0
   25.8654  -22.1168  -13.8679 C   0  0  0  0  0  0  0  0  0  0  0  0
   24.2367  -20.5523  -12.7441 C   0  0  2  0  0  0  0  0  0  0  0  0
   24.9172  -20.6891  -11.4492 N   0  0  0  0  0  0  0  0  0  0  0  0
   22.8073  -20.3930  -12.4384 C   0  0  0  0  0  0  0  0  0  0  0  0
   22.3700  -20.9160  -11.3539 O   0  0  0  0  0  0  0  0  0  0  0  0
   20.0661  -18.2215  -14.7749 C   0  0  0  0  0  0  0  0  0  0  0  0
   20.1497  -17.9431  -13.3014 C   0  0  1  0  0  0  0  0  0  0  0  0
   18.8426  -17.4285  -12.7622 C   0  0  0  0  0  0  0  0  0  0  0  0
   20.5861  -19.2295  -12.6080 C   0  0  2  0  0  0  0  0  0  0  0  0
   21.8309  -19.7195  -13.1994 N   0  0  0  0  0  0  0  0  0  0  0  0
   19.5039  -20.2121  -12.8325 C   0  0  0  0  0  0  0  0  0  0  0  0
   19.5370  -20.9966  -13.8032 O   0  0  0  0  0  0  0  0  0  0  0  0
   18.4255  -20.2935  -11.9786 O   0  0  0  0  0  0  0  0  0  0  0  0
  2  1  1  6
  2 13  1  0
  3  2  1  0
  4  3  1  0
  4 12  1  0
  5  6  1  0
  5  4  2  0
  6  7  1  0
  7 12  2  0
  7  8  1  0
  8  9  2  0
  9 10  1  0
 11 10  2  0
 12 11  1  0
 13 14  2  0
 16 17  1  1
 16 15  1  0
 16 18  1  0
 18 19  1  1
 19 13  1  0
 20 21  2  0
 20 18  1  0
 23 22  1  6
 23 25  1  0
 24 23  1  0
 25 26  1  6
 25 27  1  0
 26 20  1  0
 27 29  1  0
 28 27  2  0
M  END
$$$$
