WVV.pdb
     RDKit          3D

 29 30  0  0  1  0  0  0  0  0999 V2000
   25.3170  -22.1462   -8.9041 N   0  0  0  0  0  0  0  0  0  0  0  0
   25.5741  -20.8104   -9.3980 C   0  0  1  0  0  0  0  0  0  0  0  0
   26.8380  -20.3254   -8.7134 C   0  0  0  0  0  0  0  0  0  0  0  0
   26.6484  -20.2422   -7.2425 C   0  0  0  0  0  0  0  0  0  0  0  0
   25.5318  -20.5249   -6.4802 C   0  0  0  0  0  0  0  0  0  0  0  0
   25.8159  -20.3071   -5.1961 N   0  0  0  0  0  0  0  0  0  0  0  0
   27.0799  -19.8866   -5.0400 C   0  0  0  0  0  0  0  0  0  0  0  0
   27.8255  -19.5376   -3.9190 C   0  0  0  0  0  0  0  0  0  0  0  0
   29.1300  -19.1402   -4.1230 C   0  0  0  0  0  0  0  0  0  0  0  0
   29.6596  -19.0964   -5.3989 C   0  0  0  0  0  0  0  0  0  0  0  0
   28.9199  -19.4427   -6.5115 C   0  0  0  0  0  0  0  0  0  0  0  0
   27.6118  -19.8415   -6.3102 C   0  0  0  0  0  0  0  0  0  0  0  0
   25.7142  -20.8615  -10.8587 C   0  0  0  0  0  0  0  0  0  0  0  0
   26.7275  -21.4395  -11.3407 O   0  0  0  0  0  0  0  0  0  0  0  0
   23.5381  -22.5374  -13.1976 C   0  0  0  0  0  0  0  0  0  0  0  0
   23.6304  -21.1372  -13.7356 C   0  0  2  0  0  0  0  0  0  0  0  0
   23.5772  -21.2481  -15.2386 C   0  0  0  0  0  0  0  0  0  0  0  0
   24.9009  -20.4901  -13.2295 C   0  0  2  0  0  0  0  0  0  0  0  0
   24.8051  -20.3154  -11.7739 N   0  0  0  0  0  0  0  0  0  0  0  0
   24.9978  -19.1370  -13.7967 C   0  0  0  0  0  0  0  0  0  0  0  0
   24.2251  -18.2350  -13.3169 O   0  0  0  0  0  0  0  0  0  0  0  0
   27.8884  -16.6738  -14.2208 C   0  0  0  0  0  0  0  0  0  0  0  0
   27.2224  -16.7987  -15.5612 C   0  0  1  0  0  0  0  0  0  0  0  0
   28.0069  -17.6893  -16.4860 C   0  0  0  0  0  0  0  0  0  0  0  0
   25.8073  -17.3193  -15.3320 C   0  0  2  0  0  0  0  0  0  0  0  0
   25.8544  -18.6896  -14.8225 N   0  0  0  0  0  0  0  0  0  0  0  0
   25.1364  -17.2974  -16.6497 C   0  0  0  0  0  0  0  0  0  0  0  0
   25.0493  -18.3303  -17.3457 O   0  0  0  0  0  0  0  0  0  0  0  0
   24.5863  -16.1379  -17.1512 O   0  0  0  0  0  0  0  0  0  0  0  0
  2  1  1  1
  2 13  1  0
  3  2  1  0
  4  3  1  0
  4 12  1  0
  5  6  1  0
  5  4  2  0
  6  7  1  0
  7 12  2  0
  7  8  1  0
  8  9  2  0
  9 10  1  0
 11 10  2  0
 12 11  1  0
 13 14  2  0
 16 17  1  6
 16 15  1  0
 16 18  1  0
 18 19  1  1
 19 13  1  0
 20 21  2  0
 20 18  1  0
 23 22  1  1
 23 25  1  0
 24 23  1  0
 25 26  1  6
 25 27  1  0
 26 20  1  0
 27 29  1  0
 28 27  2  0
M  END
$$$$
