WVV.pdb
     RDKit          3D

 29 30  0  0  1  0  0  0  0  0999 V2000
   22.0076  -20.3039  -16.7767 N   0  0  0  0  0  0  0  0  0  0  0  0
   22.7279  -19.2900  -16.0368 C   0  0  1  0  0  0  0  0  0  0  0  0
   21.7654  -18.7334  -15.0047 C   0  0  0  0  0  0  0  0  0  0  0  0
   20.6501  -18.0008  -15.6572 C   0  0  0  0  0  0  0  0  0  0  0  0
   19.3014  -18.2970  -15.6911 C   0  0  0  0  0  0  0  0  0  0  0  0
   18.6683  -17.3594  -16.3963 N   0  0  0  0  0  0  0  0  0  0  0  0
   19.5220  -16.4297  -16.8499 C   0  0  0  0  0  0  0  0  0  0  0  0
   19.3457  -15.2808  -17.6138 C   0  0  0  0  0  0  0  0  0  0  0  0
   20.4678  -14.5342  -17.9051 C   0  0  0  0  0  0  0  0  0  0  0  0
   21.7114  -14.9271  -17.4474 C   0  0  0  0  0  0  0  0  0  0  0  0
   21.8864  -16.0671  -16.6893 C   0  0  0  0  0  0  0  0  0  0  0  0
   20.7634  -16.8177  -16.3956 C   0  0  0  0  0  0  0  0  0  0  0  0
   23.9138  -19.9004  -15.4230 C   0  0  0  0  0  0  0  0  0  0  0  0
   23.8408  -21.1053  -15.0541 O   0  0  0  0  0  0  0  0  0  0  0  0
   27.7447  -19.4009  -16.5301 C   0  0  0  0  0  0  0  0  0  0  0  0
   27.5591  -19.1708  -15.0566 C   0  0  2  0  0  0  0  0  0  0  0  0
   28.8121  -19.6684  -14.3810 C   0  0  0  0  0  0  0  0  0  0  0  0
   26.3078  -19.8839  -14.5932 C   0  0  2  0  0  0  0  0  0  0  0  0
   25.1355  -19.2488  -15.2103 N   0  0  0  0  0  0  0  0  0  0  0  0
   26.1627  -19.6852  -13.1435 C   0  0  0  0  0  0  0  0  0  0  0  0
   26.0722  -18.4814  -12.7151 O   0  0  0  0  0  0  0  0  0  0  0  0
   23.5628  -20.4180  -10.8541 C   0  0  0  0  0  0  0  0  0  0  0  0
   24.7531  -20.9625  -10.1177 C   0  0  1  0  0  0  0  0  0  0  0  0
   24.7989  -22.4652  -10.1776 C   0  0  0  0  0  0  0  0  0  0  0  0
   26.0033  -20.3291  -10.7194 C   0  0  2  0  0  0  0  0  0  0  0  0
   26.1044  -20.6709  -12.1380 N   0  0  0  0  0  0  0  0  0  0  0  0
   27.1538  -20.8970   -9.9838 C   0  0  0  0  0  0  0  0  0  0  0  0
   27.9541  -21.6762  -10.5417 O   0  0  0  0  0  0  0  0  0  0  0  0
   27.3793  -20.5849   -8.6609 O   0  0  0  0  0  0  0  0  0  0  0  0
  2  1  1  1
  2 13  1  0
  3  2  1  0
  4  3  1  0
  4 12  1  0
  5  6  1  0
  5  4  2  0
  6  7  1  0
  7 12  2  0
  7  8  1  0
  8  9  2  0
  9 10  1  0
 11 10  2  0
 12 11  1  0
 13 14  2  0
 16 17  1  1
 16 15  1  0
 16 18  1  0
 18 19  1  6
 19 13  1  0
 20 21  2  0
 20 18  1  0
 23 22  1  6
 23 25  1  0
 24 23  1  0
 25 26  1  6
 25 27  1  0
 26 20  1  0
 27 29  1  0
 28 27  2  0
M  END
$$$$
