WVV.pdb
     RDKit          3D

 29 30  0  0  1  0  0  0  0  0999 V2000
   24.1958  -22.1850  -12.8441 N   0  0  0  0  0  0  0  0  0  0  0  0
   24.7038  -20.9992  -12.1884 C   0  0  1  0  0  0  0  0  0  0  0  0
   23.5133  -20.3040  -11.5552 C   0  0  0  0  0  0  0  0  0  0  0  0
   22.5697  -19.8135  -12.5923 C   0  0  0  0  0  0  0  0  0  0  0  0
   21.2046  -19.9957  -12.6989 C   0  0  0  0  0  0  0  0  0  0  0  0
   20.7680  -19.3758  -13.7954 N   0  0  0  0  0  0  0  0  0  0  0  0
   21.7727  -18.7742  -14.4492 C   0  0  0  0  0  0  0  0  0  0  0  0
   21.8193  -18.0195  -15.6166 C   0  0  0  0  0  0  0  0  0  0  0  0
   23.0497  -17.5399  -16.0134 C   0  0  0  0  0  0  0  0  0  0  0  0
   24.1821  -17.8083  -15.2677 C   0  0  0  0  0  0  0  0  0  0  0  0
   24.1360  -18.5571  -14.1091 C   0  0  0  0  0  0  0  0  0  0  0  0
   22.9040  -19.0393  -13.7088 C   0  0  0  0  0  0  0  0  0  0  0  0
   25.7106  -21.3976  -11.1967 C   0  0  0  0  0  0  0  0  0  0  0  0
   25.4659  -22.3984  -10.4675 O   0  0  0  0  0  0  0  0  0  0  0  0
   29.7045  -21.6129  -11.6672 C   0  0  0  0  0  0  0  0  0  0  0  0
   29.3129  -20.7713  -10.4853 C   0  0  2  0  0  0  0  0  0  0  0  0
   30.3870  -20.9629   -9.4444 C   0  0  0  0  0  0  0  0  0  0  0  0
   27.9387  -21.1879  -10.0086 C   0  0  2  0  0  0  0  0  0  0  0  0
   26.9362  -20.7514  -10.9899 N   0  0  0  0  0  0  0  0  0  0  0  0
   27.6332  -20.4652   -8.7650 C   0  0  0  0  0  0  0  0  0  0  0  0
   26.9531  -19.3837   -8.8584 O   0  0  0  0  0  0  0  0  0  0  0  0
   28.5415  -21.7156   -4.8222 C   0  0  0  0  0  0  0  0  0  0  0  0
   27.3489  -20.8425   -5.0888 C   0  0  1  0  0  0  0  0  0  0  0  0
   26.9891  -20.0170   -3.8835 C   0  0  0  0  0  0  0  0  0  0  0  0
   27.6691  -19.9735   -6.3006 C   0  0  2  0  0  0  0  0  0  0  0  0
   27.9959  -20.8175   -7.4496 N   0  0  0  0  0  0  0  0  0  0  0  0
   28.8441  -19.1561   -5.9289 C   0  0  0  0  0  0  0  0  0  0  0  0
   29.9990  -19.5034   -6.2522 O   0  0  0  0  0  0  0  0  0  0  0  0
   28.7025  -17.9863   -5.2147 O   0  0  0  0  0  0  0  0  0  0  0  0
  2  1  1  1
  2 13  1  0
  3  2  1  0
  4  3  1  0
  4 12  1  0
  5  6  1  0
  5  4  2  0
  6  7  1  0
  7 12  2  0
  7  8  1  0
  8  9  2  0
  9 10  1  0
 11 10  2  0
 12 11  1  0
 13 14  2  0
 16 17  1  1
 16 15  1  0
 16 18  1  0
 18 19  1  6
 19 13  1  0
 20 21  2  0
 20 18  1  0
 23 22  1  1
 23 25  1  0
 24 23  1  0
 25 26  1  6
 25 27  1  0
 26 20  1  0
 27 29  1  0
 28 27  2  0
M  END
$$$$
