FTA.pdb
     RDKit          3D

 24 24  0  0  1  0  0  0  0  0999 V2000
    9.4701  -15.7538   21.2325 N   0  0  0  0  0  0  0  0  0  0  0  0
    8.8483  -14.9206   22.2152 C   0  0  1  0  0  0  0  0  0  0  0  0
    7.4319  -14.6519   21.7242 C   0  0  0  0  0  0  0  0  0  0  0  0
    7.4624  -13.9217   20.4385 C   0  0  0  0  0  0  0  0  0  0  0  0
    6.9668  -14.5979   19.3227 C   0  0  0  0  0  0  0  0  0  0  0  0
    6.9781  -13.9518   18.1050 C   0  0  0  0  0  0  0  0  0  0  0  0
    7.4606  -12.6683   17.9583 C   0  0  0  0  0  0  0  0  0  0  0  0
    7.9505  -11.9947   19.0509 C   0  0  0  0  0  0  0  0  0  0  0  0
    7.9423  -12.6397   20.2823 C   0  0  0  0  0  0  0  0  0  0  0  0
    8.7622  -15.6084   23.5131 C   0  0  0  0  0  0  0  0  0  0  0  0
    7.8623  -15.2197   24.3287 O   0  0  0  0  0  0  0  0  0  0  0  0
    9.6765  -19.4949   24.2172 C   0  0  0  0  0  0  0  0  0  0  0  0
   10.3027  -18.5419   25.1821 C   0  0  1  0  0  0  0  0  0  0  0  0
   11.6349  -18.2757   24.7566 O   0  0  0  0  0  0  0  0  0  0  0  0
    9.5391  -17.2072   25.2164 C   0  0  2  0  0  0  0  0  0  0  0  0
    9.6428  -16.6684   23.8538 N   0  0  0  0  0  0  0  0  0  0  0  0
   10.1530  -16.2767   26.1675 C   0  0  0  0  0  0  0  0  0  0  0  0
   11.2078  -15.6194   25.8910 O   0  0  0  0  0  0  0  0  0  0  0  0
    9.4514  -13.9466   28.7538 C   0  0  0  0  0  0  0  0  0  0  0  0
   10.3056  -15.1423   28.3980 C   0  0  2  0  0  0  0  0  0  0  0  0
    9.6374  -16.0199   27.4609 N   0  0  0  0  0  0  0  0  0  0  0  0
   10.7673  -15.8672   29.5952 C   0  0  0  0  0  0  0  0  0  0  0  0
   10.4989  -17.0811   29.7432 O   0  0  0  0  0  0  0  0  0  0  0  0
   11.5057  -15.2662   30.6016 O   0  0  0  0  0  0  0  0  0  0  0  0
  2  1  1  6
  2 10  1  0
  3  2  1  0
  4  3  1  0
  5  4  2  0
  6  5  1  0
  7  6  2  0
  7  8  1  0
  8  9  2  0
  9  4  1  0
 10 11  2  0
 10 16  1  0
 13 14  1  0
 13 12  1  6
 15 13  1  0
 15 16  1  6
 17 21  1  0
 17 15  1  0
 18 17  2  0
 20 19  1  1
 20 22  1  0
 20 21  1  0
 22 24  1  0
 23 22  2  0
M  END
$$$$
