FTA.pdb
     RDKit          3D

 24 24  0  0  1  0  0  0  0  0999 V2000
    7.3950  -14.8425   20.9032 N   0  0  0  0  0  0  0  0  0  0  0  0
    7.7579  -14.2469   22.1522 C   0  0  1  0  0  0  0  0  0  0  0  0
    6.5355  -13.4804   22.6400 C   0  0  0  0  0  0  0  0  0  0  0  0
    6.7408  -13.0131   24.0281 C   0  0  0  0  0  0  0  0  0  0  0  0
    7.5788  -11.9104   24.1998 C   0  0  0  0  0  0  0  0  0  0  0  0
    7.7964  -11.4441   25.4787 C   0  0  0  0  0  0  0  0  0  0  0  0
    7.2155  -12.0302   26.5836 C   0  0  0  0  0  0  0  0  0  0  0  0
    6.3892  -13.1161   26.4244 C   0  0  0  0  0  0  0  0  0  0  0  0
    6.1649  -13.5921   25.1377 C   0  0  0  0  0  0  0  0  0  0  0  0
    8.0852  -15.2750   23.1526 C   0  0  0  0  0  0  0  0  0  0  0  0
    7.1751  -16.1153   23.4552 O   0  0  0  0  0  0  0  0  0  0  0  0
    9.5186  -18.1459   23.0768 C   0  0  0  0  0  0  0  0  0  0  0  0
   10.3335  -17.4900   24.1433 C   0  0  1  0  0  0  0  0  0  0  0  0
   11.4988  -16.9326   23.5452 O   0  0  0  0  0  0  0  0  0  0  0  0
    9.5511  -16.3481   24.8140 C   0  0  2  0  0  0  0  0  0  0  0  0
    9.3652  -15.3386   23.7632 N   0  0  0  0  0  0  0  0  0  0  0  0
   10.3128  -15.7740   25.9265 C   0  0  0  0  0  0  0  0  0  0  0  0
   11.3414  -15.0465   25.7422 O   0  0  0  0  0  0  0  0  0  0  0  0
   10.2919  -14.3343   29.0910 C   0  0  0  0  0  0  0  0  0  0  0  0
   10.8499  -15.5367   28.3637 C   0  0  2  0  0  0  0  0  0  0  0  0
    9.9803  -15.9657   27.2893 N   0  0  0  0  0  0  0  0  0  0  0  0
   11.1685  -16.6412   29.2859 C   0  0  0  0  0  0  0  0  0  0  0  0
   11.8451  -16.4295   30.3178 O   0  0  0  0  0  0  0  0  0  0  0  0
   10.7502  -17.9447   29.0728 O   0  0  0  0  0  0  0  0  0  0  0  0
  2  1  1  6
  2 10  1  0
  3  2  1  0
  4  3  1  0
  5  4  2  0
  6  5  1  0
  7  6  2  0
  7  8  1  0
  8  9  2  0
  9  4  1  0
 10 11  2  0
 10 16  1  0
 13 14  1  0
 13 12  1  6
 15 13  1  0
 15 16  1  6
 17 21  1  0
 17 15  1  0
 18 17  2  0
 20 19  1  1
 20 22  1  0
 20 21  1  0
 22 24  1  0
 23 22  2  0
M  END
$$$$
