FTA.pdb
     RDKit          3D

 24 24  0  0  1  0  0  0  0  0999 V2000
    5.8059  -17.2763   25.8467 N   0  0  0  0  0  0  0  0  0  0  0  0
    6.5657  -16.1623   25.3688 C   0  0  1  0  0  0  0  0  0  0  0  0
    7.3876  -15.6585   26.5478 C   0  0  0  0  0  0  0  0  0  0  0  0
    7.2320  -14.1953   26.6963 C   0  0  0  0  0  0  0  0  0  0  0  0
    5.9529  -13.7299   27.0044 C   0  0  0  0  0  0  0  0  0  0  0  0
    5.7660  -12.3719   27.1507 C   0  0  0  0  0  0  0  0  0  0  0  0
    6.7968  -11.4679   27.0028 C   0  0  0  0  0  0  0  0  0  0  0  0
    8.0593  -11.9166   26.6995 C   0  0  0  0  0  0  0  0  0  0  0  0
    8.2556  -13.2847   26.5504 C   0  0  0  0  0  0  0  0  0  0  0  0
    7.4939  -16.5737   24.3038 C   0  0  0  0  0  0  0  0  0  0  0  0
    8.0285  -17.7274   24.3996 O   0  0  0  0  0  0  0  0  0  0  0  0
    6.9714  -15.1171   20.7036 C   0  0  0  0  0  0  0  0  0  0  0  0
    8.4266  -15.3682   20.9294 C   0  0  1  0  0  0  0  0  0  0  0  0
    9.0670  -14.1233   21.1873 O   0  0  0  0  0  0  0  0  0  0  0  0
    8.6483  -16.2783   22.1495 C   0  0  2  0  0  0  0  0  0  0  0  0
    7.7889  -15.7252   23.2046 N   0  0  0  0  0  0  0  0  0  0  0  0
   10.0486  -16.2454   22.5800 C   0  0  0  0  0  0  0  0  0  0  0  0
   10.4966  -15.3515   23.3683 O   0  0  0  0  0  0  0  0  0  0  0  0
   12.9515  -18.5010   22.9186 C   0  0  0  0  0  0  0  0  0  0  0  0
   12.3949  -17.1277   22.6179 C   0  0  2  0  0  0  0  0  0  0  0  0
   11.0195  -17.1916   22.1718 N   0  0  0  0  0  0  0  0  0  0  0  0
   13.2444  -16.3824   21.6721 C   0  0  0  0  0  0  0  0  0  0  0  0
   12.8247  -16.1074   20.5251 O   0  0  0  0  0  0  0  0  0  0  0  0
   14.5236  -15.9526   21.9860 O   0  0  0  0  0  0  0  0  0  0  0  0
  2  1  1  1
  2 10  1  0
  3  2  1  0
  4  3  1  0
  5  4  2  0
  6  5  1  0
  7  6  2  0
  7  8  1  0
  8  9  2  0
  9  4  1  0
 10 11  2  0
 10 16  1  0
 13 14  1  0
 13 12  1  1
 15 13  1  0
 15 16  1  1
 17 21  1  0
 17 15  1  0
 18 17  2  0
 20 19  1  6
 20 22  1  0
 20 21  1  0
 22 24  1  0
 23 22  2  0
M  END
$$$$
