FTA.pdb
     RDKit          3D

 24 24  0  0  1  0  0  0  0  0999 V2000
    6.1541  -16.0315   25.8335 N   0  0  0  0  0  0  0  0  0  0  0  0
    6.7733  -15.2151   24.8351 C   0  0  1  0  0  0  0  0  0  0  0  0
    7.7581  -14.3097   25.5630 C   0  0  0  0  0  0  0  0  0  0  0  0
    7.0353  -13.2553   26.3068 C   0  0  0  0  0  0  0  0  0  0  0  0
    7.3413  -13.1235   27.6620 C   0  0  0  0  0  0  0  0  0  0  0  0
    6.6887  -12.1524   28.3910 C   0  0  0  0  0  0  0  0  0  0  0  0
    5.7507  -11.3147   27.8253 C   0  0  0  0  0  0  0  0  0  0  0  0
    5.4429  -11.4369   26.4920 C   0  0  0  0  0  0  0  0  0  0  0  0
    6.0969  -12.4139   25.7503 C   0  0  0  0  0  0  0  0  0  0  0  0
    7.5271  -16.0359   23.8743 C   0  0  0  0  0  0  0  0  0  0  0  0
    7.7177  -17.2622   24.1673 O   0  0  0  0  0  0  0  0  0  0  0  0
    7.1400  -15.1620   20.1555 C   0  0  0  0  0  0  0  0  0  0  0  0
    8.4983  -15.7575   20.3343 C   0  0  1  0  0  0  0  0  0  0  0  0
    9.4638  -14.7138   20.2640 O   0  0  0  0  0  0  0  0  0  0  0  0
    8.6293  -16.4342   21.7093 C   0  0  2  0  0  0  0  0  0  0  0  0
    8.0267  -15.4923   22.6618 N   0  0  0  0  0  0  0  0  0  0  0  0
   10.0366  -16.6564   22.0519 C   0  0  0  0  0  0  0  0  0  0  0  0
   10.7201  -15.8034   22.7048 O   0  0  0  0  0  0  0  0  0  0  0  0
   12.6116  -19.4185   21.8461 C   0  0  0  0  0  0  0  0  0  0  0  0
   12.1633  -17.9830   22.0032 C   0  0  2  0  0  0  0  0  0  0  0  0
   10.7571  -17.8234   21.7003 N   0  0  0  0  0  0  0  0  0  0  0  0
   13.0012  -17.0542   21.2240 C   0  0  0  0  0  0  0  0  0  0  0  0
   12.6428  -16.6828   20.0834 O   0  0  0  0  0  0  0  0  0  0  0  0
   14.2032  -16.5497   21.6934 O   0  0  0  0  0  0  0  0  0  0  0  0
  2  1  1  1
  2 10  1  0
  3  2  1  0
  4  3  1  0
  5  4  2  0
  6  5  1  0
  7  6  2  0
  7  8  1  0
  8  9  2  0
  9  4  1  0
 10 11  2  0
 10 16  1  0
 13 14  1  0
 13 12  1  1
 15 13  1  0
 15 16  1  1
 17 21  1  0
 17 15  1  0
 18 17  2  0
 20 19  1  6
 20 22  1  0
 20 21  1  0
 22 24  1  0
 23 22  2  0
M  END
$$$$
