FTA.pdb
     RDKit          3D

 24 24  0  0  1  0  0  0  0  0999 V2000
    9.6779  -17.9702   26.9502 N   0  0  0  0  0  0  0  0  0  0  0  0
   10.1085  -17.0708   25.9244 C   0  0  1  0  0  0  0  0  0  0  0  0
   11.3160  -16.3258   26.4780 C   0  0  0  0  0  0  0  0  0  0  0  0
   10.8945  -15.3626   27.5180 C   0  0  0  0  0  0  0  0  0  0  0  0
   10.1480  -14.2645   27.0886 C   0  0  0  0  0  0  0  0  0  0  0  0
    9.7361  -13.3430   28.0275 C   0  0  0  0  0  0  0  0  0  0  0  0
   10.0374  -13.4733   29.3668 C   0  0  0  0  0  0  0  0  0  0  0  0
   10.7718  -14.5509   29.7990 C   0  0  0  0  0  0  0  0  0  0  0  0
   11.1907  -15.4845   28.8580 C   0  0  0  0  0  0  0  0  0  0  0  0
   10.5330  -17.8050   24.7220 C   0  0  0  0  0  0  0  0  0  0  0  0
   10.7267  -19.0603   24.8343 O   0  0  0  0  0  0  0  0  0  0  0  0
    8.8976  -17.7507   21.2902 C   0  0  0  0  0  0  0  0  0  0  0  0
   10.3554  -17.4631   21.1364 C   0  0  1  0  0  0  0  0  0  0  0  0
   10.5342  -16.0527   21.0636 O   0  0  0  0  0  0  0  0  0  0  0  0
   11.1523  -17.9812   22.3457 C   0  0  2  0  0  0  0  0  0  0  0  0
   10.7210  -17.1493   23.4770 N   0  0  0  0  0  0  0  0  0  0  0  0
   12.5931  -17.8213   22.1312 C   0  0  0  0  0  0  0  0  0  0  0  0
   13.2314  -16.7976   22.5382 O   0  0  0  0  0  0  0  0  0  0  0  0
   15.4627  -19.7581   20.5799 C   0  0  0  0  0  0  0  0  0  0  0  0
   14.8001  -18.5409   21.1845 C   0  0  2  0  0  0  0  0  0  0  0  0
   13.4002  -18.7762   21.4670 N   0  0  0  0  0  0  0  0  0  0  0  0
   14.9982  -17.3366   20.3586 C   0  0  0  0  0  0  0  0  0  0  0  0
   14.1139  -16.9691   19.5522 O   0  0  0  0  0  0  0  0  0  0  0  0
   16.1434  -16.5594   20.4226 O   0  0  0  0  0  0  0  0  0  0  0  0
  2  1  1  1
  2 10  1  0
  3  2  1  0
  4  3  1  0
  5  4  2  0
  6  5  1  0
  7  6  2  0
  7  8  1  0
  8  9  2  0
  9  4  1  0
 10 11  2  0
 10 16  1  0
 13 14  1  0
 13 12  1  1
 15 13  1  0
 15 16  1  1
 17 21  1  0
 17 15  1  0
 18 17  2  0
 20 19  1  6
 20 22  1  0
 20 21  1  0
 22 24  1  0
 23 22  2  0
M  END
$$$$
