FTA.pdb
     RDKit          3D

 24 24  0  0  1  0  0  0  0  0999 V2000
    7.3018  -15.1832   20.9413 N   0  0  0  0  0  0  0  0  0  0  0  0
    7.6776  -14.4982   22.1397 C   0  0  1  0  0  0  0  0  0  0  0  0
    6.4496  -13.7248   22.6018 C   0  0  0  0  0  0  0  0  0  0  0  0
    6.7031  -13.0926   23.9146 C   0  0  0  0  0  0  0  0  0  0  0  0
    5.9552  -13.5674   24.9929 C   0  0  0  0  0  0  0  0  0  0  0  0
    6.1615  -13.0036   26.2339 C   0  0  0  0  0  0  0  0  0  0  0  0
    7.0771  -11.9930   26.4391 C   0  0  0  0  0  0  0  0  0  0  0  0
    7.8179  -11.5191   25.3837 C   0  0  0  0  0  0  0  0  0  0  0  0
    7.6155  -12.0827   24.1292 C   0  0  0  0  0  0  0  0  0  0  0  0
    8.0466  -15.4504   23.1990 C   0  0  0  0  0  0  0  0  0  0  0  0
    7.1955  -16.3479   23.5089 O   0  0  0  0  0  0  0  0  0  0  0  0
   11.6831  -16.8462   23.5815 C   0  0  0  0  0  0  0  0  0  0  0  0
   10.4432  -17.4622   24.1426 C   0  0  1  0  0  0  0  0  0  0  0  0
   10.8193  -18.4529   25.0932 O   0  0  0  0  0  0  0  0  0  0  0  0
    9.5821  -16.4127   24.8656 C   0  0  2  0  0  0  0  0  0  0  0  0
    9.3026  -15.3819   23.8570 N   0  0  0  0  0  0  0  0  0  0  0  0
   10.3109  -15.8225   25.9916 C   0  0  0  0  0  0  0  0  0  0  0  0
   11.3179  -15.0613   25.8255 O   0  0  0  0  0  0  0  0  0  0  0  0
   10.2220  -14.3536   29.1136 C   0  0  0  0  0  0  0  0  0  0  0  0
   10.8031  -15.5747   28.4373 C   0  0  2  0  0  0  0  0  0  0  0  0
    9.9674  -16.0344   27.3487 N   0  0  0  0  0  0  0  0  0  0  0  0
   11.0937  -16.6530   29.3989 C   0  0  0  0  0  0  0  0  0  0  0  0
   11.8016  -16.4288   30.4069 O   0  0  0  0  0  0  0  0  0  0  0  0
   10.6145  -17.9444   29.2501 O   0  0  0  0  0  0  0  0  0  0  0  0
  2  1  1  6
  2 10  1  0
  3  2  1  0
  4  3  1  0
  5  4  2  0
  6  5  1  0
  7  6  2  0
  7  8  1  0
  8  9  2  0
  9  4  1  0
 10 11  2  0
 10 16  1  0
 13 14  1  0
 13 12  1  1
 15 13  1  0
 15 16  1  6
 17 21  1  0
 17 15  1  0
 18 17  2  0
 20 19  1  1
 20 22  1  0
 20 21  1  0
 22 24  1  0
 23 22  2  0
M  END
$$$$
