FTA.pdb
     RDKit          3D

 24 24  0  0  1  0  0  0  0  0999 V2000
    7.0357  -17.7203   18.9086 N   0  0  0  0  0  0  0  0  0  0  0  0
    7.5518  -16.9093   19.9681 C   0  0  1  0  0  0  0  0  0  0  0  0
    6.4803  -15.8745   20.2852 C   0  0  0  0  0  0  0  0  0  0  0  0
    7.1030  -14.6017   20.7091 C   0  0  0  0  0  0  0  0  0  0  0  0
    7.1248  -14.3416   22.0800 C   0  0  0  0  0  0  0  0  0  0  0  0
    7.6961  -13.1652   22.5160 C   0  0  0  0  0  0  0  0  0  0  0  0
    8.2418  -12.2460   21.6448 C   0  0  0  0  0  0  0  0  0  0  0  0
    8.2249  -12.4933   20.2936 C   0  0  0  0  0  0  0  0  0  0  0  0
    7.6505  -13.6776   19.8463 C   0  0  0  0  0  0  0  0  0  0  0  0
    7.7897  -17.7106   21.1790 C   0  0  0  0  0  0  0  0  0  0  0  0
    6.7698  -18.1438   21.8101 O   0  0  0  0  0  0  0  0  0  0  0  0
    9.2523  -20.8886   21.5735 C   0  0  0  0  0  0  0  0  0  0  0  0
   10.0206  -20.0210   22.5161 C   0  0  1  0  0  0  0  0  0  0  0  0
   11.2219  -19.6067   21.8743 O   0  0  0  0  0  0  0  0  0  0  0  0
    9.2202  -18.7606   22.8855 C   0  0  2  0  0  0  0  0  0  0  0  0
    9.1028  -17.9981   21.6354 N   0  0  0  0  0  0  0  0  0  0  0  0
    9.9310  -17.9640   23.8893 C   0  0  0  0  0  0  0  0  0  0  0  0
   10.7511  -17.0437   23.5707 O   0  0  0  0  0  0  0  0  0  0  0  0
    9.8483  -16.4155   27.0298 C   0  0  0  0  0  0  0  0  0  0  0  0
   10.6154  -17.4573   26.2473 C   0  0  2  0  0  0  0  0  0  0  0  0
    9.7723  -18.1352   25.2858 N   0  0  0  0  0  0  0  0  0  0  0  0
   11.3142  -18.4078   27.1305 C   0  0  0  0  0  0  0  0  0  0  0  0
   11.0046  -19.6208   27.1268 O   0  0  0  0  0  0  0  0  0  0  0  0
   12.3282  -18.0272   27.9945 O   0  0  0  0  0  0  0  0  0  0  0  0
  2  1  1  6
  2 10  1  0
  3  2  1  0
  4  3  1  0
  5  4  2  0
  6  5  1  0
  7  6  2  0
  7  8  1  0
  8  9  2  0
  9  4  1  0
 10 11  2  0
 10 16  1  0
 13 14  1  0
 13 12  1  6
 15 13  1  0
 15 16  1  6
 17 21  1  0
 17 15  1  0
 18 17  2  0
 20 19  1  1
 20 22  1  0
 20 21  1  0
 22 24  1  0
 23 22  2  0
M  END
$$$$
