FTA.pdb
     RDKit          3D

 24 24  0  0  1  0  0  0  0  0999 V2000
    8.4122  -17.2299   16.4242 N   0  0  0  0  0  0  0  0  0  0  0  0
    8.8647  -16.6019   17.6273 C   0  0  1  0  0  0  0  0  0  0  0  0
    7.6483  -15.9308   18.2515 C   0  0  0  0  0  0  0  0  0  0  0  0
    8.0381  -14.6615   18.9029 C   0  0  0  0  0  0  0  0  0  0  0  0
    7.0078  -13.8987   19.4544 C   0  0  0  0  0  0  0  0  0  0  0  0
    7.3296  -12.7081   20.0703 C   0  0  0  0  0  0  0  0  0  0  0  0
    8.6284  -12.2529   20.1568 C   0  0  0  0  0  0  0  0  0  0  0  0
    9.6494  -12.9969   19.6169 C   0  0  0  0  0  0  0  0  0  0  0  0
    9.3326  -14.1986   18.9941 C   0  0  0  0  0  0  0  0  0  0  0  0
    9.3806  -17.5967   18.5808 C   0  0  0  0  0  0  0  0  0  0  0  0
    8.7624  -18.7086   18.6665 O   0  0  0  0  0  0  0  0  0  0  0  0
   11.5695  -19.8969   18.3671 C   0  0  0  0  0  0  0  0  0  0  0  0
   12.0964  -19.1320   19.5371 C   0  0  1  0  0  0  0  0  0  0  0  0
   13.0061  -18.1456   19.0615 O   0  0  0  0  0  0  0  0  0  0  0  0
   10.9613  -18.4110   20.2836 C   0  0  2  0  0  0  0  0  0  0  0  0
   10.5254  -17.3383   19.3796 N   0  0  0  0  0  0  0  0  0  0  0  0
   11.4442  -17.8358   21.5419 C   0  0  0  0  0  0  0  0  0  0  0  0
   12.0834  -16.7355   21.5852 O   0  0  0  0  0  0  0  0  0  0  0  0
   11.0670  -18.3730   25.2520 C   0  0  0  0  0  0  0  0  0  0  0  0
   11.7943  -17.8736   24.0240 C   0  0  2  0  0  0  0  0  0  0  0  0
   11.2448  -18.4357   22.8088 N   0  0  0  0  0  0  0  0  0  0  0  0
   13.2493  -18.0877   24.1186 C   0  0  0  0  0  0  0  0  0  0  0  0
   13.8061  -18.9693   23.4256 O   0  0  0  0  0  0  0  0  0  0  0  0
   14.0667  -17.3470   24.9569 O   0  0  0  0  0  0  0  0  0  0  0  0
  2  1  1  6
  2 10  1  0
  3  2  1  0
  4  3  1  0
  5  4  2  0
  6  5  1  0
  7  6  2  0
  7  8  1  0
  8  9  2  0
  9  4  1  0
 10 11  2  0
 10 16  1  0
 13 14  1  0
 13 12  1  6
 15 13  1  0
 15 16  1  6
 17 21  1  0
 17 15  1  0
 18 17  2  0
 20 19  1  1
 20 22  1  0
 20 21  1  0
 22 24  1  0
 23 22  2  0
M  END
$$$$
