FTA.pdb
     RDKit          3D

 24 24  0  0  1  0  0  0  0  0999 V2000
    6.6327  -17.1294   26.5893 N   0  0  0  0  0  0  0  0  0  0  0  0
    6.1442  -16.7991   25.2859 C   0  0  1  0  0  0  0  0  0  0  0  0
    5.5802  -15.3874   25.3776 C   0  0  0  0  0  0  0  0  0  0  0  0
    6.5401  -14.4927   26.0599 C   0  0  0  0  0  0  0  0  0  0  0  0
    6.8931  -13.3227   25.3859 C   0  0  0  0  0  0  0  0  0  0  0  0
    7.7859  -12.4622   25.9881 C   0  0  0  0  0  0  0  0  0  0  0  0
    8.3357  -12.7212   27.2260 C   0  0  0  0  0  0  0  0  0  0  0  0
    7.9942  -13.8704   27.8970 C   0  0  0  0  0  0  0  0  0  0  0  0
    7.0944  -14.7431   27.2961 C   0  0  0  0  0  0  0  0  0  0  0  0
    7.2348  -16.7952   24.2981 C   0  0  0  0  0  0  0  0  0  0  0  0
    8.1074  -17.7215   24.3783 O   0  0  0  0  0  0  0  0  0  0  0  0
    7.8806  -13.6313   21.6156 C   0  0  0  0  0  0  0  0  0  0  0  0
    7.9254  -15.0351   21.1068 C   0  0  1  0  0  0  0  0  0  0  0  0
    8.9164  -15.1168   20.0881 O   0  0  0  0  0  0  0  0  0  0  0  0
    8.3120  -16.0172   22.2256 C   0  0  2  0  0  0  0  0  0  0  0  0
    7.3205  -15.8017   23.2878 N   0  0  0  0  0  0  0  0  0  0  0  0
    9.6561  -15.7299   22.7337 C   0  0  0  0  0  0  0  0  0  0  0  0
    9.8823  -14.7934   23.5661 O   0  0  0  0  0  0  0  0  0  0  0  0
   12.6530  -17.3716   23.6909 C   0  0  0  0  0  0  0  0  0  0  0  0
   12.1141  -16.1840   22.9259 C   0  0  2  0  0  0  0  0  0  0  0  0
   10.8112  -16.4574   22.3580 N   0  0  0  0  0  0  0  0  0  0  0  0
   13.0662  -15.7041   21.9085 C   0  0  0  0  0  0  0  0  0  0  0  0
   12.7663  -15.7399   20.6935 O   0  0  0  0  0  0  0  0  0  0  0  0
   14.3163  -15.1981   22.2260 O   0  0  0  0  0  0  0  0  0  0  0  0
  2  1  1  1
  2 10  1  0
  3  2  1  0
  4  3  1  0
  5  4  2  0
  6  5  1  0
  7  6  2  0
  7  8  1  0
  8  9  2  0
  9  4  1  0
 10 11  2  0
 10 16  1  0
 13 14  1  0
 13 12  1  1
 15 13  1  0
 15 16  1  1
 17 21  1  0
 17 15  1  0
 18 17  2  0
 20 19  1  6
 20 22  1  0
 20 21  1  0
 22 24  1  0
 23 22  2  0
M  END
$$$$
