FTA.pdb
     RDKit          3D

 24 24  0  0  1  0  0  0  0  0999 V2000
    5.9418  -16.9004   25.8198 N   0  0  0  0  0  0  0  0  0  0  0  0
    6.6364  -15.8287   25.1752 C   0  0  1  0  0  0  0  0  0  0  0  0
    7.3515  -15.0516   26.2726 C   0  0  0  0  0  0  0  0  0  0  0  0
    6.8180  -13.6750   26.3601 C   0  0  0  0  0  0  0  0  0  0  0  0
    7.5670  -12.6729   25.7418 C   0  0  0  0  0  0  0  0  0  0  0  0
    7.1038  -11.3758   25.8012 C   0  0  0  0  0  0  0  0  0  0  0  0
    5.9325  -11.0425   26.4480 C   0  0  0  0  0  0  0  0  0  0  0  0
    5.1884  -12.0221   27.0596 C   0  0  0  0  0  0  0  0  0  0  0  0
    5.6490  -13.3325   27.0039 C   0  0  0  0  0  0  0  0  0  0  0  0
    7.6501  -16.3425   24.2406 C   0  0  0  0  0  0  0  0  0  0  0  0
    8.2008  -17.4578   24.5215 O   0  0  0  0  0  0  0  0  0  0  0  0
    7.2610  -15.4489   20.4317 C   0  0  0  0  0  0  0  0  0  0  0  0
    8.7079  -15.5750   20.7813 C   0  0  1  0  0  0  0  0  0  0  0  0
    9.2548  -14.2687   20.9268 O   0  0  0  0  0  0  0  0  0  0  0  0
    8.8923  -16.3184   22.1152 C   0  0  2  0  0  0  0  0  0  0  0  0
    8.0078  -15.6310   23.0655 N   0  0  0  0  0  0  0  0  0  0  0  0
   10.2807  -16.2320   22.5756 C   0  0  0  0  0  0  0  0  0  0  0  0
   10.7598  -15.1731   23.0954 O   0  0  0  0  0  0  0  0  0  0  0  0
   13.2065  -18.5353   23.1826 C   0  0  0  0  0  0  0  0  0  0  0  0
   12.5676  -17.1823   22.9656 C   0  0  2  0  0  0  0  0  0  0  0  0
   11.2049  -17.3014   22.4928 N   0  0  0  0  0  0  0  0  0  0  0  0
   13.3800  -16.3223   22.0867 C   0  0  0  0  0  0  0  0  0  0  0  0
   14.5162  -15.9406   22.4485 O   0  0  0  0  0  0  0  0  0  0  0  0
   12.9479  -15.8959   20.8414 O   0  0  0  0  0  0  0  0  0  0  0  0
  2  1  1  1
  2 10  1  0
  3  2  1  0
  4  3  1  0
  5  4  2  0
  6  5  1  0
  7  6  2  0
  7  8  1  0
  8  9  2  0
  9  4  1  0
 10 11  2  0
 10 16  1  0
 13 14  1  0
 13 12  1  1
 15 13  1  0
 15 16  1  1
 17 21  1  0
 17 15  1  0
 18 17  2  0
 20 19  1  6
 20 22  1  0
 20 21  1  0
 22 24  1  0
 23 22  2  0
M  END
$$$$
