FTA.pdb
     RDKit          3D

 24 24  0  0  1  0  0  0  0  0999 V2000
   -4.0170   -0.9581   15.7552 N   0  0  0  0  0  0  0  0  0  0  0  0
   -4.4956   -0.7497   17.0872 C   0  0  1  0  0  0  0  0  0  0  0  0
   -5.1921    0.6047   17.0921 C   0  0  0  0  0  0  0  0  0  0  0  0
   -4.2294    1.6801   16.7696 C   0  0  0  0  0  0  0  0  0  0  0  0
   -3.3878    2.0972   17.8018 C   0  0  0  0  0  0  0  0  0  0  0  0
   -2.4763    3.0982   17.5417 C   0  0  0  0  0  0  0  0  0  0  0  0
   -2.3726    3.6941   16.3024 C   0  0  0  0  0  0  0  0  0  0  0  0
   -3.1968    3.2902   15.2802 C   0  0  0  0  0  0  0  0  0  0  0  0
   -4.1186    2.2813   15.5349 C   0  0  0  0  0  0  0  0  0  0  0  0
   -5.4822   -1.7753   17.4606 C   0  0  0  0  0  0  0  0  0  0  0  0
   -6.1846   -2.2866   16.5272 O   0  0  0  0  0  0  0  0  0  0  0  0
   -4.8215   -4.9940   18.8664 C   0  0  0  0  0  0  0  0  0  0  0  0
   -5.8226   -4.3654   19.7796 C   0  0  1  0  0  0  0  0  0  0  0  0
   -5.1289   -3.7617   20.8663 O   0  0  0  0  0  0  0  0  0  0  0  0
   -6.6192   -3.2668   19.0555 C   0  0  2  0  0  0  0  0  0  0  0  0
   -5.6525   -2.1889   18.8079 N   0  0  0  0  0  0  0  0  0  0  0  0
   -7.7123   -2.7715   19.8965 C   0  0  0  0  0  0  0  0  0  0  0  0
   -7.5544   -1.8167   20.7238 O   0  0  0  0  0  0  0  0  0  0  0  0
  -11.4103   -3.4163   20.4248 C   0  0  0  0  0  0  0  0  0  0  0  0
  -10.0525   -2.8611   20.7912 C   0  0  2  0  0  0  0  0  0  0  0  0
   -9.0275   -3.2950   19.8661 N   0  0  0  0  0  0  0  0  0  0  0  0
   -9.6923   -3.1597   22.1886 C   0  0  0  0  0  0  0  0  0  0  0  0
   -8.8962   -4.0891   22.4527 O   0  0  0  0  0  0  0  0  0  0  0  0
  -10.1989   -2.4498   23.2652 O   0  0  0  0  0  0  0  0  0  0  0  0
  2  1  1  6
  2 10  1  0
  3  2  1  0
  4  3  1  0
  5  4  2  0
  6  5  1  0
  7  6  2  0
  7  8  1  0
  8  9  2  0
  9  4  1  0
 10 11  2  0
 10 16  1  0
 13 14  1  0
 13 12  1  6
 15 13  1  0
 15 16  1  1
 17 21  1  0
 17 15  1  0
 18 17  2  0
 20 19  1  6
 20 22  1  0
 20 21  1  0
 22 24  1  0
 23 22  2  0
M  END
$$$$
