FTA.pdb
     RDKit          3D

 24 24  0  0  1  0  0  0  0  0999 V2000
    5.6814  -16.7093   25.6666 N   0  0  0  0  0  0  0  0  0  0  0  0
    6.5016  -15.7514   24.9911 C   0  0  1  0  0  0  0  0  0  0  0  0
    7.4454  -15.1725   26.0369 C   0  0  0  0  0  0  0  0  0  0  0  0
    7.1041  -13.7602   26.3131 C   0  0  0  0  0  0  0  0  0  0  0  0
    7.9346  -12.7929   25.7455 C   0  0  0  0  0  0  0  0  0  0  0  0
    7.6506  -11.4644   25.9797 C   0  0  0  0  0  0  0  0  0  0  0  0
    6.5793  -11.0668   26.7516 C   0  0  0  0  0  0  0  0  0  0  0  0
    5.7562  -12.0117   27.3145 C   0  0  0  0  0  0  0  0  0  0  0  0
    6.0362  -13.3535   27.0828 C   0  0  0  0  0  0  0  0  0  0  0  0
    7.3129  -16.3943   23.9454 C   0  0  0  0  0  0  0  0  0  0  0  0
    7.5992  -17.6278   24.0952 O   0  0  0  0  0  0  0  0  0  0  0  0
    6.8705  -15.2355   20.2867 C   0  0  0  0  0  0  0  0  0  0  0  0
    8.2961  -15.6388   20.4773 C   0  0  1  0  0  0  0  0  0  0  0  0
    9.0908  -14.4619   20.5773 O   0  0  0  0  0  0  0  0  0  0  0  0
    8.4746  -16.4444   21.7754 C   0  0  2  0  0  0  0  0  0  0  0  0
    7.7639  -15.6767   22.8066 N   0  0  0  0  0  0  0  0  0  0  0  0
    9.8918  -16.5602   22.1295 C   0  0  0  0  0  0  0  0  0  0  0  0
   10.4980  -15.6694   22.8078 O   0  0  0  0  0  0  0  0  0  0  0  0
   12.6633  -19.1292   21.8784 C   0  0  0  0  0  0  0  0  0  0  0  0
   12.0938  -17.7581   22.1647 C   0  0  2  0  0  0  0  0  0  0  0  0
   10.7073  -17.6577   21.7620 N   0  0  0  0  0  0  0  0  0  0  0  0
   12.9151  -16.6850   21.5766 C   0  0  0  0  0  0  0  0  0  0  0  0
   12.5738  -16.1439   20.5004 O   0  0  0  0  0  0  0  0  0  0  0  0
   14.0822  -16.2226   22.1626 O   0  0  0  0  0  0  0  0  0  0  0  0
  2  1  1  1
  2 10  1  0
  3  2  1  0
  4  3  1  0
  5  4  2  0
  6  5  1  0
  7  6  2  0
  7  8  1  0
  8  9  2  0
  9  4  1  0
 10 11  2  0
 10 16  1  0
 13 14  1  0
 13 12  1  1
 15 13  1  0
 15 16  1  1
 17 21  1  0
 17 15  1  0
 18 17  2  0
 20 19  1  6
 20 22  1  0
 20 21  1  0
 22 24  1  0
 23 22  2  0
M  END
$$$$
