FTA.pdb
     RDKit          3D

 24 24  0  0  1  0  0  0  0  0999 V2000
    6.1045  -16.5286   24.6489 N   0  0  0  0  0  0  0  0  0  0  0  0
    7.3070  -15.7896   24.4156 C   0  0  1  0  0  0  0  0  0  0  0  0
    7.7161  -15.1905   25.7548 C   0  0  0  0  0  0  0  0  0  0  0  0
    7.2031  -13.8090   25.8791 C   0  0  0  0  0  0  0  0  0  0  0  0
    6.6784  -13.4454   27.1201 C   0  0  0  0  0  0  0  0  0  0  0  0
    6.1894  -12.1660   27.2767 C   0  0  0  0  0  0  0  0  0  0  0  0
    6.2034  -11.2431   26.2521 C   0  0  0  0  0  0  0  0  0  0  0  0
    6.7180  -11.5919   25.0270 C   0  0  0  0  0  0  0  0  0  0  0  0
    7.2129  -12.8803   24.8614 C   0  0  0  0  0  0  0  0  0  0  0  0
    8.3902  -16.6740   23.9576 C   0  0  0  0  0  0  0  0  0  0  0  0
    8.4113  -17.8654   24.4115 O   0  0  0  0  0  0  0  0  0  0  0  0
    9.5755  -16.6018   20.2998 C   0  0  0  0  0  0  0  0  0  0  0  0
   10.7724  -16.7685   21.1781 C   0  0  1  0  0  0  0  0  0  0  0  0
   11.4307  -15.5114   21.2910 O   0  0  0  0  0  0  0  0  0  0  0  0
   10.3638  -17.2194   22.5907 C   0  0  2  0  0  0  0  0  0  0  0  0
    9.3794  -16.2272   23.0427 N   0  0  0  0  0  0  0  0  0  0  0  0
   11.5177  -17.2227   23.4939 C   0  0  0  0  0  0  0  0  0  0  0  0
   11.8526  -16.1988   24.1727 O   0  0  0  0  0  0  0  0  0  0  0  0
   13.6277  -19.6599   25.3289 C   0  0  0  0  0  0  0  0  0  0  0  0
   13.4579  -18.3281   24.6335 C   0  0  2  0  0  0  0  0  0  0  0  0
   12.3531  -18.3473   23.6988 N   0  0  0  0  0  0  0  0  0  0  0  0
   14.7072  -17.8740   23.9971 C   0  0  0  0  0  0  0  0  0  0  0  0
   15.7406  -17.7013   24.6824 O   0  0  0  0  0  0  0  0  0  0  0  0
   14.8110  -17.6178   22.6395 O   0  0  0  0  0  0  0  0  0  0  0  0
  2  1  1  1
  2 10  1  0
  3  2  1  0
  4  3  1  0
  5  4  2  0
  6  5  1  0
  7  6  2  0
  7  8  1  0
  8  9  2  0
  9  4  1  0
 10 11  2  0
 10 16  1  0
 13 14  1  0
 13 12  1  6
 15 13  1  0
 15 16  1  1
 17 21  1  0
 17 15  1  0
 18 17  2  0
 20 19  1  6
 20 22  1  0
 20 21  1  0
 22 24  1  0
 23 22  2  0
M  END
$$$$
