FTA.pdb
     RDKit          3D

 24 24  0  0  1  0  0  0  0  0999 V2000
    6.0206  -16.9444   25.2495 N   0  0  0  0  0  0  0  0  0  0  0  0
    7.0836  -16.0647   24.8717 C   0  0  1  0  0  0  0  0  0  0  0  0
    7.5920  -15.4208   26.1548 C   0  0  0  0  0  0  0  0  0  0  0  0
    7.2434  -13.9837   26.1830 C   0  0  0  0  0  0  0  0  0  0  0  0
    6.2611  -13.5956   27.0952 C   0  0  0  0  0  0  0  0  0  0  0  0
    5.9072  -12.2645   27.1521 C   0  0  0  0  0  0  0  0  0  0  0  0
    6.4902  -11.3136   26.3412 C   0  0  0  0  0  0  0  0  0  0  0  0
    7.4580  -11.6861   25.4402 C   0  0  0  0  0  0  0  0  0  0  0  0
    7.8202  -13.0268   25.3769 C   0  0  0  0  0  0  0  0  0  0  0  0
    8.1947  -16.8107   24.2603 C   0  0  0  0  0  0  0  0  0  0  0  0
    8.4024  -18.0007   24.6687 O   0  0  0  0  0  0  0  0  0  0  0  0
    8.7153  -16.8162   20.5689 C   0  0  0  0  0  0  0  0  0  0  0  0
   10.0796  -16.7311   21.1714 C   0  0  1  0  0  0  0  0  0  0  0  0
   10.5438  -15.3903   21.0553 O   0  0  0  0  0  0  0  0  0  0  0  0
   10.0485  -17.0954   22.6654 C   0  0  2  0  0  0  0  0  0  0  0  0
    9.0106  -16.2362   23.2505 N   0  0  0  0  0  0  0  0  0  0  0  0
   11.3401  -16.8176   23.2995 C   0  0  0  0  0  0  0  0  0  0  0  0
   11.6247  -15.6783   23.7915 O   0  0  0  0  0  0  0  0  0  0  0  0
   14.4515  -18.7152   24.3281 C   0  0  0  0  0  0  0  0  0  0  0  0
   13.6334  -17.4691   24.0751 C   0  0  2  0  0  0  0  0  0  0  0  0
   12.3753  -17.7749   23.4281 N   0  0  0  0  0  0  0  0  0  0  0  0
   14.3965  -16.4479   23.3357 C   0  0  0  0  0  0  0  0  0  0  0  0
   14.2355  -16.3067   22.1022 O   0  0  0  0  0  0  0  0  0  0  0  0
   15.3131  -15.6056   23.9439 O   0  0  0  0  0  0  0  0  0  0  0  0
  2  1  1  1
  2 10  1  0
  3  2  1  0
  4  3  1  0
  5  4  2  0
  6  5  1  0
  7  6  2  0
  7  8  1  0
  8  9  2  0
  9  4  1  0
 10 11  2  0
 10 16  1  0
 13 14  1  0
 13 12  1  1
 15 13  1  0
 15 16  1  1
 17 21  1  0
 17 15  1  0
 18 17  2  0
 20 19  1  6
 20 22  1  0
 20 21  1  0
 22 24  1  0
 23 22  2  0
M  END
$$$$
