FTA.pdb
     RDKit          3D

 24 24  0  0  1  0  0  0  0  0999 V2000
    6.0677  -16.9481   25.6774 N   0  0  0  0  0  0  0  0  0  0  0  0
    6.5699  -15.8077   24.9746 C   0  0  1  0  0  0  0  0  0  0  0  0
    7.6077  -15.1600   25.8816 C   0  0  0  0  0  0  0  0  0  0  0  0
    7.1074  -13.8665   26.3952 C   0  0  0  0  0  0  0  0  0  0  0  0
    7.9992  -13.1069   27.1537 C   0  0  0  0  0  0  0  0  0  0  0  0
    7.5709  -11.8948   27.6513 C   0  0  0  0  0  0  0  0  0  0  0  0
    6.2983  -11.4149   27.4235 C   0  0  0  0  0  0  0  0  0  0  0  0
    5.4134  -12.1556   26.6780 C   0  0  0  0  0  0  0  0  0  0  0  0
    5.8381  -13.3791   26.1729 C   0  0  0  0  0  0  0  0  0  0  0  0
    7.2368  -16.2083   23.7257 C   0  0  0  0  0  0  0  0  0  0  0  0
    7.6190  -17.4204   23.6230 O   0  0  0  0  0  0  0  0  0  0  0  0
    8.3991  -13.4366   20.7756 C   0  0  0  0  0  0  0  0  0  0  0  0
    7.7821  -14.7339   20.3661 C   0  0  1  0  0  0  0  0  0  0  0  0
    8.3881  -15.1606   19.1506 O   0  0  0  0  0  0  0  0  0  0  0  0
    8.0259  -15.8217   21.4259 C   0  0  2  0  0  0  0  0  0  0  0  0
    7.4502  -15.2869   22.6671 N   0  0  0  0  0  0  0  0  0  0  0  0
    9.4595  -16.0651   21.6068 C   0  0  0  0  0  0  0  0  0  0  0  0
   10.1772  -15.3543   22.3819 O   0  0  0  0  0  0  0  0  0  0  0  0
   11.9517  -18.7814   21.0155 C   0  0  0  0  0  0  0  0  0  0  0  0
   11.5837  -17.3231   21.1704 C   0  0  2  0  0  0  0  0  0  0  0  0
   10.1705  -17.0997   20.9520 N   0  0  0  0  0  0  0  0  0  0  0  0
   12.4146  -16.4505   20.3218 C   0  0  0  0  0  0  0  0  0  0  0  0
   11.9294  -15.9109   19.3016 O   0  0  0  0  0  0  0  0  0  0  0  0
   13.7463  -16.1818   20.5940 O   0  0  0  0  0  0  0  0  0  0  0  0
  2  1  1  1
  2 10  1  0
  3  2  1  0
  4  3  1  0
  5  4  2  0
  6  5  1  0
  7  6  2  0
  7  8  1  0
  8  9  2  0
  9  4  1  0
 10 11  2  0
 10 16  1  0
 13 14  1  0
 13 12  1  1
 15 13  1  0
 15 16  1  1
 17 21  1  0
 17 15  1  0
 18 17  2  0
 20 19  1  6
 20 22  1  0
 20 21  1  0
 22 24  1  0
 23 22  2  0
M  END
$$$$
