FTA.pdb
     RDKit          3D

 24 24  0  0  1  0  0  0  0  0999 V2000
    5.9589  -17.2498   25.6077 N   0  0  0  0  0  0  0  0  0  0  0  0
    6.7757  -16.1879   25.1059 C   0  0  1  0  0  0  0  0  0  0  0  0
    7.3910  -15.5022   26.3187 C   0  0  0  0  0  0  0  0  0  0  0  0
    6.9309  -14.0994   26.4057 C   0  0  0  0  0  0  0  0  0  0  0  0
    7.8920  -13.1108   26.1896 C   0  0  0  0  0  0  0  0  0  0  0  0
    7.5033  -11.7902   26.2625 C   0  0  0  0  0  0  0  0  0  0  0  0
    6.2041  -11.4206   26.5402 C   0  0  0  0  0  0  0  0  0  0  0  0
    5.2511  -12.3867   26.7543 C   0  0  0  0  0  0  0  0  0  0  0  0
    5.6355  -13.7207   26.6825 C   0  0  0  0  0  0  0  0  0  0  0  0
    7.8680  -16.7111   24.2703 C   0  0  0  0  0  0  0  0  0  0  0  0
    8.2641  -17.9023   24.4942 O   0  0  0  0  0  0  0  0  0  0  0  0
    7.9545  -15.7272   20.5400 C   0  0  0  0  0  0  0  0  0  0  0  0
    9.3600  -15.8328   21.0349 C   0  0  1  0  0  0  0  0  0  0  0  0
    9.8597  -14.5197   21.2646 O   0  0  0  0  0  0  0  0  0  0  0  0
    9.4223  -16.6042   22.3641 C   0  0  2  0  0  0  0  0  0  0  0  0
    8.4646  -15.9269   23.2484 N   0  0  0  0  0  0  0  0  0  0  0  0
   10.7664  -16.5406   22.9443 C   0  0  0  0  0  0  0  0  0  0  0  0
   11.1789  -15.5264   23.5942 O   0  0  0  0  0  0  0  0  0  0  0  0
   13.8626  -18.7210   23.1757 C   0  0  0  0  0  0  0  0  0  0  0  0
   13.0854  -17.4290   23.2880 C   0  0  2  0  0  0  0  0  0  0  0  0
   11.7167  -17.5853   22.8440 N   0  0  0  0  0  0  0  0  0  0  0  0
   13.7620  -16.3157   22.5988 C   0  0  0  0  0  0  0  0  0  0  0  0
   14.6379  -15.6440   23.1896 O   0  0  0  0  0  0  0  0  0  0  0  0
   13.4776  -15.9549   21.2917 O   0  0  0  0  0  0  0  0  0  0  0  0
  2  1  1  1
  2 10  1  0
  3  2  1  0
  4  3  1  0
  5  4  2  0
  6  5  1  0
  7  6  2  0
  7  8  1  0
  8  9  2  0
  9  4  1  0
 10 11  2  0
 10 16  1  0
 13 14  1  0
 13 12  1  1
 15 13  1  0
 15 16  1  1
 17 21  1  0
 17 15  1  0
 18 17  2  0
 20 19  1  6
 20 22  1  0
 20 21  1  0
 22 24  1  0
 23 22  2  0
M  END
$$$$
