QQH.pdb
     RDKit          3D

 29 29  0  0  1  0  0  0  0  0999 V2000
    8.4496  -13.0829   16.1686 N   0  0  0  0  0  0  0  0  0  0  0  0
    7.8133  -14.2424   16.6910 C   0  0  0  0  0  0  0  0  0  0  0  0
    7.5719  -15.2416   15.9679 O   0  0  0  0  0  0  0  0  0  0  0  0
    7.4388  -14.2397   18.1282 C   0  0  0  0  0  0  0  0  0  0  0  0
    8.6080  -13.7497   18.9477 C   0  0  0  0  0  0  0  0  0  0  0  0
    9.1732  -14.8153   19.8444 C   0  0  2  0  0  0  0  0  0  0  0  0
    8.3448  -15.9828   19.7284 N   0  0  0  0  0  0  0  0  0  0  0  0
    9.3822  -14.3743   21.2282 C   0  0  0  0  0  0  0  0  0  0  0  0
    9.9025  -13.2459   21.4275 O   0  0  0  0  0  0  0  0  0  0  0  0
    6.5210  -12.7130   25.8814 N   0  0  0  0  0  0  0  0  0  0  0  0
    6.2267  -14.0194   25.4255 C   0  0  0  0  0  0  0  0  0  0  0  0
    5.0808  -14.4748   25.7038 O   0  0  0  0  0  0  0  0  0  0  0  0
    7.1933  -14.8362   24.6581 C   0  0  0  0  0  0  0  0  0  0  0  0
    8.4951  -14.0741   24.5264 C   0  0  0  0  0  0  0  0  0  0  0  0
    9.5106  -14.8390   23.7119 C   0  0  2  0  0  0  0  0  0  0  0  0
    9.0392  -15.1302   22.3805 N   0  0  0  0  0  0  0  0  0  0  0  0
    9.7342  -16.1362   24.4034 C   0  0  0  0  0  0  0  0  0  0  0  0
    8.9243  -17.0701   24.1474 O   0  0  0  0  0  0  0  0  0  0  0  0
   10.7839  -16.3771   25.3144 N   0  0  0  0  0  0  0  0  0  0  0  0
   10.5210  -17.0903   26.5533 C   0  0  1  0  0  0  0  0  0  0  0  0
    9.3422  -16.4239   27.2245 C   0  0  0  0  0  0  0  0  0  0  0  0
    9.7858  -15.3653   28.1526 C   0  0  0  0  0  0  0  0  0  0  0  0
    9.6553  -14.0148   28.0470 C   0  0  0  0  0  0  0  0  0  0  0  0
   10.2053  -13.3875   29.1125 N   0  0  0  0  0  0  0  0  0  0  0  0
   10.6894  -14.3760   29.8990 C   0  0  0  0  0  0  0  0  0  0  0  0
   10.4410  -15.5686   29.3284 N   0  0  0  0  0  0  0  0  0  0  0  0
   10.3450  -18.5341   26.3283 C   0  0  0  0  0  0  0  0  0  0  0  0
   11.3570  -19.2585   25.7343 O   0  0  0  0  0  0  0  0  0  0  0  0
    9.2988  -19.1194   26.6634 O   0  0  0  0  0  0  0  0  0  0  0  0
  1  2  1  0
  2  3  2  0
  4  2  1  0
  4  5  1  0
  6  5  1  0
  6  7  1  1
  8  6  1  0
  9  8  2  0
 10 11  1  0
 11 12  2  0
 11 13  1  0
 13 14  1  0
 15 14  1  1
 15 16  1  0
 16  8  1  0
 17 15  1  0
 17 18  2  0
 19 17  1  0
 20 19  1  0
 20 21  1  6
 21 22  1  0
 22 23  2  0
 23 24  1  0
 25 24  1  0
 26 22  1  0
 26 25  2  0
 27 20  1  0
 28 27  1  0
 29 27  2  0
M  END
$$$$
