QQH.pdb
     RDKit          3D

 29 29  0  0  1  0  0  0  0  0999 V2000
    8.3934  -12.8663   17.6074 N   0  0  0  0  0  0  0  0  0  0  0  0
    8.3319  -13.9302   16.6659 C   0  0  0  0  0  0  0  0  0  0  0  0
    8.4219  -13.7201   15.4301 O   0  0  0  0  0  0  0  0  0  0  0  0
    8.1567  -15.3093   17.1887 C   0  0  0  0  0  0  0  0  0  0  0  0
    8.0548  -15.2632   18.6942 C   0  0  0  0  0  0  0  0  0  0  0  0
    7.9296  -16.6295   19.3079 C   0  0  2  0  0  0  0  0  0  0  0  0
    7.1809  -17.4582   18.4048 N   0  0  0  0  0  0  0  0  0  0  0  0
    7.3991  -16.6170   20.6759 C   0  0  0  0  0  0  0  0  0  0  0  0
    6.4095  -15.8823   20.9304 O   0  0  0  0  0  0  0  0  0  0  0  0
    6.8029  -21.4006   24.1837 N   0  0  0  0  0  0  0  0  0  0  0  0
    5.8533  -20.7840   23.3356 C   0  0  0  0  0  0  0  0  0  0  0  0
    4.8923  -21.5032   22.9393 O   0  0  0  0  0  0  0  0  0  0  0  0
    5.9545  -19.3683   22.9163 C   0  0  0  0  0  0  0  0  0  0  0  0
    7.1090  -18.7142   23.6458 C   0  0  0  0  0  0  0  0  0  0  0  0
    7.4062  -17.3377   23.1011 C   0  0  2  0  0  0  0  0  0  0  0  0
    7.9205  -17.3798   21.7545 N   0  0  0  0  0  0  0  0  0  0  0  0
    8.4606  -16.7462   23.9667 C   0  0  0  0  0  0  0  0  0  0  0  0
    9.6575  -17.0459   23.6995 O   0  0  0  0  0  0  0  0  0  0  0  0
    8.2019  -15.8830   25.0519 N   0  0  0  0  0  0  0  0  0  0  0  0
    9.2874  -15.4680   25.9248 C   0  0  1  0  0  0  0  0  0  0  0  0
    9.2618  -13.9588   26.0023 C   0  0  0  0  0  0  0  0  0  0  0  0
    7.9611  -13.4729   26.5029 C   0  0  0  0  0  0  0  0  0  0  0  0
    6.7185  -14.0002   26.3303 C   0  0  0  0  0  0  0  0  0  0  0  0
    5.7792  -13.2462   26.9472 N   0  0  0  0  0  0  0  0  0  0  0  0
    6.4585  -12.2245   27.5172 C   0  0  0  0  0  0  0  0  0  0  0  0
    7.7714  -12.3539   27.2544 N   0  0  0  0  0  0  0  0  0  0  0  0
    9.2243  -16.1365   27.2345 C   0  0  0  0  0  0  0  0  0  0  0  0
   10.2508  -15.9604   28.1385 O   0  0  0  0  0  0  0  0  0  0  0  0
    8.2612  -16.8606   27.5467 O   0  0  0  0  0  0  0  0  0  0  0  0
  1  2  1  0
  2  3  2  0
  4  2  1  0
  4  5  1  0
  6  5  1  0
  6  7  1  6
  8  6  1  0
  9  8  2  0
 10 11  1  0
 11 12  2  0
 11 13  1  0
 13 14  1  0
 15 14  1  1
 15 16  1  0
 16  8  1  0
 17 15  1  0
 17 18  2  0
 19 17  1  0
 20 19  1  0
 20 21  1  1
 21 22  1  0
 22 23  2  0
 23 24  1  0
 25 24  1  0
 26 22  1  0
 26 25  2  0
 27 20  1  0
 28 27  1  0
 29 27  2  0
M  END
$$$$
