QQH.pdb
     RDKit          3D

 29 29  0  0  1  0  0  0  0  0999 V2000
    7.4176  -12.6501   19.6792 N   0  0  0  0  0  0  0  0  0  0  0  0
    6.8930  -12.8638   18.3749 C   0  0  0  0  0  0  0  0  0  0  0  0
    5.7811  -12.3915   18.0283 O   0  0  0  0  0  0  0  0  0  0  0  0
    7.7033  -13.6682   17.4250 C   0  0  0  0  0  0  0  0  0  0  0  0
    9.0101  -14.0460   18.0794 C   0  0  0  0  0  0  0  0  0  0  0  0
    9.9516  -14.7385   17.1343 C   0  0  2  0  0  0  0  0  0  0  0  0
    9.2018  -15.7104   16.3886 N   0  0  0  0  0  0  0  0  0  0  0  0
   11.1464  -15.2870   17.7857 C   0  0  0  0  0  0  0  0  0  0  0  0
   11.1753  -16.5168   18.0515 O   0  0  0  0  0  0  0  0  0  0  0  0
   17.4611  -13.7115   17.7097 N   0  0  0  0  0  0  0  0  0  0  0  0
   17.0828  -14.0583   19.0280 C   0  0  0  0  0  0  0  0  0  0  0  0
   17.8285  -13.6455   19.9614 O   0  0  0  0  0  0  0  0  0  0  0  0
   15.8784  -14.8640   19.3294 C   0  0  0  0  0  0  0  0  0  0  0  0
   14.6975  -14.2976   18.5695 C   0  0  0  0  0  0  0  0  0  0  0  0
   13.4294  -15.0664   18.8537 C   0  0  2  0  0  0  0  0  0  0  0  0
   12.2926  -14.5301   18.1468 N   0  0  0  0  0  0  0  0  0  0  0  0
   13.1574  -14.9332   20.3094 C   0  0  0  0  0  0  0  0  0  0  0  0
   12.3688  -14.0134   20.6641 O   0  0  0  0  0  0  0  0  0  0  0  0
   13.7224  -15.7638   21.2996 N   0  0  0  0  0  0  0  0  0  0  0  0
   12.8799  -16.3306   22.3396 C   0  0  1  0  0  0  0  0  0  0  0  0
   11.7577  -17.0823   21.6613 C   0  0  0  0  0  0  0  0  0  0  0  0
   10.4885  -16.3333   21.7435 C   0  0  0  0  0  0  0  0  0  0  0  0
   10.2433  -15.1072   22.2806 C   0  0  0  0  0  0  0  0  0  0  0  0
    8.9367  -14.7757   22.1619 N   0  0  0  0  0  0  0  0  0  0  0  0
    8.3571  -15.8248   21.5344 C   0  0  0  0  0  0  0  0  0  0  0  0
    9.2841  -16.7657   21.2794 N   0  0  0  0  0  0  0  0  0  0  0  0
   13.6549  -17.1421   23.2918 C   0  0  0  0  0  0  0  0  0  0  0  0
   13.2590  -17.2059   24.6113 O   0  0  0  0  0  0  0  0  0  0  0  0
   14.6644  -17.7754   22.9322 O   0  0  0  0  0  0  0  0  0  0  0  0
  1  2  1  0
  2  3  2  0
  4  2  1  0
  4  5  1  0
  6  5  1  0
  6  7  1  1
  8  6  1  0
  9  8  2  0
 10 11  1  0
 11 12  2  0
 11 13  1  0
 13 14  1  0
 15 14  1  6
 15 16  1  0
 16  8  1  0
 17 15  1  0
 17 18  2  0
 19 17  1  0
 20 19  1  0
 20 21  1  6
 21 22  1  0
 22 23  2  0
 23 24  1  0
 25 24  1  0
 26 22  1  0
 26 25  2  0
 27 20  1  0
 28 27  1  0
 29 27  2  0
M  END
$$$$
