QQH.pdb
     RDKit          3D

 29 29  0  0  1  0  0  0  0  0999 V2000
    7.3860  -20.0101   13.4064 N   0  0  0  0  0  0  0  0  0  0  0  0
    8.8073  -19.9902   13.4448 C   0  0  0  0  0  0  0  0  0  0  0  0
    9.4956  -20.7111   12.6792 O   0  0  0  0  0  0  0  0  0  0  0  0
    9.4618  -19.0853   14.4239 C   0  0  0  0  0  0  0  0  0  0  0  0
    8.4028  -18.3452   15.2048 C   0  0  0  0  0  0  0  0  0  0  0  0
    8.9838  -17.4519   16.2648 C   0  0  2  0  0  0  0  0  0  0  0  0
   10.4019  -17.3701   16.0524 N   0  0  0  0  0  0  0  0  0  0  0  0
    8.6123  -17.8365   17.6312 C   0  0  0  0  0  0  0  0  0  0  0  0
    7.7512  -18.7408   17.7882 O   0  0  0  0  0  0  0  0  0  0  0  0
   13.5928  -19.8422   18.8289 N   0  0  0  0  0  0  0  0  0  0  0  0
   12.7741  -20.3812   19.8488 C   0  0  0  0  0  0  0  0  0  0  0  0
   13.0750  -21.5342   20.2706 O   0  0  0  0  0  0  0  0  0  0  0  0
   11.6154  -19.6538   20.4135 C   0  0  0  0  0  0  0  0  0  0  0  0
   11.0277  -18.7509   19.3494 C   0  0  0  0  0  0  0  0  0  0  0  0
    9.8103  -18.0131   19.8527 C   0  0  2  0  0  0  0  0  0  0  0  0
    9.1547  -17.2615   18.8111 N   0  0  0  0  0  0  0  0  0  0  0  0
   10.2818  -17.0444   20.8773 C   0  0  0  0  0  0  0  0  0  0  0  0
   11.2879  -16.3412   20.5823 O   0  0  0  0  0  0  0  0  0  0  0  0
    9.6773  -16.8705   22.1399 N   0  0  0  0  0  0  0  0  0  0  0  0
    9.9773  -15.6896   22.9324 C   0  0  1  0  0  0  0  0  0  0  0  0
    8.6830  -14.9381   23.1432 C   0  0  0  0  0  0  0  0  0  0  0  0
    8.2479  -14.2676   21.9023 C   0  0  0  0  0  0  0  0  0  0  0  0
    8.8626  -14.2137   20.6894 C   0  0  0  0  0  0  0  0  0  0  0  0
    8.1373  -13.4874   19.8075 N   0  0  0  0  0  0  0  0  0  0  0  0
    7.0440  -13.0806   20.4927 C   0  0  0  0  0  0  0  0  0  0  0  0
    7.1033  -13.5459   21.7535 N   0  0  0  0  0  0  0  0  0  0  0  0
   10.6824  -16.0298   24.1786 C   0  0  0  0  0  0  0  0  0  0  0  0
   11.2502  -15.0262   24.9350 O   0  0  0  0  0  0  0  0  0  0  0  0
   10.7787  -17.2083   24.5677 O   0  0  0  0  0  0  0  0  0  0  0  0
  1  2  1  0
  2  3  2  0
  4  2  1  0
  4  5  1  0
  6  5  1  0
  6  7  1  1
  8  6  1  0
  9  8  2  0
 10 11  1  0
 11 12  2  0
 11 13  1  0
 13 14  1  0
 15 14  1  6
 15 16  1  0
 16  8  1  0
 17 15  1  0
 17 18  2  0
 19 17  1  0
 20 19  1  0
 20 21  1  1
 21 22  1  0
 22 23  2  0
 23 24  1  0
 25 24  1  0
 26 22  1  0
 26 25  2  0
 27 20  1  0
 28 27  1  0
 29 27  2  0
M  END
$$$$
