QQH.pdb
     RDKit          3D

 29 29  0  0  1  0  0  0  0  0999 V2000
    8.1597  -12.2697   17.3093 N   0  0  0  0  0  0  0  0  0  0  0  0
    7.7443  -13.4055   16.5613 C   0  0  0  0  0  0  0  0  0  0  0  0
    7.7056  -13.3869   15.3053 O   0  0  0  0  0  0  0  0  0  0  0  0
    7.3540  -14.6256   17.3129 C   0  0  0  0  0  0  0  0  0  0  0  0
    7.4577  -14.3539   18.7942 C   0  0  0  0  0  0  0  0  0  0  0  0
    8.0463  -15.5090   19.5547 C   0  0  2  0  0  0  0  0  0  0  0  0
    8.0176  -16.6656   18.7036 N   0  0  0  0  0  0  0  0  0  0  0  0
    7.4309  -15.7271   20.8687 C   0  0  0  0  0  0  0  0  0  0  0  0
    7.3989  -14.7689   21.6841 O   0  0  0  0  0  0  0  0  0  0  0  0
    3.5988  -20.3903   22.4770 N   0  0  0  0  0  0  0  0  0  0  0  0
    3.3023  -19.1875   21.7940 C   0  0  0  0  0  0  0  0  0  0  0  0
    2.2329  -19.1641   21.1204 O   0  0  0  0  0  0  0  0  0  0  0  0
    4.1825  -17.9989   21.8471 C   0  0  0  0  0  0  0  0  0  0  0  0
    5.3824  -18.3064   22.7181 C   0  0  0  0  0  0  0  0  0  0  0  0
    6.4172  -17.2090   22.6514 C   0  0  2  0  0  0  0  0  0  0  0  0
    6.8586  -16.9523   21.3027 N   0  0  0  0  0  0  0  0  0  0  0  0
    7.5956  -17.6750   23.4291 C   0  0  0  0  0  0  0  0  0  0  0  0
    8.2346  -18.6611   22.9673 O   0  0  0  0  0  0  0  0  0  0  0  0
    8.0321  -17.0861   24.6342 N   0  0  0  0  0  0  0  0  0  0  0  0
    9.0751  -17.7255   25.4191 C   0  0  1  0  0  0  0  0  0  0  0  0
   10.2860  -16.8213   25.3952 C   0  0  0  0  0  0  0  0  0  0  0  0
   10.8666  -16.7440   24.0404 C   0  0  0  0  0  0  0  0  0  0  0  0
   10.4080  -17.2731   22.8735 C   0  0  0  0  0  0  0  0  0  0  0  0
   11.2390  -16.9808   21.8462 N   0  0  0  0  0  0  0  0  0  0  0  0
   12.2392  -16.2510   22.3916 C   0  0  0  0  0  0  0  0  0  0  0  0
   12.0223  -16.1043   23.7111 N   0  0  0  0  0  0  0  0  0  0  0  0
    8.6104  -18.0690   26.7726 C   0  0  0  0  0  0  0  0  0  0  0  0
    9.4165  -18.8252   27.5973 O   0  0  0  0  0  0  0  0  0  0  0  0
    7.5012  -17.6910   27.1924 O   0  0  0  0  0  0  0  0  0  0  0  0
  1  2  1  0
  2  3  2  0
  4  2  1  0
  4  5  1  0
  6  5  1  0
  6  7  1  6
  8  6  1  0
  9  8  2  0
 10 11  1  0
 11 12  2  0
 11 13  1  0
 13 14  1  0
 15 14  1  6
 15 16  1  0
 16  8  1  0
 17 15  1  0
 17 18  2  0
 19 17  1  0
 20 19  1  0
 20 21  1  1
 21 22  1  0
 22 23  2  0
 23 24  1  0
 25 24  1  0
 26 22  1  0
 26 25  2  0
 27 20  1  0
 28 27  1  0
 29 27  2  0
M  END
$$$$
