QQH.pdb
     RDKit          3D

 29 29  0  0  1  0  0  0  0  0999 V2000
    8.8893  -21.1006   17.6033 N   0  0  0  0  0  0  0  0  0  0  0  0
    7.5602  -21.6059   17.5833 C   0  0  0  0  0  0  0  0  0  0  0  0
    7.0990  -22.2022   16.5778 O   0  0  0  0  0  0  0  0  0  0  0  0
    6.7247  -21.4074   18.7951 C   0  0  0  0  0  0  0  0  0  0  0  0
    7.5226  -20.6570   19.8340 C   0  0  0  0  0  0  0  0  0  0  0  0
    6.7790  -20.4967   21.1303 C   0  0  2  0  0  0  0  0  0  0  0  0
    5.4709  -19.9827   20.8346 N   0  0  0  0  0  0  0  0  0  0  0  0
    7.5069  -19.7161   22.1372 C   0  0  0  0  0  0  0  0  0  0  0  0
    8.1549  -18.7049   21.7609 O   0  0  0  0  0  0  0  0  0  0  0  0
    6.9722  -19.6964   28.5078 N   0  0  0  0  0  0  0  0  0  0  0  0
    8.1592  -18.9667   28.2631 C   0  0  0  0  0  0  0  0  0  0  0  0
    8.7142  -18.4302   29.2640 O   0  0  0  0  0  0  0  0  0  0  0  0
    8.7454  -18.8217   26.9119 C   0  0  0  0  0  0  0  0  0  0  0  0
    7.8054  -19.4313   25.8932 C   0  0  0  0  0  0  0  0  0  0  0  0
    8.3444  -19.3032   24.4886 C   0  0  2  0  0  0  0  0  0  0  0  0
    7.5401  -20.0138   23.5254 N   0  0  0  0  0  0  0  0  0  0  0  0
    9.6981  -19.9180   24.4848 C   0  0  0  0  0  0  0  0  0  0  0  0
    9.7562  -21.1784   24.5253 O   0  0  0  0  0  0  0  0  0  0  0  0
   10.9013  -19.1831   24.4392 N   0  0  0  0  0  0  0  0  0  0  0  0
   12.1780  -19.8769   24.4736 C   0  0  1  0  0  0  0  0  0  0  0  0
   13.1212  -19.1473   23.5449 C   0  0  0  0  0  0  0  0  0  0  0  0
   12.6597  -19.2283   22.1453 C   0  0  0  0  0  0  0  0  0  0  0  0
   11.9138  -20.1902   21.5368 C   0  0  0  0  0  0  0  0  0  0  0  0
   11.7101  -19.8961   20.2317 N   0  0  0  0  0  0  0  0  0  0  0  0
   12.3470  -18.7204   20.0264 C   0  0  0  0  0  0  0  0  0  0  0  0
   12.9207  -18.3123   21.1727 N   0  0  0  0  0  0  0  0  0  0  0  0
   12.6850  -20.0251   25.8473 C   0  0  0  0  0  0  0  0  0  0  0  0
   13.7954  -20.8084   26.0820 O   0  0  0  0  0  0  0  0  0  0  0  0
   12.1320  -19.4571   26.8069 O   0  0  0  0  0  0  0  0  0  0  0  0
  1  2  1  0
  2  3  2  0
  4  2  1  0
  4  5  1  0
  6  5  1  0
  6  7  1  6
  8  6  1  0
  9  8  2  0
 10 11  1  0
 11 12  2  0
 11 13  1  0
 13 14  1  0
 15 14  1  1
 15 16  1  0
 16  8  1  0
 17 15  1  0
 17 18  2  0
 19 17  1  0
 20 19  1  0
 20 21  1  6
 21 22  1  0
 22 23  2  0
 23 24  1  0
 25 24  1  0
 26 22  1  0
 26 25  2  0
 27 20  1  0
 28 27  1  0
 29 27  2  0
M  END
$$$$
