QQH.pdb
     RDKit          3D

 29 29  0  0  1  0  0  0  0  0999 V2000
    5.7492  -16.8016   18.1294 N   0  0  0  0  0  0  0  0  0  0  0  0
    7.1685  -16.8846   18.1039 C   0  0  0  0  0  0  0  0  0  0  0  0
    7.7613  -17.8261   17.5192 O   0  0  0  0  0  0  0  0  0  0  0  0
    7.9379  -15.8179   18.7939 C   0  0  0  0  0  0  0  0  0  0  0  0
    6.9951  -14.7183   19.2195 C   0  0  0  0  0  0  0  0  0  0  0  0
    7.7066  -13.5663   19.8719 C   0  0  2  0  0  0  0  0  0  0  0  0
    8.7103  -13.0880   18.9625 N   0  0  0  0  0  0  0  0  0  0  0  0
    8.2206  -13.8709   21.2120 C   0  0  0  0  0  0  0  0  0  0  0  0
    9.4532  -14.0847   21.3490 O   0  0  0  0  0  0  0  0  0  0  0  0
    5.1487  -13.1345   26.7372 N   0  0  0  0  0  0  0  0  0  0  0  0
    6.1552  -12.2036   26.3885 C   0  0  0  0  0  0  0  0  0  0  0  0
    6.1343  -11.0912   26.9885 O   0  0  0  0  0  0  0  0  0  0  0  0
    7.1945  -12.4906   25.3746 C   0  0  0  0  0  0  0  0  0  0  0  0
    6.9559  -13.8683   24.7932 C   0  0  0  0  0  0  0  0  0  0  0  0
    7.9517  -14.1963   23.7066 C   0  0  2  0  0  0  0  0  0  0  0  0
    7.4266  -13.9452   22.3872 N   0  0  0  0  0  0  0  0  0  0  0  0
    8.2399  -15.6516   23.8063 C   0  0  0  0  0  0  0  0  0  0  0  0
    7.9814  -16.3586   22.7928 O   0  0  0  0  0  0  0  0  0  0  0  0
    8.7774  -16.2756   24.9515 N   0  0  0  0  0  0  0  0  0  0  0  0
    9.9642  -17.1068   24.8363 C   0  0  1  0  0  0  0  0  0  0  0  0
   10.9992  -16.3230   24.0625 C   0  0  0  0  0  0  0  0  0  0  0  0
   11.1550  -16.8526   22.6936 C   0  0  0  0  0  0  0  0  0  0  0  0
   10.5070  -17.8852   22.0888 C   0  0  0  0  0  0  0  0  0  0  0  0
   10.9457  -18.0598   20.8206 N   0  0  0  0  0  0  0  0  0  0  0  0
   11.8909  -17.1099   20.6350 C   0  0  0  0  0  0  0  0  0  0  0  0
   12.0225  -16.3797   21.7572 N   0  0  0  0  0  0  0  0  0  0  0  0
   10.4304  -17.5822   26.1488 C   0  0  0  0  0  0  0  0  0  0  0  0
   10.6142  -16.6783   27.1739 O   0  0  0  0  0  0  0  0  0  0  0  0
   10.6637  -18.7872   26.3561 O   0  0  0  0  0  0  0  0  0  0  0  0
  1  2  1  0
  2  3  2  0
  4  2  1  0
  4  5  1  0
  6  5  1  0
  6  7  1  6
  8  6  1  0
  9  8  2  0
 10 11  1  0
 11 12  2  0
 11 13  1  0
 13 14  1  0
 15 14  1  1
 15 16  1  0
 16  8  1  0
 17 15  1  0
 17 18  2  0
 19 17  1  0
 20 19  1  0
 20 21  1  1
 21 22  1  0
 22 23  2  0
 23 24  1  0
 25 24  1  0
 26 22  1  0
 26 25  2  0
 27 20  1  0
 28 27  1  0
 29 27  2  0
M  END
$$$$
