QQH.pdb
     RDKit          3D

 29 29  0  0  1  0  0  0  0  0999 V2000
    8.9667  -13.2445   16.0679 N   0  0  0  0  0  0  0  0  0  0  0  0
    7.9167  -13.8844   15.3536 C   0  0  0  0  0  0  0  0  0  0  0  0
    7.3930  -13.3551   14.3411 O   0  0  0  0  0  0  0  0  0  0  0  0
    7.4520  -15.2078   15.8420 C   0  0  0  0  0  0  0  0  0  0  0  0
    8.2229  -15.5796   17.0856 C   0  0  0  0  0  0  0  0  0  0  0  0
    9.4636  -16.3720   16.7821 C   0  0  2  0  0  0  0  0  0  0  0  0
    9.0640  -17.6214   16.1970 N   0  0  0  0  0  0  0  0  0  0  0  0
   10.3670  -16.5188   17.9289 C   0  0  0  0  0  0  0  0  0  0  0  0
   10.3219  -17.5842   18.5973 O   0  0  0  0  0  0  0  0  0  0  0  0
   15.7186  -13.2377   19.0535 N   0  0  0  0  0  0  0  0  0  0  0  0
   15.7279  -14.2857   20.0037 C   0  0  0  0  0  0  0  0  0  0  0  0
   16.8098  -14.4779   20.6286 O   0  0  0  0  0  0  0  0  0  0  0  0
   14.5441  -15.1318   20.2738 C   0  0  0  0  0  0  0  0  0  0  0  0
   13.4626  -14.8122   19.2633 C   0  0  0  0  0  0  0  0  0  0  0  0
   12.2869  -15.7515   19.3870 C   0  0  2  0  0  0  0  0  0  0  0  0
   11.3042  -15.5398   18.3530 N   0  0  0  0  0  0  0  0  0  0  0  0
   11.6356  -15.4629   20.6921 C   0  0  0  0  0  0  0  0  0  0  0  0
   11.5889  -14.2548   21.0556 O   0  0  0  0  0  0  0  0  0  0  0  0
   11.0762  -16.4479   21.5327 N   0  0  0  0  0  0  0  0  0  0  0  0
   10.6024  -16.0875   22.8587 C   0  0  1  0  0  0  0  0  0  0  0  0
    9.1296  -16.4204   22.9252 C   0  0  0  0  0  0  0  0  0  0  0  0
    8.3257  -15.4320   22.1801 C   0  0  0  0  0  0  0  0  0  0  0  0
    8.7186  -14.2740   21.5828 C   0  0  0  0  0  0  0  0  0  0  0  0
    7.6696  -13.6432   21.0056 N   0  0  0  0  0  0  0  0  0  0  0  0
    6.5983  -14.4317   21.2521 C   0  0  0  0  0  0  0  0  0  0  0  0
    6.9849  -15.5096   21.9581 N   0  0  0  0  0  0  0  0  0  0  0  0
   11.4073  -16.7161   23.9184 C   0  0  0  0  0  0  0  0  0  0  0  0
   12.4562  -17.5434   23.5760 O   0  0  0  0  0  0  0  0  0  0  0  0
   11.1622  -16.5173   25.1225 O   0  0  0  0  0  0  0  0  0  0  0  0
  1  2  1  0
  2  3  2  0
  4  2  1  0
  4  5  1  0
  6  5  1  0
  6  7  1  1
  8  6  1  0
  9  8  2  0
 10 11  1  0
 11 12  2  0
 11 13  1  0
 13 14  1  0
 15 14  1  6
 15 16  1  0
 16  8  1  0
 17 15  1  0
 17 18  2  0
 19 17  1  0
 20 19  1  0
 20 21  1  6
 21 22  1  0
 22 23  2  0
 23 24  1  0
 25 24  1  0
 26 22  1  0
 26 25  2  0
 27 20  1  0
 28 27  1  0
 29 27  2  0
M  END
$$$$
