QQH.pdb
     RDKit          3D

 29 29  0  0  1  0  0  0  0  0999 V2000
   10.1289  -21.1229   23.6021 N   0  0  0  0  0  0  0  0  0  0  0  0
    9.4699  -21.9694   22.6686 C   0  0  0  0  0  0  0  0  0  0  0  0
    9.2683  -23.1857   22.9128 O   0  0  0  0  0  0  0  0  0  0  0  0
    9.0225  -21.3705   21.3853 C   0  0  0  0  0  0  0  0  0  0  0  0
    9.2825  -19.8837   21.4109 C   0  0  0  0  0  0  0  0  0  0  0  0
    8.8736  -19.2026   20.1349 C   0  0  2  0  0  0  0  0  0  0  0  0
    9.4475  -19.9291   19.0368 N   0  0  0  0  0  0  0  0  0  0  0  0
    9.1681  -17.7654   20.1109 C   0  0  0  0  0  0  0  0  0  0  0  0
   10.3204  -17.3934   19.7675 O   0  0  0  0  0  0  0  0  0  0  0  0
    8.3937  -13.3423   18.2200 N   0  0  0  0  0  0  0  0  0  0  0  0
    8.3097  -12.5167   19.3656 C   0  0  0  0  0  0  0  0  0  0  0  0
    8.7361  -11.3327   19.2465 O   0  0  0  0  0  0  0  0  0  0  0  0
    7.7548  -12.9891   20.6538 C   0  0  0  0  0  0  0  0  0  0  0  0
    7.3754  -14.4495   20.5269 C   0  0  0  0  0  0  0  0  0  0  0  0
    8.5873  -15.3485   20.5824 C   0  0  2  0  0  0  0  0  0  0  0  0
    8.2429  -16.7425   20.4492 N   0  0  0  0  0  0  0  0  0  0  0  0
    9.2043  -15.1639   21.9225 C   0  0  0  0  0  0  0  0  0  0  0  0
    9.7309  -14.0419   22.1623 O   0  0  0  0  0  0  0  0  0  0  0  0
    9.2334  -16.1566   22.9243 N   0  0  0  0  0  0  0  0  0  0  0  0
    9.7399  -15.8374   24.2487 C   0  0  1  0  0  0  0  0  0  0  0  0
    8.5857  -15.9440   25.2187 C   0  0  0  0  0  0  0  0  0  0  0  0
    7.7262  -14.7455   25.1580 C   0  0  0  0  0  0  0  0  0  0  0  0
    7.9127  -13.5836   24.4747 C   0  0  0  0  0  0  0  0  0  0  0  0
    6.8905  -12.7230   24.6888 N   0  0  0  0  0  0  0  0  0  0  0  0
    6.0484  -13.3694   25.5274 C   0  0  0  0  0  0  0  0  0  0  0  0
    6.5442  -14.5866   25.8142 N   0  0  0  0  0  0  0  0  0  0  0  0
   10.9017  -16.6670   24.6063 C   0  0  0  0  0  0  0  0  0  0  0  0
   11.5134  -16.4901   25.8296 O   0  0  0  0  0  0  0  0  0  0  0  0
   11.3473  -17.5289   23.8266 O   0  0  0  0  0  0  0  0  0  0  0  0
  1  2  1  0
  2  3  2  0
  4  2  1  0
  4  5  1  0
  6  5  1  0
  6  7  1  6
  8  6  1  0
  9  8  2  0
 10 11  1  0
 11 12  2  0
 11 13  1  0
 13 14  1  0
 15 14  1  1
 15 16  1  0
 16  8  1  0
 17 15  1  0
 17 18  2  0
 19 17  1  0
 20 19  1  0
 20 21  1  1
 21 22  1  0
 22 23  2  0
 23 24  1  0
 25 24  1  0
 26 22  1  0
 26 25  2  0
 27 20  1  0
 28 27  1  0
 29 27  2  0
M  END
$$$$
