QQH.pdb
     RDKit          3D

 29 29  0  0  1  0  0  0  0  0999 V2000
    8.2139  -12.5993   17.6881 N   0  0  0  0  0  0  0  0  0  0  0  0
    7.6443  -13.8529   17.3327 C   0  0  0  0  0  0  0  0  0  0  0  0
    6.9069  -13.9768   16.3225 O   0  0  0  0  0  0  0  0  0  0  0  0
    7.9479  -15.0222   18.1965 C   0  0  0  0  0  0  0  0  0  0  0  0
    8.7055  -14.5579   19.4170 C   0  0  0  0  0  0  0  0  0  0  0  0
    9.5122  -15.6567   20.0501 C   0  0  2  0  0  0  0  0  0  0  0  0
    9.3408  -16.8467   19.2643 N   0  0  0  0  0  0  0  0  0  0  0  0
    9.2346  -15.8466   21.4783 C   0  0  0  0  0  0  0  0  0  0  0  0
    9.2476  -14.8392   22.2326 O   0  0  0  0  0  0  0  0  0  0  0  0
    5.8570  -20.3315   24.3751 N   0  0  0  0  0  0  0  0  0  0  0  0
    6.3994  -19.5831   25.4460 C   0  0  0  0  0  0  0  0  0  0  0  0
    5.9924  -19.8735   26.6070 O   0  0  0  0  0  0  0  0  0  0  0  0
    7.3959  -18.5071   25.2468 C   0  0  0  0  0  0  0  0  0  0  0  0
    7.6535  -18.3352   23.7646 C   0  0  0  0  0  0  0  0  0  0  0  0
    8.6906  -17.2710   23.4974 C   0  0  2  0  0  0  0  0  0  0  0  0
    8.9473  -17.0962   22.0891 N   0  0  0  0  0  0  0  0  0  0  0  0
    9.9555  -17.7278   24.1316 C   0  0  0  0  0  0  0  0  0  0  0  0
   10.0549  -18.9591   24.3919 O   0  0  0  0  0  0  0  0  0  0  0  0
   11.0327  -16.8758   24.4531 N   0  0  0  0  0  0  0  0  0  0  0  0
   11.1467  -16.3228   25.7924 C   0  0  1  0  0  0  0  0  0  0  0  0
    9.9176  -15.4807   26.0467 C   0  0  0  0  0  0  0  0  0  0  0  0
    9.9130  -14.9464   27.4226 C   0  0  0  0  0  0  0  0  0  0  0  0
   10.7975  -15.1605   28.4344 C   0  0  0  0  0  0  0  0  0  0  0  0
   10.4320  -14.4893   29.5512 N   0  0  0  0  0  0  0  0  0  0  0  0
    9.2905  -13.8421   29.2222 C   0  0  0  0  0  0  0  0  0  0  0  0
    8.9718  -14.1122   27.9434 N   0  0  0  0  0  0  0  0  0  0  0  0
   11.3745  -17.3703   26.8009 C   0  0  0  0  0  0  0  0  0  0  0  0
   10.5283  -18.4579   26.8553 O   0  0  0  0  0  0  0  0  0  0  0  0
   12.3178  -17.2971   27.6096 O   0  0  0  0  0  0  0  0  0  0  0  0
  1  2  1  0
  2  3  2  0
  4  2  1  0
  4  5  1  0
  6  5  1  0
  6  7  1  6
  8  6  1  0
  9  8  2  0
 10 11  1  0
 11 12  2  0
 11 13  1  0
 13 14  1  0
 15 14  1  6
 15 16  1  0
 16  8  1  0
 17 15  1  0
 17 18  2  0
 19 17  1  0
 20 19  1  0
 20 21  1  1
 21 22  1  0
 22 23  2  0
 23 24  1  0
 25 24  1  0
 26 22  1  0
 26 25  2  0
 27 20  1  0
 28 27  1  0
 29 27  2  0
M  END
$$$$
