QQH.pdb
     RDKit          3D

 29 29  0  0  1  0  0  0  0  0999 V2000
    9.0608  -20.0943   15.8584 N   0  0  0  0  0  0  0  0  0  0  0  0
    9.6523  -20.1034   14.5653 C   0  0  0  0  0  0  0  0  0  0  0  0
    9.2668  -20.8990   13.6720 O   0  0  0  0  0  0  0  0  0  0  0  0
   10.7484  -19.1376   14.2975 C   0  0  0  0  0  0  0  0  0  0  0  0
   11.0498  -18.3627   15.5575 C   0  0  0  0  0  0  0  0  0  0  0  0
   11.1203  -16.8799   15.3222 C   0  0  2  0  0  0  0  0  0  0  0  0
   12.1923  -16.6241   14.4011 N   0  0  0  0  0  0  0  0  0  0  0  0
   11.1991  -16.0884   16.5551 C   0  0  0  0  0  0  0  0  0  0  0  0
   12.3322  -15.7247   16.9647 O   0  0  0  0  0  0  0  0  0  0  0  0
    6.5068  -13.1611   19.7960 N   0  0  0  0  0  0  0  0  0  0  0  0
    7.6653  -12.9320   20.5749 C   0  0  0  0  0  0  0  0  0  0  0  0
    7.5265  -12.2095   21.6028 O   0  0  0  0  0  0  0  0  0  0  0  0
    8.9882  -13.4973   20.2274 C   0  0  0  0  0  0  0  0  0  0  0  0
    8.8704  -14.2849   18.9395 C   0  0  0  0  0  0  0  0  0  0  0  0
   10.1759  -14.9457   18.5672 C   0  0  2  0  0  0  0  0  0  0  0  0
   10.0817  -15.6925   17.3371 N   0  0  0  0  0  0  0  0  0  0  0  0
   10.5013  -15.9076   19.6533 C   0  0  0  0  0  0  0  0  0  0  0  0
   10.4631  -17.1356   19.3629 O   0  0  0  0  0  0  0  0  0  0  0  0
   10.8447  -15.5304   20.9684 N   0  0  0  0  0  0  0  0  0  0  0  0
   11.3303  -16.5283   21.9070 C   0  0  1  0  0  0  0  0  0  0  0  0
   12.8201  -16.6698   21.6955 C   0  0  0  0  0  0  0  0  0  0  0  0
   13.1340  -17.8770   20.9063 C   0  0  0  0  0  0  0  0  0  0  0  0
   12.2910  -18.8025   20.3727 C   0  0  0  0  0  0  0  0  0  0  0  0
   12.9782  -19.7691   19.7210 N   0  0  0  0  0  0  0  0  0  0  0  0
   14.2818  -19.4331   19.8545 C   0  0  0  0  0  0  0  0  0  0  0  0
   14.3837  -18.2961   20.5662 N   0  0  0  0  0  0  0  0  0  0  0  0
   10.9493  -16.2096   23.2924 C   0  0  0  0  0  0  0  0  0  0  0  0
   10.4590  -17.2063   24.1097 O   0  0  0  0  0  0  0  0  0  0  0  0
   11.0600  -15.0557   23.7458 O   0  0  0  0  0  0  0  0  0  0  0  0
  1  2  1  0
  2  3  2  0
  4  2  1  0
  4  5  1  0
  6  5  1  0
  6  7  1  6
  8  6  1  0
  9  8  2  0
 10 11  1  0
 11 12  2  0
 11 13  1  0
 13 14  1  0
 15 14  1  1
 15 16  1  0
 16  8  1  0
 17 15  1  0
 17 18  2  0
 19 17  1  0
 20 19  1  0
 20 21  1  1
 21 22  1  0
 22 23  2  0
 23 24  1  0
 25 24  1  0
 26 22  1  0
 26 25  2  0
 27 20  1  0
 28 27  1  0
 29 27  2  0
M  END
$$$$
