QQH.pdb
     RDKit          3D

 29 29  0  0  1  0  0  0  0  0999 V2000
    8.1898  -12.2777   19.2207 N   0  0  0  0  0  0  0  0  0  0  0  0
    7.8417  -13.2154   18.2099 C   0  0  0  0  0  0  0  0  0  0  0  0
    7.7590  -12.8789   17.0018 O   0  0  0  0  0  0  0  0  0  0  0  0
    7.5762  -14.6163   18.6255 C   0  0  0  0  0  0  0  0  0  0  0  0
    7.7325  -14.7308   20.1227 C   0  0  0  0  0  0  0  0  0  0  0  0
    9.0703  -15.2861   20.5241 C   0  0  2  0  0  0  0  0  0  0  0  0
    9.4536  -16.2736   19.5542 N   0  0  0  0  0  0  0  0  0  0  0  0
    9.1192  -15.7681   21.9091 C   0  0  0  0  0  0  0  0  0  0  0  0
    8.2215  -15.3941   22.7079 O   0  0  0  0  0  0  0  0  0  0  0  0
   13.1570  -20.1057   24.1930 N   0  0  0  0  0  0  0  0  0  0  0  0
   12.0209  -20.4023   23.4040 C   0  0  0  0  0  0  0  0  0  0  0  0
   11.9815  -21.5476   22.8706 O   0  0  0  0  0  0  0  0  0  0  0  0
   10.9173  -19.4385   23.1955 C   0  0  0  0  0  0  0  0  0  0  0  0
   11.1932  -18.1844   23.9981 C   0  0  0  0  0  0  0  0  0  0  0  0
   10.1269  -17.1373   23.7829 C   0  0  2  0  0  0  0  0  0  0  0  0
   10.1141  -16.6372   22.4303 N   0  0  0  0  0  0  0  0  0  0  0  0
   10.4500  -15.9971   24.6807 C   0  0  0  0  0  0  0  0  0  0  0  0
   10.5639  -14.8594   24.1454 O   0  0  0  0  0  0  0  0  0  0  0  0
   10.6332  -16.1141   26.0745 N   0  0  0  0  0  0  0  0  0  0  0  0
    9.7125  -15.4553   26.9860 C   0  0  1  0  0  0  0  0  0  0  0  0
    8.3147  -15.6489   26.4447 C   0  0  0  0  0  0  0  0  0  0  0  0
    7.6061  -14.3596   26.3254 C   0  0  0  0  0  0  0  0  0  0  0  0
    8.0391  -13.1056   26.6286 C   0  0  0  0  0  0  0  0  0  0  0  0
    7.0783  -12.1853   26.3816 N   0  0  0  0  0  0  0  0  0  0  0  0
    6.0217  -12.8882   25.9128 C   0  0  0  0  0  0  0  0  0  0  0  0
    6.3315  -14.1968   25.8760 N   0  0  0  0  0  0  0  0  0  0  0  0
    9.8878  -15.9179   28.3721 C   0  0  0  0  0  0  0  0  0  0  0  0
   10.2869  -17.2162   28.6108 O   0  0  0  0  0  0  0  0  0  0  0  0
    9.6833  -15.1608   29.3387 O   0  0  0  0  0  0  0  0  0  0  0  0
  1  2  1  0
  2  3  2  0
  4  2  1  0
  4  5  1  0
  6  5  1  0
  6  7  1  6
  8  6  1  0
  9  8  2  0
 10 11  1  0
 11 12  2  0
 11 13  1  0
 13 14  1  0
 15 14  1  6
 15 16  1  0
 16  8  1  0
 17 15  1  0
 17 18  2  0
 19 17  1  0
 20 19  1  0
 20 21  1  6
 21 22  1  0
 22 23  2  0
 23 24  1  0
 25 24  1  0
 26 22  1  0
 26 25  2  0
 27 20  1  0
 28 27  1  0
 29 27  2  0
M  END
$$$$
