IKY.pdb
     RDKit          3D

 30 30  0  0  1  0  0  0  0  0999 V2000
    6.0648  -11.5313   27.4150 C   0  0  0  0  0  0  0  0  0  0  0  0
    5.7376  -12.8168   26.7517 C   0  0  0  0  0  0  0  0  0  0  0  0
    6.7083  -13.3688   25.7843 C   0  0  2  0  0  0  0  0  0  0  0  0
    7.1798  -12.2455   24.8514 C   0  0  0  0  0  0  0  0  0  0  0  0
    6.4041  -14.6075   25.0559 C   0  0  2  0  0  0  0  0  0  0  0  0
    6.0532  -15.6136   26.0819 N   0  0  0  0  0  0  0  0  0  0  0  0
    7.3423  -15.1433   24.0889 C   0  0  0  0  0  0  0  0  0  0  0  0
    8.1604  -16.0805   24.3920 O   0  0  0  0  0  0  0  0  0  0  0  0
    7.4674  -14.7157   22.7430 N   0  0  0  0  0  0  0  0  0  0  0  0
    8.4829  -15.2385   21.8107 C   0  0  1  0  0  0  0  0  0  0  0  0
    8.1480  -14.5770   20.5192 C   0  0  0  0  0  0  0  0  0  0  0  0
    8.9218  -14.9583   19.3177 C   0  0  0  0  0  0  0  0  0  0  0  0
    8.2968  -14.1475   18.1640 C   0  0  0  0  0  0  0  0  0  0  0  0
    9.0534  -14.3751   16.8815 C   0  0  0  0  0  0  0  0  0  0  0  0
    8.5602  -13.4211   15.9015 N   0  0  0  0  0  0  0  0  0  0  0  0
    9.8265  -15.0446   22.3272 C   0  0  0  0  0  0  0  0  0  0  0  0
   10.3894  -13.9133   22.2894 O   0  0  0  0  0  0  0  0  0  0  0  0
   11.1092  -15.5727   30.6528 O   0  0  0  0  0  0  0  0  0  0  0  0
   10.7800  -15.6884   29.3094 C   0  0  0  0  0  0  0  0  0  0  0  0
   10.6324  -14.5272   28.5890 C   0  0  0  0  0  0  0  0  0  0  0  0
   10.3058  -14.6241   27.2542 C   0  0  0  0  0  0  0  0  0  0  0  0
   10.1242  -15.8379   26.6248 C   0  0  0  0  0  0  0  0  0  0  0  0
    9.7619  -15.8683   25.1936 C   0  0  0  0  0  0  0  0  0  0  0  0
   10.9711  -16.1013   24.2986 C   0  0  2  0  0  0  0  0  0  0  0  0
   10.5659  -16.1072   22.8992 N   0  0  0  0  0  0  0  0  0  0  0  0
   11.7338  -17.2992   24.6302 C   0  0  0  0  0  0  0  0  0  0  0  0
   11.6403  -18.4244   23.8362 O   0  0  0  0  0  0  0  0  0  0  0  0
   10.2814  -16.9655   27.3815 C   0  0  0  0  0  0  0  0  0  0  0  0
   10.6111  -16.9170   28.7336 C   0  0  0  0  0  0  0  0  0  0  0  0
   12.4774  -17.3042   25.6428 O   0  0  0  0  0  0  0  0  0  0  0  0
  2  1  1  0
  3  2  1  0
  3  5  1  0
  3  4  1  6
  5  6  1  1
  7  5  1  0
  8  7  2  0
  9  7  1  0
 10 16  1  0
 10  9  1  0
 10 11  1  6
 12 11  1  0
 13 12  1  0
 13 14  1  0
 14 15  1  0
 16 17  2  0
 18 19  1  0
 19 20  2  0
 19 29  1  0
 20 21  1  0
 21 22  2  0
 22 23  1  0
 24 23  1  1
 25 16  1  0
 25 24  1  0
 26 27  1  0
 26 24  1  0
 28 22  1  0
 29 28  2  0
 30 26  2  0
M  END
$$$$
