IKY.pdb
     RDKit          3D

 30 30  0  0  1  0  0  0  0  0999 V2000
    7.2968  -11.5986   21.8920 C   0  0  0  0  0  0  0  0  0  0  0  0
    7.1301  -13.0668   21.7658 C   0  0  0  0  0  0  0  0  0  0  0  0
    7.9499  -13.7777   20.7631 C   0  0  2  0  0  0  0  0  0  0  0  0
    7.7965  -13.0802   19.4051 C   0  0  0  0  0  0  0  0  0  0  0  0
    7.8766  -15.2404   20.6500 C   0  0  2  0  0  0  0  0  0  0  0  0
    6.5863  -15.5389   19.9912 N   0  0  0  0  0  0  0  0  0  0  0  0
    8.0835  -16.0809   21.8132 C   0  0  0  0  0  0  0  0  0  0  0  0
    7.1025  -16.5961   22.4550 O   0  0  0  0  0  0  0  0  0  0  0  0
    9.3439  -16.4240   22.3640 N   0  0  0  0  0  0  0  0  0  0  0  0
    9.5151  -17.3485   23.4996 C   0  0  1  0  0  0  0  0  0  0  0  0
   10.4170  -18.4039   22.9610 C   0  0  0  0  0  0  0  0  0  0  0  0
    9.9077  -19.2716   21.8768 C   0  0  0  0  0  0  0  0  0  0  0  0
   11.0600  -20.2504   21.5715 C   0  0  0  0  0  0  0  0  0  0  0  0
   10.6627  -21.2208   20.4901 C   0  0  0  0  0  0  0  0  0  0  0  0
   11.7786  -22.1284   20.2781 N   0  0  0  0  0  0  0  0  0  0  0  0
    9.9533  -16.6463   24.6932 C   0  0  0  0  0  0  0  0  0  0  0  0
   10.8188  -15.7268   24.6355 O   0  0  0  0  0  0  0  0  0  0  0  0
    7.0702  -11.0009   25.5961 O   0  0  0  0  0  0  0  0  0  0  0  0
    7.4903  -12.1872   26.1816 C   0  0  0  0  0  0  0  0  0  0  0  0
    8.6540  -12.1580   26.9123 C   0  0  0  0  0  0  0  0  0  0  0  0
    9.0852  -13.3268   27.5004 C   0  0  0  0  0  0  0  0  0  0  0  0
    8.3923  -14.5133   27.3795 C   0  0  0  0  0  0  0  0  0  0  0  0
    8.9190  -15.7323   28.0253 C   0  0  0  0  0  0  0  0  0  0  0  0
   10.0043  -16.4014   27.1933 C   0  0  2  0  0  0  0  0  0  0  0  0
    9.4319  -16.9534   25.9725 N   0  0  0  0  0  0  0  0  0  0  0  0
   10.7713  -17.4088   27.9168 C   0  0  0  0  0  0  0  0  0  0  0  0
   11.5513  -17.0454   28.9960 O   0  0  0  0  0  0  0  0  0  0  0  0
    7.2406  -14.4939   26.6433 C   0  0  0  0  0  0  0  0  0  0  0  0
    6.7658  -13.3369   26.0308 C   0  0  0  0  0  0  0  0  0  0  0  0
   10.7201  -18.6105   27.5542 O   0  0  0  0  0  0  0  0  0  0  0  0
  2  1  1  0
  3  2  1  0
  3  5  1  0
  3  4  1  6
  5  6  1  1
  7  5  1  0
  8  7  2  0
  9  7  1  0
 10 16  1  0
 10  9  1  0
 10 11  1  6
 12 11  1  0
 13 12  1  0
 13 14  1  0
 14 15  1  0
 16 17  2  0
 18 19  1  0
 19 20  2  0
 19 29  1  0
 20 21  1  0
 21 22  2  0
 22 23  1  0
 24 23  1  1
 25 16  1  0
 25 24  1  0
 26 27  1  0
 26 24  1  0
 28 22  1  0
 29 28  2  0
 30 26  2  0
M  END
$$$$
