IKY.pdb
     RDKit          3D

 30 30  0  0  1  0  0  0  0  0999 V2000
    5.6976  -11.5378   27.1687 C   0  0  0  0  0  0  0  0  0  0  0  0
    5.4297  -12.6852   26.2680 C   0  0  0  0  0  0  0  0  0  0  0  0
    6.5581  -13.2412   25.4931 C   0  0  2  0  0  0  0  0  0  0  0  0
    7.2156  -12.1138   24.6864 C   0  0  0  0  0  0  0  0  0  0  0  0
    6.3790  -14.4637   24.6988 C   0  0  2  0  0  0  0  0  0  0  0  0
    5.7686  -15.4595   25.6065 N   0  0  0  0  0  0  0  0  0  0  0  0
    7.4896  -15.0322   23.9602 C   0  0  0  0  0  0  0  0  0  0  0  0
    8.2283  -15.9526   24.4571 O   0  0  0  0  0  0  0  0  0  0  0  0
    7.8819  -14.6572   22.6505 N   0  0  0  0  0  0  0  0  0  0  0  0
    9.0527  -15.2220   21.9549 C   0  0  1  0  0  0  0  0  0  0  0  0
    9.0756  -14.4932   20.6565 C   0  0  0  0  0  0  0  0  0  0  0  0
    7.8991  -14.6116   19.7680 C   0  0  0  0  0  0  0  0  0  0  0  0
    8.3327  -13.9595   18.4392 C   0  0  0  0  0  0  0  0  0  0  0  0
    7.2358  -14.0625   17.4119 C   0  0  0  0  0  0  0  0  0  0  0  0
    7.6688  -13.3382   16.2279 N   0  0  0  0  0  0  0  0  0  0  0  0
   10.2461  -15.1472   22.7795 C   0  0  0  0  0  0  0  0  0  0  0  0
   10.7801  -14.0376   23.0654 O   0  0  0  0  0  0  0  0  0  0  0  0
   11.5615  -16.1643   31.0499 O   0  0  0  0  0  0  0  0  0  0  0  0
   11.2239  -16.0750   29.7065 C   0  0  0  0  0  0  0  0  0  0  0  0
   10.5387  -17.1296   29.1521 C   0  0  0  0  0  0  0  0  0  0  0  0
   10.1957  -17.0572   27.8198 C   0  0  0  0  0  0  0  0  0  0  0  0
   10.5156  -15.9703   27.0332 C   0  0  0  0  0  0  0  0  0  0  0  0
   10.1284  -15.9646   25.6082 C   0  0  0  0  0  0  0  0  0  0  0  0
   11.2688  -16.4034   24.7001 C   0  0  2  0  0  0  0  0  0  0  0  0
   10.8638  -16.3074   23.3040 N   0  0  0  0  0  0  0  0  0  0  0  0
   11.7949  -17.7288   25.0052 C   0  0  0  0  0  0  0  0  0  0  0  0
   11.0416  -18.8539   24.7369 O   0  0  0  0  0  0  0  0  0  0  0  0
   11.1974  -14.9456   27.6281 C   0  0  0  0  0  0  0  0  0  0  0  0
   11.5652  -14.9742   28.9708 C   0  0  0  0  0  0  0  0  0  0  0  0
   12.9377  -17.8439   25.5142 O   0  0  0  0  0  0  0  0  0  0  0  0
  2  1  1  0
  3  2  1  0
  3  5  1  0
  3  4  1  6
  5  6  1  1
  7  5  1  0
  8  7  2  0
  9  7  1  0
 10 16  1  0
 10  9  1  0
 10 11  1  6
 12 11  1  0
 13 12  1  0
 13 14  1  0
 14 15  1  0
 16 17  2  0
 18 19  1  0
 19 20  2  0
 19 29  1  0
 20 21  1  0
 21 22  2  0
 22 23  1  0
 24 23  1  1
 25 16  1  0
 25 24  1  0
 26 27  1  0
 26 24  1  0
 28 22  1  0
 29 28  2  0
 30 26  2  0
M  END
$$$$
