IKY.pdb
     RDKit          3D

 30 30  0  0  1  0  0  0  0  0999 V2000
    8.0344  -12.0442   21.5119 C   0  0  0  0  0  0  0  0  0  0  0  0
    7.8285  -13.4890   21.2482 C   0  0  0  0  0  0  0  0  0  0  0  0
    8.2166  -14.0181   19.9244 C   0  0  2  0  0  0  0  0  0  0  0  0
    7.5160  -13.1989   18.8325 C   0  0  0  0  0  0  0  0  0  0  0  0
    8.1620  -15.4618   19.6597 C   0  0  2  0  0  0  0  0  0  0  0  0
    6.7277  -15.8085   19.5578 N   0  0  0  0  0  0  0  0  0  0  0  0
    8.8724  -16.3949   20.5124 C   0  0  0  0  0  0  0  0  0  0  0  0
    8.3073  -16.9546   21.5159 O   0  0  0  0  0  0  0  0  0  0  0  0
   10.2245  -16.7889   20.3503 N   0  0  0  0  0  0  0  0  0  0  0  0
   10.9207  -17.7150   21.2621 C   0  0  1  0  0  0  0  0  0  0  0  0
   11.9045  -18.4027   20.3808 C   0  0  0  0  0  0  0  0  0  0  0  0
   12.8022  -19.4093   20.9879 C   0  0  0  0  0  0  0  0  0  0  0  0
   13.6633  -19.9346   19.8210 C   0  0  0  0  0  0  0  0  0  0  0  0
   14.5868  -21.0282   20.2902 C   0  0  0  0  0  0  0  0  0  0  0  0
   15.2617  -21.5694   19.1216 N   0  0  0  0  0  0  0  0  0  0  0  0
   11.4435  -17.0203   22.4256 C   0  0  0  0  0  0  0  0  0  0  0  0
   11.7715  -15.8007   22.3717 O   0  0  0  0  0  0  0  0  0  0  0  0
   10.1324  -13.1757   29.8136 O   0  0  0  0  0  0  0  0  0  0  0  0
   10.1524  -13.8570   28.6044 C   0  0  0  0  0  0  0  0  0  0  0  0
   11.3082  -14.5199   28.2675 C   0  0  0  0  0  0  0  0  0  0  0  0
   11.3449  -15.2013   27.0708 C   0  0  0  0  0  0  0  0  0  0  0  0
   10.2686  -15.2382   26.2089 C   0  0  0  0  0  0  0  0  0  0  0  0
   10.3814  -15.9771   24.9355 C   0  0  0  0  0  0  0  0  0  0  0  0
   11.5551  -16.9467   24.9346 C   0  0  2  0  0  0  0  0  0  0  0  0
   11.6064  -17.6712   23.6716 N   0  0  0  0  0  0  0  0  0  0  0  0
   11.5687  -17.8641   26.0681 C   0  0  0  0  0  0  0  0  0  0  0  0
   10.6752  -18.9148   26.1222 O   0  0  0  0  0  0  0  0  0  0  0  0
    9.1407  -14.5641   26.5862 C   0  0  0  0  0  0  0  0  0  0  0  0
    9.0571  -13.8620   27.7859 C   0  0  0  0  0  0  0  0  0  0  0  0
   12.3974  -17.6949   26.9970 O   0  0  0  0  0  0  0  0  0  0  0  0
  2  1  1  0
  3  2  1  0
  3  5  1  0
  3  4  1  6
  5  6  1  1
  7  5  1  0
  8  7  2  0
  9  7  1  0
 10 16  1  0
 10  9  1  0
 10 11  1  6
 12 11  1  0
 13 12  1  0
 13 14  1  0
 14 15  1  0
 16 17  2  0
 18 19  1  0
 19 20  2  0
 19 29  1  0
 20 21  1  0
 21 22  2  0
 22 23  1  0
 24 23  1  6
 25 16  1  0
 25 24  1  0
 26 27  1  0
 26 24  1  0
 28 22  1  0
 29 28  2  0
 30 26  2  0
M  END
$$$$
