IKY.pdb
     RDKit          3D

 30 30  0  0  1  0  0  0  0  0999 V2000
    6.6539  -11.4116   27.5669 C   0  0  0  0  0  0  0  0  0  0  0  0
    6.1514  -12.6407   26.9065 C   0  0  0  0  0  0  0  0  0  0  0  0
    7.0895  -13.4140   26.0669 C   0  0  2  0  0  0  0  0  0  0  0  0
    7.7951  -12.4595   25.0946 C   0  0  0  0  0  0  0  0  0  0  0  0
    6.6473  -14.6516   25.4108 C   0  0  2  0  0  0  0  0  0  0  0  0
    5.8794  -15.4049   26.4261 N   0  0  0  0  0  0  0  0  0  0  0  0
    7.6001  -15.5048   24.7279 C   0  0  0  0  0  0  0  0  0  0  0  0
    8.2481  -16.4202   25.3457 O   0  0  0  0  0  0  0  0  0  0  0  0
    7.9214  -15.4367   23.3488 N   0  0  0  0  0  0  0  0  0  0  0  0
    8.9619  -16.2634   22.7104 C   0  0  1  0  0  0  0  0  0  0  0  0
    8.7179  -16.0727   21.2538 C   0  0  0  0  0  0  0  0  0  0  0  0
    9.5520  -16.8356   20.2999 C   0  0  0  0  0  0  0  0  0  0  0  0
    9.0695  -18.2954   20.4234 C   0  0  0  0  0  0  0  0  0  0  0  0
    9.7276  -19.1640   19.3834 C   0  0  0  0  0  0  0  0  0  0  0  0
    9.1813  -20.5048   19.5166 N   0  0  0  0  0  0  0  0  0  0  0  0
   10.2842  -15.9312   23.2111 C   0  0  0  0  0  0  0  0  0  0  0  0
   10.7982  -14.7942   23.0087 O   0  0  0  0  0  0  0  0  0  0  0  0
    9.4836  -14.3609   29.6404 O   0  0  0  0  0  0  0  0  0  0  0  0
   10.2521  -15.0760   28.7322 C   0  0  0  0  0  0  0  0  0  0  0  0
   10.5404  -14.4738   27.5309 C   0  0  0  0  0  0  0  0  0  0  0  0
   11.3022  -15.1696   26.6180 C   0  0  0  0  0  0  0  0  0  0  0  0
   11.7795  -16.4390   26.8698 C   0  0  0  0  0  0  0  0  0  0  0  0
   12.5794  -17.1328   25.8406 C   0  0  0  0  0  0  0  0  0  0  0  0
   12.3826  -16.5310   24.4561 C   0  0  2  0  0  0  0  0  0  0  0  0
   11.0562  -16.8587   23.9504 N   0  0  0  0  0  0  0  0  0  0  0  0
   13.4170  -16.8984   23.4961 C   0  0  0  0  0  0  0  0  0  0  0  0
   13.0957  -17.6436   22.3797 O   0  0  0  0  0  0  0  0  0  0  0  0
   11.4672  -16.9973   28.0779 C   0  0  0  0  0  0  0  0  0  0  0  0
   10.7007  -16.3324   29.0316 C   0  0  0  0  0  0  0  0  0  0  0  0
   14.6039  -16.5342   23.6888 O   0  0  0  0  0  0  0  0  0  0  0  0
  2  1  1  0
  3  2  1  0
  3  5  1  0
  3  4  1  6
  5  6  1  1
  7  5  1  0
  8  7  2  0
  9  7  1  0
 10 16  1  0
 10  9  1  0
 10 11  1  6
 12 11  1  0
 13 12  1  0
 13 14  1  0
 14 15  1  0
 16 17  2  0
 18 19  1  0
 19 20  2  0
 19 29  1  0
 20 21  1  0
 21 22  2  0
 22 23  1  0
 24 23  1  1
 25 16  1  0
 25 24  1  0
 26 27  1  0
 26 24  1  0
 28 22  1  0
 29 28  2  0
 30 26  2  0
M  END
$$$$
