IKY.pdb
     RDKit          3D

 30 30  0  0  1  0  0  0  0  0999 V2000
    5.6790  -11.3437   26.6047 C   0  0  0  0  0  0  0  0  0  0  0  0
    5.4274  -12.6602   25.9699 C   0  0  0  0  0  0  0  0  0  0  0  0
    6.5456  -13.3183   25.2632 C   0  0  2  0  0  0  0  0  0  0  0  0
    7.1155  -12.3513   24.2172 C   0  0  0  0  0  0  0  0  0  0  0  0
    6.3885  -14.6803   24.7362 C   0  0  2  0  0  0  0  0  0  0  0  0
    5.9519  -15.5158   25.8761 N   0  0  0  0  0  0  0  0  0  0  0  0
    7.4637  -15.3135   23.9977 C   0  0  0  0  0  0  0  0  0  0  0  0
    8.3239  -16.0670   24.5738 O   0  0  0  0  0  0  0  0  0  0  0  0
    7.6893  -15.1841   22.6041 N   0  0  0  0  0  0  0  0  0  0  0  0
    8.7413  -15.9159   21.8753 C   0  0  1  0  0  0  0  0  0  0  0  0
    8.4689  -15.5936   20.4472 C   0  0  0  0  0  0  0  0  0  0  0  0
    9.3343  -16.2053   19.4155 C   0  0  0  0  0  0  0  0  0  0  0  0
    8.4325  -16.3560   18.1733 C   0  0  0  0  0  0  0  0  0  0  0  0
    9.2044  -16.9470   17.0227 C   0  0  0  0  0  0  0  0  0  0  0  0
    9.0715  -18.3930   17.0967 N   0  0  0  0  0  0  0  0  0  0  0  0
   10.0621  -15.5958   22.3879 C   0  0  0  0  0  0  0  0  0  0  0  0
   10.5848  -14.4606   22.1974 O   0  0  0  0  0  0  0  0  0  0  0  0
   11.1984  -15.3775   30.7754 O   0  0  0  0  0  0  0  0  0  0  0  0
   10.8638  -15.4530   29.4304 C   0  0  0  0  0  0  0  0  0  0  0  0
   11.6093  -16.2910   28.6362 C   0  0  0  0  0  0  0  0  0  0  0  0
   11.2904  -16.3780   27.2988 C   0  0  0  0  0  0  0  0  0  0  0  0
   10.2568  -15.6572   26.7380 C   0  0  0  0  0  0  0  0  0  0  0  0
    9.9782  -15.7883   25.2938 C   0  0  0  0  0  0  0  0  0  0  0  0
   11.1807  -16.3118   24.5208 C   0  0  2  0  0  0  0  0  0  0  0  0
   10.8228  -16.5335   23.1261 N   0  0  0  0  0  0  0  0  0  0  0  0
   11.7891  -17.5022   25.1033 C   0  0  0  0  0  0  0  0  0  0  0  0
   11.1856  -18.7346   24.9543 O   0  0  0  0  0  0  0  0  0  0  0  0
    9.5433  -14.8369   27.5668 C   0  0  0  0  0  0  0  0  0  0  0  0
    9.8288  -14.7166   28.9244 C   0  0  0  0  0  0  0  0  0  0  0  0
   12.8660  -17.4026   25.7424 O   0  0  0  0  0  0  0  0  0  0  0  0
  2  1  1  0
  3  2  1  0
  3  5  1  0
  3  4  1  6
  5  6  1  1
  7  5  1  0
  8  7  2  0
  9  7  1  0
 10 16  1  0
 10  9  1  0
 10 11  1  6
 12 11  1  0
 13 12  1  0
 13 14  1  0
 14 15  1  0
 16 17  2  0
 18 19  1  0
 19 20  2  0
 19 29  1  0
 20 21  1  0
 21 22  2  0
 22 23  1  0
 24 23  1  1
 25 16  1  0
 25 24  1  0
 26 27  1  0
 26 24  1  0
 28 22  1  0
 29 28  2  0
 30 26  2  0
M  END
$$$$
