IKY.pdb
     RDKit          3D

 30 30  0  0  1  0  0  0  0  0999 V2000
    7.9831  -12.0662   18.8337 C   0  0  0  0  0  0  0  0  0  0  0  0
    7.8166  -13.5396   18.8048 C   0  0  0  0  0  0  0  0  0  0  0  0
    7.8061  -14.2652   20.0918 C   0  0  2  0  0  0  0  0  0  0  0  0
    9.0916  -13.9369   20.8624 C   0  0  0  0  0  0  0  0  0  0  0  0
    7.4831  -15.6975   20.1309 C   0  0  2  0  0  0  0  0  0  0  0  0
    6.3052  -15.8787   19.2548 N   0  0  0  0  0  0  0  0  0  0  0  0
    7.3093  -16.3795   21.3986 C   0  0  0  0  0  0  0  0  0  0  0  0
    6.2989  -16.1537   22.1520 O   0  0  0  0  0  0  0  0  0  0  0  0
    8.1978  -17.3416   21.9414 N   0  0  0  0  0  0  0  0  0  0  0  0
    8.0911  -17.8699   23.3137 C   0  0  1  0  0  0  0  0  0  0  0  0
    8.0433  -19.3456   23.1195 C   0  0  0  0  0  0  0  0  0  0  0  0
    8.0892  -20.2099   24.3189 C   0  0  0  0  0  0  0  0  0  0  0  0
    7.9725  -21.6504   23.7800 C   0  0  0  0  0  0  0  0  0  0  0  0
    7.7817  -22.6284   24.9097 C   0  0  0  0  0  0  0  0  0  0  0  0
    8.9830  -22.5988   25.7283 N   0  0  0  0  0  0  0  0  0  0  0  0
    9.1437  -17.3463   24.1666 C   0  0  0  0  0  0  0  0  0  0  0  0
   10.3169  -17.1686   23.7307 O   0  0  0  0  0  0  0  0  0  0  0  0
    5.5135  -11.9902   26.9904 O   0  0  0  0  0  0  0  0  0  0  0  0
    6.6813  -12.7173   26.8052 C   0  0  0  0  0  0  0  0  0  0  0  0
    6.8040  -13.4366   25.6405 C   0  0  0  0  0  0  0  0  0  0  0  0
    7.9568  -14.1639   25.4406 C   0  0  0  0  0  0  0  0  0  0  0  0
    8.9811  -14.1923   26.3640 C   0  0  0  0  0  0  0  0  0  0  0  0
   10.1839  -15.0042   26.0913 C   0  0  0  0  0  0  0  0  0  0  0  0
    9.9587  -16.4818   26.3806 C   0  0  2  0  0  0  0  0  0  0  0  0
    8.9070  -17.0070   25.5200 N   0  0  0  0  0  0  0  0  0  0  0  0
    9.6882  -16.7783   27.7825 C   0  0  0  0  0  0  0  0  0  0  0  0
    8.5374  -17.4508   28.1409 O   0  0  0  0  0  0  0  0  0  0  0  0
    8.8142  -13.4616   27.5073 C   0  0  0  0  0  0  0  0  0  0  0  0
    7.6669  -12.7115   27.7528 C   0  0  0  0  0  0  0  0  0  0  0  0
   10.5071  -16.4188   28.6649 O   0  0  0  0  0  0  0  0  0  0  0  0
  2  1  1  0
  3  2  1  0
  3  5  1  0
  3  4  1  6
  5  6  1  6
  7  5  1  0
  8  7  2  0
  9  7  1  0
 10 16  1  0
 10  9  1  0
 10 11  1  6
 12 11  1  0
 13 12  1  0
 13 14  1  0
 14 15  1  0
 16 17  2  0
 18 19  1  0
 19 20  2  0
 19 29  1  0
 20 21  1  0
 21 22  2  0
 22 23  1  0
 24 23  1  1
 25 16  1  0
 25 24  1  0
 26 27  1  0
 26 24  1  0
 28 22  1  0
 29 28  2  0
 30 26  2  0
M  END
$$$$
