IKY.pdb
     RDKit          3D

 30 30  0  0  1  0  0  0  0  0999 V2000
    6.2320  -11.5929   27.6403 C   0  0  0  0  0  0  0  0  0  0  0  0
    5.8272  -12.8207   26.9137 C   0  0  0  0  0  0  0  0  0  0  0  0
    6.7770  -13.4003   25.9415 C   0  0  2  0  0  0  0  0  0  0  0  0
    7.3569  -12.2743   25.0755 C   0  0  0  0  0  0  0  0  0  0  0  0
    6.3971  -14.5757   25.1467 C   0  0  2  0  0  0  0  0  0  0  0  0
    5.9525  -15.6020   26.1147 N   0  0  0  0  0  0  0  0  0  0  0  0
    7.3125  -15.1317   24.1694 C   0  0  0  0  0  0  0  0  0  0  0  0
    8.0600  -16.1351   24.4412 O   0  0  0  0  0  0  0  0  0  0  0  0
    7.4884  -14.6554   22.8458 N   0  0  0  0  0  0  0  0  0  0  0  0
    8.4676  -15.2183   21.8982 C   0  0  1  0  0  0  0  0  0  0  0  0
    8.1087  -14.5805   20.6013 C   0  0  0  0  0  0  0  0  0  0  0  0
    8.8132  -15.0323   19.3818 C   0  0  0  0  0  0  0  0  0  0  0  0
    8.3287  -14.0856   18.2646 C   0  0  0  0  0  0  0  0  0  0  0  0
    8.9639  -14.4467   16.9473 C   0  0  0  0  0  0  0  0  0  0  0  0
    8.6617  -13.3825   16.0038 N   0  0  0  0  0  0  0  0  0  0  0  0
    9.8285  -15.0379   22.3726 C   0  0  0  0  0  0  0  0  0  0  0  0
   10.3881  -13.9046   22.3517 O   0  0  0  0  0  0  0  0  0  0  0  0
   11.4185  -15.6975   30.6022 O   0  0  0  0  0  0  0  0  0  0  0  0
   11.0342  -15.7299   29.2689 C   0  0  0  0  0  0  0  0  0  0  0  0
   10.6345  -16.9390   28.7520 C   0  0  0  0  0  0  0  0  0  0  0  0
   10.2496  -16.9888   27.4302 C   0  0  0  0  0  0  0  0  0  0  0  0
   10.2532  -15.8742   26.6177 C   0  0  0  0  0  0  0  0  0  0  0  0
    9.8407  -16.0019   25.2057 C   0  0  0  0  0  0  0  0  0  0  0  0
   11.0313  -16.1624   24.2705 C   0  0  2  0  0  0  0  0  0  0  0  0
   10.5892  -16.1166   22.8831 N   0  0  0  0  0  0  0  0  0  0  0  0
   11.8329  -17.3530   24.5281 C   0  0  0  0  0  0  0  0  0  0  0  0
   12.8499  -17.3175   25.4605 O   0  0  0  0  0  0  0  0  0  0  0  0
   10.6585  -14.6938   27.1756 C   0  0  0  0  0  0  0  0  0  0  0  0
   11.0561  -14.5950   28.5065 C   0  0  0  0  0  0  0  0  0  0  0  0
   11.5947  -18.4132   23.8975 O   0  0  0  0  0  0  0  0  0  0  0  0
  2  1  1  0
  3  2  1  0
  3  5  1  0
  3  4  1  6
  5  6  1  1
  7  5  1  0
  8  7  2  0
  9  7  1  0
 10 16  1  0
 10  9  1  0
 10 11  1  6
 12 11  1  0
 13 12  1  0
 13 14  1  0
 14 15  1  0
 16 17  2  0
 18 19  1  0
 19 20  2  0
 19 29  1  0
 20 21  1  0
 21 22  2  0
 22 23  1  0
 24 23  1  1
 25 16  1  0
 25 24  1  0
 26 27  1  0
 26 24  1  0
 28 22  1  0
 29 28  2  0
 30 26  2  0
M  END
$$$$
