IKY.pdb
     RDKit          3D

 30 30  0  0  1  0  0  0  0  0999 V2000
    6.2360  -11.8279   27.9901 C   0  0  0  0  0  0  0  0  0  0  0  0
    5.7354  -12.9044   27.1013 C   0  0  0  0  0  0  0  0  0  0  0  0
    6.7129  -13.6227   26.2578 C   0  0  2  0  0  0  0  0  0  0  0  0
    7.6007  -12.5993   25.5376 C   0  0  0  0  0  0  0  0  0  0  0  0
    6.2684  -14.7011   25.3650 C   0  0  2  0  0  0  0  0  0  0  0  0
    5.3656  -15.5550   26.1675 N   0  0  0  0  0  0  0  0  0  0  0  0
    7.2340  -15.4955   24.6311 C   0  0  0  0  0  0  0  0  0  0  0  0
    7.9072  -16.4275   25.1950 O   0  0  0  0  0  0  0  0  0  0  0  0
    7.5422  -15.3476   23.2553 N   0  0  0  0  0  0  0  0  0  0  0  0
    8.5968  -16.1143   22.5671 C   0  0  1  0  0  0  0  0  0  0  0  0
    8.4220  -15.7453   21.1350 C   0  0  0  0  0  0  0  0  0  0  0  0
    9.3628  -16.3160   20.1466 C   0  0  0  0  0  0  0  0  0  0  0  0
    8.4814  -16.7494   18.9574 C   0  0  0  0  0  0  0  0  0  0  0  0
    9.3051  -17.4569   17.9134 C   0  0  0  0  0  0  0  0  0  0  0  0
    8.4334  -17.7533   16.7880 N   0  0  0  0  0  0  0  0  0  0  0  0
    9.9004  -15.8731   23.1605 C   0  0  0  0  0  0  0  0  0  0  0  0
   10.3937  -14.7106   23.2154 O   0  0  0  0  0  0  0  0  0  0  0  0
    9.8021  -13.6646   29.2190 O   0  0  0  0  0  0  0  0  0  0  0  0
   10.3752  -14.5699   28.3366 C   0  0  0  0  0  0  0  0  0  0  0  0
   11.3956  -14.1170   27.5350 C   0  0  0  0  0  0  0  0  0  0  0  0
   11.9756  -15.0026   26.6535 C   0  0  0  0  0  0  0  0  0  0  0  0
   11.5680  -16.3164   26.5515 C   0  0  0  0  0  0  0  0  0  0  0  0
   12.2250  -17.2081   25.5751 C   0  0  0  0  0  0  0  0  0  0  0  0
   12.0518  -16.7211   24.1431 C   0  0  2  0  0  0  0  0  0  0  0  0
   10.6762  -16.9228   23.7075 N   0  0  0  0  0  0  0  0  0  0  0  0
   12.9942  -17.3083   23.1978 C   0  0  0  0  0  0  0  0  0  0  0  0
   12.5347  -18.0545   22.1314 O   0  0  0  0  0  0  0  0  0  0  0  0
   10.5497  -16.7215   27.3688 C   0  0  0  0  0  0  0  0  0  0  0  0
    9.9334  -15.8624   28.2750 C   0  0  0  0  0  0  0  0  0  0  0  0
   14.2279  -17.1327   23.3572 O   0  0  0  0  0  0  0  0  0  0  0  0
  2  1  1  0
  3  2  1  0
  3  5  1  0
  3  4  1  6
  5  6  1  1
  7  5  1  0
  8  7  2  0
  9  7  1  0
 10 16  1  0
 10  9  1  0
 10 11  1  6
 12 11  1  0
 13 12  1  0
 13 14  1  0
 14 15  1  0
 16 17  2  0
 18 19  1  0
 19 20  2  0
 19 29  1  0
 20 21  1  0
 21 22  2  0
 22 23  1  0
 24 23  1  1
 25 16  1  0
 25 24  1  0
 26 27  1  0
 26 24  1  0
 28 22  1  0
 29 28  2  0
 30 26  2  0
M  END
$$$$
