HPC.pdb
     RDKit          3D

 24 25  0  0  1  0  0  0  0  0999 V2000
   15.2054  -25.0347    1.8998 N   0  0  0  0  0  0  0  0  0  0  0  0
   16.3188  -24.9375    2.8148 C   0  0  1  0  0  0  0  0  0  0  0  0
   15.7891  -25.2199    4.2175 C   0  0  0  0  0  0  0  0  0  0  0  0
   14.7496  -24.2444    4.6076 C   0  0  0  0  0  0  0  0  0  0  0  0
   14.9858  -22.9248    4.8866 C   0  0  0  0  0  0  0  0  0  0  0  0
   13.7978  -22.3840    5.1960 N   0  0  0  0  0  0  0  0  0  0  0  0
   12.8559  -23.3352    5.1121 C   0  0  0  0  0  0  0  0  0  0  0  0
   13.4478  -24.4719    4.7510 N   0  0  0  0  0  0  0  0  0  0  0  0
   17.3681  -25.9592    2.5642 C   0  0  0  0  0  0  0  0  0  0  0  0
   16.9783  -27.0541    2.0938 O   0  0  0  0  0  0  0  0  0  0  0  0
   18.7492  -25.7805    2.8166 N   0  0  0  0  0  0  0  0  0  0  0  0
   19.3150  -24.5802    3.3432 C   0  0  0  0  0  0  0  0  0  0  0  0
   20.7868  -24.8145    3.5553 C   0  0  0  0  0  0  0  0  0  0  0  0
   21.0506  -25.9948    2.6418 C   0  0  0  0  0  0  0  0  0  0  0  0
   19.7647  -26.7528    2.5867 C   0  0  1  0  0  0  0  0  0  0  0  0
   19.7300  -27.8725    3.5626 C   0  0  0  0  0  0  0  0  0  0  0  0
   19.0335  -27.7103    4.5958 O   0  0  0  0  0  0  0  0  0  0  0  0
   20.4498  -29.0490    3.3220 N   0  0  0  0  0  0  0  0  0  0  0  0
   20.1859  -30.2660    4.0367 C   0  0  1  0  0  0  0  0  0  0  0  0
   18.8168  -30.8276    3.7303 C   0  0  0  0  0  0  0  0  0  0  0  0
   18.6188  -32.5090    4.3855 S   0  0  0  0  0  0  0  0  0  0  0  0
   21.1787  -31.3134    3.7338 C   0  0  0  0  0  0  0  0  0  0  0  0
   21.3564  -32.3671    4.5972 O   0  0  0  0  0  0  0  0  0  0  0  0
   21.8578  -31.2417    2.6917 O   0  0  0  0  0  0  0  0  0  0  0  0
  2  1  1  6
  3  2  1  0
  4  3  1  0
  5  4  2  0
  6  5  1  0
  7  6  1  0
  7  8  2  0
  8  4  1  0
  9 10  2  0
  9  2  1  0
 11  9  1  0
 12 11  1  0
 13 12  1  0
 14 13  1  0
 14 15  1  0
 15 11  1  0
 16 17  2  0
 15 16  1  1
 18 16  1  0
 19 20  1  6
 19 18  1  0
 20 21  1  0
 22 19  1  0
 23 22  1  0
 24 22  2  0
M  END
$$$$
