HPC.pdb
     RDKit          3D

 24 25  0  0  1  0  0  0  0  0999 V2000
   18.5494  -10.7302  -15.4655 N   0  0  0  0  0  0  0  0  0  0  0  0
   18.8341   -9.3538  -15.1330 C   0  0  1  0  0  0  0  0  0  0  0  0
   17.8097   -8.4835  -15.8548 C   0  0  0  0  0  0  0  0  0  0  0  0
   17.9629   -8.5752  -17.3220 C   0  0  0  0  0  0  0  0  0  0  0  0
   19.0544   -8.1320  -18.0200 C   0  0  0  0  0  0  0  0  0  0  0  0
   18.8097   -8.3936  -19.3127 N   0  0  0  0  0  0  0  0  0  0  0  0
   17.6074   -8.9793  -19.4142 C   0  0  0  0  0  0  0  0  0  0  0  0
   17.0955   -9.0867  -18.1898 N   0  0  0  0  0  0  0  0  0  0  0  0
   18.6689   -9.0591  -13.6860 C   0  0  0  0  0  0  0  0  0  0  0  0
   17.7748   -9.7011  -13.0856 O   0  0  0  0  0  0  0  0  0  0  0  0
   19.4386   -8.1212  -12.9575 N   0  0  0  0  0  0  0  0  0  0  0  0
   20.5075   -7.3589  -13.5186 C   0  0  0  0  0  0  0  0  0  0  0  0
   21.0100   -6.4142  -12.4599 C   0  0  0  0  0  0  0  0  0  0  0  0
   20.5112   -7.0738  -11.1896 C   0  0  0  0  0  0  0  0  0  0  0  0
   19.2670   -7.8024  -11.5796 C   0  0  1  0  0  0  0  0  0  0  0  0
   18.0420   -7.0045  -11.3151 C   0  0  0  0  0  0  0  0  0  0  0  0
   17.7024   -6.1693  -12.1903 O   0  0  0  0  0  0  0  0  0  0  0  0
   17.3122   -7.1910  -10.1349 N   0  0  0  0  0  0  0  0  0  0  0  0
   16.0841   -6.4930   -9.8774 C   0  0  1  0  0  0  0  0  0  0  0  0
   15.1346   -7.2969   -9.0195 C   0  0  0  0  0  0  0  0  0  0  0  0
   14.9076   -8.9788   -9.6641 S   0  0  0  0  0  0  0  0  0  0  0  0
   16.3113   -5.2003   -9.2054 C   0  0  0  0  0  0  0  0  0  0  0  0
   15.3038   -4.2686   -9.1416 O   0  0  0  0  0  0  0  0  0  0  0  0
   17.4203   -4.9533   -8.6943 O   0  0  0  0  0  0  0  0  0  0  0  0
  2  1  1  1
  3  2  1  0
  4  3  1  0
  5  4  2  0
  6  5  1  0
  7  6  1  0
  7  8  2  0
  8  4  1  0
  9 10  2  0
  9  2  1  0
 11  9  1  0
 12 11  1  0
 13 12  1  0
 14 13  1  0
 14 15  1  0
 15 11  1  0
 16 17  2  0
 15 16  1  6
 18 16  1  0
 19 20  1  1
 19 18  1  0
 20 21  1  0
 22 19  1  0
 23 22  1  0
 24 22  2  0
M  END
$$$$
