HPC.pdb
     RDKit          3D

 24 25  0  0  1  0  0  0  0  0999 V2000
   19.6136  -14.2288  -16.3758 N   0  0  0  0  0  0  0  0  0  0  0  0
   20.5996  -13.2110  -16.6552 C   0  0  1  0  0  0  0  0  0  0  0  0
   20.4864  -12.8528  -18.1340 C   0  0  0  0  0  0  0  0  0  0  0  0
   20.8451  -13.9992  -18.9952 C   0  0  0  0  0  0  0  0  0  0  0  0
   22.0963  -14.5495  -19.0777 C   0  0  0  0  0  0  0  0  0  0  0  0
   22.0100  -15.5574  -19.9587 N   0  0  0  0  0  0  0  0  0  0  0  0
   20.7484  -15.6305  -20.4081 C   0  0  0  0  0  0  0  0  0  0  0  0
   20.0415  -14.6723  -19.8126 N   0  0  0  0  0  0  0  0  0  0  0  0
   20.3572  -11.9473  -15.9122 C   0  0  0  0  0  0  0  0  0  0  0  0
   19.1619  -11.5839  -15.8064 O   0  0  0  0  0  0  0  0  0  0  0  0
   21.3663  -11.1446  -15.3287 N   0  0  0  0  0  0  0  0  0  0  0  0
   22.7588  -11.4564  -15.3733 C   0  0  0  0  0  0  0  0  0  0  0  0
   23.5097  -10.3219  -14.7291 C   0  0  0  0  0  0  0  0  0  0  0  0
   22.4280   -9.6639  -13.8958 C   0  0  0  0  0  0  0  0  0  0  0  0
   21.1491   -9.9274  -14.6210 C   0  0  1  0  0  0  0  0  0  0  0  0
   20.7630   -8.7996  -15.5078 C   0  0  0  0  0  0  0  0  0  0  0  0
   21.2300   -8.8025  -16.6743 O   0  0  0  0  0  0  0  0  0  0  0  0
   19.9142   -7.7876  -15.0436 N   0  0  0  0  0  0  0  0  0  0  0  0
   19.4775   -6.7102  -15.8863 C   0  0  1  0  0  0  0  0  0  0  0  0
   17.9997   -6.4292  -15.7413 C   0  0  0  0  0  0  0  0  0  0  0  0
   17.5105   -4.9284  -16.6378 S   0  0  0  0  0  0  0  0  0  0  0  0
   20.2023   -5.4573  -15.6049 C   0  0  0  0  0  0  0  0  0  0  0  0
   20.6408   -4.6658  -16.6386 O   0  0  0  0  0  0  0  0  0  0  0  0
   20.4173   -5.1163  -14.4260 O   0  0  0  0  0  0  0  0  0  0  0  0
  2  1  1  1
  3  2  1  0
  4  3  1  0
  5  4  2  0
  6  5  1  0
  7  6  1  0
  7  8  2  0
  8  4  1  0
  9 10  2  0
  9  2  1  0
 11  9  1  0
 12 11  1  0
 13 12  1  0
 14 13  1  0
 14 15  1  0
 15 11  1  0
 16 17  2  0
 15 16  1  6
 18 16  1  0
 19 20  1  1
 19 18  1  0
 20 21  1  0
 22 19  1  0
 23 22  1  0
 24 22  2  0
M  END
$$$$
