HPC.pdb
     RDKit          3D

 24 25  0  0  1  0  0  0  0  0999 V2000
   24.7948  -17.4087  -17.9261 N   0  0  0  0  0  0  0  0  0  0  0  0
   25.8744  -17.8226  -17.0605 C   0  0  1  0  0  0  0  0  0  0  0  0
   26.3294  -16.5979  -16.2725 C   0  0  0  0  0  0  0  0  0  0  0  0
   27.4589  -15.9169  -16.9397 C   0  0  0  0  0  0  0  0  0  0  0  0
   28.7532  -16.3637  -16.9292 C   0  0  0  0  0  0  0  0  0  0  0  0
   29.4665  -15.4763  -17.6386 N   0  0  0  0  0  0  0  0  0  0  0  0
   28.6433  -14.5114  -18.0748 C   0  0  0  0  0  0  0  0  0  0  0  0
   27.4153  -14.7891  -17.6420 N   0  0  0  0  0  0  0  0  0  0  0  0
   25.4550  -18.8244  -16.0464 C   0  0  0  0  0  0  0  0  0  0  0  0
   24.3040  -18.6853  -15.5691 O   0  0  0  0  0  0  0  0  0  0  0  0
   26.2531  -19.9021  -15.5941 N   0  0  0  0  0  0  0  0  0  0  0  0
   27.5868  -20.1490  -16.0401 C   0  0  0  0  0  0  0  0  0  0  0  0
   28.1269  -21.3200  -15.2636 C   0  0  0  0  0  0  0  0  0  0  0  0
   26.8554  -21.9857  -14.7763 C   0  0  0  0  0  0  0  0  0  0  0  0
   25.8537  -20.8856  -14.6440 C   0  0  1  0  0  0  0  0  0  0  0  0
   25.7781  -20.3580  -13.2572 C   0  0  0  0  0  0  0  0  0  0  0  0
   26.5742  -19.4352  -12.9512 O   0  0  0  0  0  0  0  0  0  0  0  0
   24.8521  -20.8808  -12.3464 N   0  0  0  0  0  0  0  0  0  0  0  0
   24.7780  -20.4264  -10.9863 C   0  0  1  0  0  0  0  0  0  0  0  0
   23.4391  -20.7250  -10.3523 C   0  0  0  0  0  0  0  0  0  0  0  0
   23.4269  -20.3143   -8.5841 S   0  0  0  0  0  0  0  0  0  0  0  0
   25.8209  -21.0356  -10.1405 C   0  0  0  0  0  0  0  0  0  0  0  0
   26.4560  -20.2865   -9.1798 O   0  0  0  0  0  0  0  0  0  0  0  0
   26.1265  -22.2331  -10.2983 O   0  0  0  0  0  0  0  0  0  0  0  0
  2  1  1  6
  3  2  1  0
  4  3  1  0
  5  4  2  0
  6  5  1  0
  7  6  1  0
  7  8  2  0
  8  4  1  0
  9 10  2  0
  9  2  1  0
 11  9  1  0
 12 11  1  0
 13 12  1  0
 14 13  1  0
 14 15  1  0
 15 11  1  0
 16 17  2  0
 15 16  1  1
 18 16  1  0
 19 20  1  1
 19 18  1  0
 20 21  1  0
 22 19  1  0
 23 22  1  0
 24 22  2  0
M  END
$$$$
