HPC.pdb
     RDKit          3D

 24 25  0  0  1  0  0  0  0  0999 V2000
   15.4182  -21.6340    1.6533 N   0  0  0  0  0  0  0  0  0  0  0  0
   15.5473  -20.4219    2.4282 C   0  0  1  0  0  0  0  0  0  0  0  0
   14.6174  -20.5427    3.6318 C   0  0  0  0  0  0  0  0  0  0  0  0
   13.2001  -20.5892    3.2152 C   0  0  0  0  0  0  0  0  0  0  0  0
   12.5563  -19.5924    2.5321 C   0  0  0  0  0  0  0  0  0  0  0  0
   11.2960  -20.0127    2.3462 N   0  0  0  0  0  0  0  0  0  0  0  0
   11.1617  -21.2291    2.8952 C   0  0  0  0  0  0  0  0  0  0  0  0
   12.3330  -21.5747    3.4254 N   0  0  0  0  0  0  0  0  0  0  0  0
   16.9110  -20.2316    2.9868 C   0  0  0  0  0  0  0  0  0  0  0  0
   17.5633  -21.2741    3.2309 O   0  0  0  0  0  0  0  0  0  0  0  0
   17.5083  -18.9770    3.2554 N   0  0  0  0  0  0  0  0  0  0  0  0
   16.8761  -17.7221    3.0026 C   0  0  0  0  0  0  0  0  0  0  0  0
   17.7864  -16.6337    3.5054 C   0  0  0  0  0  0  0  0  0  0  0  0
   19.1250  -17.3430    3.5541 C   0  0  0  0  0  0  0  0  0  0  0  0
   18.8069  -18.7802    3.8073 C   0  0  1  0  0  0  0  0  0  0  0  0
   18.8848  -19.1275    5.2498 C   0  0  0  0  0  0  0  0  0  0  0  0
   17.8576  -18.9239    5.9442 O   0  0  0  0  0  0  0  0  0  0  0  0
   20.0619  -19.6577    5.7916 N   0  0  0  0  0  0  0  0  0  0  0  0
   20.1608  -20.0473    7.1700 C   0  0  1  0  0  0  0  0  0  0  0  0
   20.5342  -21.5028    7.3309 C   0  0  0  0  0  0  0  0  0  0  0  0
   20.3703  -22.4145    5.7697 S   0  0  0  0  0  0  0  0  0  0  0  0
   21.1571  -19.2447    7.9031 C   0  0  0  0  0  0  0  0  0  0  0  0
   21.2255  -19.3121    9.2735 O   0  0  0  0  0  0  0  0  0  0  0  0
   21.9387  -18.5035    7.2770 O   0  0  0  0  0  0  0  0  0  0  0  0
  2  1  1  1
  3  2  1  0
  4  3  1  0
  5  4  2  0
  6  5  1  0
  7  6  1  0
  7  8  2  0
  8  4  1  0
  9 10  2  0
  9  2  1  0
 11  9  1  0
 12 11  1  0
 13 12  1  0
 14 13  1  0
 14 15  1  0
 15 11  1  0
 16 17  2  0
 15 16  1  1
 18 16  1  0
 19 20  1  6
 19 18  1  0
 20 21  1  0
 22 19  1  0
 23 22  1  0
 24 22  2  0
M  END
$$$$
