HPC.pdb
     RDKit          3D

 24 25  0  0  1  0  0  0  0  0999 V2000
   22.4310  -15.6622  -15.7384 N   0  0  0  0  0  0  0  0  0  0  0  0
   23.2869  -14.6471  -16.3070 C   0  0  1  0  0  0  0  0  0  0  0  0
   22.9544  -14.5425  -17.7924 C   0  0  0  0  0  0  0  0  0  0  0  0
   23.1728  -15.8295  -18.4855 C   0  0  0  0  0  0  0  0  0  0  0  0
   24.4008  -16.3843  -18.7285 C   0  0  0  0  0  0  0  0  0  0  0  0
   24.1745  -17.5394  -19.3720 N   0  0  0  0  0  0  0  0  0  0  0  0
   22.8511  -17.6966  -19.5234 C   0  0  0  0  0  0  0  0  0  0  0  0
   22.2450  -16.6445  -18.9774 N   0  0  0  0  0  0  0  0  0  0  0  0
   23.0415  -13.2956  -15.7403 C   0  0  0  0  0  0  0  0  0  0  0  0
   21.8484  -13.0070  -15.4851 O   0  0  0  0  0  0  0  0  0  0  0  0
   24.0456  -12.3339  -15.4757 N   0  0  0  0  0  0  0  0  0  0  0  0
   25.4319  -12.5305  -15.7548 C   0  0  0  0  0  0  0  0  0  0  0  0
   26.1581  -11.2546  -15.4225 C   0  0  0  0  0  0  0  0  0  0  0  0
   25.1824  -10.5746  -14.4828 C   0  0  0  0  0  0  0  0  0  0  0  0
   23.8289  -11.0486  -14.9007 C   0  0  1  0  0  0  0  0  0  0  0  0
   23.1634  -10.0998  -15.8305 C   0  0  0  0  0  0  0  0  0  0  0  0
   23.4221  -10.2206  -17.0541 O   0  0  0  0  0  0  0  0  0  0  0  0
   22.2892   -9.1209  -15.3430 N   0  0  0  0  0  0  0  0  0  0  0  0
   21.5694   -8.2364  -16.2155 C   0  0  1  0  0  0  0  0  0  0  0  0
   20.0720   -8.3636  -16.0557 C   0  0  0  0  0  0  0  0  0  0  0  0
   19.1851   -7.1006  -17.0116 S   0  0  0  0  0  0  0  0  0  0  0  0
   21.9264   -6.8236  -15.9903 C   0  0  0  0  0  0  0  0  0  0  0  0
   22.0077   -5.9541  -17.0509 O   0  0  0  0  0  0  0  0  0  0  0  0
   22.1548   -6.4180  -14.8346 O   0  0  0  0  0  0  0  0  0  0  0  0
  2  1  1  1
  3  2  1  0
  4  3  1  0
  5  4  2  0
  6  5  1  0
  7  6  1  0
  7  8  2  0
  8  4  1  0
  9 10  2  0
  9  2  1  0
 11  9  1  0
 12 11  1  0
 13 12  1  0
 14 13  1  0
 14 15  1  0
 15 11  1  0
 16 17  2  0
 15 16  1  6
 18 16  1  0
 19 20  1  1
 19 18  1  0
 20 21  1  0
 22 19  1  0
 23 22  1  0
 24 22  2  0
M  END
$$$$
