HPC.pdb
     RDKit          3D

 24 25  0  0  1  0  0  0  0  0999 V2000
   20.4107  -10.5256  -14.9987 N   0  0  0  0  0  0  0  0  0  0  0  0
   20.0390   -9.1746  -15.3492 C   0  0  1  0  0  0  0  0  0  0  0  0
   18.6246   -9.2186  -15.9197 C   0  0  0  0  0  0  0  0  0  0  0  0
   18.5878   -9.9297  -17.2148 C   0  0  0  0  0  0  0  0  0  0  0  0
   18.2669  -11.2520  -17.3681 C   0  0  0  0  0  0  0  0  0  0  0  0
   18.3481  -11.5122  -18.6816 N   0  0  0  0  0  0  0  0  0  0  0  0
   18.7072  -10.3899  -19.3222 C   0  0  0  0  0  0  0  0  0  0  0  0
   18.8520   -9.4253  -18.4160 N   0  0  0  0  0  0  0  0  0  0  0  0
   19.9747   -8.2662  -14.1751 C   0  0  0  0  0  0  0  0  0  0  0  0
   19.4524   -8.7351  -13.1362 O   0  0  0  0  0  0  0  0  0  0  0  0
   20.4544   -6.9348  -14.1539 N   0  0  0  0  0  0  0  0  0  0  0  0
   21.1004   -6.3021  -15.2588 C   0  0  0  0  0  0  0  0  0  0  0  0
   21.3745   -4.8714  -14.8794 C   0  0  0  0  0  0  0  0  0  0  0  0
   21.3153   -4.9321  -13.3661 C   0  0  0  0  0  0  0  0  0  0  0  0
   20.3677   -6.0418  -13.0474 C   0  0  1  0  0  0  0  0  0  0  0  0
   18.9872   -5.5496  -12.8036 C   0  0  0  0  0  0  0  0  0  0  0  0
   18.2159   -5.4934  -13.7940 O   0  0  0  0  0  0  0  0  0  0  0  0
   18.5837   -5.1699  -11.5178 N   0  0  0  0  0  0  0  0  0  0  0  0
   17.2329   -4.7812  -11.2244 C   0  0  1  0  0  0  0  0  0  0  0  0
   16.5266   -5.7805  -10.3377 C   0  0  0  0  0  0  0  0  0  0  0  0
   17.6308   -6.4389   -9.0559 S   0  0  0  0  0  0  0  0  0  0  0  0
   17.1660   -3.4662  -10.5607 C   0  0  0  0  0  0  0  0  0  0  0  0
   15.9553   -2.8403  -10.3884 O   0  0  0  0  0  0  0  0  0  0  0  0
   18.2109   -2.9219  -10.1555 O   0  0  0  0  0  0  0  0  0  0  0  0
  2  1  1  1
  3  2  1  0
  4  3  1  0
  5  4  2  0
  6  5  1  0
  7  6  1  0
  7  8  2  0
  8  4  1  0
  9 10  2  0
  9  2  1  0
 11  9  1  0
 12 11  1  0
 13 12  1  0
 14 13  1  0
 14 15  1  0
 15 11  1  0
 16 17  2  0
 15 16  1  6
 18 16  1  0
 19 20  1  1
 19 18  1  0
 20 21  1  0
 22 19  1  0
 23 22  1  0
 24 22  2  0
M  END
$$$$
