HPC.pdb
     RDKit          3D

 24 25  0  0  1  0  0  0  0  0999 V2000
   18.4074  -25.1605  -15.0134 N   0  0  0  0  0  0  0  0  0  0  0  0
   19.4286  -25.1940  -13.9925 C   0  0  1  0  0  0  0  0  0  0  0  0
   19.9340  -23.7675  -13.7986 C   0  0  0  0  0  0  0  0  0  0  0  0
   20.6193  -23.2693  -15.0096 C   0  0  0  0  0  0  0  0  0  0  0  0
   21.9027  -23.5880  -15.3646 C   0  0  0  0  0  0  0  0  0  0  0  0
   22.1501  -22.9415  -16.5137 N   0  0  0  0  0  0  0  0  0  0  0  0
   21.0577  -22.2450  -16.8605 C   0  0  0  0  0  0  0  0  0  0  0  0
   20.1246  -22.4514  -15.9335 N   0  0  0  0  0  0  0  0  0  0  0  0
   18.9122  -25.6250  -12.6676 C   0  0  0  0  0  0  0  0  0  0  0  0
   17.9282  -24.9898  -12.2200 O   0  0  0  0  0  0  0  0  0  0  0  0
   19.4473  -26.6830  -11.8948 N   0  0  0  0  0  0  0  0  0  0  0  0
   20.5683  -27.4730  -12.2920 C   0  0  0  0  0  0  0  0  0  0  0  0
   20.8874  -28.4239  -11.1695 C   0  0  0  0  0  0  0  0  0  0  0  0
   19.5815  -28.4500  -10.4006 C   0  0  0  0  0  0  0  0  0  0  0  0
   18.9570  -27.1123  -10.6280 C   0  0  1  0  0  0  0  0  0  0  0  0
   19.2611  -26.1564   -9.5320 C   0  0  0  0  0  0  0  0  0  0  0  0
   20.3090  -25.4721   -9.6431 O   0  0  0  0  0  0  0  0  0  0  0  0
   18.4032  -26.0389   -8.4318 N   0  0  0  0  0  0  0  0  0  0  0  0
   18.6626  -25.1255   -7.3547 C   0  0  1  0  0  0  0  0  0  0  0  0
   18.0043  -23.7821   -7.5686 C   0  0  0  0  0  0  0  0  0  0  0  0
   16.1940  -23.9048   -7.5108 S   0  0  0  0  0  0  0  0  0  0  0  0
   18.1984  -25.6514   -6.0577 C   0  0  0  0  0  0  0  0  0  0  0  0
   18.5654  -25.0297   -4.8889 O   0  0  0  0  0  0  0  0  0  0  0  0
   17.4713  -26.6625   -6.0226 O   0  0  0  0  0  0  0  0  0  0  0  0
  2  1  1  6
  3  2  1  0
  4  3  1  0
  5  4  2  0
  6  5  1  0
  7  6  1  0
  7  8  2  0
  8  4  1  0
  9 10  2  0
  9  2  1  0
 11  9  1  0
 12 11  1  0
 13 12  1  0
 14 13  1  0
 14 15  1  0
 15 11  1  0
 16 17  2  0
 15 16  1  1
 18 16  1  0
 19 20  1  6
 19 18  1  0
 20 21  1  0
 22 19  1  0
 23 22  1  0
 24 22  2  0
M  END
$$$$
