HPC.pdb
     RDKit          3D

 24 25  0  0  1  0  0  0  0  0999 V2000
   25.6330  -20.1823  -18.9250 N   0  0  0  0  0  0  0  0  0  0  0  0
   25.7286  -19.4780  -17.6676 C   0  0  1  0  0  0  0  0  0  0  0  0
   24.6659  -18.3832  -17.6703 C   0  0  0  0  0  0  0  0  0  0  0  0
   25.0929  -17.2196  -18.4754 C   0  0  0  0  0  0  0  0  0  0  0  0
   24.6517  -16.9454  -19.7423 C   0  0  0  0  0  0  0  0  0  0  0  0
   25.2684  -15.8165  -20.1227 N   0  0  0  0  0  0  0  0  0  0  0  0
   26.0654  -15.4036  -19.1261 C   0  0  0  0  0  0  0  0  0  0  0  0
   25.9519  -16.2691  -18.1207 N   0  0  0  0  0  0  0  0  0  0  0  0
   25.4224  -20.3376  -16.4950 C   0  0  0  0  0  0  0  0  0  0  0  0
   24.4939  -21.1675  -16.6403 O   0  0  0  0  0  0  0  0  0  0  0  0
   26.0962  -20.2816  -15.2517 N   0  0  0  0  0  0  0  0  0  0  0  0
   27.1929  -19.4095  -14.9774 C   0  0  0  0  0  0  0  0  0  0  0  0
   27.5698  -19.5783  -13.5299 C   0  0  0  0  0  0  0  0  0  0  0  0
   26.9716  -20.9329  -13.2066 C   0  0  0  0  0  0  0  0  0  0  0  0
   25.7885  -21.0726  -14.1076 C   0  0  1  0  0  0  0  0  0  0  0  0
   24.5240  -20.6660  -13.4420 C   0  0  0  0  0  0  0  0  0  0  0  0
   24.1952  -19.4563  -13.5271 O   0  0  0  0  0  0  0  0  0  0  0  0
   23.7471  -21.6065  -12.7547 N   0  0  0  0  0  0  0  0  0  0  0  0
   22.5101  -21.2554  -12.1159 C   0  0  1  0  0  0  0  0  0  0  0  0
   21.5682  -22.4316  -12.0005 C   0  0  0  0  0  0  0  0  0  0  0  0
   20.0418  -21.9861  -11.1247 S   0  0  0  0  0  0  0  0  0  0  0  0
   22.7200  -20.7140  -10.7605 C   0  0  0  0  0  0  0  0  0  0  0  0
   21.8796  -19.7466  -10.2653 O   0  0  0  0  0  0  0  0  0  0  0  0
   23.6625  -21.1355  -10.0632 O   0  0  0  0  0  0  0  0  0  0  0  0
  2  1  1  6
  3  2  1  0
  4  3  1  0
  5  4  2  0
  6  5  1  0
  7  6  1  0
  7  8  2  0
  8  4  1  0
  9 10  2  0
  9  2  1  0
 11  9  1  0
 12 11  1  0
 13 12  1  0
 14 13  1  0
 14 15  1  0
 15 11  1  0
 16 17  2  0
 15 16  1  1
 18 16  1  0
 19 20  1  1
 19 18  1  0
 20 21  1  0
 22 19  1  0
 23 22  1  0
 24 22  2  0
M  END
$$$$
