HPC.pdb
     RDKit          3D

 24 25  0  0  1  0  0  0  0  0999 V2000
   26.2588  -21.4429  -18.4012 N   0  0  0  0  0  0  0  0  0  0  0  0
   26.9167  -22.2171  -17.3745 C   0  0  1  0  0  0  0  0  0  0  0  0
   25.8337  -22.9193  -16.5611 C   0  0  0  0  0  0  0  0  0  0  0  0
   24.9769  -21.9464  -15.8512 C   0  0  0  0  0  0  0  0  0  0  0  0
   25.0567  -21.6701  -14.5125 C   0  0  0  0  0  0  0  0  0  0  0  0
   24.1199  -20.7439  -14.2598 N   0  0  0  0  0  0  0  0  0  0  0  0
   23.4800  -20.4547  -15.4026 C   0  0  0  0  0  0  0  0  0  0  0  0
   24.0114  -21.1959  -16.3725 N   0  0  0  0  0  0  0  0  0  0  0  0
   27.7769  -23.2976  -17.9227 C   0  0  0  0  0  0  0  0  0  0  0  0
   27.2639  -24.0230  -18.8073 O   0  0  0  0  0  0  0  0  0  0  0  0
   29.1089  -23.5554  -17.5197 N   0  0  0  0  0  0  0  0  0  0  0  0
   29.7930  -22.8170  -16.5072 C   0  0  0  0  0  0  0  0  0  0  0  0
   31.1438  -23.4493  -16.3039 C   0  0  0  0  0  0  0  0  0  0  0  0
   31.3301  -24.2132  -17.5996 C   0  0  0  0  0  0  0  0  0  0  0  0
   29.9530  -24.5709  -18.0542 C   0  0  1  0  0  0  0  0  0  0  0  0
   29.5584  -25.9388  -17.6293 C   0  0  0  0  0  0  0  0  0  0  0  0
   29.0612  -26.0610  -16.4818 O   0  0  0  0  0  0  0  0  0  0  0  0
   29.7414  -27.0308  -18.4862 N   0  0  0  0  0  0  0  0  0  0  0  0
   29.4362  -28.3756  -18.0862 C   0  0  1  0  0  0  0  0  0  0  0  0
   29.0464  -29.2492  -19.2561 C   0  0  0  0  0  0  0  0  0  0  0  0
   28.7284  -30.9603  -18.7397 S   0  0  0  0  0  0  0  0  0  0  0  0
   30.5713  -29.0219  -17.4020 C   0  0  0  0  0  0  0  0  0  0  0  0
   30.3495  -30.0411  -16.5080 O   0  0  0  0  0  0  0  0  0  0  0  0
   31.7345  -28.6418  -17.6360 O   0  0  0  0  0  0  0  0  0  0  0  0
  2  1  1  6
  3  2  1  0
  4  3  1  0
  5  4  2  0
  6  5  1  0
  7  6  1  0
  7  8  2  0
  8  4  1  0
  9 10  2  0
  9  2  1  0
 11  9  1  0
 12 11  1  0
 13 12  1  0
 14 13  1  0
 14 15  1  0
 15 11  1  0
 16 17  2  0
 15 16  1  1
 18 16  1  0
 19 20  1  6
 19 18  1  0
 20 21  1  0
 22 19  1  0
 23 22  1  0
 24 22  2  0
M  END
$$$$
