HPC.pdb
     RDKit          3D

 24 25  0  0  1  0  0  0  0  0999 V2000
   29.0172  -23.7597  -18.5897 N   0  0  0  0  0  0  0  0  0  0  0  0
   29.6407  -24.5090  -17.5238 C   0  0  1  0  0  0  0  0  0  0  0  0
   28.8248  -25.7814  -17.3161 C   0  0  0  0  0  0  0  0  0  0  0  0
   27.4560  -25.4741  -16.8508 C   0  0  0  0  0  0  0  0  0  0  0  0
   27.0417  -24.2465  -16.4075 C   0  0  0  0  0  0  0  0  0  0  0  0
   25.7476  -24.3786  -16.0797 N   0  0  0  0  0  0  0  0  0  0  0  0
   25.3711  -25.6449  -16.3114 C   0  0  0  0  0  0  0  0  0  0  0  0
   26.4239  -26.3091  -16.7837 N   0  0  0  0  0  0  0  0  0  0  0  0
   31.0167  -24.9595  -17.8575 C   0  0  0  0  0  0  0  0  0  0  0  0
   31.2786  -25.0935  -19.0763 O   0  0  0  0  0  0  0  0  0  0  0  0
   32.0290  -25.2410  -16.9094 N   0  0  0  0  0  0  0  0  0  0  0  0
   31.8920  -25.0170  -15.5060 C   0  0  0  0  0  0  0  0  0  0  0  0
   33.1373  -25.5260  -14.8307 C   0  0  0  0  0  0  0  0  0  0  0  0
   34.1290  -25.5459  -15.9767 C   0  0  0  0  0  0  0  0  0  0  0  0
   33.3140  -25.7795  -17.2065 C   0  0  1  0  0  0  0  0  0  0  0  0
   33.2696  -27.2149  -17.5871 C   0  0  0  0  0  0  0  0  0  0  0  0
   32.3657  -27.9172  -17.0688 O   0  0  0  0  0  0  0  0  0  0  0  0
   34.2044  -27.7420  -18.4864 N   0  0  0  0  0  0  0  0  0  0  0  0
   33.8460  -28.7183  -19.4763 C   0  0  1  0  0  0  0  0  0  0  0  0
   32.8103  -28.1998  -20.4470 C   0  0  0  0  0  0  0  0  0  0  0  0
   32.4287  -29.4193  -21.7365 S   0  0  0  0  0  0  0  0  0  0  0  0
   35.0115  -29.1665  -20.2605 C   0  0  0  0  0  0  0  0  0  0  0  0
   35.2356  -30.5071  -20.4602 O   0  0  0  0  0  0  0  0  0  0  0  0
   35.7948  -28.3263  -20.7430 O   0  0  0  0  0  0  0  0  0  0  0  0
  2  1  1  6
  3  2  1  0
  4  3  1  0
  5  4  2  0
  6  5  1  0
  7  6  1  0
  7  8  2  0
  8  4  1  0
  9 10  2  0
  9  2  1  0
 11  9  1  0
 12 11  1  0
 13 12  1  0
 14 13  1  0
 14 15  1  0
 15 11  1  0
 16 17  2  0
 15 16  1  1
 18 16  1  0
 19 20  1  6
 19 18  1  0
 20 21  1  0
 22 19  1  0
 23 22  1  0
 24 22  2  0
M  END
$$$$
