HPC.pdb
     RDKit          3D

 24 25  0  0  1  0  0  0  0  0999 V2000
   14.7189  -22.6533   -4.4474 N   0  0  0  0  0  0  0  0  0  0  0  0
   13.5886  -22.5326   -3.5562 C   0  0  1  0  0  0  0  0  0  0  0  0
   12.9232  -23.9027   -3.4670 C   0  0  0  0  0  0  0  0  0  0  0  0
   12.3269  -24.2974   -4.7605 C   0  0  0  0  0  0  0  0  0  0  0  0
   12.7508  -25.3523   -5.5236 C   0  0  0  0  0  0  0  0  0  0  0  0
   11.9622  -25.3767   -6.6085 N   0  0  0  0  0  0  0  0  0  0  0  0
   11.0788  -24.3713   -6.5222 C   0  0  0  0  0  0  0  0  0  0  0  0
   11.3093  -23.7151   -5.3869 N   0  0  0  0  0  0  0  0  0  0  0  0
   13.9791  -22.1801   -2.1666 C   0  0  0  0  0  0  0  0  0  0  0  0
   15.1283  -22.5280   -1.8058 O   0  0  0  0  0  0  0  0  0  0  0  0
   13.1557  -21.4921   -1.2437 N   0  0  0  0  0  0  0  0  0  0  0  0
   11.8019  -21.1213   -1.5049 C   0  0  0  0  0  0  0  0  0  0  0  0
   11.2420  -20.4965   -0.2550 C   0  0  0  0  0  0  0  0  0  0  0  0
   12.5020  -20.0918    0.4840 C   0  0  0  0  0  0  0  0  0  0  0  0
   13.5461  -21.0724    0.0605 C   0  0  1  0  0  0  0  0  0  0  0  0
   13.6801  -22.1998    1.0188 C   0  0  0  0  0  0  0  0  0  0  0  0
   12.9246  -23.1892    0.8484 O   0  0  0  0  0  0  0  0  0  0  0  0
   14.6146  -22.1417    2.0597 N   0  0  0  0  0  0  0  0  0  0  0  0
   14.7982  -23.2259    2.9832 C   0  0  1  0  0  0  0  0  0  0  0  0
   16.1879  -23.8150    2.9094 C   0  0  0  0  0  0  0  0  0  0  0  0
   16.6777  -24.1677    1.1974 S   0  0  0  0  0  0  0  0  0  0  0  0
   14.5594  -22.8125    4.3783 C   0  0  0  0  0  0  0  0  0  0  0  0
   14.5030  -23.7535    5.3775 O   0  0  0  0  0  0  0  0  0  0  0  0
   14.4083  -21.6061    4.6506 O   0  0  0  0  0  0  0  0  0  0  0  0
  2  1  1  6
  3  2  1  0
  4  3  1  0
  5  4  2  0
  6  5  1  0
  7  6  1  0
  7  8  2  0
  8  4  1  0
  9 10  2  0
  9  2  1  0
 11  9  1  0
 12 11  1  0
 13 12  1  0
 14 13  1  0
 14 15  1  0
 15 11  1  0
 16 17  2  0
 15 16  1  1
 18 16  1  0
 19 20  1  1
 19 18  1  0
 20 21  1  0
 22 19  1  0
 23 22  1  0
 24 22  2  0
M  END
$$$$
