HPC.pdb
     RDKit          3D

 24 25  0  0  1  0  0  0  0  0999 V2000
   22.7883  -13.9669  -18.3246 N   0  0  0  0  0  0  0  0  0  0  0  0
   23.8900  -13.0344  -18.3773 C   0  0  1  0  0  0  0  0  0  0  0  0
   23.9457  -12.4658  -19.7920 C   0  0  0  0  0  0  0  0  0  0  0  0
   24.2022  -13.5260  -20.7893 C   0  0  0  0  0  0  0  0  0  0  0  0
   25.4402  -14.0260  -21.0932 C   0  0  0  0  0  0  0  0  0  0  0  0
   25.2505  -14.9614  -22.0358 N   0  0  0  0  0  0  0  0  0  0  0  0
   23.9396  -15.0398  -22.3080 C   0  0  0  0  0  0  0  0  0  0  0  0
   23.3046  -14.1570  -21.5399 N   0  0  0  0  0  0  0  0  0  0  0  0
   23.7064  -11.8661  -17.4776 C   0  0  0  0  0  0  0  0  0  0  0  0
   22.5313  -11.4538  -17.3332 O   0  0  0  0  0  0  0  0  0  0  0  0
   24.7495  -11.2031  -16.7881 N   0  0  0  0  0  0  0  0  0  0  0  0
   26.1258  -11.5719  -16.8783 C   0  0  0  0  0  0  0  0  0  0  0  0
   26.9265  -10.5769  -16.0815 C   0  0  0  0  0  0  0  0  0  0  0  0
   25.8730   -9.9918  -15.1622 C   0  0  0  0  0  0  0  0  0  0  0  0
   24.5868  -10.0888  -15.9155 C   0  0  1  0  0  0  0  0  0  0  0  0
   24.2598   -8.8301  -16.6339 C   0  0  0  0  0  0  0  0  0  0  0  0
   24.7217   -8.6965  -17.7947 O   0  0  0  0  0  0  0  0  0  0  0  0
   23.4692   -7.8480  -16.0250 N   0  0  0  0  0  0  0  0  0  0  0  0
   22.9507   -6.7244  -16.7533 C   0  0  1  0  0  0  0  0  0  0  0  0
   21.8619   -7.1207  -17.7235 C   0  0  0  0  0  0  0  0  0  0  0  0
   21.0320   -5.6693  -18.4308 S   0  0  0  0  0  0  0  0  0  0  0  0
   22.3998   -5.6899  -15.8585 C   0  0  0  0  0  0  0  0  0  0  0  0
   22.0115   -6.0164  -14.5818 O   0  0  0  0  0  0  0  0  0  0  0  0
   22.2864   -4.5168  -16.2624 O   0  0  0  0  0  0  0  0  0  0  0  0
  2  1  1  6
  3  2  1  0
  4  3  1  0
  5  4  2  0
  6  5  1  0
  7  6  1  0
  7  8  2  0
  8  4  1  0
  9 10  2  0
  9  2  1  0
 11  9  1  0
 12 11  1  0
 13 12  1  0
 14 13  1  0
 14 15  1  0
 15 11  1  0
 16 17  2  0
 15 16  1  6
 18 16  1  0
 19 20  1  6
 19 18  1  0
 20 21  1  0
 22 19  1  0
 23 22  1  0
 24 22  2  0
M  END
$$$$
