YLQ.pdb
     RDKit          3D

 30 30  0  0  1  0  0  0  0  0999 V2000
   28.1856  -16.0131  -18.3838 O   0  0  0  0  0  0  0  0  0  0  0  0
   27.6092  -16.9447  -17.5109 C   0  0  0  0  0  0  0  0  0  0  0  0
   27.2620  -16.5948  -16.2200 C   0  0  0  0  0  0  0  0  0  0  0  0
   26.6965  -17.5503  -15.3987 C   0  0  0  0  0  0  0  0  0  0  0  0
   26.4618  -18.8386  -15.8067 C   0  0  0  0  0  0  0  0  0  0  0  0
   25.8532  -19.8461  -14.9053 C   0  0  0  0  0  0  0  0  0  0  0  0
   26.9850  -20.3485  -14.0001 C   0  0  2  0  0  0  0  0  0  0  0  0
   27.7726  -21.2523  -14.7850 N   0  0  0  0  0  0  0  0  0  0  0  0
   26.4339  -20.9821  -12.7771 C   0  0  0  0  0  0  0  0  0  0  0  0
   26.0478  -22.1684  -12.7772 O   0  0  0  0  0  0  0  0  0  0  0  0
   26.8138  -19.1746  -17.0994 C   0  0  0  0  0  0  0  0  0  0  0  0
   27.3841  -18.2314  -17.9450 C   0  0  0  0  0  0  0  0  0  0  0  0
   26.0206  -19.0449   -6.9728 C   0  0  0  0  0  0  0  0  0  0  0  0
   26.1763  -20.2322   -7.8382 C   0  0  2  0  0  0  0  0  0  0  0  0
   27.3172  -21.0889   -7.2337 C   0  0  0  0  0  0  0  0  0  0  0  0
   26.4923  -20.0640   -9.2558 C   0  0  0  0  0  0  0  0  0  0  0  0
   25.8044  -20.8283  -10.3165 C   0  0  2  0  0  0  0  0  0  0  0  0
   26.3446  -20.2261  -11.5881 N   0  0  0  0  0  0  0  0  0  0  0  0
   24.3652  -20.6887  -10.4620 C   0  0  0  0  0  0  0  0  0  0  0  0
   23.6016  -20.9630   -9.5025 O   0  0  0  0  0  0  0  0  0  0  0  0
   22.3065  -19.8101  -16.5710 N   0  0  0  0  0  0  0  0  0  0  0  0
   22.3644  -19.1550  -15.3118 C   0  0  0  0  0  0  0  0  0  0  0  0
   22.9195  -18.0376  -15.2601 O   0  0  0  0  0  0  0  0  0  0  0  0
   21.7639  -19.8424  -14.1469 C   0  0  0  0  0  0  0  0  0  0  0  0
   21.9539  -19.1389  -12.8398 C   0  0  0  0  0  0  0  0  0  0  0  0
   22.2932  -20.0895  -11.6998 C   0  0  2  0  0  0  0  0  0  0  0  0
   23.7601  -20.2384  -11.6516 N   0  0  0  0  0  0  0  0  0  0  0  0
   21.6349  -21.3724  -11.9228 C   0  0  0  0  0  0  0  0  0  0  0  0
   20.2648  -21.5680  -11.7353 O   0  0  0  0  0  0  0  0  0  0  0  0
   22.2626  -22.3933  -12.2986 O   0  0  0  0  0  0  0  0  0  0  0  0
  2  1  1  0
  3  2  2  0
  4  3  1  0
  5  4  2  0
  5 11  1  0
  6  7  1  0
  6  5  1  0
  7  9  1  0
  7  8  1  6
  9 10  2  0
 11 12  2  0
 12  2  1  0
 14 13  1  1
 15 14  1  0
 16 14  1  0
 17 16  1  1
 18 17  1  0
 18  9  1  0
 19 17  1  0
 19 20  2  0
 21 22  1  0
 22 24  1  0
 23 22  2  0
 24 25  1  0
 26 25  1  6
 26 28  1  0
 26 27  1  0
 27 19  1  0
 28 29  1  0
 30 28  2  0
M  END
$$$$
