YLQ.pdb
     RDKit          3D

 30 30  0  0  1  0  0  0  0  0999 V2000
   20.0644  -23.1203   -7.3341 O   0  0  0  0  0  0  0  0  0  0  0  0
   20.8896  -22.3308   -8.1452 C   0  0  0  0  0  0  0  0  0  0  0  0
   20.7006  -22.2704   -9.5127 C   0  0  0  0  0  0  0  0  0  0  0  0
   21.5413  -21.4770  -10.2681 C   0  0  0  0  0  0  0  0  0  0  0  0
   22.5619  -20.7414   -9.7215 C   0  0  0  0  0  0  0  0  0  0  0  0
   23.4510  -19.8969  -10.5547 C   0  0  0  0  0  0  0  0  0  0  0  0
   24.4215  -20.8578  -11.2529 C   0  0  2  0  0  0  0  0  0  0  0  0
   25.3748  -21.2725  -10.2666 N   0  0  0  0  0  0  0  0  0  0  0  0
   25.0557  -20.2016  -12.4225 C   0  0  0  0  0  0  0  0  0  0  0  0
   25.8865  -19.2819  -12.2807 O   0  0  0  0  0  0  0  0  0  0  0  0
   22.7394  -20.8112   -8.3535 C   0  0  0  0  0  0  0  0  0  0  0  0
   21.9068  -21.6021   -7.5717 C   0  0  0  0  0  0  0  0  0  0  0  0
   28.5798  -19.6823  -15.1125 C   0  0  0  0  0  0  0  0  0  0  0  0
   27.7832  -20.8863  -14.7987 C   0  0  2  0  0  0  0  0  0  0  0  0
   28.5559  -22.1034  -15.3667 C   0  0  0  0  0  0  0  0  0  0  0  0
   26.4114  -21.0009  -15.2915 C   0  0  0  0  0  0  0  0  0  0  0  0
   25.3604  -20.0232  -14.9425 C   0  0  2  0  0  0  0  0  0  0  0  0
   24.7112  -20.6275  -13.7238 N   0  0  0  0  0  0  0  0  0  0  0  0
   24.2477  -19.8315  -15.8574 C   0  0  0  0  0  0  0  0  0  0  0  0
   23.4054  -20.7475  -16.0316 O   0  0  0  0  0  0  0  0  0  0  0  0
   22.3233  -14.4668  -18.7372 N   0  0  0  0  0  0  0  0  0  0  0  0
   21.3699  -15.4211  -19.1825 C   0  0  0  0  0  0  0  0  0  0  0  0
   20.4366  -15.0189  -19.9083 O   0  0  0  0  0  0  0  0  0  0  0  0
   21.5471  -16.8266  -18.7545 C   0  0  0  0  0  0  0  0  0  0  0  0
   22.7496  -17.0724  -17.8983 C   0  0  0  0  0  0  0  0  0  0  0  0
   22.9015  -18.5330  -17.4964 C   0  0  2  0  0  0  0  0  0  0  0  0
   24.0479  -18.6351  -16.5735 N   0  0  0  0  0  0  0  0  0  0  0  0
   23.1044  -19.3482  -18.6895 C   0  0  0  0  0  0  0  0  0  0  0  0
   24.3512  -19.5110  -19.2974 O   0  0  0  0  0  0  0  0  0  0  0  0
   22.1634  -19.9596  -19.2535 O   0  0  0  0  0  0  0  0  0  0  0  0
  2  1  1  0
  3  2  2  0
  4  3  1  0
  5  4  2  0
  5 11  1  0
  6  7  1  0
  6  5  1  0
  7  9  1  0
  7  8  1  1
  9 10  2  0
 11 12  2  0
 12  2  1  0
 14 13  1  6
 15 14  1  0
 16 14  1  0
 17 16  1  6
 18 17  1  0
 18  9  1  0
 19 17  1  0
 19 20  2  0
 21 22  1  0
 22 24  1  0
 23 22  2  0
 24 25  1  0
 26 25  1  6
 26 28  1  0
 26 27  1  0
 27 19  1  0
 28 29  1  0
 30 28  2  0
M  END
$$$$
