YLQ.pdb
     RDKit          3D

 30 30  0  0  1  0  0  0  0  0999 V2000
   26.9283  -19.9071   -6.0626 O   0  0  0  0  0  0  0  0  0  0  0  0
   26.4957  -20.1288   -7.3762 C   0  0  0  0  0  0  0  0  0  0  0  0
   26.5148  -21.3942   -7.9309 C   0  0  0  0  0  0  0  0  0  0  0  0
   26.0776  -21.5599   -9.2304 C   0  0  0  0  0  0  0  0  0  0  0  0
   25.6224  -20.5209  -10.0014 C   0  0  0  0  0  0  0  0  0  0  0  0
   25.1582  -20.7252  -11.3945 C   0  0  0  0  0  0  0  0  0  0  0  0
   26.4236  -20.8395  -12.2539 C   0  0  2  0  0  0  0  0  0  0  0  0
   27.1312  -19.6012  -12.1158 N   0  0  0  0  0  0  0  0  0  0  0  0
   26.0727  -21.1451  -13.6626 C   0  0  0  0  0  0  0  0  0  0  0  0
   25.7153  -20.2483  -14.4527 O   0  0  0  0  0  0  0  0  0  0  0  0
   25.6088  -19.2614   -9.4343 C   0  0  0  0  0  0  0  0  0  0  0  0
   26.0434  -19.0688   -8.1290 C   0  0  0  0  0  0  0  0  0  0  0  0
   28.0321  -25.3427  -17.5653 C   0  0  0  0  0  0  0  0  0  0  0  0
   26.9564  -24.3790  -17.2547 C   0  0  2  0  0  0  0  0  0  0  0  0
   27.1162  -23.1882  -18.2331 C   0  0  0  0  0  0  0  0  0  0  0  0
   26.8594  -23.8027  -15.9145 C   0  0  0  0  0  0  0  0  0  0  0  0
   25.8027  -22.8401  -15.5410 C   0  0  2  0  0  0  0  0  0  0  0  0
   26.1450  -22.4794  -14.1182 N   0  0  0  0  0  0  0  0  0  0  0  0
   24.4291  -23.3055  -15.4499 C   0  0  0  0  0  0  0  0  0  0  0  0
   24.1570  -24.3586  -14.8206 O   0  0  0  0  0  0  0  0  0  0  0  0
   19.9773  -21.6854  -12.6140 N   0  0  0  0  0  0  0  0  0  0  0  0
   21.2951  -21.2122  -12.8537 C   0  0  0  0  0  0  0  0  0  0  0  0
   21.7739  -20.3856  -12.0494 O   0  0  0  0  0  0  0  0  0  0  0  0
   22.0101  -21.7302  -14.0414 C   0  0  0  0  0  0  0  0  0  0  0  0
   21.2206  -22.6875  -14.8780 C   0  0  0  0  0  0  0  0  0  0  0  0
   22.0165  -23.2448  -16.0502 C   0  0  2  0  0  0  0  0  0  0  0  0
   23.3504  -22.6150  -16.0362 N   0  0  0  0  0  0  0  0  0  0  0  0
   21.3093  -22.9661  -17.2957 C   0  0  0  0  0  0  0  0  0  0  0  0
   21.8856  -23.1458  -18.5551 O   0  0  0  0  0  0  0  0  0  0  0  0
   20.1277  -22.5408  -17.3168 O   0  0  0  0  0  0  0  0  0  0  0  0
  2  1  1  0
  3  2  2  0
  4  3  1  0
  5  4  2  0
  5 11  1  0
  6  7  1  0
  6  5  1  0
  7  9  1  0
  7  8  1  6
  9 10  2  0
 11 12  2  0
 12  2  1  0
 14 13  1  1
 15 14  1  0
 16 14  1  0
 17 16  1  1
 18 17  1  0
 18  9  1  0
 19 17  1  0
 19 20  2  0
 21 22  1  0
 22 24  1  0
 23 22  2  0
 24 25  1  0
 26 25  1  1
 26 28  1  0
 26 27  1  0
 27 19  1  0
 28 29  1  0
 30 28  2  0
M  END
$$$$
