YLQ.pdb
     RDKit          3D

 30 30  0  0  1  0  0  0  0  0999 V2000
   29.9789  -15.3130  -18.4880 O   0  0  0  0  0  0  0  0  0  0  0  0
   29.0923  -16.2722  -17.9821 C   0  0  0  0  0  0  0  0  0  0  0  0
   28.5501  -16.1473  -16.7172 C   0  0  0  0  0  0  0  0  0  0  0  0
   27.6808  -17.1204  -16.2648 C   0  0  0  0  0  0  0  0  0  0  0  0
   27.3279  -18.2119  -17.0166 C   0  0  0  0  0  0  0  0  0  0  0  0
   26.3921  -19.2430  -16.5077 C   0  0  0  0  0  0  0  0  0  0  0  0
   27.0943  -19.9064  -15.3163 C   0  0  2  0  0  0  0  0  0  0  0  0
   28.1387  -20.7262  -15.8553 N   0  0  0  0  0  0  0  0  0  0  0  0
   26.1238  -20.6772  -14.5008 C   0  0  0  0  0  0  0  0  0  0  0  0
   25.8065  -21.8459  -14.8004 O   0  0  0  0  0  0  0  0  0  0  0  0
   27.8773  -18.3240  -18.2790 C   0  0  0  0  0  0  0  0  0  0  0  0
   28.7543  -17.3584  -18.7570 C   0  0  0  0  0  0  0  0  0  0  0  0
   26.2855  -22.2487   -9.9701 C   0  0  0  0  0  0  0  0  0  0  0  0
   26.2001  -20.8143  -10.3134 C   0  0  2  0  0  0  0  0  0  0  0  0
   26.2060  -20.0263   -8.9792 C   0  0  0  0  0  0  0  0  0  0  0  0
   25.0610  -20.3160  -11.0826 C   0  0  0  0  0  0  0  0  0  0  0  0
   24.6955  -20.8675  -12.4036 C   0  0  2  0  0  0  0  0  0  0  0  0
   25.5474  -20.0747  -13.3615 N   0  0  0  0  0  0  0  0  0  0  0  0
   23.3461  -20.6610  -12.9019 C   0  0  0  0  0  0  0  0  0  0  0  0
   22.9626  -19.5119  -13.2357 O   0  0  0  0  0  0  0  0  0  0  0  0
   19.3143  -24.9714  -15.2337 N   0  0  0  0  0  0  0  0  0  0  0  0
   18.5034  -23.8058  -15.1920 C   0  0  0  0  0  0  0  0  0  0  0  0
   17.3405  -23.8873  -15.6399 O   0  0  0  0  0  0  0  0  0  0  0  0
   19.0928  -22.5739  -14.6218 C   0  0  0  0  0  0  0  0  0  0  0  0
   20.4890  -22.7298  -14.1060 C   0  0  0  0  0  0  0  0  0  0  0  0
   21.0859  -21.4205  -13.6085 C   0  0  2  0  0  0  0  0  0  0  0  0
   22.4187  -21.7113  -13.0469 N   0  0  0  0  0  0  0  0  0  0  0  0
   20.2031  -20.8319  -12.6068 C   0  0  0  0  0  0  0  0  0  0  0  0
   19.1954  -19.9181  -12.9228 O   0  0  0  0  0  0  0  0  0  0  0  0
   20.2940  -21.1090  -11.3851 O   0  0  0  0  0  0  0  0  0  0  0  0
  2  1  1  0
  3  2  2  0
  4  3  1  0
  5  4  2  0
  5 11  1  0
  6  7  1  0
  6  5  1  0
  7  9  1  0
  7  8  1  6
  9 10  2  0
 11 12  2  0
 12  2  1  0
 14 13  1  1
 15 14  1  0
 16 14  1  0
 17 16  1  1
 18 17  1  0
 18  9  1  0
 19 17  1  0
 19 20  2  0
 21 22  1  0
 22 24  1  0
 23 22  2  0
 24 25  1  0
 26 25  1  1
 26 28  1  0
 26 27  1  0
 27 19  1  0
 28 29  1  0
 30 28  2  0
M  END
$$$$
