YLQ.pdb
     RDKit          3D

 30 30  0  0  1  0  0  0  0  0999 V2000
   15.9740  -24.0434  -16.7341 O   0  0  0  0  0  0  0  0  0  0  0  0
   17.0963  -23.2429  -16.4854 C   0  0  0  0  0  0  0  0  0  0  0  0
   17.1416  -21.9264  -16.9027 C   0  0  0  0  0  0  0  0  0  0  0  0
   18.2713  -21.1793  -16.6329 C   0  0  0  0  0  0  0  0  0  0  0  0
   19.3576  -21.6858  -15.9659 C   0  0  0  0  0  0  0  0  0  0  0  0
   20.5589  -20.8627  -15.6884 C   0  0  0  0  0  0  0  0  0  0  0  0
   20.6893  -20.7983  -14.1615 C   0  0  2  0  0  0  0  0  0  0  0  0
   19.5583  -20.0619  -13.6800 N   0  0  0  0  0  0  0  0  0  0  0  0
   21.9818  -20.1825  -13.7728 C   0  0  0  0  0  0  0  0  0  0  0  0
   22.1549  -18.9481  -13.8230 O   0  0  0  0  0  0  0  0  0  0  0  0
   19.2987  -23.0031  -15.5546 C   0  0  0  0  0  0  0  0  0  0  0  0
   18.1734  -23.7755  -15.8139 C   0  0  0  0  0  0  0  0  0  0  0  0
   27.0627  -20.9810  -11.1656 C   0  0  0  0  0  0  0  0  0  0  0  0
   25.6984  -20.6417  -10.7116 C   0  0  2  0  0  0  0  0  0  0  0  0
   25.4817  -21.3525   -9.3519 C   0  0  0  0  0  0  0  0  0  0  0  0
   24.5471  -20.9843  -11.5452 C   0  0  0  0  0  0  0  0  0  0  0  0
   24.3599  -20.4319  -12.9025 C   0  0  2  0  0  0  0  0  0  0  0  0
   23.0382  -21.0116  -13.3370 N   0  0  0  0  0  0  0  0  0  0  0  0
   25.2707  -20.8400  -13.9587 C   0  0  0  0  0  0  0  0  0  0  0  0
   25.3239  -22.0422  -14.3204 O   0  0  0  0  0  0  0  0  0  0  0  0
   28.9158  -17.1627  -17.7109 N   0  0  0  0  0  0  0  0  0  0  0  0
   29.2455  -18.4736  -18.1476 C   0  0  0  0  0  0  0  0  0  0  0  0
   30.0695  -18.5887  -19.0789 O   0  0  0  0  0  0  0  0  0  0  0  0
   28.5887  -19.6135  -17.4698 C   0  0  0  0  0  0  0  0  0  0  0  0
   27.6845  -19.2322  -16.3400 C   0  0  0  0  0  0  0  0  0  0  0  0
   26.9982  -20.4314  -15.7005 C   0  0  2  0  0  0  0  0  0  0  0  0
   26.1156  -19.9334  -14.6283 N   0  0  0  0  0  0  0  0  0  0  0  0
   28.0059  -21.3480  -15.1776 C   0  0  0  0  0  0  0  0  0  0  0  0
   28.4944  -21.2777  -13.8711 O   0  0  0  0  0  0  0  0  0  0  0  0
   28.5055  -22.2657  -15.8745 O   0  0  0  0  0  0  0  0  0  0  0  0
  2  1  1  0
  3  2  2  0
  4  3  1  0
  5  4  2  0
  5 11  1  0
  6  7  1  0
  6  5  1  0
  7  9  1  0
  7  8  1  6
  9 10  2  0
 11 12  2  0
 12  2  1  0
 14 13  1  6
 15 14  1  0
 16 14  1  0
 17 16  1  1
 18 17  1  0
 18  9  1  0
 19 17  1  0
 19 20  2  0
 21 22  1  0
 22 24  1  0
 23 22  2  0
 24 25  1  0
 26 25  1  1
 26 28  1  0
 26 27  1  0
 27 19  1  0
 28 29  1  0
 30 28  2  0
M  END
$$$$
