YLQ.pdb
     RDKit          3D

 30 30  0  0  1  0  0  0  0  0999 V2000
   15.9666  -29.4894  -11.4578 O   0  0  0  0  0  0  0  0  0  0  0  0
   16.2860  -28.1753  -11.8227 C   0  0  0  0  0  0  0  0  0  0  0  0
   17.5642  -27.8355  -12.2230 C   0  0  0  0  0  0  0  0  0  0  0  0
   17.8279  -26.5258  -12.5726 C   0  0  0  0  0  0  0  0  0  0  0  0
   16.8748  -25.5400  -12.5411 C   0  0  0  0  0  0  0  0  0  0  0  0
   17.1835  -24.1408  -12.9215 C   0  0  0  0  0  0  0  0  0  0  0  0
   17.9966  -23.5522  -11.7617 C   0  0  2  0  0  0  0  0  0  0  0  0
   17.1072  -23.4491  -10.6429 N   0  0  0  0  0  0  0  0  0  0  0  0
   18.5868  -22.2467  -12.1468 C   0  0  0  0  0  0  0  0  0  0  0  0
   17.9248  -21.1911  -12.0871 O   0  0  0  0  0  0  0  0  0  0  0  0
   15.6015  -25.8937  -12.1390 C   0  0  0  0  0  0  0  0  0  0  0  0
   15.3110  -27.2045  -11.7823 C   0  0  0  0  0  0  0  0  0  0  0  0
   21.4828  -19.4894  -10.1995 C   0  0  0  0  0  0  0  0  0  0  0  0
   21.9237  -20.7470  -10.8372 C   0  0  2  0  0  0  0  0  0  0  0  0
   23.4105  -20.9545  -10.4532 C   0  0  0  0  0  0  0  0  0  0  0  0
   21.8478  -20.8926  -12.2900 C   0  0  0  0  0  0  0  0  0  0  0  0
   20.5627  -20.9013  -13.0188 C   0  0  2  0  0  0  0  0  0  0  0  0
   19.9263  -22.1987  -12.5903 N   0  0  0  0  0  0  0  0  0  0  0  0
   20.5783  -20.9960  -14.4688 C   0  0  0  0  0  0  0  0  0  0  0  0
   20.8704  -22.0816  -15.0300 O   0  0  0  0  0  0  0  0  0  0  0  0
   16.9288  -22.0859  -15.7689 N   0  0  0  0  0  0  0  0  0  0  0  0
   16.6784  -20.7326  -16.1205 C   0  0  0  0  0  0  0  0  0  0  0  0
   15.5697  -20.2456  -15.8152 O   0  0  0  0  0  0  0  0  0  0  0  0
   17.7483  -19.9925  -16.8259 C   0  0  0  0  0  0  0  0  0  0  0  0
   18.9633  -20.8051  -17.1470 C   0  0  0  0  0  0  0  0  0  0  0  0
   20.2610  -20.1045  -16.7687 C   0  0  2  0  0  0  0  0  0  0  0  0
   20.2638  -19.9082  -15.3066 N   0  0  0  0  0  0  0  0  0  0  0  0
   20.3522  -18.8320  -17.4768 C   0  0  0  0  0  0  0  0  0  0  0  0
   20.4137  -17.5995  -16.8229 O   0  0  0  0  0  0  0  0  0  0  0  0
   20.3791  -18.7612  -18.7305 O   0  0  0  0  0  0  0  0  0  0  0  0
  2  1  1  0
  3  2  2  0
  4  3  1  0
  5  4  2  0
  5 11  1  0
  6  7  1  0
  6  5  1  0
  7  9  1  0
  7  8  1  1
  9 10  2  0
 11 12  2  0
 12  2  1  0
 14 13  1  6
 15 14  1  0
 16 14  1  0
 17 16  1  1
 18 17  1  0
 18  9  1  0
 19 17  1  0
 19 20  2  0
 21 22  1  0
 22 24  1  0
 23 22  2  0
 24 25  1  0
 26 25  1  6
 26 28  1  0
 26 27  1  0
 27 19  1  0
 28 29  1  0
 30 28  2  0
M  END
$$$$
