YLQ.pdb
     RDKit          3D

 30 30  0  0  1  0  0  0  0  0999 V2000
   18.6180  -17.4327  -22.0961 O   0  0  0  0  0  0  0  0  0  0  0  0
   18.9272  -16.4171  -21.1825 C   0  0  0  0  0  0  0  0  0  0  0  0
   20.1315  -15.7424  -21.2446 C   0  0  0  0  0  0  0  0  0  0  0  0
   20.3884  -14.7489  -20.3203 C   0  0  0  0  0  0  0  0  0  0  0  0
   19.4986  -14.3981  -19.3371 C   0  0  0  0  0  0  0  0  0  0  0  0
   19.7983  -13.3275  -18.3564 C   0  0  0  0  0  0  0  0  0  0  0  0
   20.9165  -13.8716  -17.4585 C   0  0  2  0  0  0  0  0  0  0  0  0
   20.3708  -14.9913  -16.7501 N   0  0  0  0  0  0  0  0  0  0  0  0
   21.4216  -12.8111  -16.5523 C   0  0  0  0  0  0  0  0  0  0  0  0
   20.8456  -12.5450  -15.4782 O   0  0  0  0  0  0  0  0  0  0  0  0
   18.2988  -15.0808  -19.2867 C   0  0  0  0  0  0  0  0  0  0  0  0
   18.0168  -16.0842  -20.2052 C   0  0  0  0  0  0  0  0  0  0  0  0
   26.9604  -10.3263  -15.7638 C   0  0  0  0  0  0  0  0  0  0  0  0
   25.5068  -10.1733  -15.5488 C   0  0  2  0  0  0  0  0  0  0  0  0
   25.2616  -10.2585  -14.0212 C   0  0  0  0  0  0  0  0  0  0  0  0
   24.5756  -11.1140  -16.1699 C   0  0  0  0  0  0  0  0  0  0  0  0
   23.1100  -10.9760  -16.0455 C   0  0  2  0  0  0  0  0  0  0  0  0
   22.5790  -12.0877  -16.9137 N   0  0  0  0  0  0  0  0  0  0  0  0
   22.4678   -9.7898  -16.5860 C   0  0  0  0  0  0  0  0  0  0  0  0
   22.4863   -9.5666  -17.8224 O   0  0  0  0  0  0  0  0  0  0  0  0
   18.8222  -10.2780  -15.3153 N   0  0  0  0  0  0  0  0  0  0  0  0
   18.5725  -10.0102  -16.6879 C   0  0  0  0  0  0  0  0  0  0  0  0
   17.9918  -10.8895  -17.3580 O   0  0  0  0  0  0  0  0  0  0  0  0
   19.0188   -8.7075  -17.2301 C   0  0  0  0  0  0  0  0  0  0  0  0
   19.6573   -7.7987  -16.2272 C   0  0  0  0  0  0  0  0  0  0  0  0
   21.1639   -7.6793  -16.4112 C   0  0  2  0  0  0  0  0  0  0  0  0
   21.7950   -8.8527  -15.7777 N   0  0  0  0  0  0  0  0  0  0  0  0
   21.6311   -6.4344  -15.8105 C   0  0  0  0  0  0  0  0  0  0  0  0
   21.8045   -5.2555  -16.5390 O   0  0  0  0  0  0  0  0  0  0  0  0
   21.9125   -6.3415  -14.5899 O   0  0  0  0  0  0  0  0  0  0  0  0
  2  1  1  0
  3  2  2  0
  4  3  1  0
  5  4  2  0
  5 11  1  0
  6  7  1  0
  6  5  1  0
  7  9  1  0
  7  8  1  1
  9 10  2  0
 11 12  2  0
 12  2  1  0
 14 13  1  1
 15 14  1  0
 16 14  1  0
 17 16  1  6
 18 17  1  0
 18  9  1  0
 19 17  1  0
 19 20  2  0
 21 22  1  0
 22 24  1  0
 23 22  2  0
 24 25  1  0
 26 25  1  1
 26 28  1  0
 26 27  1  0
 27 19  1  0
 28 29  1  0
 30 28  2  0
M  END
$$$$
