YLQ.pdb
     RDKit          3D

 30 30  0  0  1  0  0  0  0  0999 V2000
   15.7528  -25.7148  -14.7406 O   0  0  0  0  0  0  0  0  0  0  0  0
   16.8556  -24.8533  -14.8010 C   0  0  0  0  0  0  0  0  0  0  0  0
   16.8173  -23.6952  -15.5538 C   0  0  0  0  0  0  0  0  0  0  0  0
   17.9312  -22.8793  -15.5804 C   0  0  0  0  0  0  0  0  0  0  0  0
   19.0813  -23.1662  -14.8903 C   0  0  0  0  0  0  0  0  0  0  0  0
   20.2640  -22.2735  -14.9352 C   0  0  0  0  0  0  0  0  0  0  0  0
   20.3210  -21.5711  -13.5728 C   0  0  2  0  0  0  0  0  0  0  0  0
   19.1830  -20.7029  -13.5067 N   0  0  0  0  0  0  0  0  0  0  0  0
   21.6052  -20.8459  -13.4121 C   0  0  0  0  0  0  0  0  0  0  0  0
   21.7216  -19.6487  -13.7432 O   0  0  0  0  0  0  0  0  0  0  0  0
   19.1058  -24.3270  -14.1419 C   0  0  0  0  0  0  0  0  0  0  0  0
   17.9981  -25.1643  -14.0990 C   0  0  0  0  0  0  0  0  0  0  0  0
   26.6474  -22.0966  -10.0837 C   0  0  0  0  0  0  0  0  0  0  0  0
   26.0359  -21.2596  -11.1364 C   0  0  2  0  0  0  0  0  0  0  0  0
   26.0753  -19.7948  -10.6328 C   0  0  0  0  0  0  0  0  0  0  0  0
   24.6601  -21.5137  -11.5614 C   0  0  0  0  0  0  0  0  0  0  0  0
   24.0578  -20.8470  -12.7341 C   0  0  2  0  0  0  0  0  0  0  0  0
   22.7191  -21.5255  -12.8729 N   0  0  0  0  0  0  0  0  0  0  0  0
   24.6683  -21.0351  -14.0394 C   0  0  0  0  0  0  0  0  0  0  0  0
   25.7099  -20.4040  -14.3488 O   0  0  0  0  0  0  0  0  0  0  0  0
   26.9711  -25.7025  -16.1878 N   0  0  0  0  0  0  0  0  0  0  0  0
   26.8856  -25.0895  -17.4664 C   0  0  0  0  0  0  0  0  0  0  0  0
   27.6164  -25.5333  -18.3766 O   0  0  0  0  0  0  0  0  0  0  0  0
   25.9371  -23.9656  -17.6319 C   0  0  0  0  0  0  0  0  0  0  0  0
   25.1473  -23.6285  -16.4063 C   0  0  0  0  0  0  0  0  0  0  0  0
   24.8924  -22.1348  -16.2586 C   0  0  2  0  0  0  0  0  0  0  0  0
   24.1481  -21.9212  -15.0029 N   0  0  0  0  0  0  0  0  0  0  0  0
   24.1399  -21.6525  -17.4120 C   0  0  0  0  0  0  0  0  0  0  0  0
   22.8248  -21.1906  -17.3241 O   0  0  0  0  0  0  0  0  0  0  0  0
   24.6286  -21.6232  -18.5686 O   0  0  0  0  0  0  0  0  0  0  0  0
  2  1  1  0
  3  2  2  0
  4  3  1  0
  5  4  2  0
  5 11  1  0
  6  7  1  0
  6  5  1  0
  7  9  1  0
  7  8  1  6
  9 10  2  0
 11 12  2  0
 12  2  1  0
 14 13  1  1
 15 14  1  0
 16 14  1  0
 17 16  1  1
 18 17  1  0
 18  9  1  0
 19 17  1  0
 19 20  2  0
 21 22  1  0
 22 24  1  0
 23 22  2  0
 24 25  1  0
 26 25  1  6
 26 28  1  0
 26 27  1  0
 27 19  1  0
 28 29  1  0
 30 28  2  0
M  END
$$$$
