YLQ.pdb
     RDKit          3D

 30 30  0  0  1  0  0  0  0  0999 V2000
   29.1347  -15.4172  -18.9790 O   0  0  0  0  0  0  0  0  0  0  0  0
   28.3916  -16.3654  -18.2642 C   0  0  0  0  0  0  0  0  0  0  0  0
   28.1326  -16.2023  -16.9167 C   0  0  0  0  0  0  0  0  0  0  0  0
   27.3951  -17.1659  -16.2575 C   0  0  0  0  0  0  0  0  0  0  0  0
   26.9043  -18.2846  -16.8813 C   0  0  0  0  0  0  0  0  0  0  0  0
   26.1148  -19.3048  -16.1508 C   0  0  0  0  0  0  0  0  0  0  0  0
   27.0864  -19.9770  -15.1726 C   0  0  2  0  0  0  0  0  0  0  0  0
   27.9614  -20.7976  -15.9564 N   0  0  0  0  0  0  0  0  0  0  0  0
   26.3439  -20.7487  -14.1459 C   0  0  0  0  0  0  0  0  0  0  0  0
   25.9026  -21.8909  -14.3842 O   0  0  0  0  0  0  0  0  0  0  0  0
   27.1707  -18.4348  -18.2283 C   0  0  0  0  0  0  0  0  0  0  0  0
   27.9103  -17.4794  -18.9139 C   0  0  0  0  0  0  0  0  0  0  0  0
   26.0606  -20.1753   -8.1136 C   0  0  0  0  0  0  0  0  0  0  0  0
   25.7561  -20.8965   -9.3666 C   0  0  2  0  0  0  0  0  0  0  0  0
   26.9385  -21.8614   -9.6346 C   0  0  0  0  0  0  0  0  0  0  0  0
   25.5444  -20.1482  -10.6047 C   0  0  0  0  0  0  0  0  0  0  0  0
   25.1911  -20.8083  -11.8782 C   0  0  2  0  0  0  0  0  0  0  0  0
   26.1325  -20.1776  -12.8721 N   0  0  0  0  0  0  0  0  0  0  0  0
   23.8795  -20.5655  -12.4550 C   0  0  0  0  0  0  0  0  0  0  0  0
   23.6833  -19.5600  -13.1825 O   0  0  0  0  0  0  0  0  0  0  0  0
   19.9668  -24.1577  -14.7476 N   0  0  0  0  0  0  0  0  0  0  0  0
   19.3978  -22.9409  -15.2098 C   0  0  0  0  0  0  0  0  0  0  0  0
   18.3191  -23.0017  -15.8362 O   0  0  0  0  0  0  0  0  0  0  0  0
   20.1231  -21.6842  -14.9185 C   0  0  0  0  0  0  0  0  0  0  0  0
   21.4282  -21.8659  -14.2090 C   0  0  0  0  0  0  0  0  0  0  0  0
   21.4926  -21.1143  -12.8865 C   0  0  2  0  0  0  0  0  0  0  0  0
   22.7847  -21.4270  -12.2469 N   0  0  0  0  0  0  0  0  0  0  0  0
   20.3708  -21.5141  -12.0436 C   0  0  0  0  0  0  0  0  0  0  0  0
   19.0812  -21.0005  -12.1982 O   0  0  0  0  0  0  0  0  0  0  0  0
   20.4929  -22.3510  -11.1150 O   0  0  0  0  0  0  0  0  0  0  0  0
  2  1  1  0
  3  2  2  0
  4  3  1  0
  5  4  2  0
  5 11  1  0
  6  7  1  0
  6  5  1  0
  7  9  1  0
  7  8  1  6
  9 10  2  0
 11 12  2  0
 12  2  1  0
 14 13  1  1
 15 14  1  0
 16 14  1  0
 17 16  1  1
 18 17  1  0
 18  9  1  0
 19 17  1  0
 19 20  2  0
 21 22  1  0
 22 24  1  0
 23 22  2  0
 24 25  1  0
 26 25  1  6
 26 28  1  0
 26 27  1  0
 27 19  1  0
 28 29  1  0
 30 28  2  0
M  END
$$$$
