YLQ.pdb
     RDKit          3D

 30 30  0  0  1  0  0  0  0  0999 V2000
   20.0921  -16.4083  -23.9696 O   0  0  0  0  0  0  0  0  0  0  0  0
   20.3387  -15.5408  -22.8979 C   0  0  0  0  0  0  0  0  0  0  0  0
   21.5720  -14.9393  -22.7347 C   0  0  0  0  0  0  0  0  0  0  0  0
   21.7644  -14.0918  -21.6614 C   0  0  0  0  0  0  0  0  0  0  0  0
   20.7826  -13.8172  -20.7438 C   0  0  0  0  0  0  0  0  0  0  0  0
   21.0145  -12.9033  -19.5997 C   0  0  0  0  0  0  0  0  0  0  0  0
   22.1420  -13.5328  -18.7719 C   0  0  2  0  0  0  0  0  0  0  0  0
   21.6238  -14.7522  -18.2262 N   0  0  0  0  0  0  0  0  0  0  0  0
   22.6111  -12.5907  -17.7263 C   0  0  0  0  0  0  0  0  0  0  0  0
   22.0137  -12.4787  -16.6369 O   0  0  0  0  0  0  0  0  0  0  0  0
   19.5548  -14.4253  -20.9191 C   0  0  0  0  0  0  0  0  0  0  0  0
   19.3363  -15.2818  -21.9908 C   0  0  0  0  0  0  0  0  0  0  0  0
   28.0734  -10.3813  -16.2632 C   0  0  0  0  0  0  0  0  0  0  0  0
   26.6190  -10.1249  -16.2244 C   0  0  2  0  0  0  0  0  0  0  0  0
   26.1966  -10.1272  -14.7336 C   0  0  0  0  0  0  0  0  0  0  0  0
   25.7013  -11.0292  -16.9155 C   0  0  0  0  0  0  0  0  0  0  0  0
   24.2434  -10.7948  -16.9613 C   0  0  2  0  0  0  0  0  0  0  0  0
   23.7582  -11.8045  -17.9698 N   0  0  0  0  0  0  0  0  0  0  0  0
   23.7512   -9.5317  -17.4851 C   0  0  0  0  0  0  0  0  0  0  0  0
   23.9231   -9.2369  -18.6944 O   0  0  0  0  0  0  0  0  0  0  0  0
   18.3500   -4.7626  -17.9398 N   0  0  0  0  0  0  0  0  0  0  0  0
   19.0471   -5.8056  -17.2734 C   0  0  0  0  0  0  0  0  0  0  0  0
   18.4055   -6.5181  -16.4732 O   0  0  0  0  0  0  0  0  0  0  0  0
   20.4865   -5.9757  -17.5721 C   0  0  0  0  0  0  0  0  0  0  0  0
   21.1373   -7.1295  -16.8757 C   0  0  0  0  0  0  0  0  0  0  0  0
   22.5809   -7.3444  -17.3088 C   0  0  2  0  0  0  0  0  0  0  0  0
   23.0610   -8.5951  -16.6910 N   0  0  0  0  0  0  0  0  0  0  0  0
   23.3891   -6.2021  -16.8953 C   0  0  0  0  0  0  0  0  0  0  0  0
   23.7092   -5.1461  -17.7514 O   0  0  0  0  0  0  0  0  0  0  0  0
   23.8552   -6.0941  -15.7340 O   0  0  0  0  0  0  0  0  0  0  0  0
  2  1  1  0
  3  2  2  0
  4  3  1  0
  5  4  2  0
  5 11  1  0
  6  7  1  0
  6  5  1  0
  7  9  1  0
  7  8  1  1
  9 10  2  0
 11 12  2  0
 12  2  1  0
 14 13  1  1
 15 14  1  0
 16 14  1  0
 17 16  1  6
 18 17  1  0
 18  9  1  0
 19 17  1  0
 19 20  2  0
 21 22  1  0
 22 24  1  0
 23 22  2  0
 24 25  1  0
 26 25  1  1
 26 28  1  0
 26 27  1  0
 27 19  1  0
 28 29  1  0
 30 28  2  0
M  END
$$$$
