YLQ.pdb
     RDKit          3D

 30 30  0  0  1  0  0  0  0  0999 V2000
   13.9965  -19.6515    4.5843 O   0  0  0  0  0  0  0  0  0  0  0  0
   14.0399  -20.8966    3.9441 C   0  0  0  0  0  0  0  0  0  0  0  0
   12.9450  -21.3854    3.2573 C   0  0  0  0  0  0  0  0  0  0  0  0
   13.0387  -22.6188    2.6431 C   0  0  0  0  0  0  0  0  0  0  0  0
   14.1747  -23.3864    2.6830 C   0  0  0  0  0  0  0  0  0  0  0  0
   14.2499  -24.7077    2.0150 C   0  0  0  0  0  0  0  0  0  0  0  0
   14.9845  -24.4747    0.6888 C   0  0  2  0  0  0  0  0  0  0  0  0
   14.0802  -23.7643   -0.1661 N   0  0  0  0  0  0  0  0  0  0  0  0
   15.4315  -25.7635    0.1055 C   0  0  0  0  0  0  0  0  0  0  0  0
   14.6746  -26.4508   -0.6093 O   0  0  0  0  0  0  0  0  0  0  0  0
   15.2615  -22.8855    3.3729 C   0  0  0  0  0  0  0  0  0  0  0  0
   15.1922  -21.6474    3.9992 C   0  0  0  0  0  0  0  0  0  0  0  0
   20.8361  -27.8429   -1.6904 C   0  0  0  0  0  0  0  0  0  0  0  0
   19.4447  -28.1946   -1.3398 C   0  0  2  0  0  0  0  0  0  0  0  0
   18.7408  -28.6266   -2.6508 C   0  0  0  0  0  0  0  0  0  0  0  0
   18.5772  -27.1980   -0.7138 C   0  0  0  0  0  0  0  0  0  0  0  0
   17.2369  -27.5321   -0.1899 C   0  0  2  0  0  0  0  0  0  0  0  0
   16.7415  -26.2214    0.3653 N   0  0  0  0  0  0  0  0  0  0  0  0
   17.1306  -28.4391    0.9406 C   0  0  0  0  0  0  0  0  0  0  0  0
   17.4533  -28.0560    2.0930 O   0  0  0  0  0  0  0  0  0  0  0  0
   13.5893  -33.5309    1.1868 N   0  0  0  0  0  0  0  0  0  0  0  0
   13.1794  -32.1761    1.3075 C   0  0  0  0  0  0  0  0  0  0  0  0
   11.9698  -31.9150    1.1391 O   0  0  0  0  0  0  0  0  0  0  0  0
   14.2142  -31.1665    1.6235 C   0  0  0  0  0  0  0  0  0  0  0  0
   15.5974  -31.7165    1.7782 C   0  0  0  0  0  0  0  0  0  0  0  0
   16.6432  -30.6334    2.0045 C   0  0  2  0  0  0  0  0  0  0  0  0
   16.6611  -29.7611    0.8149 N   0  0  0  0  0  0  0  0  0  0  0  0
   17.9450  -31.2525    2.2303 C   0  0  0  0  0  0  0  0  0  0  0  0
   18.2443  -32.0020    3.3701 O   0  0  0  0  0  0  0  0  0  0  0  0
   18.8897  -31.1491    1.4091 O   0  0  0  0  0  0  0  0  0  0  0  0
  2  1  1  0
  3  2  2  0
  4  3  1  0
  5  4  2  0
  5 11  1  0
  6  7  1  0
  6  5  1  0
  7  9  1  0
  7  8  1  6
  9 10  2  0
 11 12  2  0
 12  2  1  0
 14 13  1  6
 15 14  1  0
 16 14  1  0
 17 16  1  1
 18 17  1  0
 18  9  1  0
 19 17  1  0
 19 20  2  0
 21 22  1  0
 22 24  1  0
 23 22  2  0
 24 25  1  0
 26 25  1  6
 26 28  1  0
 26 27  1  0
 27 19  1  0
 28 29  1  0
 30 28  2  0
M  END
$$$$
