YLQ.pdb
     RDKit          3D

 30 30  0  0  1  0  0  0  0  0999 V2000
   17.9508  -27.0376  -15.5722 O   0  0  0  0  0  0  0  0  0  0  0  0
   18.7107  -25.8874  -15.3240 C   0  0  0  0  0  0  0  0  0  0  0  0
   19.9538  -25.9676  -14.7259 C   0  0  0  0  0  0  0  0  0  0  0  0
   20.6634  -24.8040  -14.5029 C   0  0  0  0  0  0  0  0  0  0  0  0
   20.1893  -23.5644  -14.8494 C   0  0  0  0  0  0  0  0  0  0  0  0
   20.9710  -22.3299  -14.5992 C   0  0  0  0  0  0  0  0  0  0  0  0
   20.8757  -22.0620  -13.0919 C   0  0  2  0  0  0  0  0  0  0  0  0
   19.5506  -21.5781  -12.8404 N   0  0  0  0  0  0  0  0  0  0  0  0
   21.9259  -21.1057  -12.6637 C   0  0  0  0  0  0  0  0  0  0  0  0
   21.7291  -19.8740  -12.6796 O   0  0  0  0  0  0  0  0  0  0  0  0
   18.9454  -23.4991  -15.4465 C   0  0  0  0  0  0  0  0  0  0  0  0
   18.2121  -24.6553  -15.6815 C   0  0  0  0  0  0  0  0  0  0  0  0
   26.6935  -21.7677   -8.8824 C   0  0  0  0  0  0  0  0  0  0  0  0
   25.9931  -20.8963   -9.8482 C   0  0  2  0  0  0  0  0  0  0  0  0
   25.4523  -19.6804   -9.0545 C   0  0  0  0  0  0  0  0  0  0  0  0
   24.8669  -21.4208  -10.6190 C   0  0  0  0  0  0  0  0  0  0  0  0
   24.2560  -20.6732  -11.7372 C   0  0  2  0  0  0  0  0  0  0  0  0
   23.1746  -21.6008  -12.2289 N   0  0  0  0  0  0  0  0  0  0  0  0
   25.0491  -20.4185  -12.9281 C   0  0  0  0  0  0  0  0  0  0  0  0
   25.9879  -19.5839  -12.8978 O   0  0  0  0  0  0  0  0  0  0  0  0
   27.7513  -24.4711  -16.3838 N   0  0  0  0  0  0  0  0  0  0  0  0
   28.0810  -23.2993  -17.1160 C   0  0  0  0  0  0  0  0  0  0  0  0
   28.9521  -23.3927  -18.0059 O   0  0  0  0  0  0  0  0  0  0  0  0
   27.3703  -22.0473  -16.7731 C   0  0  0  0  0  0  0  0  0  0  0  0
   26.4071  -22.1671  -15.6340 C   0  0  0  0  0  0  0  0  0  0  0  0
   25.7441  -20.8437  -15.2777 C   0  0  2  0  0  0  0  0  0  0  0  0
   24.8246  -21.0836  -14.1493 N   0  0  0  0  0  0  0  0  0  0  0  0
   25.0338  -20.3254  -16.4422 C   0  0  0  0  0  0  0  0  0  0  0  0
   25.6712  -19.6456  -17.4824 O   0  0  0  0  0  0  0  0  0  0  0  0
   23.7928  -20.4557  -16.5851 O   0  0  0  0  0  0  0  0  0  0  0  0
  2  1  1  0
  3  2  2  0
  4  3  1  0
  5  4  2  0
  5 11  1  0
  6  7  1  0
  6  5  1  0
  7  9  1  0
  7  8  1  6
  9 10  2  0
 11 12  2  0
 12  2  1  0
 14 13  1  1
 15 14  1  0
 16 14  1  0
 17 16  1  1
 18 17  1  0
 18  9  1  0
 19 17  1  0
 19 20  2  0
 21 22  1  0
 22 24  1  0
 23 22  2  0
 24 25  1  0
 26 25  1  6
 26 28  1  0
 26 27  1  0
 27 19  1  0
 28 29  1  0
 30 28  2  0
M  END
$$$$
