YLQ.pdb
     RDKit          3D

 30 30  0  0  1  0  0  0  0  0999 V2000
   29.3033  -20.4921   -3.7726 O   0  0  0  0  0  0  0  0  0  0  0  0
   28.5566  -20.2935   -4.9409 C   0  0  0  0  0  0  0  0  0  0  0  0
   28.9236  -19.3387   -5.8699 C   0  0  0  0  0  0  0  0  0  0  0  0
   28.1538  -19.1821   -7.0057 C   0  0  0  0  0  0  0  0  0  0  0  0
   27.0348  -19.9345   -7.2568 C   0  0  0  0  0  0  0  0  0  0  0  0
   26.2251  -19.7469   -8.4843 C   0  0  0  0  0  0  0  0  0  0  0  0
   26.6522  -20.8579   -9.4517 C   0  0  2  0  0  0  0  0  0  0  0  0
   28.0850  -20.8617   -9.4713 N   0  0  0  0  0  0  0  0  0  0  0  0
   26.0613  -20.6374  -10.7945 C   0  0  0  0  0  0  0  0  0  0  0  0
   26.5168  -19.7741  -11.5714 O   0  0  0  0  0  0  0  0  0  0  0  0
   26.6796  -20.8852   -6.3198 C   0  0  0  0  0  0  0  0  0  0  0  0
   27.4376  -21.0620   -5.1691 C   0  0  0  0  0  0  0  0  0  0  0  0
   26.3750  -22.0663  -14.8788 C   0  0  0  0  0  0  0  0  0  0  0  0
   25.7853  -22.9492  -13.8514 C   0  0  2  0  0  0  0  0  0  0  0  0
   25.5313  -24.3221  -14.5233 C   0  0  0  0  0  0  0  0  0  0  0  0
   24.5335  -22.5710  -13.1975 C   0  0  0  0  0  0  0  0  0  0  0  0
   24.3385  -21.2507  -12.5639 C   0  0  2  0  0  0  0  0  0  0  0  0
   24.9599  -21.4214  -11.2013 N   0  0  0  0  0  0  0  0  0  0  0  0
   22.9871  -20.8078  -12.2653 C   0  0  0  0  0  0  0  0  0  0  0  0
   22.3693  -21.2789  -11.2777 O   0  0  0  0  0  0  0  0  0  0  0  0
   19.7306  -15.9419  -14.8196 N   0  0  0  0  0  0  0  0  0  0  0  0
   18.8428  -16.4303  -13.8241 C   0  0  0  0  0  0  0  0  0  0  0  0
   17.7938  -15.7871  -13.6110 O   0  0  0  0  0  0  0  0  0  0  0  0
   19.2224  -17.6677  -13.1065 C   0  0  0  0  0  0  0  0  0  0  0  0
   20.5741  -18.2048  -13.4587 C   0  0  0  0  0  0  0  0  0  0  0  0
   20.9421  -19.4497  -12.6631 C   0  0  2  0  0  0  0  0  0  0  0  0
   22.3140  -19.8415  -13.0382 N   0  0  0  0  0  0  0  0  0  0  0  0
   19.9865  -20.5136  -12.9531 C   0  0  0  0  0  0  0  0  0  0  0  0
   18.8172  -20.7088  -12.2148 O   0  0  0  0  0  0  0  0  0  0  0  0
   20.1557  -21.3312  -13.8914 O   0  0  0  0  0  0  0  0  0  0  0  0
  2  1  1  0
  3  2  2  0
  4  3  1  0
  5  4  2  0
  5 11  1  0
  6  7  1  0
  6  5  1  0
  7  9  1  0
  7  8  1  6
  9 10  2  0
 11 12  2  0
 12  2  1  0
 14 13  1  6
 15 14  1  0
 16 14  1  0
 17 16  1  1
 18 17  1  0
 18  9  1  0
 19 17  1  0
 19 20  2  0
 21 22  1  0
 22 24  1  0
 23 22  2  0
 24 25  1  0
 26 25  1  6
 26 28  1  0
 26 27  1  0
 27 19  1  0
 28 29  1  0
 30 28  2  0
M  END
$$$$
