YLQ.pdb
     RDKit          3D

 30 30  0  0  1  0  0  0  0  0999 V2000
   27.4942  -12.8624  -17.0923 O   0  0  0  0  0  0  0  0  0  0  0  0
   26.7285  -13.9935  -16.7818 C   0  0  0  0  0  0  0  0  0  0  0  0
   26.0991  -14.7240  -17.7716 C   0  0  0  0  0  0  0  0  0  0  0  0
   25.3557  -15.8313  -17.4133 C   0  0  0  0  0  0  0  0  0  0  0  0
   25.2115  -16.2427  -16.1128 C   0  0  0  0  0  0  0  0  0  0  0  0
   24.4076  -17.4356  -15.7542 C   0  0  0  0  0  0  0  0  0  0  0  0
   25.4070  -18.4961  -15.2754 C   0  0  2  0  0  0  0  0  0  0  0  0
   26.1774  -18.8853  -16.4192 N   0  0  0  0  0  0  0  0  0  0  0  0
   24.6972  -19.6373  -14.6472 C   0  0  0  0  0  0  0  0  0  0  0  0
   24.3229  -20.6195  -15.3191 O   0  0  0  0  0  0  0  0  0  0  0  0
   25.8460  -15.5033  -15.1337 C   0  0  0  0  0  0  0  0  0  0  0  0
   26.5996  -14.3853  -15.4686 C   0  0  0  0  0  0  0  0  0  0  0  0
   26.0726  -22.6131  -11.0575 C   0  0  0  0  0  0  0  0  0  0  0  0
   25.7317  -21.1866  -10.8797 C   0  0  2  0  0  0  0  0  0  0  0  0
   25.9799  -20.8423   -9.3894 C   0  0  0  0  0  0  0  0  0  0  0  0
   24.3839  -20.7151  -11.1940 C   0  0  0  0  0  0  0  0  0  0  0  0
   23.8167  -20.7892  -12.5561 C   0  0  2  0  0  0  0  0  0  0  0  0
   24.4399  -19.6107  -13.2592 N   0  0  0  0  0  0  0  0  0  0  0  0
   22.3908  -20.5738  -12.7358 C   0  0  0  0  0  0  0  0  0  0  0  0
   21.8407  -19.5467  -12.2653 O   0  0  0  0  0  0  0  0  0  0  0  0
   19.1385  -20.8053  -17.7628 N   0  0  0  0  0  0  0  0  0  0  0  0
   18.0761  -20.6767  -16.8286 C   0  0  0  0  0  0  0  0  0  0  0  0
   16.9237  -20.4993  -17.2760 O   0  0  0  0  0  0  0  0  0  0  0  0
   18.4078  -20.7604  -15.3888 C   0  0  0  0  0  0  0  0  0  0  0  0
   19.8478  -21.0420  -15.0945 C   0  0  0  0  0  0  0  0  0  0  0  0
   20.1353  -21.1599  -13.6041 C   0  0  2  0  0  0  0  0  0  0  0  0
   21.5672  -21.4743  -13.4393 N   0  0  0  0  0  0  0  0  0  0  0  0
   19.2919  -22.2008  -13.0258 C   0  0  0  0  0  0  0  0  0  0  0  0
   17.9933  -21.9627  -12.5702 O   0  0  0  0  0  0  0  0  0  0  0  0
   19.6824  -23.3875  -12.8968 O   0  0  0  0  0  0  0  0  0  0  0  0
  2  1  1  0
  3  2  2  0
  4  3  1  0
  5  4  2  0
  5 11  1  0
  6  7  1  0
  6  5  1  0
  7  9  1  0
  7  8  1  6
  9 10  2  0
 11 12  2  0
 12  2  1  0
 14 13  1  1
 15 14  1  0
 16 14  1  0
 17 16  1  1
 18 17  1  0
 18  9  1  0
 19 17  1  0
 19 20  2  0
 21 22  1  0
 22 24  1  0
 23 22  2  0
 24 25  1  0
 26 25  1  6
 26 28  1  0
 26 27  1  0
 27 19  1  0
 28 29  1  0
 30 28  2  0
M  END
$$$$
