YLQ.pdb
     RDKit          3D

 30 30  0  0  1  0  0  0  0  0999 V2000
   24.9339  -14.8743  -20.2992 O   0  0  0  0  0  0  0  0  0  0  0  0
   24.4390  -15.8547  -19.4297 C   0  0  0  0  0  0  0  0  0  0  0  0
   24.2987  -15.6057  -18.0778 C   0  0  0  0  0  0  0  0  0  0  0  0
   23.8060  -16.6058  -17.2627 C   0  0  0  0  0  0  0  0  0  0  0  0
   23.4471  -17.8425  -17.7350 C   0  0  0  0  0  0  0  0  0  0  0  0
   22.9204  -18.8996  -16.8388 C   0  0  0  0  0  0  0  0  0  0  0  0
   24.1195  -19.4106  -16.0303 C   0  0  2  0  0  0  0  0  0  0  0  0
   25.0285  -20.0021  -16.9668 N   0  0  0  0  0  0  0  0  0  0  0  0
   23.6757  -20.3629  -14.9828 C   0  0  0  0  0  0  0  0  0  0  0  0
   23.2748  -21.5080  -15.2729 O   0  0  0  0  0  0  0  0  0  0  0  0
   23.5925  -18.0776  -19.0883 C   0  0  0  0  0  0  0  0  0  0  0  0
   24.0859  -17.0878  -19.9291 C   0  0  0  0  0  0  0  0  0  0  0  0
   25.9583  -22.1683  -11.2911 C   0  0  0  0  0  0  0  0  0  0  0  0
   25.4789  -20.7710  -11.3099 C   0  0  2  0  0  0  0  0  0  0  0  0
   26.0006  -20.0939  -10.0176 C   0  0  0  0  0  0  0  0  0  0  0  0
   24.0446  -20.4939  -11.3718 C   0  0  0  0  0  0  0  0  0  0  0  0
   23.2142  -20.8736  -12.5331 C   0  0  2  0  0  0  0  0  0  0  0  0
   23.7081  -19.9641  -13.6288 N   0  0  0  0  0  0  0  0  0  0  0  0
   21.7861  -20.6077  -12.4923 C   0  0  0  0  0  0  0  0  0  0  0  0
   21.3466  -19.4623  -12.7637 O   0  0  0  0  0  0  0  0  0  0  0  0
   19.4276  -21.2003  -16.9516 N   0  0  0  0  0  0  0  0  0  0  0  0
   18.1676  -21.2655  -16.2989 C   0  0  0  0  0  0  0  0  0  0  0  0
   17.1406  -21.2465  -17.0091 O   0  0  0  0  0  0  0  0  0  0  0  0
   18.1581  -21.3500  -14.8214 C   0  0  0  0  0  0  0  0  0  0  0  0
   19.5139  -21.3912  -14.1891 C   0  0  0  0  0  0  0  0  0  0  0  0
   19.4563  -21.4595  -12.6692 C   0  0  2  0  0  0  0  0  0  0  0  0
   20.8364  -21.5957  -12.1662 N   0  0  0  0  0  0  0  0  0  0  0  0
   18.6278  -22.5900  -12.2632 C   0  0  0  0  0  0  0  0  0  0  0  0
   19.1573  -23.8302  -11.9000 O   0  0  0  0  0  0  0  0  0  0  0  0
   17.3746  -22.5218  -12.2158 O   0  0  0  0  0  0  0  0  0  0  0  0
  2  1  1  0
  3  2  2  0
  4  3  1  0
  5  4  2  0
  5 11  1  0
  6  7  1  0
  6  5  1  0
  7  9  1  0
  7  8  1  6
  9 10  2  0
 11 12  2  0
 12  2  1  0
 14 13  1  1
 15 14  1  0
 16 14  1  0
 17 16  1  1
 18 17  1  0
 18  9  1  0
 19 17  1  0
 19 20  2  0
 21 22  1  0
 22 24  1  0
 23 22  2  0
 24 25  1  0
 26 25  1  6
 26 28  1  0
 26 27  1  0
 27 19  1  0
 28 29  1  0
 30 28  2  0
M  END
$$$$
