FYD.pdb
     RDKit          3D

 32 33  0  0  1  0  0  0  0  0999 V2000
    7.3359  -15.6623   23.7541 N   0  0  0  0  0  0  0  0  0  0  0  0
    8.5779  -15.2887   24.3483 C   0  0  1  0  0  0  0  0  0  0  0  0
    8.3993  -15.1156   25.8317 C   0  0  0  0  0  0  0  0  0  0  0  0
    7.6907  -13.8150   26.0269 C   0  0  0  0  0  0  0  0  0  0  0  0
    6.6291  -13.4450   25.2181 C   0  0  0  0  0  0  0  0  0  0  0  0
    5.9601  -12.2499   25.3789 C   0  0  0  0  0  0  0  0  0  0  0  0
    6.3326  -11.3657   26.3696 C   0  0  0  0  0  0  0  0  0  0  0  0
    7.3879  -11.7264   27.1786 C   0  0  0  0  0  0  0  0  0  0  0  0
    8.0605  -12.9278   27.0170 C   0  0  0  0  0  0  0  0  0  0  0  0
    9.6343  -16.3023   24.0235 C   0  0  0  0  0  0  0  0  0  0  0  0
    9.6732  -17.3244   24.7312 O   0  0  0  0  0  0  0  0  0  0  0  0
   15.6218  -21.1700   19.9369 O   0  0  0  0  0  0  0  0  0  0  0  0
   14.8127  -20.0909   20.2952 C   0  0  0  0  0  0  0  0  0  0  0  0
   13.4562  -20.1645   20.0960 C   0  0  0  0  0  0  0  0  0  0  0  0
   12.6160  -19.1221   20.4349 C   0  0  0  0  0  0  0  0  0  0  0  0
   13.1603  -17.9733   20.9902 C   0  0  0  0  0  0  0  0  0  0  0  0
   12.2548  -16.8524   21.3550 C   0  0  0  0  0  0  0  0  0  0  0  0
   11.5873  -17.0466   22.6695 C   0  0  2  0  0  0  0  0  0  0  0  0
   10.5450  -16.1173   22.9696 N   0  0  0  0  0  0  0  0  0  0  0  0
   12.5236  -17.3293   23.7977 C   0  0  0  0  0  0  0  0  0  0  0  0
   13.1019  -16.4265   24.4486 O   0  0  0  0  0  0  0  0  0  0  0  0
   14.5369  -17.8983   21.1924 C   0  0  0  0  0  0  0  0  0  0  0  0
   15.3693  -18.9446   20.8509 C   0  0  0  0  0  0  0  0  0  0  0  0
   12.8174  -18.6605   24.2046 N   0  0  0  0  0  0  0  0  0  0  0  0
   13.7622  -18.9814   25.2566 C   0  0  1  0  0  0  0  0  0  0  0  0
   13.3131  -20.1605   26.0795 C   0  0  0  0  0  0  0  0  0  0  0  0
   12.1335  -19.8215   26.9010 C   0  0  0  0  0  0  0  0  0  0  0  0
   10.9967  -20.3438   26.7894 O   0  0  0  0  0  0  0  0  0  0  0  0
   15.0923  -19.1278   24.6521 C   0  0  0  0  0  0  0  0  0  0  0  0
   15.2744  -19.9364   23.5556 O   0  0  0  0  0  0  0  0  0  0  0  0
   12.2619  -18.8499   27.8844 O   0  0  0  0  0  0  0  0  0  0  0  0
   16.0663  -18.5187   25.1302 O   0  0  0  0  0  0  0  0  0  0  0  0
  2  1  1  1
  2  3  1  0
  3  4  1  0
  4  5  2  0
  5  6  1  0
  7  6  2  0
  8  7  1  0
  9  8  2  0
  9  4  1  0
 10  2  1  0
 11 10  2  0
 13 23  2  0
 13 12  1  0
 14 13  1  0
 15 16  1  0
 15 14  2  0
 16 22  2  0
 17 16  1  0
 18 19  1  0
 18 17  1  6
 19 10  1  0
 20 18  1  0
 21 20  2  0
 22 23  1  0
 24 20  1  0
 25 29  1  0
 25 24  1  0
 26 27  1  0
 25 26  1  6
 27 28  2  0
 29 30  1  0
 31 27  1  0
 32 29  2  0
M  END
$$$$
