FYD.pdb
     RDKit          3D

 32 33  0  0  1  0  0  0  0  0999 V2000
   10.8334  -16.3838   20.0607 N   0  0  0  0  0  0  0  0  0  0  0  0
    9.9846  -15.6452   20.9377 C   0  0  1  0  0  0  0  0  0  0  0  0
    8.5451  -15.9583   20.6341 C   0  0  0  0  0  0  0  0  0  0  0  0
    7.8546  -14.6473   20.4442 C   0  0  0  0  0  0  0  0  0  0  0  0
    6.4975  -14.5804   20.1757 C   0  0  0  0  0  0  0  0  0  0  0  0
    5.8387  -13.3824   19.9963 C   0  0  0  0  0  0  0  0  0  0  0  0
    6.5217  -12.1872   20.0797 C   0  0  0  0  0  0  0  0  0  0  0  0
    7.8722  -12.2451   20.3465 C   0  0  0  0  0  0  0  0  0  0  0  0
    8.5347  -13.4494   20.5269 C   0  0  0  0  0  0  0  0  0  0  0  0
   10.3344  -15.9372   22.3664 C   0  0  0  0  0  0  0  0  0  0  0  0
   11.1807  -16.8256   22.5706 O   0  0  0  0  0  0  0  0  0  0  0  0
   11.0877  -15.4376   31.1123 O   0  0  0  0  0  0  0  0  0  0  0  0
   10.6310  -15.2826   29.8028 C   0  0  0  0  0  0  0  0  0  0  0  0
   10.9861  -14.1652   29.0883 C   0  0  0  0  0  0  0  0  0  0  0  0
   10.5583  -13.9686   27.7899 C   0  0  0  0  0  0  0  0  0  0  0  0
    9.7495  -14.9266   27.1964 C   0  0  0  0  0  0  0  0  0  0  0  0
    9.2903  -14.7140   25.7987 C   0  0  0  0  0  0  0  0  0  0  0  0
   10.0861  -15.4777   24.8013 C   0  0  2  0  0  0  0  0  0  0  0  0
    9.7401  -15.2452   23.4352 N   0  0  0  0  0  0  0  0  0  0  0  0
   10.3086  -16.9099   25.1600 C   0  0  0  0  0  0  0  0  0  0  0  0
    9.3915  -17.7655   25.1580 O   0  0  0  0  0  0  0  0  0  0  0  0
    9.3889  -16.0607   27.9213 C   0  0  0  0  0  0  0  0  0  0  0  0
    9.8208  -16.2493   29.2182 C   0  0  0  0  0  0  0  0  0  0  0  0
   11.5945  -17.3926   25.5305 N   0  0  0  0  0  0  0  0  0  0  0  0
   11.8591  -18.7788   25.8636 C   0  0  1  0  0  0  0  0  0  0  0  0
   13.2532  -19.1973   25.4759 C   0  0  0  0  0  0  0  0  0  0  0  0
   13.4856  -19.0095   24.0296 C   0  0  0  0  0  0  0  0  0  0  0  0
   12.7032  -19.3705   23.1158 O   0  0  0  0  0  0  0  0  0  0  0  0
   11.5303  -18.9828   27.2801 C   0  0  0  0  0  0  0  0  0  0  0  0
   11.9554  -18.0856   28.2306 O   0  0  0  0  0  0  0  0  0  0  0  0
   14.6554  -18.3860   23.6169 O   0  0  0  0  0  0  0  0  0  0  0  0
   10.8623  -19.9725   27.6301 O   0  0  0  0  0  0  0  0  0  0  0  0
  2  1  1  6
  2  3  1  0
  3  4  1  0
  4  5  2  0
  5  6  1  0
  7  6  2  0
  8  7  1  0
  9  8  2  0
  9  4  1  0
 10  2  1  0
 11 10  2  0
 13 23  2  0
 13 12  1  0
 14 13  1  0
 15 16  1  0
 15 14  2  0
 16 22  2  0
 17 16  1  0
 18 19  1  0
 18 17  1  1
 19 10  1  0
 20 18  1  0
 21 20  2  0
 22 23  1  0
 24 20  1  0
 25 29  1  0
 25 24  1  0
 26 27  1  0
 25 26  1  1
 27 28  2  0
 29 30  1  0
 31 27  1  0
 32 29  2  0
M  END
$$$$
