FYD.pdb
     RDKit          3D

 32 33  0  0  1  0  0  0  0  0999 V2000
    6.5363  -18.3132   25.9186 N   0  0  0  0  0  0  0  0  0  0  0  0
    6.8007  -16.9174   25.7882 C   0  0  1  0  0  0  0  0  0  0  0  0
    7.6540  -16.4528   26.9363 C   0  0  0  0  0  0  0  0  0  0  0  0
    7.6204  -14.9594   26.9154 C   0  0  0  0  0  0  0  0  0  0  0  0
    6.4229  -14.2653   26.9637 C   0  0  0  0  0  0  0  0  0  0  0  0
    6.3670  -12.8877   26.9452 C   0  0  0  0  0  0  0  0  0  0  0  0
    7.5237  -12.1398   26.8768 C   0  0  0  0  0  0  0  0  0  0  0  0
    8.7193  -12.8228   26.8284 C   0  0  0  0  0  0  0  0  0  0  0  0
    8.7757  -14.2078   26.8470 C   0  0  0  0  0  0  0  0  0  0  0  0
    7.4389  -16.6318   24.4615 C   0  0  0  0  0  0  0  0  0  0  0  0
    8.1677  -17.5187   23.9826 O   0  0  0  0  0  0  0  0  0  0  0  0
    8.5289  -13.5928   16.3319 O   0  0  0  0  0  0  0  0  0  0  0  0
    8.2251  -13.6519   17.6926 C   0  0  0  0  0  0  0  0  0  0  0  0
    7.3601  -14.6135   18.1535 C   0  0  0  0  0  0  0  0  0  0  0  0
    7.0298  -14.7106   19.4909 C   0  0  0  0  0  0  0  0  0  0  0  0
    7.5881  -13.8120   20.3882 C   0  0  0  0  0  0  0  0  0  0  0  0
    7.2321  -13.9182   21.8275 C   0  0  0  0  0  0  0  0  0  0  0  0
    7.6977  -15.1853   22.4510 C   0  0  2  0  0  0  0  0  0  0  0  0
    7.2306  -15.4207   23.7801 N   0  0  0  0  0  0  0  0  0  0  0  0
    9.1438  -15.4836   22.2292 C   0  0  0  0  0  0  0  0  0  0  0  0
    9.7150  -15.3152   21.1254 O   0  0  0  0  0  0  0  0  0  0  0  0
    8.4659  -12.8360   19.9208 C   0  0  0  0  0  0  0  0  0  0  0  0
    8.7906  -12.7460   18.5826 C   0  0  0  0  0  0  0  0  0  0  0  0
    9.9688  -15.9839   23.2747 N   0  0  0  0  0  0  0  0  0  0  0  0
   11.3843  -16.2529   23.1125 C   0  0  1  0  0  0  0  0  0  0  0  0
   12.1312  -15.0547   22.5878 C   0  0  0  0  0  0  0  0  0  0  0  0
   12.9730  -15.4143   21.4288 C   0  0  0  0  0  0  0  0  0  0  0  0
   12.9193  -14.8730   20.2968 O   0  0  0  0  0  0  0  0  0  0  0  0
   11.8992  -16.7889   24.3790 C   0  0  0  0  0  0  0  0  0  0  0  0
   11.0713  -16.9199   25.4683 O   0  0  0  0  0  0  0  0  0  0  0  0
   13.9088  -16.4297   21.5732 O   0  0  0  0  0  0  0  0  0  0  0  0
   13.0923  -17.1290   24.4743 O   0  0  0  0  0  0  0  0  0  0  0  0
  2  1  1  1
  2  3  1  0
  3  4  1  0
  4  5  2  0
  5  6  1  0
  7  6  2  0
  8  7  1  0
  9  8  2  0
  9  4  1  0
 10  2  1  0
 11 10  2  0
 13 23  2  0
 13 12  1  0
 14 13  1  0
 15 16  1  0
 15 14  2  0
 16 22  2  0
 17 16  1  0
 18 19  1  0
 18 17  1  1
 19 10  1  0
 20 18  1  0
 21 20  2  0
 22 23  1  0
 24 20  1  0
 25 29  1  0
 25 24  1  0
 26 27  1  0
 25 26  1  1
 27 28  2  0
 29 30  1  0
 31 27  1  0
 32 29  2  0
M  END
$$$$
