FYD.pdb
     RDKit          3D

 32 33  0  0  1  0  0  0  0  0999 V2000
    6.8228  -17.2394   26.2141 N   0  0  0  0  0  0  0  0  0  0  0  0
    6.6131  -16.8016   24.8726 C   0  0  1  0  0  0  0  0  0  0  0  0
    5.8366  -15.5134   24.8744 C   0  0  0  0  0  0  0  0  0  0  0  0
    6.5768  -14.5708   25.7663 C   0  0  0  0  0  0  0  0  0  0  0  0
    6.6085  -13.2104   25.5084 C   0  0  0  0  0  0  0  0  0  0  0  0
    7.2851  -12.3214   26.3167 C   0  0  0  0  0  0  0  0  0  0  0  0
    7.9661  -12.7651   27.4308 C   0  0  0  0  0  0  0  0  0  0  0  0
    7.9394  -14.1172   27.6945 C   0  0  0  0  0  0  0  0  0  0  0  0
    7.2593  -15.0111   26.8819 C   0  0  0  0  0  0  0  0  0  0  0  0
    7.9255  -16.6663   24.1596 C   0  0  0  0  0  0  0  0  0  0  0  0
    8.6294  -17.6881   24.0732 O   0  0  0  0  0  0  0  0  0  0  0  0
    6.7135  -14.1022   17.3109 O   0  0  0  0  0  0  0  0  0  0  0  0
    7.4645  -14.1141   18.4869 C   0  0  0  0  0  0  0  0  0  0  0  0
    7.3892  -13.0495   19.3508 C   0  0  0  0  0  0  0  0  0  0  0  0
    8.1137  -13.0168   20.5261 C   0  0  0  0  0  0  0  0  0  0  0  0
    8.9374  -14.0886   20.8380 C   0  0  0  0  0  0  0  0  0  0  0  0
    9.7161  -14.0523   22.1036 C   0  0  0  0  0  0  0  0  0  0  0  0
    9.5852  -15.2984   22.9044 C   0  0  2  0  0  0  0  0  0  0  0  0
    8.3519  -15.4456   23.6097 N   0  0  0  0  0  0  0  0  0  0  0  0
   10.8053  -15.6563   23.6871 C   0  0  0  0  0  0  0  0  0  0  0  0
   11.1287  -15.0773   24.7516 O   0  0  0  0  0  0  0  0  0  0  0  0
    9.0141  -15.1690   19.9615 C   0  0  0  0  0  0  0  0  0  0  0  0
    8.2866  -15.1936   18.7892 C   0  0  0  0  0  0  0  0  0  0  0  0
   11.6842  -16.6912   23.2625 N   0  0  0  0  0  0  0  0  0  0  0  0
   12.8742  -17.0763   23.9960 C   0  0  1  0  0  0  0  0  0  0  0  0
   12.9018  -18.5526   24.2939 C   0  0  0  0  0  0  0  0  0  0  0  0
   12.8632  -19.3500   23.0515 C   0  0  0  0  0  0  0  0  0  0  0  0
   12.1417  -19.1042   22.0533 O   0  0  0  0  0  0  0  0  0  0  0  0
   14.0466  -16.5769   23.2665 C   0  0  0  0  0  0  0  0  0  0  0  0
   13.9504  -16.2449   21.9362 O   0  0  0  0  0  0  0  0  0  0  0  0
   13.6802  -20.4680   22.9502 O   0  0  0  0  0  0  0  0  0  0  0  0
   15.1383  -16.4506   23.8500 O   0  0  0  0  0  0  0  0  0  0  0  0
  2  1  1  1
  2  3  1  0
  3  4  1  0
  4  5  2  0
  5  6  1  0
  7  6  2  0
  8  7  1  0
  9  8  2  0
  9  4  1  0
 10  2  1  0
 11 10  2  0
 13 23  2  0
 13 12  1  0
 14 13  1  0
 15 16  1  0
 15 14  2  0
 16 22  2  0
 17 16  1  0
 18 19  1  0
 18 17  1  1
 19 10  1  0
 20 18  1  0
 21 20  2  0
 22 23  1  0
 24 20  1  0
 25 29  1  0
 25 24  1  0
 26 27  1  0
 25 26  1  6
 27 28  2  0
 29 30  1  0
 31 27  1  0
 32 29  2  0
M  END
$$$$
