FYD.pdb
     RDKit          3D

 32 33  0  0  1  0  0  0  0  0999 V2000
    7.2353  -17.6286   27.6094 N   0  0  0  0  0  0  0  0  0  0  0  0
    6.8096  -17.2717   26.2953 C   0  0  1  0  0  0  0  0  0  0  0  0
    6.1612  -15.9148   26.3226 C   0  0  0  0  0  0  0  0  0  0  0  0
    7.2257  -14.9415   26.7115 C   0  0  0  0  0  0  0  0  0  0  0  0
    7.5290  -13.8499   25.9149 C   0  0  0  0  0  0  0  0  0  0  0  0
    8.5073  -12.9386   26.2527 C   0  0  0  0  0  0  0  0  0  0  0  0
    9.2306  -13.0860   27.4176 C   0  0  0  0  0  0  0  0  0  0  0  0
    8.9349  -14.1695   28.2157 C   0  0  0  0  0  0  0  0  0  0  0  0
    7.9515  -15.0857   27.8762 C   0  0  0  0  0  0  0  0  0  0  0  0
    7.9669  -17.3230   25.3430 C   0  0  0  0  0  0  0  0  0  0  0  0
    9.1028  -17.1680   25.8255 O   0  0  0  0  0  0  0  0  0  0  0  0
    8.2301  -12.0724   18.4380 O   0  0  0  0  0  0  0  0  0  0  0  0
    7.9730  -12.8826   19.5447 C   0  0  0  0  0  0  0  0  0  0  0  0
    7.3748  -14.1055   19.3658 C   0  0  0  0  0  0  0  0  0  0  0  0
    7.1008  -14.9413   20.4306 C   0  0  0  0  0  0  0  0  0  0  0  0
    7.4401  -14.5312   21.7116 C   0  0  0  0  0  0  0  0  0  0  0  0
    7.1452  -15.4320   22.8566 C   0  0  0  0  0  0  0  0  0  0  0  0
    8.1120  -16.5553   22.9785 C   0  0  2  0  0  0  0  0  0  0  0  0
    7.7891  -17.5359   23.9655 N   0  0  0  0  0  0  0  0  0  0  0  0
    9.5451  -16.1376   22.9503 C   0  0  0  0  0  0  0  0  0  0  0  0
    9.9399  -15.0211   23.3633 O   0  0  0  0  0  0  0  0  0  0  0  0
    8.0471  -13.2903   21.8934 C   0  0  0  0  0  0  0  0  0  0  0  0
    8.3174  -12.4613   20.8239 C   0  0  0  0  0  0  0  0  0  0  0  0
   10.5604  -16.9967   22.4451 N   0  0  0  0  0  0  0  0  0  0  0  0
   11.9567  -16.6153   22.3600 C   0  0  1  0  0  0  0  0  0  0  0  0
   12.8698  -17.6906   22.8880 C   0  0  0  0  0  0  0  0  0  0  0  0
   12.5304  -18.0444   24.2811 C   0  0  0  0  0  0  0  0  0  0  0  0
   12.5924  -17.2647   25.2638 O   0  0  0  0  0  0  0  0  0  0  0  0
   12.2365  -16.1974   20.9804 C   0  0  0  0  0  0  0  0  0  0  0  0
   11.3323  -16.4536   19.9775 O   0  0  0  0  0  0  0  0  0  0  0  0
   12.1050  -19.3369   24.5568 O   0  0  0  0  0  0  0  0  0  0  0  0
   13.2976  -15.6066   20.7097 O   0  0  0  0  0  0  0  0  0  0  0  0
  2  1  1  1
  2  3  1  0
  3  4  1  0
  4  5  2  0
  5  6  1  0
  7  6  2  0
  8  7  1  0
  9  8  2  0
  9  4  1  0
 10  2  1  0
 11 10  2  0
 13 23  2  0
 13 12  1  0
 14 13  1  0
 15 16  1  0
 15 14  2  0
 16 22  2  0
 17 16  1  0
 18 19  1  0
 18 17  1  1
 19 10  1  0
 20 18  1  0
 21 20  2  0
 22 23  1  0
 24 20  1  0
 25 29  1  0
 25 24  1  0
 26 27  1  0
 25 26  1  6
 27 28  2  0
 29 30  1  0
 31 27  1  0
 32 29  2  0
M  END
$$$$
