FYD.pdb
     RDKit          3D

 32 33  0  0  1  0  0  0  0  0999 V2000
    6.6136  -18.2500   26.3546 N   0  0  0  0  0  0  0  0  0  0  0  0
    6.7907  -16.8564   26.1061 C   0  0  1  0  0  0  0  0  0  0  0  0
    7.6610  -16.2565   27.1761 C   0  0  0  0  0  0  0  0  0  0  0  0
    7.5031  -14.7746   27.0728 C   0  0  0  0  0  0  0  0  0  0  0  0
    6.2568  -14.1929   26.9092 C   0  0  0  0  0  0  0  0  0  0  0  0
    6.0864  -12.8280   26.8112 C   0  0  0  0  0  0  0  0  0  0  0  0
    7.1718  -11.9796   26.8739 C   0  0  0  0  0  0  0  0  0  0  0  0
    8.4152  -12.5504   27.0367 C   0  0  0  0  0  0  0  0  0  0  0  0
    8.5867  -13.9225   27.1353 C   0  0  0  0  0  0  0  0  0  0  0  0
    7.3572  -16.6417   24.7342 C   0  0  0  0  0  0  0  0  0  0  0  0
    8.1897  -17.4729   24.3304 O   0  0  0  0  0  0  0  0  0  0  0  0
    8.9756  -13.4595   16.7133 O   0  0  0  0  0  0  0  0  0  0  0  0
    8.5074  -13.6143   18.0187 C   0  0  0  0  0  0  0  0  0  0  0  0
    8.8176  -12.6710   18.9671 C   0  0  0  0  0  0  0  0  0  0  0  0
    8.3769  -12.7818   20.2712 C   0  0  0  0  0  0  0  0  0  0  0  0
    7.6014  -13.8753   20.6281 C   0  0  0  0  0  0  0  0  0  0  0  0
    7.1272  -13.9929   22.0319 C   0  0  0  0  0  0  0  0  0  0  0  0
    7.6491  -15.2012   22.7240 C   0  0  2  0  0  0  0  0  0  0  0  0
    6.9728  -15.5544   23.9315 N   0  0  0  0  0  0  0  0  0  0  0  0
    9.1388  -15.2748   22.7914 C   0  0  0  0  0  0  0  0  0  0  0  0
    9.8204  -14.6034   23.6025 O   0  0  0  0  0  0  0  0  0  0  0  0
    7.2865  -14.8326   19.6659 C   0  0  0  0  0  0  0  0  0  0  0  0
    7.7309  -14.7142   18.3649 C   0  0  0  0  0  0  0  0  0  0  0  0
    9.8814  -16.1245   21.9251 N   0  0  0  0  0  0  0  0  0  0  0  0
   11.3291  -16.2038   21.9361 C   0  0  1  0  0  0  0  0  0  0  0  0
   11.8176  -17.6286   21.9188 C   0  0  0  0  0  0  0  0  0  0  0  0
   11.8087  -18.2138   23.2748 C   0  0  0  0  0  0  0  0  0  0  0  0
   12.2372  -17.6495   24.3118 O   0  0  0  0  0  0  0  0  0  0  0  0
   11.8444  -15.3666   20.8453 C   0  0  0  0  0  0  0  0  0  0  0  0
   11.3228  -15.4740   19.5782 O   0  0  0  0  0  0  0  0  0  0  0  0
   11.2905  -19.4902   23.4474 O   0  0  0  0  0  0  0  0  0  0  0  0
   12.7595  -14.5519   21.0619 O   0  0  0  0  0  0  0  0  0  0  0  0
  2  1  1  1
  2  3  1  0
  3  4  1  0
  4  5  2  0
  5  6  1  0
  7  6  2  0
  8  7  1  0
  9  8  2  0
  9  4  1  0
 10  2  1  0
 11 10  2  0
 13 23  2  0
 13 12  1  0
 14 13  1  0
 15 16  1  0
 15 14  2  0
 16 22  2  0
 17 16  1  0
 18 19  1  0
 18 17  1  1
 19 10  1  0
 20 18  1  0
 21 20  2  0
 22 23  1  0
 24 20  1  0
 25 29  1  0
 25 24  1  0
 26 27  1  0
 25 26  1  6
 27 28  2  0
 29 30  1  0
 31 27  1  0
 32 29  2  0
M  END
$$$$
