FYD.pdb
     RDKit          3D

 32 33  0  0  1  0  0  0  0  0999 V2000
    9.6650  -17.5621   19.6662 N   0  0  0  0  0  0  0  0  0  0  0  0
    9.2501  -16.4062   20.3922 C   0  0  1  0  0  0  0  0  0  0  0  0
    7.7811  -16.1693   20.1733 C   0  0  0  0  0  0  0  0  0  0  0  0
    7.5445  -14.7131   20.4081 C   0  0  0  0  0  0  0  0  0  0  0  0
    6.7353  -14.2725   21.4422 C   0  0  0  0  0  0  0  0  0  0  0  0
    6.5020  -12.9341   21.6781 C   0  0  0  0  0  0  0  0  0  0  0  0
    7.0775  -11.9703   20.8770 C   0  0  0  0  0  0  0  0  0  0  0  0
    7.8839  -12.4002   19.8460 C   0  0  0  0  0  0  0  0  0  0  0  0
    8.1186  -13.7458   19.6087 C   0  0  0  0  0  0  0  0  0  0  0  0
    9.5848  -16.5587   21.8461 C   0  0  0  0  0  0  0  0  0  0  0  0
   10.3831  -17.4627   22.1502 O   0  0  0  0  0  0  0  0  0  0  0  0
   10.7175  -14.7865   30.3870 O   0  0  0  0  0  0  0  0  0  0  0  0
   10.1950  -14.8484   29.0945 C   0  0  0  0  0  0  0  0  0  0  0  0
   10.3124  -13.7623   28.2626 C   0  0  0  0  0  0  0  0  0  0  0  0
    9.8111  -13.7771   26.9758 C   0  0  0  0  0  0  0  0  0  0  0  0
    9.1735  -14.9200   26.5160 C   0  0  0  0  0  0  0  0  0  0  0  0
    8.6349  -14.9347   25.1306 C   0  0  0  0  0  0  0  0  0  0  0  0
    9.4826  -15.7072   24.1840 C   0  0  2  0  0  0  0  0  0  0  0  0
    9.0282  -15.7241   22.8300 N   0  0  0  0  0  0  0  0  0  0  0  0
    9.9454  -17.0257   24.7099 C   0  0  0  0  0  0  0  0  0  0  0  0
    9.1734  -17.9967   24.8955 O   0  0  0  0  0  0  0  0  0  0  0  0
    9.0542  -16.0223   27.3599 C   0  0  0  0  0  0  0  0  0  0  0  0
    9.5581  -15.9991   28.6444 C   0  0  0  0  0  0  0  0  0  0  0  0
   11.3105  -17.2589   25.0355 N   0  0  0  0  0  0  0  0  0  0  0  0
   11.8022  -18.5227   25.5487 C   0  0  1  0  0  0  0  0  0  0  0  0
   13.1038  -18.9258   24.9066 C   0  0  0  0  0  0  0  0  0  0  0  0
   12.8743  -19.7625   23.7114 C   0  0  0  0  0  0  0  0  0  0  0  0
   11.7496  -20.1100   23.2736 O   0  0  0  0  0  0  0  0  0  0  0  0
   11.8421  -18.4403   27.0142 C   0  0  0  0  0  0  0  0  0  0  0  0
   11.5904  -19.5522   27.7820 O   0  0  0  0  0  0  0  0  0  0  0  0
   13.9726  -20.2162   22.9935 O   0  0  0  0  0  0  0  0  0  0  0  0
   12.1050  -17.3597   27.5723 O   0  0  0  0  0  0  0  0  0  0  0  0
  2  1  1  6
  2  3  1  0
  3  4  1  0
  4  5  2  0
  5  6  1  0
  7  6  2  0
  8  7  1  0
  9  8  2  0
  9  4  1  0
 10  2  1  0
 11 10  2  0
 13 23  2  0
 13 12  1  0
 14 13  1  0
 15 16  1  0
 15 14  2  0
 16 22  2  0
 17 16  1  0
 18 19  1  0
 18 17  1  1
 19 10  1  0
 20 18  1  0
 21 20  2  0
 22 23  1  0
 24 20  1  0
 25 29  1  0
 25 24  1  0
 26 27  1  0
 25 26  1  6
 27 28  2  0
 29 30  1  0
 31 27  1  0
 32 29  2  0
M  END
$$$$
