FYD.pdb
     RDKit          3D

 32 33  0  0  1  0  0  0  0  0999 V2000
   10.1115  -17.2239   19.9094 N   0  0  0  0  0  0  0  0  0  0  0  0
    9.5298  -16.2227   20.7426 C   0  0  1  0  0  0  0  0  0  0  0  0
    8.0401  -16.1936   20.5371 C   0  0  0  0  0  0  0  0  0  0  0  0
    7.6550  -14.7556   20.4120 C   0  0  0  0  0  0  0  0  0  0  0  0
    7.7103  -14.0987   19.1940 C   0  0  0  0  0  0  0  0  0  0  0  0
    7.3604  -12.7722   19.0542 C   0  0  0  0  0  0  0  0  0  0  0  0
    6.9353  -12.0407   20.1432 C   0  0  0  0  0  0  0  0  0  0  0  0
    6.8774  -12.6869   21.3587 C   0  0  0  0  0  0  0  0  0  0  0  0
    7.2292  -14.0204   21.4994 C   0  0  0  0  0  0  0  0  0  0  0  0
    9.8951  -16.4645   22.1769 C   0  0  0  0  0  0  0  0  0  0  0  0
   10.8435  -17.2390   22.3954 O   0  0  0  0  0  0  0  0  0  0  0  0
   11.0202  -15.0391   30.7754 O   0  0  0  0  0  0  0  0  0  0  0  0
   10.4848  -15.0528   29.4868 C   0  0  0  0  0  0  0  0  0  0  0  0
   10.8263  -14.0619   28.5997 C   0  0  0  0  0  0  0  0  0  0  0  0
   10.3217  -14.0340   27.3144 C   0  0  0  0  0  0  0  0  0  0  0  0
    9.4481  -15.0341   26.9134 C   0  0  0  0  0  0  0  0  0  0  0  0
    8.9063  -15.0032   25.5296 C   0  0  0  0  0  0  0  0  0  0  0  0
    9.6987  -15.8231   24.5750 C   0  0  2  0  0  0  0  0  0  0  0  0
    9.2047  -15.8499   23.2351 N   0  0  0  0  0  0  0  0  0  0  0  0
   10.1305  -17.1468   25.1140 C   0  0  0  0  0  0  0  0  0  0  0  0
    9.3388  -18.1027   25.2942 O   0  0  0  0  0  0  0  0  0  0  0  0
    9.1014  -16.0398   27.8134 C   0  0  0  0  0  0  0  0  0  0  0  0
    9.6102  -16.0602   29.0959 C   0  0  0  0  0  0  0  0  0  0  0  0
   11.4867  -17.4026   25.4593 N   0  0  0  0  0  0  0  0  0  0  0  0
   11.9660  -18.6989   25.8977 C   0  0  1  0  0  0  0  0  0  0  0  0
   13.2590  -19.0806   25.2257 C   0  0  0  0  0  0  0  0  0  0  0  0
   13.0679  -20.2199   24.3057 C   0  0  0  0  0  0  0  0  0  0  0  0
   11.9925  -20.8473   24.1406 O   0  0  0  0  0  0  0  0  0  0  0  0
   12.0152  -18.6996   27.3652 C   0  0  0  0  0  0  0  0  0  0  0  0
   11.5952  -19.7982   28.0762 O   0  0  0  0  0  0  0  0  0  0  0  0
   14.1474  -20.6548   23.5487 O   0  0  0  0  0  0  0  0  0  0  0  0
   12.4389  -17.7020   27.9765 O   0  0  0  0  0  0  0  0  0  0  0  0
  2  1  1  6
  2  3  1  0
  3  4  1  0
  4  5  2  0
  5  6  1  0
  7  6  2  0
  8  7  1  0
  9  8  2  0
  9  4  1  0
 10  2  1  0
 11 10  2  0
 13 23  2  0
 13 12  1  0
 14 13  1  0
 15 16  1  0
 15 14  2  0
 16 22  2  0
 17 16  1  0
 18 19  1  0
 18 17  1  1
 19 10  1  0
 20 18  1  0
 21 20  2  0
 22 23  1  0
 24 20  1  0
 25 29  1  0
 25 24  1  0
 26 27  1  0
 25 26  1  6
 27 28  2  0
 29 30  1  0
 31 27  1  0
 32 29  2  0
M  END
$$$$
