FYD.pdb
     RDKit          3D

 32 33  0  0  1  0  0  0  0  0999 V2000
    5.6445  -18.0270   24.2203 N   0  0  0  0  0  0  0  0  0  0  0  0
    6.1961  -16.7372   24.4795 C   0  0  1  0  0  0  0  0  0  0  0  0
    6.2486  -16.4962   25.9632 C   0  0  0  0  0  0  0  0  0  0  0  0
    6.4957  -15.0346   26.1492 C   0  0  0  0  0  0  0  0  0  0  0  0
    5.5709  -14.0898   25.7366 C   0  0  0  0  0  0  0  0  0  0  0  0
    5.7771  -12.7358   25.8973 C   0  0  0  0  0  0  0  0  0  0  0  0
    6.9332  -12.2676   26.4857 C   0  0  0  0  0  0  0  0  0  0  0  0
    7.8583  -13.2012   26.8990 C   0  0  0  0  0  0  0  0  0  0  0  0
    7.6512  -14.5624   26.7375 C   0  0  0  0  0  0  0  0  0  0  0  0
    7.5475  -16.6128   23.8413 C   0  0  0  0  0  0  0  0  0  0  0  0
    8.1374  -17.6703   23.5570 O   0  0  0  0  0  0  0  0  0  0  0  0
    7.0432  -13.7224   17.0170 O   0  0  0  0  0  0  0  0  0  0  0  0
    7.6276  -13.7423   18.2840 C   0  0  0  0  0  0  0  0  0  0  0  0
    8.5677  -14.6975   18.5826 C   0  0  0  0  0  0  0  0  0  0  0  0
    9.1729  -14.7564   19.8226 C   0  0  0  0  0  0  0  0  0  0  0  0
    8.8193  -13.8253   20.7881 C   0  0  0  0  0  0  0  0  0  0  0  0
    9.4720  -13.8895   22.1220 C   0  0  0  0  0  0  0  0  0  0  0  0
    9.3141  -15.2112   22.7850 C   0  0  2  0  0  0  0  0  0  0  0  0
    8.1317  -15.3637   23.5715 N   0  0  0  0  0  0  0  0  0  0  0  0
   10.5622  -15.7348   23.4155 C   0  0  0  0  0  0  0  0  0  0  0  0
   11.7086  -15.4846   22.9726 O   0  0  0  0  0  0  0  0  0  0  0  0
    7.8653  -12.8559   20.4854 C   0  0  0  0  0  0  0  0  0  0  0  0
    7.2654  -12.8041   19.2437 C   0  0  0  0  0  0  0  0  0  0  0  0
   10.5207  -16.5605   24.5732 N   0  0  0  0  0  0  0  0  0  0  0  0
   11.6905  -17.2130   25.1284 C   0  0  1  0  0  0  0  0  0  0  0  0
   11.3611  -18.0082   26.3646 C   0  0  0  0  0  0  0  0  0  0  0  0
   11.0596  -17.1216   27.5066 C   0  0  0  0  0  0  0  0  0  0  0  0
   10.1280  -17.2919   28.3316 O   0  0  0  0  0  0  0  0  0  0  0  0
   12.3389  -17.9832   24.0596 C   0  0  0  0  0  0  0  0  0  0  0  0
   11.5877  -18.5721   23.0706 O   0  0  0  0  0  0  0  0  0  0  0  0
   11.8538  -16.0011   27.7096 O   0  0  0  0  0  0  0  0  0  0  0  0
   13.5768  -18.1082   24.0424 O   0  0  0  0  0  0  0  0  0  0  0  0
  2  1  1  1
  2  3  1  0
  3  4  1  0
  4  5  2  0
  5  6  1  0
  7  6  2  0
  8  7  1  0
  9  8  2  0
  9  4  1  0
 10  2  1  0
 11 10  2  0
 13 23  2  0
 13 12  1  0
 14 13  1  0
 15 16  1  0
 15 14  2  0
 16 22  2  0
 17 16  1  0
 18 19  1  0
 18 17  1  1
 19 10  1  0
 20 18  1  0
 21 20  2  0
 22 23  1  0
 24 20  1  0
 25 29  1  0
 25 24  1  0
 26 27  1  0
 25 26  1  1
 27 28  2  0
 29 30  1  0
 31 27  1  0
 32 29  2  0
M  END
$$$$
