FYD.pdb
     RDKit          3D

 32 33  0  0  1  0  0  0  0  0999 V2000
    5.4118  -17.7088   24.7390 N   0  0  0  0  0  0  0  0  0  0  0  0
    6.0273  -16.4381   24.9433 C   0  0  1  0  0  0  0  0  0  0  0  0
    6.2137  -16.1950   26.4159 C   0  0  0  0  0  0  0  0  0  0  0  0
    6.5755  -14.7535   26.5675 C   0  0  0  0  0  0  0  0  0  0  0  0
    7.8504  -14.3671   26.9463 C   0  0  0  0  0  0  0  0  0  0  0  0
    8.2074  -13.0433   27.0931 C   0  0  0  0  0  0  0  0  0  0  0  0
    7.2896  -12.0400   26.8633 C   0  0  0  0  0  0  0  0  0  0  0  0
    6.0189  -12.4160   26.4862 C   0  0  0  0  0  0  0  0  0  0  0  0
    5.6599  -13.7469   26.3385 C   0  0  0  0  0  0  0  0  0  0  0  0
    7.3231  -16.3623   24.1923 C   0  0  0  0  0  0  0  0  0  0  0  0
    7.9095  -17.4360   23.9677 O   0  0  0  0  0  0  0  0  0  0  0  0
    7.3590  -14.2565   16.8755 O   0  0  0  0  0  0  0  0  0  0  0  0
    7.8349  -14.1642   18.1841 C   0  0  0  0  0  0  0  0  0  0  0  0
    7.3230  -13.2083   19.0263 C   0  0  0  0  0  0  0  0  0  0  0  0
    7.7627  -13.0792   20.3291 C   0  0  0  0  0  0  0  0  0  0  0  0
    8.7467  -13.9390   20.7947 C   0  0  0  0  0  0  0  0  0  0  0  0
    9.2187  -13.7993   22.1973 C   0  0  0  0  0  0  0  0  0  0  0  0
    9.0635  -15.0470   22.9913 C   0  0  2  0  0  0  0  0  0  0  0  0
    7.8610  -15.1395   23.7565 N   0  0  0  0  0  0  0  0  0  0  0  0
   10.3010  -15.4765   23.7079 C   0  0  0  0  0  0  0  0  0  0  0  0
   10.7632  -14.8650   24.7006 O   0  0  0  0  0  0  0  0  0  0  0  0
    9.2664  -14.9092   19.9402 C   0  0  0  0  0  0  0  0  0  0  0  0
    8.8213  -15.0313   18.6398 C   0  0  0  0  0  0  0  0  0  0  0  0
   11.0377  -16.6225   23.2983 N   0  0  0  0  0  0  0  0  0  0  0  0
   12.3308  -16.9772   23.8502 C   0  0  1  0  0  0  0  0  0  0  0  0
   12.5681  -18.4645   23.8240 C   0  0  0  0  0  0  0  0  0  0  0  0
   11.8831  -19.1355   24.9472 C   0  0  0  0  0  0  0  0  0  0  0  0
   12.0866  -20.3176   25.3196 O   0  0  0  0  0  0  0  0  0  0  0  0
   13.3575  -16.1812   23.1660 C   0  0  0  0  0  0  0  0  0  0  0  0
   14.6374  -16.1189   23.6631 O   0  0  0  0  0  0  0  0  0  0  0  0
   10.9320  -18.4264   25.6684 O   0  0  0  0  0  0  0  0  0  0  0  0
   13.0745  -15.5559   22.1281 O   0  0  0  0  0  0  0  0  0  0  0  0
  2  1  1  1
  2  3  1  0
  3  4  1  0
  4  5  2  0
  5  6  1  0
  7  6  2  0
  8  7  1  0
  9  8  2  0
  9  4  1  0
 10  2  1  0
 11 10  2  0
 13 23  2  0
 13 12  1  0
 14 13  1  0
 15 16  1  0
 15 14  2  0
 16 22  2  0
 17 16  1  0
 18 19  1  0
 18 17  1  1
 19 10  1  0
 20 18  1  0
 21 20  2  0
 22 23  1  0
 24 20  1  0
 25 29  1  0
 25 24  1  0
 26 27  1  0
 25 26  1  6
 27 28  2  0
 29 30  1  0
 31 27  1  0
 32 29  2  0
M  END
$$$$
