FYD.pdb
     RDKit          3D

 32 33  0  0  1  0  0  0  0  0999 V2000
    5.3924  -17.5041   24.5460 N   0  0  0  0  0  0  0  0  0  0  0  0
    6.1471  -16.3297   24.8400 C   0  0  1  0  0  0  0  0  0  0  0  0
    6.2325  -16.1406   26.3297 C   0  0  0  0  0  0  0  0  0  0  0  0
    6.6655  -14.7289   26.5561 C   0  0  0  0  0  0  0  0  0  0  0  0
    7.9527  -14.4279   26.9691 C   0  0  0  0  0  0  0  0  0  0  0  0
    8.3749  -13.1330   27.1849 C   0  0  0  0  0  0  0  0  0  0  0  0
    7.5134  -12.0734   26.9930 C   0  0  0  0  0  0  0  0  0  0  0  0
    6.2309  -12.3644   26.5820 C   0  0  0  0  0  0  0  0  0  0  0  0
    5.8062  -13.6661   26.3651 C   0  0  0  0  0  0  0  0  0  0  0  0
    7.5032  -16.4116   24.2048 C   0  0  0  0  0  0  0  0  0  0  0  0
    8.0245  -17.5384   24.1296 O   0  0  0  0  0  0  0  0  0  0  0  0
    6.6243  -13.7825   17.5314 O   0  0  0  0  0  0  0  0  0  0  0  0
    7.3903  -13.8485   18.6960 C   0  0  0  0  0  0  0  0  0  0  0  0
    8.1885  -14.9426   18.9219 C   0  0  0  0  0  0  0  0  0  0  0  0
    8.9638  -15.0520   20.0596 C   0  0  0  0  0  0  0  0  0  0  0  0
    8.9325  -14.0284   20.9953 C   0  0  0  0  0  0  0  0  0  0  0  0
    9.7679  -14.1472   22.2190 C   0  0  0  0  0  0  0  0  0  0  0  0
    9.4262  -15.3356   23.0449 C   0  0  2  0  0  0  0  0  0  0  0  0
    8.1653  -15.2741   23.7130 N   0  0  0  0  0  0  0  0  0  0  0  0
   10.5548  -15.8514   23.8752 C   0  0  0  0  0  0  0  0  0  0  0  0
   10.8307  -15.3973   25.0113 O   0  0  0  0  0  0  0  0  0  0  0  0
    8.1226  -12.9180   20.7663 C   0  0  0  0  0  0  0  0  0  0  0  0
    7.3510  -12.8167   19.6267 C   0  0  0  0  0  0  0  0  0  0  0  0
   11.3947  -16.9042   23.4169 N   0  0  0  0  0  0  0  0  0  0  0  0
   12.5406  -17.3900   24.1608 C   0  0  1  0  0  0  0  0  0  0  0  0
   13.7041  -16.4356   24.0939 C   0  0  0  0  0  0  0  0  0  0  0  0
   14.3074  -16.4211   22.7460 C   0  0  0  0  0  0  0  0  0  0  0  0
   13.8265  -16.9802   21.7293 O   0  0  0  0  0  0  0  0  0  0  0  0
   12.0991  -17.7227   25.5211 C   0  0  0  0  0  0  0  0  0  0  0  0
   11.8211  -16.7270   26.4268 O   0  0  0  0  0  0  0  0  0  0  0  0
   15.5035  -15.7418   22.5574 O   0  0  0  0  0  0  0  0  0  0  0  0
   11.9733  -18.9123   25.8636 O   0  0  0  0  0  0  0  0  0  0  0  0
  2  1  1  1
  2  3  1  0
  3  4  1  0
  4  5  2  0
  5  6  1  0
  7  6  2  0
  8  7  1  0
  9  8  2  0
  9  4  1  0
 10  2  1  0
 11 10  2  0
 13 23  2  0
 13 12  1  0
 14 13  1  0
 15 16  1  0
 15 14  2  0
 16 22  2  0
 17 16  1  0
 18 19  1  0
 18 17  1  1
 19 10  1  0
 20 18  1  0
 21 20  2  0
 22 23  1  0
 24 20  1  0
 25 29  1  0
 25 24  1  0
 26 27  1  0
 25 26  1  1
 27 28  2  0
 29 30  1  0
 31 27  1  0
 32 29  2  0
M  END
$$$$
