FYD.pdb
     RDKit          3D

 32 33  0  0  1  0  0  0  0  0999 V2000
    6.6147  -18.3606   26.7291 N   0  0  0  0  0  0  0  0  0  0  0  0
    7.3659  -17.1646   26.5281 C   0  0  1  0  0  0  0  0  0  0  0  0
    8.6565  -17.2403   27.2969 C   0  0  0  0  0  0  0  0  0  0  0  0
    9.0876  -15.8319   27.5459 C   0  0  0  0  0  0  0  0  0  0  0  0
   10.2911  -15.5467   28.1692 C   0  0  0  0  0  0  0  0  0  0  0  0
   10.7099  -14.2552   28.4100 C   0  0  0  0  0  0  0  0  0  0  0  0
    9.9297  -13.1830   28.0310 C   0  0  0  0  0  0  0  0  0  0  0  0
    8.7309  -13.4581   27.4102 C   0  0  0  0  0  0  0  0  0  0  0  0
    8.3097  -14.7565   27.1681 C   0  0  0  0  0  0  0  0  0  0  0  0
    7.5961  -16.9361   25.0639 C   0  0  0  0  0  0  0  0  0  0  0  0
    7.9571  -17.9166   24.3891 O   0  0  0  0  0  0  0  0  0  0  0  0
    8.5612  -13.1785   17.1647 O   0  0  0  0  0  0  0  0  0  0  0  0
    8.2268  -13.4196   18.4979 C   0  0  0  0  0  0  0  0  0  0  0  0
    8.8423  -12.7004   19.4924 C   0  0  0  0  0  0  0  0  0  0  0  0
    8.5439  -12.9041   20.8254 C   0  0  0  0  0  0  0  0  0  0  0  0
    7.5977  -13.8604   21.1638 C   0  0  0  0  0  0  0  0  0  0  0  0
    7.2770  -14.0781   22.5989 C   0  0  0  0  0  0  0  0  0  0  0  0
    7.6907  -15.4188   23.0916 C   0  0  2  0  0  0  0  0  0  0  0  0
    7.4155  -15.6758   24.4694 N   0  0  0  0  0  0  0  0  0  0  0  0
    9.0412  -15.8539   22.6268 C   0  0  0  0  0  0  0  0  0  0  0  0
    9.2587  -16.2904   21.4713 O   0  0  0  0  0  0  0  0  0  0  0  0
    6.9729  -14.5904   20.1547 C   0  0  0  0  0  0  0  0  0  0  0  0
    7.2770  -14.3804   18.8252 C   0  0  0  0  0  0  0  0  0  0  0  0
   10.1763  -15.7969   23.4826 N   0  0  0  0  0  0  0  0  0  0  0  0
   11.5061  -16.2010   23.0696 C   0  0  1  0  0  0  0  0  0  0  0  0
   12.5641  -15.2458   23.5566 C   0  0  0  0  0  0  0  0  0  0  0  0
   13.9141  -15.6956   23.1611 C   0  0  0  0  0  0  0  0  0  0  0  0
   14.6920  -16.3739   23.8768 O   0  0  0  0  0  0  0  0  0  0  0  0
   11.7093  -17.5978   23.4741 C   0  0  0  0  0  0  0  0  0  0  0  0
   11.2001  -18.0600   24.6642 O   0  0  0  0  0  0  0  0  0  0  0  0
   14.3883  -15.3559   21.9012 O   0  0  0  0  0  0  0  0  0  0  0  0
   12.3459  -18.3746   22.7396 O   0  0  0  0  0  0  0  0  0  0  0  0
  2  1  1  6
  2  3  1  0
  3  4  1  0
  4  5  2  0
  5  6  1  0
  7  6  2  0
  8  7  1  0
  9  8  2  0
  9  4  1  0
 10  2  1  0
 11 10  2  0
 13 23  2  0
 13 12  1  0
 14 13  1  0
 15 16  1  0
 15 14  2  0
 16 22  2  0
 17 16  1  0
 18 19  1  0
 18 17  1  1
 19 10  1  0
 20 18  1  0
 21 20  2  0
 22 23  1  0
 24 20  1  0
 25 29  1  0
 25 24  1  0
 26 27  1  0
 25 26  1  1
 27 28  2  0
 29 30  1  0
 31 27  1  0
 32 29  2  0
M  END
$$$$
