FYD.pdb
     RDKit          3D

 32 33  0  0  1  0  0  0  0  0999 V2000
    6.2996  -18.0890   25.7891 N   0  0  0  0  0  0  0  0  0  0  0  0
    6.7034  -16.7385   25.5695 C   0  0  1  0  0  0  0  0  0  0  0  0
    7.7679  -16.3590   26.5620 C   0  0  0  0  0  0  0  0  0  0  0  0
    7.6845  -14.8770   26.7308 C   0  0  0  0  0  0  0  0  0  0  0  0
    6.4690  -14.2145   26.6870 C   0  0  0  0  0  0  0  0  0  0  0  0
    6.3673  -12.8478   26.8397 C   0  0  0  0  0  0  0  0  0  0  0  0
    7.4940  -12.0795   27.0452 C   0  0  0  0  0  0  0  0  0  0  0  0
    8.7072  -12.7310   27.0900 C   0  0  0  0  0  0  0  0  0  0  0  0
    8.8096  -14.1049   26.9365 C   0  0  0  0  0  0  0  0  0  0  0  0
    7.1644  -16.5583   24.1539 C   0  0  0  0  0  0  0  0  0  0  0  0
    7.7590  -17.5155   23.6272 O   0  0  0  0  0  0  0  0  0  0  0  0
    9.1210  -13.2033   16.2867 O   0  0  0  0  0  0  0  0  0  0  0  0
    8.6749  -13.3252   17.6033 C   0  0  0  0  0  0  0  0  0  0  0  0
    7.6459  -14.1866   17.8939 C   0  0  0  0  0  0  0  0  0  0  0  0
    7.1709  -14.3405   19.1816 C   0  0  0  0  0  0  0  0  0  0  0  0
    7.7508  -13.6042   20.2044 C   0  0  0  0  0  0  0  0  0  0  0  0
    7.2389  -13.7713   21.5899 C   0  0  0  0  0  0  0  0  0  0  0  0
    7.4206  -15.1503   22.1159 C   0  0  2  0  0  0  0  0  0  0  0  0
    6.9407  -15.3666   23.4437 N   0  0  0  0  0  0  0  0  0  0  0  0
    8.7574  -15.7477   21.8238 C   0  0  0  0  0  0  0  0  0  0  0  0
    8.9289  -16.6597   20.9801 O   0  0  0  0  0  0  0  0  0  0  0  0
    8.7950  -12.7300   19.9097 C   0  0  0  0  0  0  0  0  0  0  0  0
    9.2635  -12.5823   18.6202 C   0  0  0  0  0  0  0  0  0  0  0  0
    9.9312  -15.3089   22.4972 N   0  0  0  0  0  0  0  0  0  0  0  0
   11.2659  -15.7484   22.1395 C   0  0  1  0  0  0  0  0  0  0  0  0
   12.1608  -14.5948   21.7689 C   0  0  0  0  0  0  0  0  0  0  0  0
   13.3253  -15.0517   20.9839 C   0  0  0  0  0  0  0  0  0  0  0  0
   13.5653  -16.2433   20.6677 O   0  0  0  0  0  0  0  0  0  0  0  0
   11.7774  -16.5965   23.2236 C   0  0  0  0  0  0  0  0  0  0  0  0
   12.4072  -17.7849   22.9408 O   0  0  0  0  0  0  0  0  0  0  0  0
   14.2463  -14.1095   20.5463 O   0  0  0  0  0  0  0  0  0  0  0  0
   11.6435  -16.2433   24.4092 O   0  0  0  0  0  0  0  0  0  0  0  0
  2  1  1  6
  2  3  1  0
  3  4  1  0
  4  5  2  0
  5  6  1  0
  7  6  2  0
  8  7  1  0
  9  8  2  0
  9  4  1  0
 10  2  1  0
 11 10  2  0
 13 23  2  0
 13 12  1  0
 14 13  1  0
 15 16  1  0
 15 14  2  0
 16 22  2  0
 17 16  1  0
 18 19  1  0
 18 17  1  1
 19 10  1  0
 20 18  1  0
 21 20  2  0
 22 23  1  0
 24 20  1  0
 25 29  1  0
 25 24  1  0
 26 27  1  0
 25 26  1  1
 27 28  2  0
 29 30  1  0
 31 27  1  0
 32 29  2  0
M  END
$$$$
