FYD.pdb
     RDKit          3D

 32 33  0  0  1  0  0  0  0  0999 V2000
    7.6795  -17.8195   27.0980 N   0  0  0  0  0  0  0  0  0  0  0  0
    7.5258  -16.6440   26.3043 C   0  0  1  0  0  0  0  0  0  0  0  0
    8.4260  -15.5578   26.8260 C   0  0  0  0  0  0  0  0  0  0  0  0
    7.5709  -14.3466   27.0087 C   0  0  0  0  0  0  0  0  0  0  0  0
    7.8881  -13.3755   27.9439 C   0  0  0  0  0  0  0  0  0  0  0  0
    7.1141  -12.2497   28.1306 C   0  0  0  0  0  0  0  0  0  0  0  0
    5.9761  -12.0485   27.3781 C   0  0  0  0  0  0  0  0  0  0  0  0
    5.6535  -13.0099   26.4455 C   0  0  0  0  0  0  0  0  0  0  0  0
    6.4315  -14.1418   26.2576 C   0  0  0  0  0  0  0  0  0  0  0  0
    7.7949  -16.9530   24.8617 C   0  0  0  0  0  0  0  0  0  0  0  0
    8.6867  -17.7854   24.6191 O   0  0  0  0  0  0  0  0  0  0  0  0
    8.5061  -13.0753   16.9566 O   0  0  0  0  0  0  0  0  0  0  0  0
    8.1659  -13.3848   18.2740 C   0  0  0  0  0  0  0  0  0  0  0  0
    7.6159  -14.6093   18.5629 C   0  0  0  0  0  0  0  0  0  0  0  0
    7.2634  -14.9601   19.8514 C   0  0  0  0  0  0  0  0  0  0  0  0
    7.4720  -14.0494   20.8768 C   0  0  0  0  0  0  0  0  0  0  0  0
    7.0928  -14.4285   22.2631 C   0  0  0  0  0  0  0  0  0  0  0  0
    7.7120  -15.7051   22.7083 C   0  0  2  0  0  0  0  0  0  0  0  0
    7.0785  -16.3366   23.8219 N   0  0  0  0  0  0  0  0  0  0  0  0
    9.2037  -15.6771   22.7645 C   0  0  0  0  0  0  0  0  0  0  0  0
    9.8435  -15.0008   23.6050 O   0  0  0  0  0  0  0  0  0  0  0  0
    8.0302  -12.8068   20.5839 C   0  0  0  0  0  0  0  0  0  0  0  0
    8.3795  -12.4643   19.2936 C   0  0  0  0  0  0  0  0  0  0  0  0
    9.9966  -16.4282   21.8528 N   0  0  0  0  0  0  0  0  0  0  0  0
   11.4426  -16.3388   21.7940 C   0  0  1  0  0  0  0  0  0  0  0  0
   12.1025  -17.6668   22.0586 C   0  0  0  0  0  0  0  0  0  0  0  0
   12.5368  -17.7775   23.4657 C   0  0  0  0  0  0  0  0  0  0  0  0
   12.4616  -16.8626   24.3229 O   0  0  0  0  0  0  0  0  0  0  0  0
   11.8137  -15.7141   20.5180 C   0  0  0  0  0  0  0  0  0  0  0  0
   13.1191  -15.3654   20.2663 O   0  0  0  0  0  0  0  0  0  0  0  0
   13.0758  -18.9791   23.9052 O   0  0  0  0  0  0  0  0  0  0  0  0
   10.9458  -15.4957   19.6535 O   0  0  0  0  0  0  0  0  0  0  0  0
  2  1  1  1
  2  3  1  0
  3  4  1  0
  4  5  2  0
  5  6  1  0
  7  6  2  0
  8  7  1  0
  9  8  2  0
  9  4  1  0
 10  2  1  0
 11 10  2  0
 13 23  2  0
 13 12  1  0
 14 13  1  0
 15 16  1  0
 15 14  2  0
 16 22  2  0
 17 16  1  0
 18 19  1  0
 18 17  1  1
 19 10  1  0
 20 18  1  0
 21 20  2  0
 22 23  1  0
 24 20  1  0
 25 29  1  0
 25 24  1  0
 26 27  1  0
 25 26  1  6
 27 28  2  0
 29 30  1  0
 31 27  1  0
 32 29  2  0
M  END
$$$$
