FYD.pdb
     RDKit          3D

 32 33  0  0  1  0  0  0  0  0999 V2000
    7.6735  -14.4437   24.4146 N   0  0  0  0  0  0  0  0  0  0  0  0
    7.5974  -15.5962   25.2519 C   0  0  1  0  0  0  0  0  0  0  0  0
    6.7378  -15.2980   26.4496 C   0  0  0  0  0  0  0  0  0  0  0  0
    6.9106  -13.8442   26.7469 C   0  0  0  0  0  0  0  0  0  0  0  0
    8.1224  -13.3383   27.1870 C   0  0  0  0  0  0  0  0  0  0  0  0
    8.3056  -12.0007   27.4680 C   0  0  0  0  0  0  0  0  0  0  0  0
    7.2686  -11.1042   27.3174 C   0  0  0  0  0  0  0  0  0  0  0  0
    6.0596  -11.5995   26.8799 C   0  0  0  0  0  0  0  0  0  0  0  0
    5.8753  -12.9442   26.5973 C   0  0  0  0  0  0  0  0  0  0  0  0
    7.0875  -16.7714   24.4722 C   0  0  0  0  0  0  0  0  0  0  0  0
    5.9457  -17.1802   24.7486 O   0  0  0  0  0  0  0  0  0  0  0  0
    8.1002  -12.2198   17.7779 O   0  0  0  0  0  0  0  0  0  0  0  0
    8.1924  -12.9676   18.9525 C   0  0  0  0  0  0  0  0  0  0  0  0
    9.4051  -13.0921   19.5840 C   0  0  0  0  0  0  0  0  0  0  0  0
    9.5448  -13.8218   20.7483 C   0  0  0  0  0  0  0  0  0  0  0  0
    8.4292  -14.4431   21.2900 C   0  0  0  0  0  0  0  0  0  0  0  0
    8.5809  -15.2276   22.5435 C   0  0  0  0  0  0  0  0  0  0  0  0
    8.3797  -16.6876   22.3452 C   0  0  2  0  0  0  0  0  0  0  0  0
    7.8552  -17.3914   23.4720 N   0  0  0  0  0  0  0  0  0  0  0  0
    9.5050  -17.3725   21.6424 C   0  0  0  0  0  0  0  0  0  0  0  0
    9.5645  -17.4843   20.3945 O   0  0  0  0  0  0  0  0  0  0  0  0
    7.1983  -14.3170   20.6493 C   0  0  0  0  0  0  0  0  0  0  0  0
    7.0675  -13.5859   19.4863 C   0  0  0  0  0  0  0  0  0  0  0  0
   10.5909  -17.9464   22.3603 N   0  0  0  0  0  0  0  0  0  0  0  0
   11.9106  -17.3489   22.4198 C   0  0  1  0  0  0  0  0  0  0  0  0
   11.9699  -16.0345   21.6863 C   0  0  0  0  0  0  0  0  0  0  0  0
   13.3658  -15.6342   21.4177 C   0  0  0  0  0  0  0  0  0  0  0  0
   14.1263  -15.0594   22.2354 O   0  0  0  0  0  0  0  0  0  0  0  0
   12.3234  -17.2836   23.8274 C   0  0  0  0  0  0  0  0  0  0  0  0
   11.5895  -16.5593   24.7362 O   0  0  0  0  0  0  0  0  0  0  0  0
   13.9084  -15.9023   20.1682 O   0  0  0  0  0  0  0  0  0  0  0  0
   13.3438  -17.8857   24.2078 O   0  0  0  0  0  0  0  0  0  0  0  0
  2  1  1  6
  2  3  1  0
  3  4  1  0
  4  5  2  0
  5  6  1  0
  7  6  2  0
  8  7  1  0
  9  8  2  0
  9  4  1  0
 10  2  1  0
 11 10  2  0
 13 23  2  0
 13 12  1  0
 14 13  1  0
 15 16  1  0
 15 14  2  0
 16 22  2  0
 17 16  1  0
 18 19  1  0
 18 17  1  1
 19 10  1  0
 20 18  1  0
 21 20  2  0
 22 23  1  0
 24 20  1  0
 25 29  1  0
 25 24  1  0
 26 27  1  0
 25 26  1  1
 27 28  2  0
 29 30  1  0
 31 27  1  0
 32 29  2  0
M  END
$$$$
