FYD.pdb
     RDKit          3D

 32 33  0  0  1  0  0  0  0  0999 V2000
    6.8361  -18.2699   25.9550 N   0  0  0  0  0  0  0  0  0  0  0  0
    6.8732  -16.8496   25.8259 C   0  0  1  0  0  0  0  0  0  0  0  0
    7.5297  -16.2466   27.0373 C   0  0  0  0  0  0  0  0  0  0  0  0
    7.2128  -14.7869   27.0118 C   0  0  0  0  0  0  0  0  0  0  0  0
    5.9085  -14.3352   26.8985 C   0  0  0  0  0  0  0  0  0  0  0  0
    5.5917  -12.9934   26.8724 C   0  0  0  0  0  0  0  0  0  0  0  0
    6.5818  -12.0374   26.9600 C   0  0  0  0  0  0  0  0  0  0  0  0
    7.8821  -12.4786   27.0730 C   0  0  0  0  0  0  0  0  0  0  0  0
    8.2007  -13.8275   27.0992 C   0  0  0  0  0  0  0  0  0  0  0  0
    7.5712  -16.4619   24.5564 C   0  0  0  0  0  0  0  0  0  0  0  0
    8.4933  -17.2019   24.1700 O   0  0  0  0  0  0  0  0  0  0  0  0
    9.0042  -13.1010   16.6016 O   0  0  0  0  0  0  0  0  0  0  0  0
    8.6038  -13.2314   17.9320 C   0  0  0  0  0  0  0  0  0  0  0  0
    7.6331  -14.1448   18.2619 C   0  0  0  0  0  0  0  0  0  0  0  0
    7.2048  -14.3091   19.5645 C   0  0  0  0  0  0  0  0  0  0  0  0
    7.7722  -13.5297   20.5620 C   0  0  0  0  0  0  0  0  0  0  0  0
    7.3107  -13.7081   21.9637 C   0  0  0  0  0  0  0  0  0  0  0  0
    7.8316  -14.9495   22.5952 C   0  0  2  0  0  0  0  0  0  0  0  0
    7.2090  -15.3168   23.8271 N   0  0  0  0  0  0  0  0  0  0  0  0
    9.3200  -15.0673   22.5817 C   0  0  0  0  0  0  0  0  0  0  0  0
   10.0553  -14.5393   23.4499 O   0  0  0  0  0  0  0  0  0  0  0  0
    8.7572  -12.6027   20.2275 C   0  0  0  0  0  0  0  0  0  0  0  0
    9.1794  -12.4450   18.9233 C   0  0  0  0  0  0  0  0  0  0  0  0
    9.9991  -15.7969   21.5667 N   0  0  0  0  0  0  0  0  0  0  0  0
   11.4375  -15.9782   21.5433 C   0  0  1  0  0  0  0  0  0  0  0  0
   11.8281  -17.4230   21.7140 C   0  0  0  0  0  0  0  0  0  0  0  0
   12.3140  -17.6877   23.0833 C   0  0  0  0  0  0  0  0  0  0  0  0
   12.5942  -16.8097   23.9366 O   0  0  0  0  0  0  0  0  0  0  0  0
   11.9621  -15.3415   20.3286 C   0  0  0  0  0  0  0  0  0  0  0  0
   13.2075  -14.7601   20.3286 O   0  0  0  0  0  0  0  0  0  0  0  0
   12.4843  -19.0047   23.4881 O   0  0  0  0  0  0  0  0  0  0  0  0
   11.2802  -15.3243   19.2879 O   0  0  0  0  0  0  0  0  0  0  0  0
  2  1  1  1
  2  3  1  0
  3  4  1  0
  4  5  2  0
  5  6  1  0
  7  6  2  0
  8  7  1  0
  9  8  2  0
  9  4  1  0
 10  2  1  0
 11 10  2  0
 13 23  2  0
 13 12  1  0
 14 13  1  0
 15 16  1  0
 15 14  2  0
 16 22  2  0
 17 16  1  0
 18 19  1  0
 18 17  1  1
 19 10  1  0
 20 18  1  0
 21 20  2  0
 22 23  1  0
 24 20  1  0
 25 29  1  0
 25 24  1  0
 26 27  1  0
 25 26  1  6
 27 28  2  0
 29 30  1  0
 31 27  1  0
 32 29  2  0
M  END
$$$$
