FYD.pdb
     RDKit          3D

 32 33  0  0  1  0  0  0  0  0999 V2000
    6.3299  -18.3047   26.2034 N   0  0  0  0  0  0  0  0  0  0  0  0
    6.4691  -16.8960   26.0262 C   0  0  1  0  0  0  0  0  0  0  0  0
    7.2063  -16.3073   27.1976 C   0  0  0  0  0  0  0  0  0  0  0  0
    7.1103  -14.8229   27.0593 C   0  0  0  0  0  0  0  0  0  0  0  0
    8.2444  -14.0295   27.0098 C   0  0  0  0  0  0  0  0  0  0  0  0
    8.1808  -12.6579   26.8830 C   0  0  0  0  0  0  0  0  0  0  0  0
    6.9624  -12.0173   26.7994 C   0  0  0  0  0  0  0  0  0  0  0  0
    5.8292  -12.7995   26.8478 C   0  0  0  0  0  0  0  0  0  0  0  0
    5.8930  -14.1784   26.9754 C   0  0  0  0  0  0  0  0  0  0  0  0
    7.1542  -16.6018   24.7250 C   0  0  0  0  0  0  0  0  0  0  0  0
    8.0675  -17.3727   24.3805 O   0  0  0  0  0  0  0  0  0  0  0  0
    8.8881  -13.4230   16.7235 O   0  0  0  0  0  0  0  0  0  0  0  0
    8.4018  -13.5782   18.0223 C   0  0  0  0  0  0  0  0  0  0  0  0
    8.6835  -12.6260   18.9705 C   0  0  0  0  0  0  0  0  0  0  0  0
    8.2241  -12.7367   20.2682 C   0  0  0  0  0  0  0  0  0  0  0  0
    7.4589  -13.8395   20.6185 C   0  0  0  0  0  0  0  0  0  0  0  0
    6.9645  -13.9571   22.0154 C   0  0  0  0  0  0  0  0  0  0  0  0
    7.4695  -15.1699   22.7121 C   0  0  2  0  0  0  0  0  0  0  0  0
    6.7899  -15.5076   23.9222 N   0  0  0  0  0  0  0  0  0  0  0  0
    8.9580  -15.2653   22.7776 C   0  0  0  0  0  0  0  0  0  0  0  0
    9.6293  -14.8273   23.7423 O   0  0  0  0  0  0  0  0  0  0  0  0
    7.1728  -14.8060   19.6565 C   0  0  0  0  0  0  0  0  0  0  0  0
    7.6359  -14.6875   18.3620 C   0  0  0  0  0  0  0  0  0  0  0  0
    9.7113  -15.8684   21.7323 N   0  0  0  0  0  0  0  0  0  0  0  0
   11.1545  -16.0043   21.7668 C   0  0  1  0  0  0  0  0  0  0  0  0
   11.5843  -17.3250   22.3498 C   0  0  0  0  0  0  0  0  0  0  0  0
   12.6484  -17.1441   23.3578 C   0  0  0  0  0  0  0  0  0  0  0  0
   13.7952  -16.6859   23.1287 O   0  0  0  0  0  0  0  0  0  0  0  0
   11.6751  -15.7304   20.4214 C   0  0  0  0  0  0  0  0  0  0  0  0
   12.8720  -15.0751   20.2572 O   0  0  0  0  0  0  0  0  0  0  0  0
   12.3884  -17.5008   24.6742 O   0  0  0  0  0  0  0  0  0  0  0  0
   11.0338  -16.0912   19.4180 O   0  0  0  0  0  0  0  0  0  0  0  0
  2  1  1  1
  2  3  1  0
  3  4  1  0
  4  5  2  0
  5  6  1  0
  7  6  2  0
  8  7  1  0
  9  8  2  0
  9  4  1  0
 10  2  1  0
 11 10  2  0
 13 23  2  0
 13 12  1  0
 14 13  1  0
 15 16  1  0
 15 14  2  0
 16 22  2  0
 17 16  1  0
 18 19  1  0
 18 17  1  1
 19 10  1  0
 20 18  1  0
 21 20  2  0
 22 23  1  0
 24 20  1  0
 25 29  1  0
 25 24  1  0
 26 27  1  0
 25 26  1  6
 27 28  2  0
 29 30  1  0
 31 27  1  0
 32 29  2  0
M  END
$$$$
