NQA.pdb
     RDKit          3D

 23 22  0  0  1  0  0  0  0  0999 V2000
   13.8816  -11.7423  -15.1903 N   0  0  0  0  0  0  0  0  0  0  0  0
   14.4283  -11.2029  -13.9847 C   0  0  0  0  0  0  0  0  0  0  0  0
   13.7961  -11.3265  -12.9083 O   0  0  0  0  0  0  0  0  0  0  0  0
   15.7410  -10.5179  -14.1046 C   0  0  0  0  0  0  0  0  0  0  0  0
   16.0903  -10.4453  -15.5710 C   0  0  2  0  0  0  0  0  0  0  0  0
   16.3119  -11.7542  -16.1340 N   0  0  0  0  0  0  0  0  0  0  0  0
   17.2467   -9.5541  -15.8270 C   0  0  0  0  0  0  0  0  0  0  0  0
   18.3989  -10.0777  -15.8906 O   0  0  0  0  0  0  0  0  0  0  0  0
   16.7966   -3.9896  -18.2001 N   0  0  0  0  0  0  0  0  0  0  0  0
   18.1737   -3.9111  -17.9038 C   0  0  0  0  0  0  0  0  0  0  0  0
   18.8026   -2.8837  -18.2194 O   0  0  0  0  0  0  0  0  0  0  0  0
   18.8356   -5.0444  -17.2290 C   0  0  0  0  0  0  0  0  0  0  0  0
   17.8042   -6.0765  -16.9021 C   0  0  0  0  0  0  0  0  0  0  0  0
   18.3269   -7.3046  -16.2041 C   0  0  2  0  0  0  0  0  0  0  0  0
   17.1715   -8.1659  -16.0065 N   0  0  0  0  0  0  0  0  0  0  0  0
   19.0736   -7.0601  -14.9783 C   0  0  0  0  0  0  0  0  0  0  0  0
   18.4851   -6.7588  -13.9254 O   0  0  0  0  0  0  0  0  0  0  0  0
   22.5690   -7.7736  -13.8487 C   0  0  0  0  0  0  0  0  0  0  0  0
   21.2617   -7.0195  -13.7337 C   0  0  2  0  0  0  0  0  0  0  0  0
   20.4799   -7.1588  -14.9550 N   0  0  0  0  0  0  0  0  0  0  0  0
   21.5849   -5.6107  -13.4462 C   0  0  0  0  0  0  0  0  0  0  0  0
   22.0912   -5.2494  -12.2198 O   0  0  0  0  0  0  0  0  0  0  0  0
   21.3973   -4.7459  -14.3207 O   0  0  0  0  0  0  0  0  0  0  0  0
  1  2  1  0
  2  3  2  0
  4  2  1  0
  4  5  1  0
  5  6  1  1
  7  8  2  0
  7  5  1  0
 10  9  1  0
 10 12  1  0
 11 10  2  0
 14 13  1  1
 13 12  1  0
 14 15  1  0
 15  7  1  0
 16 14  1  0
 17 16  2  0
 19 18  1  6
 19 20  1  0
 20 16  1  0
 21 19  1  0
 22 21  1  0
 23 21  2  0
M  END
$$$$
