NQA.pdb
     RDKit          3D

 23 22  0  0  1  0  0  0  0  0999 V2000
   17.5391  -13.9953  -15.6028 N   0  0  0  0  0  0  0  0  0  0  0  0
   18.9207  -13.7897  -15.2990 C   0  0  0  0  0  0  0  0  0  0  0  0
   19.5586  -14.6779  -14.6843 O   0  0  0  0  0  0  0  0  0  0  0  0
   19.5103  -12.5024  -15.7482 C   0  0  0  0  0  0  0  0  0  0  0  0
   18.4319  -11.7275  -16.4655 C   0  0  2  0  0  0  0  0  0  0  0  0
   18.1255  -12.3021  -17.7520 N   0  0  0  0  0  0  0  0  0  0  0  0
   18.7671  -10.2892  -16.5923 C   0  0  0  0  0  0  0  0  0  0  0  0
   19.3659   -9.9080  -17.6420 O   0  0  0  0  0  0  0  0  0  0  0  0
   15.1734   -6.5286  -14.6205 N   0  0  0  0  0  0  0  0  0  0  0  0
   15.2379   -6.9458  -15.9666 C   0  0  0  0  0  0  0  0  0  0  0  0
   14.1827   -7.0443  -16.6205 O   0  0  0  0  0  0  0  0  0  0  0  0
   16.5499   -7.2551  -16.5676 C   0  0  0  0  0  0  0  0  0  0  0  0
   17.6038   -7.1151  -15.5161 C   0  0  0  0  0  0  0  0  0  0  0  0
   18.8607   -7.9082  -15.7605 C   0  0  2  0  0  0  0  0  0  0  0  0
   18.4739   -9.3051  -15.6380 N   0  0  0  0  0  0  0  0  0  0  0  0
   19.9987   -7.5549  -14.9239 C   0  0  0  0  0  0  0  0  0  0  0  0
   20.0652   -7.9436  -13.7448 O   0  0  0  0  0  0  0  0  0  0  0  0
   23.2668   -5.7372  -15.4803 C   0  0  0  0  0  0  0  0  0  0  0  0
   22.1810   -6.3383  -14.6139 C   0  0  2  0  0  0  0  0  0  0  0  0
   21.0515   -6.7648  -15.4291 N   0  0  0  0  0  0  0  0  0  0  0  0
   21.7894   -5.3209  -13.6222 C   0  0  0  0  0  0  0  0  0  0  0  0
   22.5193   -5.1569  -12.4685 O   0  0  0  0  0  0  0  0  0  0  0  0
   20.7919   -4.6080  -13.8335 O   0  0  0  0  0  0  0  0  0  0  0  0
  1  2  1  0
  2  3  2  0
  4  2  1  0
  4  5  1  0
  5  6  1  6
  7  8  2  0
  7  5  1  0
 10  9  1  0
 10 12  1  0
 11 10  2  0
 14 13  1  1
 13 12  1  0
 14 15  1  0
 15  7  1  0
 16 14  1  0
 17 16  2  0
 19 18  1  6
 19 20  1  0
 20 16  1  0
 21 19  1  0
 22 21  1  0
 23 21  2  0
M  END
$$$$
