NQA.pdb
     RDKit          3D

 23 22  0  0  1  0  0  0  0  0999 V2000
   16.3408  -13.3446  -15.3613 N   0  0  0  0  0  0  0  0  0  0  0  0
   17.7126  -13.3234  -14.9600 C   0  0  0  0  0  0  0  0  0  0  0  0
   18.1818  -14.2860  -14.3067 O   0  0  0  0  0  0  0  0  0  0  0  0
   18.4983  -12.1278  -15.3599 C   0  0  0  0  0  0  0  0  0  0  0  0
   17.5396  -11.1237  -15.9520 C   0  0  2  0  0  0  0  0  0  0  0  0
   16.9406  -11.6094  -17.1704 N   0  0  0  0  0  0  0  0  0  0  0  0
   18.1746   -9.8010  -16.1628 C   0  0  0  0  0  0  0  0  0  0  0  0
   18.8930   -9.6435  -17.1946 O   0  0  0  0  0  0  0  0  0  0  0  0
   14.5245   -5.7386  -15.4736 N   0  0  0  0  0  0  0  0  0  0  0  0
   15.1368   -6.6421  -16.3675 C   0  0  0  0  0  0  0  0  0  0  0  0
   14.4765   -7.6046  -16.8015 O   0  0  0  0  0  0  0  0  0  0  0  0
   16.5412   -6.4271  -16.7669 C   0  0  0  0  0  0  0  0  0  0  0  0
   17.3960   -6.4418  -15.5401 C   0  0  0  0  0  0  0  0  0  0  0  0
   18.5769   -7.3752  -15.5945 C   0  0  2  0  0  0  0  0  0  0  0  0
   18.0455   -8.6983  -15.3069 N   0  0  0  0  0  0  0  0  0  0  0  0
   19.7023   -7.0141  -14.7442 C   0  0  0  0  0  0  0  0  0  0  0  0
   19.6296   -7.1355  -13.5090 O   0  0  0  0  0  0  0  0  0  0  0  0
   23.2791   -5.9702  -15.3698 C   0  0  0  0  0  0  0  0  0  0  0  0
   22.0639   -6.1791  -14.4919 C   0  0  2  0  0  0  0  0  0  0  0  0
   20.9000   -6.5189  -15.2993 N   0  0  0  0  0  0  0  0  0  0  0  0
   21.8548   -4.9409  -13.7205 C   0  0  0  0  0  0  0  0  0  0  0  0
   22.6096   -4.6832  -12.6004 O   0  0  0  0  0  0  0  0  0  0  0  0
   20.9892   -4.1263  -14.0879 O   0  0  0  0  0  0  0  0  0  0  0  0
  1  2  1  0
  2  3  2  0
  4  2  1  0
  4  5  1  0
  5  6  1  6
  7  8  2  0
  7  5  1  0
 10  9  1  0
 10 12  1  0
 11 10  2  0
 14 13  1  1
 13 12  1  0
 14 15  1  0
 15  7  1  0
 16 14  1  0
 17 16  2  0
 19 18  1  6
 19 20  1  0
 20 16  1  0
 21 19  1  0
 22 21  1  0
 23 21  2  0
M  END
$$$$
