NQA.pdb
     RDKit          3D

 23 22  0  0  1  0  0  0  0  0999 V2000
   14.0293   -9.1034  -15.8660 N   0  0  0  0  0  0  0  0  0  0  0  0
   13.9065   -8.2820  -14.7025 C   0  0  0  0  0  0  0  0  0  0  0  0
   12.7878   -7.8039  -14.3971 O   0  0  0  0  0  0  0  0  0  0  0  0
   15.1502   -8.0523  -13.9233 C   0  0  0  0  0  0  0  0  0  0  0  0
   16.2591   -8.8335  -14.5850 C   0  0  2  0  0  0  0  0  0  0  0  0
   16.1328  -10.2498  -14.3456 N   0  0  0  0  0  0  0  0  0  0  0  0
   17.6012   -8.3452  -14.1879 C   0  0  0  0  0  0  0  0  0  0  0  0
   17.7646   -7.9606  -12.9917 O   0  0  0  0  0  0  0  0  0  0  0  0
   22.6670  -10.6354  -16.1168 N   0  0  0  0  0  0  0  0  0  0  0  0
   23.2837   -9.5668  -15.4326 C   0  0  0  0  0  0  0  0  0  0  0  0
   24.5240   -9.5551  -15.3217 O   0  0  0  0  0  0  0  0  0  0  0  0
   22.4480   -8.4906  -14.8657 C   0  0  0  0  0  0  0  0  0  0  0  0
   21.0103   -8.8204  -15.1110 C   0  0  0  0  0  0  0  0  0  0  0  0
   20.0253   -7.7919  -14.6202 C   0  0  2  0  0  0  0  0  0  0  0  0
   18.7164   -8.2725  -15.0342 N   0  0  0  0  0  0  0  0  0  0  0  0
   20.2887   -6.4217  -15.0360 C   0  0  0  0  0  0  0  0  0  0  0  0
   21.3130   -5.8283  -14.6558 O   0  0  0  0  0  0  0  0  0  0  0  0
   18.7207   -4.0452  -17.5100 C   0  0  0  0  0  0  0  0  0  0  0  0
   19.6252   -4.3740  -16.3418 C   0  0  2  0  0  0  0  0  0  0  0  0
   19.3906   -5.7351  -15.8785 N   0  0  0  0  0  0  0  0  0  0  0  0
   19.3641   -3.3813  -15.2844 C   0  0  0  0  0  0  0  0  0  0  0  0
   18.8114   -3.7697  -14.0866 O   0  0  0  0  0  0  0  0  0  0  0  0
   19.6467   -2.1856  -15.4801 O   0  0  0  0  0  0  0  0  0  0  0  0
  1  2  1  0
  2  3  2  0
  4  2  1  0
  4  5  1  0
  5  6  1  1
  7  8  2  0
  7  5  1  0
 10  9  1  0
 10 12  1  0
 11 10  2  0
 14 13  1  6
 13 12  1  0
 14 15  1  0
 15  7  1  0
 16 14  1  0
 17 16  2  0
 19 18  1  6
 19 20  1  0
 20 16  1  0
 21 19  1  0
 22 21  1  0
 23 21  2  0
M  END
$$$$
