NQA.pdb
     RDKit          3D

 23 22  0  0  1  0  0  0  0  0999 V2000
   18.2467  -22.2868  -12.8999 N   0  0  0  0  0  0  0  0  0  0  0  0
   18.8019  -21.1294  -13.5288 C   0  0  0  0  0  0  0  0  0  0  0  0
   18.1581  -20.5479  -14.4348 O   0  0  0  0  0  0  0  0  0  0  0  0
   20.1372  -20.6931  -13.0459 C   0  0  0  0  0  0  0  0  0  0  0  0
   20.9915  -20.4010  -14.2553 C   0  0  2  0  0  0  0  0  0  0  0  0
   21.3578  -21.6069  -14.9559 N   0  0  0  0  0  0  0  0  0  0  0  0
   22.1911  -19.6005  -13.9125 C   0  0  0  0  0  0  0  0  0  0  0  0
   22.0173  -18.4824  -13.3422 O   0  0  0  0  0  0  0  0  0  0  0  0
   27.1971  -21.8320  -11.8595 N   0  0  0  0  0  0  0  0  0  0  0  0
   26.1513  -21.3190  -11.0635 C   0  0  0  0  0  0  0  0  0  0  0  0
   26.0524  -21.6935   -9.8800 O   0  0  0  0  0  0  0  0  0  0  0  0
   25.2013  -20.3534  -11.6493 C   0  0  0  0  0  0  0  0  0  0  0  0
   25.5988  -20.0893  -13.0664 C   0  0  0  0  0  0  0  0  0  0  0  0
   24.6772  -19.1743  -13.8294 C   0  0  2  0  0  0  0  0  0  0  0  0
   23.5156  -19.9811  -14.1693 N   0  0  0  0  0  0  0  0  0  0  0  0
   25.2669  -18.5076  -14.9816 C   0  0  0  0  0  0  0  0  0  0  0  0
   25.3192  -19.0758  -16.0862 O   0  0  0  0  0  0  0  0  0  0  0  0
   26.9004  -15.1436  -15.5766 C   0  0  0  0  0  0  0  0  0  0  0  0
   26.2786  -16.4500  -16.0214 C   0  0  2  0  0  0  0  0  0  0  0  0
   25.7923  -17.2037  -14.8735 N   0  0  0  0  0  0  0  0  0  0  0  0
   27.3024  -17.1960  -16.7745 C   0  0  0  0  0  0  0  0  0  0  0  0
   27.5340  -16.9141  -18.1003 O   0  0  0  0  0  0  0  0  0  0  0  0
   27.9592  -18.0855  -16.2040 O   0  0  0  0  0  0  0  0  0  0  0  0
  1  2  1  0
  2  3  2  0
  4  2  1  0
  4  5  1  0
  5  6  1  1
  7  8  2  0
  7  5  1  0
 10  9  1  0
 10 12  1  0
 11 10  2  0
 14 13  1  6
 13 12  1  0
 14 15  1  0
 15  7  1  0
 16 14  1  0
 17 16  2  0
 19 18  1  1
 19 20  1  0
 20 16  1  0
 21 19  1  0
 22 21  1  0
 23 21  2  0
M  END
$$$$
