NQA.pdb
     RDKit          3D

 23 22  0  0  1  0  0  0  0  0999 V2000
   16.5077  -12.6272  -14.8159 N   0  0  0  0  0  0  0  0  0  0  0  0
   17.7729  -13.1368  -15.2437 C   0  0  0  0  0  0  0  0  0  0  0  0
   17.9708  -14.3755  -15.2526 O   0  0  0  0  0  0  0  0  0  0  0  0
   18.7840  -12.1298  -15.6565 C   0  0  0  0  0  0  0  0  0  0  0  0
   18.1631  -10.7631  -15.5005 C   0  0  2  0  0  0  0  0  0  0  0  0
   16.9985  -10.6057  -16.3360 N   0  0  0  0  0  0  0  0  0  0  0  0
   19.1400   -9.6744  -15.7403 C   0  0  0  0  0  0  0  0  0  0  0  0
   20.2586   -9.7375  -15.1484 O   0  0  0  0  0  0  0  0  0  0  0  0
   19.2824   -6.2139  -20.6682 N   0  0  0  0  0  0  0  0  0  0  0  0
   20.1579   -5.4017  -19.9172 C   0  0  0  0  0  0  0  0  0  0  0  0
   20.6589   -4.3955  -20.4532 O   0  0  0  0  0  0  0  0  0  0  0  0
   20.4595   -5.7616  -18.5181 C   0  0  0  0  0  0  0  0  0  0  0  0
   19.6383   -6.9533  -18.1419 C   0  0  0  0  0  0  0  0  0  0  0  0
   19.8807   -7.4848  -16.7536 C   0  0  2  0  0  0  0  0  0  0  0  0
   18.9275   -8.5691  -16.5760 N   0  0  0  0  0  0  0  0  0  0  0  0
   19.8283   -6.4972  -15.6852 C   0  0  0  0  0  0  0  0  0  0  0  0
   18.7384   -6.0564  -15.2806 O   0  0  0  0  0  0  0  0  0  0  0  0
   22.3061   -5.0574  -13.2496 C   0  0  0  0  0  0  0  0  0  0  0  0
   21.0075   -5.0155  -14.0262 C   0  0  2  0  0  0  0  0  0  0  0  0
   21.0098   -6.0171  -15.0840 N   0  0  0  0  0  0  0  0  0  0  0  0
   20.8539   -3.6512  -14.5619 C   0  0  0  0  0  0  0  0  0  0  0  0
   20.6465   -2.5896  -13.7129 O   0  0  0  0  0  0  0  0  0  0  0  0
   20.9128   -3.4627  -15.7903 O   0  0  0  0  0  0  0  0  0  0  0  0
  1  2  1  0
  2  3  2  0
  4  2  1  0
  4  5  1  0
  5  6  1  6
  7  8  2  0
  7  5  1  0
 10  9  1  0
 10 12  1  0
 11 10  2  0
 14 13  1  6
 13 12  1  0
 14 15  1  0
 15  7  1  0
 16 14  1  0
 17 16  2  0
 19 18  1  6
 19 20  1  0
 20 16  1  0
 21 19  1  0
 22 21  1  0
 23 21  2  0
M  END
$$$$
