NQA.pdb
     RDKit          3D

 23 22  0  0  1  0  0  0  0  0999 V2000
   34.6686  -25.8483  -15.2312 N   0  0  0  0  0  0  0  0  0  0  0  0
   34.3698  -26.5636  -16.4323 C   0  0  0  0  0  0  0  0  0  0  0  0
   35.2478  -27.2917  -16.9542 O   0  0  0  0  0  0  0  0  0  0  0  0
   33.0026  -26.3831  -16.9844 C   0  0  0  0  0  0  0  0  0  0  0  0
   32.3322  -25.2799  -16.2026 C   0  0  2  0  0  0  0  0  0  0  0  0
   32.1324  -25.6469  -14.8226 N   0  0  0  0  0  0  0  0  0  0  0  0
   31.0595  -24.8461  -16.8266 C   0  0  0  0  0  0  0  0  0  0  0  0
   31.0874  -24.4717  -18.0368 O   0  0  0  0  0  0  0  0  0  0  0  0
   27.3319  -28.3636  -18.2362 N   0  0  0  0  0  0  0  0  0  0  0  0
   26.9476  -27.1769  -17.5772 C   0  0  0  0  0  0  0  0  0  0  0  0
   26.0039  -26.5077  -18.0379 O   0  0  0  0  0  0  0  0  0  0  0  0
   27.6703  -26.7566  -16.3610 C   0  0  0  0  0  0  0  0  0  0  0  0
   27.5013  -25.2809  -16.1889 C   0  0  0  0  0  0  0  0  0  0  0  0
   28.5693  -24.4355  -16.8318 C   0  0  2  0  0  0  0  0  0  0  0  0
   29.8146  -24.8151  -16.1829 N   0  0  0  0  0  0  0  0  0  0  0  0
   28.3297  -22.9995  -16.8125 C   0  0  0  0  0  0  0  0  0  0  0  0
   28.4282  -22.3532  -15.7550 O   0  0  0  0  0  0  0  0  0  0  0  0
   28.4481  -20.2403  -19.2046 C   0  0  0  0  0  0  0  0  0  0  0  0
   27.7441  -20.8705  -18.0221 C   0  0  2  0  0  0  0  0  0  0  0  0
   27.9806  -22.3076  -17.9904 N   0  0  0  0  0  0  0  0  0  0  0  0
   26.3097  -20.5524  -18.1375 C   0  0  0  0  0  0  0  0  0  0  0  0
   25.8791  -19.2480  -18.0742 O   0  0  0  0  0  0  0  0  0  0  0  0
   25.4864  -21.4721  -18.2931 O   0  0  0  0  0  0  0  0  0  0  0  0
  1  2  1  0
  2  3  2  0
  4  2  1  0
  4  5  1  0
  5  6  1  1
  7  8  2  0
  7  5  1  0
 10  9  1  0
 10 12  1  0
 11 10  2  0
 14 13  1  1
 13 12  1  0
 14 15  1  0
 15  7  1  0
 16 14  1  0
 17 16  2  0
 19 18  1  6
 19 20  1  0
 20 16  1  0
 21 19  1  0
 22 21  1  0
 23 21  2  0
M  END
$$$$
