NQA.pdb
     RDKit          3D

 23 22  0  0  1  0  0  0  0  0999 V2000
   19.8540  -20.6234  -14.1535 N   0  0  0  0  0  0  0  0  0  0  0  0
   20.4344  -19.7616  -13.1717 C   0  0  0  0  0  0  0  0  0  0  0  0
   19.8622  -19.6085  -12.0660 O   0  0  0  0  0  0  0  0  0  0  0  0
   21.7073  -19.0953  -13.5490 C   0  0  0  0  0  0  0  0  0  0  0  0
   22.0292  -19.4882  -14.9702 C   0  0  2  0  0  0  0  0  0  0  0  0
   22.0641  -20.9203  -15.1350 N   0  0  0  0  0  0  0  0  0  0  0  0
   23.2864  -18.8674  -15.4511 C   0  0  0  0  0  0  0  0  0  0  0  0
   23.4131  -17.6121  -15.3333 O   0  0  0  0  0  0  0  0  0  0  0  0
   28.3610  -22.0433  -16.4809 N   0  0  0  0  0  0  0  0  0  0  0  0
   28.8603  -20.8142  -16.9608 C   0  0  0  0  0  0  0  0  0  0  0  0
   30.0454  -20.7486  -17.3378 O   0  0  0  0  0  0  0  0  0  0  0  0
   27.9702  -19.6379  -17.0053 C   0  0  0  0  0  0  0  0  0  0  0  0
   26.6179  -20.0412  -16.5107 C   0  0  0  0  0  0  0  0  0  0  0  0
   25.5985  -18.9335  -16.4606 C   0  0  2  0  0  0  0  0  0  0  0  0
   24.3580  -19.5601  -16.0314 N   0  0  0  0  0  0  0  0  0  0  0  0
   25.4533  -18.1581  -17.6844 C   0  0  0  0  0  0  0  0  0  0  0  0
   24.8507  -18.6269  -18.6656 O   0  0  0  0  0  0  0  0  0  0  0  0
   26.2670  -14.6198  -18.7231 C   0  0  0  0  0  0  0  0  0  0  0  0
   25.9099  -16.0635  -19.0045 C   0  0  2  0  0  0  0  0  0  0  0  0
   25.9915  -16.8589  -17.7868 N   0  0  0  0  0  0  0  0  0  0  0  0
   26.8316  -16.5549  -20.0443 C   0  0  0  0  0  0  0  0  0  0  0  0
   27.8578  -17.4095  -19.7168 O   0  0  0  0  0  0  0  0  0  0  0  0
   26.6771  -16.1921  -21.2243 O   0  0  0  0  0  0  0  0  0  0  0  0
  1  2  1  0
  2  3  2  0
  4  2  1  0
  4  5  1  0
  5  6  1  1
  7  8  2  0
  7  5  1  0
 10  9  1  0
 10 12  1  0
 11 10  2  0
 14 13  1  6
 13 12  1  0
 14 15  1  0
 15  7  1  0
 16 14  1  0
 17 16  2  0
 19 18  1  1
 19 20  1  0
 20 16  1  0
 21 19  1  0
 22 21  1  0
 23 21  2  0
M  END
$$$$
