NQA.pdb
     RDKit          3D

 23 22  0  0  1  0  0  0  0  0999 V2000
   24.5492  -21.9678  -10.9513 N   0  0  0  0  0  0  0  0  0  0  0  0
   25.5753  -21.0592  -10.5452 C   0  0  0  0  0  0  0  0  0  0  0  0
   26.1524  -21.2284   -9.4444 O   0  0  0  0  0  0  0  0  0  0  0  0
   25.8871  -19.9532  -11.4866 C   0  0  0  0  0  0  0  0  0  0  0  0
   25.0142  -20.1262  -12.7056 C   0  0  2  0  0  0  0  0  0  0  0  0
   25.0143  -21.4895  -13.1751 N   0  0  0  0  0  0  0  0  0  0  0  0
   25.3816  -19.1894  -13.7940 C   0  0  0  0  0  0  0  0  0  0  0  0
   25.1331  -17.9579  -13.6284 O   0  0  0  0  0  0  0  0  0  0  0  0
   27.9798  -21.6772  -17.3011 N   0  0  0  0  0  0  0  0  0  0  0  0
   28.6078  -21.3237  -16.0883 C   0  0  0  0  0  0  0  0  0  0  0  0
   29.2275  -22.1961  -15.4513 O   0  0  0  0  0  0  0  0  0  0  0  0
   28.5166  -19.9329  -15.6033 C   0  0  0  0  0  0  0  0  0  0  0  0
   27.7000  -19.1397  -16.5728 C   0  0  0  0  0  0  0  0  0  0  0  0
   26.3984  -18.6105  -16.0302 C   0  0  2  0  0  0  0  0  0  0  0  0
   25.9873  -19.5558  -15.0039 N   0  0  0  0  0  0  0  0  0  0  0  0
   25.3623  -18.3562  -17.0209 C   0  0  0  0  0  0  0  0  0  0  0  0
   24.4324  -19.1642  -17.1894 O   0  0  0  0  0  0  0  0  0  0  0  0
   23.1213  -16.3163  -17.5521 C   0  0  0  0  0  0  0  0  0  0  0  0
   24.2182  -16.6926  -18.5249 C   0  0  2  0  0  0  0  0  0  0  0  0
   25.3876  -17.1897  -17.8124 N   0  0  0  0  0  0  0  0  0  0  0  0
   24.5311  -15.4962  -19.3266 C   0  0  0  0  0  0  0  0  0  0  0  0
   23.9303  -15.3005  -20.5479 O   0  0  0  0  0  0  0  0  0  0  0  0
   25.3441  -14.6604  -18.8925 O   0  0  0  0  0  0  0  0  0  0  0  0
  1  2  1  0
  2  3  2  0
  4  2  1  0
  4  5  1  0
  5  6  1  6
  7  8  2  0
  7  5  1  0
 10  9  1  0
 10 12  1  0
 11 10  2  0
 14 13  1  6
 13 12  1  0
 14 15  1  0
 15  7  1  0
 16 14  1  0
 17 16  2  0
 19 18  1  1
 19 20  1  0
 20 16  1  0
 21 19  1  0
 22 21  1  0
 23 21  2  0
M  END
$$$$
