NQA.pdb
     RDKit          3D

 23 22  0  0  1  0  0  0  0  0999 V2000
   16.1697  -11.9752  -16.0074 N   0  0  0  0  0  0  0  0  0  0  0  0
   17.1411  -12.7870  -15.3433 C   0  0  0  0  0  0  0  0  0  0  0  0
   16.8290  -13.9414  -14.9647 O   0  0  0  0  0  0  0  0  0  0  0  0
   18.4836  -12.1818  -15.1480 C   0  0  0  0  0  0  0  0  0  0  0  0
   18.4352  -10.7714  -15.6829 C   0  0  2  0  0  0  0  0  0  0  0  0
   18.4356  -10.7452  -17.1245 N   0  0  0  0  0  0  0  0  0  0  0  0
   19.5247   -9.9282  -15.1359 C   0  0  0  0  0  0  0  0  0  0  0  0
   19.6027   -9.7989  -13.8778 O   0  0  0  0  0  0  0  0  0  0  0  0
   25.1271   -9.8389  -16.9510 N   0  0  0  0  0  0  0  0  0  0  0  0
   24.5286  -10.7067  -16.0134 C   0  0  0  0  0  0  0  0  0  0  0  0
   25.1026  -11.7733  -15.7242 O   0  0  0  0  0  0  0  0  0  0  0  0
   23.2403  -10.3323  -15.3985 C   0  0  0  0  0  0  0  0  0  0  0  0
   22.8312   -8.9924  -15.9211 C   0  0  0  0  0  0  0  0  0  0  0  0
   21.5544   -8.4423  -15.3414 C   0  0  2  0  0  0  0  0  0  0  0  0
   20.4862   -9.2548  -15.9023 N   0  0  0  0  0  0  0  0  0  0  0  0
   21.3442   -7.0138  -15.5284 C   0  0  0  0  0  0  0  0  0  0  0  0
   20.7651   -6.5843  -16.5413 O   0  0  0  0  0  0  0  0  0  0  0  0
   20.1417   -4.2917  -14.7483 C   0  0  0  0  0  0  0  0  0  0  0  0
   21.6129   -4.6459  -14.7166 C   0  0  2  0  0  0  0  0  0  0  0  0
   21.7913   -6.0839  -14.5675 N   0  0  0  0  0  0  0  0  0  0  0  0
   22.2263   -3.8981  -13.6046 C   0  0  0  0  0  0  0  0  0  0  0  0
   22.3284   -2.5280  -13.6602 O   0  0  0  0  0  0  0  0  0  0  0  0
   22.6531   -4.5137  -12.6111 O   0  0  0  0  0  0  0  0  0  0  0  0
  1  2  1  0
  2  3  2  0
  4  2  1  0
  4  5  1  0
  5  6  1  6
  7  8  2  0
  7  5  1  0
 10  9  1  0
 10 12  1  0
 11 10  2  0
 14 13  1  6
 13 12  1  0
 14 15  1  0
 15  7  1  0
 16 14  1  0
 17 16  2  0
 19 18  1  1
 19 20  1  0
 20 16  1  0
 21 19  1  0
 22 21  1  0
 23 21  2  0
M  END
$$$$
