NQA.pdb
     RDKit          3D

 23 22  0  0  1  0  0  0  0  0999 V2000
   15.1997  -15.7935  -14.2971 N   0  0  0  0  0  0  0  0  0  0  0  0
   15.9754  -14.9208  -15.1218 C   0  0  0  0  0  0  0  0  0  0  0  0
   17.0958  -15.2984  -15.5410 O   0  0  0  0  0  0  0  0  0  0  0  0
   15.3762  -13.5962  -15.4269 C   0  0  0  0  0  0  0  0  0  0  0  0
   16.3483  -12.5352  -14.9718 C   0  0  2  0  0  0  0  0  0  0  0  0
   16.6082  -12.6191  -13.5559 N   0  0  0  0  0  0  0  0  0  0  0  0
   15.9062  -11.1721  -15.3509 C   0  0  0  0  0  0  0  0  0  0  0  0
   15.6003  -10.9612  -16.5623 O   0  0  0  0  0  0  0  0  0  0  0  0
   10.6329   -9.3366  -13.6747 N   0  0  0  0  0  0  0  0  0  0  0  0
   11.8967   -8.7204  -13.5597 C   0  0  0  0  0  0  0  0  0  0  0  0
   12.0542   -7.8158  -12.7185 O   0  0  0  0  0  0  0  0  0  0  0  0
   12.9999   -9.1600  -14.4359 C   0  0  0  0  0  0  0  0  0  0  0  0
   14.2229   -8.3674  -14.1012 C   0  0  0  0  0  0  0  0  0  0  0  0
   15.4563   -8.7330  -14.8846 C   0  0  2  0  0  0  0  0  0  0  0  0
   15.7973  -10.0855  -14.4720 N   0  0  0  0  0  0  0  0  0  0  0  0
   16.5707   -7.8029  -14.7711 C   0  0  0  0  0  0  0  0  0  0  0  0
   17.3204   -7.8278  -13.7796 O   0  0  0  0  0  0  0  0  0  0  0  0
   18.3549   -5.5108  -17.1337 C   0  0  0  0  0  0  0  0  0  0  0  0
   17.9602   -5.9385  -15.7365 C   0  0  2  0  0  0  0  0  0  0  0  0
   16.8269   -6.8527  -15.7808 N   0  0  0  0  0  0  0  0  0  0  0  0
   17.6523   -4.7189  -14.9686 C   0  0  0  0  0  0  0  0  0  0  0  0
   18.6668   -3.9414  -14.4616 O   0  0  0  0  0  0  0  0  0  0  0  0
   16.4662   -4.3941  -14.7799 O   0  0  0  0  0  0  0  0  0  0  0  0
  1  2  1  0
  2  3  2  0
  4  2  1  0
  4  5  1  0
  5  6  1  1
  7  8  2  0
  7  5  1  0
 10  9  1  0
 10 12  1  0
 11 10  2  0
 14 13  1  1
 13 12  1  0
 14 15  1  0
 15  7  1  0
 16 14  1  0
 17 16  2  0
 19 18  1  6
 19 20  1  0
 20 16  1  0
 21 19  1  0
 22 21  1  0
 23 21  2  0
M  END
$$$$
