NQA.pdb
     RDKit          3D

 23 22  0  0  1  0  0  0  0  0999 V2000
   19.7908   -9.7253  -15.8568 N   0  0  0  0  0  0  0  0  0  0  0  0
   19.1911  -10.0184  -14.5927 C   0  0  0  0  0  0  0  0  0  0  0  0
   19.4857  -11.0837  -13.9995 O   0  0  0  0  0  0  0  0  0  0  0  0
   18.2378   -9.0086  -14.0652 C   0  0  0  0  0  0  0  0  0  0  0  0
   17.2208   -9.7338  -13.2181 C   0  0  2  0  0  0  0  0  0  0  0  0
   16.4023  -10.6213  -14.0066 N   0  0  0  0  0  0  0  0  0  0  0  0
   16.3833   -8.8003  -12.4280 C   0  0  0  0  0  0  0  0  0  0  0  0
   15.2316   -8.5131  -12.8717 O   0  0  0  0  0  0  0  0  0  0  0  0
   13.6536   -8.3429   -8.4106 N   0  0  0  0  0  0  0  0  0  0  0  0
   14.0860   -7.1340   -7.8257 C   0  0  0  0  0  0  0  0  0  0  0  0
   13.2917   -6.4862   -7.1185 O   0  0  0  0  0  0  0  0  0  0  0  0
   15.4651   -6.6660   -8.0644 C   0  0  0  0  0  0  0  0  0  0  0  0
   16.1279   -7.5983   -9.0273 C   0  0  0  0  0  0  0  0  0  0  0  0
   15.9396   -7.2558  -10.4819 C   0  0  2  0  0  0  0  0  0  0  0  0
   16.7628   -8.2023  -11.2183 N   0  0  0  0  0  0  0  0  0  0  0  0
   16.2039   -5.8695  -10.8398 C   0  0  0  0  0  0  0  0  0  0  0  0
   17.3493   -5.3958  -10.7433 O   0  0  0  0  0  0  0  0  0  0  0  0
   14.2459   -3.1378  -12.5398 C   0  0  0  0  0  0  0  0  0  0  0  0
   15.3885   -3.6425  -11.6850 C   0  0  2  0  0  0  0  0  0  0  0  0
   15.1694   -5.0313  -11.3037 N   0  0  0  0  0  0  0  0  0  0  0  0
   15.4881   -2.7593  -10.5095 C   0  0  0  0  0  0  0  0  0  0  0  0
   15.9312   -1.4649  -10.6474 O   0  0  0  0  0  0  0  0  0  0  0  0
   15.1684   -3.1909   -9.3872 O   0  0  0  0  0  0  0  0  0  0  0  0
  1  2  1  0
  2  3  2  0
  4  2  1  0
  4  5  1  0
  5  6  1  6
  7  8  2  0
  7  5  1  0
 10  9  1  0
 10 12  1  0
 11 10  2  0
 14 13  1  1
 13 12  1  0
 14 15  1  0
 15  7  1  0
 16 14  1  0
 17 16  2  0
 19 18  1  6
 19 20  1  0
 20 16  1  0
 21 19  1  0
 22 21  1  0
 23 21  2  0
M  END
$$$$
