NQA.pdb
     RDKit          3D

 23 22  0  0  1  0  0  0  0  0999 V2000
   18.8296  -13.0817  -18.2092 N   0  0  0  0  0  0  0  0  0  0  0  0
   18.3698  -11.7332  -18.3253 C   0  0  0  0  0  0  0  0  0  0  0  0
   17.5279  -11.4396  -19.2076 O   0  0  0  0  0  0  0  0  0  0  0  0
   18.9420  -10.7564  -17.3635 C   0  0  0  0  0  0  0  0  0  0  0  0
   19.9641  -11.4822  -16.5231 C   0  0  2  0  0  0  0  0  0  0  0  0
   19.3457  -12.4230  -15.6222 N   0  0  0  0  0  0  0  0  0  0  0  0
   20.8501  -10.5476  -15.7892 C   0  0  0  0  0  0  0  0  0  0  0  0
   20.4206  -10.0457  -14.7079 O   0  0  0  0  0  0  0  0  0  0  0  0
   26.9167  -10.3183  -16.2503 N   0  0  0  0  0  0  0  0  0  0  0  0
   26.1945  -11.2482  -15.4731 C   0  0  0  0  0  0  0  0  0  0  0  0
   26.7698  -12.2772  -15.0718 O   0  0  0  0  0  0  0  0  0  0  0  0
   24.7785  -10.9816  -15.1543 C   0  0  0  0  0  0  0  0  0  0  0  0
   24.3958   -9.6600  -15.7398 C   0  0  0  0  0  0  0  0  0  0  0  0
   22.9780   -9.2281  -15.4718 C   0  0  2  0  0  0  0  0  0  0  0  0
   22.1371  -10.1687  -16.1956 N   0  0  0  0  0  0  0  0  0  0  0  0
   22.6763   -7.8375  -15.7802 C   0  0  0  0  0  0  0  0  0  0  0  0
   22.8976   -7.3757  -16.9132 O   0  0  0  0  0  0  0  0  0  0  0  0
   20.4829   -5.2394  -15.2810 C   0  0  0  0  0  0  0  0  0  0  0  0
   21.9404   -5.5531  -15.0196 C   0  0  2  0  0  0  0  0  0  0  0  0
   22.1269   -6.9817  -14.8037 N   0  0  0  0  0  0  0  0  0  0  0  0
   22.3629   -4.7612  -13.8508 C   0  0  0  0  0  0  0  0  0  0  0  0
   22.6127   -5.3768  -12.6469 O   0  0  0  0  0  0  0  0  0  0  0  0
   22.4932   -3.5285  -13.9577 O   0  0  0  0  0  0  0  0  0  0  0  0
  1  2  1  0
  2  3  2  0
  4  2  1  0
  4  5  1  0
  5  6  1  1
  7  8  2  0
  7  5  1  0
 10  9  1  0
 10 12  1  0
 11 10  2  0
 14 13  1  6
 13 12  1  0
 14 15  1  0
 15  7  1  0
 16 14  1  0
 17 16  2  0
 19 18  1  1
 19 20  1  0
 20 16  1  0
 21 19  1  0
 22 21  1  0
 23 21  2  0
M  END
$$$$
