CLW.pdb
     RDKit          3D

 29 30  0  0  1  0  0  0  0  0999 V2000
   28.2354  -18.8007  -16.7663 N   0  0  0  0  0  0  0  0  0  0  0  0
   28.3139  -19.4521  -15.4778 C   0  0  1  0  0  0  0  0  0  0  0  0
   28.5353  -18.3728  -14.4380 C   0  0  0  0  0  0  0  0  0  0  0  0
   28.7556  -19.1078  -12.7967 S   0  0  0  0  0  0  0  0  0  0  0  0
   27.0544  -20.1886  -15.2493 C   0  0  0  0  0  0  0  0  0  0  0  0
   25.9636  -19.6321  -15.4879 O   0  0  0  0  0  0  0  0  0  0  0  0
   26.2811  -25.5363  -16.3391 C   0  0  0  0  0  0  0  0  0  0  0  0
   26.2175  -23.9949  -16.2018 C   0  0  1  0  0  0  0  0  0  0  0  0
   25.1605  -23.5778  -17.2173 C   0  0  0  0  0  0  0  0  0  0  0  0
   25.8376  -23.6702  -14.8029 C   0  0  0  0  0  0  0  0  0  0  0  0
   25.8191  -22.2199  -14.4231 C   0  0  2  0  0  0  0  0  0  0  0  0
   27.0212  -21.5363  -14.7581 N   0  0  0  0  0  0  0  0  0  0  0  0
   25.4024  -22.0516  -12.9966 C   0  0  0  0  0  0  0  0  0  0  0  0
   24.2377  -22.4042  -12.6731 O   0  0  0  0  0  0  0  0  0  0  0  0
   26.2500  -21.5218  -12.0160 N   0  0  0  0  0  0  0  0  0  0  0  0
   25.8460  -21.3176  -10.6290 C   0  0  1  0  0  0  0  0  0  0  0  0
   27.0849  -20.8995   -9.8445 C   0  0  0  0  0  0  0  0  0  0  0  0
   26.7357  -20.6596   -8.4047 C   0  0  0  0  0  0  0  0  0  0  0  0
   25.5051  -20.8050   -7.7994 C   0  0  0  0  0  0  0  0  0  0  0  0
   25.5997  -20.4937   -6.4947 N   0  0  0  0  0  0  0  0  0  0  0  0
   26.8709  -20.1391   -6.1996 C   0  0  0  0  0  0  0  0  0  0  0  0
   27.4688  -19.7415   -5.0220 C   0  0  0  0  0  0  0  0  0  0  0  0
   28.8134  -19.4347   -5.0170 C   0  0  0  0  0  0  0  0  0  0  0  0
   29.5114  -19.5407   -6.2085 C   0  0  0  0  0  0  0  0  0  0  0  0
   28.9202  -19.9373   -7.3887 C   0  0  0  0  0  0  0  0  0  0  0  0
   27.5840  -20.2433   -7.3989 C   0  0  0  0  0  0  0  0  0  0  0  0
   24.8708  -20.2103  -10.5396 C   0  0  0  0  0  0  0  0  0  0  0  0
   23.8052  -20.2253   -9.6397 O   0  0  0  0  0  0  0  0  0  0  0  0
   25.0134  -19.2176  -11.3088 O   0  0  0  0  0  0  0  0  0  0  0  0
  2  1  1  6
  2  3  1  0
  2  5  1  0
  3  4  1  0
  5 12  1  0
  5  6  2  0
  8  7  1  1
  8  9  1  0
 10  8  1  0
 11 13  1  0
 11 10  1  1
 12 11  1  0
 13 14  2  0
 15 13  1  0
 16 15  1  0
 16 17  1  1
 17 18  1  0
 18 19  2  0
 19 20  1  0
 21 22  2  0
 21 20  1  0
 23 22  1  0
 24 23  2  0
 25 24  1  0
 25 26  2  0
 26 18  1  0
 26 21  1  0
 27 16  1  0
 28 27  1  0
 29 27  2  0
M  END
$$$$
