CLW.pdb
     RDKit          3D

 29 30  0  0  1  0  0  0  0  0999 V2000
   29.4609  -23.3793  -17.1899 N   0  0  0  0  0  0  0  0  0  0  0  0
   28.3680  -22.7136  -17.8631 C   0  0  1  0  0  0  0  0  0  0  0  0
   27.4601  -23.7889  -18.4240 C   0  0  0  0  0  0  0  0  0  0  0  0
   28.1563  -24.4757  -19.9492 S   0  0  0  0  0  0  0  0  0  0  0  0
   27.6693  -21.8564  -16.8843 C   0  0  0  0  0  0  0  0  0  0  0  0
   27.5664  -22.2326  -15.6992 O   0  0  0  0  0  0  0  0  0  0  0  0
   27.7218  -16.2398  -17.2056 C   0  0  0  0  0  0  0  0  0  0  0  0
   27.8469  -17.6770  -16.6418 C   0  0  1  0  0  0  0  0  0  0  0  0
   28.4000  -17.4744  -15.2363 C   0  0  0  0  0  0  0  0  0  0  0  0
   26.4967  -18.2964  -16.6498 C   0  0  0  0  0  0  0  0  0  0  0  0
   26.4154  -19.7528  -16.3034 C   0  0  2  0  0  0  0  0  0  0  0  0
   27.0925  -20.5900  -17.2336 N   0  0  0  0  0  0  0  0  0  0  0  0
   24.9992  -20.1566  -16.0425 C   0  0  0  0  0  0  0  0  0  0  0  0
   24.3005  -20.5352  -17.0193 O   0  0  0  0  0  0  0  0  0  0  0  0
   24.4256  -20.1300  -14.7655 N   0  0  0  0  0  0  0  0  0  0  0  0
   23.0207  -20.4287  -14.5086 C   0  0  1  0  0  0  0  0  0  0  0  0
   22.7773  -20.2514  -13.0139 C   0  0  0  0  0  0  0  0  0  0  0  0
   21.3540  -20.5843  -12.6729 C   0  0  0  0  0  0  0  0  0  0  0  0
   20.7929  -21.8349  -12.5219 C   0  0  0  0  0  0  0  0  0  0  0  0
   19.4890  -21.7152  -12.2162 N   0  0  0  0  0  0  0  0  0  0  0  0
   19.1511  -20.4072  -12.1561 C   0  0  0  0  0  0  0  0  0  0  0  0
   17.9565  -19.7739  -11.8840 C   0  0  0  0  0  0  0  0  0  0  0  0
   17.9052  -18.3956  -11.8925 C   0  0  0  0  0  0  0  0  0  0  0  0
   19.0691  -17.7011  -12.1772 C   0  0  0  0  0  0  0  0  0  0  0  0
   20.2661  -18.3276  -12.4501 C   0  0  0  0  0  0  0  0  0  0  0  0
   20.3222  -19.6973  -12.4429 C   0  0  0  0  0  0  0  0  0  0  0  0
   22.1560  -19.4606  -15.2159 C   0  0  0  0  0  0  0  0  0  0  0  0
   20.9566  -19.8351  -15.8216 O   0  0  0  0  0  0  0  0  0  0  0  0
   22.5222  -18.2522  -15.2701 O   0  0  0  0  0  0  0  0  0  0  0  0
  2  1  1  1
  2  3  1  0
  2  5  1  0
  3  4  1  0
  5 12  1  0
  5  6  2  0
  8  7  1  1
  8  9  1  0
 10  8  1  0
 11 13  1  0
 11 10  1  6
 12 11  1  0
 13 14  2  0
 15 13  1  0
 16 15  1  0
 16 17  1  1
 17 18  1  0
 18 19  2  0
 19 20  1  0
 21 22  2  0
 21 20  1  0
 23 22  1  0
 24 23  2  0
 25 24  1  0
 25 26  2  0
 26 18  1  0
 26 21  1  0
 27 16  1  0
 28 27  1  0
 29 27  2  0
M  END
$$$$
