CLW.pdb
     RDKit          3D

 29 30  0  0  1  0  0  0  0  0999 V2000
   26.9971  -18.3127  -17.1750 N   0  0  0  0  0  0  0  0  0  0  0  0
   27.2138  -17.9384  -15.7952 C   0  0  1  0  0  0  0  0  0  0  0  0
   26.0045  -17.1437  -15.3469 C   0  0  0  0  0  0  0  0  0  0  0  0
   26.4611  -15.9768  -14.0382 S   0  0  0  0  0  0  0  0  0  0  0  0
   27.3911  -19.1699  -14.9996 C   0  0  0  0  0  0  0  0  0  0  0  0
   26.7731  -20.2050  -15.3210 O   0  0  0  0  0  0  0  0  0  0  0  0
   31.4172  -21.3874  -10.8149 C   0  0  0  0  0  0  0  0  0  0  0  0
   30.0238  -21.5892  -11.4605 C   0  0  1  0  0  0  0  0  0  0  0  0
   29.0927  -21.7922  -10.2712 C   0  0  0  0  0  0  0  0  0  0  0  0
   29.6992  -20.3735  -12.2501 C   0  0  0  0  0  0  0  0  0  0  0  0
   28.4667  -20.4258  -13.1021 C   0  0  2  0  0  0  0  0  0  0  0  0
   28.2537  -19.2374  -13.8551 N   0  0  0  0  0  0  0  0  0  0  0  0
   27.2826  -20.8532  -12.2946 C   0  0  0  0  0  0  0  0  0  0  0  0
   27.2912  -22.0087  -11.7945 O   0  0  0  0  0  0  0  0  0  0  0  0
   26.1750  -20.0251  -12.0753 N   0  0  0  0  0  0  0  0  0  0  0  0
   25.5052  -19.9031  -10.7849 C   0  0  1  0  0  0  0  0  0  0  0  0
   24.2388  -19.0811  -10.9983 C   0  0  0  0  0  0  0  0  0  0  0  0
   23.2484  -19.8511  -11.8222 C   0  0  0  0  0  0  0  0  0  0  0  0
   22.1726  -20.5895  -11.3759 C   0  0  0  0  0  0  0  0  0  0  0  0
   21.5255  -21.1304  -12.4231 N   0  0  0  0  0  0  0  0  0  0  0  0
   22.1396  -20.7745  -13.5742 C   0  0  0  0  0  0  0  0  0  0  0  0
   21.8674  -21.0666  -14.8944 C   0  0  0  0  0  0  0  0  0  0  0  0
   22.6829  -20.5544  -15.8817 C   0  0  0  0  0  0  0  0  0  0  0  0
   23.7511  -19.7604  -15.4990 C   0  0  0  0  0  0  0  0  0  0  0  0
   24.0289  -19.4646  -14.1817 C   0  0  0  0  0  0  0  0  0  0  0  0
   23.2213  -19.9713  -13.1967 C   0  0  0  0  0  0  0  0  0  0  0  0
   25.0910  -21.2357  -10.2972 C   0  0  0  0  0  0  0  0  0  0  0  0
   24.5125  -21.4243   -9.0421 O   0  0  0  0  0  0  0  0  0  0  0  0
   25.2703  -22.2355  -11.0493 O   0  0  0  0  0  0  0  0  0  0  0  0
  2  1  1  6
  2  3  1  0
  2  5  1  0
  3  4  1  0
  5 12  1  0
  5  6  2  0
  8  7  1  1
  8  9  1  0
 10  8  1  0
 11 13  1  0
 11 10  1  1
 12 11  1  0
 13 14  2  0
 15 13  1  0
 16 15  1  0
 16 17  1  6
 17 18  1  0
 18 19  2  0
 19 20  1  0
 21 22  2  0
 21 20  1  0
 23 22  1  0
 24 23  2  0
 25 24  1  0
 25 26  2  0
 26 18  1  0
 26 21  1  0
 27 16  1  0
 28 27  1  0
 29 27  2  0
M  END
$$$$
