CLW.pdb
     RDKit          3D

 29 30  0  0  1  0  0  0  0  0999 V2000
   23.7019  -21.0775  -16.7877 N   0  0  0  0  0  0  0  0  0  0  0  0
   23.6546  -20.8292  -15.3640 C   0  0  1  0  0  0  0  0  0  0  0  0
   22.5057  -21.6406  -14.8013 C   0  0  0  0  0  0  0  0  0  0  0  0
   20.9203  -20.9850  -15.3839 S   0  0  0  0  0  0  0  0  0  0  0  0
   24.9504  -21.2265  -14.7774 C   0  0  0  0  0  0  0  0  0  0  0  0
   25.2916  -22.4264  -14.7933 O   0  0  0  0  0  0  0  0  0  0  0  0
   29.1900  -17.8698  -15.3100 C   0  0  0  0  0  0  0  0  0  0  0  0
   28.0070  -18.8638  -15.2029 C   0  0  1  0  0  0  0  0  0  0  0  0
   28.0757  -19.6595  -16.5008 C   0  0  0  0  0  0  0  0  0  0  0  0
   28.2164  -19.7041  -13.9959 C   0  0  0  0  0  0  0  0  0  0  0  0
   27.1126  -20.6487  -13.6259 C   0  0  2  0  0  0  0  0  0  0  0  0
   25.8532  -20.2852  -14.1794 N   0  0  0  0  0  0  0  0  0  0  0  0
   27.0833  -20.8756  -12.1479 C   0  0  0  0  0  0  0  0  0  0  0  0
   28.1269  -21.3103  -11.5934 O   0  0  0  0  0  0  0  0  0  0  0  0
   25.9502  -20.6255  -11.3641 N   0  0  0  0  0  0  0  0  0  0  0  0
   25.8601  -20.9675   -9.9486 C   0  0  1  0  0  0  0  0  0  0  0  0
   26.8751  -20.1093   -9.2013 C   0  0  0  0  0  0  0  0  0  0  0  0
   26.7493  -20.3210   -7.7208 C   0  0  0  0  0  0  0  0  0  0  0  0
   25.6865  -20.8691   -7.0341 C   0  0  0  0  0  0  0  0  0  0  0  0
   25.9554  -20.8862   -5.7167 N   0  0  0  0  0  0  0  0  0  0  0  0
   27.1810  -20.3604   -5.4929 C   0  0  0  0  0  0  0  0  0  0  0  0
   27.9014  -20.1585   -4.3342 C   0  0  0  0  0  0  0  0  0  0  0  0
   29.1553  -19.5888   -4.4088 C   0  0  0  0  0  0  0  0  0  0  0  0
   29.6406  -19.2407   -5.6583 C   0  0  0  0  0  0  0  0  0  0  0  0
   28.9260  -19.4396   -6.8201 C   0  0  0  0  0  0  0  0  0  0  0  0
   27.6793  -20.0055   -6.7512 C   0  0  0  0  0  0  0  0  0  0  0  0
   24.5205  -20.6253   -9.4256 C   0  0  0  0  0  0  0  0  0  0  0  0
   23.6289  -19.8162  -10.1297 O   0  0  0  0  0  0  0  0  0  0  0  0
   24.1772  -21.0856   -8.2997 O   0  0  0  0  0  0  0  0  0  0  0  0
  2  1  1  6
  2  3  1  0
  2  5  1  0
  3  4  1  0
  5 12  1  0
  5  6  2  0
  8  7  1  6
  8  9  1  0
 10  8  1  0
 11 13  1  0
 11 10  1  1
 12 11  1  0
 13 14  2  0
 15 13  1  0
 16 15  1  0
 16 17  1  1
 17 18  1  0
 18 19  2  0
 19 20  1  0
 21 22  2  0
 21 20  1  0
 23 22  1  0
 24 23  2  0
 25 24  1  0
 25 26  2  0
 26 18  1  0
 26 21  1  0
 27 16  1  0
 28 27  1  0
 29 27  2  0
M  END
$$$$
