CLW.pdb
     RDKit          3D

 29 30  0  0  1  0  0  0  0  0999 V2000
   27.7736  -21.7682  -15.7891 N   0  0  0  0  0  0  0  0  0  0  0  0
   27.2862  -20.5881  -15.1103 C   0  0  1  0  0  0  0  0  0  0  0  0
   26.8823  -19.5885  -16.1746 C   0  0  0  0  0  0  0  0  0  0  0  0
   28.3477  -18.8204  -16.9130 S   0  0  0  0  0  0  0  0  0  0  0  0
   26.1452  -20.9778  -14.2574 C   0  0  0  0  0  0  0  0  0  0  0  0
   25.3715  -21.8795  -14.6381 O   0  0  0  0  0  0  0  0  0  0  0  0
   26.2424  -20.1011   -8.6742 C   0  0  0  0  0  0  0  0  0  0  0  0
   26.2237  -20.6835  -10.1093 C   0  0  1  0  0  0  0  0  0  0  0  0
   26.3779  -22.1850   -9.8996 C   0  0  0  0  0  0  0  0  0  0  0  0
   24.9304  -20.3161  -10.7410 C   0  0  0  0  0  0  0  0  0  0  0  0
   24.7501  -20.6837  -12.1833 C   0  0  2  0  0  0  0  0  0  0  0  0
   25.8767  -20.3608  -12.9902 N   0  0  0  0  0  0  0  0  0  0  0  0
   23.4550  -20.1501  -12.7076 C   0  0  0  0  0  0  0  0  0  0  0  0
   23.3046  -18.9009  -12.7575 O   0  0  0  0  0  0  0  0  0  0  0  0
   22.4130  -20.9787  -13.1413 N   0  0  0  0  0  0  0  0  0  0  0  0
   21.2514  -20.4914  -13.8775 C   0  0  1  0  0  0  0  0  0  0  0  0
   21.5675  -20.6042  -15.3649 C   0  0  0  0  0  0  0  0  0  0  0  0
   20.4354  -20.0550  -16.1831 C   0  0  0  0  0  0  0  0  0  0  0  0
   19.6522  -18.9538  -15.9081 C   0  0  0  0  0  0  0  0  0  0  0  0
   18.7425  -18.7866  -16.8841 N   0  0  0  0  0  0  0  0  0  0  0  0
   18.8910  -19.7527  -17.8186 C   0  0  0  0  0  0  0  0  0  0  0  0
   18.2152  -20.0135  -18.9924 C   0  0  0  0  0  0  0  0  0  0  0  0
   18.5927  -21.0926  -19.7639 C   0  0  0  0  0  0  0  0  0  0  0  0
   19.6458  -21.8752  -19.3205 C   0  0  0  0  0  0  0  0  0  0  0  0
   20.3254  -21.6203  -18.1488 C   0  0  0  0  0  0  0  0  0  0  0  0
   19.9539  -20.5489  -17.3784 C   0  0  0  0  0  0  0  0  0  0  0  0
   20.0793  -21.3507  -13.6076 C   0  0  0  0  0  0  0  0  0  0  0  0
   18.7971  -20.8303  -13.4323 O   0  0  0  0  0  0  0  0  0  0  0  0
   20.2520  -22.6006  -13.5344 O   0  0  0  0  0  0  0  0  0  0  0  0
  2  1  1  6
  2  3  1  0
  2  5  1  0
  3  4  1  0
  5 12  1  0
  5  6  2  0
  8  7  1  1
  8  9  1  0
 10  8  1  0
 11 13  1  0
 11 10  1  1
 12 11  1  0
 13 14  2  0
 15 13  1  0
 16 15  1  0
 16 17  1  6
 17 18  1  0
 18 19  2  0
 19 20  1  0
 21 22  2  0
 21 20  1  0
 23 22  1  0
 24 23  2  0
 25 24  1  0
 25 26  2  0
 26 18  1  0
 26 21  1  0
 27 16  1  0
 28 27  1  0
 29 27  2  0
M  END
$$$$
