CLW.pdb
     RDKit          3D

 29 30  0  0  1  0  0  0  0  0999 V2000
   23.0130  -19.1514  -19.6230 N   0  0  0  0  0  0  0  0  0  0  0  0
   22.7942  -18.4605  -18.3717 C   0  0  1  0  0  0  0  0  0  0  0  0
   21.5236  -19.0178  -17.7635 C   0  0  0  0  0  0  0  0  0  0  0  0
   21.1312  -18.1605  -16.2163 S   0  0  0  0  0  0  0  0  0  0  0  0
   23.9670  -18.6854  -17.5028 C   0  0  0  0  0  0  0  0  0  0  0  0
   24.5562  -19.7847  -17.5359 O   0  0  0  0  0  0  0  0  0  0  0  0
   27.1295  -14.3209  -15.7015 C   0  0  0  0  0  0  0  0  0  0  0  0
   26.5765  -15.5917  -16.3931 C   0  0  1  0  0  0  0  0  0  0  0  0
   27.7162  -16.0442  -17.2980 C   0  0  0  0  0  0  0  0  0  0  0  0
   26.2439  -16.5845  -15.3393 C   0  0  0  0  0  0  0  0  0  0  0  0
   25.6232  -17.8724  -15.7908 C   0  0  2  0  0  0  0  0  0  0  0  0
   24.4723  -17.6856  -16.6063 N   0  0  0  0  0  0  0  0  0  0  0  0
   25.4023  -18.7891  -14.6300 C   0  0  0  0  0  0  0  0  0  0  0  0
   26.4054  -19.1512  -13.9605 O   0  0  0  0  0  0  0  0  0  0  0  0
   24.1344  -19.2560  -14.2624 N   0  0  0  0  0  0  0  0  0  0  0  0
   23.8973  -20.1131  -13.1057 C   0  0  1  0  0  0  0  0  0  0  0  0
   23.3507  -19.2351  -11.9854 C   0  0  0  0  0  0  0  0  0  0  0  0
   23.3393  -19.9897  -10.6880 C   0  0  0  0  0  0  0  0  0  0  0  0
   24.4217  -20.3635   -9.9197 C   0  0  0  0  0  0  0  0  0  0  0  0
   23.9989  -21.0262   -8.8289 N   0  0  0  0  0  0  0  0  0  0  0  0
   22.6493  -21.1111   -8.8393 C   0  0  0  0  0  0  0  0  0  0  0  0
   21.7534  -21.6827   -7.9600 C   0  0  0  0  0  0  0  0  0  0  0  0
   20.4030  -21.6152   -8.2324 C   0  0  0  0  0  0  0  0  0  0  0  0
   20.0022  -20.9691   -9.3900 C   0  0  0  0  0  0  0  0  0  0  0  0
   20.8921  -20.3958  -10.2728 C   0  0  0  0  0  0  0  0  0  0  0  0
   22.2353  -20.4602  -10.0066 C   0  0  0  0  0  0  0  0  0  0  0  0
   22.8641  -21.1220  -13.4218 C   0  0  0  0  0  0  0  0  0  0  0  0
   22.7611  -22.3272  -12.7273 O   0  0  0  0  0  0  0  0  0  0  0  0
   22.0483  -20.8774  -14.3555 O   0  0  0  0  0  0  0  0  0  0  0  0
  2  1  1  6
  2  3  1  0
  2  5  1  0
  3  4  1  0
  5 12  1  0
  5  6  2  0
  8  7  1  1
  8  9  1  0
 10  8  1  0
 11 13  1  0
 11 10  1  1
 12 11  1  0
 13 14  2  0
 15 13  1  0
 16 15  1  0
 16 17  1  1
 17 18  1  0
 18 19  2  0
 19 20  1  0
 21 22  2  0
 21 20  1  0
 23 22  1  0
 24 23  2  0
 25 24  1  0
 25 26  2  0
 26 18  1  0
 26 21  1  0
 27 16  1  0
 28 27  1  0
 29 27  2  0
M  END
$$$$
