CLW.pdb
     RDKit          3D

 29 30  0  0  1  0  0  0  0  0999 V2000
   28.8654  -11.1330  -19.1889 N   0  0  0  0  0  0  0  0  0  0  0  0
   28.7879  -11.5304  -17.8008 C   0  0  1  0  0  0  0  0  0  0  0  0
   29.3190  -10.3798  -16.9706 C   0  0  0  0  0  0  0  0  0  0  0  0
   28.0079   -9.1718  -16.6476 S   0  0  0  0  0  0  0  0  0  0  0  0
   27.3793  -11.8379  -17.4810 C   0  0  0  0  0  0  0  0  0  0  0  0
   26.4662  -11.2757  -18.1186 O   0  0  0  0  0  0  0  0  0  0  0  0
   26.3297  -15.8573  -16.9765 C   0  0  0  0  0  0  0  0  0  0  0  0
   25.1283  -15.5022  -16.0657 C   0  0  1  0  0  0  0  0  0  0  0  0
   24.9592  -16.7327  -15.1826 C   0  0  0  0  0  0  0  0  0  0  0  0
   25.4762  -14.2800  -15.2964 C   0  0  0  0  0  0  0  0  0  0  0  0
   25.6513  -13.0124  -16.0776 C   0  0  2  0  0  0  0  0  0  0  0  0
   27.0010  -12.7675  -16.4556 N   0  0  0  0  0  0  0  0  0  0  0  0
   24.9995  -11.8637  -15.3758 C   0  0  0  0  0  0  0  0  0  0  0  0
   25.6486  -11.2756  -14.4711 O   0  0  0  0  0  0  0  0  0  0  0  0
   23.7071  -11.4212  -15.6832 N   0  0  0  0  0  0  0  0  0  0  0  0
   23.0827  -10.2628  -15.0532 C   0  0  1  0  0  0  0  0  0  0  0  0
   24.0284   -9.0790  -15.2244 C   0  0  0  0  0  0  0  0  0  0  0  0
   23.3927   -7.8226  -14.7049 C   0  0  0  0  0  0  0  0  0  0  0  0
   22.5782   -7.6832  -13.6009 C   0  0  0  0  0  0  0  0  0  0  0  0
   22.2092   -6.3972  -13.4664 N   0  0  0  0  0  0  0  0  0  0  0  0
   22.7568   -5.6579  -14.4575 C   0  0  0  0  0  0  0  0  0  0  0  0
   22.6826   -4.3131  -14.7551 C   0  0  0  0  0  0  0  0  0  0  0  0
   23.3598   -3.8258  -15.8533 C   0  0  0  0  0  0  0  0  0  0  0  0
   24.0927   -4.7188  -16.6171 C   0  0  0  0  0  0  0  0  0  0  0  0
   24.1712   -6.0637  -16.3255 C   0  0  0  0  0  0  0  0  0  0  0  0
   23.4998   -6.5529  -15.2350 C   0  0  0  0  0  0  0  0  0  0  0  0
   21.8206   -9.9248  -15.7447 C   0  0  0  0  0  0  0  0  0  0  0  0
   20.7040   -9.4393  -15.0643 O   0  0  0  0  0  0  0  0  0  0  0  0
   21.7579  -10.0837  -16.9969 O   0  0  0  0  0  0  0  0  0  0  0  0
  2  1  1  6
  2  3  1  0
  2  5  1  0
  3  4  1  0
  5 12  1  0
  5  6  2  0
  8  7  1  6
  8  9  1  0
 10  8  1  0
 11 13  1  0
 11 10  1  1
 12 11  1  0
 13 14  2  0
 15 13  1  0
 16 15  1  0
 16 17  1  6
 17 18  1  0
 18 19  2  0
 19 20  1  0
 21 22  2  0
 21 20  1  0
 23 22  1  0
 24 23  2  0
 25 24  1  0
 25 26  2  0
 26 18  1  0
 26 21  1  0
 27 16  1  0
 28 27  1  0
 29 27  2  0
M  END
$$$$
