CLW.pdb
     RDKit          3D

 29 30  0  0  1  0  0  0  0  0999 V2000
   26.5524  -24.1416  -16.8105 N   0  0  0  0  0  0  0  0  0  0  0  0
   26.0219  -22.8995  -17.3271 C   0  0  1  0  0  0  0  0  0  0  0  0
   24.7412  -23.2277  -18.0669 C   0  0  0  0  0  0  0  0  0  0  0  0
   23.3882  -23.5159  -16.8968 S   0  0  0  0  0  0  0  0  0  0  0  0
   25.7850  -21.9849  -16.1921 C   0  0  0  0  0  0  0  0  0  0  0  0
   25.7306  -22.4432  -15.0329 O   0  0  0  0  0  0  0  0  0  0  0  0
   27.5623  -16.7525  -16.4762 C   0  0  0  0  0  0  0  0  0  0  0  0
   27.2618  -18.2393  -16.1627 C   0  0  1  0  0  0  0  0  0  0  0  0
   28.4119  -18.6647  -15.2578 C   0  0  0  0  0  0  0  0  0  0  0  0
   25.9385  -18.3124  -15.4916 C   0  0  0  0  0  0  0  0  0  0  0  0
   25.3597  -19.6788  -15.2780 C   0  0  2  0  0  0  0  0  0  0  0  0
   25.6112  -20.5704  -16.3579 N   0  0  0  0  0  0  0  0  0  0  0  0
   23.9185  -19.5882  -14.8888 C   0  0  0  0  0  0  0  0  0  0  0  0
   23.6250  -18.9495  -13.8441 O   0  0  0  0  0  0  0  0  0  0  0  0
   22.8924  -20.1810  -15.6347 N   0  0  0  0  0  0  0  0  0  0  0  0
   21.4806  -20.0835  -15.2795 C   0  0  1  0  0  0  0  0  0  0  0  0
   20.6692  -20.2830  -16.5550 C   0  0  0  0  0  0  0  0  0  0  0  0
   19.2211  -19.9764  -16.3067 C   0  0  0  0  0  0  0  0  0  0  0  0
   18.5748  -18.7688  -16.4668 C   0  0  0  0  0  0  0  0  0  0  0  0
   17.2768  -18.9002  -16.1411 N   0  0  0  0  0  0  0  0  0  0  0  0
   17.0266  -20.1740  -15.7623 C   0  0  0  0  0  0  0  0  0  0  0  0
   15.8727  -20.8028  -15.3432 C   0  0  0  0  0  0  0  0  0  0  0  0
   15.9143  -22.1414  -15.0138 C   0  0  0  0  0  0  0  0  0  0  0  0
   17.1268  -22.8022  -15.1198 C   0  0  0  0  0  0  0  0  0  0  0  0
   18.2835  -22.1800  -15.5379 C   0  0  0  0  0  0  0  0  0  0  0  0
   18.2474  -20.8496  -15.8664 C   0  0  0  0  0  0  0  0  0  0  0  0
   21.1132  -21.1699  -14.3467 C   0  0  0  0  0  0  0  0  0  0  0  0
   20.2285  -20.9752  -13.2861 O   0  0  0  0  0  0  0  0  0  0  0  0
   21.6225  -22.3132  -14.5221 O   0  0  0  0  0  0  0  0  0  0  0  0
  2  1  1  1
  2  3  1  0
  2  5  1  0
  3  4  1  0
  5 12  1  0
  5  6  2  0
  8  7  1  1
  8  9  1  0
 10  8  1  0
 11 13  1  0
 11 10  1  6
 12 11  1  0
 13 14  2  0
 15 13  1  0
 16 15  1  0
 16 17  1  6
 17 18  1  0
 18 19  2  0
 19 20  1  0
 21 22  2  0
 21 20  1  0
 23 22  1  0
 24 23  2  0
 25 24  1  0
 25 26  2  0
 26 18  1  0
 26 21  1  0
 27 16  1  0
 28 27  1  0
 29 27  2  0
M  END
$$$$
