CLW.pdb
     RDKit          3D

 29 30  0  0  1  0  0  0  0  0999 V2000
   28.9017  -17.8785  -17.6365 N   0  0  0  0  0  0  0  0  0  0  0  0
   28.3923  -18.9431  -16.8010 C   0  0  1  0  0  0  0  0  0  0  0  0
   29.5008  -19.3395  -15.8474 C   0  0  0  0  0  0  0  0  0  0  0  0
   28.9626  -20.6999  -14.7787 S   0  0  0  0  0  0  0  0  0  0  0  0
   27.2002  -18.4453  -16.0854 C   0  0  0  0  0  0  0  0  0  0  0  0
   27.2012  -17.2888  -15.6173 O   0  0  0  0  0  0  0  0  0  0  0  0
   22.6382  -16.4489  -15.1875 C   0  0  0  0  0  0  0  0  0  0  0  0
   22.4906  -17.9876  -15.2860 C   0  0  1  0  0  0  0  0  0  0  0  0
   21.2033  -18.1842  -16.0777 C   0  0  0  0  0  0  0  0  0  0  0  0
   23.6877  -18.5236  -15.9834 C   0  0  0  0  0  0  0  0  0  0  0  0
   24.8953  -18.8057  -15.1408 C   0  0  2  0  0  0  0  0  0  0  0  0
   26.0196  -19.2387  -15.8979 N   0  0  0  0  0  0  0  0  0  0  0  0
   24.5463  -19.7094  -14.0014 C   0  0  0  0  0  0  0  0  0  0  0  0
   23.5889  -19.3786  -13.2534 O   0  0  0  0  0  0  0  0  0  0  0  0
   25.2371  -20.8983  -13.7368 N   0  0  0  0  0  0  0  0  0  0  0  0
   24.7401  -21.9339  -12.8372 C   0  0  1  0  0  0  0  0  0  0  0  0
   25.8849  -22.3280  -11.9103 C   0  0  0  0  0  0  0  0  0  0  0  0
   25.9154  -21.4317  -10.7068 C   0  0  0  0  0  0  0  0  0  0  0  0
   24.8722  -20.7103  -10.1654 C   0  0  0  0  0  0  0  0  0  0  0  0
   25.3006  -20.0285   -9.0885 N   0  0  0  0  0  0  0  0  0  0  0  0
   26.6153  -20.2716   -8.8860 C   0  0  0  0  0  0  0  0  0  0  0  0
   27.5014  -19.8190   -7.9308 C   0  0  0  0  0  0  0  0  0  0  0  0
   28.8130  -20.2437   -7.9707 C   0  0  0  0  0  0  0  0  0  0  0  0
   29.1861  -21.1157   -8.9799 C   0  0  0  0  0  0  0  0  0  0  0  0
   28.3059  -21.5718   -9.9375 C   0  0  0  0  0  0  0  0  0  0  0  0
   27.0012  -21.1526   -9.9021 C   0  0  0  0  0  0  0  0  0  0  0  0
   23.6519  -21.3968  -11.9931 C   0  0  0  0  0  0  0  0  0  0  0  0
   23.3579  -20.0347  -11.9321 O   0  0  0  0  0  0  0  0  0  0  0  0
   22.9673  -22.2061  -11.3048 O   0  0  0  0  0  0  0  0  0  0  0  0
  2  1  1  6
  2  3  1  0
  2  5  1  0
  3  4  1  0
  5 12  1  0
  5  6  2  0
  8  7  1  6
  8  9  1  0
 10  8  1  0
 11 13  1  0
 11 10  1  6
 12 11  1  0
 13 14  2  0
 15 13  1  0
 16 15  1  0
 16 17  1  1
 17 18  1  0
 18 19  2  0
 19 20  1  0
 21 22  2  0
 21 20  1  0
 23 22  1  0
 24 23  2  0
 25 24  1  0
 25 26  2  0
 26 18  1  0
 26 21  1  0
 27 16  1  0
 28 27  1  0
 29 27  2  0
M  END
$$$$
