CLW.pdb
     RDKit          3D

 29 30  0  0  1  0  0  0  0  0999 V2000
   28.2032  -22.0103  -16.4471 N   0  0  0  0  0  0  0  0  0  0  0  0
   27.8655  -20.8401  -15.6676 C   0  0  1  0  0  0  0  0  0  0  0  0
   27.2288  -19.8381  -16.6087 C   0  0  0  0  0  0  0  0  0  0  0  0
   28.5016  -18.9054  -17.4990 S   0  0  0  0  0  0  0  0  0  0  0  0
   26.9430  -21.2478  -14.5889 C   0  0  0  0  0  0  0  0  0  0  0  0
   26.0236  -22.0538  -14.8367 O   0  0  0  0  0  0  0  0  0  0  0  0
   25.2404  -22.0159   -9.4635 C   0  0  0  0  0  0  0  0  0  0  0  0
   25.4260  -20.5215   -9.8259 C   0  0  1  0  0  0  0  0  0  0  0  0
   25.8840  -19.8802   -8.5216 C   0  0  0  0  0  0  0  0  0  0  0  0
   26.4425  -20.4300  -10.9053 C   0  0  0  0  0  0  0  0  0  0  0  0
   26.0422  -20.9321  -12.2600 C   0  0  2  0  0  0  0  0  0  0  0  0
   27.0528  -20.7551  -13.2459 N   0  0  0  0  0  0  0  0  0  0  0  0
   24.7073  -20.3849  -12.6542 C   0  0  0  0  0  0  0  0  0  0  0  0
   24.5750  -19.1345  -12.7217 O   0  0  0  0  0  0  0  0  0  0  0  0
   23.6090  -21.2021  -12.9482 N   0  0  0  0  0  0  0  0  0  0  0  0
   22.3101  -20.6843  -13.3648 C   0  0  1  0  0  0  0  0  0  0  0  0
   22.0718  -21.1377  -14.8010 C   0  0  0  0  0  0  0  0  0  0  0  0
   20.8107  -20.5275  -15.3395 C   0  0  0  0  0  0  0  0  0  0  0  0
   20.6047  -19.2204  -15.7276 C   0  0  0  0  0  0  0  0  0  0  0  0
   19.3388  -19.0659  -16.1538 N   0  0  0  0  0  0  0  0  0  0  0  0
   18.6786  -20.2426  -16.0635 C   0  0  0  0  0  0  0  0  0  0  0  0
   17.3826  -20.6001  -16.3717 C   0  0  0  0  0  0  0  0  0  0  0  0
   16.9756  -21.9027  -16.1725 C   0  0  0  0  0  0  0  0  0  0  0  0
   17.8970  -22.8042  -15.6662 C   0  0  0  0  0  0  0  0  0  0  0  0
   19.1935  -22.4537  -15.3561 C   0  0  0  0  0  0  0  0  0  0  0  0
   19.6029  -21.1602  -15.5523 C   0  0  0  0  0  0  0  0  0  0  0  0
   21.2373  -21.2686  -12.5323 C   0  0  0  0  0  0  0  0  0  0  0  0
   20.1222  -20.5343  -12.1290 O   0  0  0  0  0  0  0  0  0  0  0  0
   21.3404  -22.4771  -12.1769 O   0  0  0  0  0  0  0  0  0  0  0  0
  2  1  1  6
  2  3  1  0
  2  5  1  0
  3  4  1  0
  5 12  1  0
  5  6  2  0
  8  7  1  1
  8  9  1  0
 10  8  1  0
 11 13  1  0
 11 10  1  1
 12 11  1  0
 13 14  2  0
 15 13  1  0
 16 15  1  0
 16 17  1  6
 17 18  1  0
 18 19  2  0
 19 20  1  0
 21 22  2  0
 21 20  1  0
 23 22  1  0
 24 23  2  0
 25 24  1  0
 25 26  2  0
 26 18  1  0
 26 21  1  0
 27 16  1  0
 28 27  1  0
 29 27  2  0
M  END
$$$$
