CLW.pdb
     RDKit          3D

 29 30  0  0  1  0  0  0  0  0999 V2000
   26.4929  -22.4891  -18.6504 N   0  0  0  0  0  0  0  0  0  0  0  0
   25.7679  -21.3025  -18.2539 C   0  0  1  0  0  0  0  0  0  0  0  0
   24.5481  -21.1984  -19.1462 C   0  0  0  0  0  0  0  0  0  0  0  0
   24.9454  -20.2871  -20.6609 S   0  0  0  0  0  0  0  0  0  0  0  0
   25.4004  -21.4340  -16.8296 C   0  0  0  0  0  0  0  0  0  0  0  0
   24.9066  -22.5028  -16.4171 O   0  0  0  0  0  0  0  0  0  0  0  0
   28.6053  -19.3075  -12.9336 C   0  0  0  0  0  0  0  0  0  0  0  0
   27.7332  -20.1548  -13.8931 C   0  0  1  0  0  0  0  0  0  0  0  0
   28.1189  -21.5929  -13.5684 C   0  0  0  0  0  0  0  0  0  0  0  0
   26.3064  -19.8581  -13.6052 C   0  0  0  0  0  0  0  0  0  0  0  0
   25.2856  -20.5030  -14.4940 C   0  0  2  0  0  0  0  0  0  0  0  0
   25.5861  -20.3755  -15.8789 N   0  0  0  0  0  0  0  0  0  0  0  0
   23.9065  -20.0547  -14.1282 C   0  0  0  0  0  0  0  0  0  0  0  0
   23.5192  -20.2330  -12.9435 O   0  0  0  0  0  0  0  0  0  0  0  0
   23.0373  -19.4499  -15.0444 N   0  0  0  0  0  0  0  0  0  0  0  0
   21.6838  -19.0223  -14.7069 C   0  0  1  0  0  0  0  0  0  0  0  0
   21.6107  -17.5139  -14.9173 C   0  0  0  0  0  0  0  0  0  0  0  0
   22.3091  -17.1289  -16.1888 C   0  0  0  0  0  0  0  0  0  0  0  0
   21.8690  -17.3138  -17.4825 C   0  0  0  0  0  0  0  0  0  0  0  0
   22.7805  -16.8338  -18.3467 N   0  0  0  0  0  0  0  0  0  0  0  0
   23.8330  -16.3255  -17.6666 C   0  0  0  0  0  0  0  0  0  0  0  0
   25.0028  -15.7283  -18.0876 C   0  0  0  0  0  0  0  0  0  0  0  0
   25.9166  -15.2965  -17.1491 C   0  0  0  0  0  0  0  0  0  0  0  0
   25.6153  -15.4840  -15.8104 C   0  0  0  0  0  0  0  0  0  0  0  0
   24.4484  -16.0799  -15.3829 C   0  0  0  0  0  0  0  0  0  0  0  0
   23.5369  -16.5108  -16.3118 C   0  0  0  0  0  0  0  0  0  0  0  0
   20.7081  -19.6453  -15.6261 C   0  0  0  0  0  0  0  0  0  0  0  0
   19.3304  -19.5086  -15.4564 O   0  0  0  0  0  0  0  0  0  0  0  0
   21.1444  -20.3248  -16.5984 O   0  0  0  0  0  0  0  0  0  0  0  0
  2  1  1  6
  2  3  1  0
  2  5  1  0
  3  4  1  0
  5 12  1  0
  5  6  2  0
  8  7  1  1
  8  9  1  0
 10  8  1  0
 11 13  1  0
 11 10  1  1
 12 11  1  0
 13 14  2  0
 15 13  1  0
 16 15  1  0
 16 17  1  6
 17 18  1  0
 18 19  2  0
 19 20  1  0
 21 22  2  0
 21 20  1  0
 23 22  1  0
 24 23  2  0
 25 24  1  0
 25 26  2  0
 26 18  1  0
 26 21  1  0
 27 16  1  0
 28 27  1  0
 29 27  2  0
M  END
$$$$
