CLW.pdb
     RDKit          3D

 29 30  0  0  1  0  0  0  0  0999 V2000
   28.8509  -19.5212  -15.0887 N   0  0  0  0  0  0  0  0  0  0  0  0
   28.8196  -19.2095  -13.6770 C   0  0  1  0  0  0  0  0  0  0  0  0
   27.5507  -18.4244  -13.4152 C   0  0  0  0  0  0  0  0  0  0  0  0
   27.7261  -16.7197  -14.0035 S   0  0  0  0  0  0  0  0  0  0  0  0
   28.8515  -20.4761  -12.9183 C   0  0  0  0  0  0  0  0  0  0  0  0
   28.2841  -21.4860  -13.3817 O   0  0  0  0  0  0  0  0  0  0  0  0
   33.0155  -21.6468   -9.3386 C   0  0  0  0  0  0  0  0  0  0  0  0
   31.9945  -21.6600  -10.5033 C   0  0  1  0  0  0  0  0  0  0  0  0
   32.4834  -22.7839  -11.4090 C   0  0  0  0  0  0  0  0  0  0  0  0
   30.6468  -21.9185   -9.9344 C   0  0  0  0  0  0  0  0  0  0  0  0
   29.4800  -21.7927  -10.8674 C   0  0  2  0  0  0  0  0  0  0  0  0
   29.5141  -20.6065  -11.6524 N   0  0  0  0  0  0  0  0  0  0  0  0
   28.1923  -21.9993  -10.1353 C   0  0  0  0  0  0  0  0  0  0  0  0
   28.0114  -23.1004   -9.5520 O   0  0  0  0  0  0  0  0  0  0  0  0
   27.1892  -21.0242  -10.0744 N   0  0  0  0  0  0  0  0  0  0  0  0
   25.9382  -21.2021   -9.3450 C   0  0  1  0  0  0  0  0  0  0  0  0
   26.2858  -21.3935   -7.8728 C   0  0  0  0  0  0  0  0  0  0  0  0
   26.9028  -20.1444   -7.3145 C   0  0  0  0  0  0  0  0  0  0  0  0
   26.8107  -18.8621   -7.8135 C   0  0  0  0  0  0  0  0  0  0  0  0
   27.5036  -18.0174   -7.0296 N   0  0  0  0  0  0  0  0  0  0  0  0
   28.0659  -18.6996   -6.0063 C   0  0  0  0  0  0  0  0  0  0  0  0
   28.8576  -18.2953   -4.9518 C   0  0  0  0  0  0  0  0  0  0  0  0
   29.2965  -19.2313   -4.0388 C   0  0  0  0  0  0  0  0  0  0  0  0
   28.9182  -20.5507   -4.2237 C   0  0  0  0  0  0  0  0  0  0  0  0
   28.1273  -20.9615   -5.2752 C   0  0  0  0  0  0  0  0  0  0  0  0
   27.6886  -20.0350   -6.1853 C   0  0  0  0  0  0  0  0  0  0  0  0
   25.1093  -19.9825   -9.4492 C   0  0  0  0  0  0  0  0  0  0  0  0
   23.8107  -19.9176   -8.9444 O   0  0  0  0  0  0  0  0  0  0  0  0
   25.6009  -18.9661  -10.0171 O   0  0  0  0  0  0  0  0  0  0  0  0
  2  1  1  6
  2  3  1  0
  2  5  1  0
  3  4  1  0
  5 12  1  0
  5  6  2  0
  8  7  1  1
  8  9  1  0
 10  8  1  0
 11 13  1  0
 11 10  1  1
 12 11  1  0
 13 14  2  0
 15 13  1  0
 16 15  1  0
 16 17  1  1
 17 18  1  0
 18 19  2  0
 19 20  1  0
 21 22  2  0
 21 20  1  0
 23 22  1  0
 24 23  2  0
 25 24  1  0
 25 26  2  0
 26 18  1  0
 26 21  1  0
 27 16  1  0
 28 27  1  0
 29 27  2  0
M  END
$$$$
