QYI.pdb
     RDKit          3D

 30 30  0  0  1  0  0  0  0  0999 V2000
   36.3180  -32.8489  -21.1216 N   0  0  0  0  0  0  0  0  0  0  0  0
   35.7915  -31.5733  -20.7887 C   0  0  0  0  0  0  0  0  0  0  0  0
   35.5854  -30.7380  -21.7072 O   0  0  0  0  0  0  0  0  0  0  0  0
   35.4873  -31.2323  -19.3610 C   0  0  0  0  0  0  0  0  0  0  0  0
   34.0559  -31.6211  -19.0219 C   0  0  0  0  0  0  0  0  0  0  0  0
   33.1524  -30.4243  -19.2049 C   0  0  2  0  0  0  0  0  0  0  0  0
   33.3955  -29.4286  -18.1787 N   0  0  0  0  0  0  0  0  0  0  0  0
   31.7138  -30.7921  -19.1610 C   0  0  0  0  0  0  0  0  0  0  0  0
   31.2191  -31.6289  -19.9906 O   0  0  0  0  0  0  0  0  0  0  0  0
   23.9239  -32.7302  -15.5816 O   0  0  0  0  0  0  0  0  0  0  0  0
   25.2203  -32.3234  -15.8527 C   0  0  0  0  0  0  0  0  0  0  0  0
   26.1716  -33.2631  -16.2126 C   0  0  0  0  0  0  0  0  0  0  0  0
   27.4628  -32.8210  -16.4777 C   0  0  0  0  0  0  0  0  0  0  0  0
   27.8051  -31.4906  -16.3901 C   0  0  0  0  0  0  0  0  0  0  0  0
   29.1724  -31.0014  -16.6646 C   0  0  0  0  0  0  0  0  0  0  0  0
   29.4075  -30.6644  -18.1254 C   0  0  2  0  0  0  0  0  0  0  0  0
   30.8012  -30.2546  -18.2168 N   0  0  0  0  0  0  0  0  0  0  0  0
   28.4973  -29.6119  -18.6226 C   0  0  0  0  0  0  0  0  0  0  0  0
   28.6820  -28.3890  -18.4003 O   0  0  0  0  0  0  0  0  0  0  0  0
   26.8437  -30.5729  -16.0306 C   0  0  0  0  0  0  0  0  0  0  0  0
   25.5340  -30.9839  -15.7568 C   0  0  0  0  0  0  0  0  0  0  0  0
   27.4544  -28.6060  -23.5144 C   0  0  0  0  0  0  0  0  0  0  0  0
   27.6515  -28.6270  -22.0076 C   0  0  0  0  0  0  0  0  0  0  0  0
   26.3181  -28.8783  -21.3794 C   0  0  2  0  0  0  0  0  0  0  0  0
   25.4026  -27.7148  -21.7447 C   0  0  0  0  0  0  0  0  0  0  0  0
   26.4176  -28.8934  -19.8706 C   0  0  2  0  0  0  0  0  0  0  0  0
   27.3251  -29.9243  -19.4039 N   0  0  0  0  0  0  0  0  0  0  0  0
   25.0771  -29.0915  -19.3189 C   0  0  0  0  0  0  0  0  0  0  0  0
   24.4731  -30.1881  -19.4053 O   0  0  0  0  0  0  0  0  0  0  0  0
   24.4331  -28.0477  -18.6751 O   0  0  0  0  0  0  0  0  0  0  0  0
  1  2  1  0
  2  4  1  0
  3  2  2  0
  4  5  1  0
  5  6  1  0
  6  7  1  1
  6  8  1  0
  8  9  2  0
  8 17  1  0
 10 11  1  0
 11 12  2  0
 12 13  1  0
 14 13  2  0
 14 15  1  0
 16 18  1  0
 16 15  1  1
 17 16  1  0
 18 19  2  0
 20 14  1  0
 21 11  1  0
 21 20  2  0
 22 23  1  0
 23 24  1  0
 24 26  1  0
 24 25  1  1
 26 28  1  0
 27 18  1  0
 26 27  1  6
 28 29  2  0
 28 30  1  0
M  END
$$$$
