QYI.pdb
     RDKit          3D

 30 30  0  0  1  0  0  0  0  0999 V2000
   28.9497  -19.0949  -19.2650 N   0  0  0  0  0  0  0  0  0  0  0  0
   27.6799  -19.1563  -18.6333 C   0  0  0  0  0  0  0  0  0  0  0  0
   27.2462  -18.1394  -18.0320 O   0  0  0  0  0  0  0  0  0  0  0  0
   26.8720  -20.4178  -18.6855 C   0  0  0  0  0  0  0  0  0  0  0  0
   26.4710  -20.8430  -17.2806 C   0  0  0  0  0  0  0  0  0  0  0  0
   27.7075  -21.2074  -16.4929 C   0  0  2  0  0  0  0  0  0  0  0  0
   28.3513  -22.3812  -17.0509 N   0  0  0  0  0  0  0  0  0  0  0  0
   27.4055  -21.4807  -15.0642 C   0  0  0  0  0  0  0  0  0  0  0  0
   26.6262  -22.4345  -14.7233 O   0  0  0  0  0  0  0  0  0  0  0  0
   27.4972  -20.0931   -6.2679 O   0  0  0  0  0  0  0  0  0  0  0  0
   27.7598  -20.0967   -7.6283 C   0  0  0  0  0  0  0  0  0  0  0  0
   27.1322  -19.1751   -8.4493 C   0  0  0  0  0  0  0  0  0  0  0  0
   27.4181  -19.2062   -9.8095 C   0  0  0  0  0  0  0  0  0  0  0  0
   28.2977  -20.1204  -10.3438 C   0  0  0  0  0  0  0  0  0  0  0  0
   28.6123  -20.1719  -11.7869 C   0  0  0  0  0  0  0  0  0  0  0  0
   27.5710  -20.9160  -12.6023 C   0  0  2  0  0  0  0  0  0  0  0  0
   27.9469  -20.7213  -13.9949 N   0  0  0  0  0  0  0  0  0  0  0  0
   26.1954  -20.4448  -12.3391 C   0  0  0  0  0  0  0  0  0  0  0  0
   25.7769  -19.3194  -12.7098 O   0  0  0  0  0  0  0  0  0  0  0  0
   28.9109  -21.0280   -9.5095 C   0  0  0  0  0  0  0  0  0  0  0  0
   28.6457  -21.0243   -8.1352 C   0  0  0  0  0  0  0  0  0  0  0  0
   22.2823  -21.3701  -14.7596 C   0  0  0  0  0  0  0  0  0  0  0  0
   23.2396  -20.7390  -13.7620 C   0  0  0  0  0  0  0  0  0  0  0  0
   22.9092  -21.2840  -12.4094 C   0  0  2  0  0  0  0  0  0  0  0  0
   21.5381  -20.7480  -12.0117 C   0  0  0  0  0  0  0  0  0  0  0  0
   23.8861  -20.7900  -11.3663 C   0  0  2  0  0  0  0  0  0  0  0  0
   25.2341  -21.2555  -11.6317 N   0  0  0  0  0  0  0  0  0  0  0  0
   23.4291  -21.2413  -10.0516 C   0  0  0  0  0  0  0  0  0  0  0  0
   22.3756  -20.8088   -9.5246 O   0  0  0  0  0  0  0  0  0  0  0  0
   24.1680  -22.1768   -9.3463 O   0  0  0  0  0  0  0  0  0  0  0  0
  1  2  1  0
  2  4  1  0
  3  2  2  0
  4  5  1  0
  5  6  1  0
  6  7  1  6
  6  8  1  0
  8  9  2  0
  8 17  1  0
 10 11  1  0
 11 12  2  0
 12 13  1  0
 14 13  2  0
 14 15  1  0
 16 18  1  0
 16 15  1  1
 17 16  1  0
 18 19  2  0
 20 14  1  0
 21 11  1  0
 21 20  2  0
 22 23  1  0
 23 24  1  0
 24 26  1  0
 24 25  1  1
 26 28  1  0
 27 18  1  0
 26 27  1  6
 28 29  2  0
 28 30  1  0
M  END
$$$$
