QYI.pdb
     RDKit          3D

 30 30  0  0  1  0  0  0  0  0999 V2000
   24.0675  -19.8701  -15.9601 N   0  0  0  0  0  0  0  0  0  0  0  0
   24.7267  -18.6835  -15.5448 C   0  0  0  0  0  0  0  0  0  0  0  0
   24.1345  -17.5798  -15.6679 O   0  0  0  0  0  0  0  0  0  0  0  0
   26.1087  -18.7509  -14.9683 C   0  0  0  0  0  0  0  0  0  0  0  0
   26.5684  -20.1983  -14.8746 C   0  0  0  0  0  0  0  0  0  0  0  0
   27.5871  -20.3322  -13.7671 C   0  0  2  0  0  0  0  0  0  0  0  0
   28.1163  -21.6813  -13.7088 N   0  0  0  0  0  0  0  0  0  0  0  0
   27.0189  -20.0002  -12.4353 C   0  0  0  0  0  0  0  0  0  0  0  0
   26.7620  -18.7919  -12.1080 O   0  0  0  0  0  0  0  0  0  0  0  0
   20.4398  -19.5447  -12.7799 O   0  0  0  0  0  0  0  0  0  0  0  0
   21.5474  -20.0462  -12.1155 C   0  0  0  0  0  0  0  0  0  0  0  0
   22.3460  -20.9933  -12.7341 C   0  0  0  0  0  0  0  0  0  0  0  0
   23.4496  -21.4756  -12.0395 C   0  0  0  0  0  0  0  0  0  0  0  0
   23.7559  -21.0360  -10.7715 C   0  0  0  0  0  0  0  0  0  0  0  0
   24.9223  -21.5386  -10.0156 C   0  0  0  0  0  0  0  0  0  0  0  0
   26.1502  -20.6573  -10.1503 C   0  0  2  0  0  0  0  0  0  0  0  0
   26.7251  -20.9768  -11.4488 N   0  0  0  0  0  0  0  0  0  0  0  0
   27.1242  -20.8637   -9.0584 C   0  0  0  0  0  0  0  0  0  0  0  0
   27.9180  -21.8373   -9.0271 O   0  0  0  0  0  0  0  0  0  0  0  0
   22.9486  -20.0937  -10.1749 C   0  0  0  0  0  0  0  0  0  0  0  0
   21.8296  -19.5870  -10.8461 C   0  0  0  0  0  0  0  0  0  0  0  0
   30.2607  -18.1433   -4.5712 C   0  0  0  0  0  0  0  0  0  0  0  0
   29.5813  -19.4156   -5.0502 C   0  0  0  0  0  0  0  0  0  0  0  0
   28.7132  -19.0558   -6.2132 C   0  0  2  0  0  0  0  0  0  0  0  0
   27.6331  -18.1025   -5.7132 C   0  0  0  0  0  0  0  0  0  0  0  0
   27.9984  -20.2710   -6.7599 C   0  0  2  0  0  0  0  0  0  0  0  0
   27.2273  -19.9505   -7.9460 N   0  0  0  0  0  0  0  0  0  0  0  0
   27.1363  -20.8140   -5.7098 C   0  0  0  0  0  0  0  0  0  0  0  0
   25.8945  -20.6335   -5.7035 O   0  0  0  0  0  0  0  0  0  0  0  0
   27.6871  -21.5555   -4.6776 O   0  0  0  0  0  0  0  0  0  0  0  0
  1  2  1  0
  2  4  1  0
  3  2  2  0
  4  5  1  0
  5  6  1  0
  6  7  1  1
  6  8  1  0
  8  9  2  0
  8 17  1  0
 10 11  1  0
 11 12  2  0
 12 13  1  0
 14 13  2  0
 14 15  1  0
 16 18  1  0
 16 15  1  1
 17 16  1  0
 18 19  2  0
 20 14  1  0
 21 11  1  0
 21 20  2  0
 22 23  1  0
 23 24  1  0
 24 26  1  0
 24 25  1  1
 26 28  1  0
 27 18  1  0
 26 27  1  6
 28 29  2  0
 28 30  1  0
M  END
$$$$
