QYI.pdb
     RDKit          3D

 30 30  0  0  1  0  0  0  0  0999 V2000
   23.4080  -22.9215  -14.3210 N   0  0  0  0  0  0  0  0  0  0  0  0
   23.8459  -21.9023  -15.2068 C   0  0  0  0  0  0  0  0  0  0  0  0
   23.1579  -21.6426  -16.2282 O   0  0  0  0  0  0  0  0  0  0  0  0
   25.1110  -21.1497  -14.9239 C   0  0  0  0  0  0  0  0  0  0  0  0
   25.7320  -21.6368  -13.6231 C   0  0  0  0  0  0  0  0  0  0  0  0
   24.9399  -21.0985  -12.4547 C   0  0  2  0  0  0  0  0  0  0  0  0
   24.6856  -19.6791  -12.6098 N   0  0  0  0  0  0  0  0  0  0  0  0
   25.6362  -21.3048  -11.1588 C   0  0  0  0  0  0  0  0  0  0  0  0
   26.0986  -22.4502  -10.8310 O   0  0  0  0  0  0  0  0  0  0  0  0
   30.0675  -19.3069   -3.7542 O   0  0  0  0  0  0  0  0  0  0  0  0
   29.3778  -19.2940   -4.9558 C   0  0  0  0  0  0  0  0  0  0  0  0
   29.7793  -20.1291   -5.9847 C   0  0  0  0  0  0  0  0  0  0  0  0
   29.0654  -20.0911   -7.1771 C   0  0  0  0  0  0  0  0  0  0  0  0
   27.9867  -19.2533   -7.3489 C   0  0  0  0  0  0  0  0  0  0  0  0
   27.2172  -19.1958   -8.6094 C   0  0  0  0  0  0  0  0  0  0  0  0
   26.4689  -20.4801   -8.9151 C   0  0  2  0  0  0  0  0  0  0  0  0
   25.8360  -20.2699  -10.2089 N   0  0  0  0  0  0  0  0  0  0  0  0
   25.4784  -20.8259   -7.8746 C   0  0  0  0  0  0  0  0  0  0  0  0
   24.3871  -20.2171   -7.7421 O   0  0  0  0  0  0  0  0  0  0  0  0
   27.6043  -18.4312   -6.3128 C   0  0  0  0  0  0  0  0  0  0  0  0
   28.3011  -18.4442   -5.0989 C   0  0  0  0  0  0  0  0  0  0  0  0
   24.8270  -24.8018   -3.1104 C   0  0  0  0  0  0  0  0  0  0  0  0
   24.2699  -23.6378   -3.9131 C   0  0  0  0  0  0  0  0  0  0  0  0
   25.2834  -23.2769   -4.9515 C   0  0  2  0  0  0  0  0  0  0  0  0
   26.5076  -22.7168   -4.2352 C   0  0  0  0  0  0  0  0  0  0  0  0
   24.7725  -22.1794   -5.8576 C   0  0  2  0  0  0  0  0  0  0  0  0
   25.7031  -21.8964   -6.9337 N   0  0  0  0  0  0  0  0  0  0  0  0
   24.5327  -20.9838   -5.0490 C   0  0  0  0  0  0  0  0  0  0  0  0
   25.3731  -20.0562   -4.9605 O   0  0  0  0  0  0  0  0  0  0  0  0
   23.3451  -20.8493   -4.3488 O   0  0  0  0  0  0  0  0  0  0  0  0
  1  2  1  0
  2  4  1  0
  3  2  2  0
  4  5  1  0
  5  6  1  0
  6  7  1  6
  6  8  1  0
  8  9  2  0
  8 17  1  0
 10 11  1  0
 11 12  2  0
 12 13  1  0
 14 13  2  0
 14 15  1  0
 16 18  1  0
 16 15  1  1
 17 16  1  0
 18 19  2  0
 20 14  1  0
 21 11  1  0
 21 20  2  0
 22 23  1  0
 23 24  1  0
 24 26  1  0
 24 25  1  1
 26 28  1  0
 27 18  1  0
 26 27  1  6
 28 29  2  0
 28 30  1  0
M  END
$$$$
