QYI.pdb
     RDKit          3D

 30 30  0  0  1  0  0  0  0  0999 V2000
   23.1647  -17.1332  -20.1186 N   0  0  0  0  0  0  0  0  0  0  0  0
   22.2229  -16.4158  -19.3354 C   0  0  0  0  0  0  0  0  0  0  0  0
   20.9944  -16.5819  -19.5521 O   0  0  0  0  0  0  0  0  0  0  0  0
   22.6917  -15.4750  -18.2667 C   0  0  0  0  0  0  0  0  0  0  0  0
   23.5604  -16.2148  -17.2601 C   0  0  0  0  0  0  0  0  0  0  0  0
   22.7656  -17.3400  -16.6403 C   0  0  2  0  0  0  0  0  0  0  0  0
   21.6135  -16.8281  -15.9232 N   0  0  0  0  0  0  0  0  0  0  0  0
   23.5769  -18.1491  -15.6947 C   0  0  0  0  0  0  0  0  0  0  0  0
   24.7925  -18.4469  -15.9530 O   0  0  0  0  0  0  0  0  0  0  0  0
   26.3583  -21.3460   -7.9610 O   0  0  0  0  0  0  0  0  0  0  0  0
   25.6161  -20.7960   -8.9936 C   0  0  0  0  0  0  0  0  0  0  0  0
   24.7593  -21.6010   -9.7252 C   0  0  0  0  0  0  0  0  0  0  0  0
   24.0294  -21.0172  -10.7544 C   0  0  0  0  0  0  0  0  0  0  0  0
   24.1419  -19.6781  -11.0528 C   0  0  0  0  0  0  0  0  0  0  0  0
   23.3773  -19.0397  -12.1447 C   0  0  0  0  0  0  0  0  0  0  0  0
   23.8708  -19.4235  -13.5274 C   0  0  2  0  0  0  0  0  0  0  0  0
   23.0752  -18.6409  -14.4620 N   0  0  0  0  0  0  0  0  0  0  0  0
   23.7544  -20.8722  -13.7940 C   0  0  0  0  0  0  0  0  0  0  0  0
   22.6490  -21.4545  -13.9292 O   0  0  0  0  0  0  0  0  0  0  0  0
   24.9996  -18.8957  -10.3127 C   0  0  0  0  0  0  0  0  0  0  0  0
   25.7494  -19.4514   -9.2695 C   0  0  0  0  0  0  0  0  0  0  0  0
   26.5583  -23.3534  -17.6067 C   0  0  0  0  0  0  0  0  0  0  0  0
   25.5072  -22.8887  -16.6121 C   0  0  0  0  0  0  0  0  0  0  0  0
   25.8066  -23.5388  -15.2993 C   0  0  2  0  0  0  0  0  0  0  0  0
   25.6595  -25.0458  -15.4796 C   0  0  0  0  0  0  0  0  0  0  0  0
   24.8038  -23.1294  -14.2441 C   0  0  2  0  0  0  0  0  0  0  0  0
   24.9150  -21.7205  -13.9174 N   0  0  0  0  0  0  0  0  0  0  0  0
   25.0153  -23.9573  -13.0565 C   0  0  0  0  0  0  0  0  0  0  0  0
   25.5899  -23.5206  -12.0300 O   0  0  0  0  0  0  0  0  0  0  0  0
   24.5749  -25.2705  -13.0417 O   0  0  0  0  0  0  0  0  0  0  0  0
  1  2  1  0
  2  4  1  0
  3  2  2  0
  4  5  1  0
  5  6  1  0
  6  7  1  1
  6  8  1  0
  8  9  2  0
  8 17  1  0
 10 11  1  0
 11 12  2  0
 12 13  1  0
 14 13  2  0
 14 15  1  0
 16 18  1  0
 16 15  1  1
 17 16  1  0
 18 19  2  0
 20 14  1  0
 21 11  1  0
 21 20  2  0
 22 23  1  0
 23 24  1  0
 24 26  1  0
 24 25  1  6
 26 28  1  0
 27 18  1  0
 26 27  1  1
 28 29  2  0
 28 30  1  0
M  END
$$$$
