QYI.pdb
     RDKit          3D

 30 30  0  0  1  0  0  0  0  0999 V2000
   25.7109  -24.9963  -15.8458 N   0  0  0  0  0  0  0  0  0  0  0  0
   26.7841  -25.2046  -16.7513 C   0  0  0  0  0  0  0  0  0  0  0  0
   26.8268  -26.2740  -17.4135 O   0  0  0  0  0  0  0  0  0  0  0  0
   27.8486  -24.1615  -16.9118 C   0  0  0  0  0  0  0  0  0  0  0  0
   27.5745  -22.9850  -15.9866 C   0  0  0  0  0  0  0  0  0  0  0  0
   26.7258  -21.9645  -16.7079 C   0  0  2  0  0  0  0  0  0  0  0  0
   27.5349  -21.1492  -17.5935 N   0  0  0  0  0  0  0  0  0  0  0  0
   26.0123  -21.0603  -15.7697 C   0  0  0  0  0  0  0  0  0  0  0  0
   26.5420  -19.9670  -15.3729 O   0  0  0  0  0  0  0  0  0  0  0  0
   23.5134  -16.4831  -19.3237 O   0  0  0  0  0  0  0  0  0  0  0  0
   23.3193  -17.3491  -18.2597 C   0  0  0  0  0  0  0  0  0  0  0  0
   23.2250  -16.8437  -16.9740 C   0  0  0  0  0  0  0  0  0  0  0  0
   23.0303  -17.7401  -15.9293 C   0  0  0  0  0  0  0  0  0  0  0  0
   22.9317  -19.0958  -16.1473 C   0  0  0  0  0  0  0  0  0  0  0  0
   22.7281  -20.0649  -15.0501 C   0  0  0  0  0  0  0  0  0  0  0  0
   24.0140  -20.4485  -14.3415 C   0  0  2  0  0  0  0  0  0  0  0  0
   24.7190  -21.3354  -15.2553 N   0  0  0  0  0  0  0  0  0  0  0  0
   23.7752  -21.0929  -13.0334 C   0  0  0  0  0  0  0  0  0  0  0  0
   23.2413  -22.2246  -12.9176 O   0  0  0  0  0  0  0  0  0  0  0  0
   23.0281  -19.5771  -17.4336 C   0  0  0  0  0  0  0  0  0  0  0  0
   23.2241  -18.7023  -18.5085 C   0  0  0  0  0  0  0  0  0  0  0  0
   26.6961  -19.6978   -8.4858 C   0  0  0  0  0  0  0  0  0  0  0  0
   26.0057  -20.5049   -9.5728 C   0  0  0  0  0  0  0  0  0  0  0  0
   24.5304  -20.3666   -9.3724 C   0  0  2  0  0  0  0  0  0  0  0  0
   24.1574  -21.1287   -8.1054 C   0  0  0  0  0  0  0  0  0  0  0  0
   23.7612  -21.0079  -10.5053 C   0  0  2  0  0  0  0  0  0  0  0  0
   24.1438  -20.4573  -11.7917 N   0  0  0  0  0  0  0  0  0  0  0  0
   22.3311  -20.8170  -10.2621 C   0  0  0  0  0  0  0  0  0  0  0  0
   21.7395  -19.7493  -10.5532 O   0  0  0  0  0  0  0  0  0  0  0  0
   21.5847  -21.8352   -9.6923 O   0  0  0  0  0  0  0  0  0  0  0  0
  1  2  1  0
  2  4  1  0
  3  2  2  0
  4  5  1  0
  5  6  1  0
  6  7  1  6
  6  8  1  0
  8  9  2  0
  8 17  1  0
 10 11  1  0
 11 12  2  0
 12 13  1  0
 14 13  2  0
 14 15  1  0
 16 18  1  0
 16 15  1  6
 17 16  1  0
 18 19  2  0
 20 14  1  0
 21 11  1  0
 21 20  2  0
 22 23  1  0
 23 24  1  0
 24 26  1  0
 24 25  1  1
 26 28  1  0
 27 18  1  0
 26 27  1  6
 28 29  2  0
 28 30  1  0
M  END
$$$$
