QYI.pdb
     RDKit          3D

 30 30  0  0  1  0  0  0  0  0999 V2000
   21.3348  -19.0864  -11.1395 N   0  0  0  0  0  0  0  0  0  0  0  0
   20.5253  -19.8586  -12.0132 C   0  0  0  0  0  0  0  0  0  0  0  0
   19.5984  -19.2922  -12.6487 O   0  0  0  0  0  0  0  0  0  0  0  0
   20.7763  -21.3279  -12.1723 C   0  0  0  0  0  0  0  0  0  0  0  0
   22.0737  -21.7170  -11.4791 C   0  0  0  0  0  0  0  0  0  0  0  0
   23.2394  -21.0805  -12.1988 C   0  0  2  0  0  0  0  0  0  0  0  0
   23.3653  -21.6023  -13.5462 N   0  0  0  0  0  0  0  0  0  0  0  0
   24.5277  -21.3047  -11.4938 C   0  0  0  0  0  0  0  0  0  0  0  0
   25.0583  -22.4660  -11.4385 O   0  0  0  0  0  0  0  0  0  0  0  0
   28.3354  -20.7920  -16.3452 O   0  0  0  0  0  0  0  0  0  0  0  0
   28.1154  -20.4592  -15.0183 C   0  0  0  0  0  0  0  0  0  0  0  0
   27.3266  -19.3641  -14.7088 C   0  0  0  0  0  0  0  0  0  0  0  0
   27.1263  -19.0580  -13.3675 C   0  0  0  0  0  0  0  0  0  0  0  0
   27.6881  -19.8107  -12.3612 C   0  0  0  0  0  0  0  0  0  0  0  0
   27.4898  -19.4998  -10.9300 C   0  0  0  0  0  0  0  0  0  0  0  0
   26.5544  -20.4676  -10.2293 C   0  0  2  0  0  0  0  0  0  0  0  0
   25.2497  -20.2707  -10.8437 N   0  0  0  0  0  0  0  0  0  0  0  0
   26.5048  -20.2573   -8.7675 C   0  0  0  0  0  0  0  0  0  0  0  0
   25.5103  -19.7588   -8.1832 O   0  0  0  0  0  0  0  0  0  0  0  0
   28.4690  -20.8956  -12.6911 C   0  0  0  0  0  0  0  0  0  0  0  0
   28.6912  -21.2318  -14.0316 C   0  0  0  0  0  0  0  0  0  0  0  0
   30.7720  -22.0121   -5.2948 C   0  0  0  0  0  0  0  0  0  0  0  0
   29.3530  -21.8966   -5.8267 C   0  0  0  0  0  0  0  0  0  0  0  0
   29.0170  -20.4420   -5.9095 C   0  0  2  0  0  0  0  0  0  0  0  0
   28.9605  -19.8935   -4.4878 C   0  0  0  0  0  0  0  0  0  0  0  0
   27.6454  -20.2300   -6.5098 C   0  0  2  0  0  0  0  0  0  0  0  0
   27.6073  -20.6146   -7.9079 N   0  0  0  0  0  0  0  0  0  0  0  0
   27.2797  -18.8227   -6.3471 C   0  0  0  0  0  0  0  0  0  0  0  0
   27.7832  -17.9147   -7.0519 O   0  0  0  0  0  0  0  0  0  0  0  0
   26.3486  -18.4565   -5.3892 O   0  0  0  0  0  0  0  0  0  0  0  0
  1  2  1  0
  2  4  1  0
  3  2  2  0
  4  5  1  0
  5  6  1  0
  6  7  1  6
  6  8  1  0
  8  9  2  0
  8 17  1  0
 10 11  1  0
 11 12  2  0
 12 13  1  0
 14 13  2  0
 14 15  1  0
 16 18  1  0
 16 15  1  6
 17 16  1  0
 18 19  2  0
 20 14  1  0
 21 11  1  0
 21 20  2  0
 22 23  1  0
 23 24  1  0
 24 26  1  0
 24 25  1  1
 26 28  1  0
 27 18  1  0
 26 27  1  6
 28 29  2  0
 28 30  1  0
M  END
$$$$
