QYI.pdb
     RDKit          3D

 30 30  0  0  1  0  0  0  0  0999 V2000
   18.0033  -21.4417  -13.9486 N   0  0  0  0  0  0  0  0  0  0  0  0
   17.3760  -20.7293  -15.0042 C   0  0  0  0  0  0  0  0  0  0  0  0
   16.2742  -21.1424  -15.4506 O   0  0  0  0  0  0  0  0  0  0  0  0
   18.0222  -19.5030  -15.5747 C   0  0  0  0  0  0  0  0  0  0  0  0
   19.3705  -19.2632  -14.9115 C   0  0  0  0  0  0  0  0  0  0  0  0
   20.4763  -19.5704  -15.8938 C   0  0  2  0  0  0  0  0  0  0  0  0
   20.3559  -20.9223  -16.4050 N   0  0  0  0  0  0  0  0  0  0  0  0
   21.8250  -19.4231  -15.2886 C   0  0  0  0  0  0  0  0  0  0  0  0
   22.2406  -18.2909  -14.8661 O   0  0  0  0  0  0  0  0  0  0  0  0
   20.1719  -19.6795   -9.3603 O   0  0  0  0  0  0  0  0  0  0  0  0
   21.0718  -20.1031  -10.3248 C   0  0  0  0  0  0  0  0  0  0  0  0
   20.6892  -21.0674  -11.2419 C   0  0  0  0  0  0  0  0  0  0  0  0
   21.6166  -21.4698  -12.1963 C   0  0  0  0  0  0  0  0  0  0  0  0
   22.8846  -20.9362  -12.2440 C   0  0  0  0  0  0  0  0  0  0  0  0
   23.8856  -21.3531  -13.2483 C   0  0  0  0  0  0  0  0  0  0  0  0
   23.9948  -20.3956  -14.4205 C   0  0  2  0  0  0  0  0  0  0  0  0
   22.7326  -20.5032  -15.1372 N   0  0  0  0  0  0  0  0  0  0  0  0
   25.1458  -20.6949  -15.2975 C   0  0  0  0  0  0  0  0  0  0  0  0
   25.2203  -21.7387  -15.9932 O   0  0  0  0  0  0  0  0  0  0  0  0
   23.2444  -19.9785  -11.3227 C   0  0  0  0  0  0  0  0  0  0  0  0
   22.3352  -19.5505  -10.3483 C   0  0  0  0  0  0  0  0  0  0  0  0
   30.1169  -17.8497  -17.7041 C   0  0  0  0  0  0  0  0  0  0  0  0
   29.4038  -19.1595  -17.4113 C   0  0  0  0  0  0  0  0  0  0  0  0
   28.2482  -18.8554  -16.5126 C   0  0  2  0  0  0  0  0  0  0  0  0
   28.8070  -18.4629  -15.1491 C   0  0  0  0  0  0  0  0  0  0  0  0
   27.3890  -20.0801  -16.2918 C   0  0  2  0  0  0  0  0  0  0  0  0
   26.2702  -19.7981  -15.4126 N   0  0  0  0  0  0  0  0  0  0  0  0
   28.2292  -21.1434  -15.7402 C   0  0  0  0  0  0  0  0  0  0  0  0
   28.2592  -21.4039  -14.5130 O   0  0  0  0  0  0  0  0  0  0  0  0
   29.0268  -21.9012  -16.5817 O   0  0  0  0  0  0  0  0  0  0  0  0
  1  2  1  0
  2  4  1  0
  3  2  2  0
  4  5  1  0
  5  6  1  0
  6  7  1  1
  6  8  1  0
  8  9  2  0
  8 17  1  0
 10 11  1  0
 11 12  2  0
 12 13  1  0
 14 13  2  0
 14 15  1  0
 16 18  1  0
 16 15  1  1
 17 16  1  0
 18 19  2  0
 20 14  1  0
 21 11  1  0
 21 20  2  0
 22 23  1  0
 23 24  1  0
 24 26  1  0
 24 25  1  1
 26 28  1  0
 27 18  1  0
 26 27  1  1
 28 29  2  0
 28 30  1  0
M  END
$$$$
