QYI.pdb
     RDKit          3D

 30 30  0  0  1  0  0  0  0  0999 V2000
   28.2513  -21.7516  -17.6898 N   0  0  0  0  0  0  0  0  0  0  0  0
   28.6495  -23.0058  -18.2223 C   0  0  0  0  0  0  0  0  0  0  0  0
   29.8440  -23.1647  -18.5854 O   0  0  0  0  0  0  0  0  0  0  0  0
   27.6562  -24.1214  -18.3477 C   0  0  0  0  0  0  0  0  0  0  0  0
   26.3024  -23.6819  -17.8100 C   0  0  0  0  0  0  0  0  0  0  0  0
   26.2726  -23.8652  -16.3108 C   0  0  2  0  0  0  0  0  0  0  0  0
   26.2289  -25.2719  -15.9605 N   0  0  0  0  0  0  0  0  0  0  0  0
   25.1038  -23.1959  -15.6841 C   0  0  0  0  0  0  0  0  0  0  0  0
   24.0458  -23.8499  -15.3905 O   0  0  0  0  0  0  0  0  0  0  0  0
   24.2404  -21.4748   -8.3417 O   0  0  0  0  0  0  0  0  0  0  0  0
   24.3383  -21.1468   -9.6843 C   0  0  0  0  0  0  0  0  0  0  0  0
   25.5412  -21.3248  -10.3467 C   0  0  0  0  0  0  0  0  0  0  0  0
   25.6050  -20.9855  -11.6934 C   0  0  0  0  0  0  0  0  0  0  0  0
   24.5136  -20.4851  -12.3666 C   0  0  0  0  0  0  0  0  0  0  0  0
   24.5622  -20.1156  -13.7968 C   0  0  0  0  0  0  0  0  0  0  0  0
   23.9520  -21.1637  -14.7089 C   0  0  2  0  0  0  0  0  0  0  0  0
   25.0742  -21.8123  -15.3713 N   0  0  0  0  0  0  0  0  0  0  0  0
   23.0024  -20.5893  -15.6844 C   0  0  0  0  0  0  0  0  0  0  0  0
   23.3447  -19.7559  -16.5605 O   0  0  0  0  0  0  0  0  0  0  0  0
   23.3271  -20.3160  -11.6890 C   0  0  0  0  0  0  0  0  0  0  0  0
   23.2282  -20.6475  -10.3327 C   0  0  0  0  0  0  0  0  0  0  0  0
   19.8439  -23.3727  -18.8722 C   0  0  0  0  0  0  0  0  0  0  0  0
   20.7345  -22.3297  -18.2174 C   0  0  0  0  0  0  0  0  0  0  0  0
   19.8696  -21.4800  -17.3423 C   0  0  2  0  0  0  0  0  0  0  0  0
   18.8557  -20.7712  -18.2339 C   0  0  0  0  0  0  0  0  0  0  0  0
   20.6762  -20.3984  -16.6596 C   0  0  2  0  0  0  0  0  0  0  0  0
   21.6060  -20.9524  -15.6938 N   0  0  0  0  0  0  0  0  0  0  0  0
   19.7509  -19.4659  -16.0154 C   0  0  0  0  0  0  0  0  0  0  0  0
   19.2933  -19.6653  -14.8641 O   0  0  0  0  0  0  0  0  0  0  0  0
   19.3524  -18.3175  -16.6795 O   0  0  0  0  0  0  0  0  0  0  0  0
  1  2  1  0
  2  4  1  0
  3  2  2  0
  4  5  1  0
  5  6  1  0
  6  7  1  6
  6  8  1  0
  8  9  2  0
  8 17  1  0
 10 11  1  0
 11 12  2  0
 12 13  1  0
 14 13  2  0
 14 15  1  0
 16 18  1  0
 16 15  1  1
 17 16  1  0
 18 19  2  0
 20 14  1  0
 21 11  1  0
 21 20  2  0
 22 23  1  0
 23 24  1  0
 24 26  1  0
 24 25  1  6
 26 28  1  0
 27 18  1  0
 26 27  1  1
 28 29  2  0
 28 30  1  0
M  END
$$$$
