QYI.pdb
     RDKit          3D

 30 30  0  0  1  0  0  0  0  0999 V2000
   25.1173  -20.9011  -15.9728 N   0  0  0  0  0  0  0  0  0  0  0  0
   26.2724  -20.8666  -16.7972 C   0  0  0  0  0  0  0  0  0  0  0  0
   26.3357  -21.6329  -17.7935 O   0  0  0  0  0  0  0  0  0  0  0  0
   27.3974  -19.9282  -16.4801 C   0  0  0  0  0  0  0  0  0  0  0  0
   27.0817  -19.1372  -15.2192 C   0  0  0  0  0  0  0  0  0  0  0  0
   27.7742  -19.7754  -14.0381 C   0  0  2  0  0  0  0  0  0  0  0  0
   27.9923  -21.1909  -14.2668 N   0  0  0  0  0  0  0  0  0  0  0  0
   26.9981  -19.6243  -12.7804 C   0  0  0  0  0  0  0  0  0  0  0  0
   26.6978  -18.4694  -12.3229 O   0  0  0  0  0  0  0  0  0  0  0  0
   20.5454  -18.7836  -13.9349 O   0  0  0  0  0  0  0  0  0  0  0  0
   21.5341  -19.4372  -13.2174 C   0  0  0  0  0  0  0  0  0  0  0  0
   22.4257  -20.2653  -13.8783 C   0  0  0  0  0  0  0  0  0  0  0  0
   23.4055  -20.9059  -13.1284 C   0  0  0  0  0  0  0  0  0  0  0  0
   23.5024  -20.7344  -11.7660 C   0  0  0  0  0  0  0  0  0  0  0  0
   24.5344  -21.4090  -10.9510 C   0  0  0  0  0  0  0  0  0  0  0  0
   25.7930  -20.5807  -10.7703 C   0  0  2  0  0  0  0  0  0  0  0  0
   26.5421  -20.7250  -12.0099 N   0  0  0  0  0  0  0  0  0  0  0  0
   26.5910  -21.0017   -9.6001 C   0  0  0  0  0  0  0  0  0  0  0  0
   27.1143  -22.1402   -9.5049 O   0  0  0  0  0  0  0  0  0  0  0  0
   22.6057  -19.9066  -11.1287 C   0  0  0  0  0  0  0  0  0  0  0  0
   21.6069  -19.2462  -11.8535 C   0  0  0  0  0  0  0  0  0  0  0  0
   29.5527  -18.9657   -4.5966 C   0  0  0  0  0  0  0  0  0  0  0  0
   28.7514  -20.0862   -5.2387 C   0  0  0  0  0  0  0  0  0  0  0  0
   28.1947  -19.5657   -6.5251 C   0  0  2  0  0  0  0  0  0  0  0  0
   27.2658  -18.4021   -6.1957 C   0  0  0  0  0  0  0  0  0  0  0  0
   27.3500  -20.6105   -7.2190 C   0  0  2  0  0  0  0  0  0  0  0  0
   26.8232  -20.1229   -8.4795 N   0  0  0  0  0  0  0  0  0  0  0  0
   26.2655  -21.0035   -6.3189 C   0  0  0  0  0  0  0  0  0  0  0  0
   25.0859  -20.6067   -6.4792 O   0  0  0  0  0  0  0  0  0  0  0  0
   26.5259  -21.8411   -5.2468 O   0  0  0  0  0  0  0  0  0  0  0  0
  1  2  1  0
  2  4  1  0
  3  2  2  0
  4  5  1  0
  5  6  1  0
  6  7  1  6
  6  8  1  0
  8  9  2  0
  8 17  1  0
 10 11  1  0
 11 12  2  0
 12 13  1  0
 14 13  2  0
 14 15  1  0
 16 18  1  0
 16 15  1  6
 17 16  1  0
 18 19  2  0
 20 14  1  0
 21 11  1  0
 21 20  2  0
 22 23  1  0
 23 24  1  0
 24 26  1  0
 24 25  1  1
 26 28  1  0
 27 18  1  0
 26 27  1  6
 28 29  2  0
 28 30  1  0
M  END
$$$$
