QYI.pdb
     RDKit          3D

 30 30  0  0  1  0  0  0  0  0999 V2000
   25.6026  -19.4885  -20.8421 N   0  0  0  0  0  0  0  0  0  0  0  0
   26.8630  -20.1382  -20.9093 C   0  0  0  0  0  0  0  0  0  0  0  0
   27.2287  -20.6524  -21.9982 O   0  0  0  0  0  0  0  0  0  0  0  0
   27.7413  -20.2074  -19.6966 C   0  0  0  0  0  0  0  0  0  0  0  0
   27.3659  -21.4109  -18.8445 C   0  0  0  0  0  0  0  0  0  0  0  0
   28.2143  -21.4270  -17.5947 C   0  0  2  0  0  0  0  0  0  0  0  0
   29.2222  -22.4675  -17.6648 N   0  0  0  0  0  0  0  0  0  0  0  0
   27.4064  -21.6475  -16.3677 C   0  0  0  0  0  0  0  0  0  0  0  0
   26.6814  -22.6911  -16.2315 O   0  0  0  0  0  0  0  0  0  0  0  0
   24.6829  -20.5301   -7.9945 O   0  0  0  0  0  0  0  0  0  0  0  0
   25.3461  -20.4946   -9.2105 C   0  0  0  0  0  0  0  0  0  0  0  0
   26.0981  -21.5856   -9.6123 C   0  0  0  0  0  0  0  0  0  0  0  0
   26.7507  -21.5169  -10.8380 C   0  0  0  0  0  0  0  0  0  0  0  0
   26.6637  -20.4040  -11.6434 C   0  0  0  0  0  0  0  0  0  0  0  0
   27.3524  -20.3103  -12.9477 C   0  0  0  0  0  0  0  0  0  0  0  0
   26.5700  -20.9382  -14.0863 C   0  0  2  0  0  0  0  0  0  0  0  0
   27.3792  -20.7375  -15.2794 N   0  0  0  0  0  0  0  0  0  0  0  0
   25.2200  -20.3574  -14.2405 C   0  0  0  0  0  0  0  0  0  0  0  0
   25.0231  -19.1929  -14.6695 O   0  0  0  0  0  0  0  0  0  0  0  0
   25.9104  -19.3302  -11.2247 C   0  0  0  0  0  0  0  0  0  0  0  0
   25.2404  -19.3661   -9.9963 C   0  0  0  0  0  0  0  0  0  0  0  0
   21.7941  -21.2296  -17.6295 C   0  0  0  0  0  0  0  0  0  0  0  0
   22.6147  -20.6525  -16.4878 C   0  0  0  0  0  0  0  0  0  0  0  0
   21.9520  -21.0493  -15.2075 C   0  0  2  0  0  0  0  0  0  0  0  0
   20.5700  -20.4055  -15.1774 C   0  0  0  0  0  0  0  0  0  0  0  0
   22.7056  -20.5125  -14.0115 C   0  0  2  0  0  0  0  0  0  0  0  0
   24.0283  -21.0983  -13.9046 N   0  0  0  0  0  0  0  0  0  0  0  0
   21.9185  -20.7815  -12.8078 C   0  0  0  0  0  0  0  0  0  0  0  0
   21.9876  -21.8734  -12.1932 O   0  0  0  0  0  0  0  0  0  0  0  0
   21.0614  -19.8132  -12.3114 O   0  0  0  0  0  0  0  0  0  0  0  0
  1  2  1  0
  2  4  1  0
  3  2  2  0
  4  5  1  0
  5  6  1  0
  6  7  1  6
  6  8  1  0
  8  9  2  0
  8 17  1  0
 10 11  1  0
 11 12  2  0
 12 13  1  0
 14 13  2  0
 14 15  1  0
 16 18  1  0
 16 15  1  1
 17 16  1  0
 18 19  2  0
 20 14  1  0
 21 11  1  0
 21 20  2  0
 22 23  1  0
 23 24  1  0
 24 26  1  0
 24 25  1  6
 26 28  1  0
 27 18  1  0
 26 27  1  1
 28 29  2  0
 28 30  1  0
M  END
$$$$
