QYI.pdb
     RDKit          3D

 30 30  0  0  1  0  0  0  0  0999 V2000
   29.1848  -17.1371  -16.0006 N   0  0  0  0  0  0  0  0  0  0  0  0
   28.6236  -18.0389  -16.9423 C   0  0  0  0  0  0  0  0  0  0  0  0
   29.2062  -18.2137  -18.0441 O   0  0  0  0  0  0  0  0  0  0  0  0
   27.3544  -18.7697  -16.6228 C   0  0  0  0  0  0  0  0  0  0  0  0
   26.9068  -18.4490  -15.2043 C   0  0  0  0  0  0  0  0  0  0  0  0
   27.5433  -19.4249  -14.2429 C   0  0  2  0  0  0  0  0  0  0  0  0
   27.5244  -20.7714  -14.7816 N   0  0  0  0  0  0  0  0  0  0  0  0
   26.8592  -19.4447  -12.9243 C   0  0  0  0  0  0  0  0  0  0  0  0
   26.5738  -18.3606  -12.3107 O   0  0  0  0  0  0  0  0  0  0  0  0
   20.5100  -19.5426  -14.6071 O   0  0  0  0  0  0  0  0  0  0  0  0
   21.5133  -20.0709  -13.8110 C   0  0  0  0  0  0  0  0  0  0  0  0
   22.4151  -20.9710  -14.3532 C   0  0  0  0  0  0  0  0  0  0  0  0
   23.4095  -21.4819  -13.5267 C   0  0  0  0  0  0  0  0  0  0  0  0
   23.5107  -21.1153  -12.2037 C   0  0  0  0  0  0  0  0  0  0  0  0
   24.5582  -21.6495  -11.3083 C   0  0  0  0  0  0  0  0  0  0  0  0
   25.6822  -20.6648  -11.0445 C   0  0  2  0  0  0  0  0  0  0  0  0
   26.4798  -20.6407  -12.2619 N   0  0  0  0  0  0  0  0  0  0  0  0
   26.4971  -21.0297   -9.8672 C   0  0  0  0  0  0  0  0  0  0  0  0
   27.2534  -22.0330   -9.8453 O   0  0  0  0  0  0  0  0  0  0  0  0
   22.6036  -20.2188  -11.6848 C   0  0  0  0  0  0  0  0  0  0  0  0
   21.5901  -19.6851  -12.4891 C   0  0  0  0  0  0  0  0  0  0  0  0
   29.5948  -19.2684   -5.0281 C   0  0  0  0  0  0  0  0  0  0  0  0
   28.6226  -20.3107   -5.5555 C   0  0  0  0  0  0  0  0  0  0  0  0
   27.9686  -19.7445   -6.7751 C   0  0  2  0  0  0  0  0  0  0  0  0
   27.1089  -18.5631   -6.3388 C   0  0  0  0  0  0  0  0  0  0  0  0
   27.0336  -20.7484   -7.4112 C   0  0  2  0  0  0  0  0  0  0  0  0
   26.4765  -20.2490   -8.6540 N   0  0  0  0  0  0  0  0  0  0  0  0
   25.9722  -21.0650   -6.4553 C   0  0  0  0  0  0  0  0  0  0  0  0
   26.1971  -21.6809   -5.3854 O   0  0  0  0  0  0  0  0  0  0  0  0
   24.6674  -20.6819   -6.7188 O   0  0  0  0  0  0  0  0  0  0  0  0
  1  2  1  0
  2  4  1  0
  3  2  2  0
  4  5  1  0
  5  6  1  0
  6  7  1  6
  6  8  1  0
  8  9  2  0
  8 17  1  0
 10 11  1  0
 11 12  2  0
 12 13  1  0
 14 13  2  0
 14 15  1  0
 16 18  1  0
 16 15  1  6
 17 16  1  0
 18 19  2  0
 20 14  1  0
 21 11  1  0
 21 20  2  0
 22 23  1  0
 23 24  1  0
 24 26  1  0
 24 25  1  1
 26 28  1  0
 27 18  1  0
 26 27  1  6
 28 29  2  0
 28 30  1  0
M  END
$$$$
