QYI.pdb
     RDKit          3D

 30 30  0  0  1  0  0  0  0  0999 V2000
   28.0643  -18.5710  -19.5300 N   0  0  0  0  0  0  0  0  0  0  0  0
   27.9637  -19.7899  -20.2506 C   0  0  0  0  0  0  0  0  0  0  0  0
   28.9953  -20.4929  -20.4104 O   0  0  0  0  0  0  0  0  0  0  0  0
   26.6441  -20.2280  -20.8109 C   0  0  0  0  0  0  0  0  0  0  0  0
   25.5635  -19.2152  -20.4622 C   0  0  0  0  0  0  0  0  0  0  0  0
   25.0873  -19.4537  -19.0486 C   0  0  2  0  0  0  0  0  0  0  0  0
   24.5178  -20.7803  -18.9095 N   0  0  0  0  0  0  0  0  0  0  0  0
   24.0639  -18.4642  -18.6238 C   0  0  0  0  0  0  0  0  0  0  0  0
   22.8402  -18.5874  -18.9709 O   0  0  0  0  0  0  0  0  0  0  0  0
   20.5368  -20.6148  -13.6446 O   0  0  0  0  0  0  0  0  0  0  0  0
   21.2159  -19.5458  -14.2064 C   0  0  0  0  0  0  0  0  0  0  0  0
   20.5197  -18.4027  -14.5613 C   0  0  0  0  0  0  0  0  0  0  0  0
   21.2316  -17.3487  -15.1226 C   0  0  0  0  0  0  0  0  0  0  0  0
   22.5909  -17.4208  -15.3277 C   0  0  0  0  0  0  0  0  0  0  0  0
   23.3648  -16.3128  -15.9258 C   0  0  0  0  0  0  0  0  0  0  0  0
   23.3708  -16.3351  -17.4431 C   0  0  2  0  0  0  0  0  0  0  0  0
   24.3607  -17.3337  -17.8194 N   0  0  0  0  0  0  0  0  0  0  0  0
   23.6778  -15.0155  -18.0328 C   0  0  0  0  0  0  0  0  0  0  0  0
   24.8133  -14.4824  -17.9586 O   0  0  0  0  0  0  0  0  0  0  0  0
   23.2637  -18.5667  -14.9674 C   0  0  0  0  0  0  0  0  0  0  0  0
   22.5777  -19.6466  -14.3998 C   0  0  0  0  0  0  0  0  0  0  0  0
   22.7803  -11.6942  -22.9040 C   0  0  0  0  0  0  0  0  0  0  0  0
   22.9883  -11.5940  -21.4018 C   0  0  0  0  0  0  0  0  0  0  0  0
   22.7538  -12.9513  -20.8201 C   0  0  2  0  0  0  0  0  0  0  0  0
   21.2859  -13.3044  -21.0342 C   0  0  0  0  0  0  0  0  0  0  0  0
   22.9861  -12.9544  -19.3259 C   0  0  2  0  0  0  0  0  0  0  0  0
   22.6826  -14.2459  -18.7393 N   0  0  0  0  0  0  0  0  0  0  0  0
   22.1630  -11.9040  -18.7259 C   0  0  0  0  0  0  0  0  0  0  0  0
   22.3973  -10.6847  -18.9074 O   0  0  0  0  0  0  0  0  0  0  0  0
   21.0836  -12.2431  -17.9269 O   0  0  0  0  0  0  0  0  0  0  0  0
  1  2  1  0
  2  4  1  0
  3  2  2  0
  4  5  1  0
  5  6  1  0
  6  7  1  6
  6  8  1  0
  8  9  2  0
  8 17  1  0
 10 11  1  0
 11 12  2  0
 12 13  1  0
 14 13  2  0
 14 15  1  0
 16 18  1  0
 16 15  1  1
 17 16  1  0
 18 19  2  0
 20 14  1  0
 21 11  1  0
 21 20  2  0
 22 23  1  0
 23 24  1  0
 24 26  1  0
 24 25  1  1
 26 28  1  0
 27 18  1  0
 26 27  1  1
 28 29  2  0
 28 30  1  0
M  END
$$$$
