QYI.pdb
     RDKit          3D

 30 30  0  0  1  0  0  0  0  0999 V2000
   26.1186  -17.2925  -20.6370 N   0  0  0  0  0  0  0  0  0  0  0  0
   27.5250  -17.4816  -20.6741 C   0  0  0  0  0  0  0  0  0  0  0  0
   28.0838  -17.7001  -21.7804 O   0  0  0  0  0  0  0  0  0  0  0  0
   28.3277  -17.4207  -19.4095 C   0  0  0  0  0  0  0  0  0  0  0  0
   27.4185  -17.1320  -18.2241 C   0  0  0  0  0  0  0  0  0  0  0  0
   27.2228  -18.3960  -17.4203 C   0  0  2  0  0  0  0  0  0  0  0  0
   27.0849  -19.5483  -18.2903 N   0  0  0  0  0  0  0  0  0  0  0  0
   26.0225  -18.3290  -16.5477 C   0  0  0  0  0  0  0  0  0  0  0  0
   25.9105  -17.4322  -15.6441 O   0  0  0  0  0  0  0  0  0  0  0  0
   21.8569  -14.1646  -19.4664 O   0  0  0  0  0  0  0  0  0  0  0  0
   22.0223  -15.3769  -18.8163 C   0  0  0  0  0  0  0  0  0  0  0  0
   21.4055  -15.5886  -17.5948 C   0  0  0  0  0  0  0  0  0  0  0  0
   21.5923  -16.8163  -16.9695 C   0  0  0  0  0  0  0  0  0  0  0  0
   22.3654  -17.8059  -17.5333 C   0  0  0  0  0  0  0  0  0  0  0  0
   22.5788  -19.1159  -16.8831 C   0  0  0  0  0  0  0  0  0  0  0  0
   23.7104  -19.1071  -15.8721 C   0  0  2  0  0  0  0  0  0  0  0  0
   24.9348  -19.2345  -16.6488 N   0  0  0  0  0  0  0  0  0  0  0  0
   23.5882  -20.1846  -14.8684 C   0  0  0  0  0  0  0  0  0  0  0  0
   23.7606  -21.3981  -15.1455 O   0  0  0  0  0  0  0  0  0  0  0  0
   22.9697  -17.5745  -18.7486 C   0  0  0  0  0  0  0  0  0  0  0  0
   22.8025  -16.3498  -19.4054 C   0  0  0  0  0  0  0  0  0  0  0  0
   25.1277  -21.3605   -9.2190 C   0  0  0  0  0  0  0  0  0  0  0  0
   24.1259  -21.7264  -10.3018 C   0  0  0  0  0  0  0  0  0  0  0  0
   24.1257  -20.6230  -11.3108 C   0  0  2  0  0  0  0  0  0  0  0  0
   23.5328  -19.3840  -10.6484 C   0  0  0  0  0  0  0  0  0  0  0  0
   23.2329  -20.9549  -12.4853 C   0  0  2  0  0  0  0  0  0  0  0  0
   23.2596  -19.9095  -13.4906 N   0  0  0  0  0  0  0  0  0  0  0  0
   21.8726  -21.1655  -11.9895 C   0  0  0  0  0  0  0  0  0  0  0  0
   21.5355  -22.2117  -11.3840 O   0  0  0  0  0  0  0  0  0  0  0  0
   20.9073  -20.1912  -12.1834 O   0  0  0  0  0  0  0  0  0  0  0  0
  1  2  1  0
  2  4  1  0
  3  2  2  0
  4  5  1  0
  5  6  1  0
  6  7  1  6
  6  8  1  0
  8  9  2  0
  8 17  1  0
 10 11  1  0
 11 12  2  0
 12 13  1  0
 14 13  2  0
 14 15  1  0
 16 18  1  0
 16 15  1  6
 17 16  1  0
 18 19  2  0
 20 14  1  0
 21 11  1  0
 21 20  2  0
 22 23  1  0
 23 24  1  0
 24 26  1  0
 24 25  1  1
 26 28  1  0
 27 18  1  0
 26 27  1  6
 28 29  2  0
 28 30  1  0
M  END
$$$$
