RIC.pdb
     RDKit          3D

 26 25  0  0  1  0  0  0  0  0999 V2000
    7.3531  -14.0030   11.9168 N   0  0  0  0  0  0  0  0  0  0  0  0
    8.5333  -13.6135   12.5920 C   0  0  0  0  0  0  0  0  0  0  0  0
    9.4700  -13.0578   11.9083 N   0  0  0  0  0  0  0  0  0  0  0  0
    8.6948  -13.8243   13.9846 N   0  0  0  0  0  0  0  0  0  0  0  0
    8.1963  -15.0422   14.5884 C   0  0  0  0  0  0  0  0  0  0  0  0
    8.4432  -15.0239   16.0638 C   0  0  0  0  0  0  0  0  0  0  0  0
    9.3822  -16.1025   16.5278 C   0  0  0  0  0  0  0  0  0  0  0  0
   10.7923  -15.6499   16.3475 C   0  0  2  0  0  0  0  0  0  0  0  0
   11.2986  -16.1154   15.0723 N   0  0  0  0  0  0  0  0  0  0  0  0
   11.6931  -16.2119   17.4127 C   0  0  0  0  0  0  0  0  0  0  0  0
   12.0115  -17.4014   17.4240 O   0  0  0  0  0  0  0  0  0  0  0  0
   10.3751  -12.8421   12.3325 C   0  0  0  0  0  0  0  0  0  0  0  0
   16.0746  -13.4267   18.3115 C   0  0  0  0  0  0  0  0  0  0  0  0
   15.1425  -14.5710   18.3576 C   0  0  2  0  0  0  0  0  0  0  0  0
   14.1373  -14.6152   19.4336 C   0  0  0  0  0  0  0  0  0  0  0  0
   14.6862  -14.2996   20.8056 C   0  0  2  0  0  0  0  0  0  0  0  0
   13.1424  -15.7281   19.4436 N   0  0  0  0  0  0  0  0  0  0  0  0
   12.1581  -15.3330   18.3931 C   0  0  0  0  0  0  0  0  0  0  0  0
   12.3618  -15.9464   20.6471 O   0  0  0  0  0  0  0  0  0  0  0  0
   11.4497  -15.1078   20.9905 N   0  0  0  0  0  0  0  0  0  0  0  0
   12.4730  -17.0433   21.5580 C   0  0  1  0  0  0  0  0  0  0  0  0
   11.6043  -17.2016   22.7039 C   0  0  0  0  0  0  0  0  0  0  0  0
   10.1580  -17.4150   22.2480 S   0  0  0  0  0  0  0  0  0  0  0  0
    9.0673  -17.7798   23.6476 C   0  0  0  0  0  0  0  0  0  0  0  0
   12.0138  -18.2061   23.6755 O   0  0  0  0  0  0  0  0  0  0  0  0
   12.6812  -19.2114   23.3450 O   0  0  0  0  0  0  0  0  0  0  0  0
  1  2  1  0
  2  3  2  0
  4  2  1  0
  5  4  1  0
  6  5  1  0
  7  6  1  0
  8  7  1  0
  8  9  1  6
 10 11  2  0
 10  8  1  0
 13 12  1  0
 14 13  1  0
 14 15  1  6
 16 17  1  1
 16 14  1  0
 17 10  1  0
 18 16  1  0
 19 18  2  0
 20 18  1  0
 21 20  1  0
 22 23  1  0
 21 22  1  1
 24 21  1  0
 24 26  1  0
 25 24  2  0
M  END
$$$$
