RIC.pdb
     RDKit          3D

 26 25  0  0  1  0  0  0  0  0999 V2000
    6.2002  -22.4394   18.5558 N   0  0  0  0  0  0  0  0  0  0  0  0
    6.2034  -22.1741   17.1666 C   0  0  0  0  0  0  0  0  0  0  0  0
    5.0922  -22.2701   16.5265 N   0  0  0  0  0  0  0  0  0  0  0  0
    7.3918  -21.8118   16.4836 N   0  0  0  0  0  0  0  0  0  0  0  0
    8.3401  -20.9201   17.1175 C   0  0  0  0  0  0  0  0  0  0  0  0
    7.6818  -20.1821   18.2400 C   0  0  0  0  0  0  0  0  0  0  0  0
    8.6381  -19.3612   19.0600 C   0  0  0  0  0  0  0  0  0  0  0  0
    8.7193  -17.9806   18.5006 C   0  0  2  0  0  0  0  0  0  0  0  0
    9.5735  -17.9740   17.3303 N   0  0  0  0  0  0  0  0  0  0  0  0
    9.3169  -17.0182   19.4897 C   0  0  0  0  0  0  0  0  0  0  0  0
   10.5311  -16.8191   19.5402 O   0  0  0  0  0  0  0  0  0  0  0  0
    5.0483  -22.1012   15.5188 C   0  0  0  0  0  0  0  0  0  0  0  0
    8.3157  -12.4014   20.1387 C   0  0  0  0  0  0  0  0  0  0  0  0
    7.4159  -13.5412   20.4063 C   0  0  1  0  0  0  0  0  0  0  0  0
    7.7400  -14.4445   21.5240 C   0  0  0  0  0  0  0  0  0  0  0  0
    7.6651  -13.7942   22.8859 C   0  0  2  0  0  0  0  0  0  0  0  0
    8.8980  -15.3762   21.3837 N   0  0  0  0  0  0  0  0  0  0  0  0
    8.4423  -16.3552   20.3530 C   0  0  0  0  0  0  0  0  0  0  0  0
    9.2875  -16.1723   22.5325 O   0  0  0  0  0  0  0  0  0  0  0  0
    8.4472  -16.9768   23.0801 N   0  0  0  0  0  0  0  0  0  0  0  0
   10.5651  -16.1886   23.1752 C   0  0  1  0  0  0  0  0  0  0  0  0
   10.8574  -17.0276   24.3169 C   0  0  0  0  0  0  0  0  0  0  0  0
   12.3408  -17.4075   24.3304 S   0  0  0  0  0  0  0  0  0  0  0  0
   12.7726  -18.3458   25.8185 C   0  0  0  0  0  0  0  0  0  0  0  0
   10.4238  -16.5133   25.6085 O   0  0  0  0  0  0  0  0  0  0  0  0
   10.4258  -15.2892   25.8667 O   0  0  0  0  0  0  0  0  0  0  0  0
  1  2  1  0
  2  3  2  0
  4  2  1  0
  5  4  1  0
  6  5  1  0
  7  6  1  0
  8  7  1  0
  8  9  1  6
 10 11  2  0
 10  8  1  0
 13 12  1  0
 14 13  1  0
 14 15  1  1
 16 17  1  6
 16 14  1  0
 17 10  1  0
 18 16  1  0
 19 18  2  0
 20 18  1  0
 21 20  1  0
 22 23  1  0
 21 22  1  1
 24 21  1  0
 24 26  1  0
 25 24  2  0
M  END
$$$$
