RIC.pdb
     RDKit          3D

 26 25  0  0  1  0  0  0  0  0999 V2000
    7.0245  -20.7115   19.8051 N   0  0  0  0  0  0  0  0  0  0  0  0
    7.5568  -20.2617   18.5744 C   0  0  0  0  0  0  0  0  0  0  0  0
    7.2640  -20.9189   17.5085 N   0  0  0  0  0  0  0  0  0  0  0  0
    8.3932  -19.1192   18.5015 N   0  0  0  0  0  0  0  0  0  0  0  0
    8.7404  -18.4060   19.7127 C   0  0  0  0  0  0  0  0  0  0  0  0
    7.5069  -18.1017   20.5026 C   0  0  0  0  0  0  0  0  0  0  0  0
    7.7928  -17.5789   21.8830 C   0  0  0  0  0  0  0  0  0  0  0  0
    7.6944  -16.0903   21.8845 C   0  0  2  0  0  0  0  0  0  0  0  0
    8.2094  -15.5624   20.6374 N   0  0  0  0  0  0  0  0  0  0  0  0
    8.5111  -15.4839   22.9922 C   0  0  0  0  0  0  0  0  0  0  0  0
    9.6855  -15.1559   22.8199 O   0  0  0  0  0  0  0  0  0  0  0  0
    7.6976  -20.6883   16.6115 C   0  0  0  0  0  0  0  0  0  0  0  0
    5.9658  -11.8835   25.7672 C   0  0  0  0  0  0  0  0  0  0  0  0
    7.0599  -12.7069   25.2146 C   0  0  2  0  0  0  0  0  0  0  0  0
    7.5763  -13.8238   26.0245 C   0  0  0  0  0  0  0  0  0  0  0  0
    7.8900  -13.4559   27.4561 C   0  0  2  0  0  0  0  0  0  0  0  0
    8.5870  -14.7426   25.4219 N   0  0  0  0  0  0  0  0  0  0  0  0
    7.8879  -15.3050   24.2288 C   0  0  0  0  0  0  0  0  0  0  0  0
    9.0249  -15.8903   26.1942 O   0  0  0  0  0  0  0  0  0  0  0  0
    8.1643  -16.7129   26.6798 N   0  0  0  0  0  0  0  0  0  0  0  0
   10.3725  -16.2570   26.5022 C   0  0  1  0  0  0  0  0  0  0  0  0
   10.7071  -17.4288   27.2817 C   0  0  0  0  0  0  0  0  0  0  0  0
   12.0024  -18.0596   26.7624 S   0  0  0  0  0  0  0  0  0  0  0  0
   12.0210  -18.1444   24.9531 C   0  0  0  0  0  0  0  0  0  0  0  0
   10.7439  -17.2402   28.7252 O   0  0  0  0  0  0  0  0  0  0  0  0
   10.5158  -16.1287   29.2523 O   0  0  0  0  0  0  0  0  0  0  0  0
  1  2  1  0
  2  3  2  0
  4  2  1  0
  5  4  1  0
  6  5  1  0
  7  6  1  0
  8  7  1  0
  8  9  1  6
 10 11  2  0
 10  8  1  0
 13 12  1  0
 14 13  1  0
 14 15  1  6
 16 17  1  6
 16 14  1  0
 17 10  1  0
 18 16  1  0
 19 18  2  0
 20 18  1  0
 21 20  1  0
 22 23  1  0
 21 22  1  1
 24 21  1  0
 24 26  1  0
 25 24  2  0
M  END
$$$$
