RIC.pdb
     RDKit          3D

 26 25  0  0  1  0  0  0  0  0999 V2000
    5.5063  -21.3070   19.9537 N   0  0  0  0  0  0  0  0  0  0  0  0
    6.3660  -22.1098   20.7390 C   0  0  0  0  0  0  0  0  0  0  0  0
    6.7356  -23.2474   20.2668 N   0  0  0  0  0  0  0  0  0  0  0  0
    6.8160  -21.6863   22.0150 N   0  0  0  0  0  0  0  0  0  0  0  0
    6.3449  -20.4311   22.5615 C   0  0  0  0  0  0  0  0  0  0  0  0
    7.1475  -19.2956   22.0094 C   0  0  0  0  0  0  0  0  0  0  0  0
    7.4915  -18.2507   23.0343 C   0  0  0  0  0  0  0  0  0  0  0  0
    7.3937  -16.8952   22.4190 C   0  0  2  0  0  0  0  0  0  0  0  0
    7.9290  -16.9266   21.0730 N   0  0  0  0  0  0  0  0  0  0  0  0
    8.1928  -15.8802   23.1891 C   0  0  0  0  0  0  0  0  0  0  0  0
    9.3843  -15.6827   22.9484 O   0  0  0  0  0  0  0  0  0  0  0  0
    7.3956  -23.8399   20.7758 C   0  0  0  0  0  0  0  0  0  0  0  0
    6.3249  -11.4396   27.0859 C   0  0  0  0  0  0  0  0  0  0  0  0
    7.4233  -12.2999   26.6024 C   0  0  2  0  0  0  0  0  0  0  0  0
    7.1182  -13.3259   25.5901 C   0  0  0  0  0  0  0  0  0  0  0  0
    5.8354  -14.0828   25.8443 C   0  0  2  0  0  0  0  0  0  0  0  0
    8.2235  -14.1982   25.0940 N   0  0  0  0  0  0  0  0  0  0  0  0
    7.5330  -15.1661   24.1913 C   0  0  0  0  0  0  0  0  0  0  0  0
    8.9478  -15.0094   26.0546 O   0  0  0  0  0  0  0  0  0  0  0  0
    8.3794  -16.0195   26.6111 N   0  0  0  0  0  0  0  0  0  0  0  0
   10.2985  -14.8290   26.4886 C   0  0  1  0  0  0  0  0  0  0  0  0
   10.9439  -15.7163   27.4315 C   0  0  0  0  0  0  0  0  0  0  0  0
   12.4566  -15.7342   27.1937 S   0  0  0  0  0  0  0  0  0  0  0  0
   13.3036  -16.8043   28.3847 C   0  0  0  0  0  0  0  0  0  0  0  0
   10.6244  -15.4909   28.8343 O   0  0  0  0  0  0  0  0  0  0  0  0
   10.3279  -14.3563   29.2704 O   0  0  0  0  0  0  0  0  0  0  0  0
  1  2  1  0
  2  3  2  0
  4  2  1  0
  5  4  1  0
  6  5  1  0
  7  6  1  0
  8  7  1  0
  8  9  1  6
 10 11  2  0
 10  8  1  0
 13 12  1  0
 14 13  1  0
 14 15  1  6
 16 17  1  1
 16 14  1  0
 17 10  1  0
 18 16  1  0
 19 18  2  0
 20 18  1  0
 21 20  1  0
 22 23  1  0
 21 22  1  1
 24 21  1  0
 24 26  1  0
 25 24  2  0
M  END
$$$$
