RIC.pdb
     RDKit          3D

 26 25  0  0  1  0  0  0  0  0999 V2000
    9.8395  -14.7901   17.0548 N   0  0  0  0  0  0  0  0  0  0  0  0
    8.7240  -14.0864   16.5441 C   0  0  0  0  0  0  0  0  0  0  0  0
    8.4984  -14.1395   15.2792 N   0  0  0  0  0  0  0  0  0  0  0  0
    7.8687  -13.3372   17.3910 N   0  0  0  0  0  0  0  0  0  0  0  0
    8.1224  -13.3009   18.8160 C   0  0  0  0  0  0  0  0  0  0  0  0
    7.7247  -14.5998   19.4429 C   0  0  0  0  0  0  0  0  0  0  0  0
    6.9422  -14.4360   20.7162 C   0  0  0  0  0  0  0  0  0  0  0  0
    7.2830  -15.5413   21.6585 C   0  0  2  0  0  0  0  0  0  0  0  0
    6.0732  -16.0665   22.2581 N   0  0  0  0  0  0  0  0  0  0  0  0
    8.1597  -15.0591   22.7813 C   0  0  0  0  0  0  0  0  0  0  0  0
    9.3064  -14.6597   22.5759 O   0  0  0  0  0  0  0  0  0  0  0  0
    7.7180  -13.6275   14.8612 C   0  0  0  0  0  0  0  0  0  0  0  0
    5.5972  -11.9649   26.0060 C   0  0  0  0  0  0  0  0  0  0  0  0
    6.7385  -12.6318   25.3479 C   0  0  2  0  0  0  0  0  0  0  0  0
    7.3546  -13.7914   26.0156 C   0  0  0  0  0  0  0  0  0  0  0  0
    7.7369  -13.5440   27.4564 C   0  0  2  0  0  0  0  0  0  0  0  0
    8.3688  -14.5953   25.2713 N   0  0  0  0  0  0  0  0  0  0  0  0
    7.6252  -15.0802   24.0710 C   0  0  0  0  0  0  0  0  0  0  0  0
    8.9069  -15.7852   25.9036 O   0  0  0  0  0  0  0  0  0  0  0  0
    8.1185  -16.7068   26.3306 N   0  0  0  0  0  0  0  0  0  0  0  0
   10.2859  -16.0940   26.1241 C   0  0  1  0  0  0  0  0  0  0  0  0
   10.7233  -17.3207   26.7538 C   0  0  0  0  0  0  0  0  0  0  0  0
   12.0396  -17.7963   26.1322 S   0  0  0  0  0  0  0  0  0  0  0  0
   12.6389  -19.3113   26.9239 C   0  0  0  0  0  0  0  0  0  0  0  0
   10.7954  -17.2956   28.2080 O   0  0  0  0  0  0  0  0  0  0  0  0
   11.1546  -16.2738   28.8342 O   0  0  0  0  0  0  0  0  0  0  0  0
  1  2  1  0
  2  3  2  0
  4  2  1  0
  5  4  1  0
  6  5  1  0
  7  6  1  0
  8  7  1  0
  8  9  1  1
 10 11  2  0
 10  8  1  0
 13 12  1  0
 14 13  1  0
 14 15  1  6
 16 17  1  6
 16 14  1  0
 17 10  1  0
 18 16  1  0
 19 18  2  0
 20 18  1  0
 21 20  1  0
 22 23  1  0
 21 22  1  1
 24 21  1  0
 24 26  1  0
 25 24  2  0
M  END
$$$$
