RIC.pdb
     RDKit          3D

 26 25  0  0  1  0  0  0  0  0999 V2000
    7.8654  -18.3221   17.0518 N   0  0  0  0  0  0  0  0  0  0  0  0
    7.9201  -19.3116   18.0609 C   0  0  0  0  0  0  0  0  0  0  0  0
    8.8928  -20.1524   18.0360 N   0  0  0  0  0  0  0  0  0  0  0  0
    6.9361  -19.3881   19.0786 N   0  0  0  0  0  0  0  0  0  0  0  0
    6.2893  -18.1790   19.5434 C   0  0  0  0  0  0  0  0  0  0  0  0
    7.3159  -17.1721   19.9563 C   0  0  0  0  0  0  0  0  0  0  0  0
    7.3100  -16.8802   21.4311 C   0  0  0  0  0  0  0  0  0  0  0  0
    7.2854  -15.4046   21.6491 C   0  0  2  0  0  0  0  0  0  0  0  0
    7.7977  -14.7259   20.4760 N   0  0  0  0  0  0  0  0  0  0  0  0
    8.1560  -15.0029   22.8078 C   0  0  0  0  0  0  0  0  0  0  0  0
    9.3722  -14.8595   22.6791 O   0  0  0  0  0  0  0  0  0  0  0  0
    8.9505  -20.9117   18.7187 C   0  0  0  0  0  0  0  0  0  0  0  0
    5.7122  -11.5725   26.1064 C   0  0  0  0  0  0  0  0  0  0  0  0
    6.7568  -12.3358   25.3947 C   0  0  2  0  0  0  0  0  0  0  0  0
    7.2812  -13.5614   26.0217 C   0  0  0  0  0  0  0  0  0  0  0  0
    7.6259  -13.4082   27.4850 C   0  0  2  0  0  0  0  0  0  0  0  0
    8.2732  -14.3862   25.2705 N   0  0  0  0  0  0  0  0  0  0  0  0
    7.5335  -14.7971   24.0406 C   0  0  0  0  0  0  0  0  0  0  0  0
    8.7438  -15.6196   25.8728 O   0  0  0  0  0  0  0  0  0  0  0  0
    7.9081  -16.5335   26.2187 N   0  0  0  0  0  0  0  0  0  0  0  0
   10.1003  -15.9817   26.1450 C   0  0  1  0  0  0  0  0  0  0  0  0
   10.4683  -17.2427   26.7511 C   0  0  0  0  0  0  0  0  0  0  0  0
   11.7664  -17.7699   26.1329 S   0  0  0  0  0  0  0  0  0  0  0  0
   11.8047  -17.5045   24.3414 C   0  0  0  0  0  0  0  0  0  0  0  0
   10.5244  -17.2537   28.2062 O   0  0  0  0  0  0  0  0  0  0  0  0
   10.3558  -16.2142   28.8818 O   0  0  0  0  0  0  0  0  0  0  0  0
  1  2  1  0
  2  3  2  0
  4  2  1  0
  5  4  1  0
  6  5  1  0
  7  6  1  0
  8  7  1  0
  8  9  1  6
 10 11  2  0
 10  8  1  0
 13 12  1  0
 14 13  1  0
 14 15  1  6
 16 17  1  6
 16 14  1  0
 17 10  1  0
 18 16  1  0
 19 18  2  0
 20 18  1  0
 21 20  1  0
 22 23  1  0
 21 22  1  1
 24 21  1  0
 24 26  1  0
 25 24  2  0
M  END
$$$$
