RIC.pdb
     RDKit          3D

 26 25  0  0  1  0  0  0  0  0999 V2000
   11.1532  -20.6026   20.8099 N   0  0  0  0  0  0  0  0  0  0  0  0
   10.9203  -20.5048   19.4183 C   0  0  0  0  0  0  0  0  0  0  0  0
   11.2516  -21.5003   18.6747 N   0  0  0  0  0  0  0  0  0  0  0  0
   10.3390  -19.3466   18.8433 N   0  0  0  0  0  0  0  0  0  0  0  0
   10.4816  -18.0676   19.5066 C   0  0  0  0  0  0  0  0  0  0  0  0
   10.1252  -18.1957   20.9540 C   0  0  0  0  0  0  0  0  0  0  0  0
   10.3920  -16.9483   21.7497 C   0  0  0  0  0  0  0  0  0  0  0  0
    9.1429  -16.1379   21.8434 C   0  0  2  0  0  0  0  0  0  0  0  0
    8.9089  -15.4488   20.5906 N   0  0  0  0  0  0  0  0  0  0  0  0
    9.2456  -15.0866   22.9139 C   0  0  0  0  0  0  0  0  0  0  0  0
    9.9737  -14.1024   22.7809 O   0  0  0  0  0  0  0  0  0  0  0  0
   11.1237  -21.4661   17.6606 C   0  0  0  0  0  0  0  0  0  0  0  0
    6.9487  -11.5716   24.5385 C   0  0  0  0  0  0  0  0  0  0  0  0
    6.4420  -12.9578   24.4932 C   0  0  1  0  0  0  0  0  0  0  0  0
    7.0485  -13.9569   25.3899 C   0  0  0  0  0  0  0  0  0  0  0  0
    6.6518  -13.8075   26.8402 C   0  0  2  0  0  0  0  0  0  0  0  0
    8.4894  -14.3042   25.2106 N   0  0  0  0  0  0  0  0  0  0  0  0
    8.4826  -15.2665   24.0694 C   0  0  0  0  0  0  0  0  0  0  0  0
    9.1755  -14.9864   26.2919 O   0  0  0  0  0  0  0  0  0  0  0  0
    8.9294  -16.2240   26.5387 N   0  0  0  0  0  0  0  0  0  0  0  0
   10.1573  -14.4335   27.1727 C   0  0  2  0  0  0  0  0  0  0  0  0
   10.7234  -15.1741   28.2790 C   0  0  0  0  0  0  0  0  0  0  0  0
   10.8435  -14.2754   29.5131 S   0  0  0  0  0  0  0  0  0  0  0  0
   11.3539  -15.2175   30.9737 C   0  0  0  0  0  0  0  0  0  0  0  0
   10.0704  -16.4364   28.5966 O   0  0  0  0  0  0  0  0  0  0  0  0
    8.8314  -16.5193   28.7491 O   0  0  0  0  0  0  0  0  0  0  0  0
  1  2  1  0
  2  3  2  0
  4  2  1  0
  5  4  1  0
  6  5  1  0
  7  6  1  0
  8  7  1  0
  8  9  1  6
 10 11  2  0
 10  8  1  0
 13 12  1  0
 14 13  1  0
 14 15  1  1
 16 17  1  1
 16 14  1  0
 17 10  1  0
 18 16  1  0
 19 18  2  0
 20 18  1  0
 21 20  1  0
 22 23  1  0
 21 22  1  1
 24 21  1  0
 24 26  1  0
 25 24  2  0
M  END
$$$$
