DPG.pdb
     RDKit          3D

 20 20  0  0  1  0  0  0  0  0999 V2000
    8.5876  -17.4346   28.3823 N   0  0  0  0  0  0  0  0  0  0  0  0
    8.5728  -15.9826   28.1970 C   0  0  1  0  0  0  0  0  0  0  0  0
   10.0242  -15.4870   28.1835 C   0  0  0  0  0  0  0  0  0  0  0  0
   10.7052  -15.6985   29.4725 C   0  0  0  0  0  0  0  0  0  0  0  0
   11.4963  -16.6621   29.6013 O   0  0  0  0  0  0  0  0  0  0  0  0
    7.8900  -15.6837   26.9418 C   0  0  0  0  0  0  0  0  0  0  0  0
    7.6227  -16.6793   26.1844 O   0  0  0  0  0  0  0  0  0  0  0  0
   10.4940  -14.8631   30.5391 O   0  0  0  0  0  0  0  0  0  0  0  0
    7.4905  -14.3968   26.4797 N   0  0  0  0  0  0  0  0  0  0  0  0
    7.7429  -13.1797   27.2769 C   0  0  0  0  0  0  0  0  0  0  0  0
    6.4538  -12.4176   27.0573 C   0  0  0  0  0  0  0  0  0  0  0  0
    6.3468  -12.5327   25.5344 C   0  0  0  0  0  0  0  0  0  0  0  0
    6.8481  -13.9599   25.2835 C   0  0  1  0  0  0  0  0  0  0  0  0
    7.7854  -13.8576   24.1309 C   0  0  0  0  0  0  0  0  0  0  0  0
    8.5200  -12.8459   23.9899 O   0  0  0  0  0  0  0  0  0  0  0  0
    7.9064  -14.8710   23.1416 N   0  0  0  0  0  0  0  0  0  0  0  0
    8.9367  -14.7852   22.1309 C   0  0  0  0  0  0  0  0  0  0  0  0
    8.8914  -15.8662   21.1500 C   0  0  0  0  0  0  0  0  0  0  0  0
    9.1033  -17.0361   21.5633 O   0  0  0  0  0  0  0  0  0  0  0  0
    8.6337  -15.7135   19.7962 O   0  0  0  0  0  0  0  0  0  0  0  0
  2  1  1  6
  2  3  1  0
  3  4  1  0
  4  8  1  0
  5  4  2  0
  6  7  2  0
  6  2  1  0
  9  6  1  0
 10  9  1  0
 11 12  1  0
 11 10  1  0
 12 13  1  0
 13 14  1  6
 13  9  1  0
 14 15  2  0
 16 17  1  0
 16 14  1  0
 17 18  1  0
 18 20  1  0
 19 18  2  0
M  END
$$$$
