DPG.pdb
     RDKit          3D

 20 20  0  0  1  0  0  0  0  0999 V2000
    8.4313  -17.3928   17.1299 N   0  0  0  0  0  0  0  0  0  0  0  0
    7.6473  -16.5332   18.0183 C   0  0  1  0  0  0  0  0  0  0  0  0
    6.5031  -17.3687   18.6056 C   0  0  0  0  0  0  0  0  0  0  0  0
    6.9718  -18.6376   19.1887 C   0  0  0  0  0  0  0  0  0  0  0  0
    7.7821  -19.3483   18.5488 O   0  0  0  0  0  0  0  0  0  0  0  0
    8.5298  -16.0196   19.0617 C   0  0  0  0  0  0  0  0  0  0  0  0
    9.6726  -16.5833   19.1735 O   0  0  0  0  0  0  0  0  0  0  0  0
    6.5418  -19.0618   20.4196 O   0  0  0  0  0  0  0  0  0  0  0  0
    8.2459  -14.9538   19.9632 N   0  0  0  0  0  0  0  0  0  0  0  0
    6.9221  -14.3001   19.9904 C   0  0  0  0  0  0  0  0  0  0  0  0
    7.3187  -12.8510   20.1738 C   0  0  0  0  0  0  0  0  0  0  0  0
    8.3105  -13.0035   21.3301 C   0  0  0  0  0  0  0  0  0  0  0  0
    9.0246  -14.3120   20.9712 C   0  0  1  0  0  0  0  0  0  0  0  0
    9.0857  -15.0943   22.2368 C   0  0  0  0  0  0  0  0  0  0  0  0
    8.0533  -15.6433   22.7015 O   0  0  0  0  0  0  0  0  0  0  0  0
   10.2841  -15.2660   22.9815 N   0  0  0  0  0  0  0  0  0  0  0  0
   10.3800  -16.3068   23.9806 C   0  0  0  0  0  0  0  0  0  0  0  0
   11.6611  -16.3346   24.6814 C   0  0  0  0  0  0  0  0  0  0  0  0
   11.8057  -17.1880   25.5954 O   0  0  0  0  0  0  0  0  0  0  0  0
   12.7365  -15.4979   24.4249 O   0  0  0  0  0  0  0  0  0  0  0  0
  2  1  1  6
  2  3  1  0
  3  4  1  0
  4  8  1  0
  5  4  2  0
  6  7  2  0
  6  2  1  0
  9  6  1  0
 10  9  1  0
 11 12  1  0
 11 10  1  0
 12 13  1  0
 13 14  1  1
 13  9  1  0
 14 15  2  0
 16 17  1  0
 16 14  1  0
 17 18  1  0
 18 20  1  0
 19 18  2  0
M  END
$$$$
