DPG.pdb
     RDKit          3D

 20 20  0  0  1  0  0  0  0  0999 V2000
    9.8521  -16.1631   15.7034 N   0  0  0  0  0  0  0  0  0  0  0  0
    8.8104  -15.8290   16.6762 C   0  0  1  0  0  0  0  0  0  0  0  0
    7.9905  -17.0953   16.9533 C   0  0  0  0  0  0  0  0  0  0  0  0
    7.3433  -17.6256   15.7411 C   0  0  0  0  0  0  0  0  0  0  0  0
    7.5528  -17.0706   14.6369 O   0  0  0  0  0  0  0  0  0  0  0  0
    9.4527  -15.3273   17.8874 C   0  0  0  0  0  0  0  0  0  0  0  0
   10.6292  -15.7646   18.1344 O   0  0  0  0  0  0  0  0  0  0  0  0
    6.5140  -18.7165   15.7913 O   0  0  0  0  0  0  0  0  0  0  0  0
    8.9013  -14.3996   18.8172 N   0  0  0  0  0  0  0  0  0  0  0  0
    7.5927  -13.7577   18.5806 C   0  0  0  0  0  0  0  0  0  0  0  0
    7.8713  -12.3485   19.0574 C   0  0  0  0  0  0  0  0  0  0  0  0
    8.5299  -12.6614   20.4037 C   0  0  0  0  0  0  0  0  0  0  0  0
    9.3629  -13.9055   20.0731 C   0  0  1  0  0  0  0  0  0  0  0  0
    9.1196  -14.8583   21.1913 C   0  0  0  0  0  0  0  0  0  0  0  0
    8.1410  -15.6485   21.1587 O   0  0  0  0  0  0  0  0  0  0  0  0
    9.9565  -14.9336   22.3377 N   0  0  0  0  0  0  0  0  0  0  0  0
   11.3945  -14.9679   22.1907 C   0  0  0  0  0  0  0  0  0  0  0  0
   12.0006  -16.2264   22.6173 C   0  0  0  0  0  0  0  0  0  0  0  0
   12.4644  -16.2818   23.7862 O   0  0  0  0  0  0  0  0  0  0  0  0
   12.1092  -17.3704   21.8416 O   0  0  0  0  0  0  0  0  0  0  0  0
  2  1  1  6
  2  3  1  0
  3  4  1  0
  4  8  1  0
  5  4  2  0
  6  7  2  0
  6  2  1  0
  9  6  1  0
 10  9  1  0
 11 12  1  0
 11 10  1  0
 12 13  1  0
 13 14  1  1
 13  9  1  0
 14 15  2  0
 16 17  1  0
 16 14  1  0
 17 18  1  0
 18 20  1  0
 19 18  2  0
M  END
$$$$
