DPG.pdb
     RDKit          3D

 20 20  0  0  1  0  0  0  0  0999 V2000
    9.4763  -16.7140   15.8357 N   0  0  0  0  0  0  0  0  0  0  0  0
    8.5020  -16.2250   16.8128 C   0  0  1  0  0  0  0  0  0  0  0  0
    7.6224  -17.4053   17.2435 C   0  0  0  0  0  0  0  0  0  0  0  0
    6.9856  -18.0817   16.1004 C   0  0  0  0  0  0  0  0  0  0  0  0
    6.3964  -17.3990   15.2298 O   0  0  0  0  0  0  0  0  0  0  0  0
    9.2279  -15.6536   17.9432 C   0  0  0  0  0  0  0  0  0  0  0  0
   10.3960  -16.1235   18.1699 O   0  0  0  0  0  0  0  0  0  0  0  0
    7.0220  -19.4457   15.9648 O   0  0  0  0  0  0  0  0  0  0  0  0
    8.7665  -14.6255   18.8146 N   0  0  0  0  0  0  0  0  0  0  0  0
    7.4400  -14.0020   18.6354 C   0  0  0  0  0  0  0  0  0  0  0  0
    7.7604  -12.5517   18.9269 C   0  0  0  0  0  0  0  0  0  0  0  0
    8.5455  -12.7219   20.2302 C   0  0  0  0  0  0  0  0  0  0  0  0
    9.3453  -14.0018   19.9593 C   0  0  1  0  0  0  0  0  0  0  0  0
    9.2121  -14.8251   21.1928 C   0  0  0  0  0  0  0  0  0  0  0  0
    8.1136  -15.3620   21.4897 O   0  0  0  0  0  0  0  0  0  0  0  0
   10.2906  -15.0511   22.0907 N   0  0  0  0  0  0  0  0  0  0  0  0
   10.1606  -16.0161   23.1596 C   0  0  0  0  0  0  0  0  0  0  0  0
   11.2994  -16.0399   24.0737 C   0  0  0  0  0  0  0  0  0  0  0  0
   12.3904  -15.5710   23.6562 O   0  0  0  0  0  0  0  0  0  0  0  0
   11.2815  -16.5370   25.3679 O   0  0  0  0  0  0  0  0  0  0  0  0
  2  1  1  6
  2  3  1  0
  3  4  1  0
  4  8  1  0
  5  4  2  0
  6  7  2  0
  6  2  1  0
  9  6  1  0
 10  9  1  0
 11 12  1  0
 11 10  1  0
 12 13  1  0
 13 14  1  1
 13  9  1  0
 14 15  2  0
 16 17  1  0
 16 14  1  0
 17 18  1  0
 18 20  1  0
 19 18  2  0
M  END
$$$$
