DPG.pdb
     RDKit          3D

 20 20  0  0  1  0  0  0  0  0999 V2000
    9.7422  -15.8782   15.2357 N   0  0  0  0  0  0  0  0  0  0  0  0
    8.7581  -15.7981   16.3165 C   0  0  1  0  0  0  0  0  0  0  0  0
    8.1715  -17.1984   16.5344 C   0  0  0  0  0  0  0  0  0  0  0  0
    7.5666  -17.7540   15.3117 C   0  0  0  0  0  0  0  0  0  0  0  0
    6.4837  -17.2835   14.8906 O   0  0  0  0  0  0  0  0  0  0  0  0
    9.4274  -15.3020   17.5152 C   0  0  0  0  0  0  0  0  0  0  0  0
   10.6547  -15.6311   17.6632 O   0  0  0  0  0  0  0  0  0  0  0  0
    8.1618  -18.7773   14.6198 O   0  0  0  0  0  0  0  0  0  0  0  0
    8.8514  -14.4875   18.5321 N   0  0  0  0  0  0  0  0  0  0  0  0
    7.4355  -14.0721   18.4760 C   0  0  0  0  0  0  0  0  0  0  0  0
    7.5349  -12.6402   18.9562 C   0  0  0  0  0  0  0  0  0  0  0  0
    8.3996  -12.8495   20.2022 C   0  0  0  0  0  0  0  0  0  0  0  0
    9.3787  -13.9336   19.7360 C   0  0  1  0  0  0  0  0  0  0  0  0
    9.4383  -14.9230   20.8473 C   0  0  0  0  0  0  0  0  0  0  0  0
    8.4405  -15.6381   21.1231 O   0  0  0  0  0  0  0  0  0  0  0  0
   10.5973  -15.1173   21.6470 N   0  0  0  0  0  0  0  0  0  0  0  0
   10.5961  -16.1003   22.7074 C   0  0  0  0  0  0  0  0  0  0  0  0
   11.8692  -16.2047   23.4154 C   0  0  0  0  0  0  0  0  0  0  0  0
   11.9235  -16.9835   24.4028 O   0  0  0  0  0  0  0  0  0  0  0  0
   13.0283  -15.5163   23.0916 O   0  0  0  0  0  0  0  0  0  0  0  0
  2  1  1  6
  2  3  1  0
  3  4  1  0
  4  8  1  0
  5  4  2  0
  6  7  2  0
  6  2  1  0
  9  6  1  0
 10  9  1  0
 11 12  1  0
 11 10  1  0
 12 13  1  0
 13 14  1  1
 13  9  1  0
 14 15  2  0
 16 17  1  0
 16 14  1  0
 17 18  1  0
 18 20  1  0
 19 18  2  0
M  END
$$$$
