DPG.pdb
     RDKit          3D

 20 20  0  0  1  0  0  0  0  0999 V2000
    6.4581  -19.7206   20.7808 N   0  0  0  0  0  0  0  0  0  0  0  0
    6.5582  -18.7381   21.8614 C   0  0  1  0  0  0  0  0  0  0  0  0
    6.6445  -19.4967   23.1916 C   0  0  0  0  0  0  0  0  0  0  0  0
    5.4745  -20.3603   23.4262 C   0  0  0  0  0  0  0  0  0  0  0  0
    5.6091  -21.4142   24.0913 O   0  0  0  0  0  0  0  0  0  0  0  0
    7.7433  -17.9173   21.6315 C   0  0  0  0  0  0  0  0  0  0  0  0
    8.7361  -18.4915   21.0648 O   0  0  0  0  0  0  0  0  0  0  0  0
    4.2364  -20.0378   22.9329 O   0  0  0  0  0  0  0  0  0  0  0  0
    7.9021  -16.5433   21.9725 N   0  0  0  0  0  0  0  0  0  0  0  0
    6.8222  -15.7845   22.6348 C   0  0  0  0  0  0  0  0  0  0  0  0
    6.9207  -14.4554   21.9174 C   0  0  0  0  0  0  0  0  0  0  0  0
    8.4298  -14.2206   22.0236 C   0  0  0  0  0  0  0  0  0  0  0  0
    8.9903  -15.6336   21.8228 C   0  0  1  0  0  0  0  0  0  0  0  0
   10.0318  -15.8037   22.8735 C   0  0  0  0  0  0  0  0  0  0  0  0
    9.7095  -15.8988   24.0860 O   0  0  0  0  0  0  0  0  0  0  0  0
   11.4212  -15.8676   22.5805 N   0  0  0  0  0  0  0  0  0  0  0  0
   12.3830  -16.0608   23.6426 C   0  0  0  0  0  0  0  0  0  0  0  0
   13.7728  -15.9779   23.2013 C   0  0  0  0  0  0  0  0  0  0  0  0
   13.9913  -15.9919   21.9618 O   0  0  0  0  0  0  0  0  0  0  0  0
   14.8770  -15.8847   24.0346 O   0  0  0  0  0  0  0  0  0  0  0  0
  2  1  1  6
  2  3  1  0
  3  4  1  0
  4  8  1  0
  5  4  2  0
  6  7  2  0
  6  2  1  0
  9  6  1  0
 10  9  1  0
 11 12  1  0
 11 10  1  0
 12 13  1  0
 13 14  1  1
 13  9  1  0
 14 15  2  0
 16 17  1  0
 16 14  1  0
 17 18  1  0
 18 20  1  0
 19 18  2  0
M  END
$$$$
