DPG.pdb
     RDKit          3D

 20 20  0  0  1  0  0  0  0  0999 V2000
    5.7539  -18.4946   19.2329 N   0  0  0  0  0  0  0  0  0  0  0  0
    5.6882  -17.2213   19.9522 C   0  0  1  0  0  0  0  0  0  0  0  0
    4.9120  -17.4473   21.2556 C   0  0  0  0  0  0  0  0  0  0  0  0
    3.6032  -18.0845   21.0303 C   0  0  0  0  0  0  0  0  0  0  0  0
    2.9977  -18.6078   21.9949 O   0  0  0  0  0  0  0  0  0  0  0  0
    7.0508  -16.7647   20.2090 C   0  0  0  0  0  0  0  0  0  0  0  0
    7.9771  -17.6410   20.1063 O   0  0  0  0  0  0  0  0  0  0  0  0
    3.0287  -18.1192   19.7857 O   0  0  0  0  0  0  0  0  0  0  0  0
    7.4501  -15.4428   20.5591 N   0  0  0  0  0  0  0  0  0  0  0  0
    6.4580  -14.3710   20.7768 C   0  0  0  0  0  0  0  0  0  0  0  0
    7.1507  -13.1975   20.1182 C   0  0  0  0  0  0  0  0  0  0  0  0
    8.5373  -13.3317   20.7533 C   0  0  0  0  0  0  0  0  0  0  0  0
    8.7275  -14.8527   20.7924 C   0  0  1  0  0  0  0  0  0  0  0  0
    9.2619  -15.1541   22.1492 C   0  0  0  0  0  0  0  0  0  0  0  0
    8.5032  -15.1481   23.1529 O   0  0  0  0  0  0  0  0  0  0  0  0
   10.6288  -15.4601   22.3903 N   0  0  0  0  0  0  0  0  0  0  0  0
   11.0693  -15.8400   23.7141 C   0  0  0  0  0  0  0  0  0  0  0  0
   12.5026  -16.1054   23.8046 C   0  0  0  0  0  0  0  0  0  0  0  0
   13.1597  -16.1245   22.7311 O   0  0  0  0  0  0  0  0  0  0  0  0
   13.2048  -16.3390   24.9771 O   0  0  0  0  0  0  0  0  0  0  0  0
  2  1  1  1
  2  3  1  0
  3  4  1  0
  4  8  1  0
  5  4  2  0
  6  7  2  0
  6  2  1  0
  9  6  1  0
 10  9  1  0
 11 12  1  0
 11 10  1  0
 12 13  1  0
 13 14  1  1
 13  9  1  0
 14 15  2  0
 16 17  1  0
 16 14  1  0
 17 18  1  0
 18 20  1  0
 19 18  2  0
M  END
$$$$
