DPG.pdb
     RDKit          3D

 20 20  0  0  1  0  0  0  0  0999 V2000
    9.1716  -15.5242   14.5148 N   0  0  0  0  0  0  0  0  0  0  0  0
    8.4871  -15.4576   15.8071 C   0  0  1  0  0  0  0  0  0  0  0  0
    8.0238  -16.8722   16.1768 C   0  0  0  0  0  0  0  0  0  0  0  0
    7.0526  -17.4183   15.2132 C   0  0  0  0  0  0  0  0  0  0  0  0
    6.6730  -16.7099   14.2514 O   0  0  0  0  0  0  0  0  0  0  0  0
    9.4170  -14.9199   16.7956 C   0  0  0  0  0  0  0  0  0  0  0  0
   10.6630  -15.0914   16.5621 O   0  0  0  0  0  0  0  0  0  0  0  0
    6.5518  -18.6881   15.3434 O   0  0  0  0  0  0  0  0  0  0  0  0
    9.0752  -14.2225   17.9898 N   0  0  0  0  0  0  0  0  0  0  0  0
    7.6675  -14.0207   18.3875 C   0  0  0  0  0  0  0  0  0  0  0  0
    7.7151  -12.6008   18.9094 C   0  0  0  0  0  0  0  0  0  0  0  0
    8.9392  -12.7068   19.8229 C   0  0  0  0  0  0  0  0  0  0  0  0
    9.8655  -13.6231   19.0146 C   0  0  1  0  0  0  0  0  0  0  0  0
   10.3947  -14.6169   19.9892 C   0  0  0  0  0  0  0  0  0  0  0  0
    9.6931  -15.5970   20.3501 O   0  0  0  0  0  0  0  0  0  0  0  0
   11.6934  -14.5235   20.5593 N   0  0  0  0  0  0  0  0  0  0  0  0
   12.3612  -15.7074   21.0520 C   0  0  0  0  0  0  0  0  0  0  0  0
   13.7163  -15.4606   21.5376 C   0  0  0  0  0  0  0  0  0  0  0  0
   14.5682  -15.0557   20.7040 O   0  0  0  0  0  0  0  0  0  0  0  0
   14.1466  -15.6348   22.8440 O   0  0  0  0  0  0  0  0  0  0  0  0
  2  1  1  6
  2  3  1  0
  3  4  1  0
  4  8  1  0
  5  4  2  0
  6  7  2  0
  6  2  1  0
  9  6  1  0
 10  9  1  0
 11 12  1  0
 11 10  1  0
 12 13  1  0
 13 14  1  1
 13  9  1  0
 14 15  2  0
 16 17  1  0
 16 14  1  0
 17 18  1  0
 18 20  1  0
 19 18  2  0
M  END
$$$$
