DPG.pdb
     RDKit          3D

 20 20  0  0  1  0  0  0  0  0999 V2000
    8.5034  -14.7828   21.9432 N   0  0  0  0  0  0  0  0  0  0  0  0
    7.5507  -14.7046   23.0520 C   0  0  1  0  0  0  0  0  0  0  0  0
    6.9925  -16.1108   23.3035 C   0  0  0  0  0  0  0  0  0  0  0  0
    6.5780  -16.7846   22.0610 C   0  0  0  0  0  0  0  0  0  0  0  0
    5.8551  -17.8066   22.1250 O   0  0  0  0  0  0  0  0  0  0  0  0
    8.2476  -14.1840   24.2243 C   0  0  0  0  0  0  0  0  0  0  0  0
    9.5144  -14.3586   24.2616 O   0  0  0  0  0  0  0  0  0  0  0  0
    6.9651  -16.3189   20.8307 O   0  0  0  0  0  0  0  0  0  0  0  0
    7.6586  -13.5004   25.3265 N   0  0  0  0  0  0  0  0  0  0  0  0
    6.1984  -13.2997   25.4169 C   0  0  0  0  0  0  0  0  0  0  0  0
    6.1334  -11.8864   25.9546 C   0  0  0  0  0  0  0  0  0  0  0  0
    7.1341  -12.0067   27.1070 C   0  0  0  0  0  0  0  0  0  0  0  0
    8.2118  -12.9156   26.5039 C   0  0  1  0  0  0  0  0  0  0  0  0
    8.5205  -13.9225   27.5566 C   0  0  0  0  0  0  0  0  0  0  0  0
    7.7575  -14.9046   27.7477 O   0  0  0  0  0  0  0  0  0  0  0  0
    9.6680  -13.8401   28.3914 N   0  0  0  0  0  0  0  0  0  0  0  0
    9.9247  -14.8613   29.3822 C   0  0  0  0  0  0  0  0  0  0  0  0
   10.7065  -15.9875   28.8789 C   0  0  0  0  0  0  0  0  0  0  0  0
   11.0497  -15.9625   27.6681 O   0  0  0  0  0  0  0  0  0  0  0  0
   11.1050  -17.0868   29.6239 O   0  0  0  0  0  0  0  0  0  0  0  0
  2  1  1  6
  2  3  1  0
  3  4  1  0
  4  8  1  0
  5  4  2  0
  6  7  2  0
  6  2  1  0
  9  6  1  0
 10  9  1  0
 11 12  1  0
 11 10  1  0
 12 13  1  0
 13 14  1  1
 13  9  1  0
 14 15  2  0
 16 17  1  0
 16 14  1  0
 17 18  1  0
 18 20  1  0
 19 18  2  0
M  END
$$$$
