HTP.pdb
     RDKit          3D

 25 26  0  0  1  0  0  0  0  0999 V2000
    8.0106  -16.6639   19.8602 N   0  0  0  0  0  0  0  0  0  0  0  0
    7.8515  -15.3900   20.5309 C   0  0  1  0  0  0  0  0  0  0  0  0
    6.9858  -14.4921   19.6739 C   0  0  0  0  0  0  0  0  0  0  0  0
    7.7326  -14.0424   18.4922 C   0  0  0  0  0  0  0  0  0  0  0  0
    8.2420  -12.8018   18.1687 C   0  0  0  0  0  0  0  0  0  0  0  0
    8.8455  -12.8859   16.9824 N   0  0  0  0  0  0  0  0  0  0  0  0
    8.7316  -14.1442   16.5479 C   0  0  0  0  0  0  0  0  0  0  0  0
    8.0566  -14.8557   17.4582 N   0  0  0  0  0  0  0  0  0  0  0  0
    7.2104  -15.5723   21.8761 C   0  0  0  0  0  0  0  0  0  0  0  0
    6.1011  -16.1270   21.9201 O   0  0  0  0  0  0  0  0  0  0  0  0
    6.1831  -17.1339   23.3459 C   0  0  0  0  0  0  0  0  0  0  0  0
    7.0632  -16.7623   24.5814 C   0  0  1  0  0  0  0  0  0  0  0  0
    8.1870  -17.5654   24.4570 O   0  0  0  0  0  0  0  0  0  0  0  0
    7.3794  -15.3211   24.3973 C   0  0  2  0  0  0  0  0  0  0  0  0
    7.8765  -15.1142   23.0403 N   0  0  0  0  0  0  0  0  0  0  0  0
    8.2829  -14.7039   25.3731 C   0  0  0  0  0  0  0  0  0  0  0  0
    9.5404  -14.9781   25.1988 O   0  0  0  0  0  0  0  0  0  0  0  0
    7.9196  -13.8685   26.4425 N   0  0  0  0  0  0  0  0  0  0  0  0
    6.5659  -13.3691   26.5995 C   0  0  0  0  0  0  0  0  0  0  0  0
    6.8029  -12.0036   27.1996 C   0  0  0  0  0  0  0  0  0  0  0  0
    7.7679  -12.4260   28.3239 C   0  0  0  0  0  0  0  0  0  0  0  0
    8.7056  -13.3655   27.5207 C   0  0  1  0  0  0  0  0  0  0  0  0
    9.1524  -14.3687   28.4999 C   0  0  0  0  0  0  0  0  0  0  0  0
   10.1462  -14.1620   29.4342 O   0  0  0  0  0  0  0  0  0  0  0  0
    8.5863  -15.4922   28.4791 O   0  0  0  0  0  0  0  0  0  0  0  0
  2  1  1  6
  3  4  1  0
  3  2  1  0
  4  8  1  0
  5  6  1  0
  5  4  2  0
  6  7  1  0
  7  8  2  0
  9 10  2  0
  9  2  1  0
 12 11  1  6
 12 14  1  0
 13 12  1  0
 14 15  1  6
 15  9  1  0
 16 17  2  0
 16 14  1  0
 18 19  1  0
 18 16  1  0
 19 20  1  0
 20 21  1  0
 22 18  1  0
 22 21  1  0
 22 23  1  1
 24 23  1  0
 25 23  2  0
M  END
$$$$
