HTP.pdb
     RDKit          3D

 25 26  0  0  1  0  0  0  0  0999 V2000
   10.9756  -16.9108   19.8149 N   0  0  0  0  0  0  0  0  0  0  0  0
   10.9151  -16.8882   21.2619 C   0  0  1  0  0  0  0  0  0  0  0  0
   12.3236  -16.7970   21.8078 C   0  0  0  0  0  0  0  0  0  0  0  0
   13.0177  -18.0803   21.6420 C   0  0  0  0  0  0  0  0  0  0  0  0
   12.8305  -19.2923   22.2738 C   0  0  0  0  0  0  0  0  0  0  0  0
   13.7081  -20.1682   21.7827 N   0  0  0  0  0  0  0  0  0  0  0  0
   14.4440  -19.5436   20.8589 C   0  0  0  0  0  0  0  0  0  0  0  0
   14.0325  -18.2738   20.7654 N   0  0  0  0  0  0  0  0  0  0  0  0
   10.1118  -15.7150   21.7436 C   0  0  0  0  0  0  0  0  0  0  0  0
   10.3817  -14.5965   21.2787 O   0  0  0  0  0  0  0  0  0  0  0  0
    6.7893  -15.1750   21.3268 C   0  0  0  0  0  0  0  0  0  0  0  0
    6.8243  -15.1304   22.8876 C   0  0  1  0  0  0  0  0  0  0  0  0
    6.4451  -16.4065   23.2765 O   0  0  0  0  0  0  0  0  0  0  0  0
    8.2432  -14.8391   23.2232 C   0  0  2  0  0  0  0  0  0  0  0  0
    9.0842  -15.9115   22.6997 N   0  0  0  0  0  0  0  0  0  0  0  0
    8.5589  -14.5820   24.6316 C   0  0  0  0  0  0  0  0  0  0  0  0
    9.5255  -15.3041   25.1125 O   0  0  0  0  0  0  0  0  0  0  0  0
    7.9299  -13.6529   25.4770 N   0  0  0  0  0  0  0  0  0  0  0  0
    6.9606  -12.6952   24.9771 C   0  0  0  0  0  0  0  0  0  0  0  0
    7.2193  -11.4973   25.8597 C   0  0  0  0  0  0  0  0  0  0  0  0
    7.1870  -12.2200   27.2200 C   0  0  0  0  0  0  0  0  0  0  0  0
    8.0710  -13.4490   26.8812 C   0  0  1  0  0  0  0  0  0  0  0  0
    7.5476  -14.5283   27.7332 C   0  0  0  0  0  0  0  0  0  0  0  0
    6.7353  -15.5514   27.2897 O   0  0  0  0  0  0  0  0  0  0  0  0
    7.8650  -14.5121   28.9506 O   0  0  0  0  0  0  0  0  0  0  0  0
  2  1  1  6
  3  4  1  0
  3  2  1  0
  4  8  1  0
  5  6  1  0
  5  4  2  0
  6  7  1  0
  7  8  2  0
  9 10  2  0
  9  2  1  0
 12 11  1  6
 12 14  1  0
 13 12  1  0
 14 15  1  1
 15  9  1  0
 16 17  2  0
 16 14  1  0
 18 19  1  0
 18 16  1  0
 19 20  1  0
 20 21  1  0
 22 18  1  0
 22 21  1  0
 22 23  1  1
 24 23  1  0
 25 23  2  0
M  END
$$$$
