HTP.pdb
     RDKit          3D

 25 26  0  0  1  0  0  0  0  0999 V2000
   12.3319  -16.6400   20.7637 N   0  0  0  0  0  0  0  0  0  0  0  0
   11.4401  -17.0174   21.8408 C   0  0  1  0  0  0  0  0  0  0  0  0
   12.2583  -17.6147   22.9651 C   0  0  0  0  0  0  0  0  0  0  0  0
   12.7009  -18.9687   22.6086 C   0  0  0  0  0  0  0  0  0  0  0  0
   13.9481  -19.4449   22.2611 C   0  0  0  0  0  0  0  0  0  0  0  0
   13.8527  -20.7537   22.0231 N   0  0  0  0  0  0  0  0  0  0  0  0
   12.5808  -21.1172   22.2105 C   0  0  0  0  0  0  0  0  0  0  0  0
   11.8720  -20.0396   22.5667 N   0  0  0  0  0  0  0  0  0  0  0  0
   10.6827  -15.8248   22.3484 C   0  0  0  0  0  0  0  0  0  0  0  0
   11.2980  -14.7536   22.4668 O   0  0  0  0  0  0  0  0  0  0  0  0
    7.7099  -14.5069   20.8545 C   0  0  0  0  0  0  0  0  0  0  0  0
    7.2274  -14.8166   22.3074 C   0  0  1  0  0  0  0  0  0  0  0  0
    6.6387  -16.0689   22.2144 O   0  0  0  0  0  0  0  0  0  0  0  0
    8.4727  -14.8401   23.1195 C   0  0  2  0  0  0  0  0  0  0  0  0
    9.3089  -15.9507   22.6735 N   0  0  0  0  0  0  0  0  0  0  0  0
    8.3208  -14.8669   24.5774 C   0  0  0  0  0  0  0  0  0  0  0  0
    9.0001  -15.7971   25.1776 O   0  0  0  0  0  0  0  0  0  0  0  0
    7.5330  -14.0023   25.3556 N   0  0  0  0  0  0  0  0  0  0  0  0
    6.7261  -12.9542   24.7580 C   0  0  0  0  0  0  0  0  0  0  0  0
    6.7988  -11.8674   25.8042 C   0  0  0  0  0  0  0  0  0  0  0  0
    6.4374  -12.7249   27.0322 C   0  0  0  0  0  0  0  0  0  0  0  0
    7.3497  -13.9517   26.7687 C   0  0  1  0  0  0  0  0  0  0  0  0
    6.6207  -15.0881   27.3534 C   0  0  0  0  0  0  0  0  0  0  0  0
    6.6173  -15.4089   28.6952 O   0  0  0  0  0  0  0  0  0  0  0  0
    5.9562  -15.8157   26.5709 O   0  0  0  0  0  0  0  0  0  0  0  0
  2  1  1  6
  3  4  1  0
  3  2  1  0
  4  8  1  0
  5  6  1  0
  5  4  2  0
  6  7  1  0
  7  8  2  0
  9 10  2  0
  9  2  1  0
 12 11  1  6
 12 14  1  0
 13 12  1  0
 14 15  1  6
 15  9  1  0
 16 17  2  0
 16 14  1  0
 18 19  1  0
 18 16  1  0
 19 20  1  0
 20 21  1  0
 22 18  1  0
 22 21  1  0
 22 23  1  6
 24 23  1  0
 25 23  2  0
M  END
$$$$
