HTP.pdb
     RDKit          3D

 25 26  0  0  1  0  0  0  0  0999 V2000
    7.9196  -16.5930   19.8265 N   0  0  0  0  0  0  0  0  0  0  0  0
    7.7350  -15.2462   20.3266 C   0  0  1  0  0  0  0  0  0  0  0  0
    6.8761  -14.4756   19.3475 C   0  0  0  0  0  0  0  0  0  0  0  0
    7.6353  -14.1831   18.1251 C   0  0  0  0  0  0  0  0  0  0  0  0
    8.9240  -14.5186   17.7649 C   0  0  0  0  0  0  0  0  0  0  0  0
    9.1681  -14.0258   16.5499 N   0  0  0  0  0  0  0  0  0  0  0  0
    8.0703  -13.3888   16.1330 C   0  0  0  0  0  0  0  0  0  0  0  0
    7.1323  -13.4784   17.0830 N   0  0  0  0  0  0  0  0  0  0  0  0
    7.0711  -15.2638   21.6729 C   0  0  0  0  0  0  0  0  0  0  0  0
    5.8395  -15.4111   21.7109 O   0  0  0  0  0  0  0  0  0  0  0  0
    5.8769  -16.7569   22.9518 C   0  0  0  0  0  0  0  0  0  0  0  0
    6.6729  -16.6218   24.2888 C   0  0  1  0  0  0  0  0  0  0  0  0
    7.5840  -17.6668   24.2534 O   0  0  0  0  0  0  0  0  0  0  0  0
    7.3367  -15.2944   24.1981 C   0  0  2  0  0  0  0  0  0  0  0  0
    7.8541  -15.1143   22.8449 N   0  0  0  0  0  0  0  0  0  0  0  0
    8.3767  -14.9970   25.1877 C   0  0  0  0  0  0  0  0  0  0  0  0
    9.5438  -15.4985   24.9170 O   0  0  0  0  0  0  0  0  0  0  0  0
    8.2266  -14.2407   26.3620 N   0  0  0  0  0  0  0  0  0  0  0  0
    6.9479  -13.6750   26.7513 C   0  0  0  0  0  0  0  0  0  0  0  0
    7.3653  -12.3864   27.4194 C   0  0  0  0  0  0  0  0  0  0  0  0
    8.4420  -12.9674   28.3559 C   0  0  0  0  0  0  0  0  0  0  0  0
    9.1883  -13.8866   27.3535 C   0  0  1  0  0  0  0  0  0  0  0  0
    9.6903  -14.9998   28.1743 C   0  0  0  0  0  0  0  0  0  0  0  0
   10.7802  -14.9218   29.0164 O   0  0  0  0  0  0  0  0  0  0  0  0
    9.0802  -16.0976   28.0986 O   0  0  0  0  0  0  0  0  0  0  0  0
  2  1  1  6
  3  4  1  0
  3  2  1  0
  4  8  1  0
  5  6  1  0
  5  4  2  0
  6  7  1  0
  7  8  2  0
  9 10  2  0
  9  2  1  0
 12 11  1  6
 12 14  1  0
 13 12  1  0
 14 15  1  6
 15  9  1  0
 16 17  2  0
 16 14  1  0
 18 19  1  0
 18 16  1  0
 19 20  1  0
 20 21  1  0
 22 18  1  0
 22 21  1  0
 22 23  1  1
 24 23  1  0
 25 23  2  0
M  END
$$$$
