HTP.pdb
     RDKit          3D

 25 26  0  0  1  0  0  0  0  0999 V2000
   11.4372  -15.2573   18.3395 N   0  0  0  0  0  0  0  0  0  0  0  0
   11.6409  -15.0608   19.7600 C   0  0  1  0  0  0  0  0  0  0  0  0
   12.6773  -13.9760   19.9588 C   0  0  0  0  0  0  0  0  0  0  0  0
   14.0148  -14.4832   19.6271 C   0  0  0  0  0  0  0  0  0  0  0  0
   14.8266  -15.3800   20.2904 C   0  0  0  0  0  0  0  0  0  0  0  0
   15.9558  -15.5259   19.5960 N   0  0  0  0  0  0  0  0  0  0  0  0
   15.8799  -14.7468   18.5133 C   0  0  0  0  0  0  0  0  0  0  0  0
   14.7039  -14.1084   18.5225 N   0  0  0  0  0  0  0  0  0  0  0  0
   10.3593  -14.6614   20.4321 C   0  0  0  0  0  0  0  0  0  0  0  0
    9.8475  -13.5779   20.1093 O   0  0  0  0  0  0  0  0  0  0  0  0
    6.1433  -15.6414   22.1637 C   0  0  0  0  0  0  0  0  0  0  0  0
    7.5001  -16.2255   21.6566 C   0  0  1  0  0  0  0  0  0  0  0  0
    7.3614  -16.2694   20.2774 O   0  0  0  0  0  0  0  0  0  0  0  0
    8.5203  -15.2333   22.0873 C   0  0  2  0  0  0  0  0  0  0  0  0
    9.7772  -15.5169   21.4008 N   0  0  0  0  0  0  0  0  0  0  0  0
    8.7458  -15.0874   23.5285 C   0  0  0  0  0  0  0  0  0  0  0  0
    9.7637  -15.7497   23.9892 O   0  0  0  0  0  0  0  0  0  0  0  0
    7.9841  -14.3181   24.4239 N   0  0  0  0  0  0  0  0  0  0  0  0
    6.8848  -13.4838   23.9746 C   0  0  0  0  0  0  0  0  0  0  0  0
    6.9610  -12.3205   24.9348 C   0  0  0  0  0  0  0  0  0  0  0  0
    7.0330  -13.1268   26.2458 C   0  0  0  0  0  0  0  0  0  0  0  0
    8.0902  -14.1872   25.8398 C   0  0  1  0  0  0  0  0  0  0  0  0
    7.7305  -15.3849   26.6149 C   0  0  0  0  0  0  0  0  0  0  0  0
    8.1035  -15.6114   27.9237 O   0  0  0  0  0  0  0  0  0  0  0  0
    7.0348  -16.2612   26.0393 O   0  0  0  0  0  0  0  0  0  0  0  0
  2  1  1  6
  3  4  1  0
  3  2  1  0
  4  8  1  0
  5  6  1  0
  5  4  2  0
  6  7  1  0
  7  8  2  0
  9 10  2  0
  9  2  1  0
 12 11  1  1
 12 14  1  0
 13 12  1  0
 14 15  1  6
 15  9  1  0
 16 17  2  0
 16 14  1  0
 18 19  1  0
 18 16  1  0
 19 20  1  0
 20 21  1  0
 22 18  1  0
 22 21  1  0
 22 23  1  1
 24 23  1  0
 25 23  2  0
M  END
$$$$
