HTP.pdb
     RDKit          3D

 25 26  0  0  1  0  0  0  0  0999 V2000
   10.6798  -16.5510   14.5735 N   0  0  0  0  0  0  0  0  0  0  0  0
   10.8646  -16.8591   15.9767 C   0  0  1  0  0  0  0  0  0  0  0  0
   12.2559  -16.4317   16.3910 C   0  0  0  0  0  0  0  0  0  0  0  0
   13.2588  -17.3371   15.8159 C   0  0  0  0  0  0  0  0  0  0  0  0
   13.9398  -17.2801   14.6175 C   0  0  0  0  0  0  0  0  0  0  0  0
   14.7519  -18.3352   14.5391 N   0  0  0  0  0  0  0  0  0  0  0  0
   14.6028  -19.0563   15.6538 C   0  0  0  0  0  0  0  0  0  0  0  0
   13.6974  -18.4584   16.4369 N   0  0  0  0  0  0  0  0  0  0  0  0
    9.8472  -16.1442   16.8179 C   0  0  0  0  0  0  0  0  0  0  0  0
    9.5687  -14.9719   16.5208 O   0  0  0  0  0  0  0  0  0  0  0  0
    5.9227  -16.4908   19.5599 C   0  0  0  0  0  0  0  0  0  0  0  0
    7.1176  -17.2715   18.9258 C   0  0  1  0  0  0  0  0  0  0  0  0
    6.6166  -17.7503   17.7245 O   0  0  0  0  0  0  0  0  0  0  0  0
    8.1730  -16.2437   18.7245 C   0  0  2  0  0  0  0  0  0  0  0  0
    9.2418  -16.8145   17.9101 N   0  0  0  0  0  0  0  0  0  0  0  0
    8.7270  -15.6090   19.9244 C   0  0  0  0  0  0  0  0  0  0  0  0
    9.7684  -16.2042   20.4225 O   0  0  0  0  0  0  0  0  0  0  0  0
    8.2472  -14.4513   20.5594 N   0  0  0  0  0  0  0  0  0  0  0  0
    7.1622  -13.6650   20.0019 C   0  0  0  0  0  0  0  0  0  0  0  0
    7.5488  -12.2632   20.4101 C   0  0  0  0  0  0  0  0  0  0  0  0
    7.8182  -12.5390   21.9018 C   0  0  0  0  0  0  0  0  0  0  0  0
    8.6608  -13.8356   21.7773 C   0  0  1  0  0  0  0  0  0  0  0  0
    8.3603  -14.5921   23.0028 C   0  0  0  0  0  0  0  0  0  0  0  0
    8.9744  -14.3853   24.2207 O   0  0  0  0  0  0  0  0  0  0  0  0
    7.4819  -15.4901   22.9297 O   0  0  0  0  0  0  0  0  0  0  0  0
  2  1  1  6
  3  4  1  0
  3  2  1  0
  4  8  1  0
  5  6  1  0
  5  4  2  0
  6  7  1  0
  7  8  2  0
  9 10  2  0
  9  2  1  0
 12 11  1  1
 12 14  1  0
 13 12  1  0
 14 15  1  1
 15  9  1  0
 16 17  2  0
 16 14  1  0
 18 19  1  0
 18 16  1  0
 19 20  1  0
 20 21  1  0
 22 18  1  0
 22 21  1  0
 22 23  1  1
 24 23  1  0
 25 23  2  0
M  END
$$$$
