HTP.pdb
     RDKit          3D

 25 26  0  0  1  0  0  0  0  0999 V2000
    7.3677  -16.1872   20.0917 N   0  0  0  0  0  0  0  0  0  0  0  0
    7.9535  -15.0799   20.8189 C   0  0  1  0  0  0  0  0  0  0  0  0
    7.5276  -13.7849   20.1620 C   0  0  0  0  0  0  0  0  0  0  0  0
    7.9700  -13.7548   18.7621 C   0  0  0  0  0  0  0  0  0  0  0  0
    7.2543  -13.5761   17.5964 C   0  0  0  0  0  0  0  0  0  0  0  0
    8.0995  -13.6275   16.5660 N   0  0  0  0  0  0  0  0  0  0  0  0
    9.3283  -13.8336   17.0482 C   0  0  0  0  0  0  0  0  0  0  0  0
    9.2609  -13.9125   18.3823 N   0  0  0  0  0  0  0  0  0  0  0  0
    7.5071  -15.0877   22.2522 C   0  0  0  0  0  0  0  0  0  0  0  0
    6.4042  -14.5853   22.5194 O   0  0  0  0  0  0  0  0  0  0  0  0
    5.9970  -16.8576   23.9076 C   0  0  0  0  0  0  0  0  0  0  0  0
    7.1968  -16.9613   24.9021 C   0  0  1  0  0  0  0  0  0  0  0  0
    7.8727  -18.1061   24.5070 O   0  0  0  0  0  0  0  0  0  0  0  0
    7.9918  -15.7281   24.6611 C   0  0  2  0  0  0  0  0  0  0  0  0
    8.3417  -15.6584   23.2455 N   0  0  0  0  0  0  0  0  0  0  0  0
    9.1818  -15.5255   25.4931 C   0  0  0  0  0  0  0  0  0  0  0  0
   10.2507  -16.1292   25.0691 O   0  0  0  0  0  0  0  0  0  0  0  0
    9.2644  -14.7595   26.6679 N   0  0  0  0  0  0  0  0  0  0  0  0
    8.1565  -13.9441   27.1308 C   0  0  0  0  0  0  0  0  0  0  0  0
    8.8713  -12.7721   27.7605 C   0  0  0  0  0  0  0  0  0  0  0  0
    9.8616  -13.5665   28.6334 C   0  0  0  0  0  0  0  0  0  0  0  0
   10.3385  -14.6155   27.5947 C   0  0  1  0  0  0  0  0  0  0  0  0
   10.6508  -15.8116   28.3924 C   0  0  0  0  0  0  0  0  0  0  0  0
   11.7865  -15.9657   29.1602 O   0  0  0  0  0  0  0  0  0  0  0  0
    9.8216  -16.7577   28.3685 O   0  0  0  0  0  0  0  0  0  0  0  0
  2  1  1  6
  3  4  1  0
  3  2  1  0
  4  8  1  0
  5  6  1  0
  5  4  2  0
  6  7  1  0
  7  8  2  0
  9 10  2  0
  9  2  1  0
 12 11  1  6
 12 14  1  0
 13 12  1  0
 14 15  1  6
 15  9  1  0
 16 17  2  0
 16 14  1  0
 18 19  1  0
 18 16  1  0
 19 20  1  0
 20 21  1  0
 22 18  1  0
 22 21  1  0
 22 23  1  1
 24 23  1  0
 25 23  2  0
M  END
$$$$
