HTP.pdb
     RDKit          3D

 25 26  0  0  1  0  0  0  0  0999 V2000
   11.8562  -16.6001   19.5836 N   0  0  0  0  0  0  0  0  0  0  0  0
   11.2831  -16.9636   20.8633 C   0  0  1  0  0  0  0  0  0  0  0  0
   12.3959  -17.4074   21.7879 C   0  0  0  0  0  0  0  0  0  0  0  0
   12.9841  -18.6648   21.3093 C   0  0  0  0  0  0  0  0  0  0  0  0
   12.4344  -19.6899   20.5676 C   0  0  0  0  0  0  0  0  0  0  0  0
   13.3656  -20.6260   20.3798 N   0  0  0  0  0  0  0  0  0  0  0  0
   14.4873  -20.2210   20.9818 C   0  0  0  0  0  0  0  0  0  0  0  0
   14.2664  -19.0299   21.5501 N   0  0  0  0  0  0  0  0  0  0  0  0
   10.5571  -15.7992   21.4723 C   0  0  0  0  0  0  0  0  0  0  0  0
   11.1592  -14.7169   21.5518 O   0  0  0  0  0  0  0  0  0  0  0  0
    7.4745  -14.4209   20.3272 C   0  0  0  0  0  0  0  0  0  0  0  0
    7.1153  -14.8340   21.7900 C   0  0  1  0  0  0  0  0  0  0  0  0
    6.5408  -16.0897   21.6613 O   0  0  0  0  0  0  0  0  0  0  0  0
    8.4220  -14.8839   22.4977 C   0  0  2  0  0  0  0  0  0  0  0  0
    9.2266  -15.9630   21.9325 N   0  0  0  0  0  0  0  0  0  0  0  0
    8.3880  -14.9825   23.9601 C   0  0  0  0  0  0  0  0  0  0  0  0
    9.1708  -15.8892   24.4620 O   0  0  0  0  0  0  0  0  0  0  0  0
    7.6106  -14.2066   24.8361 N   0  0  0  0  0  0  0  0  0  0  0  0
    6.8275  -13.0770   24.3700 C   0  0  0  0  0  0  0  0  0  0  0  0
    6.9126  -12.1307   25.5440 C   0  0  0  0  0  0  0  0  0  0  0  0
    6.5265  -13.1274   26.6536 C   0  0  0  0  0  0  0  0  0  0  0  0
    7.4180  -14.3292   26.2436 C   0  0  1  0  0  0  0  0  0  0  0  0
    6.6639  -15.5154   26.6783 C   0  0  0  0  0  0  0  0  0  0  0  0
    6.6453  -16.0012   27.9694 O   0  0  0  0  0  0  0  0  0  0  0  0
    5.9914  -16.1265   25.8080 O   0  0  0  0  0  0  0  0  0  0  0  0
  2  1  1  6
  3  4  1  0
  3  2  1  0
  4  8  1  0
  5  6  1  0
  5  4  2  0
  6  7  1  0
  7  8  2  0
  9 10  2  0
  9  2  1  0
 12 11  1  6
 12 14  1  0
 13 12  1  0
 14 15  1  6
 15  9  1  0
 16 17  2  0
 16 14  1  0
 18 19  1  0
 18 16  1  0
 19 20  1  0
 20 21  1  0
 22 18  1  0
 22 21  1  0
 22 23  1  6
 24 23  1  0
 25 23  2  0
M  END
$$$$
