HTP.pdb
     RDKit          3D

 25 26  0  0  1  0  0  0  0  0999 V2000
   11.4063  -14.7022   17.9253 N   0  0  0  0  0  0  0  0  0  0  0  0
   11.5285  -14.9460   19.3478 C   0  0  1  0  0  0  0  0  0  0  0  0
   12.9087  -14.5197   19.7991 C   0  0  0  0  0  0  0  0  0  0  0  0
   13.9239  -15.4385   19.2688 C   0  0  0  0  0  0  0  0  0  0  0  0
   14.3342  -16.6787   19.7126 C   0  0  0  0  0  0  0  0  0  0  0  0
   15.2900  -17.1273   18.8978 N   0  0  0  0  0  0  0  0  0  0  0  0
   15.4947  -16.2058   17.9524 C   0  0  0  0  0  0  0  0  0  0  0  0
   14.6694  -15.1750   18.1686 N   0  0  0  0  0  0  0  0  0  0  0  0
   10.4896  -14.1773   20.1117 C   0  0  0  0  0  0  0  0  0  0  0  0
   10.4819  -12.9415   19.9985 O   0  0  0  0  0  0  0  0  0  0  0  0
    7.4621  -13.7159   19.5381 C   0  0  0  0  0  0  0  0  0  0  0  0
    7.2091  -14.4003   20.9190 C   0  0  1  0  0  0  0  0  0  0  0  0
    6.9691  -15.7297   20.6049 O   0  0  0  0  0  0  0  0  0  0  0  0
    8.4820  -14.2205   21.6660 C   0  0  2  0  0  0  0  0  0  0  0  0
    9.5610  -14.8704   20.9279 N   0  0  0  0  0  0  0  0  0  0  0  0
    8.4986  -14.6387   23.0711 C   0  0  0  0  0  0  0  0  0  0  0  0
    9.3815  -15.5472   23.3573 O   0  0  0  0  0  0  0  0  0  0  0  0
    7.6723  -14.1572   24.1002 N   0  0  0  0  0  0  0  0  0  0  0  0
    6.7354  -13.0697   23.8855 C   0  0  0  0  0  0  0  0  0  0  0  0
    6.7566  -12.3688   25.2232 C   0  0  0  0  0  0  0  0  0  0  0  0
    6.5475  -13.6052   26.1184 C   0  0  0  0  0  0  0  0  0  0  0  0
    7.5607  -14.5771   25.4583 C   0  0  1  0  0  0  0  0  0  0  0  0
    6.9793  -15.9132   25.6620 C   0  0  0  0  0  0  0  0  0  0  0  0
    7.0514  -16.6268   26.8405 O   0  0  0  0  0  0  0  0  0  0  0  0
    6.3762  -16.4378   24.6902 O   0  0  0  0  0  0  0  0  0  0  0  0
  2  1  1  6
  3  4  1  0
  3  2  1  0
  4  8  1  0
  5  6  1  0
  5  4  2  0
  6  7  1  0
  7  8  2  0
  9 10  2  0
  9  2  1  0
 12 11  1  6
 12 14  1  0
 13 12  1  0
 14 15  1  6
 15  9  1  0
 16 17  2  0
 16 14  1  0
 18 19  1  0
 18 16  1  0
 19 20  1  0
 20 21  1  0
 22 18  1  0
 22 21  1  0
 22 23  1  6
 24 23  1  0
 25 23  2  0
M  END
$$$$
