AFW.pdb
     RDKit          3D

 31 33  0  0  1  0  0  0  0  0999 V2000
   23.2034  -16.4710  -14.2021 C   0  0  0  0  0  0  0  0  0  0  0  0
   24.1652  -16.9716  -15.2513 C   0  0  2  0  0  0  0  0  0  0  0  0
   23.4632  -17.3981  -16.4316 N   0  0  0  0  0  0  0  0  0  0  0  0
   24.9234  -18.0969  -14.6223 C   0  0  0  0  0  0  0  0  0  0  0  0
   24.4699  -19.2534  -14.5947 O   0  0  0  0  0  0  0  0  0  0  0  0
   26.2064  -17.8946  -14.0228 N   0  0  0  0  0  0  0  0  0  0  0  0
   26.9124  -18.9925  -13.3665 C   0  0  1  0  0  0  0  0  0  0  0  0
   28.4212  -18.7123  -13.4051 C   0  0  0  0  0  0  0  0  0  0  0  0
   29.1827  -19.8252  -12.8189 C   0  0  0  0  0  0  0  0  0  0  0  0
   29.1355  -21.0750  -13.3865 C   0  0  0  0  0  0  0  0  0  0  0  0
   29.8453  -22.1531  -12.8715 C   0  0  0  0  0  0  0  0  0  0  0  0
   30.6276  -22.0123  -11.7668 C   0  0  0  0  0  0  0  0  0  0  0  0
   30.6904  -20.7472  -11.1706 C   0  0  0  0  0  0  0  0  0  0  0  0
   29.9785  -19.6979  -11.7004 C   0  0  0  0  0  0  0  0  0  0  0  0
   26.5422  -18.9995  -11.9310 C   0  0  0  0  0  0  0  0  0  0  0  0
   27.0288  -18.0824  -11.2255 O   0  0  0  0  0  0  0  0  0  0  0  0
   25.7012  -19.9318  -11.3093 N   0  0  0  0  0  0  0  0  0  0  0  0
   26.0739  -20.8656  -10.2725 C   0  0  1  0  0  0  0  0  0  0  0  0
   25.3563  -20.5617   -8.9743 C   0  0  0  0  0  0  0  0  0  0  0  0
   26.2237  -19.7139   -8.1317 C   0  0  0  0  0  0  0  0  0  0  0  0
   26.6135  -18.4033   -8.4462 C   0  0  0  0  0  0  0  0  0  0  0  0
   27.4054  -17.9251   -7.4861 N   0  0  0  0  0  0  0  0  0  0  0  0
   27.5631  -18.8738   -6.5307 C   0  0  0  0  0  0  0  0  0  0  0  0
   28.2725  -18.8724   -5.3552 C   0  0  0  0  0  0  0  0  0  0  0  0
   28.2516  -20.0040   -4.5587 C   0  0  0  0  0  0  0  0  0  0  0  0
   27.5293  -21.1315   -4.9271 C   0  0  0  0  0  0  0  0  0  0  0  0
   26.8159  -21.1206   -6.1183 C   0  0  0  0  0  0  0  0  0  0  0  0
   26.8261  -19.9939   -6.9291 C   0  0  0  0  0  0  0  0  0  0  0  0
   25.9465  -22.2707  -10.5968 C   0  0  0  0  0  0  0  0  0  0  0  0
   25.6585  -22.7812  -11.8460 O   0  0  0  0  0  0  0  0  0  0  0  0
   26.1046  -23.1328   -9.6735 O   0  0  0  0  0  0  0  0  0  0  0  0
  2  1  1  1
  2  3  1  0
  4  5  2  0
  4  2  1  0
  6  4  1  0
  7  6  1  0
  7  8  1  1
  9 14  1  0
  9  8  1  0
 10  9  2  0
 11 12  2  0
 11 10  1  0
 12 13  1  0
 13 14  2  0
 15 17  1  0
 15  7  1  0
 16 15  2  0
 18 17  1  0
 18 29  1  0
 19 20  1  0
 18 19  1  1
 20 21  2  0
 22 21  1  0
 23 22  1  0
 24 23  2  0
 25 24  1  0
 26 27  1  0
 26 25  2  0
 27 28  2  0
 28 23  1  0
 28 20  1  0
 29 30  1  0
 31 29  2  0
M  END
$$$$
