AFW.pdb
     RDKit          3D

 31 33  0  0  1  0  0  0  0  0999 V2000
   30.0881  -22.9127  -18.4194 C   0  0  0  0  0  0  0  0  0  0  0  0
   28.7507  -23.1668  -17.7688 C   0  0  2  0  0  0  0  0  0  0  0  0
   27.6732  -22.7765  -18.6374 N   0  0  0  0  0  0  0  0  0  0  0  0
   28.7473  -22.3806  -16.4965 C   0  0  0  0  0  0  0  0  0  0  0  0
   29.6080  -22.5583  -15.6181 O   0  0  0  0  0  0  0  0  0  0  0  0
   27.7527  -21.3873  -16.2309 N   0  0  0  0  0  0  0  0  0  0  0  0
   27.7671  -20.6212  -14.9869 C   0  0  1  0  0  0  0  0  0  0  0  0
   27.4757  -19.1474  -15.3026 C   0  0  0  0  0  0  0  0  0  0  0  0
   28.6227  -18.5099  -15.9660 C   0  0  0  0  0  0  0  0  0  0  0  0
   28.5215  -18.0770  -17.2655 C   0  0  0  0  0  0  0  0  0  0  0  0
   29.5766  -17.4619  -17.9288 C   0  0  0  0  0  0  0  0  0  0  0  0
   30.7712  -17.2609  -17.3084 C   0  0  0  0  0  0  0  0  0  0  0  0
   30.8977  -17.6950  -15.9834 C   0  0  0  0  0  0  0  0  0  0  0  0
   29.8384  -18.3003  -15.3508 C   0  0  0  0  0  0  0  0  0  0  0  0
   26.6416  -21.0798  -14.1380 C   0  0  0  0  0  0  0  0  0  0  0  0
   25.5974  -21.4316  -14.7392 O   0  0  0  0  0  0  0  0  0  0  0  0
   26.6521  -21.1550  -12.7391 N   0  0  0  0  0  0  0  0  0  0  0  0
   25.6435  -21.7661  -11.9053 C   0  0  1  0  0  0  0  0  0  0  0  0
   26.2465  -22.3304  -10.6362 C   0  0  0  0  0  0  0  0  0  0  0  0
   26.5464  -21.2195   -9.7103 C   0  0  0  0  0  0  0  0  0  0  0  0
   25.6055  -20.2906   -9.2410 C   0  0  0  0  0  0  0  0  0  0  0  0
   26.2019  -19.4119   -8.4348 N   0  0  0  0  0  0  0  0  0  0  0  0
   27.5192  -19.7189   -8.3448 C   0  0  0  0  0  0  0  0  0  0  0  0
   28.5456  -19.1290   -7.6494 C   0  0  0  0  0  0  0  0  0  0  0  0
   29.8164  -19.6689   -7.7442 C   0  0  0  0  0  0  0  0  0  0  0  0
   30.0669  -20.7895   -8.5252 C   0  0  0  0  0  0  0  0  0  0  0  0
   29.0206  -21.3771   -9.2238 C   0  0  0  0  0  0  0  0  0  0  0  0
   27.7399  -20.8483   -9.1398 C   0  0  0  0  0  0  0  0  0  0  0  0
   24.4893  -20.9510  -11.5906 C   0  0  0  0  0  0  0  0  0  0  0  0
   23.2794  -21.4224  -11.1235 O   0  0  0  0  0  0  0  0  0  0  0  0
   24.5635  -19.6901  -11.7502 O   0  0  0  0  0  0  0  0  0  0  0  0
  2  1  1  6
  2  3  1  0
  4  5  2  0
  4  2  1  0
  6  4  1  0
  7  6  1  0
  7  8  1  6
  9 14  1  0
  9  8  1  0
 10  9  2  0
 11 12  2  0
 11 10  1  0
 12 13  1  0
 13 14  2  0
 15 17  1  0
 15  7  1  0
 16 15  2  0
 18 17  1  0
 18 29  1  0
 19 20  1  0
 18 19  1  1
 20 21  2  0
 22 21  1  0
 23 22  1  0
 24 23  2  0
 25 24  1  0
 26 27  1  0
 26 25  2  0
 27 28  2  0
 28 23  1  0
 28 20  1  0
 29 30  1  0
 31 29  2  0
M  END
$$$$
