AFW.pdb
     RDKit          3D

 31 33  0  0  1  0  0  0  0  0999 V2000
   16.5181   -9.0917  -16.6445 C   0  0  0  0  0  0  0  0  0  0  0  0
   17.9994   -8.9108  -16.4222 C   0  0  2  0  0  0  0  0  0  0  0  0
   18.7401  -10.0190  -16.9618 N   0  0  0  0  0  0  0  0  0  0  0  0
   18.1894   -8.7866  -14.9439 C   0  0  0  0  0  0  0  0  0  0  0  0
   17.9904   -9.7448  -14.1783 O   0  0  0  0  0  0  0  0  0  0  0  0
   18.6092   -7.5587  -14.3419 N   0  0  0  0  0  0  0  0  0  0  0  0
   18.9626   -7.4967  -12.9256 C   0  0  1  0  0  0  0  0  0  0  0  0
   20.3962   -6.9647  -12.7897 C   0  0  0  0  0  0  0  0  0  0  0  0
   21.3803   -7.9866  -13.1761 C   0  0  0  0  0  0  0  0  0  0  0  0
   21.6856   -9.0164  -12.3201 C   0  0  0  0  0  0  0  0  0  0  0  0
   22.6025  -10.0082  -12.6470 C   0  0  0  0  0  0  0  0  0  0  0  0
   23.2452   -9.9992  -13.8466 C   0  0  0  0  0  0  0  0  0  0  0  0
   22.9504   -8.9582  -14.7352 C   0  0  0  0  0  0  0  0  0  0  0  0
   22.0393   -7.9901  -14.3869 C   0  0  0  0  0  0  0  0  0  0  0  0
   18.0968   -6.4892  -12.2675 C   0  0  0  0  0  0  0  0  0  0  0  0
   18.0206   -5.3686  -12.8278 O   0  0  0  0  0  0  0  0  0  0  0  0
   17.3640   -6.6869  -11.0899 N   0  0  0  0  0  0  0  0  0  0  0  0
   16.5806   -5.6956  -10.3904 C   0  0  1  0  0  0  0  0  0  0  0  0
   15.0979   -5.9125  -10.6072 C   0  0  0  0  0  0  0  0  0  0  0  0
   14.6966   -7.1777   -9.9597 C   0  0  0  0  0  0  0  0  0  0  0  0
   15.5259   -8.2992   -9.8081 C   0  0  0  0  0  0  0  0  0  0  0  0
   14.8565   -9.2762   -9.1959 N   0  0  0  0  0  0  0  0  0  0  0  0
   13.5981   -8.8489   -8.9287 C   0  0  0  0  0  0  0  0  0  0  0  0
   12.5363   -9.4701   -8.3186 C   0  0  0  0  0  0  0  0  0  0  0  0
   11.3463   -8.7780   -8.1770 C   0  0  0  0  0  0  0  0  0  0  0  0
   11.2111   -7.4750   -8.6381 C   0  0  0  0  0  0  0  0  0  0  0  0
   12.2920   -6.8576   -9.2534 C   0  0  0  0  0  0  0  0  0  0  0  0
   13.4929   -7.5376   -9.4036 C   0  0  0  0  0  0  0  0  0  0  0  0
   16.8608   -5.5333   -8.9794 C   0  0  0  0  0  0  0  0  0  0  0  0
   16.3566   -4.5337   -8.1727 O   0  0  0  0  0  0  0  0  0  0  0  0
   17.6360   -6.3644   -8.4058 O   0  0  0  0  0  0  0  0  0  0  0  0
  2  1  1  1
  2  3  1  0
  4  5  2  0
  4  2  1  0
  6  4  1  0
  7  6  1  0
  7  8  1  6
  9 14  1  0
  9  8  1  0
 10  9  2  0
 11 12  2  0
 11 10  1  0
 12 13  1  0
 13 14  2  0
 15 17  1  0
 15  7  1  0
 16 15  2  0
 18 17  1  0
 18 29  1  0
 19 20  1  0
 18 19  1  1
 20 21  2  0
 22 21  1  0
 23 22  1  0
 24 23  2  0
 25 24  1  0
 26 27  1  0
 26 25  2  0
 27 28  2  0
 28 23  1  0
 28 20  1  0
 29 30  1  0
 31 29  2  0
M  END
$$$$
