AFW.pdb
     RDKit          3D

 31 33  0  0  1  0  0  0  0  0999 V2000
   28.2480  -23.1010  -17.5895 C   0  0  0  0  0  0  0  0  0  0  0  0
   27.3281  -21.9201  -17.4005 C   0  0  2  0  0  0  0  0  0  0  0  0
   28.0319  -20.6821  -17.6003 N   0  0  0  0  0  0  0  0  0  0  0  0
   26.7857  -22.0294  -16.0111 C   0  0  0  0  0  0  0  0  0  0  0  0
   26.1521  -23.0302  -15.6355 O   0  0  0  0  0  0  0  0  0  0  0  0
   26.9706  -20.9868  -15.0492 N   0  0  0  0  0  0  0  0  0  0  0  0
   26.3407  -21.0565  -13.7328 C   0  0  1  0  0  0  0  0  0  0  0  0
   27.1781  -20.2466  -12.7330 C   0  0  0  0  0  0  0  0  0  0  0  0
   26.6101  -20.3249  -11.3790 C   0  0  0  0  0  0  0  0  0  0  0  0
   26.0329  -19.2200  -10.8024 C   0  0  0  0  0  0  0  0  0  0  0  0
   25.4764  -19.2506   -9.5293 C   0  0  0  0  0  0  0  0  0  0  0  0
   25.4812  -20.3938   -8.7908 C   0  0  0  0  0  0  0  0  0  0  0  0
   26.0651  -21.5327   -9.3581 C   0  0  0  0  0  0  0  0  0  0  0  0
   26.6082  -21.4751  -10.6192 C   0  0  0  0  0  0  0  0  0  0  0  0
   25.0271  -20.3729  -13.8021 C   0  0  0  0  0  0  0  0  0  0  0  0
   25.0500  -19.1478  -14.0743 O   0  0  0  0  0  0  0  0  0  0  0  0
   23.7802  -20.9776  -13.5957 N   0  0  0  0  0  0  0  0  0  0  0  0
   22.5020  -20.3082  -13.5335 C   0  0  1  0  0  0  0  0  0  0  0  0
   21.7427  -20.4498  -14.8358 C   0  0  0  0  0  0  0  0  0  0  0  0
   21.9651  -19.2423  -15.6566 C   0  0  0  0  0  0  0  0  0  0  0  0
   23.1586  -18.5057  -15.6924 C   0  0  0  0  0  0  0  0  0  0  0  0
   23.0249  -17.4695  -16.5206 N   0  0  0  0  0  0  0  0  0  0  0  0
   21.7756  -17.4831  -17.0465 C   0  0  0  0  0  0  0  0  0  0  0  0
   21.1545  -16.6442  -17.9387 C   0  0  0  0  0  0  0  0  0  0  0  0
   19.8464  -16.9070  -18.3062 C   0  0  0  0  0  0  0  0  0  0  0  0
   19.1582  -17.9976  -17.7910 C   0  0  0  0  0  0  0  0  0  0  0  0
   19.7970  -18.8385  -16.8894 C   0  0  0  0  0  0  0  0  0  0  0  0
   21.1089  -18.5895  -16.5101 C   0  0  0  0  0  0  0  0  0  0  0  0
   21.6483  -20.6551  -12.4170 C   0  0  0  0  0  0  0  0  0  0  0  0
   20.4732  -20.0158  -12.0787 O   0  0  0  0  0  0  0  0  0  0  0  0
   21.9835  -21.6248  -11.6633 O   0  0  0  0  0  0  0  0  0  0  0  0
  2  1  1  1
  2  3  1  0
  4  5  2  0
  4  2  1  0
  6  4  1  0
  7  6  1  0
  7  8  1  1
  9 14  1  0
  9  8  1  0
 10  9  2  0
 11 12  2  0
 11 10  1  0
 12 13  1  0
 13 14  2  0
 15 17  1  0
 15  7  1  0
 16 15  2  0
 18 17  1  0
 18 29  1  0
 19 20  1  0
 18 19  1  6
 20 21  2  0
 22 21  1  0
 23 22  1  0
 24 23  2  0
 25 24  1  0
 26 27  1  0
 26 25  2  0
 27 28  2  0
 28 23  1  0
 28 20  1  0
 29 30  1  0
 31 29  2  0
M  END
$$$$
