AFW.pdb
     RDKit          3D

 31 33  0  0  1  0  0  0  0  0999 V2000
   18.4131   -6.6140  -22.3461 C   0  0  0  0  0  0  0  0  0  0  0  0
   18.2718   -7.0714  -20.9153 C   0  0  2  0  0  0  0  0  0  0  0  0
   16.9172   -6.9188  -20.4574 N   0  0  0  0  0  0  0  0  0  0  0  0
   19.2230   -6.2409  -20.1138 C   0  0  0  0  0  0  0  0  0  0  0  0
   20.3998   -6.0681  -20.4731 O   0  0  0  0  0  0  0  0  0  0  0  0
   18.8225   -5.6065  -18.8958 N   0  0  0  0  0  0  0  0  0  0  0  0
   19.7666   -4.8091  -18.1164 C   0  0  1  0  0  0  0  0  0  0  0  0
   18.9858   -3.7961  -17.2675 C   0  0  0  0  0  0  0  0  0  0  0  0
   19.8929   -2.9821  -16.4449 C   0  0  0  0  0  0  0  0  0  0  0  0
   20.5600   -1.9146  -16.9944 C   0  0  0  0  0  0  0  0  0  0  0  0
   21.4198   -1.1133  -16.2527 C   0  0  0  0  0  0  0  0  0  0  0  0
   21.6394   -1.3576  -14.9320 C   0  0  0  0  0  0  0  0  0  0  0  0
   20.9705   -2.4414  -14.3506 C   0  0  0  0  0  0  0  0  0  0  0  0
   20.1255   -3.2177  -15.1067 C   0  0  0  0  0  0  0  0  0  0  0  0
   20.4504   -5.7005  -17.1492 C   0  0  0  0  0  0  0  0  0  0  0  0
   19.7101   -6.4158  -16.4309 O   0  0  0  0  0  0  0  0  0  0  0  0
   21.8367   -5.8099  -16.9788 N   0  0  0  0  0  0  0  0  0  0  0  0
   22.5233   -6.7310  -16.1035 C   0  0  1  0  0  0  0  0  0  0  0  0
   23.0838   -7.9079  -16.8736 C   0  0  0  0  0  0  0  0  0  0  0  0
   23.8065   -8.7945  -15.9394 C   0  0  0  0  0  0  0  0  0  0  0  0
   23.2042   -9.5465  -14.9195 C   0  0  0  0  0  0  0  0  0  0  0  0
   24.1352  -10.2271  -14.2505 N   0  0  0  0  0  0  0  0  0  0  0  0
   25.3503   -9.9577  -14.7877 C   0  0  0  0  0  0  0  0  0  0  0  0
   26.6078  -10.4033  -14.4631 C   0  0  0  0  0  0  0  0  0  0  0  0
   27.6892   -9.9527  -15.2000 C   0  0  0  0  0  0  0  0  0  0  0  0
   27.5229   -9.0645  -16.2545 C   0  0  0  0  0  0  0  0  0  0  0  0
   26.2462   -8.6211  -16.5730 C   0  0  0  0  0  0  0  0  0  0  0  0
   25.1506   -9.0630  -15.8440 C   0  0  0  0  0  0  0  0  0  0  0  0
   23.5425   -6.1641  -15.2458 C   0  0  0  0  0  0  0  0  0  0  0  0
   23.5865   -6.2781  -13.8713 O   0  0  0  0  0  0  0  0  0  0  0  0
   24.4896   -5.4963  -15.7729 O   0  0  0  0  0  0  0  0  0  0  0  0
  2  1  1  6
  2  3  1  0
  4  5  2  0
  4  2  1  0
  6  4  1  0
  7  6  1  0
  7  8  1  1
  9 14  1  0
  9  8  1  0
 10  9  2  0
 11 12  2  0
 11 10  1  0
 12 13  1  0
 13 14  2  0
 15 17  1  0
 15  7  1  0
 16 15  2  0
 18 17  1  0
 18 29  1  0
 19 20  1  0
 18 19  1  6
 20 21  2  0
 22 21  1  0
 23 22  1  0
 24 23  2  0
 25 24  1  0
 26 27  1  0
 26 25  2  0
 27 28  2  0
 28 23  1  0
 28 20  1  0
 29 30  1  0
 31 29  2  0
M  END
$$$$
