AFW.pdb
     RDKit          3D

 31 33  0  0  1  0  0  0  0  0999 V2000
   26.6929  -21.5927  -18.5659 C   0  0  0  0  0  0  0  0  0  0  0  0
   27.8190  -21.9943  -17.6455 C   0  0  2  0  0  0  0  0  0  0  0  0
   28.4258  -23.2233  -18.0802 N   0  0  0  0  0  0  0  0  0  0  0  0
   27.2191  -22.1262  -16.2819 C   0  0  0  0  0  0  0  0  0  0  0  0
   26.6215  -23.1571  -15.9296 O   0  0  0  0  0  0  0  0  0  0  0  0
   27.3051  -21.0717  -15.3191 N   0  0  0  0  0  0  0  0  0  0  0  0
   26.7010  -21.2092  -13.9959 C   0  0  1  0  0  0  0  0  0  0  0  0
   27.3759  -20.2233  -13.0320 C   0  0  0  0  0  0  0  0  0  0  0  0
   26.8121  -20.3342  -11.6785 C   0  0  0  0  0  0  0  0  0  0  0  0
   27.3216  -21.2452  -10.7858 C   0  0  0  0  0  0  0  0  0  0  0  0
   26.8255  -21.3784   -9.4944 C   0  0  0  0  0  0  0  0  0  0  0  0
   25.7990  -20.6002   -9.0554 C   0  0  0  0  0  0  0  0  0  0  0  0
   25.2630  -19.6649   -9.9487 C   0  0  0  0  0  0  0  0  0  0  0  0
   25.7724  -19.5536  -11.2201 C   0  0  0  0  0  0  0  0  0  0  0  0
   25.2836  -20.7830  -14.0783 C   0  0  0  0  0  0  0  0  0  0  0  0
   25.0557  -19.7253  -14.7146 O   0  0  0  0  0  0  0  0  0  0  0  0
   24.1936  -21.4593  -13.5147 N   0  0  0  0  0  0  0  0  0  0  0  0
   22.8306  -20.9861  -13.4505 C   0  0  1  0  0  0  0  0  0  0  0  0
   21.8480  -22.1379  -13.4427 C   0  0  0  0  0  0  0  0  0  0  0  0
   20.4787  -21.6037  -13.5866 C   0  0  0  0  0  0  0  0  0  0  0  0
   19.8381  -21.3584  -14.8105 C   0  0  0  0  0  0  0  0  0  0  0  0
   18.6187  -20.8661  -14.5912 N   0  0  0  0  0  0  0  0  0  0  0  0
   18.4150  -20.7708  -13.2544 C   0  0  0  0  0  0  0  0  0  0  0  0
   17.3364  -20.3313  -12.5272 C   0  0  0  0  0  0  0  0  0  0  0  0
   17.4085  -20.3478  -11.1453 C   0  0  0  0  0  0  0  0  0  0  0  0
   18.5457  -20.7990  -10.4882 C   0  0  0  0  0  0  0  0  0  0  0  0
   19.6300  -21.2408  -11.2347 C   0  0  0  0  0  0  0  0  0  0  0  0
   19.5744  -21.2309  -12.6217 C   0  0  0  0  0  0  0  0  0  0  0  0
   22.5218  -20.0586  -12.3827 C   0  0  0  0  0  0  0  0  0  0  0  0
   21.8218  -18.8780  -12.5250 O   0  0  0  0  0  0  0  0  0  0  0  0
   22.9179  -20.3242  -11.2023 O   0  0  0  0  0  0  0  0  0  0  0  0
  2  1  1  6
  2  3  1  0
  4  5  2  0
  4  2  1  0
  6  4  1  0
  7  6  1  0
  7  8  1  1
  9 14  1  0
  9  8  1  0
 10  9  2  0
 11 12  2  0
 11 10  1  0
 12 13  1  0
 13 14  2  0
 15 17  1  0
 15  7  1  0
 16 15  2  0
 18 17  1  0
 18 29  1  0
 19 20  1  0
 18 19  1  1
 20 21  2  0
 22 21  1  0
 23 22  1  0
 24 23  2  0
 25 24  1  0
 26 27  1  0
 26 25  2  0
 27 28  2  0
 28 23  1  0
 28 20  1  0
 29 30  1  0
 31 29  2  0
M  END
$$$$
