AFW.pdb
     RDKit          3D

 31 33  0  0  1  0  0  0  0  0999 V2000
   29.8196  -25.1835  -16.5196 C   0  0  0  0  0  0  0  0  0  0  0  0
   29.6761  -23.9577  -17.3876 C   0  0  2  0  0  0  0  0  0  0  0  0
   30.8636  -23.7378  -18.1682 N   0  0  0  0  0  0  0  0  0  0  0  0
   29.4054  -22.8164  -16.4598 C   0  0  0  0  0  0  0  0  0  0  0  0
   30.3270  -22.1437  -15.9676 O   0  0  0  0  0  0  0  0  0  0  0  0
   28.0728  -22.4456  -16.0952 N   0  0  0  0  0  0  0  0  0  0  0  0
   27.8148  -21.2424  -15.3076 C   0  0  1  0  0  0  0  0  0  0  0  0
   27.0144  -20.2475  -16.1598 C   0  0  0  0  0  0  0  0  0  0  0  0
   26.6583  -19.0504  -15.3837 C   0  0  0  0  0  0  0  0  0  0  0  0
   25.3849  -18.8931  -14.8937 C   0  0  0  0  0  0  0  0  0  0  0  0
   25.0067  -17.7827  -14.1485 C   0  0  0  0  0  0  0  0  0  0  0  0
   25.8960  -16.7908  -13.8701 C   0  0  0  0  0  0  0  0  0  0  0  0
   27.2001  -16.9294  -14.3602 C   0  0  0  0  0  0  0  0  0  0  0  0
   27.5478  -18.0378  -15.0944 C   0  0  0  0  0  0  0  0  0  0  0  0
   26.9300  -21.6021  -14.1738 C   0  0  0  0  0  0  0  0  0  0  0  0
   26.0312  -22.4448  -14.4138 O   0  0  0  0  0  0  0  0  0  0  0  0
   27.0187  -21.0873  -12.8738 N   0  0  0  0  0  0  0  0  0  0  0  0
   26.2126  -21.4763  -11.7403 C   0  0  1  0  0  0  0  0  0  0  0  0
   27.0750  -21.8296  -10.5470 C   0  0  0  0  0  0  0  0  0  0  0  0
   26.9947  -20.7384   -9.5550 C   0  0  0  0  0  0  0  0  0  0  0  0
   26.0380  -19.7123   -9.5673 C   0  0  0  0  0  0  0  0  0  0  0  0
   26.2514  -18.8838   -8.5447 N   0  0  0  0  0  0  0  0  0  0  0  0
   27.3249  -19.3191   -7.8406 C   0  0  0  0  0  0  0  0  0  0  0  0
   27.9384  -18.8226   -6.7170 C   0  0  0  0  0  0  0  0  0  0  0  0
   29.0384  -19.4882   -6.2049 C   0  0  0  0  0  0  0  0  0  0  0  0
   29.5267  -20.6415   -6.8048 C   0  0  0  0  0  0  0  0  0  0  0  0
   28.8976  -21.1337   -7.9406 C   0  0  0  0  0  0  0  0  0  0  0  0
   27.7931  -20.4784   -8.4675 C   0  0  0  0  0  0  0  0  0  0  0  0
   25.1689  -20.5536  -11.3468 C   0  0  0  0  0  0  0  0  0  0  0  0
   25.1685  -19.1949  -11.5881 O   0  0  0  0  0  0  0  0  0  0  0  0
   24.1544  -21.0013  -10.7214 O   0  0  0  0  0  0  0  0  0  0  0  0
  2  1  1  1
  2  3  1  0
  4  5  2  0
  4  2  1  0
  6  4  1  0
  7  6  1  0
  7  8  1  6
  9 14  1  0
  9  8  1  0
 10  9  2  0
 11 12  2  0
 11 10  1  0
 12 13  1  0
 13 14  2  0
 15 17  1  0
 15  7  1  0
 16 15  2  0
 18 17  1  0
 18 29  1  0
 19 20  1  0
 18 19  1  1
 20 21  2  0
 22 21  1  0
 23 22  1  0
 24 23  2  0
 25 24  1  0
 26 27  1  0
 26 25  2  0
 27 28  2  0
 28 23  1  0
 28 20  1  0
 29 30  1  0
 31 29  2  0
M  END
$$$$
