AFW.pdb
     RDKit          3D

 31 33  0  0  1  0  0  0  0  0999 V2000
   27.2603  -18.1784  -13.8440 C   0  0  0  0  0  0  0  0  0  0  0  0
   28.1087  -19.2956  -13.2887 C   0  0  2  0  0  0  0  0  0  0  0  0
   28.8918  -19.9116  -14.3255 N   0  0  0  0  0  0  0  0  0  0  0  0
   27.1622  -20.2678  -12.6595 C   0  0  0  0  0  0  0  0  0  0  0  0
   26.8783  -21.3475  -13.2053 O   0  0  0  0  0  0  0  0  0  0  0  0
   26.5391  -20.0004  -11.3999 N   0  0  0  0  0  0  0  0  0  0  0  0
   25.5857  -20.9414  -10.8167 C   0  0  1  0  0  0  0  0  0  0  0  0
   25.4625  -20.6622   -9.3122 C   0  0  0  0  0  0  0  0  0  0  0  0
   26.7851  -20.6129   -8.6716 C   0  0  0  0  0  0  0  0  0  0  0  0
   27.0679  -19.6497   -7.7341 C   0  0  0  0  0  0  0  0  0  0  0  0
   28.3008  -19.5708   -7.0975 C   0  0  0  0  0  0  0  0  0  0  0  0
   29.2931  -20.4578   -7.3816 C   0  0  0  0  0  0  0  0  0  0  0  0
   29.0276  -21.4482   -8.3349 C   0  0  0  0  0  0  0  0  0  0  0  0
   27.7997  -21.5038   -8.9495 C   0  0  0  0  0  0  0  0  0  0  0  0
   24.2448  -20.6678  -11.3866 C   0  0  0  0  0  0  0  0  0  0  0  0
   23.7404  -19.5513  -11.1135 O   0  0  0  0  0  0  0  0  0  0  0  0
   23.5086  -21.5415  -12.1975 N   0  0  0  0  0  0  0  0  0  0  0  0
   22.2279  -21.2713  -12.8079 C   0  0  1  0  0  0  0  0  0  0  0  0
   22.2600  -19.9868  -13.6089 C   0  0  0  0  0  0  0  0  0  0  0  0
   23.3245  -20.0816  -14.6283 C   0  0  0  0  0  0  0  0  0  0  0  0
   24.1512  -21.1983  -14.8230 C   0  0  0  0  0  0  0  0  0  0  0  0
   25.0135  -20.9550  -15.8102 N   0  0  0  0  0  0  0  0  0  0  0  0
   24.7948  -19.7060  -16.2896 C   0  0  0  0  0  0  0  0  0  0  0  0
   25.4075  -18.9958  -17.2923 C   0  0  0  0  0  0  0  0  0  0  0  0
   24.9661  -17.7143  -17.5717 C   0  0  0  0  0  0  0  0  0  0  0  0
   23.9209  -17.1407  -16.8597 C   0  0  0  0  0  0  0  0  0  0  0  0
   23.3093  -17.8690  -15.8479 C   0  0  0  0  0  0  0  0  0  0  0  0
   23.7397  -19.1557  -15.5546 C   0  0  0  0  0  0  0  0  0  0  0  0
   21.6548  -22.3395  -13.5993 C   0  0  0  0  0  0  0  0  0  0  0  0
   20.3578  -22.3811  -14.0686 O   0  0  0  0  0  0  0  0  0  0  0  0
   22.3816  -23.3399  -13.9020 O   0  0  0  0  0  0  0  0  0  0  0  0
  2  1  1  6
  2  3  1  0
  4  5  2  0
  4  2  1  0
  6  4  1  0
  7  6  1  0
  7  8  1  1
  9 14  1  0
  9  8  1  0
 10  9  2  0
 11 12  2  0
 11 10  1  0
 12 13  1  0
 13 14  2  0
 15 17  1  0
 15  7  1  0
 16 15  2  0
 18 17  1  0
 18 29  1  0
 19 20  1  0
 18 19  1  6
 20 21  2  0
 22 21  1  0
 23 22  1  0
 24 23  2  0
 25 24  1  0
 26 27  1  0
 26 25  2  0
 27 28  2  0
 28 23  1  0
 28 20  1  0
 29 30  1  0
 31 29  2  0
M  END
$$$$
