AFW.pdb
     RDKit          3D

 31 33  0  0  1  0  0  0  0  0999 V2000
   11.9520  -14.3321    7.1419 C   0  0  0  0  0  0  0  0  0  0  0  0
   12.4416  -13.2043    6.2674 C   0  0  2  0  0  0  0  0  0  0  0  0
   11.7653  -13.2060    4.9984 N   0  0  0  0  0  0  0  0  0  0  0  0
   13.9150  -13.4062    6.1086 C   0  0  0  0  0  0  0  0  0  0  0  0
   14.3757  -14.2851    5.3608 O   0  0  0  0  0  0  0  0  0  0  0  0
   14.8632  -12.5970    6.8104 N   0  0  0  0  0  0  0  0  0  0  0  0
   16.2995  -12.7798    6.6153 C   0  0  1  0  0  0  0  0  0  0  0  0
   17.0286  -11.4919    7.0231 C   0  0  0  0  0  0  0  0  0  0  0  0
   18.4581  -11.5618    6.6860 C   0  0  0  0  0  0  0  0  0  0  0  0
   19.4046  -11.6201    7.6795 C   0  0  0  0  0  0  0  0  0  0  0  0
   20.7653  -11.6957    7.4070 C   0  0  0  0  0  0  0  0  0  0  0  0
   21.2222  -11.7150    6.1252 C   0  0  0  0  0  0  0  0  0  0  0  0
   20.2753  -11.6557    5.0957 C   0  0  0  0  0  0  0  0  0  0  0  0
   18.9356  -11.5816    5.3929 C   0  0  0  0  0  0  0  0  0  0  0  0
   16.7737  -13.8238    7.5550 C   0  0  0  0  0  0  0  0  0  0  0  0
   16.2583  -13.8191    8.6995 O   0  0  0  0  0  0  0  0  0  0  0  0
   17.7336  -14.8037    7.2699 N   0  0  0  0  0  0  0  0  0  0  0  0
   18.1923  -15.8409    8.1641 C   0  0  1  0  0  0  0  0  0  0  0  0
   18.6253  -17.0744    7.4001 C   0  0  0  0  0  0  0  0  0  0  0  0
   17.4390  -17.6968    6.7786 C   0  0  0  0  0  0  0  0  0  0  0  0
   16.6405  -17.0950    5.7944 C   0  0  0  0  0  0  0  0  0  0  0  0
   15.6447  -17.9148    5.4573 N   0  0  0  0  0  0  0  0  0  0  0  0
   15.7457  -19.0543    6.1846 C   0  0  0  0  0  0  0  0  0  0  0  0
   14.9757  -20.1909    6.2070 C   0  0  0  0  0  0  0  0  0  0  0  0
   15.3225  -21.2183    7.0669 C   0  0  0  0  0  0  0  0  0  0  0  0
   16.4289  -21.1182    7.9002 C   0  0  0  0  0  0  0  0  0  0  0  0
   17.1998  -19.9636    7.8685 C   0  0  0  0  0  0  0  0  0  0  0  0
   16.8659  -18.9236    7.0119 C   0  0  0  0  0  0  0  0  0  0  0  0
   19.2117  -15.4615    9.1195 C   0  0  0  0  0  0  0  0  0  0  0  0
   19.6218  -16.2203   10.1966 O   0  0  0  0  0  0  0  0  0  0  0  0
   19.7955  -14.3383    8.9839 O   0  0  0  0  0  0  0  0  0  0  0  0
  2  1  1  1
  2  3  1  0
  4  5  2  0
  4  2  1  0
  6  4  1  0
  7  6  1  0
  7  8  1  1
  9 14  1  0
  9  8  1  0
 10  9  2  0
 11 12  2  0
 11 10  1  0
 12 13  1  0
 13 14  2  0
 15 17  1  0
 15  7  1  0
 16 15  2  0
 18 17  1  0
 18 29  1  0
 19 20  1  0
 18 19  1  6
 20 21  2  0
 22 21  1  0
 23 22  1  0
 24 23  2  0
 25 24  1  0
 26 27  1  0
 26 25  2  0
 27 28  2  0
 28 23  1  0
 28 20  1  0
 29 30  1  0
 31 29  2  0
M  END
$$$$
