AFW.pdb
     RDKit          3D

 31 33  0  0  1  0  0  0  0  0999 V2000
   27.6206  -19.0967  -14.5929 C   0  0  0  0  0  0  0  0  0  0  0  0
   28.2445  -20.0920  -13.6462 C   0  0  2  0  0  0  0  0  0  0  0  0
   29.0442  -21.0504  -14.3602 N   0  0  0  0  0  0  0  0  0  0  0  0
   27.1125  -20.7477  -12.9213 C   0  0  0  0  0  0  0  0  0  0  0  0
   26.6120  -21.8124  -13.3210 O   0  0  0  0  0  0  0  0  0  0  0  0
   26.5526  -20.1796  -11.7337 N   0  0  0  0  0  0  0  0  0  0  0  0
   25.3896  -20.7825  -11.0867 C   0  0  1  0  0  0  0  0  0  0  0  0
   25.2173  -20.1667   -9.6911 C   0  0  0  0  0  0  0  0  0  0  0  0
   26.4573  -20.2721   -8.9079 C   0  0  0  0  0  0  0  0  0  0  0  0
   27.1911  -21.4331   -8.9207 C   0  0  0  0  0  0  0  0  0  0  0  0
   28.3727  -21.5740   -8.2028 C   0  0  0  0  0  0  0  0  0  0  0  0
   28.8580  -20.5521   -7.4463 C   0  0  0  0  0  0  0  0  0  0  0  0
   28.1262  -19.3590   -7.4175 C   0  0  0  0  0  0  0  0  0  0  0  0
   26.9607  -19.2461   -8.1369 C   0  0  0  0  0  0  0  0  0  0  0  0
   24.1760  -20.3991  -11.8469 C   0  0  0  0  0  0  0  0  0  0  0  0
   24.2566  -19.3521  -12.5345 O   0  0  0  0  0  0  0  0  0  0  0  0
   22.9656  -21.1046  -11.8624 N   0  0  0  0  0  0  0  0  0  0  0  0
   21.9548  -21.0512  -12.8925 C   0  0  1  0  0  0  0  0  0  0  0  0
   22.4354  -21.7070  -14.1697 C   0  0  0  0  0  0  0  0  0  0  0  0
   21.4651  -21.4298  -15.2481 C   0  0  0  0  0  0  0  0  0  0  0  0
   21.5600  -20.3665  -16.1584 C   0  0  0  0  0  0  0  0  0  0  0  0
   20.5197  -20.3914  -16.9918 N   0  0  0  0  0  0  0  0  0  0  0  0
   19.7230  -21.4406  -16.6721 C   0  0  0  0  0  0  0  0  0  0  0  0
   18.5484  -21.8919  -17.2215 C   0  0  0  0  0  0  0  0  0  0  0  0
   17.9427  -23.0124  -16.6803 C   0  0  0  0  0  0  0  0  0  0  0  0
   18.5007  -23.6821  -15.5992 C   0  0  0  0  0  0  0  0  0  0  0  0
   19.6889  -23.2159  -15.0524 C   0  0  0  0  0  0  0  0  0  0  0  0
   20.3096  -22.0933  -15.5830 C   0  0  0  0  0  0  0  0  0  0  0  0
   20.6453  -21.5542  -12.5348 C   0  0  0  0  0  0  0  0  0  0  0  0
   20.3728  -22.8303  -12.0860 O   0  0  0  0  0  0  0  0  0  0  0  0
   19.6397  -20.7799  -12.6343 O   0  0  0  0  0  0  0  0  0  0  0  0
  2  1  1  6
  2  3  1  0
  4  5  2  0
  4  2  1  0
  6  4  1  0
  7  6  1  0
  7  8  1  1
  9 14  1  0
  9  8  1  0
 10  9  2  0
 11 12  2  0
 11 10  1  0
 12 13  1  0
 13 14  2  0
 15 17  1  0
 15  7  1  0
 16 15  2  0
 18 17  1  0
 18 29  1  0
 19 20  1  0
 18 19  1  6
 20 21  2  0
 22 21  1  0
 23 22  1  0
 24 23  2  0
 25 24  1  0
 26 27  1  0
 26 25  2  0
 27 28  2  0
 28 23  1  0
 28 20  1  0
 29 30  1  0
 31 29  2  0
M  END
$$$$
