AFW.pdb
     RDKit          3D

 31 33  0  0  1  0  0  0  0  0999 V2000
   29.7249  -19.8012  -18.7214 C   0  0  0  0  0  0  0  0  0  0  0  0
   29.2426  -20.9171  -17.8278 C   0  0  2  0  0  0  0  0  0  0  0  0
   28.1647  -21.6416  -18.4451 N   0  0  0  0  0  0  0  0  0  0  0  0
   28.8141  -20.2736  -16.5476 C   0  0  0  0  0  0  0  0  0  0  0  0
   29.6127  -19.6396  -15.8375 O   0  0  0  0  0  0  0  0  0  0  0  0
   27.4647  -20.3580  -16.0803 N   0  0  0  0  0  0  0  0  0  0  0  0
   27.0664  -19.7454  -14.8151 C   0  0  1  0  0  0  0  0  0  0  0  0
   25.8624  -18.8252  -15.0610 C   0  0  0  0  0  0  0  0  0  0  0  0
   26.2922  -17.5120  -15.5637 C   0  0  0  0  0  0  0  0  0  0  0  0
   26.6243  -16.5072  -14.6882 C   0  0  0  0  0  0  0  0  0  0  0  0
   27.0436  -15.2541  -15.1187 C   0  0  0  0  0  0  0  0  0  0  0  0
   27.1431  -14.9671  -16.4454 C   0  0  0  0  0  0  0  0  0  0  0  0
   26.8087  -15.9760  -17.3565 C   0  0  0  0  0  0  0  0  0  0  0  0
   26.3972  -17.2066  -16.9039 C   0  0  0  0  0  0  0  0  0  0  0  0
   26.5778  -20.8116  -13.9084 C   0  0  0  0  0  0  0  0  0  0  0  0
   26.9559  -21.9802  -14.1676 O   0  0  0  0  0  0  0  0  0  0  0  0
   25.7438  -20.6211  -12.7989 N   0  0  0  0  0  0  0  0  0  0  0  0
   25.6587  -21.4704  -11.6338 C   0  0  1  0  0  0  0  0  0  0  0  0
   26.9952  -21.5749  -10.9302 C   0  0  0  0  0  0  0  0  0  0  0  0
   26.9848  -20.6955   -9.7437 C   0  0  0  0  0  0  0  0  0  0  0  0
   25.9374  -19.8288   -9.3971 C   0  0  0  0  0  0  0  0  0  0  0  0
   26.2479  -19.1690   -8.2809 N   0  0  0  0  0  0  0  0  0  0  0  0
   27.4752  -19.5637   -7.8618 C   0  0  0  0  0  0  0  0  0  0  0  0
   28.2312  -19.1884   -6.7789 C   0  0  0  0  0  0  0  0  0  0  0  0
   29.4733  -19.7704   -6.5950 C   0  0  0  0  0  0  0  0  0  0  0  0
   29.9624  -20.7208   -7.4815 C   0  0  0  0  0  0  0  0  0  0  0  0
   29.1884  -21.0920   -8.5730 C   0  0  0  0  0  0  0  0  0  0  0  0
   27.9402  -20.5181   -8.7724 C   0  0  0  0  0  0  0  0  0  0  0  0
   24.6160  -21.1522  -10.6813 C   0  0  0  0  0  0  0  0  0  0  0  0
   23.9540  -19.9448  -10.5924 O   0  0  0  0  0  0  0  0  0  0  0  0
   24.2592  -22.0383   -9.8397 O   0  0  0  0  0  0  0  0  0  0  0  0
  2  1  1  6
  2  3  1  0
  4  5  2  0
  4  2  1  0
  6  4  1  0
  7  6  1  0
  7  8  1  6
  9 14  1  0
  9  8  1  0
 10  9  2  0
 11 12  2  0
 11 10  1  0
 12 13  1  0
 13 14  2  0
 15 17  1  0
 15  7  1  0
 16 15  2  0
 18 17  1  0
 18 29  1  0
 19 20  1  0
 18 19  1  1
 20 21  2  0
 22 21  1  0
 23 22  1  0
 24 23  2  0
 25 24  1  0
 26 27  1  0
 26 25  2  0
 27 28  2  0
 28 23  1  0
 28 20  1  0
 29 30  1  0
 31 29  2  0
M  END
$$$$
