AFW.pdb
     RDKit          3D

 31 33  0  0  1  0  0  0  0  0999 V2000
   27.4060  -18.5373  -14.4192 C   0  0  0  0  0  0  0  0  0  0  0  0
   28.1758  -19.5818  -13.6492 C   0  0  2  0  0  0  0  0  0  0  0  0
   28.9890  -20.3757  -14.5303 N   0  0  0  0  0  0  0  0  0  0  0  0
   27.1569  -20.4140  -12.9379 C   0  0  0  0  0  0  0  0  0  0  0  0
   26.7918  -21.5163  -13.3800 O   0  0  0  0  0  0  0  0  0  0  0  0
   26.5546  -19.9798  -11.7151 N   0  0  0  0  0  0  0  0  0  0  0  0
   25.6074  -20.8308  -10.9987 C   0  0  1  0  0  0  0  0  0  0  0  0
   25.5106  -20.3569   -9.5417 C   0  0  0  0  0  0  0  0  0  0  0  0
   26.8103  -20.4617   -8.8622 C   0  0  0  0  0  0  0  0  0  0  0  0
   27.7969  -21.2712   -9.3699 C   0  0  0  0  0  0  0  0  0  0  0  0
   29.0425  -21.3940   -8.7658 C   0  0  0  0  0  0  0  0  0  0  0  0
   29.3396  -20.7072   -7.6290 C   0  0  0  0  0  0  0  0  0  0  0  0
   28.3487  -19.8763   -7.0927 C   0  0  0  0  0  0  0  0  0  0  0  0
   27.1254  -19.7729   -7.7104 C   0  0  0  0  0  0  0  0  0  0  0  0
   24.2582  -20.6256  -11.5777 C   0  0  0  0  0  0  0  0  0  0  0  0
   23.7265  -19.5077  -11.3696 O   0  0  0  0  0  0  0  0  0  0  0  0
   23.5419  -21.5645  -12.3315 N   0  0  0  0  0  0  0  0  0  0  0  0
   22.2496  -21.3660  -12.9450 C   0  0  1  0  0  0  0  0  0  0  0  0
   22.2422  -20.1352  -13.8267 C   0  0  0  0  0  0  0  0  0  0  0  0
   23.3440  -20.2368  -14.8048 C   0  0  0  0  0  0  0  0  0  0  0  0
   23.8974  -21.4403  -15.2672 C   0  0  0  0  0  0  0  0  0  0  0  0
   24.8807  -21.1831  -16.1299 N   0  0  0  0  0  0  0  0  0  0  0  0
   25.0094  -19.8404  -16.2651 C   0  0  0  0  0  0  0  0  0  0  0  0
   25.8633  -19.0800  -17.0252 C   0  0  0  0  0  0  0  0  0  0  0  0
   25.7657  -17.7008  -16.9652 C   0  0  0  0  0  0  0  0  0  0  0  0
   24.8243  -17.0794  -16.1551 C   0  0  0  0  0  0  0  0  0  0  0  0
   23.9664  -17.8593  -15.3910 C   0  0  0  0  0  0  0  0  0  0  0  0
   24.0509  -19.2441  -15.4393 C   0  0  0  0  0  0  0  0  0  0  0  0
   21.6974  -22.4967  -13.6608 C   0  0  0  0  0  0  0  0  0  0  0  0
   20.4092  -22.5845  -14.1478 O   0  0  0  0  0  0  0  0  0  0  0  0
   22.4356  -23.5121  -13.8723 O   0  0  0  0  0  0  0  0  0  0  0  0
  2  1  1  6
  2  3  1  0
  4  5  2  0
  4  2  1  0
  6  4  1  0
  7  6  1  0
  7  8  1  1
  9 14  1  0
  9  8  1  0
 10  9  2  0
 11 12  2  0
 11 10  1  0
 12 13  1  0
 13 14  2  0
 15 17  1  0
 15  7  1  0
 16 15  2  0
 18 17  1  0
 18 29  1  0
 19 20  1  0
 18 19  1  6
 20 21  2  0
 22 21  1  0
 23 22  1  0
 24 23  2  0
 25 24  1  0
 26 27  1  0
 26 25  2  0
 27 28  2  0
 28 23  1  0
 28 20  1  0
 29 30  1  0
 31 29  2  0
M  END
$$$$
