AFW.pdb
     RDKit          3D

 31 33  0  0  1  0  0  0  0  0999 V2000
   22.7428  -13.9875  -19.2269 C   0  0  0  0  0  0  0  0  0  0  0  0
   24.1876  -13.9380  -18.7951 C   0  0  2  0  0  0  0  0  0  0  0  0
   24.6284  -15.2232  -18.3241 N   0  0  0  0  0  0  0  0  0  0  0  0
   24.2694  -12.8987  -17.7228 C   0  0  0  0  0  0  0  0  0  0  0  0
   23.8739  -13.1228  -16.5663 O   0  0  0  0  0  0  0  0  0  0  0  0
   24.8066  -11.5977  -17.9782 N   0  0  0  0  0  0  0  0  0  0  0  0
   24.9418  -10.6151  -16.9055 C   0  0  1  0  0  0  0  0  0  0  0  0
   26.4201  -10.2256  -16.7660 C   0  0  0  0  0  0  0  0  0  0  0  0
   27.2267  -11.3629  -16.2990 C   0  0  0  0  0  0  0  0  0  0  0  0
   28.2314  -11.8718  -17.0852 C   0  0  0  0  0  0  0  0  0  0  0  0
   29.0237  -12.9395  -16.6806 C   0  0  0  0  0  0  0  0  0  0  0  0
   28.8333  -13.5334  -15.4710 C   0  0  0  0  0  0  0  0  0  0  0  0
   27.8140  -13.0318  -14.6528 C   0  0  0  0  0  0  0  0  0  0  0  0
   27.0451  -11.9747  -15.0771 C   0  0  0  0  0  0  0  0  0  0  0  0
   24.2368   -9.3754  -17.3103 C   0  0  0  0  0  0  0  0  0  0  0  0
   24.3166   -9.0595  -18.5225 O   0  0  0  0  0  0  0  0  0  0  0  0
   23.4958   -8.5432  -16.4611 N   0  0  0  0  0  0  0  0  0  0  0  0
   22.6051   -7.4803  -16.8648 C   0  0  1  0  0  0  0  0  0  0  0  0
   21.5945   -7.9657  -17.8823 C   0  0  0  0  0  0  0  0  0  0  0  0
   20.8222   -6.8107  -18.3828 C   0  0  0  0  0  0  0  0  0  0  0  0
   21.2637   -5.4792  -18.3575 C   0  0  0  0  0  0  0  0  0  0  0  0
   20.3257   -4.6826  -18.8704 N   0  0  0  0  0  0  0  0  0  0  0  0
   19.2618   -5.4361  -19.2422 C   0  0  0  0  0  0  0  0  0  0  0  0
   18.0609   -5.0955  -19.8142 C   0  0  0  0  0  0  0  0  0  0  0  0
   17.1440   -6.0942  -20.0919 C   0  0  0  0  0  0  0  0  0  0  0  0
   17.4181   -7.4248  -19.8037 C   0  0  0  0  0  0  0  0  0  0  0  0
   18.6361   -7.7565  -19.2252 C   0  0  0  0  0  0  0  0  0  0  0  0
   19.5671   -6.7671  -18.9400 C   0  0  0  0  0  0  0  0  0  0  0  0
   21.9368   -6.7625  -15.7999 C   0  0  0  0  0  0  0  0  0  0  0  0
   21.8041   -5.3914  -15.7189 O   0  0  0  0  0  0  0  0  0  0  0  0
   21.4203   -7.4225  -14.8417 O   0  0  0  0  0  0  0  0  0  0  0  0
  2  1  1  1
  2  3  1  0
  4  5  2  0
  4  2  1  0
  6  4  1  0
  7  6  1  0
  7  8  1  6
  9 14  1  0
  9  8  1  0
 10  9  2  0
 11 12  2  0
 11 10  1  0
 12 13  1  0
 13 14  2  0
 15 17  1  0
 15  7  1  0
 16 15  2  0
 18 17  1  0
 18 29  1  0
 19 20  1  0
 18 19  1  6
 20 21  2  0
 22 21  1  0
 23 22  1  0
 24 23  2  0
 25 24  1  0
 26 27  1  0
 26 25  2  0
 27 28  2  0
 28 23  1  0
 28 20  1  0
 29 30  1  0
 31 29  2  0
M  END
$$$$
