WGG.pdb
     RDKit          3D

 23 24  0  0  1  0  0  0  0  0999 V2000
   26.2836  -22.3311  -12.2938 N   0  0  0  0  0  0  0  0  0  0  0  0
   25.7855  -21.3915  -11.3236 C   0  0  1  0  0  0  0  0  0  0  0  0
   26.7863  -20.2678  -11.1763 C   0  0  0  0  0  0  0  0  0  0  0  0
   27.8726  -20.5360  -10.2301 C   0  0  0  0  0  0  0  0  0  0  0  0
   29.0913  -21.0884  -10.5708 C   0  0  0  0  0  0  0  0  0  0  0  0
   29.8468  -21.1633   -9.4798 N   0  0  0  0  0  0  0  0  0  0  0  0
   29.1694  -20.6775   -8.4177 C   0  0  0  0  0  0  0  0  0  0  0  0
   29.5025  -20.5445   -7.0962 C   0  0  0  0  0  0  0  0  0  0  0  0
   28.6209  -20.0138   -6.1700 C   0  0  0  0  0  0  0  0  0  0  0  0
   27.3934  -19.6271   -6.6429 C   0  0  0  0  0  0  0  0  0  0  0  0
   27.0266  -19.7490   -7.9765 C   0  0  0  0  0  0  0  0  0  0  0  0
   27.9217  -20.2774   -8.8714 C   0  0  0  0  0  0  0  0  0  0  0  0
   24.5437  -20.7692  -11.8436 C   0  0  0  0  0  0  0  0  0  0  0  0
   24.5216  -20.4033  -13.0431 O   0  0  0  0  0  0  0  0  0  0  0  0
   23.3900  -20.5887  -10.9916 N   0  0  0  0  0  0  0  0  0  0  0  0
   22.2649  -19.9593  -11.6066 C   0  0  0  0  0  0  0  0  0  0  0  0
   21.0456  -20.7571  -11.6839 C   0  0  0  0  0  0  0  0  0  0  0  0
   19.9692  -20.1839  -11.3333 O   0  0  0  0  0  0  0  0  0  0  0  0
   20.9479  -22.1019  -12.1101 N   0  0  0  0  0  0  0  0  0  0  0  0
   19.6688  -22.8081  -12.0367 C   0  0  0  0  0  0  0  0  0  0  0  0
   18.7835  -22.3971  -13.1453 C   0  0  0  0  0  0  0  0  0  0  0  0
   17.6379  -22.8739  -13.2412 O   0  0  0  0  0  0  0  0  0  0  0  0
   19.2191  -21.4840  -14.0801 O   0  0  0  0  0  0  0  0  0  0  0  0
  2 13  1  0
  2  1  1  6
  3  2  1  0
  4  5  2  0
  4  3  1  0
  6  5  1  0
  7 12  2  0
  7  6  1  0
  8  7  1  0
  9 10  1  0
  9  8  2  0
 10 11  2  0
 11 12  1  0
 12  4  1  0
 13 15  1  0
 14 13  2  0
 15 16  1  0
 16 17  1  0
 17 19  1  0
 17 18  2  0
 19 20  1  0
 20 21  1  0
 21 22  2  0
 21 23  1  0
M  END
$$$$
