WGG.pdb
     RDKit          3D

 23 24  0  0  1  0  0  0  0  0999 V2000
   24.9114  -20.0283   -9.9962 N   0  0  0  0  0  0  0  0  0  0  0  0
   26.3445  -20.1585  -10.0365 C   0  0  1  0  0  0  0  0  0  0  0  0
   26.7658  -21.2104   -9.0354 C   0  0  0  0  0  0  0  0  0  0  0  0
   26.5834  -20.8281   -7.6326 C   0  0  0  0  0  0  0  0  0  0  0  0
   25.3927  -20.9278   -6.9407 C   0  0  0  0  0  0  0  0  0  0  0  0
   25.5903  -20.5258   -5.6893 N   0  0  0  0  0  0  0  0  0  0  0  0
   26.8791  -20.1591   -5.5227 C   0  0  0  0  0  0  0  0  0  0  0  0
   27.5663  -19.6772   -4.4408 C   0  0  0  0  0  0  0  0  0  0  0  0
   28.9110  -19.3562   -4.5129 C   0  0  0  0  0  0  0  0  0  0  0  0
   29.5227  -19.5448   -5.7254 C   0  0  0  0  0  0  0  0  0  0  0  0
   28.8531  -20.0317   -6.8400 C   0  0  0  0  0  0  0  0  0  0  0  0
   27.5211  -20.3424   -6.7381 C   0  0  0  0  0  0  0  0  0  0  0  0
   26.7479  -20.6739  -11.3674 C   0  0  0  0  0  0  0  0  0  0  0  0
   25.8591  -21.1519  -12.1120 O   0  0  0  0  0  0  0  0  0  0  0  0
   28.1279  -20.6271  -11.7952 N   0  0  0  0  0  0  0  0  0  0  0  0
   28.4043  -19.7424  -12.8820 C   0  0  0  0  0  0  0  0  0  0  0  0
   28.0901  -20.2452  -14.2152 C   0  0  0  0  0  0  0  0  0  0  0  0
   27.5868  -19.4138  -15.0312 O   0  0  0  0  0  0  0  0  0  0  0  0
   28.2915  -21.5640  -14.6841 N   0  0  0  0  0  0  0  0  0  0  0  0
   28.0859  -21.8843  -16.0966 C   0  0  0  0  0  0  0  0  0  0  0  0
   26.6930  -22.3140  -16.3350 C   0  0  0  0  0  0  0  0  0  0  0  0
   26.2343  -23.3077  -15.7424 O   0  0  0  0  0  0  0  0  0  0  0  0
   25.8925  -21.6187  -17.2142 O   0  0  0  0  0  0  0  0  0  0  0  0
  2 13  1  0
  2  1  1  6
  3  2  1  0
  4  5  2  0
  4  3  1  0
  6  5  1  0
  7 12  2  0
  7  6  1  0
  8  7  1  0
  9 10  1  0
  9  8  2  0
 10 11  2  0
 11 12  1  0
 12  4  1  0
 13 15  1  0
 14 13  2  0
 15 16  1  0
 16 17  1  0
 17 19  1  0
 17 18  2  0
 19 20  1  0
 20 21  1  0
 21 22  2  0
 21 23  1  0
M  END
$$$$
