WGG.pdb
     RDKit          3D

 23 24  0  0  1  0  0  0  0  0999 V2000
   26.6010  -19.9708   -9.7628 N   0  0  0  0  0  0  0  0  0  0  0  0
   25.7190  -20.8316   -9.0189 C   0  0  1  0  0  0  0  0  0  0  0  0
   25.5799  -20.2889   -7.6146 C   0  0  0  0  0  0  0  0  0  0  0  0
   26.7920  -19.6659   -7.0763 C   0  0  0  0  0  0  0  0  0  0  0  0
   27.3189  -18.4672   -7.5144 C   0  0  0  0  0  0  0  0  0  0  0  0
   28.3982  -18.1849   -6.7919 N   0  0  0  0  0  0  0  0  0  0  0  0
   28.6102  -19.1601   -5.8825 C   0  0  0  0  0  0  0  0  0  0  0  0
   29.5760  -19.3338   -4.9275 C   0  0  0  0  0  0  0  0  0  0  0  0
   29.5931  -20.4424   -4.0983 C   0  0  0  0  0  0  0  0  0  0  0  0
   28.5919  -21.3611   -4.2816 C   0  0  0  0  0  0  0  0  0  0  0  0
   27.5990  -21.2130   -5.2408 C   0  0  0  0  0  0  0  0  0  0  0  0
   27.6072  -20.1035   -6.0471 C   0  0  0  0  0  0  0  0  0  0  0  0
   24.3635  -20.7722   -9.6178 C   0  0  0  0  0  0  0  0  0  0  0  0
   23.4105  -21.2782   -8.9785 O   0  0  0  0  0  0  0  0  0  0  0  0
   24.1460  -20.1483  -10.9036 N   0  0  0  0  0  0  0  0  0  0  0  0
   23.5953  -20.9964  -11.9123 C   0  0  0  0  0  0  0  0  0  0  0  0
   23.3626  -20.3789  -13.2137 C   0  0  0  0  0  0  0  0  0  0  0  0
   23.0157  -21.1548  -14.1560 O   0  0  0  0  0  0  0  0  0  0  0  0
   23.4858  -19.0051  -13.5252 N   0  0  0  0  0  0  0  0  0  0  0  0
   24.3290  -18.5741  -14.6403 C   0  0  0  0  0  0  0  0  0  0  0  0
   23.7288  -18.9716  -15.9300 C   0  0  0  0  0  0  0  0  0  0  0  0
   24.0387  -20.0557  -16.4569 O   0  0  0  0  0  0  0  0  0  0  0  0
   22.8227  -18.1460  -16.5582 O   0  0  0  0  0  0  0  0  0  0  0  0
  2 13  1  0
  2  1  1  6
  3  2  1  0
  4  5  2  0
  4  3  1  0
  6  5  1  0
  7 12  2  0
  7  6  1  0
  8  7  1  0
  9 10  1  0
  9  8  2  0
 10 11  2  0
 11 12  1  0
 12  4  1  0
 13 15  1  0
 14 13  2  0
 15 16  1  0
 16 17  1  0
 17 19  1  0
 17 18  2  0
 19 20  1  0
 20 21  1  0
 21 22  2  0
 21 23  1  0
M  END
$$$$
