WGG.pdb
     RDKit          3D

 23 24  0  0  1  0  0  0  0  0999 V2000
   24.6735  -20.6897   -9.4053 N   0  0  0  0  0  0  0  0  0  0  0  0
   26.0534  -20.3912   -9.6867 C   0  0  1  0  0  0  0  0  0  0  0  0
   26.9237  -21.1438   -8.7058 C   0  0  0  0  0  0  0  0  0  0  0  0
   26.7606  -20.7390   -7.3070 C   0  0  0  0  0  0  0  0  0  0  0  0
   25.5926  -20.8722   -6.5828 C   0  0  0  0  0  0  0  0  0  0  0  0
   25.8044  -20.4355   -5.3455 N   0  0  0  0  0  0  0  0  0  0  0  0
   27.0806  -20.0129   -5.2197 C   0  0  0  0  0  0  0  0  0  0  0  0
   27.7740  -19.4800   -4.1660 C   0  0  0  0  0  0  0  0  0  0  0  0
   29.1021  -19.1058   -4.2793 C   0  0  0  0  0  0  0  0  0  0  0  0
   29.6907  -19.2955   -5.5030 C   0  0  0  0  0  0  0  0  0  0  0  0
   29.0144  -19.8336   -6.5897 C   0  0  0  0  0  0  0  0  0  0  0  0
   27.6993  -20.1961   -6.4471 C   0  0  0  0  0  0  0  0  0  0  0  0
   26.3997  -20.9168  -11.0296 C   0  0  0  0  0  0  0  0  0  0  0  0
   26.0603  -22.0907  -11.3122 O   0  0  0  0  0  0  0  0  0  0  0  0
   27.1093  -20.0989  -11.9873 N   0  0  0  0  0  0  0  0  0  0  0  0
   27.3040  -20.6885  -13.2736 C   0  0  0  0  0  0  0  0  0  0  0  0
   26.1129  -20.8221  -14.1057 C   0  0  0  0  0  0  0  0  0  0  0  0
   25.5099  -19.7479  -14.4101 O   0  0  0  0  0  0  0  0  0  0  0  0
   25.5676  -22.0281  -14.6037 N   0  0  0  0  0  0  0  0  0  0  0  0
   24.3984  -22.6296  -13.9623 C   0  0  0  0  0  0  0  0  0  0  0  0
   23.2374  -21.7198  -14.0395 C   0  0  0  0  0  0  0  0  0  0  0  0
   22.4205  -21.8253  -14.9725 O   0  0  0  0  0  0  0  0  0  0  0  0
   23.0507  -20.7491  -13.0804 O   0  0  0  0  0  0  0  0  0  0  0  0
  2 13  1  0
  2  1  1  1
  3  2  1  0
  4  5  2  0
  4  3  1  0
  6  5  1  0
  7 12  2  0
  7  6  1  0
  8  7  1  0
  9 10  1  0
  9  8  2  0
 10 11  2  0
 11 12  1  0
 12  4  1  0
 13 15  1  0
 14 13  2  0
 15 16  1  0
 16 17  1  0
 17 19  1  0
 17 18  2  0
 19 20  1  0
 20 21  1  0
 21 22  2  0
 21 23  1  0
M  END
$$$$
