WGG.pdb
     RDKit          3D

 23 24  0  0  1  0  0  0  0  0999 V2000
   26.3875  -20.2548  -10.1268 N   0  0  0  0  0  0  0  0  0  0  0  0
   25.5716  -20.9975   -9.2021 C   0  0  1  0  0  0  0  0  0  0  0  0
   25.9282  -20.5788   -7.7938 C   0  0  0  0  0  0  0  0  0  0  0  0
   27.3628  -20.4044   -7.5519 C   0  0  0  0  0  0  0  0  0  0  0  0
   28.3514  -20.6535   -8.4830 C   0  0  0  0  0  0  0  0  0  0  0  0
   29.5306  -20.3627   -7.9430 N   0  0  0  0  0  0  0  0  0  0  0  0
   29.3608  -19.9263   -6.6766 C   0  0  0  0  0  0  0  0  0  0  0  0
   30.2483  -19.5170   -5.7175 C   0  0  0  0  0  0  0  0  0  0  0  0
   29.8313  -19.1125   -4.4608 C   0  0  0  0  0  0  0  0  0  0  0  0
   28.4813  -19.1426   -4.2231 C   0  0  0  0  0  0  0  0  0  0  0  0
   27.5571  -19.5521   -5.1749 C   0  0  0  0  0  0  0  0  0  0  0  0
   27.9998  -19.9462   -6.4118 C   0  0  0  0  0  0  0  0  0  0  0  0
   24.1508  -20.6184   -9.3955 C   0  0  0  0  0  0  0  0  0  0  0  0
   23.3041  -21.0581   -8.5814 O   0  0  0  0  0  0  0  0  0  0  0  0
   23.7521  -19.7655  -10.4924 N   0  0  0  0  0  0  0  0  0  0  0  0
   22.5328  -20.1293  -11.1414 C   0  0  0  0  0  0  0  0  0  0  0  0
   22.6213  -20.3908  -12.5742 C   0  0  0  0  0  0  0  0  0  0  0  0
   22.3883  -21.5804  -12.9494 O   0  0  0  0  0  0  0  0  0  0  0  0
   22.9402  -19.4505  -13.5811 N   0  0  0  0  0  0  0  0  0  0  0  0
   21.8759  -18.7722  -14.3210 C   0  0  0  0  0  0  0  0  0  0  0  0
   21.2835  -19.6772  -15.3268 C   0  0  0  0  0  0  0  0  0  0  0  0
   21.9507  -20.0395  -16.3130 O   0  0  0  0  0  0  0  0  0  0  0  0
   19.9896  -20.1263  -15.1806 O   0  0  0  0  0  0  0  0  0  0  0  0
  2 13  1  0
  2  1  1  6
  3  2  1  0
  4  5  2  0
  4  3  1  0
  6  5  1  0
  7 12  2  0
  7  6  1  0
  8  7  1  0
  9 10  1  0
  9  8  2  0
 10 11  2  0
 11 12  1  0
 12  4  1  0
 13 15  1  0
 14 13  2  0
 15 16  1  0
 16 17  1  0
 17 19  1  0
 17 18  2  0
 19 20  1  0
 20 21  1  0
 21 22  2  0
 21 23  1  0
M  END
$$$$
