WGG.pdb
     RDKit          3D

 23 24  0  0  1  0  0  0  0  0999 V2000
   24.9511  -20.3282  -10.0129 N   0  0  0  0  0  0  0  0  0  0  0  0
   26.3892  -20.3286  -10.0764 C   0  0  1  0  0  0  0  0  0  0  0  0
   26.9234  -21.2430   -8.9972 C   0  0  0  0  0  0  0  0  0  0  0  0
   26.7822  -20.7274   -7.6329 C   0  0  0  0  0  0  0  0  0  0  0  0
   25.5757  -20.4975   -7.0021 C   0  0  0  0  0  0  0  0  0  0  0  0
   25.8140  -20.0619   -5.7691 N   0  0  0  0  0  0  0  0  0  0  0  0
   27.1454  -19.9928   -5.5557 C   0  0  0  0  0  0  0  0  0  0  0  0
   27.8845  -19.6055   -4.4699 C   0  0  0  0  0  0  0  0  0  0  0  0
   29.2688  -19.6110   -4.4885 C   0  0  0  0  0  0  0  0  0  0  0  0
   29.8652  -20.0243   -5.6518 C   0  0  0  0  0  0  0  0  0  0  0  0
   29.1433  -20.4230   -6.7689 C   0  0  0  0  0  0  0  0  0  0  0  0
   27.7726  -20.4082   -6.7205 C   0  0  0  0  0  0  0  0  0  0  0  0
   26.8181  -20.9221  -11.3662 C   0  0  0  0  0  0  0  0  0  0  0  0
   26.4412  -22.0873  -11.6368 O   0  0  0  0  0  0  0  0  0  0  0  0
   27.6481  -20.1783  -12.2868 N   0  0  0  0  0  0  0  0  0  0  0  0
   27.9276  -20.8308  -13.5262 C   0  0  0  0  0  0  0  0  0  0  0  0
   26.8731  -20.7756  -14.5332 C   0  0  0  0  0  0  0  0  0  0  0  0
   27.1112  -21.3551  -15.6367 O   0  0  0  0  0  0  0  0  0  0  0  0
   25.6164  -20.1412  -14.3988 N   0  0  0  0  0  0  0  0  0  0  0  0
   24.6895  -20.0932  -15.5296 C   0  0  0  0  0  0  0  0  0  0  0  0
   23.7256  -21.2102  -15.4597 C   0  0  0  0  0  0  0  0  0  0  0  0
   22.7445  -21.2392  -16.2250 O   0  0  0  0  0  0  0  0  0  0  0  0
   23.9056  -22.2268  -14.5479 O   0  0  0  0  0  0  0  0  0  0  0  0
  2 13  1  0
  2  1  1  6
  3  2  1  0
  4  5  2  0
  4  3  1  0
  6  5  1  0
  7 12  2  0
  7  6  1  0
  8  7  1  0
  9 10  1  0
  9  8  2  0
 10 11  2  0
 11 12  1  0
 12  4  1  0
 13 15  1  0
 14 13  2  0
 15 16  1  0
 16 17  1  0
 17 19  1  0
 17 18  2  0
 19 20  1  0
 20 21  1  0
 21 22  2  0
 21 23  1  0
M  END
$$$$
