WGG.pdb
     RDKit          3D

 23 24  0  0  1  0  0  0  0  0999 V2000
   26.8095  -21.9996  -10.4920 N   0  0  0  0  0  0  0  0  0  0  0  0
   26.0924  -21.0650   -9.6647 C   0  0  1  0  0  0  0  0  0  0  0  0
   27.0156  -19.9215   -9.3098 C   0  0  0  0  0  0  0  0  0  0  0  0
   28.1130  -20.2786   -8.4068 C   0  0  0  0  0  0  0  0  0  0  0  0
   29.2863  -20.8902   -8.8015 C   0  0  0  0  0  0  0  0  0  0  0  0
   30.0694  -21.0396   -7.7380 N   0  0  0  0  0  0  0  0  0  0  0  0
   29.4546  -20.5463   -6.6418 C   0  0  0  0  0  0  0  0  0  0  0  0
   29.8354  -20.4706   -5.3287 C   0  0  0  0  0  0  0  0  0  0  0  0
   29.0152  -19.9169   -4.3605 C   0  0  0  0  0  0  0  0  0  0  0  0
   27.7984  -19.4468   -4.7829 C   0  0  0  0  0  0  0  0  0  0  0  0
   27.3842  -19.5092   -6.1067 C   0  0  0  0  0  0  0  0  0  0  0  0
   28.2189  -20.0623   -7.0440 C   0  0  0  0  0  0  0  0  0  0  0  0
   24.9857  -20.4694  -10.4523 C   0  0  0  0  0  0  0  0  0  0  0  0
   24.5256  -19.3621  -10.0844 O   0  0  0  0  0  0  0  0  0  0  0  0
   24.4512  -21.1462  -11.6124 N   0  0  0  0  0  0  0  0  0  0  0  0
   23.4761  -20.4137  -12.3557 C   0  0  0  0  0  0  0  0  0  0  0  0
   22.2850  -21.1547  -12.7575 C   0  0  0  0  0  0  0  0  0  0  0  0
   21.9794  -21.1134  -13.9884 O   0  0  0  0  0  0  0  0  0  0  0  0
   21.4418  -21.9113  -11.9112 N   0  0  0  0  0  0  0  0  0  0  0  0
   20.2225  -22.5228  -12.4399 C   0  0  0  0  0  0  0  0  0  0  0  0
   19.2144  -21.4887  -12.7499 C   0  0  0  0  0  0  0  0  0  0  0  0
   19.2455  -20.3895  -12.1669 O   0  0  0  0  0  0  0  0  0  0  0  0
   18.2335  -21.7333  -13.6855 O   0  0  0  0  0  0  0  0  0  0  0  0
  2 13  1  0
  2  1  1  6
  3  2  1  0
  4  5  2  0
  4  3  1  0
  6  5  1  0
  7 12  2  0
  7  6  1  0
  8  7  1  0
  9 10  1  0
  9  8  2  0
 10 11  2  0
 11 12  1  0
 12  4  1  0
 13 15  1  0
 14 13  2  0
 15 16  1  0
 16 17  1  0
 17 19  1  0
 17 18  2  0
 19 20  1  0
 20 21  1  0
 21 22  2  0
 21 23  1  0
M  END
$$$$
