WGG.pdb
     RDKit          3D

 23 24  0  0  1  0  0  0  0  0999 V2000
   25.2986  -19.7695  -12.2508 N   0  0  0  0  0  0  0  0  0  0  0  0
   26.4951  -20.5644  -12.3452 C   0  0  1  0  0  0  0  0  0  0  0  0
   26.4342  -21.6605  -11.3056 C   0  0  0  0  0  0  0  0  0  0  0  0
   26.3037  -21.1877   -9.9248 C   0  0  0  0  0  0  0  0  0  0  0  0
   25.1023  -20.9497   -9.2872 C   0  0  0  0  0  0  0  0  0  0  0  0
   25.3495  -20.5617   -8.0402 N   0  0  0  0  0  0  0  0  0  0  0  0
   26.6819  -20.5324   -7.8238 C   0  0  0  0  0  0  0  0  0  0  0  0
   27.4287  -20.2001   -6.7252 C   0  0  0  0  0  0  0  0  0  0  0  0
   28.8125  -20.2389   -6.7431 C   0  0  0  0  0  0  0  0  0  0  0  0
   29.4002  -20.6274   -7.9194 C   0  0  0  0  0  0  0  0  0  0  0  0
   28.6703  -20.9705   -9.0496 C   0  0  0  0  0  0  0  0  0  0  0  0
   27.3004  -20.9237   -9.0016 C   0  0  0  0  0  0  0  0  0  0  0  0
   26.5210  -21.2482  -13.6611 C   0  0  0  0  0  0  0  0  0  0  0  0
   25.4563  -21.3027  -14.3217 O   0  0  0  0  0  0  0  0  0  0  0  0
   27.7400  -21.8362  -14.1690 N   0  0  0  0  0  0  0  0  0  0  0  0
   28.4619  -21.0382  -15.1082 C   0  0  0  0  0  0  0  0  0  0  0  0
   27.7781  -20.7485  -16.3642 C   0  0  0  0  0  0  0  0  0  0  0  0
   28.5148  -20.5269  -17.3734 O   0  0  0  0  0  0  0  0  0  0  0  0
   26.3795  -20.6911  -16.5649 N   0  0  0  0  0  0  0  0  0  0  0  0
   25.8359  -20.3876  -17.8887 C   0  0  0  0  0  0  0  0  0  0  0  0
   25.6517  -21.6264  -18.6717 C   0  0  0  0  0  0  0  0  0  0  0  0
   26.6400  -22.2885  -19.0375 O   0  0  0  0  0  0  0  0  0  0  0  0
   24.3859  -22.0573  -19.0023 O   0  0  0  0  0  0  0  0  0  0  0  0
  2 13  1  0
  2  1  1  6
  3  2  1  0
  4  5  2  0
  4  3  1  0
  6  5  1  0
  7 12  2  0
  7  6  1  0
  8  7  1  0
  9 10  1  0
  9  8  2  0
 10 11  2  0
 11 12  1  0
 12  4  1  0
 13 15  1  0
 14 13  2  0
 15 16  1  0
 16 17  1  0
 17 19  1  0
 17 18  2  0
 19 20  1  0
 20 21  1  0
 21 22  2  0
 21 23  1  0
M  END
$$$$
