WGG.pdb
     RDKit          3D

 23 24  0  0  1  0  0  0  0  0999 V2000
   22.9655  -10.4075  -15.6543 N   0  0  0  0  0  0  0  0  0  0  0  0
   23.7100   -9.4657  -16.4487 C   0  0  1  0  0  0  0  0  0  0  0  0
   24.4328  -10.2171  -17.5437 C   0  0  0  0  0  0  0  0  0  0  0  0
   25.4050  -11.2053  -17.0689 C   0  0  0  0  0  0  0  0  0  0  0  0
   25.0765  -12.4374  -16.5392 C   0  0  0  0  0  0  0  0  0  0  0  0
   26.1970  -13.0873  -16.2414 N   0  0  0  0  0  0  0  0  0  0  0  0
   27.2670  -12.3262  -16.5558 C   0  0  0  0  0  0  0  0  0  0  0  0
   28.6145  -12.5391  -16.4376 C   0  0  0  0  0  0  0  0  0  0  0  0
   29.5417  -11.5882  -16.8283 C   0  0  0  0  0  0  0  0  0  0  0  0
   29.0424  -10.4185  -17.3407 C   0  0  0  0  0  0  0  0  0  0  0  0
   27.6822  -10.1734  -17.4732 C   0  0  0  0  0  0  0  0  0  0  0  0
   26.7871  -11.1349  -17.0787 C   0  0  0  0  0  0  0  0  0  0  0  0
   22.7629   -8.5528  -17.1338 C   0  0  0  0  0  0  0  0  0  0  0  0
   21.5786   -8.9352  -17.2888 O   0  0  0  0  0  0  0  0  0  0  0  0
   23.1927   -7.2575  -17.6104 N   0  0  0  0  0  0  0  0  0  0  0  0
   22.1688   -6.4437  -18.1845 C   0  0  0  0  0  0  0  0  0  0  0  0
   21.4320   -5.5903  -17.2583 C   0  0  0  0  0  0  0  0  0  0  0  0
   20.6324   -4.7507  -17.7741 O   0  0  0  0  0  0  0  0  0  0  0  0
   21.5225   -5.6081  -15.8472 N   0  0  0  0  0  0  0  0  0  0  0  0
   20.6140   -4.7945  -15.0393 C   0  0  0  0  0  0  0  0  0  0  0  0
   21.1101   -3.4070  -14.9371 C   0  0  0  0  0  0  0  0  0  0  0  0
   22.1512   -3.0693  -15.5296 O   0  0  0  0  0  0  0  0  0  0  0  0
   20.4247   -2.4779  -14.1860 O   0  0  0  0  0  0  0  0  0  0  0  0
  2 13  1  0
  2  1  1  1
  3  2  1  0
  4  5  2  0
  4  3  1  0
  6  5  1  0
  7 12  2  0
  7  6  1  0
  8  7  1  0
  9 10  1  0
  9  8  2  0
 10 11  2  0
 11 12  1  0
 12  4  1  0
 13 15  1  0
 14 13  2  0
 15 16  1  0
 16 17  1  0
 17 19  1  0
 17 18  2  0
 19 20  1  0
 20 21  1  0
 21 22  2  0
 21 23  1  0
M  END
$$$$
