WGG.pdb
     RDKit          3D

 23 24  0  0  1  0  0  0  0  0999 V2000
   27.5022  -21.4755  -10.7582 N   0  0  0  0  0  0  0  0  0  0  0  0
   26.4553  -21.0635   -9.8602 C   0  0  1  0  0  0  0  0  0  0  0  0
   26.9693  -19.9307   -9.0009 C   0  0  0  0  0  0  0  0  0  0  0  0
   28.0462  -20.3017   -8.0790 C   0  0  0  0  0  0  0  0  0  0  0  0
   29.1898  -20.9845   -8.4428 C   0  0  0  0  0  0  0  0  0  0  0  0
   29.9623  -21.1266   -7.3705 N   0  0  0  0  0  0  0  0  0  0  0  0
   29.3691  -20.5592   -6.2985 C   0  0  0  0  0  0  0  0  0  0  0  0
   29.7499  -20.4470   -4.9880 C   0  0  0  0  0  0  0  0  0  0  0  0
   28.9547  -19.8149   -4.0473 C   0  0  0  0  0  0  0  0  0  0  0  0
   27.7628  -19.3053   -4.4942 C   0  0  0  0  0  0  0  0  0  0  0  0
   27.3493  -19.4031   -5.8161 C   0  0  0  0  0  0  0  0  0  0  0  0
   28.1589  -20.0340   -6.7259 C   0  0  0  0  0  0  0  0  0  0  0  0
   25.3316  -20.5027  -10.6492 C   0  0  0  0  0  0  0  0  0  0  0  0
   25.5761  -19.5636  -11.4438 O   0  0  0  0  0  0  0  0  0  0  0  0
   23.9907  -21.0236  -10.5066 N   0  0  0  0  0  0  0  0  0  0  0  0
   23.0013  -20.4067  -11.3315 C   0  0  0  0  0  0  0  0  0  0  0  0
   21.6263  -20.8492  -11.1251 C   0  0  0  0  0  0  0  0  0  0  0  0
   21.4484  -21.7677  -10.2678 O   0  0  0  0  0  0  0  0  0  0  0  0
   20.4774  -20.3556  -11.7854 N   0  0  0  0  0  0  0  0  0  0  0  0
   19.1510  -20.8669  -11.4400 C   0  0  0  0  0  0  0  0  0  0  0  0
   18.8973  -22.1546  -12.1175 C   0  0  0  0  0  0  0  0  0  0  0  0
   17.8031  -22.7308  -11.9773 O   0  0  0  0  0  0  0  0  0  0  0  0
   19.8691  -22.7264  -12.9086 O   0  0  0  0  0  0  0  0  0  0  0  0
  2 13  1  0
  2  1  1  6
  3  2  1  0
  4  5  2  0
  4  3  1  0
  6  5  1  0
  7 12  2  0
  7  6  1  0
  8  7  1  0
  9 10  1  0
  9  8  2  0
 10 11  2  0
 11 12  1  0
 12  4  1  0
 13 15  1  0
 14 13  2  0
 15 16  1  0
 16 17  1  0
 17 19  1  0
 17 18  2  0
 19 20  1  0
 20 21  1  0
 21 22  2  0
 21 23  1  0
M  END
$$$$
