WGG.pdb
     RDKit          3D

 23 24  0  0  1  0  0  0  0  0999 V2000
   25.3387  -19.7933   -9.0148 N   0  0  0  0  0  0  0  0  0  0  0  0
   26.7238  -20.0117   -9.3406 C   0  0  1  0  0  0  0  0  0  0  0  0
   27.3899  -20.7201   -8.1829 C   0  0  0  0  0  0  0  0  0  0  0  0
   27.7541  -19.8506   -7.0611 C   0  0  0  0  0  0  0  0  0  0  0  0
   27.3783  -18.5275   -6.9399 C   0  0  0  0  0  0  0  0  0  0  0  0
   27.8527  -18.0516   -5.7931 N   0  0  0  0  0  0  0  0  0  0  0  0
   28.5360  -19.0174   -5.1425 C   0  0  0  0  0  0  0  0  0  0  0  0
   29.2060  -19.0255   -3.9483 C   0  0  0  0  0  0  0  0  0  0  0  0
   29.8525  -20.1569   -3.4806 C   0  0  0  0  0  0  0  0  0  0  0  0
   29.7890  -21.2725   -4.2752 C   0  0  0  0  0  0  0  0  0  0  0  0
   29.1176  -21.2954   -5.4903 C   0  0  0  0  0  0  0  0  0  0  0  0
   28.4853  -20.1595   -5.9274 C   0  0  0  0  0  0  0  0  0  0  0  0
   26.8106  -20.9398  -10.4943 C   0  0  0  0  0  0  0  0  0  0  0  0
   27.8524  -21.6257  -10.6259 O   0  0  0  0  0  0  0  0  0  0  0  0
   25.7246  -21.0511  -11.4417 N   0  0  0  0  0  0  0  0  0  0  0  0
   26.0888  -21.5190  -12.7412 C   0  0  0  0  0  0  0  0  0  0  0  0
   25.0045  -21.6291  -13.7113 C   0  0  0  0  0  0  0  0  0  0  0  0
   25.1842  -22.4360  -14.6741 O   0  0  0  0  0  0  0  0  0  0  0  0
   23.7777  -20.9264  -13.6826 N   0  0  0  0  0  0  0  0  0  0  0  0
   22.5767  -21.5605  -13.1387 C   0  0  0  0  0  0  0  0  0  0  0  0
   21.9984  -22.5041  -14.1170 C   0  0  0  0  0  0  0  0  0  0  0  0
   22.0881  -22.2741  -15.3369 O   0  0  0  0  0  0  0  0  0  0  0  0
   21.3564  -23.6441  -13.6866 O   0  0  0  0  0  0  0  0  0  0  0  0
  2 13  1  0
  2  1  1  1
  3  2  1  0
  4  5  2  0
  4  3  1  0
  6  5  1  0
  7 12  2  0
  7  6  1  0
  8  7  1  0
  9 10  1  0
  9  8  2  0
 10 11  2  0
 11 12  1  0
 12  4  1  0
 13 15  1  0
 14 13  2  0
 15 16  1  0
 16 17  1  0
 17 19  1  0
 17 18  2  0
 19 20  1  0
 20 21  1  0
 21 22  2  0
 21 23  1  0
M  END
$$$$
