WGG.pdb
     RDKit          3D

 23 24  0  0  1  0  0  0  0  0999 V2000
   24.3797  -21.9396   -8.6220 N   0  0  0  0  0  0  0  0  0  0  0  0
   24.2861  -21.7158   -7.2030 C   0  0  1  0  0  0  0  0  0  0  0  0
   24.6274  -20.2714   -6.9148 C   0  0  0  0  0  0  0  0  0  0  0  0
   26.0577  -19.9578   -6.9700 C   0  0  0  0  0  0  0  0  0  0  0  0
   26.7329  -19.5720   -8.1110 C   0  0  0  0  0  0  0  0  0  0  0  0
   28.0033  -19.3383   -7.7977 N   0  0  0  0  0  0  0  0  0  0  0  0
   28.1991  -19.5568   -6.4798 C   0  0  0  0  0  0  0  0  0  0  0  0
   29.3113  -19.4625   -5.6866 C   0  0  0  0  0  0  0  0  0  0  0  0
   29.2705  -19.7510   -4.3332 C   0  0  0  0  0  0  0  0  0  0  0  0
   28.0573  -20.1377   -3.8247 C   0  0  0  0  0  0  0  0  0  0  0  0
   26.9123  -20.2425   -4.6030 C   0  0  0  0  0  0  0  0  0  0  0  0
   26.9831  -19.9489   -5.9409 C   0  0  0  0  0  0  0  0  0  0  0  0
   22.8778  -21.8979   -6.7747 C   0  0  0  0  0  0  0  0  0  0  0  0
   22.5411  -21.4658   -5.6465 O   0  0  0  0  0  0  0  0  0  0  0  0
   21.9191  -22.5554   -7.6337 N   0  0  0  0  0  0  0  0  0  0  0  0
   21.0285  -23.4608   -6.9800 C   0  0  0  0  0  0  0  0  0  0  0  0
   19.9938  -24.0599   -7.8163 C   0  0  0  0  0  0  0  0  0  0  0  0
   19.1551  -24.8109   -7.2308 O   0  0  0  0  0  0  0  0  0  0  0  0
   19.8358  -23.8853   -9.2107 N   0  0  0  0  0  0  0  0  0  0  0  0
   18.5584  -24.1950   -9.8530 C   0  0  0  0  0  0  0  0  0  0  0  0
   17.7057  -22.9909   -9.9223 C   0  0  0  0  0  0  0  0  0  0  0  0
   17.1966  -22.5240   -8.8870 O   0  0  0  0  0  0  0  0  0  0  0  0
   17.4682  -22.3768  -11.1321 O   0  0  0  0  0  0  0  0  0  0  0  0
  2 13  1  0
  2  1  1  6
  3  2  1  0
  4  5  2  0
  4  3  1  0
  6  5  1  0
  7 12  2  0
  7  6  1  0
  8  7  1  0
  9 10  1  0
  9  8  2  0
 10 11  2  0
 11 12  1  0
 12  4  1  0
 13 15  1  0
 14 13  2  0
 15 16  1  0
 16 17  1  0
 17 19  1  0
 17 18  2  0
 19 20  1  0
 20 21  1  0
 21 22  2  0
 21 23  1  0
M  END
$$$$
