WGG.pdb
     RDKit          3D

 23 24  0  0  1  0  0  0  0  0999 V2000
   24.9585  -20.6138   -9.8868 N   0  0  0  0  0  0  0  0  0  0  0  0
   26.3094  -20.1210   -9.8190 C   0  0  1  0  0  0  0  0  0  0  0  0
   27.0841  -20.9602   -8.8282 C   0  0  0  0  0  0  0  0  0  0  0  0
   26.8131  -20.6522   -7.4215 C   0  0  0  0  0  0  0  0  0  0  0  0
   25.5839  -20.7971   -6.8094 C   0  0  0  0  0  0  0  0  0  0  0  0
   25.7011  -20.4586   -5.5294 N   0  0  0  0  0  0  0  0  0  0  0  0
   26.9732  -20.0906   -5.2661 C   0  0  0  0  0  0  0  0  0  0  0  0
   27.5884  -19.6596   -4.1212 C   0  0  0  0  0  0  0  0  0  0  0  0
   28.9313  -19.3244   -4.0948 C   0  0  0  0  0  0  0  0  0  0  0  0
   29.6172  -19.4452   -5.2759 C   0  0  0  0  0  0  0  0  0  0  0  0
   29.0217  -19.8795   -6.4526 C   0  0  0  0  0  0  0  0  0  0  0  0
   27.6895  -20.2057   -6.4479 C   0  0  0  0  0  0  0  0  0  0  0  0
   26.9673  -20.3253  -11.1324 C   0  0  0  0  0  0  0  0  0  0  0  0
   28.0520  -20.9543  -11.1604 O   0  0  0  0  0  0  0  0  0  0  0  0
   26.3750  -19.8134  -12.3477 N   0  0  0  0  0  0  0  0  0  0  0  0
   27.0110  -20.2212  -13.5599 C   0  0  0  0  0  0  0  0  0  0  0  0
   26.4798  -21.4253  -14.1901 C   0  0  0  0  0  0  0  0  0  0  0  0
   27.0081  -21.7696  -15.2913 O   0  0  0  0  0  0  0  0  0  0  0  0
   25.4375  -22.2423  -13.6945 N   0  0  0  0  0  0  0  0  0  0  0  0
   24.9732  -23.3951  -14.4662 C   0  0  0  0  0  0  0  0  0  0  0  0
   23.7973  -23.0341  -15.2840 C   0  0  0  0  0  0  0  0  0  0  0  0
   23.3643  -21.8673  -15.2768 O   0  0  0  0  0  0  0  0  0  0  0  0
   23.1722  -23.9854  -16.0595 O   0  0  0  0  0  0  0  0  0  0  0  0
  2 13  1  0
  2  1  1  6
  3  2  1  0
  4  5  2  0
  4  3  1  0
  6  5  1  0
  7 12  2  0
  7  6  1  0
  8  7  1  0
  9 10  1  0
  9  8  2  0
 10 11  2  0
 11 12  1  0
 12  4  1  0
 13 15  1  0
 14 13  2  0
 15 16  1  0
 16 17  1  0
 17 19  1  0
 17 18  2  0
 19 20  1  0
 20 21  1  0
 21 22  2  0
 21 23  1  0
M  END
$$$$
