NNA.pdb
     RDKit          3D

 22 21  0  0  1  0  0  0  0  0999 V2000
   15.8740  -13.1425  -14.4740 N   0  0  0  0  0  0  0  0  0  0  0  0
   16.4858  -12.1925  -15.3350 C   0  0  0  0  0  0  0  0  0  0  0  0
   16.1460  -12.2172  -16.5573 O   0  0  0  0  0  0  0  0  0  0  0  0
   17.4740  -11.2224  -14.8166 C   0  0  0  0  0  0  0  0  0  0  0  0
   17.7761  -10.2308  -15.9304 C   0  0  2  0  0  0  0  0  0  0  0  0
   18.6918  -10.8513  -16.8333 N   0  0  0  0  0  0  0  0  0  0  0  0
   18.3694   -8.9800  -15.3478 C   0  0  0  0  0  0  0  0  0  0  0  0
   17.8851   -8.5700  -14.2876 O   0  0  0  0  0  0  0  0  0  0  0  0
   21.5282   -8.7220  -13.9432 N   0  0  0  0  0  0  0  0  0  0  0  0
   22.2651   -8.0680  -14.9901 C   0  0  0  0  0  0  0  0  0  0  0  0
   23.4995   -8.3323  -15.0962 O   0  0  0  0  0  0  0  0  0  0  0  0
   21.5763   -7.1146  -15.9067 C   0  0  0  0  0  0  0  0  0  0  0  0
   20.0888   -7.0994  -15.5848 C   0  0  2  0  0  0  0  0  0  0  0  0
   19.4268   -8.3216  -15.9970 N   0  0  0  0  0  0  0  0  0  0  0  0
   19.4141   -5.9105  -16.1175 C   0  0  0  0  0  0  0  0  0  0  0  0
   19.1155   -5.7962  -17.3585 O   0  0  0  0  0  0  0  0  0  0  0  0
   16.8851   -3.7463  -15.9785 C   0  0  0  0  0  0  0  0  0  0  0  0
   18.3924   -3.6195  -15.9060 C   0  0  2  0  0  0  0  0  0  0  0  0
   19.0216   -4.7733  -15.3382 N   0  0  0  0  0  0  0  0  0  0  0  0
   18.8084   -2.3563  -15.2276 C   0  0  0  0  0  0  0  0  0  0  0  0
   19.4777   -2.3791  -14.1637 O   0  0  0  0  0  0  0  0  0  0  0  0
   18.4811   -1.1077  -15.7318 O   0  0  0  0  0  0  0  0  0  0  0  0
  1  2  1  0
  2  3  2  0
  2  4  1  0
  4  5  1  0
  5  7  1  0
  5  6  1  6
  7  8  2  0
  9 10  1  0
 10 12  1  0
 11 10  2  0
 13 12  1  6
 13 15  1  0
 14  7  1  0
 14 13  1  0
 15 19  1  0
 16 15  2  0
 18 17  1  1
 19 18  1  0
 20 22  1  0
 20 18  1  0
 21 20  2  0
M  END
$$$$
