NNA.pdb
     RDKit          3D

 22 21  0  0  1  0  0  0  0  0999 V2000
   16.7724  -12.6009  -17.0794 N   0  0  0  0  0  0  0  0  0  0  0  0
   16.7966  -12.5897  -15.6590 C   0  0  0  0  0  0  0  0  0  0  0  0
   16.1879  -13.5301  -15.0632 O   0  0  0  0  0  0  0  0  0  0  0  0
   17.5041  -11.5226  -14.9193 C   0  0  0  0  0  0  0  0  0  0  0  0
   18.1286  -10.5866  -15.9434 C   0  0  2  0  0  0  0  0  0  0  0  0
   19.3207  -11.2030  -16.4312 N   0  0  0  0  0  0  0  0  0  0  0  0
   18.4386   -9.2655  -15.2994 C   0  0  0  0  0  0  0  0  0  0  0  0
   17.6002   -8.8145  -14.5118 O   0  0  0  0  0  0  0  0  0  0  0  0
   21.0063   -5.1363  -13.7240 N   0  0  0  0  0  0  0  0  0  0  0  0
   22.0103   -5.9948  -14.2910 C   0  0  0  0  0  0  0  0  0  0  0  0
   23.2238   -5.6657  -14.1359 O   0  0  0  0  0  0  0  0  0  0  0  0
   21.6107   -7.2255  -15.0322 C   0  0  0  0  0  0  0  0  0  0  0  0
   20.0923   -7.3291  -15.0453 C   0  0  2  0  0  0  0  0  0  0  0  0
   19.6342   -8.5901  -15.5949 N   0  0  0  0  0  0  0  0  0  0  0  0
   19.4600   -6.1851  -15.7116 C   0  0  0  0  0  0  0  0  0  0  0  0
   19.5621   -5.9913  -16.9742 O   0  0  0  0  0  0  0  0  0  0  0  0
   16.5680   -3.9469  -15.2768 C   0  0  0  0  0  0  0  0  0  0  0  0
   17.9924   -4.1402  -15.7536 C   0  0  2  0  0  0  0  0  0  0  0  0
   18.6784   -5.1816  -15.0505 N   0  0  0  0  0  0  0  0  0  0  0  0
   18.7551   -2.8567  -15.7495 C   0  0  0  0  0  0  0  0  0  0  0  0
   18.3053   -1.8308  -16.3202 O   0  0  0  0  0  0  0  0  0  0  0  0
   19.9847   -2.7331  -15.1225 O   0  0  0  0  0  0  0  0  0  0  0  0
  1  2  1  0
  2  3  2  0
  2  4  1  0
  4  5  1  0
  5  7  1  0
  5  6  1  1
  7  8  2  0
  9 10  1  0
 10 12  1  0
 11 10  2  0
 13 12  1  6
 13 15  1  0
 14  7  1  0
 14 13  1  0
 15 19  1  0
 16 15  2  0
 18 17  1  1
 19 18  1  0
 20 22  1  0
 20 18  1  0
 21 20  2  0
M  END
$$$$
