NNA.pdb
     RDKit          3D

 22 21  0  0  1  0  0  0  0  0999 V2000
   10.9874  -10.8279   -8.0772 N   0  0  0  0  0  0  0  0  0  0  0  0
   11.7896  -10.2587   -9.1022 C   0  0  0  0  0  0  0  0  0  0  0  0
   11.2288  -10.0360  -10.2184 O   0  0  0  0  0  0  0  0  0  0  0  0
   13.2148   -9.9440   -8.8655 C   0  0  0  0  0  0  0  0  0  0  0  0
   14.0083  -10.4766  -10.0494 C   0  0  2  0  0  0  0  0  0  0  0  0
   14.1544  -11.8869   -9.8804 N   0  0  0  0  0  0  0  0  0  0  0  0
   15.3512   -9.8057  -10.1021 C   0  0  0  0  0  0  0  0  0  0  0  0
   16.1053   -9.9829   -9.1396 O   0  0  0  0  0  0  0  0  0  0  0  0
   19.3623   -7.3230  -13.9206 N   0  0  0  0  0  0  0  0  0  0  0  0
   18.9989   -8.1264  -12.7852 C   0  0  0  0  0  0  0  0  0  0  0  0
   19.8606   -8.2760  -11.8686 O   0  0  0  0  0  0  0  0  0  0  0  0
   17.6472   -8.7518  -12.7130 C   0  0  0  0  0  0  0  0  0  0  0  0
   16.9674   -8.3231  -11.4205 C   0  0  2  0  0  0  0  0  0  0  0  0
   15.7121   -9.0159  -11.2062 N   0  0  0  0  0  0  0  0  0  0  0  0
   16.8062   -6.8675  -11.3303 C   0  0  0  0  0  0  0  0  0  0  0  0
   16.1669   -6.1974  -12.2160 O   0  0  0  0  0  0  0  0  0  0  0  0
   17.3910   -4.0888   -8.7982 C   0  0  0  0  0  0  0  0  0  0  0  0
   17.0445   -4.6510  -10.1611 C   0  0  2  0  0  0  0  0  0  0  0  0
   17.3277   -6.0496  -10.2749 N   0  0  0  0  0  0  0  0  0  0  0  0
   17.6668   -3.8559  -11.2609 C   0  0  0  0  0  0  0  0  0  0  0  0
   18.5163   -4.3678  -12.0334 O   0  0  0  0  0  0  0  0  0  0  0  0
   17.3424   -2.5271  -11.4833 O   0  0  0  0  0  0  0  0  0  0  0  0
  1  2  1  0
  2  3  2  0
  2  4  1  0
  4  5  1  0
  5  7  1  0
  5  6  1  1
  7  8  2  0
  9 10  1  0
 10 12  1  0
 11 10  2  0
 13 12  1  6
 13 15  1  0
 14  7  1  0
 14 13  1  0
 15 19  1  0
 16 15  2  0
 18 17  1  1
 19 18  1  0
 20 22  1  0
 20 18  1  0
 21 20  2  0
M  END
$$$$
