NNA.pdb
     RDKit          3D

 22 21  0  0  1  0  0  0  0  0999 V2000
   12.0266  -12.1598  -11.8531 N   0  0  0  0  0  0  0  0  0  0  0  0
   12.7325  -12.5773  -10.6931 C   0  0  0  0  0  0  0  0  0  0  0  0
   12.2147  -13.5097  -10.0058 O   0  0  0  0  0  0  0  0  0  0  0  0
   14.0142  -11.9446  -10.3145 C   0  0  0  0  0  0  0  0  0  0  0  0
   14.3643  -10.9292  -11.3922 C   0  0  2  0  0  0  0  0  0  0  0  0
   14.7864  -11.6482  -12.5514 N   0  0  0  0  0  0  0  0  0  0  0  0
   15.4581  -10.0250  -10.9001 C   0  0  0  0  0  0  0  0  0  0  0  0
   15.3300   -9.5558   -9.7644 O   0  0  0  0  0  0  0  0  0  0  0  0
   19.7437   -7.1798  -10.8750 N   0  0  0  0  0  0  0  0  0  0  0  0
   19.8355   -7.9301  -12.0977 C   0  0  0  0  0  0  0  0  0  0  0  0
   20.8734   -7.7761  -12.8077 O   0  0  0  0  0  0  0  0  0  0  0  0
   18.7325   -8.8518  -12.4946 C   0  0  0  0  0  0  0  0  0  0  0  0
   17.6227   -8.7782  -11.4557 C   0  0  2  0  0  0  0  0  0  0  0  0
   16.5676   -9.7388  -11.7125 N   0  0  0  0  0  0  0  0  0  0  0  0
   17.0928   -7.4189  -11.2997 C   0  0  0  0  0  0  0  0  0  0  0  0
   16.5025   -6.8046  -12.2570 O   0  0  0  0  0  0  0  0  0  0  0  0
   16.4645   -4.8853   -8.5340 C   0  0  0  0  0  0  0  0  0  0  0  0
   16.5925   -5.3387   -9.9733 C   0  0  2  0  0  0  0  0  0  0  0  0
   17.1701   -6.6427  -10.0971 N   0  0  0  0  0  0  0  0  0  0  0  0
   17.2989   -4.3247  -10.8110 C   0  0  0  0  0  0  0  0  0  0  0  0
   18.4726   -4.5199  -11.2171 O   0  0  0  0  0  0  0  0  0  0  0  0
   16.7023   -3.1294  -11.1793 O   0  0  0  0  0  0  0  0  0  0  0  0
  1  2  1  0
  2  3  2  0
  2  4  1  0
  4  5  1  0
  5  7  1  0
  5  6  1  6
  7  8  2  0
  9 10  1  0
 10 12  1  0
 11 10  2  0
 13 12  1  6
 13 15  1  0
 14  7  1  0
 14 13  1  0
 15 19  1  0
 16 15  2  0
 18 17  1  1
 19 18  1  0
 20 22  1  0
 20 18  1  0
 21 20  2  0
M  END
$$$$
