NNA.pdb
     RDKit          3D

 22 21  0  0  1  0  0  0  0  0999 V2000
   24.3890   -9.4434  -18.8954 N   0  0  0  0  0  0  0  0  0  0  0  0
   23.3804  -10.2262  -19.5183 C   0  0  0  0  0  0  0  0  0  0  0  0
   23.7524  -11.0348  -20.4227 O   0  0  0  0  0  0  0  0  0  0  0  0
   21.9623  -10.0950  -19.1205 C   0  0  0  0  0  0  0  0  0  0  0  0
   21.8761   -8.9941  -18.0738 C   0  0  2  0  0  0  0  0  0  0  0  0
   22.5221   -9.4632  -16.8900 N   0  0  0  0  0  0  0  0  0  0  0  0
   20.4359   -8.6676  -17.7996 C   0  0  0  0  0  0  0  0  0  0  0  0
   19.7543   -8.2874  -18.7574 O   0  0  0  0  0  0  0  0  0  0  0  0
   18.6095  -11.9360  -15.1087 N   0  0  0  0  0  0  0  0  0  0  0  0
   17.8613  -10.8047  -15.5852 C   0  0  0  0  0  0  0  0  0  0  0  0
   17.0258  -11.0004  -16.5172 O   0  0  0  0  0  0  0  0  0  0  0  0
   18.0803   -9.4569  -14.9861 C   0  0  0  0  0  0  0  0  0  0  0  0
   18.5573   -8.5007  -16.0699 C   0  0  2  0  0  0  0  0  0  0  0  0
   19.9089   -8.7953  -16.5038 N   0  0  0  0  0  0  0  0  0  0  0  0
   18.4070   -7.0943  -15.6797 C   0  0  0  0  0  0  0  0  0  0  0  0
   19.1483   -6.5532  -14.7853 O   0  0  0  0  0  0  0  0  0  0  0  0
   16.5574   -3.9855  -16.8581 C   0  0  0  0  0  0  0  0  0  0  0  0
   17.3958   -4.7990  -15.8944 C   0  0  2  0  0  0  0  0  0  0  0  0
   17.4446   -6.1887  -16.2350 N   0  0  0  0  0  0  0  0  0  0  0  0
   16.9799   -4.5776  -14.4778 C   0  0  0  0  0  0  0  0  0  0  0  0
   16.4687   -5.5031  -13.7976 O   0  0  0  0  0  0  0  0  0  0  0  0
   17.1350   -3.3531  -13.8478 O   0  0  0  0  0  0  0  0  0  0  0  0
  1  2  1  0
  2  3  2  0
  2  4  1  0
  4  5  1  0
  5  7  1  0
  5  6  1  1
  7  8  2  0
  9 10  1  0
 10 12  1  0
 11 10  2  0
 13 12  1  1
 13 15  1  0
 14  7  1  0
 14 13  1  0
 15 19  1  0
 16 15  2  0
 18 17  1  6
 19 18  1  0
 20 22  1  0
 20 18  1  0
 21 20  2  0
M  END
$$$$
