NNA.pdb
     RDKit          3D

 22 21  0  0  1  0  0  0  0  0999 V2000
   23.3453  -12.6371  -14.8636 N   0  0  0  0  0  0  0  0  0  0  0  0
   23.9214  -11.4137  -15.2987 C   0  0  0  0  0  0  0  0  0  0  0  0
   25.1770  -11.2871  -15.1671 O   0  0  0  0  0  0  0  0  0  0  0  0
   23.0830  -10.3424  -15.8783 C   0  0  0  0  0  0  0  0  0  0  0  0
   21.6314  -10.7879  -15.7806 C   0  0  2  0  0  0  0  0  0  0  0  0
   21.4458  -11.8782  -16.6837 N   0  0  0  0  0  0  0  0  0  0  0  0
   20.7254   -9.6437  -16.1355 C   0  0  0  0  0  0  0  0  0  0  0  0
   20.6682   -9.3217  -17.3269 O   0  0  0  0  0  0  0  0  0  0  0  0
   15.7083   -8.7383  -15.1669 N   0  0  0  0  0  0  0  0  0  0  0  0
   16.9866   -9.0285  -14.5768 C   0  0  0  0  0  0  0  0  0  0  0  0
   17.2631  -10.2410  -14.3351 O   0  0  0  0  0  0  0  0  0  0  0  0
   17.9371   -7.9216  -14.2688 C   0  0  0  0  0  0  0  0  0  0  0  0
   19.0373   -7.9017  -15.3202 C   0  0  2  0  0  0  0  0  0  0  0  0
   19.9861   -8.9830  -15.1405 N   0  0  0  0  0  0  0  0  0  0  0  0
   19.7080   -6.5993  -15.4024 C   0  0  0  0  0  0  0  0  0  0  0  0
   20.5523   -6.2118  -14.5197 O   0  0  0  0  0  0  0  0  0  0  0  0
   19.9356   -3.6264  -17.7869 C   0  0  0  0  0  0  0  0  0  0  0  0
   20.2326   -4.4075  -16.5239 C   0  0  2  0  0  0  0  0  0  0  0  0
   19.5049   -5.6379  -16.4460 N   0  0  0  0  0  0  0  0  0  0  0  0
   20.0581   -3.5682  -15.3016 C   0  0  0  0  0  0  0  0  0  0  0  0
   19.0089   -3.6331  -14.6122 O   0  0  0  0  0  0  0  0  0  0  0  0
   21.0343   -2.6843  -14.8700 O   0  0  0  0  0  0  0  0  0  0  0  0
  1  2  1  0
  2  3  2  0
  2  4  1  0
  4  5  1  0
  5  7  1  0
  5  6  1  6
  7  8  2  0
  9 10  1  0
 10 12  1  0
 11 10  2  0
 13 12  1  1
 13 15  1  0
 14  7  1  0
 14 13  1  0
 15 19  1  0
 16 15  2  0
 18 17  1  6
 19 18  1  0
 20 22  1  0
 20 18  1  0
 21 20  2  0
M  END
$$$$
