NNA.pdb
     RDKit          3D

 22 21  0  0  1  0  0  0  0  0999 V2000
   17.1464  -13.1302  -14.0157 N   0  0  0  0  0  0  0  0  0  0  0  0
   16.7784  -12.0975  -14.9192 C   0  0  0  0  0  0  0  0  0  0  0  0
   17.2412  -12.1694  -16.0985 O   0  0  0  0  0  0  0  0  0  0  0  0
   15.8937  -10.9927  -14.4913 C   0  0  0  0  0  0  0  0  0  0  0  0
   15.5965  -11.1855  -13.0117 C   0  0  2  0  0  0  0  0  0  0  0  0
   14.5174  -12.1138  -12.8986 N   0  0  0  0  0  0  0  0  0  0  0  0
   15.2303   -9.8669  -12.3926 C   0  0  0  0  0  0  0  0  0  0  0  0
   14.1485   -9.3716  -12.7256 O   0  0  0  0  0  0  0  0  0  0  0  0
   14.9376   -6.2203   -8.4682 N   0  0  0  0  0  0  0  0  0  0  0  0
   16.2621   -6.7338   -8.6888 C   0  0  0  0  0  0  0  0  0  0  0  0
   17.2406   -6.0235   -8.3105 O   0  0  0  0  0  0  0  0  0  0  0  0
   16.4510   -8.0604   -9.3430 C   0  0  0  0  0  0  0  0  0  0  0  0
   15.8634   -8.0129  -10.7462 C   0  0  2  0  0  0  0  0  0  0  0  0
   16.0951   -9.2423  -11.4788 N   0  0  0  0  0  0  0  0  0  0  0  0
   16.3140   -6.8382  -11.5010 C   0  0  0  0  0  0  0  0  0  0  0  0
   17.5379   -6.6792  -11.8457 O   0  0  0  0  0  0  0  0  0  0  0  0
   14.8438   -4.1030  -13.6260 C   0  0  0  0  0  0  0  0  0  0  0  0
   15.9295   -4.6831  -12.7439 C   0  0  2  0  0  0  0  0  0  0  0  0
   15.4659   -5.7645  -11.9285 N   0  0  0  0  0  0  0  0  0  0  0  0
   16.6158   -3.6252  -11.9447 C   0  0  0  0  0  0  0  0  0  0  0  0
   16.4001   -3.4979  -10.7127 O   0  0  0  0  0  0  0  0  0  0  0  0
   17.5160   -2.7394  -12.5150 O   0  0  0  0  0  0  0  0  0  0  0  0
  1  2  1  0
  2  3  2  0
  2  4  1  0
  4  5  1  0
  5  7  1  0
  5  6  1  6
  7  8  2  0
  9 10  1  0
 10 12  1  0
 11 10  2  0
 13 12  1  1
 13 15  1  0
 14  7  1  0
 14 13  1  0
 15 19  1  0
 16 15  2  0
 18 17  1  1
 19 18  1  0
 20 22  1  0
 20 18  1  0
 21 20  2  0
M  END
$$$$
