NNA.pdb
     RDKit          3D

 22 21  0  0  1  0  0  0  0  0999 V2000
   23.6576  -13.2224  -18.7380 N   0  0  0  0  0  0  0  0  0  0  0  0
   22.9159  -12.4667  -19.6852 C   0  0  0  0  0  0  0  0  0  0  0  0
   23.0892  -12.7462  -20.9107 O   0  0  0  0  0  0  0  0  0  0  0  0
   21.9856  -11.4035  -19.2486 C   0  0  0  0  0  0  0  0  0  0  0  0
   22.0508  -11.3275  -17.7304 C   0  0  2  0  0  0  0  0  0  0  0  0
   21.3885  -12.4783  -17.2050 N   0  0  0  0  0  0  0  0  0  0  0  0
   21.3833  -10.0679  -17.2572 C   0  0  0  0  0  0  0  0  0  0  0  0
   21.4409   -9.0868  -18.0059 O   0  0  0  0  0  0  0  0  0  0  0  0
   17.7240   -9.9162  -16.3081 N   0  0  0  0  0  0  0  0  0  0  0  0
   17.8732   -9.8517  -14.8798 C   0  0  0  0  0  0  0  0  0  0  0  0
   16.9117  -10.2668  -14.1670 O   0  0  0  0  0  0  0  0  0  0  0  0
   19.1275   -9.3100  -14.2823 C   0  0  0  0  0  0  0  0  0  0  0  0
   20.0728   -8.8927  -15.3997 C   0  0  2  0  0  0  0  0  0  0  0  0
   20.7292  -10.0297  -16.0147 N   0  0  0  0  0  0  0  0  0  0  0  0
   21.0392   -7.8783  -14.9642 C   0  0  0  0  0  0  0  0  0  0  0  0
   22.0335   -8.1657  -14.2086 O   0  0  0  0  0  0  0  0  0  0  0  0
   22.0097   -4.3079  -15.7882 C   0  0  0  0  0  0  0  0  0  0  0  0
   21.9812   -5.5444  -14.9143 C   0  0  2  0  0  0  0  0  0  0  0  0
   20.9873   -6.4910  -15.3211 N   0  0  0  0  0  0  0  0  0  0  0  0
   21.8718   -5.1953  -13.4669 C   0  0  0  0  0  0  0  0  0  0  0  0
   20.8068   -5.3929  -12.8287 O   0  0  0  0  0  0  0  0  0  0  0  0
   22.9280   -4.6415  -12.7612 O   0  0  0  0  0  0  0  0  0  0  0  0
  1  2  1  0
  2  3  2  0
  2  4  1  0
  4  5  1  0
  5  7  1  0
  5  6  1  1
  7  8  2  0
  9 10  1  0
 10 12  1  0
 11 10  2  0
 13 12  1  1
 13 15  1  0
 14  7  1  0
 14 13  1  0
 15 19  1  0
 16 15  2  0
 18 17  1  6
 19 18  1  0
 20 22  1  0
 20 18  1  0
 21 20  2  0
M  END
$$$$
