NNA.pdb
     RDKit          3D

 22 21  0  0  1  0  0  0  0  0999 V2000
   19.7762  -12.7020  -18.2903 N   0  0  0  0  0  0  0  0  0  0  0  0
   20.2676  -13.3389  -17.1193 C   0  0  0  0  0  0  0  0  0  0  0  0
   19.7264  -14.4379  -16.7888 O   0  0  0  0  0  0  0  0  0  0  0  0
   21.3627  -12.7366  -16.3291 C   0  0  0  0  0  0  0  0  0  0  0  0
   21.7406  -11.4201  -16.9918 C   0  0  2  0  0  0  0  0  0  0  0  0
   22.3887  -11.7217  -18.2279 N   0  0  0  0  0  0  0  0  0  0  0  0
   22.6544  -10.6423  -16.0885 C   0  0  0  0  0  0  0  0  0  0  0  0
   22.3262  -10.5522  -14.9007 O   0  0  0  0  0  0  0  0  0  0  0  0
   25.7754  -11.6117  -15.0068 N   0  0  0  0  0  0  0  0  0  0  0  0
   26.6628  -10.8093  -15.8038 C   0  0  0  0  0  0  0  0  0  0  0  0
   27.8212  -11.2660  -16.0375 O   0  0  0  0  0  0  0  0  0  0  0  0
   26.2109   -9.4876  -16.3258 C   0  0  0  0  0  0  0  0  0  0  0  0
   24.7804   -9.2345  -15.8719 C   0  0  2  0  0  0  0  0  0  0  0  0
   23.8244  -10.0514  -16.5934 N   0  0  0  0  0  0  0  0  0  0  0  0
   24.4230   -7.8123  -15.9183 C   0  0  0  0  0  0  0  0  0  0  0  0
   25.1081   -6.9182  -15.3071 O   0  0  0  0  0  0  0  0  0  0  0  0
   22.0443   -5.4949  -17.7651 C   0  0  0  0  0  0  0  0  0  0  0  0
   22.9869   -5.8758  -16.6426 C   0  0  2  0  0  0  0  0  0  0  0  0
   23.3019   -7.2722  -16.6297 N   0  0  0  0  0  0  0  0  0  0  0  0
   22.4920   -5.3948  -15.3188 C   0  0  0  0  0  0  0  0  0  0  0  0
   21.8350   -6.1486  -14.5568 O   0  0  0  0  0  0  0  0  0  0  0  0
   22.7297   -4.1062  -14.8679 O   0  0  0  0  0  0  0  0  0  0  0  0
  1  2  1  0
  2  3  2  0
  2  4  1  0
  4  5  1  0
  5  7  1  0
  5  6  1  6
  7  8  2  0
  9 10  1  0
 10 12  1  0
 11 10  2  0
 13 12  1  6
 13 15  1  0
 14  7  1  0
 14 13  1  0
 15 19  1  0
 16 15  2  0
 18 17  1  6
 19 18  1  0
 20 22  1  0
 20 18  1  0
 21 20  2  0
M  END
$$$$
