NNA.pdb
     RDKit          3D

 22 21  0  0  1  0  0  0  0  0999 V2000
   15.4320  -11.2998  -17.1174 N   0  0  0  0  0  0  0  0  0  0  0  0
   15.8795  -11.5860  -15.7999 C   0  0  0  0  0  0  0  0  0  0  0  0
   15.4492  -12.6516  -15.2621 O   0  0  0  0  0  0  0  0  0  0  0  0
   16.8066  -10.6734  -15.0969 C   0  0  0  0  0  0  0  0  0  0  0  0
   18.0644  -10.5503  -15.9441 C   0  0  2  0  0  0  0  0  0  0  0  0
   18.7331  -11.8117  -15.9219 N   0  0  0  0  0  0  0  0  0  0  0  0
   18.9473   -9.4708  -15.3860 C   0  0  0  0  0  0  0  0  0  0  0  0
   18.7073   -9.0880  -14.2361 O   0  0  0  0  0  0  0  0  0  0  0  0
   22.8322   -6.2246  -14.7558 N   0  0  0  0  0  0  0  0  0  0  0  0
   23.2735   -7.1487  -15.7647 C   0  0  0  0  0  0  0  0  0  0  0  0
   24.4658   -7.0435  -16.1799 O   0  0  0  0  0  0  0  0  0  0  0  0
   22.3398   -8.1866  -16.2885 C   0  0  0  0  0  0  0  0  0  0  0  0
   20.9389   -7.9086  -15.7626 C   0  0  2  0  0  0  0  0  0  0  0  0
   19.9929   -8.9345  -16.1556 N   0  0  0  0  0  0  0  0  0  0  0  0
   20.4642   -6.5671  -16.1197 C   0  0  0  0  0  0  0  0  0  0  0  0
   20.4581   -6.1472  -17.3304 O   0  0  0  0  0  0  0  0  0  0  0  0
   18.0761   -4.0419  -15.0136 C   0  0  0  0  0  0  0  0  0  0  0  0
   19.4485   -4.3260  -15.5873 C   0  0  2  0  0  0  0  0  0  0  0  0
   19.9668   -5.5990  -15.1868 N   0  0  0  0  0  0  0  0  0  0  0  0
   20.4042   -3.2130  -15.3103 C   0  0  0  0  0  0  0  0  0  0  0  0
   20.1236   -2.0248  -15.6099 O   0  0  0  0  0  0  0  0  0  0  0  0
   21.6362   -3.4316  -14.7147 O   0  0  0  0  0  0  0  0  0  0  0  0
  1  2  1  0
  2  3  2  0
  2  4  1  0
  4  5  1  0
  5  7  1  0
  5  6  1  1
  7  8  2  0
  9 10  1  0
 10 12  1  0
 11 10  2  0
 13 12  1  6
 13 15  1  0
 14  7  1  0
 14 13  1  0
 15 19  1  0
 16 15  2  0
 18 17  1  1
 19 18  1  0
 20 22  1  0
 20 18  1  0
 21 20  2  0
M  END
$$$$
