NNA.pdb
     RDKit          3D

 22 21  0  0  1  0  0  0  0  0999 V2000
   37.0392   -7.8379   -6.2261 N   0  0  0  0  0  0  0  0  0  0  0  0
   36.8616   -8.5730   -7.4287 C   0  0  0  0  0  0  0  0  0  0  0  0
   35.6833   -8.9548   -7.7041 O   0  0  0  0  0  0  0  0  0  0  0  0
   38.0085   -8.8733   -8.3124 C   0  0  0  0  0  0  0  0  0  0  0  0
   39.2647   -8.3477   -7.6337 C   0  0  2  0  0  0  0  0  0  0  0  0
   39.1959   -6.9214   -7.6282 N   0  0  0  0  0  0  0  0  0  0  0  0
   40.4792   -8.8183   -8.3816 C   0  0  0  0  0  0  0  0  0  0  0  0
   40.9991   -8.0193   -9.1676 O   0  0  0  0  0  0  0  0  0  0  0  0
   43.7713  -11.3292   -5.5533 N   0  0  0  0  0  0  0  0  0  0  0  0
   43.6499  -10.8703   -6.9103 C   0  0  0  0  0  0  0  0  0  0  0  0
   44.2163   -9.7793   -7.2168 O   0  0  0  0  0  0  0  0  0  0  0  0
   42.8777  -11.6698   -7.9043 C   0  0  0  0  0  0  0  0  0  0  0  0
   42.1273  -10.7238   -8.8308 C   0  0  2  0  0  0  0  0  0  0  0  0
   40.9837  -10.1139   -8.1812 N   0  0  0  0  0  0  0  0  0  0  0  0
   41.7551  -11.3618  -10.0984 C   0  0  0  0  0  0  0  0  0  0  0  0
   40.8179  -12.2327  -10.1725 O   0  0  0  0  0  0  0  0  0  0  0  0
   42.6321  -11.1272  -13.8047 C   0  0  0  0  0  0  0  0  0  0  0  0
   41.9497  -11.7087  -12.5842 C   0  0  2  0  0  0  0  0  0  0  0  0
   42.3754  -11.0949  -11.3628 N   0  0  0  0  0  0  0  0  0  0  0  0
   42.0681  -13.1963  -12.5415 C   0  0  0  0  0  0  0  0  0  0  0  0
   41.2847  -13.9304  -13.1956 O   0  0  0  0  0  0  0  0  0  0  0  0
   43.0379  -13.8363  -11.7863 O   0  0  0  0  0  0  0  0  0  0  0  0
  1  2  1  0
  2  3  2  0
  2  4  1  0
  4  5  1  0
  5  7  1  0
  5  6  1  6
  7  8  2  0
  9 10  1  0
 10 12  1  0
 11 10  2  0
 13 12  1  1
 13 15  1  0
 14  7  1  0
 14 13  1  0
 15 19  1  0
 16 15  2  0
 18 17  1  6
 19 18  1  0
 20 22  1  0
 20 18  1  0
 21 20  2  0
M  END
$$$$
