NNA.pdb
     RDKit          3D

 22 21  0  0  1  0  0  0  0  0999 V2000
   18.4549  -17.1336  -14.8315 N   0  0  0  0  0  0  0  0  0  0  0  0
   19.7305  -16.9678  -15.4345 C   0  0  0  0  0  0  0  0  0  0  0  0
   20.4390  -18.0097  -15.5837 O   0  0  0  0  0  0  0  0  0  0  0  0
   20.2000  -15.6334  -15.8652 C   0  0  0  0  0  0  0  0  0  0  0  0
   19.1567  -15.0603  -16.8128 C   0  0  2  0  0  0  0  0  0  0  0  0
   19.1972  -15.8203  -18.0210 N   0  0  0  0  0  0  0  0  0  0  0  0
   19.4589  -13.6143  -17.0842 C   0  0  0  0  0  0  0  0  0  0  0  0
   20.5931  -13.3451  -17.4938 O   0  0  0  0  0  0  0  0  0  0  0  0
   16.5908   -8.0829  -16.8196 N   0  0  0  0  0  0  0  0  0  0  0  0
   17.4582   -9.0560  -17.4258 C   0  0  0  0  0  0  0  0  0  0  0  0
   18.3856   -8.6322  -18.1776 O   0  0  0  0  0  0  0  0  0  0  0  0
   17.2518  -10.5092  -17.1627 C   0  0  0  0  0  0  0  0  0  0  0  0
   18.6055  -11.2017  -17.0982 C   0  0  2  0  0  0  0  0  0  0  0  0
   18.4805  -12.6285  -16.8738 N   0  0  0  0  0  0  0  0  0  0  0  0
   19.5072  -10.5762  -16.1244 C   0  0  0  0  0  0  0  0  0  0  0  0
   19.3549  -10.7274  -14.8610 O   0  0  0  0  0  0  0  0  0  0  0  0
   22.9139   -9.0281  -15.9237 C   0  0  0  0  0  0  0  0  0  0  0  0
   21.4721   -9.1429  -15.4748 C   0  0  2  0  0  0  0  0  0  0  0  0
   20.6287   -9.7490  -16.4601 N   0  0  0  0  0  0  0  0  0  0  0  0
   20.9359   -7.8333  -14.9989 C   0  0  0  0  0  0  0  0  0  0  0  0
   20.2887   -7.0774  -15.7671 O   0  0  0  0  0  0  0  0  0  0  0  0
   21.1228   -7.3897  -13.6994 O   0  0  0  0  0  0  0  0  0  0  0  0
  1  2  1  0
  2  3  2  0
  2  4  1  0
  4  5  1  0
  5  7  1  0
  5  6  1  6
  7  8  2  0
  9 10  1  0
 10 12  1  0
 11 10  2  0
 13 12  1  1
 13 15  1  0
 14  7  1  0
 14 13  1  0
 15 19  1  0
 16 15  2  0
 18 17  1  6
 19 18  1  0
 20 22  1  0
 20 18  1  0
 21 20  2  0
M  END
$$$$
