NNA.pdb
     RDKit          3D

 22 21  0  0  1  0  0  0  0  0999 V2000
   26.1605  -21.7018  -18.6901 N   0  0  0  0  0  0  0  0  0  0  0  0
   25.9591  -22.7000  -17.6995 C   0  0  0  0  0  0  0  0  0  0  0  0
   26.6749  -23.7446  -17.7777 O   0  0  0  0  0  0  0  0  0  0  0  0
   24.9555  -22.5169  -16.6291 C   0  0  0  0  0  0  0  0  0  0  0  0
   25.3549  -21.2873  -15.8268 C   0  0  2  0  0  0  0  0  0  0  0  0
   26.6123  -21.5580  -15.2067 N   0  0  0  0  0  0  0  0  0  0  0  0
   24.3050  -20.9937  -14.7935 C   0  0  0  0  0  0  0  0  0  0  0  0
   24.6969  -20.7652  -13.6443 O   0  0  0  0  0  0  0  0  0  0  0  0
   19.8267  -19.4944  -12.8089 N   0  0  0  0  0  0  0  0  0  0  0  0
   20.3483  -18.6149  -13.8194 C   0  0  0  0  0  0  0  0  0  0  0  0
   19.8695  -17.4439  -13.8862 O   0  0  0  0  0  0  0  0  0  0  0  0
   21.4164  -19.0893  -14.7454 C   0  0  0  0  0  0  0  0  0  0  0  0
   21.8351  -20.4967  -14.3449 C   0  0  2  0  0  0  0  0  0  0  0  0
   22.9440  -20.9854  -15.1408 N   0  0  0  0  0  0  0  0  0  0  0  0
   20.7088  -21.4369  -14.3483 C   0  0  0  0  0  0  0  0  0  0  0  0
   20.1098  -21.7773  -15.4289 O   0  0  0  0  0  0  0  0  0  0  0  0
   17.7469  -22.2644  -13.5710 C   0  0  0  0  0  0  0  0  0  0  0  0
   19.0473  -22.9612  -13.2289 C   0  0  2  0  0  0  0  0  0  0  0  0
   20.1631  -22.0656  -13.1814 N   0  0  0  0  0  0  0  0  0  0  0  0
   19.2982  -24.1314  -14.1214 C   0  0  0  0  0  0  0  0  0  0  0  0
   20.2812  -24.8927  -13.9351 O   0  0  0  0  0  0  0  0  0  0  0  0
   18.4684  -24.4342  -15.1892 O   0  0  0  0  0  0  0  0  0  0  0  0
  1  2  1  0
  2  3  2  0
  2  4  1  0
  4  5  1  0
  5  7  1  0
  5  6  1  1
  7  8  2  0
  9 10  1  0
 10 12  1  0
 11 10  2  0
 13 12  1  6
 13 15  1  0
 14  7  1  0
 14 13  1  0
 15 19  1  0
 16 15  2  0
 18 17  1  6
 19 18  1  0
 20 22  1  0
 20 18  1  0
 21 20  2  0
M  END
$$$$
