NNA.pdb
     RDKit          3D

 22 21  0  0  1  0  0  0  0  0999 V2000
   19.2951  -13.2296  -16.3915 N   0  0  0  0  0  0  0  0  0  0  0  0
   17.9473  -12.7810  -16.4071 C   0  0  0  0  0  0  0  0  0  0  0  0
   17.0532  -13.6457  -16.6576 O   0  0  0  0  0  0  0  0  0  0  0  0
   17.6143  -11.3650  -16.1410 C   0  0  0  0  0  0  0  0  0  0  0  0
   18.9189  -10.6227  -15.8917 C   0  0  2  0  0  0  0  0  0  0  0  0
   19.7555  -11.4619  -15.0950 N   0  0  0  0  0  0  0  0  0  0  0  0
   18.6376   -9.3277  -15.1847 C   0  0  0  0  0  0  0  0  0  0  0  0
   17.8960   -8.5239  -15.7595 O   0  0  0  0  0  0  0  0  0  0  0  0
   17.7122   -6.5346  -10.2125 N   0  0  0  0  0  0  0  0  0  0  0  0
   18.9348   -6.8622  -10.8942 C   0  0  0  0  0  0  0  0  0  0  0  0
   19.8860   -6.0277  -10.8329 O   0  0  0  0  0  0  0  0  0  0  0  0
   19.0536   -8.1471  -11.6414 C   0  0  0  0  0  0  0  0  0  0  0  0
   19.0662   -7.8563  -13.1352 C   0  0  2  0  0  0  0  0  0  0  0  0
   19.2040   -9.0631  -13.9268 N   0  0  0  0  0  0  0  0  0  0  0  0
   20.0701   -6.8504  -13.5001 C   0  0  0  0  0  0  0  0  0  0  0  0
   21.3218   -7.1218  -13.5410 O   0  0  0  0  0  0  0  0  0  0  0  0
   20.1659   -3.5641  -15.3170 C   0  0  0  0  0  0  0  0  0  0  0  0
   20.7591   -4.5942  -14.3786 C   0  0  2  0  0  0  0  0  0  0  0  0
   19.7787   -5.4894  -13.8429 N   0  0  0  0  0  0  0  0  0  0  0  0
   21.5873   -3.9576  -13.3121 C   0  0  0  0  0  0  0  0  0  0  0  0
   21.1681   -3.8662  -12.1304 O   0  0  0  0  0  0  0  0  0  0  0  0
   22.8473   -3.4407  -13.5685 O   0  0  0  0  0  0  0  0  0  0  0  0
  1  2  1  0
  2  3  2  0
  2  4  1  0
  4  5  1  0
  5  7  1  0
  5  6  1  1
  7  8  2  0
  9 10  1  0
 10 12  1  0
 11 10  2  0
 13 12  1  1
 13 15  1  0
 14  7  1  0
 14 13  1  0
 15 19  1  0
 16 15  2  0
 18 17  1  1
 19 18  1  0
 20 22  1  0
 20 18  1  0
 21 20  2  0
M  END
$$$$
