NNA.pdb
     RDKit          3D

 22 21  0  0  1  0  0  0  0  0999 V2000
   15.4802  -10.0588  -17.7762 N   0  0  0  0  0  0  0  0  0  0  0  0
   15.2244   -9.3121  -16.5950 C   0  0  0  0  0  0  0  0  0  0  0  0
   14.0294   -8.9340  -16.3978 O   0  0  0  0  0  0  0  0  0  0  0  0
   16.3125   -8.9961  -15.6449 C   0  0  0  0  0  0  0  0  0  0  0  0
   17.5976   -9.5928  -16.1993 C   0  0  2  0  0  0  0  0  0  0  0  0
   17.6272  -10.9758  -15.8454 N   0  0  0  0  0  0  0  0  0  0  0  0
   18.7815   -8.8710  -15.6219 C   0  0  0  0  0  0  0  0  0  0  0  0
   18.8284   -8.7637  -14.3919 O   0  0  0  0  0  0  0  0  0  0  0  0
   22.1768  -10.0406  -15.7056 N   0  0  0  0  0  0  0  0  0  0  0  0
   22.7451   -9.1983  -16.7225 C   0  0  0  0  0  0  0  0  0  0  0  0
   23.7675   -9.6241  -17.3375 O   0  0  0  0  0  0  0  0  0  0  0  0
   22.1329   -7.8724  -17.0240 C   0  0  0  0  0  0  0  0  0  0  0  0
   20.9740   -7.6289  -16.0679 C   0  0  2  0  0  0  0  0  0  0  0  0
   19.7787   -8.3485  -16.4619 N   0  0  0  0  0  0  0  0  0  0  0  0
   20.7061   -6.2004  -15.8672 C   0  0  0  0  0  0  0  0  0  0  0  0
   20.2356   -5.4586  -16.8001 O   0  0  0  0  0  0  0  0  0  0  0  0
   19.4897   -3.8060  -13.5858 C   0  0  0  0  0  0  0  0  0  0  0  0
   20.6666   -4.0898  -14.4957 C   0  0  2  0  0  0  0  0  0  0  0  0
   20.9315   -5.4889  -14.6434 N   0  0  0  0  0  0  0  0  0  0  0  0
   21.8803   -3.3241  -14.0839 C   0  0  0  0  0  0  0  0  0  0  0  0
   22.8967   -3.9098  -13.6319 O   0  0  0  0  0  0  0  0  0  0  0  0
   21.9467   -1.9432  -14.1784 O   0  0  0  0  0  0  0  0  0  0  0  0
  1  2  1  0
  2  3  2  0
  2  4  1  0
  4  5  1  0
  5  7  1  0
  5  6  1  1
  7  8  2  0
  9 10  1  0
 10 12  1  0
 11 10  2  0
 13 12  1  6
 13 15  1  0
 14  7  1  0
 14 13  1  0
 15 19  1  0
 16 15  2  0
 18 17  1  1
 19 18  1  0
 20 22  1  0
 20 18  1  0
 21 20  2  0
M  END
$$$$
