NNA.pdb
     RDKit          3D

 22 21  0  0  1  0  0  0  0  0999 V2000
   15.4032  -12.9795  -15.1287 N   0  0  0  0  0  0  0  0  0  0  0  0
   15.8773  -12.2972  -13.9764 C   0  0  0  0  0  0  0  0  0  0  0  0
   16.2172  -13.0087  -12.9824 O   0  0  0  0  0  0  0  0  0  0  0  0
   15.9660  -10.8214  -13.9497 C   0  0  0  0  0  0  0  0  0  0  0  0
   15.7890  -10.3740  -12.5063 C   0  0  2  0  0  0  0  0  0  0  0  0
   14.4132  -10.5387  -12.1618 N   0  0  0  0  0  0  0  0  0  0  0  0
   16.2034   -8.9369  -12.3671 C   0  0  0  0  0  0  0  0  0  0  0  0
   15.7657   -8.1427  -13.2061 O   0  0  0  0  0  0  0  0  0  0  0  0
   15.5467   -7.3992   -8.2206 N   0  0  0  0  0  0  0  0  0  0  0  0
   16.1684   -6.5707   -9.2174 C   0  0  0  0  0  0  0  0  0  0  0  0
   15.4778   -5.6359   -9.7216 O   0  0  0  0  0  0  0  0  0  0  0  0
   17.5797   -6.8240   -9.6268 C   0  0  0  0  0  0  0  0  0  0  0  0
   17.6099   -7.2174  -11.0967 C   0  0  2  0  0  0  0  0  0  0  0  0
   17.0523   -8.5366  -11.3220 N   0  0  0  0  0  0  0  0  0  0  0  0
   18.9487   -7.0868  -11.6826 C   0  0  0  0  0  0  0  0  0  0  0  0
   19.9387   -7.7951  -11.2824 O   0  0  0  0  0  0  0  0  0  0  0  0
   20.5211   -5.9619  -14.8547 C   0  0  0  0  0  0  0  0  0  0  0  0
   20.5876   -6.1630  -13.3552 C   0  0  2  0  0  0  0  0  0  0  0  0
   19.2961   -6.1810  -12.7379 N   0  0  0  0  0  0  0  0  0  0  0  0
   21.5112   -5.1850  -12.7073 C   0  0  0  0  0  0  0  0  0  0  0  0
   21.0784   -4.1194  -12.1998 O   0  0  0  0  0  0  0  0  0  0  0  0
   22.8780   -5.4008  -12.6336 O   0  0  0  0  0  0  0  0  0  0  0  0
  1  2  1  0
  2  3  2  0
  2  4  1  0
  4  5  1  0
  5  7  1  0
  5  6  1  6
  7  8  2  0
  9 10  1  0
 10 12  1  0
 11 10  2  0
 13 12  1  1
 13 15  1  0
 14  7  1  0
 14 13  1  0
 15 19  1  0
 16 15  2  0
 18 17  1  6
 19 18  1  0
 20 22  1  0
 20 18  1  0
 21 20  2  0
M  END
$$$$
