HGW.pdb
     RDKit          3D

 29 31  0  0  1  0  0  0  0  0999 V2000
    7.9080  -19.7013   21.5023 N   0  0  0  0  0  0  0  0  0  0  0  0
    8.6091  -19.3300   20.2936 C   0  0  1  0  0  0  0  0  0  0  0  0
    7.6538  -19.5247   19.1330 C   0  0  0  0  0  0  0  0  0  0  0  0
    7.7516  -20.9434   18.6883 C   0  0  0  0  0  0  0  0  0  0  0  0
    8.7034  -21.8583   19.0573 C   0  0  0  0  0  0  0  0  0  0  0  0
    8.4486  -23.0371   18.4411 N   0  0  0  0  0  0  0  0  0  0  0  0
    7.3359  -22.8699   17.6817 C   0  0  0  0  0  0  0  0  0  0  0  0
    6.9212  -21.5997   17.8377 N   0  0  0  0  0  0  0  0  0  0  0  0
    9.0669  -17.9347   20.4012 C   0  0  0  0  0  0  0  0  0  0  0  0
    9.8916  -17.4656   19.5658 O   0  0  0  0  0  0  0  0  0  0  0  0
    8.6268  -17.0354   21.4259 N   0  0  0  0  0  0  0  0  0  0  0  0
    9.1922  -15.7165   21.5524 C   0  0  0  0  0  0  0  0  0  0  0  0
    9.6988  -15.4781   22.9421 C   0  0  0  0  0  0  0  0  0  0  0  0
   10.2573  -14.4018   23.1918 O   0  0  0  0  0  0  0  0  0  0  0  0
    9.5561  -16.4457   23.9714 N   0  0  0  0  0  0  0  0  0  0  0  0
   10.1481  -16.3246   25.2731 C   0  0  1  0  0  0  0  0  0  0  0  0
    9.1319  -16.2596   26.3762 C   0  0  0  0  0  0  0  0  0  0  0  0
    7.9450  -15.4583   26.1087 C   0  0  0  0  0  0  0  0  0  0  0  0
    6.7540  -15.8914   25.5716 C   0  0  0  0  0  0  0  0  0  0  0  0
    5.8906  -14.8684   25.4511 N   0  0  0  0  0  0  0  0  0  0  0  0
    6.5137  -13.7764   25.9065 C   0  0  0  0  0  0  0  0  0  0  0  0
    6.0411  -12.4861   25.9947 C   0  0  0  0  0  0  0  0  0  0  0  0
    6.8253  -11.4610   26.5057 C   0  0  0  0  0  0  0  0  0  0  0  0
    8.0958  -11.7962   26.9196 C   0  0  0  0  0  0  0  0  0  0  0  0
    8.5700  -13.0856   26.8318 C   0  0  0  0  0  0  0  0  0  0  0  0
    7.7898  -14.1098   26.3218 C   0  0  0  0  0  0  0  0  0  0  0  0
   11.1097  -17.3989   25.5773 C   0  0  0  0  0  0  0  0  0  0  0  0
   11.7203  -17.3454   26.6742 O   0  0  0  0  0  0  0  0  0  0  0  0
   11.3941  -18.4691   24.7427 O   0  0  0  0  0  0  0  0  0  0  0  0
  2  1  1  1
  2  9  1  0
  3  4  1  0
  3  2  1  0
  4  5  2  0
  5  6  1  0
  7  6  1  0
  8  4  1  0
  8  7  2  0
  9 11  1  0
  9 10  2  0
 11 12  1  0
 12 13  1  0
 13 14  2  0
 15 16  1  0
 15 13  1  0
 16 27  1  0
 16 17  1  1
 18 19  2  0
 18 17  1  0
 20 19  1  0
 21 26  2  0
 21 20  1  0
 22 21  1  0
 23 24  1  0
 23 22  2  0
 24 25  2  0
 25 26  1  0
 26 18  1  0
 27 29  1  0
 28 27  2  0
M  END
$$$$
