HGW.pdb
     RDKit          3D

 29 31  0  0  1  0  0  0  0  0999 V2000
    9.7022  -15.7501   19.4104 N   0  0  0  0  0  0  0  0  0  0  0  0
    8.5308  -15.2486   20.0935 C   0  0  1  0  0  0  0  0  0  0  0  0
    7.3650  -15.3401   19.1290 C   0  0  0  0  0  0  0  0  0  0  0  0
    7.7460  -14.6288   17.8765 C   0  0  0  0  0  0  0  0  0  0  0  0
    8.6718  -13.6259   17.7481 C   0  0  0  0  0  0  0  0  0  0  0  0
    8.7321  -13.2409   16.4510 N   0  0  0  0  0  0  0  0  0  0  0  0
    7.8452  -13.9991   15.7572 C   0  0  0  0  0  0  0  0  0  0  0  0
    7.2532  -14.8361   16.6284 N   0  0  0  0  0  0  0  0  0  0  0  0
    8.2985  -16.0395   21.3137 C   0  0  0  0  0  0  0  0  0  0  0  0
    7.4422  -15.6658   22.1652 O   0  0  0  0  0  0  0  0  0  0  0  0
    9.0022  -17.2501   21.6165 N   0  0  0  0  0  0  0  0  0  0  0  0
    8.8037  -17.9333   22.8691 C   0  0  0  0  0  0  0  0  0  0  0  0
    9.7096  -17.3876   23.9304 C   0  0  0  0  0  0  0  0  0  0  0  0
   10.8125  -16.9376   23.5930 O   0  0  0  0  0  0  0  0  0  0  0  0
    9.3395  -17.3731   25.3012 N   0  0  0  0  0  0  0  0  0  0  0  0
   10.0088  -16.5948   26.3040 C   0  0  1  0  0  0  0  0  0  0  0  0
    9.7028  -15.1281   26.2098 C   0  0  0  0  0  0  0  0  0  0  0  0
    8.3055  -14.7521   26.3791 C   0  0  0  0  0  0  0  0  0  0  0  0
    7.2131  -15.5894   26.3708 C   0  0  0  0  0  0  0  0  0  0  0  0
    6.0790  -14.8876   26.5376 N   0  0  0  0  0  0  0  0  0  0  0  0
    6.4292  -13.6024   26.6543 C   0  0  0  0  0  0  0  0  0  0  0  0
    5.6241  -12.5020   26.8468 C   0  0  0  0  0  0  0  0  0  0  0  0
    6.1570  -11.2250   26.9559 C   0  0  0  0  0  0  0  0  0  0  0  0
    7.5268  -11.1120   26.8628 C   0  0  0  0  0  0  0  0  0  0  0  0
    8.3332  -12.2109   26.6700 C   0  0  0  0  0  0  0  0  0  0  0  0
    7.8038  -13.4859   26.5602 C   0  0  0  0  0  0  0  0  0  0  0  0
    9.7288  -17.0501   27.6772 C   0  0  0  0  0  0  0  0  0  0  0  0
   10.3424  -16.4868   28.6179 O   0  0  0  0  0  0  0  0  0  0  0  0
    8.8362  -18.0568   28.0129 O   0  0  0  0  0  0  0  0  0  0  0  0
  2  1  1  6
  2  9  1  0
  3  4  1  0
  3  2  1  0
  4  5  2  0
  5  6  1  0
  7  6  1  0
  8  4  1  0
  8  7  2  0
  9 11  1  0
  9 10  2  0
 11 12  1  0
 12 13  1  0
 13 14  2  0
 15 16  1  0
 15 13  1  0
 16 27  1  0
 16 17  1  1
 18 19  2  0
 18 17  1  0
 20 19  1  0
 21 26  2  0
 21 20  1  0
 22 21  1  0
 23 24  1  0
 23 22  2  0
 24 25  2  0
 25 26  1  0
 26 18  1  0
 27 29  1  0
 28 27  2  0
M  END
$$$$
