HGW.pdb
     RDKit          3D

 29 31  0  0  1  0  0  0  0  0999 V2000
    9.2841  -14.7847   21.0899 N   0  0  0  0  0  0  0  0  0  0  0  0
    9.9384  -15.8726   20.3981 C   0  0  1  0  0  0  0  0  0  0  0  0
   10.3284  -15.3706   19.0221 C   0  0  0  0  0  0  0  0  0  0  0  0
    9.1373  -14.7108   18.4174 C   0  0  0  0  0  0  0  0  0  0  0  0
    8.3674  -13.7257   18.9796 C   0  0  0  0  0  0  0  0  0  0  0  0
    7.3791  -13.3883   18.1174 N   0  0  0  0  0  0  0  0  0  0  0  0
    7.5219  -14.1590   17.0090 C   0  0  0  0  0  0  0  0  0  0  0  0
    8.5886  -14.9562   17.1998 N   0  0  0  0  0  0  0  0  0  0  0  0
   11.1090  -16.3141   21.1748 C   0  0  0  0  0  0  0  0  0  0  0  0
   11.7857  -17.3139   20.7999 O   0  0  0  0  0  0  0  0  0  0  0  0
   11.5528  -15.6655   22.3726 N   0  0  0  0  0  0  0  0  0  0  0  0
   10.6740  -15.5071   23.5030 C   0  0  0  0  0  0  0  0  0  0  0  0
   10.6394  -16.7509   24.3375 C   0  0  0  0  0  0  0  0  0  0  0  0
   11.4553  -17.6497   24.0942 O   0  0  0  0  0  0  0  0  0  0  0  0
    9.7035  -16.9243   25.3912 N   0  0  0  0  0  0  0  0  0  0  0  0
    8.3563  -17.3804   25.1999 C   0  0  1  0  0  0  0  0  0  0  0  0
    7.4415  -16.3081   24.6832 C   0  0  0  0  0  0  0  0  0  0  0  0
    7.1737  -15.2008   25.5914 C   0  0  0  0  0  0  0  0  0  0  0  0
    6.6868  -15.2795   26.8764 C   0  0  0  0  0  0  0  0  0  0  0  0
    6.5482  -14.0515   27.4049 N   0  0  0  0  0  0  0  0  0  0  0  0
    6.9422  -13.1786   26.4717 C   0  0  0  0  0  0  0  0  0  0  0  0
    6.9908  -11.8042   26.5406 C   0  0  0  0  0  0  0  0  0  0  0  0
    7.4387  -11.0410   25.4712 C   0  0  0  0  0  0  0  0  0  0  0  0
    7.8315  -11.7232   24.3407 C   0  0  0  0  0  0  0  0  0  0  0  0
    7.7833  -13.0971   24.2700 C   0  0  0  0  0  0  0  0  0  0  0  0
    7.3362  -13.8608   25.3353 C   0  0  0  0  0  0  0  0  0  0  0  0
    8.2594  -18.5536   24.3136 C   0  0  0  0  0  0  0  0  0  0  0  0
    7.3146  -19.3587   24.5084 O   0  0  0  0  0  0  0  0  0  0  0  0
    9.1344  -18.8389   23.2764 O   0  0  0  0  0  0  0  0  0  0  0  0
  2  1  1  1
  2  9  1  0
  3  4  1  0
  3  2  1  0
  4  5  2  0
  5  6  1  0
  7  6  1  0
  8  4  1  0
  8  7  2  0
  9 11  1  0
  9 10  2  0
 11 12  1  0
 12 13  1  0
 13 14  2  0
 15 16  1  0
 15 13  1  0
 16 27  1  0
 16 17  1  6
 18 19  2  0
 18 17  1  0
 20 19  1  0
 21 26  2  0
 21 20  1  0
 22 21  1  0
 23 24  1  0
 23 22  2  0
 24 25  2  0
 25 26  1  0
 26 18  1  0
 27 29  1  0
 28 27  2  0
M  END
$$$$
