HGW.pdb
     RDKit          3D

 29 31  0  0  1  0  0  0  0  0999 V2000
    9.7500  -15.5167   17.0478 N   0  0  0  0  0  0  0  0  0  0  0  0
    8.6483  -15.1082   17.8903 C   0  0  1  0  0  0  0  0  0  0  0  0
    7.3856  -15.1712   17.0541 C   0  0  0  0  0  0  0  0  0  0  0  0
    7.5788  -14.3001   15.8609 C   0  0  0  0  0  0  0  0  0  0  0  0
    7.8117  -12.9491   15.8566 C   0  0  0  0  0  0  0  0  0  0  0  0
    7.9322  -12.5236   14.5766 N   0  0  0  0  0  0  0  0  0  0  0  0
    7.7759  -13.6039   13.7695 C   0  0  0  0  0  0  0  0  0  0  0  0
    7.5625  -14.6744   14.5558 N   0  0  0  0  0  0  0  0  0  0  0  0
    8.5749  -15.9931   19.0649 C   0  0  0  0  0  0  0  0  0  0  0  0
    9.0205  -17.1746   19.0049 O   0  0  0  0  0  0  0  0  0  0  0  0
    8.0120  -15.5944   20.3206 N   0  0  0  0  0  0  0  0  0  0  0  0
    7.9412  -16.5113   21.4295 C   0  0  0  0  0  0  0  0  0  0  0  0
    9.1070  -16.3315   22.3531 C   0  0  0  0  0  0  0  0  0  0  0  0
   10.2190  -16.0941   21.8634 O   0  0  0  0  0  0  0  0  0  0  0  0
    8.9711  -16.4251   23.7635 N   0  0  0  0  0  0  0  0  0  0  0  0
   10.0514  -16.2293   24.6877 C   0  0  1  0  0  0  0  0  0  0  0  0
    9.8417  -15.0515   25.5946 C   0  0  0  0  0  0  0  0  0  0  0  0
    8.4589  -14.7373   25.9287 C   0  0  0  0  0  0  0  0  0  0  0  0
    7.4233  -15.6272   26.1019 C   0  0  0  0  0  0  0  0  0  0  0  0
    6.2824  -14.9752   26.3843 N   0  0  0  0  0  0  0  0  0  0  0  0
    6.5720  -13.6697   26.3956 C   0  0  0  0  0  0  0  0  0  0  0  0
    5.7378  -12.6024   26.6422 C   0  0  0  0  0  0  0  0  0  0  0  0
    6.2076  -11.2964   26.6224 C   0  0  0  0  0  0  0  0  0  0  0  0
    7.5455  -11.1202   26.3452 C   0  0  0  0  0  0  0  0  0  0  0  0
    8.3808  -12.1862   26.0982 C   0  0  0  0  0  0  0  0  0  0  0  0
    7.9143  -13.4899   26.1167 C   0  0  0  0  0  0  0  0  0  0  0  0
   10.3348  -17.4174   25.5119 C   0  0  0  0  0  0  0  0  0  0  0  0
    9.4602  -18.3182   25.5616 O   0  0  0  0  0  0  0  0  0  0  0  0
   11.4975  -17.6191   26.2400 O   0  0  0  0  0  0  0  0  0  0  0  0
  2  1  1  6
  2  9  1  0
  3  4  1  0
  3  2  1  0
  4  5  2  0
  5  6  1  0
  7  6  1  0
  8  4  1  0
  8  7  2  0
  9 11  1  0
  9 10  2  0
 11 12  1  0
 12 13  1  0
 13 14  2  0
 15 16  1  0
 15 13  1  0
 16 27  1  0
 16 17  1  1
 18 19  2  0
 18 17  1  0
 20 19  1  0
 21 26  2  0
 21 20  1  0
 22 21  1  0
 23 24  1  0
 23 22  2  0
 24 25  2  0
 25 26  1  0
 26 18  1  0
 27 29  1  0
 28 27  2  0
M  END
$$$$
