HGW.pdb
     RDKit          3D

 29 31  0  0  1  0  0  0  0  0999 V2000
    9.3773  -15.3643   20.7703 N   0  0  0  0  0  0  0  0  0  0  0  0
    8.0463  -15.4288   21.3312 C   0  0  1  0  0  0  0  0  0  0  0  0
    7.0656  -15.4779   20.1765 C   0  0  0  0  0  0  0  0  0  0  0  0
    7.4924  -14.4698   19.1659 C   0  0  0  0  0  0  0  0  0  0  0  0
    7.4699  -13.1059   19.3028 C   0  0  0  0  0  0  0  0  0  0  0  0
    7.9377  -12.5378   18.1659 N   0  0  0  0  0  0  0  0  0  0  0  0
    8.2566  -13.5407   17.3083 C   0  0  0  0  0  0  0  0  0  0  0  0
    7.9837  -14.7062   17.9223 N   0  0  0  0  0  0  0  0  0  0  0  0
    7.9361  -16.6146   22.1972 C   0  0  0  0  0  0  0  0  0  0  0  0
    7.2104  -17.5916   21.8554 O   0  0  0  0  0  0  0  0  0  0  0  0
    8.6199  -16.7448   23.4495 N   0  0  0  0  0  0  0  0  0  0  0  0
    9.3951  -17.9196   23.7559 C   0  0  0  0  0  0  0  0  0  0  0  0
    9.9779  -17.8368   25.1336 C   0  0  0  0  0  0  0  0  0  0  0  0
   11.0269  -18.4502   25.3703 O   0  0  0  0  0  0  0  0  0  0  0  0
    9.3640  -17.0797   26.1661 N   0  0  0  0  0  0  0  0  0  0  0  0
   10.0901  -16.3797   27.1871 C   0  0  1  0  0  0  0  0  0  0  0  0
    9.3154  -15.2394   27.7813 C   0  0  0  0  0  0  0  0  0  0  0  0
    8.1500  -14.7944   27.0287 C   0  0  0  0  0  0  0  0  0  0  0  0
    7.1068  -15.5704   26.5771 C   0  0  0  0  0  0  0  0  0  0  0  0
    6.2182  -14.8208   25.9026 N   0  0  0  0  0  0  0  0  0  0  0  0
    6.6782  -13.5653   25.9146 C   0  0  0  0  0  0  0  0  0  0  0  0
    6.1181  -12.4351   25.3624 C   0  0  0  0  0  0  0  0  0  0  0  0
    6.7302  -11.1944   25.4753 C   0  0  0  0  0  0  0  0  0  0  0  0
    7.9217  -11.1485   26.1651 C   0  0  0  0  0  0  0  0  0  0  0  0
    8.4832  -12.2774   26.7176 C   0  0  0  0  0  0  0  0  0  0  0  0
    7.8749  -13.5165   26.6057 C   0  0  0  0  0  0  0  0  0  0  0  0
   10.5536  -17.2567   28.2768 C   0  0  0  0  0  0  0  0  0  0  0  0
   10.1031  -18.4290   28.3172 O   0  0  0  0  0  0  0  0  0  0  0  0
   11.4525  -16.8864   29.2655 O   0  0  0  0  0  0  0  0  0  0  0  0
  2  1  1  6
  2  9  1  0
  3  4  1  0
  3  2  1  0
  4  5  2  0
  5  6  1  0
  7  6  1  0
  8  4  1  0
  8  7  2  0
  9 11  1  0
  9 10  2  0
 11 12  1  0
 12 13  1  0
 13 14  2  0
 15 16  1  0
 15 13  1  0
 16 27  1  0
 16 17  1  1
 18 19  2  0
 18 17  1  0
 20 19  1  0
 21 26  2  0
 21 20  1  0
 22 21  1  0
 23 24  1  0
 23 22  2  0
 24 25  2  0
 25 26  1  0
 26 18  1  0
 27 29  1  0
 28 27  2  0
M  END
$$$$
