HGW.pdb
     RDKit          3D

 29 31  0  0  1  0  0  0  0  0999 V2000
    9.4280  -16.3080   17.5761 N   0  0  0  0  0  0  0  0  0  0  0  0
    8.5632  -15.2572   18.0641 C   0  0  1  0  0  0  0  0  0  0  0  0
    7.3975  -15.1410   17.1023 C   0  0  0  0  0  0  0  0  0  0  0  0
    7.9258  -14.6654   15.7929 C   0  0  0  0  0  0  0  0  0  0  0  0
    8.2942  -13.3851   15.4695 C   0  0  0  0  0  0  0  0  0  0  0  0
    8.7235  -13.3577   14.1853 N   0  0  0  0  0  0  0  0  0  0  0  0
    8.6274  -14.6197   13.6944 C   0  0  0  0  0  0  0  0  0  0  0  0
    8.1437  -15.4041   14.6746 N   0  0  0  0  0  0  0  0  0  0  0  0
    8.1191  -15.5823   19.4299 C   0  0  0  0  0  0  0  0  0  0  0  0
    7.4205  -14.7599   20.0885 O   0  0  0  0  0  0  0  0  0  0  0  0
    8.4352  -16.8130   20.0916 N   0  0  0  0  0  0  0  0  0  0  0  0
    7.9845  -17.0733   21.4349 C   0  0  0  0  0  0  0  0  0  0  0  0
    8.7686  -16.2745   22.4309 C   0  0  0  0  0  0  0  0  0  0  0  0
    9.0848  -15.1132   22.1408 O   0  0  0  0  0  0  0  0  0  0  0  0
    9.1549  -16.8098   23.6881 N   0  0  0  0  0  0  0  0  0  0  0  0
    9.9636  -16.1082   24.6437 C   0  0  1  0  0  0  0  0  0  0  0  0
    9.2817  -15.9264   25.9687 C   0  0  0  0  0  0  0  0  0  0  0  0
    7.9995  -15.2352   25.9408 C   0  0  0  0  0  0  0  0  0  0  0  0
    6.7601  -15.7922   25.7216 C   0  0  0  0  0  0  0  0  0  0  0  0
    5.8058  -14.8462   25.7486 N   0  0  0  0  0  0  0  0  0  0  0  0
    6.4182  -13.6810   25.9840 C   0  0  0  0  0  0  0  0  0  0  0  0
    5.8670  -12.4253   26.1075 C   0  0  0  0  0  0  0  0  0  0  0  0
    6.6541  -11.3109   26.3631 C   0  0  0  0  0  0  0  0  0  0  0  0
    8.0098  -11.5215   26.4873 C   0  0  0  0  0  0  0  0  0  0  0  0
    8.5625  -12.7761   26.3639 C   0  0  0  0  0  0  0  0  0  0  0  0
    7.7795  -13.8894   26.1082 C   0  0  0  0  0  0  0  0  0  0  0  0
   11.2766  -16.7380   24.8689 C   0  0  0  0  0  0  0  0  0  0  0  0
   11.4388  -17.9160   24.4629 O   0  0  0  0  0  0  0  0  0  0  0  0
   12.3520  -16.1281   25.4970 O   0  0  0  0  0  0  0  0  0  0  0  0
  2  1  1  6
  2  9  1  0
  3  4  1  0
  3  2  1  0
  4  5  2  0
  5  6  1  0
  7  6  1  0
  8  4  1  0
  8  7  2  0
  9 11  1  0
  9 10  2  0
 11 12  1  0
 12 13  1  0
 13 14  2  0
 15 16  1  0
 15 13  1  0
 16 27  1  0
 16 17  1  1
 18 19  2  0
 18 17  1  0
 20 19  1  0
 21 26  2  0
 21 20  1  0
 22 21  1  0
 23 24  1  0
 23 22  2  0
 24 25  2  0
 25 26  1  0
 26 18  1  0
 27 29  1  0
 28 27  2  0
M  END
$$$$
