HGW.pdb
     RDKit          3D

 29 31  0  0  1  0  0  0  0  0999 V2000
    8.8191  -14.9214   18.6563 N   0  0  0  0  0  0  0  0  0  0  0  0
    7.8003  -15.8980   18.3423 C   0  0  1  0  0  0  0  0  0  0  0  0
    8.0975  -16.4396   16.9581 C   0  0  0  0  0  0  0  0  0  0  0  0
    8.2584  -15.2816   16.0347 C   0  0  0  0  0  0  0  0  0  0  0  0
    7.4928  -14.1450   15.9978 C   0  0  0  0  0  0  0  0  0  0  0  0
    7.9552  -13.3297   15.0204 N   0  0  0  0  0  0  0  0  0  0  0  0
    9.0135  -13.9487   14.4375 C   0  0  0  0  0  0  0  0  0  0  0  0
    9.1894  -15.1293   15.0580 N   0  0  0  0  0  0  0  0  0  0  0  0
    7.8084  -16.9602   19.3621 C   0  0  0  0  0  0  0  0  0  0  0  0
    7.1121  -18.0036   19.2048 O   0  0  0  0  0  0  0  0  0  0  0  0
    8.5795  -16.8925   20.5676 N   0  0  0  0  0  0  0  0  0  0  0  0
    8.4891  -17.9247   21.5683 C   0  0  0  0  0  0  0  0  0  0  0  0
    9.4263  -17.6562   22.7060 C   0  0  0  0  0  0  0  0  0  0  0  0
   10.5004  -18.2707   22.7455 O   0  0  0  0  0  0  0  0  0  0  0  0
    9.1176  -16.7234   23.7312 N   0  0  0  0  0  0  0  0  0  0  0  0
   10.0788  -16.2135   24.6669 C   0  0  1  0  0  0  0  0  0  0  0  0
    9.7393  -14.8393   25.1668 C   0  0  0  0  0  0  0  0  0  0  0  0
    8.3616  -14.6342   25.5939 C   0  0  0  0  0  0  0  0  0  0  0  0
    7.3959  -15.5980   25.7753 C   0  0  0  0  0  0  0  0  0  0  0  0
    6.2350  -15.0376   26.1557 N   0  0  0  0  0  0  0  0  0  0  0  0
    6.4422  -13.7182   26.2223 C   0  0  0  0  0  0  0  0  0  0  0  0
    5.5587  -12.7220   26.5728 C   0  0  0  0  0  0  0  0  0  0  0  0
    5.9437  -11.3886   26.5984 C   0  0  0  0  0  0  0  0  0  0  0  0
    7.2493  -11.1110   26.2575 C   0  0  0  0  0  0  0  0  0  0  0  0
    8.1338  -12.1057   25.9066 C   0  0  0  0  0  0  0  0  0  0  0  0
    7.7519  -13.4366   25.8796 C   0  0  0  0  0  0  0  0  0  0  0  0
   10.2909  -17.1001   25.8247 C   0  0  0  0  0  0  0  0  0  0  0  0
    9.4130  -17.9652   26.0688 O   0  0  0  0  0  0  0  0  0  0  0  0
   11.3896  -17.0531   26.6694 O   0  0  0  0  0  0  0  0  0  0  0  0
  2  1  1  1
  2  9  1  0
  3  4  1  0
  3  2  1  0
  4  5  2  0
  5  6  1  0
  7  6  1  0
  8  4  1  0
  8  7  2  0
  9 11  1  0
  9 10  2  0
 11 12  1  0
 12 13  1  0
 13 14  2  0
 15 16  1  0
 15 13  1  0
 16 27  1  0
 16 17  1  1
 18 19  2  0
 18 17  1  0
 20 19  1  0
 21 26  2  0
 21 20  1  0
 22 21  1  0
 23 24  1  0
 23 22  2  0
 24 25  2  0
 25 26  1  0
 26 18  1  0
 27 29  1  0
 28 27  2  0
M  END
$$$$
