HGW.pdb
     RDKit          3D

 29 31  0  0  1  0  0  0  0  0999 V2000
   10.5363  -19.2067   18.1351 N   0  0  0  0  0  0  0  0  0  0  0  0
   10.6794  -17.8425   18.5920 C   0  0  1  0  0  0  0  0  0  0  0  0
   10.3116  -16.9326   17.4367 C   0  0  0  0  0  0  0  0  0  0  0  0
   11.4468  -16.9308   16.4718 C   0  0  0  0  0  0  0  0  0  0  0  0
   12.7070  -16.4343   16.6837 C   0  0  0  0  0  0  0  0  0  0  0  0
   13.4510  -16.6206   15.5675 N   0  0  0  0  0  0  0  0  0  0  0  0
   12.6632  -17.2348   14.6482 C   0  0  0  0  0  0  0  0  0  0  0  0
   11.4522  -17.4184   15.2045 N   0  0  0  0  0  0  0  0  0  0  0  0
    9.8125  -17.6237   19.7620 C   0  0  0  0  0  0  0  0  0  0  0  0
    8.5546  -17.6315   19.6368 O   0  0  0  0  0  0  0  0  0  0  0  0
   10.3132  -17.3935   21.0844 N   0  0  0  0  0  0  0  0  0  0  0  0
    9.4184  -17.2295   22.2013 C   0  0  0  0  0  0  0  0  0  0  0  0
   10.1741  -16.9129   23.4556 C   0  0  0  0  0  0  0  0  0  0  0  0
   11.4098  -16.8565   23.4039 O   0  0  0  0  0  0  0  0  0  0  0  0
    9.5158  -16.6774   24.6916 N   0  0  0  0  0  0  0  0  0  0  0  0
   10.1953  -16.5388   25.9480 C   0  0  1  0  0  0  0  0  0  0  0  0
    9.5879  -15.4874   26.8308 C   0  0  0  0  0  0  0  0  0  0  0  0
    8.2667  -15.0103   26.4445 C   0  0  0  0  0  0  0  0  0  0  0  0
    7.1434  -15.7713   26.2136 C   0  0  0  0  0  0  0  0  0  0  0  0
    6.1091  -14.9906   25.8567 N   0  0  0  0  0  0  0  0  0  0  0  0
    6.5546  -13.7298   25.8551 C   0  0  0  0  0  0  0  0  0  0  0  0
    5.8688  -12.5720   25.5631 C   0  0  0  0  0  0  0  0  0  0  0  0
    6.4873  -11.3306   25.6182 C   0  0  0  0  0  0  0  0  0  0  0  0
    7.8167  -11.3128   25.9787 C   0  0  0  0  0  0  0  0  0  0  0  0
    8.5039  -12.4693   26.2707 C   0  0  0  0  0  0  0  0  0  0  0  0
    7.8894  -13.7091   26.2157 C   0  0  0  0  0  0  0  0  0  0  0  0
   10.2828  -17.8002   26.7047 C   0  0  0  0  0  0  0  0  0  0  0  0
    9.4743  -18.7164   26.4119 O   0  0  0  0  0  0  0  0  0  0  0  0
   11.1928  -18.0554   27.7194 O   0  0  0  0  0  0  0  0  0  0  0  0
  2  1  1  6
  2  9  1  0
  3  4  1  0
  3  2  1  0
  4  5  2  0
  5  6  1  0
  7  6  1  0
  8  4  1  0
  8  7  2  0
  9 11  1  0
  9 10  2  0
 11 12  1  0
 12 13  1  0
 13 14  2  0
 15 16  1  0
 15 13  1  0
 16 27  1  0
 16 17  1  1
 18 19  2  0
 18 17  1  0
 20 19  1  0
 21 26  2  0
 21 20  1  0
 22 21  1  0
 23 24  1  0
 23 22  2  0
 24 25  2  0
 25 26  1  0
 26 18  1  0
 27 29  1  0
 28 27  2  0
M  END
$$$$
