HGW.pdb
     RDKit          3D

 29 31  0  0  1  0  0  0  0  0999 V2000
    8.4039  -15.9412   21.3098 N   0  0  0  0  0  0  0  0  0  0  0  0
    9.6851  -15.8208   20.6505 C   0  0  1  0  0  0  0  0  0  0  0  0
    9.8251  -14.3860   20.1822 C   0  0  0  0  0  0  0  0  0  0  0  0
    8.7366  -14.1126   19.2022 C   0  0  0  0  0  0  0  0  0  0  0  0
    8.8110  -14.2201   17.8375 C   0  0  0  0  0  0  0  0  0  0  0  0
    7.6135  -13.8867   17.3000 N   0  0  0  0  0  0  0  0  0  0  0  0
    6.7801  -13.5678   18.3231 C   0  0  0  0  0  0  0  0  0  0  0  0
    7.4686  -13.7075   19.4704 N   0  0  0  0  0  0  0  0  0  0  0  0
   10.7561  -16.2008   21.5869 C   0  0  0  0  0  0  0  0  0  0  0  0
   11.9176  -16.4591   21.1600 O   0  0  0  0  0  0  0  0  0  0  0  0
   10.5678  -16.3027   23.0035 N   0  0  0  0  0  0  0  0  0  0  0  0
   11.4410  -15.6178   23.9219 C   0  0  0  0  0  0  0  0  0  0  0  0
   11.0642  -15.9083   25.3426 C   0  0  0  0  0  0  0  0  0  0  0  0
   11.6964  -15.3496   26.2486 O   0  0  0  0  0  0  0  0  0  0  0  0
   10.0100  -16.7999   25.6742 N   0  0  0  0  0  0  0  0  0  0  0  0
    9.7949  -17.3332   26.9891 C   0  0  1  0  0  0  0  0  0  0  0  0
    8.5536  -16.7992   27.6431 C   0  0  0  0  0  0  0  0  0  0  0  0
    7.7125  -15.9415   26.8190 C   0  0  0  0  0  0  0  0  0  0  0  0
    6.8037  -16.3386   25.8645 C   0  0  0  0  0  0  0  0  0  0  0  0
    6.2238  -15.2703   25.2911 N   0  0  0  0  0  0  0  0  0  0  0  0
    6.7501  -14.1846   25.8675 C   0  0  0  0  0  0  0  0  0  0  0  0
    6.4726  -12.8578   25.6249 C   0  0  0  0  0  0  0  0  0  0  0  0
    7.1110  -11.8445   26.3266 C   0  0  0  0  0  0  0  0  0  0  0  0
    8.0329  -12.2293   27.2752 C   0  0  0  0  0  0  0  0  0  0  0  0
    8.3117  -13.5552   27.5188 C   0  0  0  0  0  0  0  0  0  0  0  0
    7.6766  -14.5680   26.8196 C   0  0  0  0  0  0  0  0  0  0  0  0
    9.7508  -18.8057   27.0199 C   0  0  0  0  0  0  0  0  0  0  0  0
    9.8285  -19.3710   28.1394 O   0  0  0  0  0  0  0  0  0  0  0  0
    9.6297  -19.6195   25.9037 O   0  0  0  0  0  0  0  0  0  0  0  0
  2  1  1  1
  2  9  1  0
  3  4  1  0
  3  2  1  0
  4  5  2  0
  5  6  1  0
  7  6  1  0
  8  4  1  0
  8  7  2  0
  9 11  1  0
  9 10  2  0
 11 12  1  0
 12 13  1  0
 13 14  2  0
 15 16  1  0
 15 13  1  0
 16 27  1  0
 16 17  1  6
 18 19  2  0
 18 17  1  0
 20 19  1  0
 21 26  2  0
 21 20  1  0
 22 21  1  0
 23 24  1  0
 23 22  2  0
 24 25  2  0
 25 26  1  0
 26 18  1  0
 27 29  1  0
 28 27  2  0
M  END
$$$$
