HGW.pdb
     RDKit          3D

 29 31  0  0  1  0  0  0  0  0999 V2000
    8.7895  -18.7878   18.7573 N   0  0  0  0  0  0  0  0  0  0  0  0
    8.6039  -17.4139   18.3468 C   0  0  1  0  0  0  0  0  0  0  0  0
    7.8560  -17.4278   17.0285 C   0  0  0  0  0  0  0  0  0  0  0  0
    8.7977  -17.8868   15.9690 C   0  0  0  0  0  0  0  0  0  0  0  0
   10.1180  -17.5428   15.8353 C   0  0  0  0  0  0  0  0  0  0  0  0
   10.6313  -18.1663   14.7483 N   0  0  0  0  0  0  0  0  0  0  0  0
    9.6373  -18.9054   14.1927 C   0  0  0  0  0  0  0  0  0  0  0  0
    8.5314  -18.7299   14.9384 N   0  0  0  0  0  0  0  0  0  0  0  0
    7.8642  -16.6858   19.3913 C   0  0  0  0  0  0  0  0  0  0  0  0
    6.6454  -16.3933   19.2264 O   0  0  0  0  0  0  0  0  0  0  0  0
    8.4508  -16.2686   20.6299 N   0  0  0  0  0  0  0  0  0  0  0  0
    7.6646  -15.6108   21.6419 C   0  0  0  0  0  0  0  0  0  0  0  0
    8.4657  -15.3905   22.8887 C   0  0  0  0  0  0  0  0  0  0  0  0
    8.8618  -14.2455   23.1430 O   0  0  0  0  0  0  0  0  0  0  0  0
    8.7796  -16.4515   23.7787 N   0  0  0  0  0  0  0  0  0  0  0  0
    9.8517  -16.4077   24.7317 C   0  0  1  0  0  0  0  0  0  0  0  0
    9.5305  -15.5742   25.9383 C   0  0  0  0  0  0  0  0  0  0  0  0
    8.1940  -14.9960   25.9814 C   0  0  0  0  0  0  0  0  0  0  0  0
    6.9969  -15.6588   25.8328 C   0  0  0  0  0  0  0  0  0  0  0  0
    5.9676  -14.7981   25.9118 N   0  0  0  0  0  0  0  0  0  0  0  0
    6.4895  -13.5832   26.1108 C   0  0  0  0  0  0  0  0  0  0  0  0
    5.8399  -12.3787   26.2631 C   0  0  0  0  0  0  0  0  0  0  0  0
    6.5410  -11.1992   26.4725 C   0  0  0  0  0  0  0  0  0  0  0  0
    7.9147  -11.2917   26.5208 C   0  0  0  0  0  0  0  0  0  0  0  0
    8.5657  -12.4950   26.3685 C   0  0  0  0  0  0  0  0  0  0  0  0
    7.8685  -13.6730   26.1588 C   0  0  0  0  0  0  0  0  0  0  0  0
   10.2870  -17.7422   25.1798 C   0  0  0  0  0  0  0  0  0  0  0  0
    9.5888  -18.7306   24.8414 O   0  0  0  0  0  0  0  0  0  0  0  0
   11.4129  -17.9927   25.9495 O   0  0  0  0  0  0  0  0  0  0  0  0
  2  1  1  1
  2  9  1  0
  3  4  1  0
  3  2  1  0
  4  5  2  0
  5  6  1  0
  7  6  1  0
  8  4  1  0
  8  7  2  0
  9 11  1  0
  9 10  2  0
 11 12  1  0
 12 13  1  0
 13 14  2  0
 15 16  1  0
 15 13  1  0
 16 27  1  0
 16 17  1  1
 18 19  2  0
 18 17  1  0
 20 19  1  0
 21 26  2  0
 21 20  1  0
 22 21  1  0
 23 24  1  0
 23 22  2  0
 24 25  2  0
 25 26  1  0
 26 18  1  0
 27 29  1  0
 28 27  2  0
M  END
$$$$
