HGW.pdb
     RDKit          3D

 29 31  0  0  1  0  0  0  0  0999 V2000
    9.3002  -14.7598   20.3091 N   0  0  0  0  0  0  0  0  0  0  0  0
    8.0013  -15.3420   20.5625 C   0  0  1  0  0  0  0  0  0  0  0  0
    7.4469  -15.8181   19.2345 C   0  0  0  0  0  0  0  0  0  0  0  0
    7.8415  -14.8318   18.1898 C   0  0  0  0  0  0  0  0  0  0  0  0
    8.5284  -13.6608   18.3804 C   0  0  0  0  0  0  0  0  0  0  0  0
    8.6938  -13.0439   17.1862 N   0  0  0  0  0  0  0  0  0  0  0  0
    8.1123  -13.8230   16.2388 C   0  0  0  0  0  0  0  0  0  0  0  0
    7.5992  -14.9028   16.8557 N   0  0  0  0  0  0  0  0  0  0  0  0
    8.1382  -16.4448   21.5285 C   0  0  0  0  0  0  0  0  0  0  0  0
    7.1211  -17.0913   21.9101 O   0  0  0  0  0  0  0  0  0  0  0  0
    9.3918  -16.8531   22.0892 N   0  0  0  0  0  0  0  0  0  0  0  0
   10.2782  -15.8989   22.7047 C   0  0  0  0  0  0  0  0  0  0  0  0
   10.5915  -16.2873   24.1174 C   0  0  0  0  0  0  0  0  0  0  0  0
   11.1894  -17.3523   24.3196 O   0  0  0  0  0  0  0  0  0  0  0  0
   10.2240  -15.4727   25.2209 N   0  0  0  0  0  0  0  0  0  0  0  0
   10.0906  -15.9568   26.5653 C   0  0  1  0  0  0  0  0  0  0  0  0
    8.6957  -16.4057   26.8917 C   0  0  0  0  0  0  0  0  0  0  0  0
    7.6241  -15.4911   26.5208 C   0  0  0  0  0  0  0  0  0  0  0  0
    6.3955  -15.8205   25.9952 C   0  0  0  0  0  0  0  0  0  0  0  0
    5.6708  -14.7136   25.7586 N   0  0  0  0  0  0  0  0  0  0  0  0
    6.4211  -13.6700   26.1276 C   0  0  0  0  0  0  0  0  0  0  0  0
    6.1150  -12.3282   26.0844 C   0  0  0  0  0  0  0  0  0  0  0  0
    7.0157  -11.3656   26.5191 C   0  0  0  0  0  0  0  0  0  0  0  0
    8.2274  -11.8165   26.9948 C   0  0  0  0  0  0  0  0  0  0  0  0
    8.5351  -13.1576   27.0385 C   0  0  0  0  0  0  0  0  0  0  0  0
    7.6385  -14.1197   26.6048 C   0  0  0  0  0  0  0  0  0  0  0  0
   11.0271  -17.0482   26.8865 C   0  0  0  0  0  0  0  0  0  0  0  0
   11.2386  -17.3009   28.0991 O   0  0  0  0  0  0  0  0  0  0  0  0
   11.6959  -17.8214   25.9497 O   0  0  0  0  0  0  0  0  0  0  0  0
  2  1  1  6
  2  9  1  0
  3  4  1  0
  3  2  1  0
  4  5  2  0
  5  6  1  0
  7  6  1  0
  8  4  1  0
  8  7  2  0
  9 11  1  0
  9 10  2  0
 11 12  1  0
 12 13  1  0
 13 14  2  0
 15 16  1  0
 15 13  1  0
 16 27  1  0
 16 17  1  6
 18 19  2  0
 18 17  1  0
 20 19  1  0
 21 26  2  0
 21 20  1  0
 22 21  1  0
 23 24  1  0
 23 22  2  0
 24 25  2  0
 25 26  1  0
 26 18  1  0
 27 29  1  0
 28 27  2  0
M  END
$$$$
