CYL.pdb
     RDKit          3D

 27 27  0  0  1  0  0  0  0  0999 V2000
    6.5888  -17.7357   18.6891 N   0  0  0  0  0  0  0  0  0  0  0  0
    7.7235  -17.4104   19.5104 C   0  0  1  0  0  0  0  0  0  0  0  0
    8.2379  -15.9992   19.2075 C   0  0  0  0  0  0  0  0  0  0  0  0
    6.8854  -14.8546   19.6211 S   0  0  0  0  0  0  0  0  0  0  0  0
    7.2862  -17.4035   20.9309 C   0  0  0  0  0  0  0  0  0  0  0  0
    6.0782  -17.2480   21.2468 O   0  0  0  0  0  0  0  0  0  0  0  0
    8.1182  -19.7177   29.4411 O   0  0  0  0  0  0  0  0  0  0  0  0
    8.2048  -19.5139   28.0837 C   0  0  0  0  0  0  0  0  0  0  0  0
    7.0669  -19.6710   27.3204 C   0  0  0  0  0  0  0  0  0  0  0  0
    7.1736  -19.4623   25.9605 C   0  0  0  0  0  0  0  0  0  0  0  0
    8.3796  -19.1043   25.3566 C   0  0  0  0  0  0  0  0  0  0  0  0
    8.4242  -18.9319   23.9143 C   0  0  0  0  0  0  0  0  0  0  0  0
    7.8555  -17.6730   23.3890 C   0  0  2  0  0  0  0  0  0  0  0  0
    8.2433  -17.5749   21.9556 N   0  0  0  0  0  0  0  0  0  0  0  0
    8.1997  -16.4201   24.0295 C   0  0  0  0  0  0  0  0  0  0  0  0
    9.3393  -15.9075   23.7512 O   0  0  0  0  0  0  0  0  0  0  0  0
    9.4783  -18.9594   26.1444 C   0  0  0  0  0  0  0  0  0  0  0  0
    9.4128  -19.1599   27.5132 C   0  0  0  0  0  0  0  0  0  0  0  0
    5.7025  -11.4801   26.9128 C   0  0  0  0  0  0  0  0  0  0  0  0
    6.9130  -12.1793   26.3962 C   0  0  2  0  0  0  0  0  0  0  0  0
    7.6202  -11.2663   25.3701 C   0  0  0  0  0  0  0  0  0  0  0  0
    6.7324  -13.5244   25.8051 C   0  0  0  0  0  0  0  0  0  0  0  0
    7.9100  -14.3979   25.5459 C   0  0  2  0  0  0  0  0  0  0  0  0
    7.4130  -15.6689   24.9435 N   0  0  0  0  0  0  0  0  0  0  0  0
    8.8377  -14.6785   26.6254 C   0  0  0  0  0  0  0  0  0  0  0  0
   10.0790  -14.1247   26.8526 O   0  0  0  0  0  0  0  0  0  0  0  0
    8.4965  -15.5591   27.5030 O   0  0  0  0  0  0  0  0  0  0  0  0
  2  1  1  6
  3  2  1  0
  4  3  1  0
  5  2  1  0
  5  6  2  0
  7  8  1  0
  8 18  2  0
  9  8  1  0
  9 10  2  0
 10 11  1  0
 11 17  2  0
 11 12  1  0
 13 12  1  1
 13 14  1  0
 14  5  1  0
 15 13  1  0
 16 15  2  0
 18 17  1  0
 20 19  1  6
 21 20  1  0
 23 22  1  1
 22 20  1  0
 23 24  1  0
 24 15  1  0
 25 26  1  0
 25 23  1  0
 27 25  2  0
M  END
$$$$
