CYL.pdb
     RDKit          3D

 27 27  0  0  1  0  0  0  0  0999 V2000
    6.5022  -18.9386   20.1489 N   0  0  0  0  0  0  0  0  0  0  0  0
    6.3083  -17.8480   21.0659 C   0  0  1  0  0  0  0  0  0  0  0  0
    5.8109  -18.3511   22.4251 C   0  0  0  0  0  0  0  0  0  0  0  0
    3.9943  -18.2592   22.3786 S   0  0  0  0  0  0  0  0  0  0  0  0
    7.6249  -17.2036   21.3114 C   0  0  0  0  0  0  0  0  0  0  0  0
    8.6861  -17.8769   21.3718 O   0  0  0  0  0  0  0  0  0  0  0  0
    8.0436  -14.1504   15.5302 O   0  0  0  0  0  0  0  0  0  0  0  0
    8.2820  -14.0932   16.8835 C   0  0  0  0  0  0  0  0  0  0  0  0
    7.6410  -13.1225   17.6245 C   0  0  0  0  0  0  0  0  0  0  0  0
    7.8928  -13.0809   18.9806 C   0  0  0  0  0  0  0  0  0  0  0  0
    8.7613  -13.9788   19.6025 C   0  0  0  0  0  0  0  0  0  0  0  0
    9.0029  -13.8551   21.0301 C   0  0  0  0  0  0  0  0  0  0  0  0
    8.9702  -15.1104   21.8094 C   0  0  2  0  0  0  0  0  0  0  0  0
    7.6943  -15.8030   21.4818 N   0  0  0  0  0  0  0  0  0  0  0  0
    9.0858  -15.0504   23.2521 C   0  0  0  0  0  0  0  0  0  0  0  0
   10.2430  -14.8071   23.7428 O   0  0  0  0  0  0  0  0  0  0  0  0
    9.3735  -14.9208   18.8365 C   0  0  0  0  0  0  0  0  0  0  0  0
    9.1474  -14.9958   17.4722 C   0  0  0  0  0  0  0  0  0  0  0  0
    5.9382  -12.2657   27.5413 C   0  0  0  0  0  0  0  0  0  0  0  0
    7.1800  -13.0111   27.1904 C   0  0  2  0  0  0  0  0  0  0  0  0
    8.3887  -12.0563   27.3086 C   0  0  0  0  0  0  0  0  0  0  0  0
    7.2271  -13.6926   25.8771 C   0  0  0  0  0  0  0  0  0  0  0  0
    8.2140  -14.7790   25.6268 C   0  0  2  0  0  0  0  0  0  0  0  0
    8.0536  -15.2258   24.2126 N   0  0  0  0  0  0  0  0  0  0  0  0
    8.2520  -15.9234   26.5177 C   0  0  0  0  0  0  0  0  0  0  0  0
    9.0975  -16.1518   27.5817 O   0  0  0  0  0  0  0  0  0  0  0  0
    7.4056  -16.8748   26.3170 O   0  0  0  0  0  0  0  0  0  0  0  0
  2  1  1  6
  3  2  1  0
  4  3  1  0
  5  2  1  0
  5  6  2  0
  7  8  1  0
  8 18  2  0
  9  8  1  0
  9 10  2  0
 10 11  1  0
 11 17  2  0
 11 12  1  0
 13 12  1  1
 13 14  1  0
 14  5  1  0
 15 13  1  0
 16 15  2  0
 18 17  1  0
 20 19  1  6
 21 20  1  0
 23 22  1  1
 22 20  1  0
 23 24  1  0
 24 15  1  0
 25 26  1  0
 25 23  1  0
 27 25  2  0
M  END
$$$$
