CYL.pdb
     RDKit          3D

 27 27  0  0  1  0  0  0  0  0999 V2000
    4.2868  -18.4924   20.5633 N   0  0  0  0  0  0  0  0  0  0  0  0
    5.5170  -17.8231   20.8897 C   0  0  1  0  0  0  0  0  0  0  0  0
    5.4998  -16.3693   20.4059 C   0  0  0  0  0  0  0  0  0  0  0  0
    7.0661  -15.6223   20.9533 S   0  0  0  0  0  0  0  0  0  0  0  0
    5.6439  -17.7731   22.3697 C   0  0  0  0  0  0  0  0  0  0  0  0
    4.6941  -17.3868   23.0990 O   0  0  0  0  0  0  0  0  0  0  0  0
    9.2001  -19.3702   30.3038 O   0  0  0  0  0  0  0  0  0  0  0  0
    8.8109  -19.3572   28.9847 C   0  0  0  0  0  0  0  0  0  0  0  0
    9.7869  -19.3642   28.0103 C   0  0  0  0  0  0  0  0  0  0  0  0
    9.3771  -19.3510   26.6927 C   0  0  0  0  0  0  0  0  0  0  0  0
    8.0284  -19.3311   26.3347 C   0  0  0  0  0  0  0  0  0  0  0  0
    7.6713  -19.2858   24.9268 C   0  0  0  0  0  0  0  0  0  0  0  0
    7.0893  -18.0171   24.4411 C   0  0  2  0  0  0  0  0  0  0  0  0
    6.8561  -18.1670   22.9789 N   0  0  0  0  0  0  0  0  0  0  0  0
    7.8138  -16.7805   24.6513 C   0  0  0  0  0  0  0  0  0  0  0  0
    8.8495  -16.5719   23.9283 O   0  0  0  0  0  0  0  0  0  0  0  0
    7.0973  -19.3248   27.3256 C   0  0  0  0  0  0  0  0  0  0  0  0
    7.4677  -19.3377   28.6601 C   0  0  0  0  0  0  0  0  0  0  0  0
    6.8174  -12.1100   24.3805 C   0  0  0  0  0  0  0  0  0  0  0  0
    6.4915  -12.8499   25.6323 C   0  0  2  0  0  0  0  0  0  0  0  0
    5.7144  -11.9114   26.5820 C   0  0  0  0  0  0  0  0  0  0  0  0
    7.6095  -13.4741   26.3752 C   0  0  0  0  0  0  0  0  0  0  0  0
    8.4086  -14.5671   25.7559 C   0  0  2  0  0  0  0  0  0  0  0  0
    7.5106  -15.7444   25.5751 N   0  0  0  0  0  0  0  0  0  0  0  0
    9.6566  -14.9730   26.3744 C   0  0  0  0  0  0  0  0  0  0  0  0
   10.9145  -14.4401   26.1932 O   0  0  0  0  0  0  0  0  0  0  0  0
    9.6285  -15.9610   27.2020 O   0  0  0  0  0  0  0  0  0  0  0  0
  2  1  1  1
  3  2  1  0
  4  3  1  0
  5  2  1  0
  5  6  2  0
  7  8  1  0
  8 18  2  0
  9  8  1  0
  9 10  2  0
 10 11  1  0
 11 17  2  0
 11 12  1  0
 13 12  1  6
 13 14  1  0
 14  5  1  0
 15 13  1  0
 16 15  2  0
 18 17  1  0
 20 19  1  6
 21 20  1  0
 23 22  1  1
 22 20  1  0
 23 24  1  0
 24 15  1  0
 25 26  1  0
 25 23  1  0
 27 25  2  0
M  END
$$$$
