CYL.pdb
     RDKit          3D

 27 27  0  0  1  0  0  0  0  0999 V2000
    6.9580  -17.9949   18.5835 N   0  0  0  0  0  0  0  0  0  0  0  0
    7.8546  -17.2318   19.4090 C   0  0  1  0  0  0  0  0  0  0  0  0
    7.7919  -15.7409   19.0610 C   0  0  0  0  0  0  0  0  0  0  0  0
    8.7146  -15.5322   17.5067 S   0  0  0  0  0  0  0  0  0  0  0  0
    7.4081  -17.3538   20.8214 C   0  0  0  0  0  0  0  0  0  0  0  0
    6.1878  -17.3526   21.1283 O   0  0  0  0  0  0  0  0  0  0  0  0
    8.0981  -19.8653   29.2598 O   0  0  0  0  0  0  0  0  0  0  0  0
    8.2290  -19.6083   27.9151 C   0  0  0  0  0  0  0  0  0  0  0  0
    7.1213  -19.7531   27.1062 C   0  0  0  0  0  0  0  0  0  0  0  0
    7.2723  -19.4907   25.7599 C   0  0  0  0  0  0  0  0  0  0  0  0
    8.4927  -19.0917   25.2134 C   0  0  0  0  0  0  0  0  0  0  0  0
    8.5850  -18.8634   23.7812 C   0  0  0  0  0  0  0  0  0  0  0  0
    7.9841  -17.6099   23.2794 C   0  0  2  0  0  0  0  0  0  0  0  0
    8.3703  -17.4742   21.8486 N   0  0  0  0  0  0  0  0  0  0  0  0
    8.2951  -16.3610   23.9442 C   0  0  0  0  0  0  0  0  0  0  0  0
    9.4437  -15.8420   23.7201 O   0  0  0  0  0  0  0  0  0  0  0  0
    9.5606  -18.9607   26.0448 C   0  0  0  0  0  0  0  0  0  0  0  0
    9.4504  -19.2146   27.4018 C   0  0  0  0  0  0  0  0  0  0  0  0
    5.5824  -11.5206   26.7707 C   0  0  0  0  0  0  0  0  0  0  0  0
    6.8150  -12.1160   26.1816 C   0  0  2  0  0  0  0  0  0  0  0  0
    7.4090  -11.1262   25.1549 C   0  0  0  0  0  0  0  0  0  0  0  0
    6.7041  -13.4537   25.5575 C   0  0  0  0  0  0  0  0  0  0  0  0
    7.9066  -14.3195   25.4119 C   0  0  2  0  0  0  0  0  0  0  0  0
    7.4662  -15.6199   24.8288 N   0  0  0  0  0  0  0  0  0  0  0  0
    8.7633  -14.5444   26.5609 C   0  0  0  0  0  0  0  0  0  0  0  0
    9.9388  -13.9048   26.8902 O   0  0  0  0  0  0  0  0  0  0  0  0
    8.4186  -15.4574   27.4032 O   0  0  0  0  0  0  0  0  0  0  0  0
  2  1  1  6
  3  2  1  0
  4  3  1  0
  5  2  1  0
  5  6  2  0
  7  8  1  0
  8 18  2  0
  9  8  1  0
  9 10  2  0
 10 11  1  0
 11 17  2  0
 11 12  1  0
 13 12  1  1
 13 14  1  0
 14  5  1  0
 15 13  1  0
 16 15  2  0
 18 17  1  0
 20 19  1  6
 21 20  1  0
 23 22  1  1
 22 20  1  0
 23 24  1  0
 24 15  1  0
 25 26  1  0
 25 23  1  0
 27 25  2  0
M  END
$$$$
