CYL.pdb
     RDKit          3D

 27 27  0  0  1  0  0  0  0  0999 V2000
    6.5532  -21.0295   24.2492 N   0  0  0  0  0  0  0  0  0  0  0  0
    6.4723  -19.7740   24.9455 C   0  0  1  0  0  0  0  0  0  0  0  0
    7.1353  -19.8633   26.3241 C   0  0  0  0  0  0  0  0  0  0  0  0
    5.8252  -20.3221   27.5004 S   0  0  0  0  0  0  0  0  0  0  0  0
    7.2393  -18.7611   24.1742 C   0  0  0  0  0  0  0  0  0  0  0  0
    8.2577  -19.0757   23.5056 O   0  0  0  0  0  0  0  0  0  0  0  0
    8.7252  -12.4049   18.6798 O   0  0  0  0  0  0  0  0  0  0  0  0
    8.2182  -13.1380   19.7272 C   0  0  0  0  0  0  0  0  0  0  0  0
    8.1823  -12.5601   20.9789 C   0  0  0  0  0  0  0  0  0  0  0  0
    7.6702  -13.3111   22.0171 C   0  0  0  0  0  0  0  0  0  0  0  0
    7.1994  -14.6116   21.8310 C   0  0  0  0  0  0  0  0  0  0  0  0
    6.7031  -15.3545   22.9772 C   0  0  0  0  0  0  0  0  0  0  0  0
    7.6387  -16.3266   23.5804 C   0  0  2  0  0  0  0  0  0  0  0  0
    6.8210  -17.4119   24.1872 N   0  0  0  0  0  0  0  0  0  0  0  0
    8.5848  -15.8716   24.5787 C   0  0  0  0  0  0  0  0  0  0  0  0
    8.9963  -14.6623   24.4953 O   0  0  0  0  0  0  0  0  0  0  0  0
    7.2524  -15.1449   20.5814 C   0  0  0  0  0  0  0  0  0  0  0  0
    7.7591  -14.4239   19.5130 C   0  0  0  0  0  0  0  0  0  0  0  0
    9.8371  -12.7736   27.6172 C   0  0  0  0  0  0  0  0  0  0  0  0
    8.6948  -13.5897   27.1173 C   0  0  2  0  0  0  0  0  0  0  0  0
    7.3736  -12.9583   27.6096 C   0  0  0  0  0  0  0  0  0  0  0  0
    8.6892  -15.0355   27.4353 C   0  0  0  0  0  0  0  0  0  0  0  0
    9.7204  -15.9388   26.8543 C   0  0  2  0  0  0  0  0  0  0  0  0
    9.1213  -16.6125   25.6659 N   0  0  0  0  0  0  0  0  0  0  0  0
   10.3769  -16.9101   27.7090 C   0  0  0  0  0  0  0  0  0  0  0  0
   10.3397  -18.2853   27.6273 O   0  0  0  0  0  0  0  0  0  0  0  0
   11.0915  -16.4699   28.6875 O   0  0  0  0  0  0  0  0  0  0  0  0
  2  1  1  6
  3  2  1  0
  4  3  1  0
  5  2  1  0
  5  6  2  0
  7  8  1  0
  8 18  2  0
  9  8  1  0
  9 10  2  0
 10 11  1  0
 11 17  2  0
 11 12  1  0
 13 12  1  1
 13 14  1  0
 14  5  1  0
 15 13  1  0
 16 15  2  0
 18 17  1  0
 20 19  1  1
 21 20  1  0
 23 22  1  1
 22 20  1  0
 23 24  1  0
 24 15  1  0
 25 26  1  0
 25 23  1  0
 27 25  2  0
M  END
$$$$
