CYL.pdb
     RDKit          3D

 27 27  0  0  1  0  0  0  0  0999 V2000
    7.6556  -15.5933   17.7903 N   0  0  0  0  0  0  0  0  0  0  0  0
    8.2480  -14.7680   18.8080 C   0  0  1  0  0  0  0  0  0  0  0  0
    7.4105  -13.5088   19.0547 C   0  0  0  0  0  0  0  0  0  0  0  0
    8.2659  -12.5635   20.3529 S   0  0  0  0  0  0  0  0  0  0  0  0
    8.2506  -15.5290   20.0846 C   0  0  0  0  0  0  0  0  0  0  0  0
    7.3377  -16.3486   20.3640 O   0  0  0  0  0  0  0  0  0  0  0  0
   11.5631  -20.8811   25.9701 O   0  0  0  0  0  0  0  0  0  0  0  0
   11.2850  -19.9970   24.9539 C   0  0  0  0  0  0  0  0  0  0  0  0
   12.0274  -18.8379   24.8682 C   0  0  0  0  0  0  0  0  0  0  0  0
   11.7337  -17.9633   23.8420 C   0  0  0  0  0  0  0  0  0  0  0  0
   10.7257  -18.2212   22.9120 C   0  0  0  0  0  0  0  0  0  0  0  0
   10.4510  -17.2392   21.8766 C   0  0  0  0  0  0  0  0  0  0  0  0
    9.4611  -16.1947   22.2132 C   0  0  2  0  0  0  0  0  0  0  0  0
    9.2991  -15.3329   21.0108 N   0  0  0  0  0  0  0  0  0  0  0  0
    9.7037  -15.3306   23.3502 C   0  0  0  0  0  0  0  0  0  0  0  0
   10.2456  -14.1931   23.1232 O   0  0  0  0  0  0  0  0  0  0  0  0
   10.0169  -19.3754   23.0315 C   0  0  0  0  0  0  0  0  0  0  0  0
   10.2807  -20.2791   24.0473 C   0  0  0  0  0  0  0  0  0  0  0  0
    7.8976  -11.8929   26.6474 C   0  0  0  0  0  0  0  0  0  0  0  0
    7.1060  -12.7043   25.6800 C   0  0  2  0  0  0  0  0  0  0  0  0
    5.8486  -13.2494   26.3931 C   0  0  0  0  0  0  0  0  0  0  0  0
    7.7937  -13.8190   24.9901 C   0  0  0  0  0  0  0  0  0  0  0  0
    8.9446  -14.5091   25.6353 C   0  0  2  0  0  0  0  0  0  0  0  0
    9.4048  -15.5890   24.7149 N   0  0  0  0  0  0  0  0  0  0  0  0
    8.7998  -15.0218   26.9846 C   0  0  0  0  0  0  0  0  0  0  0  0
    8.3138  -16.2471   27.3869 O   0  0  0  0  0  0  0  0  0  0  0  0
    9.1543  -14.2604   27.9626 O   0  0  0  0  0  0  0  0  0  0  0  0
  2  1  1  6
  3  2  1  0
  4  3  1  0
  5  2  1  0
  5  6  2  0
  7  8  1  0
  8 18  2  0
  9  8  1  0
  9 10  2  0
 10 11  1  0
 11 17  2  0
 11 12  1  0
 13 12  1  6
 13 14  1  0
 14  5  1  0
 15 13  1  0
 16 15  2  0
 18 17  1  0
 20 19  1  1
 21 20  1  0
 23 22  1  6
 22 20  1  0
 23 24  1  0
 24 15  1  0
 25 26  1  0
 25 23  1  0
 27 25  2  0
M  END
$$$$
