CYL.pdb
     RDKit          3D

 27 27  0  0  1  0  0  0  0  0999 V2000
    7.5627  -15.1361   18.4225 N   0  0  0  0  0  0  0  0  0  0  0  0
    8.4018  -14.5664   19.4419 C   0  0  1  0  0  0  0  0  0  0  0  0
    7.9207  -13.1654   19.8339 C   0  0  0  0  0  0  0  0  0  0  0  0
    8.3189  -12.0707   18.4361 S   0  0  0  0  0  0  0  0  0  0  0  0
    8.2908  -15.4068   20.6628 C   0  0  0  0  0  0  0  0  0  0  0  0
    7.2313  -16.0255   20.9417 O   0  0  0  0  0  0  0  0  0  0  0  0
   11.4262  -21.1346   26.5249 O   0  0  0  0  0  0  0  0  0  0  0  0
   11.1821  -20.2428   25.5067 C   0  0  0  0  0  0  0  0  0  0  0  0
   12.1028  -19.2431   25.2723 C   0  0  0  0  0  0  0  0  0  0  0  0
   11.8405  -18.3580   24.2466 C   0  0  0  0  0  0  0  0  0  0  0  0
   10.6910  -18.4514   23.4609 C   0  0  0  0  0  0  0  0  0  0  0  0
   10.4652  -17.4646   22.4183 C   0  0  0  0  0  0  0  0  0  0  0  0
    9.4052  -16.4685   22.6801 C   0  0  2  0  0  0  0  0  0  0  0  0
    9.3965  -15.5182   21.5349 N   0  0  0  0  0  0  0  0  0  0  0  0
    9.4509  -15.6918   23.9021 C   0  0  0  0  0  0  0  0  0  0  0  0
   10.4381  -14.8917   24.0572 O   0  0  0  0  0  0  0  0  0  0  0  0
    9.8082  -19.4514   23.7245 C   0  0  0  0  0  0  0  0  0  0  0  0
   10.0349  -20.3599   24.7450 C   0  0  0  0  0  0  0  0  0  0  0  0
    8.1569  -11.8451   25.9628 C   0  0  0  0  0  0  0  0  0  0  0  0
    7.2063  -12.9905   25.8907 C   0  0  2  0  0  0  0  0  0  0  0  0
    5.8107  -12.5140   26.3508 C   0  0  0  0  0  0  0  0  0  0  0  0
    7.5614  -14.2281   26.6212 C   0  0  0  0  0  0  0  0  0  0  0  0
    8.7850  -14.9939   26.2562 C   0  0  2  0  0  0  0  0  0  0  0  0
    8.5153  -15.7019   24.9713 N   0  0  0  0  0  0  0  0  0  0  0  0
    9.3677  -15.9049   27.2233 C   0  0  0  0  0  0  0  0  0  0  0  0
    9.4526  -17.2790   27.1613 O   0  0  0  0  0  0  0  0  0  0  0  0
    9.8766  -15.4038   28.2965 O   0  0  0  0  0  0  0  0  0  0  0  0
  2  1  1  6
  3  2  1  0
  4  3  1  0
  5  2  1  0
  5  6  2  0
  7  8  1  0
  8 18  2  0
  9  8  1  0
  9 10  2  0
 10 11  1  0
 11 17  2  0
 11 12  1  0
 13 12  1  6
 13 14  1  0
 14  5  1  0
 15 13  1  0
 16 15  2  0
 18 17  1  0
 20 19  1  1
 21 20  1  0
 23 22  1  1
 22 20  1  0
 23 24  1  0
 24 15  1  0
 25 26  1  0
 25 23  1  0
 27 25  2  0
M  END
$$$$
