CYL.pdb
     RDKit          3D

 27 27  0  0  1  0  0  0  0  0999 V2000
   11.5546  -17.3029   19.5512 N   0  0  0  0  0  0  0  0  0  0  0  0
   10.7425  -17.8305   20.6141 C   0  0  1  0  0  0  0  0  0  0  0  0
   11.4576  -18.9753   21.3394 C   0  0  0  0  0  0  0  0  0  0  0  0
   11.0296  -20.5019   20.4467 S   0  0  0  0  0  0  0  0  0  0  0  0
   10.5358  -16.7575   21.6216 C   0  0  0  0  0  0  0  0  0  0  0  0
   11.4205  -15.8935   21.8538 O   0  0  0  0  0  0  0  0  0  0  0  0
    5.8077  -11.2948   26.6999 O   0  0  0  0  0  0  0  0  0  0  0  0
    6.2447  -12.3141   25.8865 C   0  0  0  0  0  0  0  0  0  0  0  0
    5.9972  -13.6153   26.2709 C   0  0  0  0  0  0  0  0  0  0  0  0
    6.4433  -14.6242   25.4420 C   0  0  0  0  0  0  0  0  0  0  0  0
    7.1230  -14.3615   24.2518 C   0  0  0  0  0  0  0  0  0  0  0  0
    7.5914  -15.4754   23.4445 C   0  0  0  0  0  0  0  0  0  0  0  0
    9.0565  -15.6513   23.3615 C   0  0  2  0  0  0  0  0  0  0  0  0
    9.3203  -16.7002   22.3392 N   0  0  0  0  0  0  0  0  0  0  0  0
    9.7957  -16.0002   24.5574 C   0  0  0  0  0  0  0  0  0  0  0  0
   11.0728  -16.0319   24.4747 O   0  0  0  0  0  0  0  0  0  0  0  0
    7.3469  -13.0650   23.9088 C   0  0  0  0  0  0  0  0  0  0  0  0
    6.9153  -12.0237   24.7135 C   0  0  0  0  0  0  0  0  0  0  0  0
   11.6179  -13.9060   27.8836 C   0  0  0  0  0  0  0  0  0  0  0  0
   10.2006  -14.3647   27.9246 C   0  0  2  0  0  0  0  0  0  0  0  0
    9.4530  -13.5861   29.0298 C   0  0  0  0  0  0  0  0  0  0  0  0
    9.9495  -15.8132   28.0974 C   0  0  0  0  0  0  0  0  0  0  0  0
   10.1515  -16.7540   26.9611 C   0  0  2  0  0  0  0  0  0  0  0  0
    9.2714  -16.3132   25.8403 N   0  0  0  0  0  0  0  0  0  0  0  0
   10.0089  -18.1801   27.1856 C   0  0  0  0  0  0  0  0  0  0  0  0
    9.0905  -19.0459   26.6322 O   0  0  0  0  0  0  0  0  0  0  0  0
   10.8237  -18.7477   28.0077 O   0  0  0  0  0  0  0  0  0  0  0  0
  2  1  1  6
  3  2  1  0
  4  3  1  0
  5  2  1  0
  5  6  2  0
  7  8  1  0
  8 18  2  0
  9  8  1  0
  9 10  2  0
 10 11  1  0
 11 17  2  0
 11 12  1  0
 13 12  1  1
 13 14  1  0
 14  5  1  0
 15 13  1  0
 16 15  2  0
 18 17  1  0
 20 19  1  1
 21 20  1  0
 23 22  1  1
 22 20  1  0
 23 24  1  0
 24 15  1  0
 25 26  1  0
 25 23  1  0
 27 25  2  0
M  END
$$$$
