CYL.pdb
     RDKit          3D

 27 27  0  0  1  0  0  0  0  0999 V2000
    7.3183  -19.4415   20.8694 N   0  0  0  0  0  0  0  0  0  0  0  0
    6.8891  -18.4239   21.7902 C   0  0  1  0  0  0  0  0  0  0  0  0
    6.4930  -19.0317   23.1398 C   0  0  0  0  0  0  0  0  0  0  0  0
    5.6561  -17.7149   24.0758 S   0  0  0  0  0  0  0  0  0  0  0  0
    8.0379  -17.5193   22.0565 C   0  0  0  0  0  0  0  0  0  0  0  0
    9.2092  -17.9620   22.1800 O   0  0  0  0  0  0  0  0  0  0  0  0
    8.1284  -13.9826   16.3039 O   0  0  0  0  0  0  0  0  0  0  0  0
    8.2326  -13.9419   17.6747 C   0  0  0  0  0  0  0  0  0  0  0  0
    9.1035  -14.8130   18.2949 C   0  0  0  0  0  0  0  0  0  0  0  0
    9.1943  -14.7573   19.6707 C   0  0  0  0  0  0  0  0  0  0  0  0
    8.4415  -13.8595   20.4288 C   0  0  0  0  0  0  0  0  0  0  0  0
    8.5655  -13.8792   21.8765 C   0  0  0  0  0  0  0  0  0  0  0  0
    8.9202  -15.1788   22.4842 C   0  0  2  0  0  0  0  0  0  0  0  0
    7.8173  -16.1290   22.1749 N   0  0  0  0  0  0  0  0  0  0  0  0
    9.1794  -15.2466   23.9078 C   0  0  0  0  0  0  0  0  0  0  0  0
   10.4023  -15.2776   24.2851 O   0  0  0  0  0  0  0  0  0  0  0  0
    7.5944  -13.0174   19.7790 C   0  0  0  0  0  0  0  0  0  0  0  0
    7.4743  -13.0420   18.3995 C   0  0  0  0  0  0  0  0  0  0  0  0
    7.4722  -11.8437   26.6376 C   0  0  0  0  0  0  0  0  0  0  0  0
    6.8642  -13.1869   26.4211 C   0  0  2  0  0  0  0  0  0  0  0  0
    5.3784  -13.1387   26.8414 C   0  0  0  0  0  0  0  0  0  0  0  0
    7.5134  -14.3498   27.0672 C   0  0  0  0  0  0  0  0  0  0  0  0
    8.6243  -15.0683   26.3842 C   0  0  2  0  0  0  0  0  0  0  0  0
    8.2272  -15.2784   24.9618 N   0  0  0  0  0  0  0  0  0  0  0  0
    9.1299  -16.3021   26.9559 C   0  0  0  0  0  0  0  0  0  0  0  0
    9.7924  -16.4833   28.1506 O   0  0  0  0  0  0  0  0  0  0  0  0
    8.9636  -17.3916   26.2871 O   0  0  0  0  0  0  0  0  0  0  0  0
  2  1  1  6
  3  2  1  0
  4  3  1  0
  5  2  1  0
  5  6  2  0
  7  8  1  0
  8 18  2  0
  9  8  1  0
  9 10  2  0
 10 11  1  0
 11 17  2  0
 11 12  1  0
 13 12  1  1
 13 14  1  0
 14  5  1  0
 15 13  1  0
 16 15  2  0
 18 17  1  0
 20 19  1  1
 21 20  1  0
 23 22  1  1
 22 20  1  0
 23 24  1  0
 24 15  1  0
 25 26  1  0
 25 23  1  0
 27 25  2  0
M  END
$$$$
