CYL.pdb
     RDKit          3D

 27 27  0  0  1  0  0  0  0  0999 V2000
    6.4041  -18.7888   20.3947 N   0  0  0  0  0  0  0  0  0  0  0  0
    6.3029  -17.8799   21.5044 C   0  0  1  0  0  0  0  0  0  0  0  0
    5.9149  -18.6183   22.7896 C   0  0  0  0  0  0  0  0  0  0  0  0
    5.5571  -17.3400   24.0341 S   0  0  0  0  0  0  0  0  0  0  0  0
    7.6442  -17.2875   21.7475 C   0  0  0  0  0  0  0  0  0  0  0  0
    8.6806  -17.9998   21.7882 O   0  0  0  0  0  0  0  0  0  0  0  0
    7.8614  -13.9193   15.9668 O   0  0  0  0  0  0  0  0  0  0  0  0
    8.1569  -13.9349   17.3099 C   0  0  0  0  0  0  0  0  0  0  0  0
    7.2495  -13.3835   18.1901 C   0  0  0  0  0  0  0  0  0  0  0  0
    7.5635  -13.4084   19.5336 C   0  0  0  0  0  0  0  0  0  0  0  0
    8.7513  -13.9663   20.0083 C   0  0  0  0  0  0  0  0  0  0  0  0
    9.0298  -13.9285   21.4341 C   0  0  0  0  0  0  0  0  0  0  0  0
    9.0878  -15.2347   22.1232 C   0  0  2  0  0  0  0  0  0  0  0  0
    7.7660  -15.8931   21.9383 N   0  0  0  0  0  0  0  0  0  0  0  0
    9.4115  -15.2759   23.5345 C   0  0  0  0  0  0  0  0  0  0  0  0
   10.6154  -15.0019   23.8731 O   0  0  0  0  0  0  0  0  0  0  0  0
    9.6194  -14.4997   19.1078 C   0  0  0  0  0  0  0  0  0  0  0  0
    9.3411  -14.4943   17.7511 C   0  0  0  0  0  0  0  0  0  0  0  0
    8.3854  -12.6745   27.9019 C   0  0  0  0  0  0  0  0  0  0  0  0
    7.4579  -12.6100   26.7372 C   0  0  2  0  0  0  0  0  0  0  0  0
    6.0029  -12.5806   27.2555 C   0  0  0  0  0  0  0  0  0  0  0  0
    7.5816  -13.6575   25.6986 C   0  0  0  0  0  0  0  0  0  0  0  0
    8.5408  -14.7828   25.8736 C   0  0  2  0  0  0  0  0  0  0  0  0
    8.5415  -15.5833   24.6149 N   0  0  0  0  0  0  0  0  0  0  0  0
    8.4116  -15.6535   27.0269 C   0  0  0  0  0  0  0  0  0  0  0  0
    9.0698  -15.5764   28.2352 O   0  0  0  0  0  0  0  0  0  0  0  0
    7.5896  -16.6435   26.9486 O   0  0  0  0  0  0  0  0  0  0  0  0
  2  1  1  6
  3  2  1  0
  4  3  1  0
  5  2  1  0
  5  6  2  0
  7  8  1  0
  8 18  2  0
  9  8  1  0
  9 10  2  0
 10 11  1  0
 11 17  2  0
 11 12  1  0
 13 12  1  1
 13 14  1  0
 14  5  1  0
 15 13  1  0
 16 15  2  0
 18 17  1  0
 20 19  1  1
 21 20  1  0
 23 22  1  6
 22 20  1  0
 23 24  1  0
 24 15  1  0
 25 26  1  0
 25 23  1  0
 27 25  2  0
M  END
$$$$
