CYL.pdb
     RDKit          3D

 27 27  0  0  1  0  0  0  0  0999 V2000
    7.4455  -16.0417   18.4601 N   0  0  0  0  0  0  0  0  0  0  0  0
    8.4187  -15.3429   19.2554 C   0  0  1  0  0  0  0  0  0  0  0  0
    8.1400  -13.8363   19.2712 C   0  0  0  0  0  0  0  0  0  0  0  0
    8.6020  -13.2065   17.6278 S   0  0  0  0  0  0  0  0  0  0  0  0
    8.2954  -15.8088   20.6614 C   0  0  0  0  0  0  0  0  0  0  0  0
    7.1725  -15.9565   21.2096 O   0  0  0  0  0  0  0  0  0  0  0  0
   11.4279  -19.2046   28.2571 O   0  0  0  0  0  0  0  0  0  0  0  0
   11.1969  -18.8044   26.9617 C   0  0  0  0  0  0  0  0  0  0  0  0
   12.1112  -17.9663   26.3585 C   0  0  0  0  0  0  0  0  0  0  0  0
   11.8623  -17.5756   25.0587 C   0  0  0  0  0  0  0  0  0  0  0  0
   10.7321  -18.0007   24.3591 C   0  0  0  0  0  0  0  0  0  0  0  0
   10.5189  -17.5230   23.0032 C   0  0  0  0  0  0  0  0  0  0  0  0
    9.4014  -16.5748   22.8130 C   0  0  2  0  0  0  0  0  0  0  0  0
    9.4616  -16.0945   21.4056 N   0  0  0  0  0  0  0  0  0  0  0  0
    9.3038  -15.4146   23.6749 C   0  0  0  0  0  0  0  0  0  0  0  0
   10.1079  -14.4436   23.4524 O   0  0  0  0  0  0  0  0  0  0  0  0
    9.8550  -18.8265   24.9896 C   0  0  0  0  0  0  0  0  0  0  0  0
   10.0688  -19.2415   26.2935 C   0  0  0  0  0  0  0  0  0  0  0  0
    7.4564  -12.0594   27.7430 C   0  0  0  0  0  0  0  0  0  0  0  0
    6.8656  -12.1228   26.3764 C   0  0  2  0  0  0  0  0  0  0  0  0
    5.3390  -11.9097   26.4792 C   0  0  0  0  0  0  0  0  0  0  0  0
    7.1329  -13.3319   25.5652 C   0  0  0  0  0  0  0  0  0  0  0  0
    8.4682  -13.9892   25.6095 C   0  0  2  0  0  0  0  0  0  0  0  0
    8.4051  -15.2112   24.7565 N   0  0  0  0  0  0  0  0  0  0  0  0
    9.0649  -14.2996   26.8949 C   0  0  0  0  0  0  0  0  0  0  0  0
    8.7732  -15.3455   27.7435 O   0  0  0  0  0  0  0  0  0  0  0  0
    9.9867  -13.5156   27.3392 O   0  0  0  0  0  0  0  0  0  0  0  0
  2  1  1  6
  3  2  1  0
  4  3  1  0
  5  2  1  0
  5  6  2  0
  7  8  1  0
  8 18  2  0
  9  8  1  0
  9 10  2  0
 10 11  1  0
 11 17  2  0
 11 12  1  0
 13 12  1  1
 13 14  1  0
 14  5  1  0
 15 13  1  0
 16 15  2  0
 18 17  1  0
 20 19  1  1
 21 20  1  0
 23 22  1  1
 22 20  1  0
 23 24  1  0
 24 15  1  0
 25 26  1  0
 25 23  1  0
 27 25  2  0
M  END
$$$$
