CYL.pdb
     RDKit          3D

 27 27  0  0  1  0  0  0  0  0999 V2000
    7.2486  -21.0346   24.4327 N   0  0  0  0  0  0  0  0  0  0  0  0
    6.4732  -19.8461   24.1999 C   0  0  1  0  0  0  0  0  0  0  0  0
    6.0446  -19.1987   25.5208 C   0  0  0  0  0  0  0  0  0  0  0  0
    7.5380  -19.0931   26.5549 S   0  0  0  0  0  0  0  0  0  0  0  0
    7.3347  -18.8543   23.5047 C   0  0  0  0  0  0  0  0  0  0  0  0
    8.5901  -18.9304   23.5448 O   0  0  0  0  0  0  0  0  0  0  0  0
    9.0901  -11.9248   18.2462 O   0  0  0  0  0  0  0  0  0  0  0  0
    8.4935  -12.9315   18.9688 C   0  0  0  0  0  0  0  0  0  0  0  0
    7.5996  -12.5887   19.9616 C   0  0  0  0  0  0  0  0  0  0  0  0
    7.0113  -13.6124   20.6756 C   0  0  0  0  0  0  0  0  0  0  0  0
    7.2952  -14.9546   20.4202 C   0  0  0  0  0  0  0  0  0  0  0  0
    6.6616  -15.9785   21.2339 C   0  0  0  0  0  0  0  0  0  0  0  0
    7.5424  -16.7045   22.1727 C   0  0  2  0  0  0  0  0  0  0  0  0
    6.7374  -17.7990   22.7802 N   0  0  0  0  0  0  0  0  0  0  0  0
    8.1843  -15.9755   23.2474 C   0  0  0  0  0  0  0  0  0  0  0  0
    9.3551  -15.5069   23.0270 O   0  0  0  0  0  0  0  0  0  0  0  0
    8.1821  -15.2505   19.4330 C   0  0  0  0  0  0  0  0  0  0  0  0
    8.7941  -14.2521   18.6935 C   0  0  0  0  0  0  0  0  0  0  0  0
    6.1991  -11.8056   27.1913 C   0  0  0  0  0  0  0  0  0  0  0  0
    7.3772  -12.5393   26.6487 C   0  0  2  0  0  0  0  0  0  0  0  0
    8.2833  -11.5433   25.8912 C   0  0  0  0  0  0  0  0  0  0  0  0
    7.1200  -13.7140   25.7854 C   0  0  0  0  0  0  0  0  0  0  0  0
    8.2325  -14.6273   25.4044 C   0  0  2  0  0  0  0  0  0  0  0  0
    7.6653  -15.7041   24.5419 N   0  0  0  0  0  0  0  0  0  0  0  0
    9.0696  -15.1987   26.4424 C   0  0  0  0  0  0  0  0  0  0  0  0
    8.9981  -16.4550   27.0046 O   0  0  0  0  0  0  0  0  0  0  0  0
   10.0095  -14.4658   26.9336 O   0  0  0  0  0  0  0  0  0  0  0  0
  2  1  1  1
  3  2  1  0
  4  3  1  0
  5  2  1  0
  5  6  2  0
  7  8  1  0
  8 18  2  0
  9  8  1  0
  9 10  2  0
 10 11  1  0
 11 17  2  0
 11 12  1  0
 13 12  1  1
 13 14  1  0
 14  5  1  0
 15 13  1  0
 16 15  2  0
 18 17  1  0
 20 19  1  6
 21 20  1  0
 23 22  1  1
 22 20  1  0
 23 24  1  0
 24 15  1  0
 25 26  1  0
 25 23  1  0
 27 25  2  0
M  END
$$$$
