KYG.pdb
     RDKit          3D

 26 26  0  0  1  0  0  0  0  0999 V2000
    5.6339  -19.8574   23.0870 N   0  0  0  0  0  0  0  0  0  0  0  0
    6.6594  -19.0132   22.5059 C   0  0  1  0  0  0  0  0  0  0  0  0
    6.4092  -18.9274   21.0139 C   0  0  0  0  0  0  0  0  0  0  0  0
    6.2583  -20.3231   20.4992 C   0  0  0  0  0  0  0  0  0  0  0  0
    6.2409  -20.3686   19.0034 C   0  0  0  0  0  0  0  0  0  0  0  0
    6.1449  -21.7854   18.5079 C   0  0  0  0  0  0  0  0  0  0  0  0
    6.2121  -21.7709   17.0621 N   0  0  0  0  0  0  0  0  0  0  0  0
    6.5777  -17.6534   23.0887 C   0  0  0  0  0  0  0  0  0  0  0  0
    5.5202  -16.9678   23.0614 O   0  0  0  0  0  0  0  0  0  0  0  0
    6.9810  -10.4210   27.6425 O   0  0  0  0  0  0  0  0  0  0  0  0
    6.8979  -11.7278   27.1317 C   0  0  0  0  0  0  0  0  0  0  0  0
    5.7309  -12.2081   26.5710 C   0  0  0  0  0  0  0  0  0  0  0  0
    5.6193  -13.4840   26.0625 C   0  0  0  0  0  0  0  0  0  0  0  0
    6.7133  -14.3144   26.1145 C   0  0  0  0  0  0  0  0  0  0  0  0
    6.7102  -15.7027   25.5985 C   0  0  0  0  0  0  0  0  0  0  0  0
    7.5670  -15.7640   24.3942 C   0  0  2  0  0  0  0  0  0  0  0  0
    7.6691  -17.0103   23.7213 N   0  0  0  0  0  0  0  0  0  0  0  0
    8.9724  -15.3195   24.6725 C   0  0  0  0  0  0  0  0  0  0  0  0
    9.2597  -14.2570   25.2416 O   0  0  0  0  0  0  0  0  0  0  0  0
    7.8772  -13.8345   26.6740 C   0  0  0  0  0  0  0  0  0  0  0  0
    7.9914  -12.5622   27.1821 C   0  0  0  0  0  0  0  0  0  0  0  0
   10.0386  -16.1712   24.2575 N   0  0  0  0  0  0  0  0  0  0  0  0
   11.2366  -15.6670   23.6305 C   0  0  0  0  0  0  0  0  0  0  0  0
   12.1562  -16.7882   23.3258 C   0  0  0  0  0  0  0  0  0  0  0  0
   11.8625  -18.1245   23.5453 O   0  0  0  0  0  0  0  0  0  0  0  0
   13.2804  -16.5115   22.8345 O   0  0  0  0  0  0  0  0  0  0  0  0
  2  1  1  1
  3  2  1  0
  4  3  1  0
  5  4  1  0
  5  6  1  0
  7  6  1  0
  8  9  2  0
  8  2  1  0
 10 11  1  0
 11 12  2  0
 12 13  1  0
 14 13  2  0
 14 15  1  0
 16 15  1  1
 16 17  1  0
 17  8  1  0
 18 16  1  0
 19 18  2  0
 20 14  1  0
 21 11  1  0
 21 20  2  0
 22 18  1  0
 23 22  1  0
 24 23  1  0
 24 25  1  0
 26 24  2  0
M  END
$$$$
