KYG.pdb
     RDKit          3D

 26 26  0  0  1  0  0  0  0  0999 V2000
    9.5216  -15.8257   19.7061 N   0  0  0  0  0  0  0  0  0  0  0  0
    9.4958  -16.8766   20.7046 C   0  0  1  0  0  0  0  0  0  0  0  0
   10.4792  -17.9499   20.2842 C   0  0  0  0  0  0  0  0  0  0  0  0
    9.8938  -18.6651   19.1089 C   0  0  0  0  0  0  0  0  0  0  0  0
   10.9522  -19.2092   18.2015 C   0  0  0  0  0  0  0  0  0  0  0  0
   10.3455  -19.8011   16.9590 C   0  0  0  0  0  0  0  0  0  0  0  0
   11.4158  -20.1683   16.0564 N   0  0  0  0  0  0  0  0  0  0  0  0
    9.9096  -16.3293   22.0179 C   0  0  0  0  0  0  0  0  0  0  0  0
   10.9848  -15.6906   22.1765 O   0  0  0  0  0  0  0  0  0  0  0  0
   10.7259  -13.7415   30.2515 O   0  0  0  0  0  0  0  0  0  0  0  0
   10.1611  -14.2391   29.0645 C   0  0  0  0  0  0  0  0  0  0  0  0
    9.8046  -13.3972   28.0295 C   0  0  0  0  0  0  0  0  0  0  0  0
    9.2490  -13.8556   26.8547 C   0  0  0  0  0  0  0  0  0  0  0  0
    9.0403  -15.2057   26.7047 C   0  0  0  0  0  0  0  0  0  0  0  0
    8.4523  -15.8111   25.4875 C   0  0  0  0  0  0  0  0  0  0  0  0
    9.4998  -15.8985   24.4467 C   0  0  2  0  0  0  0  0  0  0  0  0
    9.1420  -16.4740   23.1988 N   0  0  0  0  0  0  0  0  0  0  0  0
   10.7127  -16.6428   24.9211 C   0  0  0  0  0  0  0  0  0  0  0  0
   11.7268  -16.0922   25.3728 O   0  0  0  0  0  0  0  0  0  0  0  0
    9.3963  -16.0449   27.7376 C   0  0  0  0  0  0  0  0  0  0  0  0
    9.9506  -15.5906   28.9107 C   0  0  0  0  0  0  0  0  0  0  0  0
   10.6955  -18.0671   24.8477 N   0  0  0  0  0  0  0  0  0  0  0  0
   11.8363  -18.8772   25.2012 C   0  0  0  0  0  0  0  0  0  0  0  0
   11.8426  -19.1292   26.6614 C   0  0  0  0  0  0  0  0  0  0  0  0
   12.8469  -18.7181   27.5231 O   0  0  0  0  0  0  0  0  0  0  0  0
   10.8722  -19.7586   27.1551 O   0  0  0  0  0  0  0  0  0  0  0  0
  2  1  1  6
  3  2  1  0
  4  3  1  0
  5  4  1  0
  5  6  1  0
  7  6  1  0
  8  9  2  0
  8  2  1  0
 10 11  1  0
 11 12  2  0
 12 13  1  0
 14 13  2  0
 14 15  1  0
 16 15  1  1
 16 17  1  0
 17  8  1  0
 18 16  1  0
 19 18  2  0
 20 14  1  0
 21 11  1  0
 21 20  2  0
 22 18  1  0
 23 22  1  0
 24 23  1  0
 24 25  1  0
 26 24  2  0
M  END
$$$$
