KYG.pdb
     RDKit          3D

 26 26  0  0  1  0  0  0  0  0999 V2000
    6.4397  -15.6641   21.7106 N   0  0  0  0  0  0  0  0  0  0  0  0
    7.7946  -15.1541   21.6309 C   0  0  1  0  0  0  0  0  0  0  0  0
    7.7578  -13.8338   20.8884 C   0  0  0  0  0  0  0  0  0  0  0  0
    7.5059  -14.1328   19.4452 C   0  0  0  0  0  0  0  0  0  0  0  0
    8.1951  -13.1573   18.5435 C   0  0  0  0  0  0  0  0  0  0  0  0
    7.9522  -13.4941   17.0980 C   0  0  0  0  0  0  0  0  0  0  0  0
    8.5933  -12.4878   16.2787 N   0  0  0  0  0  0  0  0  0  0  0  0
    8.3247  -14.9266   22.9957 C   0  0  0  0  0  0  0  0  0  0  0  0
    8.3339  -13.7883   23.5372 O   0  0  0  0  0  0  0  0  0  0  0  0
    5.8916  -10.7381   26.7471 O   0  0  0  0  0  0  0  0  0  0  0  0
    6.4663  -12.0134   26.6093 C   0  0  0  0  0  0  0  0  0  0  0  0
    5.7209  -13.0965   26.1871 C   0  0  0  0  0  0  0  0  0  0  0  0
    6.2564  -14.3580   26.0429 C   0  0  0  0  0  0  0  0  0  0  0  0
    7.5869  -14.5483   26.3304 C   0  0  0  0  0  0  0  0  0  0  0  0
    8.2693  -15.8573   26.2106 C   0  0  0  0  0  0  0  0  0  0  0  0
    9.2905  -15.7651   25.1444 C   0  0  2  0  0  0  0  0  0  0  0  0
    8.8625  -15.9571   23.8041 N   0  0  0  0  0  0  0  0  0  0  0  0
   10.4292  -16.7168   25.3632 C   0  0  0  0  0  0  0  0  0  0  0  0
   11.0255  -16.8423   26.4421 O   0  0  0  0  0  0  0  0  0  0  0  0
    8.3298  -13.4672   26.7514 C   0  0  0  0  0  0  0  0  0  0  0  0
    7.7984  -12.2077   26.8963 C   0  0  0  0  0  0  0  0  0  0  0  0
   10.8480  -17.5236   24.2640 N   0  0  0  0  0  0  0  0  0  0  0  0
   11.8999  -18.5052   24.3772 C   0  0  0  0  0  0  0  0  0  0  0  0
   13.2066  -17.8827   24.0601 C   0  0  0  0  0  0  0  0  0  0  0  0
   14.4170  -18.5572   24.0628 O   0  0  0  0  0  0  0  0  0  0  0  0
   13.2214  -16.6595   23.7684 O   0  0  0  0  0  0  0  0  0  0  0  0
  2  1  1  1
  3  2  1  0
  4  3  1  0
  5  4  1  0
  5  6  1  0
  7  6  1  0
  8  9  2  0
  8  2  1  0
 10 11  1  0
 11 12  2  0
 12 13  1  0
 14 13  2  0
 14 15  1  0
 16 15  1  1
 16 17  1  0
 17  8  1  0
 18 16  1  0
 19 18  2  0
 20 14  1  0
 21 11  1  0
 21 20  2  0
 22 18  1  0
 23 22  1  0
 24 23  1  0
 24 25  1  0
 26 24  2  0
M  END
$$$$
