KYG.pdb
     RDKit          3D

 26 26  0  0  1  0  0  0  0  0999 V2000
    7.6639  -16.4620   21.3763 N   0  0  0  0  0  0  0  0  0  0  0  0
    8.8223  -15.5900   21.3833 C   0  0  1  0  0  0  0  0  0  0  0  0
    8.4096  -14.2541   20.7993 C   0  0  0  0  0  0  0  0  0  0  0  0
    8.0137  -14.4850   19.3761 C   0  0  0  0  0  0  0  0  0  0  0  0
    8.0812  -13.2285   18.5660 C   0  0  0  0  0  0  0  0  0  0  0  0
    7.6006  -13.4660   17.1608 C   0  0  0  0  0  0  0  0  0  0  0  0
    7.6036  -12.2021   16.4554 N   0  0  0  0  0  0  0  0  0  0  0  0
    9.2868  -15.3863   22.7754 C   0  0  0  0  0  0  0  0  0  0  0  0
   10.1831  -14.5519   23.0745 O   0  0  0  0  0  0  0  0  0  0  0  0
    5.6696  -10.5651   26.0009 O   0  0  0  0  0  0  0  0  0  0  0  0
    6.2646  -11.8373   26.0572 C   0  0  0  0  0  0  0  0  0  0  0  0
    7.5982  -11.9941   26.3797 C   0  0  0  0  0  0  0  0  0  0  0  0
    8.2088  -13.2278   26.4426 C   0  0  0  0  0  0  0  0  0  0  0  0
    7.4618  -14.3497   26.1738 C   0  0  0  0  0  0  0  0  0  0  0  0
    8.0105  -15.7249   26.2123 C   0  0  0  0  0  0  0  0  0  0  0  0
    9.1130  -15.8244   25.2311 C   0  0  2  0  0  0  0  0  0  0  0  0
    8.7705  -16.1036   23.8816 N   0  0  0  0  0  0  0  0  0  0  0  0
   10.1358  -16.8480   25.6263 C   0  0  0  0  0  0  0  0  0  0  0  0
   10.6313  -16.9262   26.7593 O   0  0  0  0  0  0  0  0  0  0  0  0
    6.1315  -14.1924   25.8523 C   0  0  0  0  0  0  0  0  0  0  0  0
    5.5196  -12.9631   25.7887 C   0  0  0  0  0  0  0  0  0  0  0  0
   10.5612  -17.7853   24.6389 N   0  0  0  0  0  0  0  0  0  0  0  0
   11.3713  -18.9361   24.9580 C   0  0  0  0  0  0  0  0  0  0  0  0
   12.8074  -18.5843   24.8615 C   0  0  0  0  0  0  0  0  0  0  0  0
   13.2854  -17.3270   24.5283 O   0  0  0  0  0  0  0  0  0  0  0  0
   13.6522  -19.4855   25.0974 O   0  0  0  0  0  0  0  0  0  0  0  0
  2  1  1  1
  3  2  1  0
  4  3  1  0
  5  4  1  0
  5  6  1  0
  7  6  1  0
  8  9  2  0
  8  2  1  0
 10 11  1  0
 11 12  2  0
 12 13  1  0
 14 13  2  0
 14 15  1  0
 16 15  1  1
 16 17  1  0
 17  8  1  0
 18 16  1  0
 19 18  2  0
 20 14  1  0
 21 11  1  0
 21 20  2  0
 22 18  1  0
 23 22  1  0
 24 23  1  0
 24 25  1  0
 26 24  2  0
M  END
$$$$
