KYG.pdb
     RDKit          3D

 26 26  0  0  1  0  0  0  0  0999 V2000
    9.3072  -18.7091   20.5940 N   0  0  0  0  0  0  0  0  0  0  0  0
   10.3348  -17.7146   20.3550 C   0  0  1  0  0  0  0  0  0  0  0  0
   10.0962  -17.1103   18.9862 C   0  0  0  0  0  0  0  0  0  0  0  0
    9.5578  -18.1895   18.1024 C   0  0  0  0  0  0  0  0  0  0  0  0
    9.3753  -17.7193   16.6934 C   0  0  0  0  0  0  0  0  0  0  0  0
    8.8465  -18.8239   15.8203 C   0  0  0  0  0  0  0  0  0  0  0  0
    8.6913  -18.3110   14.4757 N   0  0  0  0  0  0  0  0  0  0  0  0
   10.2446  -16.6461   21.3776 C   0  0  0  0  0  0  0  0  0  0  0  0
   10.9892  -15.6290   21.3613 O   0  0  0  0  0  0  0  0  0  0  0  0
    7.0329  -12.7122   18.2482 O   0  0  0  0  0  0  0  0  0  0  0  0
    7.2721  -13.2301   19.5329 C   0  0  0  0  0  0  0  0  0  0  0  0
    8.2187  -12.6714   20.3688 C   0  0  0  0  0  0  0  0  0  0  0  0
    8.4753  -13.1570   21.6326 C   0  0  0  0  0  0  0  0  0  0  0  0
    7.7609  -14.2420   22.0817 C   0  0  0  0  0  0  0  0  0  0  0  0
    7.9502  -14.8474   23.4201 C   0  0  0  0  0  0  0  0  0  0  0  0
    9.2031  -15.6337   23.4131 C   0  0  2  0  0  0  0  0  0  0  0  0
    9.3234  -16.6726   22.4526 N   0  0  0  0  0  0  0  0  0  0  0  0
    9.4907  -16.2578   24.7465 C   0  0  0  0  0  0  0  0  0  0  0  0
    9.6340  -15.6115   25.7940 O   0  0  0  0  0  0  0  0  0  0  0  0
    6.8167  -14.7986   21.2471 C   0  0  0  0  0  0  0  0  0  0  0  0
    6.5585  -14.3164   19.9859 C   0  0  0  0  0  0  0  0  0  0  0  0
    9.6051  -17.6781   24.8103 N   0  0  0  0  0  0  0  0  0  0  0  0
   10.8789  -18.3526   24.8809 C   0  0  0  0  0  0  0  0  0  0  0  0
   11.5282  -18.0689   26.1822 C   0  0  0  0  0  0  0  0  0  0  0  0
   11.0877  -18.5591   27.4011 O   0  0  0  0  0  0  0  0  0  0  0  0
   12.5484  -17.3335   26.1839 O   0  0  0  0  0  0  0  0  0  0  0  0
  2  1  1  1
  3  2  1  0
  4  3  1  0
  5  4  1  0
  5  6  1  0
  7  6  1  0
  8  9  2  0
  8  2  1  0
 10 11  1  0
 11 12  2  0
 12 13  1  0
 14 13  2  0
 14 15  1  0
 16 15  1  1
 16 17  1  0
 17  8  1  0
 18 16  1  0
 19 18  2  0
 20 14  1  0
 21 11  1  0
 21 20  2  0
 22 18  1  0
 23 22  1  0
 24 23  1  0
 24 25  1  0
 26 24  2  0
M  END
$$$$
