KYG.pdb
     RDKit          3D

 26 26  0  0  1  0  0  0  0  0999 V2000
    6.5924  -16.1882   19.3877 N   0  0  0  0  0  0  0  0  0  0  0  0
    7.7037  -15.2781   19.5852 C   0  0  1  0  0  0  0  0  0  0  0  0
    7.6352  -14.2112   18.5115 C   0  0  0  0  0  0  0  0  0  0  0  0
    7.7318  -14.8961   17.1859 C   0  0  0  0  0  0  0  0  0  0  0  0
    8.9553  -14.4817   16.4303 C   0  0  0  0  0  0  0  0  0  0  0  0
    8.8850  -14.9368   14.9984 C   0  0  0  0  0  0  0  0  0  0  0  0
   10.0731  -14.4759   14.3121 N   0  0  0  0  0  0  0  0  0  0  0  0
    7.5925  -14.6337   20.9148 C   0  0  0  0  0  0  0  0  0  0  0  0
    7.0584  -13.5034   21.0765 O   0  0  0  0  0  0  0  0  0  0  0  0
    6.7868  -11.7159   28.8622 O   0  0  0  0  0  0  0  0  0  0  0  0
    6.8099  -12.5398   27.7237 C   0  0  0  0  0  0  0  0  0  0  0  0
    6.1218  -12.1998   26.5757 C   0  0  0  0  0  0  0  0  0  0  0  0
    6.1256  -12.9871   25.4447 C   0  0  0  0  0  0  0  0  0  0  0  0
    6.8430  -14.1594   25.4576 C   0  0  0  0  0  0  0  0  0  0  0  0
    6.9205  -15.0824   24.3019 C   0  0  0  0  0  0  0  0  0  0  0  0
    7.9799  -14.6080   23.3850 C   0  0  2  0  0  0  0  0  0  0  0  0
    8.0714  -15.2245   22.1091 N   0  0  0  0  0  0  0  0  0  0  0  0
    9.3462  -14.7020   23.9970 C   0  0  0  0  0  0  0  0  0  0  0  0
    9.6242  -14.2861   25.1306 O   0  0  0  0  0  0  0  0  0  0  0  0
    7.5292  -14.4978   26.6033 C   0  0  0  0  0  0  0  0  0  0  0  0
    7.5272  -13.7145   27.7330 C   0  0  0  0  0  0  0  0  0  0  0  0
   10.3843  -15.3062   23.2277 N   0  0  0  0  0  0  0  0  0  0  0  0
   11.7338  -15.4474   23.7191 C   0  0  0  0  0  0  0  0  0  0  0  0
   12.5821  -16.0871   22.6863 C   0  0  0  0  0  0  0  0  0  0  0  0
   13.8354  -16.6274   22.9261 O   0  0  0  0  0  0  0  0  0  0  0  0
   12.1372  -16.1453   21.5114 O   0  0  0  0  0  0  0  0  0  0  0  0
  2  1  1  6
  3  2  1  0
  4  3  1  0
  5  4  1  0
  5  6  1  0
  7  6  1  0
  8  9  2  0
  8  2  1  0
 10 11  1  0
 11 12  2  0
 12 13  1  0
 14 13  2  0
 14 15  1  0
 16 15  1  1
 16 17  1  0
 17  8  1  0
 18 16  1  0
 19 18  2  0
 20 14  1  0
 21 11  1  0
 21 20  2  0
 22 18  1  0
 23 22  1  0
 24 23  1  0
 24 25  1  0
 26 24  2  0
M  END
$$$$
