KYG.pdb
     RDKit          3D

 26 26  0  0  1  0  0  0  0  0999 V2000
    7.8408  -12.7758   18.1788 N   0  0  0  0  0  0  0  0  0  0  0  0
    7.9054  -14.0332   18.8978 C   0  0  1  0  0  0  0  0  0  0  0  0
    8.9466  -14.9061   18.2272 C   0  0  0  0  0  0  0  0  0  0  0  0
    8.4286  -15.2693   16.8725 C   0  0  0  0  0  0  0  0  0  0  0  0
    9.3531  -16.1990   16.1510 C   0  0  0  0  0  0  0  0  0  0  0  0
    8.8090  -16.5564   14.7952 C   0  0  0  0  0  0  0  0  0  0  0  0
    9.6684  -17.5615   14.2067 N   0  0  0  0  0  0  0  0  0  0  0  0
    8.3122  -13.7868   20.3011 C   0  0  0  0  0  0  0  0  0  0  0  0
    9.1287  -12.8808   20.6200 O   0  0  0  0  0  0  0  0  0  0  0  0
    7.1585  -11.9413   28.6293 O   0  0  0  0  0  0  0  0  0  0  0  0
    6.9961  -12.5056   27.3523 C   0  0  0  0  0  0  0  0  0  0  0  0
    6.3744  -11.8118   26.3330 C   0  0  0  0  0  0  0  0  0  0  0  0
    6.2008  -12.3387   25.0716 C   0  0  0  0  0  0  0  0  0  0  0  0
    6.6647  -13.6068   24.8152 C   0  0  0  0  0  0  0  0  0  0  0  0
    6.5352  -14.2733   23.4989 C   0  0  0  0  0  0  0  0  0  0  0  0
    7.7791  -14.0520   22.7297 C   0  0  2  0  0  0  0  0  0  0  0  0
    7.8250  -14.5396   21.3969 N   0  0  0  0  0  0  0  0  0  0  0  0
    8.9850  -14.6118   23.4245 C   0  0  0  0  0  0  0  0  0  0  0  0
    9.2598  -14.3930   24.6128 O   0  0  0  0  0  0  0  0  0  0  0  0
    7.2849  -14.2983   25.8326 C   0  0  0  0  0  0  0  0  0  0  0  0
    7.4595  -13.7753   27.0919 C   0  0  0  0  0  0  0  0  0  0  0  0
    9.8650  -15.4445   22.6718 N   0  0  0  0  0  0  0  0  0  0  0  0
   11.0888  -15.9776   23.2202 C   0  0  0  0  0  0  0  0  0  0  0  0
   11.1922  -17.4231   22.9110 C   0  0  0  0  0  0  0  0  0  0  0  0
   12.2483  -18.2332   23.2963 O   0  0  0  0  0  0  0  0  0  0  0  0
   10.2598  -17.9536   22.2546 O   0  0  0  0  0  0  0  0  0  0  0  0
  2  1  1  6
  3  2  1  0
  4  3  1  0
  5  4  1  0
  5  6  1  0
  7  6  1  0
  8  9  2  0
  8  2  1  0
 10 11  1  0
 11 12  2  0
 12 13  1  0
 14 13  2  0
 14 15  1  0
 16 15  1  1
 16 17  1  0
 17  8  1  0
 18 16  1  0
 19 18  2  0
 20 14  1  0
 21 11  1  0
 21 20  2  0
 22 18  1  0
 23 22  1  0
 24 23  1  0
 24 25  1  0
 26 24  2  0
M  END
$$$$
