KYG.pdb
     RDKit          3D

 26 26  0  0  1  0  0  0  0  0999 V2000
    7.1059  -16.9512   19.5907 N   0  0  0  0  0  0  0  0  0  0  0  0
    7.9442  -15.7724   19.6901 C   0  0  1  0  0  0  0  0  0  0  0  0
    7.5934  -14.8470   18.5428 C   0  0  0  0  0  0  0  0  0  0  0  0
    8.2643  -15.3738   17.3148 C   0  0  0  0  0  0  0  0  0  0  0  0
    8.1091  -14.4458   16.1510 C   0  0  0  0  0  0  0  0  0  0  0  0
    8.7270  -15.0287   14.9099 C   0  0  0  0  0  0  0  0  0  0  0  0
    8.3457  -14.2091   13.7795 N   0  0  0  0  0  0  0  0  0  0  0  0
    7.6792  -15.0764   20.9710 C   0  0  0  0  0  0  0  0  0  0  0  0
    6.6638  -14.3510   21.1496 O   0  0  0  0  0  0  0  0  0  0  0  0
    6.7398  -11.8519   28.8221 O   0  0  0  0  0  0  0  0  0  0  0  0
    6.7924  -12.5835   27.6230 C   0  0  0  0  0  0  0  0  0  0  0  0
    6.0996  -12.1754   26.5004 C   0  0  0  0  0  0  0  0  0  0  0  0
    6.1318  -12.8716   25.3117 C   0  0  0  0  0  0  0  0  0  0  0  0
    6.8838  -14.0198   25.2381 C   0  0  0  0  0  0  0  0  0  0  0  0
    6.9939  -14.8471   24.0146 C   0  0  0  0  0  0  0  0  0  0  0  0
    8.2698  -14.5275   23.3379 C   0  0  2  0  0  0  0  0  0  0  0  0
    8.5342  -15.1635   22.0962 N   0  0  0  0  0  0  0  0  0  0  0  0
    9.4598  -14.7969   24.2107 C   0  0  0  0  0  0  0  0  0  0  0  0
    9.5285  -14.4688   25.4036 O   0  0  0  0  0  0  0  0  0  0  0  0
    7.5747  -14.4261   26.3586 C   0  0  0  0  0  0  0  0  0  0  0  0
    7.5445  -13.7337   27.5457 C   0  0  0  0  0  0  0  0  0  0  0  0
   10.5759  -15.4703   23.6318 N   0  0  0  0  0  0  0  0  0  0  0  0
   11.7486  -15.8270   24.3935 C   0  0  0  0  0  0  0  0  0  0  0  0
   12.6814  -16.6075   23.5471 C   0  0  0  0  0  0  0  0  0  0  0  0
   13.9699  -16.2096   23.2284 O   0  0  0  0  0  0  0  0  0  0  0  0
   12.2793  -17.7060   23.0852 O   0  0  0  0  0  0  0  0  0  0  0  0
  2  1  1  6
  3  2  1  0
  4  3  1  0
  5  4  1  0
  5  6  1  0
  7  6  1  0
  8  9  2  0
  8  2  1  0
 10 11  1  0
 11 12  2  0
 12 13  1  0
 14 13  2  0
 14 15  1  0
 16 15  1  1
 16 17  1  0
 17  8  1  0
 18 16  1  0
 19 18  2  0
 20 14  1  0
 21 11  1  0
 21 20  2  0
 22 18  1  0
 23 22  1  0
 24 23  1  0
 24 25  1  0
 26 24  2  0
M  END
$$$$
