KYG.pdb
     RDKit          3D

 26 26  0  0  1  0  0  0  0  0999 V2000
    8.0049  -12.9315   19.6144 N   0  0  0  0  0  0  0  0  0  0  0  0
    8.0199  -14.2787   20.1502 C   0  0  1  0  0  0  0  0  0  0  0  0
    8.8760  -15.1374   19.2416 C   0  0  0  0  0  0  0  0  0  0  0  0
    8.0515  -15.4935   18.0462 C   0  0  0  0  0  0  0  0  0  0  0  0
    8.7469  -16.4795   17.1609 C   0  0  0  0  0  0  0  0  0  0  0  0
    7.8805  -16.8597   15.9917 C   0  0  0  0  0  0  0  0  0  0  0  0
    8.5926  -17.8323   15.1905 N   0  0  0  0  0  0  0  0  0  0  0  0
    8.6132  -14.2707   21.5079 C   0  0  0  0  0  0  0  0  0  0  0  0
    9.4956  -13.4404   21.8560 O   0  0  0  0  0  0  0  0  0  0  0  0
    6.2253  -10.2431   27.3611 O   0  0  0  0  0  0  0  0  0  0  0  0
    6.5571  -11.4626   26.7462 C   0  0  0  0  0  0  0  0  0  0  0  0
    7.8331  -11.7090   26.2792 C   0  0  0  0  0  0  0  0  0  0  0  0
    8.1879  -12.8942   25.6723 C   0  0  0  0  0  0  0  0  0  0  0  0
    7.2341  -13.8727   25.5246 C   0  0  0  0  0  0  0  0  0  0  0  0
    7.5009  -15.1842   24.8902 C   0  0  0  0  0  0  0  0  0  0  0  0
    8.5815  -15.0191   23.8936 C   0  0  2  0  0  0  0  0  0  0  0  0
    8.2455  -15.1856   22.5240 N   0  0  0  0  0  0  0  0  0  0  0  0
    9.7423  -15.9321   24.1563 C   0  0  0  0  0  0  0  0  0  0  0  0
   10.2547  -16.0924   25.2731 O   0  0  0  0  0  0  0  0  0  0  0  0
    5.9614  -13.6262   25.9908 C   0  0  0  0  0  0  0  0  0  0  0  0
    5.6046  -12.4449   26.5966 C   0  0  0  0  0  0  0  0  0  0  0  0
   10.2861  -16.6576   23.0552 N   0  0  0  0  0  0  0  0  0  0  0  0
   11.6483  -17.1335   23.0352 C   0  0  0  0  0  0  0  0  0  0  0  0
   11.9124  -17.8528   21.7669 C   0  0  0  0  0  0  0  0  0  0  0  0
   11.0031  -17.9688   20.7278 O   0  0  0  0  0  0  0  0  0  0  0  0
   13.0373  -18.3960   21.6206 O   0  0  0  0  0  0  0  0  0  0  0  0
  2  1  1  6
  3  2  1  0
  4  3  1  0
  5  4  1  0
  5  6  1  0
  7  6  1  0
  8  9  2  0
  8  2  1  0
 10 11  1  0
 11 12  2  0
 12 13  1  0
 14 13  2  0
 14 15  1  0
 16 15  1  1
 16 17  1  0
 17  8  1  0
 18 16  1  0
 19 18  2  0
 20 14  1  0
 21 11  1  0
 21 20  2  0
 22 18  1  0
 23 22  1  0
 24 23  1  0
 24 25  1  0
 26 24  2  0
M  END
$$$$
