KYG.pdb
     RDKit          3D

 26 26  0  0  1  0  0  0  0  0999 V2000
    9.4674  -18.8037   21.3186 N   0  0  0  0  0  0  0  0  0  0  0  0
   10.4510  -17.7456   21.1964 C   0  0  1  0  0  0  0  0  0  0  0  0
   10.3169  -17.1352   19.8161 C   0  0  0  0  0  0  0  0  0  0  0  0
    9.9120  -18.2253   18.8763 C   0  0  0  0  0  0  0  0  0  0  0  0
    9.7514  -17.7246   17.4751 C   0  0  0  0  0  0  0  0  0  0  0  0
    9.3580  -18.8396   16.5455 C   0  0  0  0  0  0  0  0  0  0  0  0
    8.9692  -18.2627   15.2763 N   0  0  0  0  0  0  0  0  0  0  0  0
   10.1912  -16.7008   22.2143 C   0  0  0  0  0  0  0  0  0  0  0  0
   10.8876  -15.6537   22.3025 O   0  0  0  0  0  0  0  0  0  0  0  0
    7.6133  -12.6551   18.7042 O   0  0  0  0  0  0  0  0  0  0  0  0
    7.5801  -13.2596   19.9727 C   0  0  0  0  0  0  0  0  0  0  0  0
    6.9160  -14.4517   20.1843 C   0  0  0  0  0  0  0  0  0  0  0  0
    6.8660  -15.0677   21.4159 C   0  0  0  0  0  0  0  0  0  0  0  0
    7.5027  -14.4729   22.4789 C   0  0  0  0  0  0  0  0  0  0  0  0
    7.5171  -15.0435   23.8457 C   0  0  0  0  0  0  0  0  0  0  0  0
    8.8083  -15.7329   24.0592 C   0  0  2  0  0  0  0  0  0  0  0  0
    9.1484  -16.7852   23.1684 N   0  0  0  0  0  0  0  0  0  0  0  0
    8.9297  -16.2976   25.4436 C   0  0  0  0  0  0  0  0  0  0  0  0
    8.8911  -15.6110   26.4744 O   0  0  0  0  0  0  0  0  0  0  0  0
    8.1651  -13.2837   22.2670 C   0  0  0  0  0  0  0  0  0  0  0  0
    8.2167  -12.6669   21.0395 C   0  0  0  0  0  0  0  0  0  0  0  0
    9.0989  -17.7074   25.5792 N   0  0  0  0  0  0  0  0  0  0  0  0
   10.3851  -18.3159   25.8201 C   0  0  0  0  0  0  0  0  0  0  0  0
   10.8480  -17.9911   27.1897 C   0  0  0  0  0  0  0  0  0  0  0  0
   10.6792  -18.8162   28.2901 O   0  0  0  0  0  0  0  0  0  0  0  0
   11.4341  -16.8929   27.3689 O   0  0  0  0  0  0  0  0  0  0  0  0
  2  1  1  6
  3  2  1  0
  4  3  1  0
  5  4  1  0
  5  6  1  0
  7  6  1  0
  8  9  2  0
  8  2  1  0
 10 11  1  0
 11 12  2  0
 12 13  1  0
 14 13  2  0
 14 15  1  0
 16 15  1  6
 16 17  1  0
 17  8  1  0
 18 16  1  0
 19 18  2  0
 20 14  1  0
 21 11  1  0
 21 20  2  0
 22 18  1  0
 23 22  1  0
 24 23  1  0
 24 25  1  0
 26 24  2  0
M  END
$$$$
