KYG.pdb
     RDKit          3D

 26 26  0  0  1  0  0  0  0  0999 V2000
    5.8434  -15.7055   21.2866 N   0  0  0  0  0  0  0  0  0  0  0  0
    7.2509  -15.3676   21.2035 C   0  0  1  0  0  0  0  0  0  0  0  0
    7.3828  -14.0972   20.3884 C   0  0  0  0  0  0  0  0  0  0  0  0
    7.6370  -14.4939   18.9694 C   0  0  0  0  0  0  0  0  0  0  0  0
    8.2173  -13.3699   18.1698 C   0  0  0  0  0  0  0  0  0  0  0  0
    8.4053  -13.7710   16.7325 C   0  0  0  0  0  0  0  0  0  0  0  0
    7.8331  -12.7418   15.8908 N   0  0  0  0  0  0  0  0  0  0  0  0
    7.7891  -15.1279   22.5630 C   0  0  0  0  0  0  0  0  0  0  0  0
    7.4836  -14.1108   23.2421 O   0  0  0  0  0  0  0  0  0  0  0  0
    6.1284  -10.8164   26.9562 O   0  0  0  0  0  0  0  0  0  0  0  0
    6.6673  -12.0744   26.6359 C   0  0  0  0  0  0  0  0  0  0  0  0
    8.0246  -12.3165   26.7139 C   0  0  0  0  0  0  0  0  0  0  0  0
    8.5817  -13.5388   26.4063 C   0  0  0  0  0  0  0  0  0  0  0  0
    7.7544  -14.5603   26.0051 C   0  0  0  0  0  0  0  0  0  0  0  0
    8.2403  -15.9140   25.6513 C   0  0  0  0  0  0  0  0  0  0  0  0
    9.1898  -15.7981   24.5229 C   0  0  2  0  0  0  0  0  0  0  0  0
    8.6850  -16.0109   23.2128 N   0  0  0  0  0  0  0  0  0  0  0  0
   10.3678  -16.7144   24.6741 C   0  0  0  0  0  0  0  0  0  0  0  0
   10.2971  -17.8557   25.1515 O   0  0  0  0  0  0  0  0  0  0  0  0
    6.4004  -14.3180   25.9276 C   0  0  0  0  0  0  0  0  0  0  0  0
    5.8418  -13.0998   26.2338 C   0  0  0  0  0  0  0  0  0  0  0  0
   11.6427  -16.2427   24.2422 N   0  0  0  0  0  0  0  0  0  0  0  0
   12.8429  -17.0366   24.3518 C   0  0  0  0  0  0  0  0  0  0  0  0
   13.9512  -16.3784   23.6211 C   0  0  0  0  0  0  0  0  0  0  0  0
   15.2646  -16.8202   23.6264 O   0  0  0  0  0  0  0  0  0  0  0  0
   13.6851  -15.3489   22.9496 O   0  0  0  0  0  0  0  0  0  0  0  0
  2  1  1  1
  3  2  1  0
  4  3  1  0
  5  4  1  0
  5  6  1  0
  7  6  1  0
  8  9  2  0
  8  2  1  0
 10 11  1  0
 11 12  2  0
 12 13  1  0
 14 13  2  0
 14 15  1  0
 16 15  1  1
 16 17  1  0
 17  8  1  0
 18 16  1  0
 19 18  2  0
 20 14  1  0
 21 11  1  0
 21 20  2  0
 22 18  1  0
 23 22  1  0
 24 23  1  0
 24 25  1  0
 26 24  2  0
M  END
$$$$
