CLK.pdb
     RDKit          3D

 24 23  0  0  1  0  0  0  0  0999 V2000
    8.1691  -14.4901   20.0221 N   0  0  0  0  0  0  0  0  0  0  0  0
    7.4078  -15.0643   21.1115 C   0  0  1  0  0  0  0  0  0  0  0  0
    7.2737  -16.5396   20.8591 C   0  0  0  0  0  0  0  0  0  0  0  0
    6.1736  -16.7716   19.4448 S   0  0  0  0  0  0  0  0  0  0  0  0
    8.1060  -14.8364   22.4224 C   0  0  0  0  0  0  0  0  0  0  0  0
    9.3563  -14.8862   22.4426 O   0  0  0  0  0  0  0  0  0  0  0  0
    5.7497  -12.1274   26.8319 C   0  0  0  0  0  0  0  0  0  0  0  0
    6.7294  -12.4927   25.7157 C   0  0  1  0  0  0  0  0  0  0  0  0
    7.8751  -11.5272   25.8087 C   0  0  0  0  0  0  0  0  0  0  0  0
    7.1319  -13.9146   25.9319 C   0  0  0  0  0  0  0  0  0  0  0  0
    8.0314  -14.4605   24.8641 C   0  0  2  0  0  0  0  0  0  0  0  0
    7.3660  -14.5751   23.5886 N   0  0  0  0  0  0  0  0  0  0  0  0
    8.4492  -15.8302   25.2998 C   0  0  0  0  0  0  0  0  0  0  0  0
    7.6001  -16.7423   25.4678 O   0  0  0  0  0  0  0  0  0  0  0  0
    9.8267  -16.1412   25.5377 N   0  0  0  0  0  0  0  0  0  0  0  0
   10.2055  -17.4767   25.9263 C   0  0  1  0  0  0  0  0  0  0  0  0
   11.4573  -17.8732   25.1266 C   0  0  0  0  0  0  0  0  0  0  0  0
   11.3607  -19.3022   24.7095 C   0  0  0  0  0  0  0  0  0  0  0  0
   12.5138  -19.8465   23.9405 C   0  0  0  0  0  0  0  0  0  0  0  0
   12.3493  -21.2473   23.4305 C   0  0  0  0  0  0  0  0  0  0  0  0
   13.4867  -21.7106   22.6934 N   0  0  0  0  0  0  0  0  0  0  0  0
   10.4809  -17.5387   27.3843 C   0  0  0  0  0  0  0  0  0  0  0  0
   10.3895  -16.3888   28.1576 O   0  0  0  0  0  0  0  0  0  0  0  0
   10.7964  -18.5990   27.9543 O   0  0  0  0  0  0  0  0  0  0  0  0
  2  3  1  0
  2  1  1  6
  4  3  1  0
  5  6  2  0
  5  2  1  0
  8  7  1  1
  8  9  1  0
  8 10  1  0
 11 10  1  1
 11 12  1  0
 12  5  1  0
 13 14  2  0
 13 11  1  0
 15 13  1  0
 16 15  1  0
 16 17  1  6
 18 17  1  0
 19 18  1  0
 20 21  1  0
 20 19  1  0
 22 16  1  0
 23 22  1  0
 24 22  2  0
M  END
$$$$
