CLK.pdb
     RDKit          3D

 24 23  0  0  1  0  0  0  0  0999 V2000
    8.2696  -14.8383   20.1700 N   0  0  0  0  0  0  0  0  0  0  0  0
    7.3070  -14.8616   21.2511 C   0  0  1  0  0  0  0  0  0  0  0  0
    6.5917  -16.1825   21.2096 C   0  0  0  0  0  0  0  0  0  0  0  0
    7.8182  -17.4940   21.4097 S   0  0  0  0  0  0  0  0  0  0  0  0
    7.9962  -14.7005   22.5766 C   0  0  0  0  0  0  0  0  0  0  0  0
    9.2449  -14.7783   22.6068 O   0  0  0  0  0  0  0  0  0  0  0  0
    5.6493  -11.8715   26.8918 C   0  0  0  0  0  0  0  0  0  0  0  0
    6.6494  -12.2758   25.8076 C   0  0  1  0  0  0  0  0  0  0  0  0
    7.8138  -11.3347   25.9164 C   0  0  0  0  0  0  0  0  0  0  0  0
    7.0139  -13.7028   26.0558 C   0  0  0  0  0  0  0  0  0  0  0  0
    7.9164  -14.2896   25.0125 C   0  0  2  0  0  0  0  0  0  0  0  0
    7.2499  -14.4689   23.7451 N   0  0  0  0  0  0  0  0  0  0  0  0
    8.3471  -15.6339   25.5102 C   0  0  0  0  0  0  0  0  0  0  0  0
    7.5320  -16.5889   25.5803 O   0  0  0  0  0  0  0  0  0  0  0  0
    9.6984  -15.8712   25.9206 N   0  0  0  0  0  0  0  0  0  0  0  0
   10.0971  -17.1862   26.3563 C   0  0  1  0  0  0  0  0  0  0  0  0
   11.3622  -17.5868   25.5800 C   0  0  0  0  0  0  0  0  0  0  0  0
   11.8194  -18.9374   26.0182 C   0  0  0  0  0  0  0  0  0  0  0  0
   13.0343  -19.4752   25.3459 C   0  0  0  0  0  0  0  0  0  0  0  0
   13.4723  -20.8385   25.7924 C   0  0  0  0  0  0  0  0  0  0  0  0
   14.5987  -21.3317   25.0579 N   0  0  0  0  0  0  0  0  0  0  0  0
   10.3613  -17.1950   27.8177 C   0  0  0  0  0  0  0  0  0  0  0  0
   10.5960  -16.0016   28.4880 O   0  0  0  0  0  0  0  0  0  0  0  0
   10.3818  -18.2479   28.4807 O   0  0  0  0  0  0  0  0  0  0  0  0
  2  3  1  0
  2  1  1  6
  4  3  1  0
  5  6  2  0
  5  2  1  0
  8  7  1  1
  8  9  1  0
  8 10  1  0
 11 10  1  1
 11 12  1  0
 12  5  1  0
 13 14  2  0
 13 11  1  0
 15 13  1  0
 16 15  1  0
 16 17  1  6
 18 17  1  0
 19 18  1  0
 20 21  1  0
 20 19  1  0
 22 16  1  0
 23 22  1  0
 24 22  2  0
M  END
$$$$
