CLK.pdb
     RDKit          3D

 24 23  0  0  1  0  0  0  0  0999 V2000
   10.3466  -18.9884   19.1600 N   0  0  0  0  0  0  0  0  0  0  0  0
    9.1696  -18.2765   19.6114 C   0  0  1  0  0  0  0  0  0  0  0  0
    8.3860  -19.1933   20.5078 C   0  0  0  0  0  0  0  0  0  0  0  0
    9.4296  -19.6324   21.9157 S   0  0  0  0  0  0  0  0  0  0  0  0
    9.5584  -17.0384   20.3688 C   0  0  0  0  0  0  0  0  0  0  0  0
   10.7736  -16.8390   20.5918 O   0  0  0  0  0  0  0  0  0  0  0  0
    6.4542  -12.4849   20.0419 C   0  0  0  0  0  0  0  0  0  0  0  0
    7.6447  -13.4441   19.9996 C   0  0  1  0  0  0  0  0  0  0  0  0
    8.7779  -12.7033   19.3513 C   0  0  0  0  0  0  0  0  0  0  0  0
    7.9304  -13.8525   21.4075 C   0  0  0  0  0  0  0  0  0  0  0  0
    8.9540  -14.9410   21.5284 C   0  0  2  0  0  0  0  0  0  0  0  0
    8.5764  -16.1347   20.8106 N   0  0  0  0  0  0  0  0  0  0  0  0
    9.0624  -15.2824   22.9818 C   0  0  0  0  0  0  0  0  0  0  0  0
    9.4472  -14.4274   23.8197 O   0  0  0  0  0  0  0  0  0  0  0  0
    8.7312  -16.5912   23.4596 N   0  0  0  0  0  0  0  0  0  0  0  0
    8.8436  -16.8934   24.8645 C   0  0  1  0  0  0  0  0  0  0  0  0
    8.0707  -18.1935   25.1400 C   0  0  0  0  0  0  0  0  0  0  0  0
    8.1910  -18.5591   26.5812 C   0  0  0  0  0  0  0  0  0  0  0  0
    7.6243  -19.8774   26.9791 C   0  0  0  0  0  0  0  0  0  0  0  0
    7.6012  -20.1547   28.4529 C   0  0  0  0  0  0  0  0  0  0  0  0
    7.1877  -21.4903   28.7636 N   0  0  0  0  0  0  0  0  0  0  0  0
   10.2686  -17.0452   25.2542 C   0  0  0  0  0  0  0  0  0  0  0  0
   11.1795  -17.5886   24.3578 O   0  0  0  0  0  0  0  0  0  0  0  0
   10.6898  -16.6990   26.3729 O   0  0  0  0  0  0  0  0  0  0  0  0
  2  3  1  0
  2  1  1  1
  4  3  1  0
  5  6  2  0
  5  2  1  0
  8  7  1  1
  8  9  1  0
  8 10  1  0
 11 10  1  1
 11 12  1  0
 12  5  1  0
 13 14  2  0
 13 11  1  0
 15 13  1  0
 16 15  1  0
 16 17  1  6
 18 17  1  0
 19 18  1  0
 20 21  1  0
 20 19  1  0
 22 16  1  0
 23 22  1  0
 24 22  2  0
M  END
$$$$
