CLK.pdb
     RDKit          3D

 24 23  0  0  1  0  0  0  0  0999 V2000
    8.2285  -14.2477   19.9318 N   0  0  0  0  0  0  0  0  0  0  0  0
    7.4357  -14.9008   20.9521 C   0  0  1  0  0  0  0  0  0  0  0  0
    7.3317  -16.3578   20.5993 C   0  0  0  0  0  0  0  0  0  0  0  0
    6.3222  -17.1715   21.8575 S   0  0  0  0  0  0  0  0  0  0  0  0
    8.0819  -14.7512   22.3004 C   0  0  0  0  0  0  0  0  0  0  0  0
    9.3303  -14.8069   22.3670 O   0  0  0  0  0  0  0  0  0  0  0  0
    5.5001  -12.1756   26.6428 C   0  0  0  0  0  0  0  0  0  0  0  0
    6.5793  -12.4840   25.6038 C   0  0  1  0  0  0  0  0  0  0  0  0
    7.7050  -11.5211   25.8464 C   0  0  0  0  0  0  0  0  0  0  0  0
    6.9705  -13.9136   25.7874 C   0  0  0  0  0  0  0  0  0  0  0  0
    7.9198  -14.4223   24.7446 C   0  0  2  0  0  0  0  0  0  0  0  0
    7.2967  -14.5544   23.4497 N   0  0  0  0  0  0  0  0  0  0  0  0
    8.3729  -15.7785   25.1875 C   0  0  0  0  0  0  0  0  0  0  0  0
    7.5826  -16.7566   25.1860 O   0  0  0  0  0  0  0  0  0  0  0  0
    9.7182  -16.0011   25.6252 N   0  0  0  0  0  0  0  0  0  0  0  0
   10.1314  -17.3192   26.0371 C   0  0  1  0  0  0  0  0  0  0  0  0
   11.4080  -17.6865   25.2633 C   0  0  0  0  0  0  0  0  0  0  0  0
   11.9225  -19.0062   25.7314 C   0  0  0  0  0  0  0  0  0  0  0  0
   13.1425  -19.5204   25.0500 C   0  0  0  0  0  0  0  0  0  0  0  0
   13.5976  -20.8841   25.4774 C   0  0  0  0  0  0  0  0  0  0  0  0
   14.8092  -21.2959   24.8340 N   0  0  0  0  0  0  0  0  0  0  0  0
   10.3838  -17.3547   27.5001 C   0  0  0  0  0  0  0  0  0  0  0  0
   10.2846  -18.5542   28.1929 O   0  0  0  0  0  0  0  0  0  0  0  0
   10.6867  -16.3343   28.1449 O   0  0  0  0  0  0  0  0  0  0  0  0
  2  3  1  0
  2  1  1  6
  4  3  1  0
  5  6  2  0
  5  2  1  0
  8  7  1  1
  8  9  1  0
  8 10  1  0
 11 10  1  1
 11 12  1  0
 12  5  1  0
 13 14  2  0
 13 11  1  0
 15 13  1  0
 16 15  1  0
 16 17  1  6
 18 17  1  0
 19 18  1  0
 20 21  1  0
 20 19  1  0
 22 16  1  0
 23 22  1  0
 24 22  2  0
M  END
$$$$
