CLK.pdb
     RDKit          3D

 24 23  0  0  1  0  0  0  0  0999 V2000
    6.4198  -19.1634   27.1680 N   0  0  0  0  0  0  0  0  0  0  0  0
    7.2376  -18.0023   27.4495 C   0  0  1  0  0  0  0  0  0  0  0  0
    8.5907  -18.4822   27.8934 C   0  0  0  0  0  0  0  0  0  0  0  0
    9.5246  -17.0573   28.4946 S   0  0  0  0  0  0  0  0  0  0  0  0
    7.3812  -17.1467   26.2227 C   0  0  0  0  0  0  0  0  0  0  0  0
    7.2227  -17.6854   25.1043 O   0  0  0  0  0  0  0  0  0  0  0  0
    7.2489  -11.6448   26.9133 C   0  0  0  0  0  0  0  0  0  0  0  0
    6.8997  -13.0803   26.5176 C   0  0  1  0  0  0  0  0  0  0  0  0
    5.4801  -13.0643   26.0298 C   0  0  0  0  0  0  0  0  0  0  0  0
    7.8818  -13.4998   25.4736 C   0  0  0  0  0  0  0  0  0  0  0  0
    7.8440  -14.9648   25.1577 C   0  0  2  0  0  0  0  0  0  0  0  0
    7.6856  -15.7792   26.3385 N   0  0  0  0  0  0  0  0  0  0  0  0
    9.1541  -15.3108   24.5217 C   0  0  0  0  0  0  0  0  0  0  0  0
   10.2344  -15.1720   25.1501 O   0  0  0  0  0  0  0  0  0  0  0  0
    9.2150  -15.8094   23.1806 N   0  0  0  0  0  0  0  0  0  0  0  0
   10.4922  -16.1012   22.5794 C   0  0  1  0  0  0  0  0  0  0  0  0
   10.5659  -17.6144   22.3179 C   0  0  0  0  0  0  0  0  0  0  0  0
   10.8985  -18.3319   23.5828 C   0  0  0  0  0  0  0  0  0  0  0  0
   11.0254  -19.8126   23.4900 C   0  0  0  0  0  0  0  0  0  0  0  0
   11.2662  -20.5250   24.7877 C   0  0  0  0  0  0  0  0  0  0  0  0
   11.2737  -21.9506   24.6493 N   0  0  0  0  0  0  0  0  0  0  0  0
   10.6572  -15.3474   21.3106 C   0  0  0  0  0  0  0  0  0  0  0  0
   11.8918  -15.3193   20.6753 O   0  0  0  0  0  0  0  0  0  0  0  0
    9.7170  -14.7271   20.7816 O   0  0  0  0  0  0  0  0  0  0  0  0
  2  3  1  0
  2  1  1  6
  4  3  1  0
  5  6  2  0
  5  2  1  0
  8  7  1  6
  8  9  1  0
  8 10  1  0
 11 10  1  1
 11 12  1  0
 12  5  1  0
 13 14  2  0
 13 11  1  0
 15 13  1  0
 16 15  1  0
 16 17  1  6
 18 17  1  0
 19 18  1  0
 20 21  1  0
 20 19  1  0
 22 16  1  0
 23 22  1  0
 24 22  2  0
M  END
$$$$
