CLK.pdb
     RDKit          3D

 24 23  0  0  1  0  0  0  0  0999 V2000
    8.6559  -15.6436   19.7423 N   0  0  0  0  0  0  0  0  0  0  0  0
    7.7704  -15.9497   20.8460 C   0  0  1  0  0  0  0  0  0  0  0  0
    7.7254  -17.4432   21.0067 C   0  0  0  0  0  0  0  0  0  0  0  0
    6.8135  -17.8199   22.5201 S   0  0  0  0  0  0  0  0  0  0  0  0
    8.2695  -15.3188   22.1151 C   0  0  0  0  0  0  0  0  0  0  0  0
    9.5016  -15.3268   22.3344 O   0  0  0  0  0  0  0  0  0  0  0  0
    6.2004  -11.4042   26.3776 C   0  0  0  0  0  0  0  0  0  0  0  0
    7.3243  -12.3571   25.9674 C   0  0  1  0  0  0  0  0  0  0  0  0
    7.6428  -13.1977   27.1696 C   0  0  0  0  0  0  0  0  0  0  0  0
    6.8259  -13.1495   24.8037 C   0  0  0  0  0  0  0  0  0  0  0  0
    7.8573  -14.0528   24.1975 C   0  0  2  0  0  0  0  0  0  0  0  0
    7.3690  -14.7379   23.0250 N   0  0  0  0  0  0  0  0  0  0  0  0
    8.2036  -15.0794   25.2303 C   0  0  0  0  0  0  0  0  0  0  0  0
    7.3284  -15.8592   25.6855 O   0  0  0  0  0  0  0  0  0  0  0  0
    9.5401  -15.2030   25.7295 N   0  0  0  0  0  0  0  0  0  0  0  0
    9.9134  -16.3583   26.5067 C   0  0  1  0  0  0  0  0  0  0  0  0
   11.1592  -16.9886   25.8631 C   0  0  0  0  0  0  0  0  0  0  0  0
   11.6040  -18.1649   26.6653 C   0  0  0  0  0  0  0  0  0  0  0  0
   12.7866  -18.9085   26.1498 C   0  0  0  0  0  0  0  0  0  0  0  0
   13.2229  -20.0836   26.9735 C   0  0  0  0  0  0  0  0  0  0  0  0
   14.3382  -20.7804   26.4059 N   0  0  0  0  0  0  0  0  0  0  0  0
   10.1950  -15.9735   27.9131 C   0  0  0  0  0  0  0  0  0  0  0  0
   10.0531  -16.9083   28.9303 O   0  0  0  0  0  0  0  0  0  0  0  0
   10.5603  -14.8256   28.2253 O   0  0  0  0  0  0  0  0  0  0  0  0
  2  3  1  0
  2  1  1  6
  4  3  1  0
  5  6  2  0
  5  2  1  0
  8  7  1  1
  8  9  1  0
  8 10  1  0
 11 10  1  1
 11 12  1  0
 12  5  1  0
 13 14  2  0
 13 11  1  0
 15 13  1  0
 16 15  1  0
 16 17  1  6
 18 17  1  0
 19 18  1  0
 20 21  1  0
 20 19  1  0
 22 16  1  0
 23 22  1  0
 24 22  2  0
M  END
$$$$
