CLK.pdb
     RDKit          3D

 24 23  0  0  1  0  0  0  0  0999 V2000
    9.4614  -15.8030   19.9703 N   0  0  0  0  0  0  0  0  0  0  0  0
    8.3333  -15.9680   20.8625 C   0  0  1  0  0  0  0  0  0  0  0  0
    8.0280  -17.4361   20.9607 C   0  0  0  0  0  0  0  0  0  0  0  0
    7.2184  -17.9471   19.4286 S   0  0  0  0  0  0  0  0  0  0  0  0
    8.6538  -15.4252   22.2265 C   0  0  0  0  0  0  0  0  0  0  0  0
    9.8243  -15.5487   22.6517 O   0  0  0  0  0  0  0  0  0  0  0  0
    8.0838  -11.8799   26.1922 C   0  0  0  0  0  0  0  0  0  0  0  0
    7.0806  -13.0300   26.2927 C   0  0  1  0  0  0  0  0  0  0  0  0
    5.8575  -12.4828   26.9695 C   0  0  0  0  0  0  0  0  0  0  0  0
    6.8245  -13.5126   24.9027 C   0  0  0  0  0  0  0  0  0  0  0  0
    7.9751  -14.2589   24.2972 C   0  0  2  0  0  0  0  0  0  0  0  0
    7.6590  -14.7975   22.9962 N   0  0  0  0  0  0  0  0  0  0  0  0
    8.2892  -15.4000   25.2135 C   0  0  0  0  0  0  0  0  0  0  0  0
    7.4372  -16.2948   25.4474 O   0  0  0  0  0  0  0  0  0  0  0  0
    9.5680  -15.5059   25.8495 N   0  0  0  0  0  0  0  0  0  0  0  0
    9.9124  -16.7019   26.5767 C   0  0  1  0  0  0  0  0  0  0  0  0
   11.0992  -17.3720   25.8654 C   0  0  0  0  0  0  0  0  0  0  0  0
   11.5168  -18.5918   26.6157 C   0  0  0  0  0  0  0  0  0  0  0  0
   12.6514  -19.3662   26.0411 C   0  0  0  0  0  0  0  0  0  0  0  0
   13.0100  -20.6274   26.7693 C   0  0  0  0  0  0  0  0  0  0  0  0
   13.9752  -21.4213   26.0695 N   0  0  0  0  0  0  0  0  0  0  0  0
   10.2672  -16.3757   27.9814 C   0  0  0  0  0  0  0  0  0  0  0  0
   10.5956  -15.0721   28.3298 O   0  0  0  0  0  0  0  0  0  0  0  0
   10.2832  -17.2386   28.8780 O   0  0  0  0  0  0  0  0  0  0  0  0
  2  3  1  0
  2  1  1  6
  4  3  1  0
  5  6  2  0
  5  2  1  0
  8  7  1  6
  8  9  1  0
  8 10  1  0
 11 10  1  1
 11 12  1  0
 12  5  1  0
 13 14  2  0
 13 11  1  0
 15 13  1  0
 16 15  1  0
 16 17  1  6
 18 17  1  0
 19 18  1  0
 20 21  1  0
 20 19  1  0
 22 16  1  0
 23 22  1  0
 24 22  2  0
M  END
$$$$
