CLK.pdb
     RDKit          3D

 24 23  0  0  1  0  0  0  0  0999 V2000
    8.6889  -16.0257   19.7717 N   0  0  0  0  0  0  0  0  0  0  0  0
    7.6008  -15.8457   20.7097 C   0  0  1  0  0  0  0  0  0  0  0  0
    6.9233  -17.1738   20.8974 C   0  0  0  0  0  0  0  0  0  0  0  0
    8.1309  -18.3310   21.5805 S   0  0  0  0  0  0  0  0  0  0  0  0
    8.1178  -15.3499   22.0306 C   0  0  0  0  0  0  0  0  0  0  0  0
    9.3463  -15.4341   22.2538 O   0  0  0  0  0  0  0  0  0  0  0  0
    8.2648  -11.8220   25.9762 C   0  0  0  0  0  0  0  0  0  0  0  0
    7.2071  -12.8928   26.2483 C   0  0  1  0  0  0  0  0  0  0  0  0
    6.1195  -12.2370   27.0484 C   0  0  0  0  0  0  0  0  0  0  0  0
    6.7449  -13.4010   24.9221 C   0  0  0  0  0  0  0  0  0  0  0  0
    7.7446  -14.2727   24.2236 C   0  0  2  0  0  0  0  0  0  0  0  0
    7.2374  -14.8080   22.9831 N   0  0  0  0  0  0  0  0  0  0  0  0
    8.0453  -15.4174   25.1400 C   0  0  0  0  0  0  0  0  0  0  0  0
    7.1431  -16.2213   25.4879 O   0  0  0  0  0  0  0  0  0  0  0  0
    9.3678  -15.6299   25.6466 N   0  0  0  0  0  0  0  0  0  0  0  0
    9.6860  -16.8566   26.3337 C   0  0  1  0  0  0  0  0  0  0  0  0
   10.9066  -17.4899   25.6464 C   0  0  0  0  0  0  0  0  0  0  0  0
   11.2740  -18.7607   26.3359 C   0  0  0  0  0  0  0  0  0  0  0  0
   12.3890  -19.5422   25.7333 C   0  0  0  0  0  0  0  0  0  0  0  0
   12.7178  -20.8357   26.4177 C   0  0  0  0  0  0  0  0  0  0  0  0
   12.4366  -21.9833   25.6081 N   0  0  0  0  0  0  0  0  0  0  0  0
    9.9764  -16.5933   27.7661 C   0  0  0  0  0  0  0  0  0  0  0  0
    9.8731  -17.6199   28.6956 O   0  0  0  0  0  0  0  0  0  0  0  0
   10.3155  -15.4687   28.1774 O   0  0  0  0  0  0  0  0  0  0  0  0
  2  3  1  0
  2  1  1  6
  4  3  1  0
  5  6  2  0
  5  2  1  0
  8  7  1  6
  8  9  1  0
  8 10  1  0
 11 10  1  1
 11 12  1  0
 12  5  1  0
 13 14  2  0
 13 11  1  0
 15 13  1  0
 16 15  1  0
 16 17  1  6
 18 17  1  0
 19 18  1  0
 20 21  1  0
 20 19  1  0
 22 16  1  0
 23 22  1  0
 24 22  2  0
M  END
$$$$
