CLK.pdb
     RDKit          3D

 24 23  0  0  1  0  0  0  0  0999 V2000
    7.6494  -14.0825   19.9461 N   0  0  0  0  0  0  0  0  0  0  0  0
    7.0066  -14.7766   21.0420 C   0  0  1  0  0  0  0  0  0  0  0  0
    6.8909  -16.2280   20.6702 C   0  0  0  0  0  0  0  0  0  0  0  0
    6.0416  -17.0878   22.0131 S   0  0  0  0  0  0  0  0  0  0  0  0
    7.8145  -14.6394   22.3015 C   0  0  0  0  0  0  0  0  0  0  0  0
    9.0621  -14.6266   22.2049 O   0  0  0  0  0  0  0  0  0  0  0  0
    5.7403  -12.0249   26.7929 C   0  0  0  0  0  0  0  0  0  0  0  0
    6.6577  -12.3969   25.6271 C   0  0  1  0  0  0  0  0  0  0  0  0
    7.7552  -11.3733   25.5930 C   0  0  0  0  0  0  0  0  0  0  0  0
    7.1478  -13.7851   25.8791 C   0  0  0  0  0  0  0  0  0  0  0  0
    7.9545  -14.3582   24.7531 C   0  0  2  0  0  0  0  0  0  0  0  0
    7.1769  -14.5291   23.5494 N   0  0  0  0  0  0  0  0  0  0  0  0
    8.4334  -15.7051   25.1971 C   0  0  0  0  0  0  0  0  0  0  0  0
    7.6221  -16.6420   25.4097 O   0  0  0  0  0  0  0  0  0  0  0  0
    9.8280  -15.9654   25.3926 N   0  0  0  0  0  0  0  0  0  0  0  0
   10.2646  -17.2784   25.7967 C   0  0  1  0  0  0  0  0  0  0  0  0
   11.6146  -17.5657   25.1196 C   0  0  0  0  0  0  0  0  0  0  0  0
   11.6160  -18.9476   24.5577 C   0  0  0  0  0  0  0  0  0  0  0  0
   12.8722  -19.3899   23.8917 C   0  0  0  0  0  0  0  0  0  0  0  0
   12.8039  -20.7162   23.1947 C   0  0  0  0  0  0  0  0  0  0  0  0
   14.0657  -21.1312   22.6587 N   0  0  0  0  0  0  0  0  0  0  0  0
   10.3993  -17.3530   27.2737 C   0  0  0  0  0  0  0  0  0  0  0  0
   10.5134  -18.5878   27.8990 O   0  0  0  0  0  0  0  0  0  0  0  0
   10.4147  -16.3352   27.9896 O   0  0  0  0  0  0  0  0  0  0  0  0
  2  3  1  0
  2  1  1  6
  4  3  1  0
  5  6  2  0
  5  2  1  0
  8  7  1  1
  8  9  1  0
  8 10  1  0
 11 10  1  1
 11 12  1  0
 12  5  1  0
 13 14  2  0
 13 11  1  0
 15 13  1  0
 16 15  1  0
 16 17  1  6
 18 17  1  0
 19 18  1  0
 20 21  1  0
 20 19  1  0
 22 16  1  0
 23 22  1  0
 24 22  2  0
M  END
$$$$
