CLK.pdb
     RDKit          3D

 24 23  0  0  1  0  0  0  0  0999 V2000
    7.9415  -16.3785   19.9418 N   0  0  0  0  0  0  0  0  0  0  0  0
    7.5076  -16.6367   21.2987 C   0  0  1  0  0  0  0  0  0  0  0  0
    7.9993  -18.0008   21.6933 C   0  0  0  0  0  0  0  0  0  0  0  0
    7.2367  -18.4401   23.2711 S   0  0  0  0  0  0  0  0  0  0  0  0
    8.0667  -15.6057   22.2380 C   0  0  0  0  0  0  0  0  0  0  0  0
    9.1789  -15.1003   21.9668 O   0  0  0  0  0  0  0  0  0  0  0  0
    5.9520  -11.9920   26.7546 C   0  0  0  0  0  0  0  0  0  0  0  0
    7.1602  -12.4164   25.9183 C   0  0  1  0  0  0  0  0  0  0  0  0
    8.2445  -12.7997   26.8831 C   0  0  0  0  0  0  0  0  0  0  0  0
    6.7162  -13.5439   25.0452 C   0  0  0  0  0  0  0  0  0  0  0  0
    7.8095  -14.1244   24.1997 C   0  0  2  0  0  0  0  0  0  0  0  0
    7.3520  -15.2260   23.3874 N   0  0  0  0  0  0  0  0  0  0  0  0
    8.8620  -14.6356   25.1333 C   0  0  0  0  0  0  0  0  0  0  0  0
    9.4455  -13.8626   25.9354 O   0  0  0  0  0  0  0  0  0  0  0  0
    9.2347  -16.0183   25.1399 N   0  0  0  0  0  0  0  0  0  0  0  0
   10.2054  -16.4967   26.0922 C   0  0  1  0  0  0  0  0  0  0  0  0
    9.8945  -17.9714   26.3958 C   0  0  0  0  0  0  0  0  0  0  0  0
   10.8989  -18.5139   27.3562 C   0  0  0  0  0  0  0  0  0  0  0  0
   10.3727  -19.3875   28.4411 C   0  0  0  0  0  0  0  0  0  0  0  0
   11.3817  -19.8436   29.4527 C   0  0  0  0  0  0  0  0  0  0  0  0
   10.8407  -20.7682   30.4036 N   0  0  0  0  0  0  0  0  0  0  0  0
   11.5813  -16.3580   25.5509 C   0  0  0  0  0  0  0  0  0  0  0  0
   11.7793  -16.2305   24.1822 O   0  0  0  0  0  0  0  0  0  0  0  0
   12.5849  -16.3508   26.2866 O   0  0  0  0  0  0  0  0  0  0  0  0
  2  3  1  0
  2  1  1  6
  4  3  1  0
  5  6  2  0
  5  2  1  0
  8  7  1  1
  8  9  1  0
  8 10  1  0
 11 10  1  1
 11 12  1  0
 12  5  1  0
 13 14  2  0
 13 11  1  0
 15 13  1  0
 16 15  1  0
 16 17  1  6
 18 17  1  0
 19 18  1  0
 20 21  1  0
 20 19  1  0
 22 16  1  0
 23 22  1  0
 24 22  2  0
M  END
$$$$
