CLK.pdb
     RDKit          3D

 24 23  0  0  1  0  0  0  0  0999 V2000
    8.2771  -15.1299   19.9107 N   0  0  0  0  0  0  0  0  0  0  0  0
    7.5630  -15.5622   21.0936 C   0  0  1  0  0  0  0  0  0  0  0  0
    7.4253  -17.0574   21.0341 C   0  0  0  0  0  0  0  0  0  0  0  0
    6.3259  -17.4678   19.6604 S   0  0  0  0  0  0  0  0  0  0  0  0
    8.3126  -15.1719   22.3361 C   0  0  0  0  0  0  0  0  0  0  0  0
    9.5531  -15.0269   22.2569 O   0  0  0  0  0  0  0  0  0  0  0  0
    5.7837  -12.2832   26.4554 C   0  0  0  0  0  0  0  0  0  0  0  0
    6.7085  -12.7038   25.3121 C   0  0  1  0  0  0  0  0  0  0  0  0
    7.6285  -11.5473   25.0485 C   0  0  0  0  0  0  0  0  0  0  0  0
    7.4202  -13.9401   25.7545 C   0  0  0  0  0  0  0  0  0  0  0  0
    8.3385  -14.5158   24.7189 C   0  0  2  0  0  0  0  0  0  0  0  0
    7.6300  -14.9773   23.5494 N   0  0  0  0  0  0  0  0  0  0  0  0
    9.0251  -15.6895   25.3446 C   0  0  0  0  0  0  0  0  0  0  0  0
    9.5649  -15.5949   26.4764 O   0  0  0  0  0  0  0  0  0  0  0  0
    9.0871  -16.9530   24.6732 N   0  0  0  0  0  0  0  0  0  0  0  0
    9.8176  -18.0461   25.2641 C   0  0  1  0  0  0  0  0  0  0  0  0
    9.6655  -19.2746   24.3524 C   0  0  0  0  0  0  0  0  0  0  0  0
   10.3887  -20.4375   24.9439 C   0  0  0  0  0  0  0  0  0  0  0  0
    9.6049  -21.6936   25.1017 C   0  0  0  0  0  0  0  0  0  0  0  0
   10.3428  -22.8450   25.7176 C   0  0  0  0  0  0  0  0  0  0  0  0
   10.1620  -22.9299   27.1359 N   0  0  0  0  0  0  0  0  0  0  0  0
   11.2512  -17.6922   25.4219 C   0  0  0  0  0  0  0  0  0  0  0  0
   11.9629  -18.1521   26.5221 O   0  0  0  0  0  0  0  0  0  0  0  0
   11.8543  -16.9864   24.5931 O   0  0  0  0  0  0  0  0  0  0  0  0
  2  3  1  0
  2  1  1  6
  4  3  1  0
  5  6  2  0
  5  2  1  0
  8  7  1  1
  8  9  1  0
  8 10  1  0
 11 10  1  1
 11 12  1  0
 12  5  1  0
 13 14  2  0
 13 11  1  0
 15 13  1  0
 16 15  1  0
 16 17  1  6
 18 17  1  0
 19 18  1  0
 20 21  1  0
 20 19  1  0
 22 16  1  0
 23 22  1  0
 24 22  2  0
M  END
$$$$
