CLK.pdb
     RDKit          3D

 24 23  0  0  1  0  0  0  0  0999 V2000
    9.0117  -16.1691   20.2253 N   0  0  0  0  0  0  0  0  0  0  0  0
    8.1847  -16.4531   21.3791 C   0  0  1  0  0  0  0  0  0  0  0  0
    8.3430  -17.9084   21.7186 C   0  0  0  0  0  0  0  0  0  0  0  0
    7.2946  -18.2717   23.1445 S   0  0  0  0  0  0  0  0  0  0  0  0
    8.6045  -15.6113   22.5509 C   0  0  0  0  0  0  0  0  0  0  0  0
    9.8249  -15.3836   22.7080 O   0  0  0  0  0  0  0  0  0  0  0  0
    8.1065  -11.4637   25.8452 C   0  0  0  0  0  0  0  0  0  0  0  0
    7.2606  -12.6529   26.3029 C   0  0  1  0  0  0  0  0  0  0  0  0
    6.0636  -12.0886   27.0114 C   0  0  0  0  0  0  0  0  0  0  0  0
    6.9121  -13.4400   25.0825 C   0  0  0  0  0  0  0  0  0  0  0  0
    8.0473  -14.2558   24.5411 C   0  0  2  0  0  0  0  0  0  0  0  0
    7.6447  -15.0983   23.4407 N   0  0  0  0  0  0  0  0  0  0  0  0
    8.5261  -15.1349   25.6539 C   0  0  0  0  0  0  0  0  0  0  0  0
    7.7668  -15.9924   26.1729 O   0  0  0  0  0  0  0  0  0  0  0  0
    9.8616  -15.0250   26.1593 N   0  0  0  0  0  0  0  0  0  0  0  0
   10.3440  -15.9765   27.1287 C   0  0  1  0  0  0  0  0  0  0  0  0
   11.8357  -16.2279   26.8545 C   0  0  0  0  0  0  0  0  0  0  0  0
   12.0738  -17.6853   26.6434 C   0  0  0  0  0  0  0  0  0  0  0  0
   12.4498  -18.1014   25.2641 C   0  0  0  0  0  0  0  0  0  0  0  0
   12.6609  -19.5731   25.0660 C   0  0  0  0  0  0  0  0  0  0  0  0
   13.0453  -19.9070   23.7272 N   0  0  0  0  0  0  0  0  0  0  0  0
   10.1502  -15.4615   28.5081 C   0  0  0  0  0  0  0  0  0  0  0  0
   10.1650  -16.3382   29.5850 O   0  0  0  0  0  0  0  0  0  0  0  0
    9.9715  -14.2529   28.7448 O   0  0  0  0  0  0  0  0  0  0  0  0
  2  3  1  0
  2  1  1  6
  4  3  1  0
  5  6  2  0
  5  2  1  0
  8  7  1  6
  8  9  1  0
  8 10  1  0
 11 10  1  1
 11 12  1  0
 12  5  1  0
 13 14  2  0
 13 11  1  0
 15 13  1  0
 16 15  1  0
 16 17  1  6
 18 17  1  0
 19 18  1  0
 20 21  1  0
 20 19  1  0
 22 16  1  0
 23 22  1  0
 24 22  2  0
M  END
$$$$
