FHW.pdb
     RDKit          3D

 36 39  0  0  1  0  0  0  0  0999 V2000
    9.3275  -16.3759   16.1062 N   0  0  0  0  0  0  0  0  0  0  0  0
    9.3072  -15.6543   17.3424 C   0  0  1  0  0  0  0  0  0  0  0  0
    7.9303  -15.0018   17.4989 C   0  0  0  0  0  0  0  0  0  0  0  0
    7.8154  -14.4835   18.8869 C   0  0  0  0  0  0  0  0  0  0  0  0
    8.4904  -13.3503   19.2927 C   0  0  0  0  0  0  0  0  0  0  0  0
    8.3785  -12.8757   20.5799 C   0  0  0  0  0  0  0  0  0  0  0  0
    7.5921  -13.5041   21.5217 C   0  0  0  0  0  0  0  0  0  0  0  0
    6.9154  -14.6397   21.1158 C   0  0  0  0  0  0  0  0  0  0  0  0
    7.0241  -15.1208   19.8246 C   0  0  0  0  0  0  0  0  0  0  0  0
    9.5688  -16.5210   18.5201 C   0  0  0  0  0  0  0  0  0  0  0  0
    8.7088  -17.4199   18.7574 O   0  0  0  0  0  0  0  0  0  0  0  0
   10.6856  -16.4022   19.3613 N   0  0  0  0  0  0  0  0  0  0  0  0
   10.7961  -17.2858   20.5568 C   0  0  1  0  0  0  0  0  0  0  0  0
   12.2077  -17.7523   20.6110 C   0  0  0  0  0  0  0  0  0  0  0  0
   12.4611  -18.9152   19.7684 C   0  0  0  0  0  0  0  0  0  0  0  0
   11.7911  -20.1430   19.8659 C   0  0  0  0  0  0  0  0  0  0  0  0
   12.3160  -20.9401   18.9239 N   0  0  0  0  0  0  0  0  0  0  0  0
   13.2727  -20.2883   18.2425 C   0  0  0  0  0  0  0  0  0  0  0  0
   13.3424  -19.0604   18.7738 N   0  0  0  0  0  0  0  0  0  0  0  0
   10.4165  -16.4891   21.7303 C   0  0  0  0  0  0  0  0  0  0  0  0
   10.8968  -15.3108   21.8145 O   0  0  0  0  0  0  0  0  0  0  0  0
    9.5749  -16.8754   22.7747 N   0  0  0  0  0  0  0  0  0  0  0  0
    9.2611  -15.9776   23.8803 C   0  0  1  0  0  0  0  0  0  0  0  0
    8.1683  -15.0317   23.4929 C   0  0  0  0  0  0  0  0  0  0  0  0
    7.4499  -14.4949   24.6539 C   0  0  0  0  0  0  0  0  0  0  0  0
    6.3677  -15.0692   25.3205 C   0  0  0  0  0  0  0  0  0  0  0  0
    5.9632  -14.2653   26.3099 N   0  0  0  0  0  0  0  0  0  0  0  0
    6.7213  -13.1645   26.3521 C   0  0  0  0  0  0  0  0  0  0  0  0
    6.6998  -12.0667   27.1958 C   0  0  0  0  0  0  0  0  0  0  0  0
    7.6376  -11.0886   26.9946 C   0  0  0  0  0  0  0  0  0  0  0  0
    8.5878  -11.1873   25.9747 C   0  0  0  0  0  0  0  0  0  0  0  0
    8.5826  -12.2896   25.1530 C   0  0  0  0  0  0  0  0  0  0  0  0
    7.6498  -13.2856   25.3345 C   0  0  0  0  0  0  0  0  0  0  0  0
    9.1291  -16.6364   25.1767 C   0  0  0  0  0  0  0  0  0  0  0  0
    8.7580  -17.9940   25.1688 O   0  0  0  0  0  0  0  0  0  0  0  0
    9.3056  -16.1173   26.3040 O   0  0  0  0  0  0  0  0  0  0  0  0
  2  1  1  6
  3  2  1  0
  3  4  1  0
  4  5  2  0
  4  9  1  0
  5  6  1  0
  6  7  2  0
  8  7  1  0
  9  8  2  0
 10  2  1  0
 11 10  2  0
 12 10  1  0
 13 12  1  0
 13 14  1  1
 14 15  1  0
 15 19  1  0
 15 16  2  0
 16 17  1  0
 18 17  1  0
 19 18  2  0
 20 21  2  0
 20 13  1  0
 22 20  1  0
 23 22  1  0
 23 24  1  6
 24 25  1  0
 25 26  2  0
 25 33  1  0
 26 27  1  0
 27 28  1  0
 28 29  2  0
 29 30  1  0
 31 30  2  0
 32 31  1  0
 33 32  2  0
 33 28  1  0
 34 23  1  0
 35 34  1  0
 36 34  2  0
M  END
$$$$
