FHW.pdb
     RDKit          3D

 36 39  0  0  1  0  0  0  0  0999 V2000
    6.7888  -17.9144   20.9719 N   0  0  0  0  0  0  0  0  0  0  0  0
    7.6782  -16.8432   21.3045 C   0  0  1  0  0  0  0  0  0  0  0  0
    6.8627  -15.7217   21.9551 C   0  0  0  0  0  0  0  0  0  0  0  0
    7.2731  -14.4315   21.3425 C   0  0  0  0  0  0  0  0  0  0  0  0
    6.7124  -13.9807   20.1648 C   0  0  0  0  0  0  0  0  0  0  0  0
    7.0970  -12.7840   19.6036 C   0  0  0  0  0  0  0  0  0  0  0  0
    8.0549  -11.9816   20.1858 C   0  0  0  0  0  0  0  0  0  0  0  0
    8.6171  -12.4326   21.3659 C   0  0  0  0  0  0  0  0  0  0  0  0
    8.2348  -13.6333   21.9338 C   0  0  0  0  0  0  0  0  0  0  0  0
    8.7585  -17.2589   22.2356 C   0  0  0  0  0  0  0  0  0  0  0  0
    8.4457  -18.1215   23.1085 O   0  0  0  0  0  0  0  0  0  0  0  0
   10.0705  -16.7624   22.2024 N   0  0  0  0  0  0  0  0  0  0  0  0
   11.0733  -17.2847   23.1737 C   0  0  1  0  0  0  0  0  0  0  0  0
   12.4134  -17.0184   22.5851 C   0  0  0  0  0  0  0  0  0  0  0  0
   12.6491  -17.7432   21.3419 C   0  0  0  0  0  0  0  0  0  0  0  0
   12.1935  -19.0402   21.0658 C   0  0  0  0  0  0  0  0  0  0  0  0
   12.6200  -19.3396   19.8303 N   0  0  0  0  0  0  0  0  0  0  0  0
   13.3141  -18.3113   19.3152 C   0  0  0  0  0  0  0  0  0  0  0  0
   13.3180  -17.3536   20.2520 N   0  0  0  0  0  0  0  0  0  0  0  0
   10.8625  -16.5820   24.4456 C   0  0  0  0  0  0  0  0  0  0  0  0
   11.3314  -15.4001   24.5427 O   0  0  0  0  0  0  0  0  0  0  0  0
   10.1944  -17.0622   25.5731 N   0  0  0  0  0  0  0  0  0  0  0  0
   10.6452  -16.7493   26.9243 C   0  0  1  0  0  0  0  0  0  0  0  0
   10.0289  -15.4712   27.3993 C   0  0  0  0  0  0  0  0  0  0  0  0
    8.6301  -15.3304   26.9800 C   0  0  0  0  0  0  0  0  0  0  0  0
    7.6941  -16.3479   26.7957 C   0  0  0  0  0  0  0  0  0  0  0  0
    6.5343  -15.8298   26.3770 N   0  0  0  0  0  0  0  0  0  0  0  0
    6.6331  -14.5007   26.2669 C   0  0  0  0  0  0  0  0  0  0  0  0
    5.7100  -13.5395   25.8910 C   0  0  0  0  0  0  0  0  0  0  0  0
    6.1137  -12.2304   25.8956 C   0  0  0  0  0  0  0  0  0  0  0  0
    7.4117  -11.8684   26.2658 C   0  0  0  0  0  0  0  0  0  0  0  0
    8.3055  -12.8465   26.6333 C   0  0  0  0  0  0  0  0  0  0  0  0
    7.9238  -14.1691   26.6360 C   0  0  0  0  0  0  0  0  0  0  0  0
   10.6112  -17.8777   27.8506 C   0  0  0  0  0  0  0  0  0  0  0  0
   11.2544  -17.7060   29.0907 O   0  0  0  0  0  0  0  0  0  0  0  0
   10.0725  -18.9927   27.6560 O   0  0  0  0  0  0  0  0  0  0  0  0
  2  1  1  1
  3  2  1  0
  3  4  1  0
  4  5  2  0
  4  9  1  0
  5  6  1  0
  6  7  2  0
  8  7  1  0
  9  8  2  0
 10  2  1  0
 11 10  2  0
 12 10  1  0
 13 12  1  0
 13 14  1  6
 14 15  1  0
 15 19  1  0
 15 16  2  0
 16 17  1  0
 18 17  1  0
 19 18  2  0
 20 21  2  0
 20 13  1  0
 22 20  1  0
 23 22  1  0
 23 24  1  1
 24 25  1  0
 25 26  2  0
 25 33  1  0
 26 27  1  0
 27 28  1  0
 28 29  2  0
 29 30  1  0
 31 30  2  0
 32 31  1  0
 33 32  2  0
 33 28  1  0
 34 23  1  0
 35 34  1  0
 36 34  2  0
M  END
$$$$
