FHW.pdb
     RDKit          3D

 36 39  0  0  1  0  0  0  0  0999 V2000
    7.1200  -17.2139   18.1367 N   0  0  0  0  0  0  0  0  0  0  0  0
    7.5718  -16.2473   19.0911 C   0  0  1  0  0  0  0  0  0  0  0  0
    6.5101  -15.1494   19.2072 C   0  0  0  0  0  0  0  0  0  0  0  0
    6.9610  -14.1717   20.2315 C   0  0  0  0  0  0  0  0  0  0  0  0
    7.7264  -13.0740   19.8943 C   0  0  0  0  0  0  0  0  0  0  0  0
    8.1398  -12.1721   20.8484 C   0  0  0  0  0  0  0  0  0  0  0  0
    7.8123  -12.3191   22.1794 C   0  0  0  0  0  0  0  0  0  0  0  0
    7.0453  -13.4187   22.5181 C   0  0  0  0  0  0  0  0  0  0  0  0
    6.6274  -14.3275   21.5642 C   0  0  0  0  0  0  0  0  0  0  0  0
    7.8117  -16.8328   20.4351 C   0  0  0  0  0  0  0  0  0  0  0  0
    6.8397  -17.4532   20.9586 O   0  0  0  0  0  0  0  0  0  0  0  0
    9.0228  -16.7391   21.1376 N   0  0  0  0  0  0  0  0  0  0  0  0
    9.2553  -17.6260   22.3129 C   0  0  1  0  0  0  0  0  0  0  0  0
   10.1753  -18.7026   21.8571 C   0  0  0  0  0  0  0  0  0  0  0  0
   10.3876  -19.7396   22.8601 C   0  0  0  0  0  0  0  0  0  0  0  0
    9.8408  -19.7367   24.1512 C   0  0  0  0  0  0  0  0  0  0  0  0
   10.2758  -20.8535   24.7525 N   0  0  0  0  0  0  0  0  0  0  0  0
   11.0608  -21.5558   23.9188 C   0  0  0  0  0  0  0  0  0  0  0  0
   11.1135  -20.8590   22.7757 N   0  0  0  0  0  0  0  0  0  0  0  0
    9.8332  -16.8003   23.3807 C   0  0  0  0  0  0  0  0  0  0  0  0
   10.8048  -16.0369   23.0655 O   0  0  0  0  0  0  0  0  0  0  0  0
    9.4328  -16.7495   24.7169 N   0  0  0  0  0  0  0  0  0  0  0  0
   10.3734  -16.4466   25.7895 C   0  0  1  0  0  0  0  0  0  0  0  0
    9.8247  -15.3773   26.6808 C   0  0  0  0  0  0  0  0  0  0  0  0
    8.4634  -14.9769   26.3083 C   0  0  0  0  0  0  0  0  0  0  0  0
    7.4058  -15.8090   25.9417 C   0  0  0  0  0  0  0  0  0  0  0  0
    6.3306  -15.0730   25.6395 N   0  0  0  0  0  0  0  0  0  0  0  0
    6.6040  -13.7719   25.7836 C   0  0  0  0  0  0  0  0  0  0  0  0
    5.8206  -12.6441   25.6057 C   0  0  0  0  0  0  0  0  0  0  0  0
    6.3917  -11.4243   25.8559 C   0  0  0  0  0  0  0  0  0  0  0  0
    7.7196  -11.3128   26.2771 C   0  0  0  0  0  0  0  0  0  0  0  0
    8.4717  -12.4516   26.4437 C   0  0  0  0  0  0  0  0  0  0  0  0
    7.9207  -13.6889   26.1978 C   0  0  0  0  0  0  0  0  0  0  0  0
   10.9412  -17.6205   26.4466 C   0  0  0  0  0  0  0  0  0  0  0  0
   12.0066  -17.4003   27.3396 O   0  0  0  0  0  0  0  0  0  0  0  0
   10.5834  -18.8124   26.2947 O   0  0  0  0  0  0  0  0  0  0  0  0
  2  1  1  6
  3  2  1  0
  3  4  1  0
  4  5  2  0
  4  9  1  0
  5  6  1  0
  6  7  2  0
  8  7  1  0
  9  8  2  0
 10  2  1  0
 11 10  2  0
 12 10  1  0
 13 12  1  0
 13 14  1  6
 14 15  1  0
 15 19  1  0
 15 16  2  0
 16 17  1  0
 18 17  1  0
 19 18  2  0
 20 21  2  0
 20 13  1  0
 22 20  1  0
 23 22  1  0
 23 24  1  1
 24 25  1  0
 25 26  2  0
 25 33  1  0
 26 27  1  0
 27 28  1  0
 28 29  2  0
 29 30  1  0
 31 30  2  0
 32 31  1  0
 33 32  2  0
 33 28  1  0
 34 23  1  0
 35 34  1  0
 36 34  2  0
M  END
$$$$
