FHW.pdb
     RDKit          3D

 36 39  0  0  1  0  0  0  0  0999 V2000
    5.6557  -17.2971   20.8066 N   0  0  0  0  0  0  0  0  0  0  0  0
    6.8447  -16.5420   21.0619 C   0  0  1  0  0  0  0  0  0  0  0  0
    6.4534  -15.2591   21.8017 C   0  0  0  0  0  0  0  0  0  0  0  0
    7.1142  -14.1120   21.1266 C   0  0  0  0  0  0  0  0  0  0  0  0
    7.0020  -13.9129   19.7656 C   0  0  0  0  0  0  0  0  0  0  0  0
    7.6164  -12.8475   19.1473 C   0  0  0  0  0  0  0  0  0  0  0  0
    8.3693  -11.9323   19.8517 C   0  0  0  0  0  0  0  0  0  0  0  0
    8.4821  -12.1312   21.2154 C   0  0  0  0  0  0  0  0  0  0  0  0
    7.8674  -13.1991   21.8415 C   0  0  0  0  0  0  0  0  0  0  0  0
    7.8370  -17.2877   21.8779 C   0  0  0  0  0  0  0  0  0  0  0  0
    7.3761  -17.9534   22.8517 O   0  0  0  0  0  0  0  0  0  0  0  0
    9.2193  -17.2954   21.6360 N   0  0  0  0  0  0  0  0  0  0  0  0
   10.1162  -18.0564   22.5515 C   0  0  1  0  0  0  0  0  0  0  0  0
   11.3722  -18.3152   21.7974 C   0  0  0  0  0  0  0  0  0  0  0  0
   12.3773  -19.0235   22.5814 C   0  0  0  0  0  0  0  0  0  0  0  0
   13.5790  -18.4678   23.0428 C   0  0  0  0  0  0  0  0  0  0  0  0
   14.2162  -19.4389   23.7128 N   0  0  0  0  0  0  0  0  0  0  0  0
   13.4887  -20.5681   23.7001 C   0  0  0  0  0  0  0  0  0  0  0  0
   12.3763  -20.2908   23.0069 N   0  0  0  0  0  0  0  0  0  0  0  0
   10.3315  -17.2295   23.7456 C   0  0  0  0  0  0  0  0  0  0  0  0
   10.9991  -16.1533   23.5961 O   0  0  0  0  0  0  0  0  0  0  0  0
    9.8789  -17.4856   25.0409 N   0  0  0  0  0  0  0  0  0  0  0  0
   10.5475  -16.9301   26.2119 C   0  0  1  0  0  0  0  0  0  0  0  0
   10.2097  -15.4809   26.3696 C   0  0  0  0  0  0  0  0  0  0  0  0
    8.7851  -15.2074   26.1505 C   0  0  0  0  0  0  0  0  0  0  0  0
    7.7632  -16.1373   25.9603 C   0  0  0  0  0  0  0  0  0  0  0  0
    6.6025  -15.5040   25.7587 N   0  0  0  0  0  0  0  0  0  0  0  0
    6.7831  -14.1797   25.8031 C   0  0  0  0  0  0  0  0  0  0  0  0
    5.8938  -13.1269   25.6689 C   0  0  0  0  0  0  0  0  0  0  0  0
    6.3885  -11.8547   25.7854 C   0  0  0  0  0  0  0  0  0  0  0  0
    7.7437  -11.6184   26.0315 C   0  0  0  0  0  0  0  0  0  0  0  0
    8.6017  -12.6852   26.1590 C   0  0  0  0  0  0  0  0  0  0  0  0
    8.1288  -13.9729   26.0452 C   0  0  0  0  0  0  0  0  0  0  0  0
   10.4570  -17.7587   27.4109 C   0  0  0  0  0  0  0  0  0  0  0  0
   11.2517  -17.3817   28.5097 O   0  0  0  0  0  0  0  0  0  0  0  0
    9.7476  -18.7806   27.5654 O   0  0  0  0  0  0  0  0  0  0  0  0
  2  1  1  1
  3  2  1  0
  3  4  1  0
  4  5  2  0
  4  9  1  0
  5  6  1  0
  6  7  2  0
  8  7  1  0
  9  8  2  0
 10  2  1  0
 11 10  2  0
 12 10  1  0
 13 12  1  0
 13 14  1  6
 14 15  1  0
 15 19  1  0
 15 16  2  0
 16 17  1  0
 18 17  1  0
 19 18  2  0
 20 21  2  0
 20 13  1  0
 22 20  1  0
 23 22  1  0
 23 24  1  1
 24 25  1  0
 25 26  2  0
 25 33  1  0
 26 27  1  0
 27 28  1  0
 28 29  2  0
 29 30  1  0
 31 30  2  0
 32 31  1  0
 33 32  2  0
 33 28  1  0
 34 23  1  0
 35 34  1  0
 36 34  2  0
M  END
$$$$
