FHW.pdb
     RDKit          3D

 36 39  0  0  1  0  0  0  0  0999 V2000
    6.3207  -17.9289   20.2470 N   0  0  0  0  0  0  0  0  0  0  0  0
    7.1973  -16.8217   20.4807 C   0  0  1  0  0  0  0  0  0  0  0  0
    6.3615  -15.6410   20.9842 C   0  0  0  0  0  0  0  0  0  0  0  0
    7.2138  -14.4238   20.9621 C   0  0  0  0  0  0  0  0  0  0  0  0
    7.5810  -13.8209   19.7763 C   0  0  0  0  0  0  0  0  0  0  0  0
    8.3701  -12.6931   19.7636 C   0  0  0  0  0  0  0  0  0  0  0  0
    8.8299  -12.1133   20.9267 C   0  0  0  0  0  0  0  0  0  0  0  0
    8.4622  -12.7168   22.1154 C   0  0  0  0  0  0  0  0  0  0  0  0
    7.6702  -13.8493   22.1340 C   0  0  0  0  0  0  0  0  0  0  0  0
    8.2562  -17.1251   21.4775 C   0  0  0  0  0  0  0  0  0  0  0  0
    7.9324  -17.9071   22.4196 O   0  0  0  0  0  0  0  0  0  0  0  0
    9.5598  -16.6075   21.4341 N   0  0  0  0  0  0  0  0  0  0  0  0
   10.6061  -17.1898   22.3219 C   0  0  1  0  0  0  0  0  0  0  0  0
   11.9158  -16.9132   21.6727 C   0  0  0  0  0  0  0  0  0  0  0  0
   12.1218  -17.6760   20.4470 C   0  0  0  0  0  0  0  0  0  0  0  0
   12.0779  -19.0741   20.3503 C   0  0  0  0  0  0  0  0  0  0  0  0
   12.3196  -19.3756   19.0662 N   0  0  0  0  0  0  0  0  0  0  0  0
   12.5120  -18.2539   18.3527 C   0  0  0  0  0  0  0  0  0  0  0  0
   12.3869  -17.2348   19.2133 N   0  0  0  0  0  0  0  0  0  0  0  0
   10.4771  -16.5468   23.6356 C   0  0  0  0  0  0  0  0  0  0  0  0
   10.9653  -15.3754   23.7612 O   0  0  0  0  0  0  0  0  0  0  0  0
    9.8688  -17.0741   24.7758 N   0  0  0  0  0  0  0  0  0  0  0  0
   10.2800  -16.6789   26.1181 C   0  0  1  0  0  0  0  0  0  0  0  0
    9.1098  -16.6951   27.0505 C   0  0  0  0  0  0  0  0  0  0  0  0
    7.9228  -16.0523   26.4760 C   0  0  0  0  0  0  0  0  0  0  0  0
    6.8632  -16.6691   25.8111 C   0  0  0  0  0  0  0  0  0  0  0  0
    5.9837  -15.7481   25.4023 N   0  0  0  0  0  0  0  0  0  0  0  0
    6.3930  -14.5259   25.7586 C   0  0  0  0  0  0  0  0  0  0  0  0
    5.8228  -13.2773   25.5762 C   0  0  0  0  0  0  0  0  0  0  0  0
    6.4874  -12.1918   26.0830 C   0  0  0  0  0  0  0  0  0  0  0  0
    7.7006  -12.3310   26.7626 C   0  0  0  0  0  0  0  0  0  0  0  0
    8.2415  -13.5844   26.9266 C   0  0  0  0  0  0  0  0  0  0  0  0
    7.5930  -14.6905   26.4257 C   0  0  0  0  0  0  0  0  0  0  0  0
   11.5035  -17.3209   26.5903 C   0  0  0  0  0  0  0  0  0  0  0  0
   12.0279  -16.8728   27.8172 O   0  0  0  0  0  0  0  0  0  0  0  0
   12.1451  -18.2302   26.0131 O   0  0  0  0  0  0  0  0  0  0  0  0
  2  1  1  1
  3  2  1  0
  3  4  1  0
  4  5  2  0
  4  9  1  0
  5  6  1  0
  6  7  2  0
  8  7  1  0
  9  8  2  0
 10  2  1  0
 11 10  2  0
 12 10  1  0
 13 12  1  0
 13 14  1  6
 14 15  1  0
 15 19  1  0
 15 16  2  0
 16 17  1  0
 18 17  1  0
 19 18  2  0
 20 21  2  0
 20 13  1  0
 22 20  1  0
 23 22  1  0
 23 24  1  1
 24 25  1  0
 25 26  2  0
 25 33  1  0
 26 27  1  0
 27 28  1  0
 28 29  2  0
 29 30  1  0
 31 30  2  0
 32 31  1  0
 33 32  2  0
 33 28  1  0
 34 23  1  0
 35 34  1  0
 36 34  2  0
M  END
$$$$
