FHW.pdb
     RDKit          3D

 36 39  0  0  1  0  0  0  0  0999 V2000
    6.7872  -18.3172   18.9142 N   0  0  0  0  0  0  0  0  0  0  0  0
    7.3861  -17.1806   19.5455 C   0  0  1  0  0  0  0  0  0  0  0  0
    6.2996  -16.4297   20.3210 C   0  0  0  0  0  0  0  0  0  0  0  0
    6.8781  -15.1535   20.8160 C   0  0  0  0  0  0  0  0  0  0  0  0
    7.2591  -14.1493   19.9495 C   0  0  0  0  0  0  0  0  0  0  0  0
    7.7936  -12.9694   20.4154 C   0  0  0  0  0  0  0  0  0  0  0  0
    7.9738  -12.7334   21.7616 C   0  0  0  0  0  0  0  0  0  0  0  0
    7.5921  -13.7391   22.6305 C   0  0  0  0  0  0  0  0  0  0  0  0
    7.0549  -14.9258   22.1683 C   0  0  0  0  0  0  0  0  0  0  0  0
    8.4801  -17.5502   20.4800 C   0  0  0  0  0  0  0  0  0  0  0  0
    8.1758  -18.3540   21.4102 O   0  0  0  0  0  0  0  0  0  0  0  0
    9.7961  -17.0712   20.3916 N   0  0  0  0  0  0  0  0  0  0  0  0
   10.8192  -17.5660   21.3562 C   0  0  1  0  0  0  0  0  0  0  0  0
   12.1429  -17.3822   20.7026 C   0  0  0  0  0  0  0  0  0  0  0  0
   12.4142  -18.3716   19.6663 C   0  0  0  0  0  0  0  0  0  0  0  0
   11.8608  -19.6589   19.6157 C   0  0  0  0  0  0  0  0  0  0  0  0
   12.3617  -20.2469   18.5196 N   0  0  0  0  0  0  0  0  0  0  0  0
   13.1941  -19.4084   17.8804 C   0  0  0  0  0  0  0  0  0  0  0  0
   13.2095  -18.2759   18.5960 N   0  0  0  0  0  0  0  0  0  0  0  0
   10.6806  -16.7791   22.5880 C   0  0  0  0  0  0  0  0  0  0  0  0
   10.5488  -15.5171   22.4613 O   0  0  0  0  0  0  0  0  0  0  0  0
   10.6702  -17.2598   23.8984 N   0  0  0  0  0  0  0  0  0  0  0  0
   10.4562  -16.3764   25.0389 C   0  0  1  0  0  0  0  0  0  0  0  0
    9.3723  -15.3890   24.7404 C   0  0  0  0  0  0  0  0  0  0  0  0
    9.0817  -14.5101   25.8786 C   0  0  0  0  0  0  0  0  0  0  0  0
    9.5521  -14.6331   27.1858 C   0  0  0  0  0  0  0  0  0  0  0  0
    9.0406  -13.6600   27.9476 N   0  0  0  0  0  0  0  0  0  0  0  0
    8.2402  -12.8738   27.2199 C   0  0  0  0  0  0  0  0  0  0  0  0
    7.5089  -11.7466   27.5548 C   0  0  0  0  0  0  0  0  0  0  0  0
    6.7860  -11.1370   26.5636 C   0  0  0  0  0  0  0  0  0  0  0  0
    6.7812  -11.6293   25.2557 C   0  0  0  0  0  0  0  0  0  0  0  0
    7.5170  -12.7512   24.9550 C   0  0  0  0  0  0  0  0  0  0  0  0
    8.2510  -13.3821   25.9339 C   0  0  0  0  0  0  0  0  0  0  0  0
   10.3853  -17.0582   26.3282 C   0  0  0  0  0  0  0  0  0  0  0  0
    9.6576  -18.2621   26.3753 O   0  0  0  0  0  0  0  0  0  0  0  0
   10.9010  -16.6805   27.4066 O   0  0  0  0  0  0  0  0  0  0  0  0
  2  1  1  1
  3  2  1  0
  3  4  1  0
  4  5  2  0
  4  9  1  0
  5  6  1  0
  6  7  2  0
  8  7  1  0
  9  8  2  0
 10  2  1  0
 11 10  2  0
 12 10  1  0
 13 12  1  0
 13 14  1  6
 14 15  1  0
 15 19  1  0
 15 16  2  0
 16 17  1  0
 18 17  1  0
 19 18  2  0
 20 21  2  0
 20 13  1  0
 22 20  1  0
 23 22  1  0
 23 24  1  6
 24 25  1  0
 25 26  2  0
 25 33  1  0
 26 27  1  0
 27 28  1  0
 28 29  2  0
 29 30  1  0
 31 30  2  0
 32 31  1  0
 33 32  2  0
 33 28  1  0
 34 23  1  0
 35 34  1  0
 36 34  2  0
M  END
$$$$
