FHW.pdb
     RDKit          3D

 36 39  0  0  1  0  0  0  0  0999 V2000
    8.7839  -16.4697   19.6068 N   0  0  0  0  0  0  0  0  0  0  0  0
    9.0070  -15.8395   20.8726 C   0  0  1  0  0  0  0  0  0  0  0  0
    7.8299  -14.9028   21.1606 C   0  0  0  0  0  0  0  0  0  0  0  0
    7.7565  -13.8975   20.0687 C   0  0  0  0  0  0  0  0  0  0  0  0
    8.7231  -12.9243   19.9169 C   0  0  0  0  0  0  0  0  0  0  0  0
    8.6488  -11.9968   18.9025 C   0  0  0  0  0  0  0  0  0  0  0  0
    7.6124  -11.9936   17.9936 C   0  0  0  0  0  0  0  0  0  0  0  0
    6.6434  -12.9685   18.1449 C   0  0  0  0  0  0  0  0  0  0  0  0
    6.7129  -13.9023   19.1616 C   0  0  0  0  0  0  0  0  0  0  0  0
    9.1344  -16.8136   21.9870 C   0  0  0  0  0  0  0  0  0  0  0  0
    8.2266  -16.7785   22.8694 O   0  0  0  0  0  0  0  0  0  0  0  0
   10.1764  -17.7449   22.1126 N   0  0  0  0  0  0  0  0  0  0  0  0
   10.2749  -18.5671   23.3521 C   0  0  1  0  0  0  0  0  0  0  0  0
   11.2845  -19.6255   23.0806 C   0  0  0  0  0  0  0  0  0  0  0  0
   11.5741  -20.4551   24.2444 C   0  0  0  0  0  0  0  0  0  0  0  0
   12.7583  -20.4080   24.9936 C   0  0  0  0  0  0  0  0  0  0  0  0
   12.6309  -21.3219   25.9667 N   0  0  0  0  0  0  0  0  0  0  0  0
   11.4410  -21.9382   25.8738 C   0  0  0  0  0  0  0  0  0  0  0  0
   10.8172  -21.3946   24.8201 N   0  0  0  0  0  0  0  0  0  0  0  0
   10.6725  -17.6708   24.4451 C   0  0  0  0  0  0  0  0  0  0  0  0
   11.5255  -16.7628   24.1727 O   0  0  0  0  0  0  0  0  0  0  0  0
   10.2142  -17.6944   25.7633 N   0  0  0  0  0  0  0  0  0  0  0  0
   10.7782  -16.8235   26.7882 C   0  0  1  0  0  0  0  0  0  0  0  0
   10.2465  -15.4323   26.6438 C   0  0  0  0  0  0  0  0  0  0  0  0
    8.7888  -15.3677   26.7953 C   0  0  0  0  0  0  0  0  0  0  0  0
    7.8977  -16.4371   26.8830 C   0  0  0  0  0  0  0  0  0  0  0  0
    6.6447  -15.9794   26.9801 N   0  0  0  0  0  0  0  0  0  0  0  0
    6.6370  -14.6422   26.9638 C   0  0  0  0  0  0  0  0  0  0  0  0
    5.5999  -13.7290   27.0523 C   0  0  0  0  0  0  0  0  0  0  0  0
    5.9183  -12.3969   27.0255 C   0  0  0  0  0  0  0  0  0  0  0  0
    7.2428  -11.9654   26.9129 C   0  0  0  0  0  0  0  0  0  0  0  0
    8.2502  -12.8970   26.8261 C   0  0  0  0  0  0  0  0  0  0  0  0
    7.9555  -14.2414   26.8501 C   0  0  0  0  0  0  0  0  0  0  0  0
   10.7746  -17.3905   28.1338 C   0  0  0  0  0  0  0  0  0  0  0  0
   10.1133  -18.6208   28.3071 O   0  0  0  0  0  0  0  0  0  0  0  0
   11.2952  -16.8926   29.1597 O   0  0  0  0  0  0  0  0  0  0  0  0
  2  1  1  6
  3  2  1  0
  3  4  1  0
  4  5  2  0
  4  9  1  0
  5  6  1  0
  6  7  2  0
  8  7  1  0
  9  8  2  0
 10  2  1  0
 11 10  2  0
 12 10  1  0
 13 12  1  0
 13 14  1  6
 14 15  1  0
 15 19  1  0
 15 16  2  0
 16 17  1  0
 18 17  1  0
 19 18  2  0
 20 21  2  0
 20 13  1  0
 22 20  1  0
 23 22  1  0
 23 24  1  1
 24 25  1  0
 25 26  2  0
 25 33  1  0
 26 27  1  0
 27 28  1  0
 28 29  2  0
 29 30  1  0
 31 30  2  0
 32 31  1  0
 33 32  2  0
 33 28  1  0
 34 23  1  0
 35 34  1  0
 36 34  2  0
M  END
$$$$
