FHW.pdb
     RDKit          3D

 36 39  0  0  1  0  0  0  0  0999 V2000
    7.2147  -17.2974   18.9619 N   0  0  0  0  0  0  0  0  0  0  0  0
    7.6911  -16.5343   20.0754 C   0  0  1  0  0  0  0  0  0  0  0  0
    6.5325  -15.6894   20.6138 C   0  0  0  0  0  0  0  0  0  0  0  0
    6.9594  -14.2660   20.6241 C   0  0  0  0  0  0  0  0  0  0  0  0
    7.0520  -13.5315   19.4595 C   0  0  0  0  0  0  0  0  0  0  0  0
    7.4474  -12.2131   19.4769 C   0  0  0  0  0  0  0  0  0  0  0  0
    7.7684  -11.5649   20.6504 C   0  0  0  0  0  0  0  0  0  0  0  0
    7.6757  -12.3002   21.8178 C   0  0  0  0  0  0  0  0  0  0  0  0
    7.2793  -13.6243   21.8063 C   0  0  0  0  0  0  0  0  0  0  0  0
    8.2208  -17.3845   21.1725 C   0  0  0  0  0  0  0  0  0  0  0  0
    7.7318  -18.5489   21.2660 O   0  0  0  0  0  0  0  0  0  0  0  0
    9.2061  -16.9798   22.0859 N   0  0  0  0  0  0  0  0  0  0  0  0
    9.7597  -17.9729   23.0499 C   0  0  1  0  0  0  0  0  0  0  0  0
   10.9422  -18.5904   22.3913 C   0  0  0  0  0  0  0  0  0  0  0  0
   11.5752  -19.6251   23.2007 C   0  0  0  0  0  0  0  0  0  0  0  0
   12.8747  -19.5580   23.7230 C   0  0  0  0  0  0  0  0  0  0  0  0
   13.0742  -20.6994   24.3979 N   0  0  0  0  0  0  0  0  0  0  0  0
   11.9811  -21.4772   24.3311 C   0  0  0  0  0  0  0  0  0  0  0  0
   11.0843  -20.8032   23.5987 N   0  0  0  0  0  0  0  0  0  0  0  0
   10.1086  -17.2479   24.2781 C   0  0  0  0  0  0  0  0  0  0  0  0
   10.8993  -16.2539   24.1630 O   0  0  0  0  0  0  0  0  0  0  0  0
    9.6644  -17.5207   25.5728 N   0  0  0  0  0  0  0  0  0  0  0  0
   10.3054  -16.9344   26.7443 C   0  0  1  0  0  0  0  0  0  0  0  0
    9.2768  -16.4275   27.7055 C   0  0  0  0  0  0  0  0  0  0  0  0
    8.1837  -15.7135   27.0363 C   0  0  0  0  0  0  0  0  0  0  0  0
    7.0762  -16.2686   26.3956 C   0  0  0  0  0  0  0  0  0  0  0  0
    6.3164  -15.2980   25.8762 N   0  0  0  0  0  0  0  0  0  0  0  0
    6.8538  -14.1008   26.1334 C   0  0  0  0  0  0  0  0  0  0  0  0
    6.4334  -12.8193   25.8199 C   0  0  0  0  0  0  0  0  0  0  0  0
    7.2055  -11.7716   26.2477 C   0  0  0  0  0  0  0  0  0  0  0  0
    8.3795  -11.9802   26.9766 C   0  0  0  0  0  0  0  0  0  0  0  0
    8.7706  -13.2650   27.2714 C   0  0  0  0  0  0  0  0  0  0  0  0
    8.0121  -14.3343   26.8519 C   0  0  0  0  0  0  0  0  0  0  0  0
   11.3894  -17.7354   27.3060 C   0  0  0  0  0  0  0  0  0  0  0  0
   11.5512  -19.0379   26.7977 O   0  0  0  0  0  0  0  0  0  0  0  0
   12.1929  -17.3875   28.2031 O   0  0  0  0  0  0  0  0  0  0  0  0
  2  1  1  6
  3  2  1  0
  3  4  1  0
  4  5  2  0
  4  9  1  0
  5  6  1  0
  6  7  2  0
  8  7  1  0
  9  8  2  0
 10  2  1  0
 11 10  2  0
 12 10  1  0
 13 12  1  0
 13 14  1  6
 14 15  1  0
 15 19  1  0
 15 16  2  0
 16 17  1  0
 18 17  1  0
 19 18  2  0
 20 21  2  0
 20 13  1  0
 22 20  1  0
 23 22  1  0
 23 24  1  1
 24 25  1  0
 25 26  2  0
 25 33  1  0
 26 27  1  0
 27 28  1  0
 28 29  2  0
 29 30  1  0
 31 30  2  0
 32 31  1  0
 33 32  2  0
 33 28  1  0
 34 23  1  0
 35 34  1  0
 36 34  2  0
M  END
$$$$
