FHW.pdb
     RDKit          3D

 36 39  0  0  1  0  0  0  0  0999 V2000
    5.9836  -17.9827   20.6483 N   0  0  0  0  0  0  0  0  0  0  0  0
    6.8625  -16.8725   20.8581 C   0  0  1  0  0  0  0  0  0  0  0  0
    6.1130  -15.8081   21.6652 C   0  0  0  0  0  0  0  0  0  0  0  0
    6.8977  -14.5471   21.6151 C   0  0  0  0  0  0  0  0  0  0  0  0
    7.3456  -13.9291   22.7649 C   0  0  0  0  0  0  0  0  0  0  0  0
    8.0727  -12.7616   22.7106 C   0  0  0  0  0  0  0  0  0  0  0  0
    8.3877  -12.1552   21.5133 C   0  0  0  0  0  0  0  0  0  0  0  0
    7.9393  -12.7739   20.3607 C   0  0  0  0  0  0  0  0  0  0  0  0
    7.2089  -13.9463   20.4093 C   0  0  0  0  0  0  0  0  0  0  0  0
    8.1020  -17.2480   21.5857 C   0  0  0  0  0  0  0  0  0  0  0  0
    7.9571  -18.0178   22.5808 O   0  0  0  0  0  0  0  0  0  0  0  0
    9.3894  -16.8090   21.2408 N   0  0  0  0  0  0  0  0  0  0  0  0
   10.5561  -17.2615   22.0507 C   0  0  1  0  0  0  0  0  0  0  0  0
   11.7758  -16.8657   21.2964 C   0  0  0  0  0  0  0  0  0  0  0  0
   11.9835  -17.6525   20.0863 C   0  0  0  0  0  0  0  0  0  0  0  0
   11.5395  -18.9684   19.8940 C   0  0  0  0  0  0  0  0  0  0  0  0
   11.9314  -19.3274   18.6629 N   0  0  0  0  0  0  0  0  0  0  0  0
   12.5931  -18.3187   18.0721 C   0  0  0  0  0  0  0  0  0  0  0  0
   12.6116  -17.3124   18.9563 N   0  0  0  0  0  0  0  0  0  0  0  0
   10.4627  -16.6073   23.3619 C   0  0  0  0  0  0  0  0  0  0  0  0
   10.7035  -15.3558   23.4069 O   0  0  0  0  0  0  0  0  0  0  0  0
   10.1308  -17.2036   24.5794 N   0  0  0  0  0  0  0  0  0  0  0  0
   10.4758  -16.5877   25.8556 C   0  0  1  0  0  0  0  0  0  0  0  0
    9.2858  -16.5597   26.7623 C   0  0  0  0  0  0  0  0  0  0  0  0
    8.1233  -15.9106   26.1464 C   0  0  0  0  0  0  0  0  0  0  0  0
    7.0159  -16.5293   25.5665 C   0  0  0  0  0  0  0  0  0  0  0  0
    6.1795  -15.6050   25.0815 N   0  0  0  0  0  0  0  0  0  0  0  0
    6.6643  -14.3787   25.3042 C   0  0  0  0  0  0  0  0  0  0  0  0
    6.1601  -13.1241   25.0057 C   0  0  0  0  0  0  0  0  0  0  0  0
    6.8956  -12.0332   25.3874 C   0  0  0  0  0  0  0  0  0  0  0  0
    8.1148  -12.1728   26.0562 C   0  0  0  0  0  0  0  0  0  0  0  0
    8.5889  -13.4324   26.3375 C   0  0  0  0  0  0  0  0  0  0  0  0
    7.8685  -14.5441   25.9634 C   0  0  0  0  0  0  0  0  0  0  0  0
   11.7309  -17.0577   26.4352 C   0  0  0  0  0  0  0  0  0  0  0  0
   12.3068  -18.2085   25.8650 O   0  0  0  0  0  0  0  0  0  0  0  0
   12.3516  -16.5466   27.3970 O   0  0  0  0  0  0  0  0  0  0  0  0
  2  1  1  1
  3  2  1  0
  3  4  1  0
  4  5  2  0
  4  9  1  0
  5  6  1  0
  6  7  2  0
  8  7  1  0
  9  8  2  0
 10  2  1  0
 11 10  2  0
 12 10  1  0
 13 12  1  0
 13 14  1  6
 14 15  1  0
 15 19  1  0
 15 16  2  0
 16 17  1  0
 18 17  1  0
 19 18  2  0
 20 21  2  0
 20 13  1  0
 22 20  1  0
 23 22  1  0
 23 24  1  1
 24 25  1  0
 25 26  2  0
 25 33  1  0
 26 27  1  0
 27 28  1  0
 28 29  2  0
 29 30  1  0
 31 30  2  0
 32 31  1  0
 33 32  2  0
 33 28  1  0
 34 23  1  0
 35 34  1  0
 36 34  2  0
M  END
$$$$
