FDG.pdb
     RDKit          3D

 24 24  0  0  1  0  0  0  0  0999 V2000
    7.6598  -15.0540   21.4898 N   0  0  0  0  0  0  0  0  0  0  0  0
    8.1733  -14.8726   22.8332 C   0  0  1  0  0  0  0  0  0  0  0  0
    6.9767  -14.9511   23.7613 C   0  0  0  0  0  0  0  0  0  0  0  0
    7.1455  -13.8869   24.8018 C   0  0  0  0  0  0  0  0  0  0  0  0
    6.4516  -12.7010   24.7185 C   0  0  0  0  0  0  0  0  0  0  0  0
    6.5936  -11.7116   25.6623 C   0  0  0  0  0  0  0  0  0  0  0  0
    7.4532  -11.9077   26.7226 C   0  0  0  0  0  0  0  0  0  0  0  0
    8.1560  -13.0684   26.8370 C   0  0  0  0  0  0  0  0  0  0  0  0
    8.0005  -14.0498   25.8810 C   0  0  0  0  0  0  0  0  0  0  0  0
    9.1562  -15.9429   23.1275 C   0  0  0  0  0  0  0  0  0  0  0  0
    8.8468  -17.1224   22.8681 O   0  0  0  0  0  0  0  0  0  0  0  0
   10.4042  -15.6060   23.6878 N   0  0  0  0  0  0  0  0  0  0  0  0
   11.4493  -16.4986   24.1164 C   0  0  1  0  0  0  0  0  0  0  0  0
   12.7870  -15.8236   24.1116 C   0  0  0  0  0  0  0  0  0  0  0  0
   13.3277  -15.5915   22.7723 C   0  0  0  0  0  0  0  0  0  0  0  0
   12.9170  -16.2560   21.7954 O   0  0  0  0  0  0  0  0  0  0  0  0
   11.1559  -17.3584   25.2548 C   0  0  0  0  0  0  0  0  0  0  0  0
   11.8017  -18.3985   25.4843 O   0  0  0  0  0  0  0  0  0  0  0  0
   14.3045  -14.6356   22.5591 O   0  0  0  0  0  0  0  0  0  0  0  0
   10.1013  -17.0301   26.1573 N   0  0  0  0  0  0  0  0  0  0  0  0
    9.6753  -17.9204   27.2127 C   0  0  0  0  0  0  0  0  0  0  0  0
   10.5566  -17.8176   28.4095 C   0  0  0  0  0  0  0  0  0  0  0  0
   11.5524  -17.0594   28.3393 O   0  0  0  0  0  0  0  0  0  0  0  0
   10.3178  -18.5123   29.5619 O   0  0  0  0  0  0  0  0  0  0  0  0
  2  1  1  6
  2 10  1  0
  3  2  1  0
  4  3  1  0
  5  4  2  0
  6  5  1  0
  7  6  2  0
  7  8  1  0
  8  9  2  0
  9  4  1  0
 10 11  2  0
 10 12  1  0
 12 13  1  0
 13 17  1  0
 14 15  1  0
 13 14  1  1
 15 16  2  0
 17 18  2  0
 17 20  1  0
 19 15  1  0
 20 21  1  0
 21 22  1  0
 22 24  1  0
 23 22  2  0
M  END
$$$$
