FDG.pdb
     RDKit          3D

 24 24  0  0  1  0  0  0  0  0999 V2000
    7.7117  -15.5244   25.8838 N   0  0  0  0  0  0  0  0  0  0  0  0
    6.9743  -15.6866   24.6465 C   0  0  1  0  0  0  0  0  0  0  0  0
    6.9113  -14.3143   24.0045 C   0  0  0  0  0  0  0  0  0  0  0  0
    6.7007  -13.3155   25.1008 C   0  0  0  0  0  0  0  0  0  0  0  0
    7.6865  -12.4147   25.4350 C   0  0  0  0  0  0  0  0  0  0  0  0
    7.5131  -11.4914   26.4386 C   0  0  0  0  0  0  0  0  0  0  0  0
    6.3216  -11.4630   27.1321 C   0  0  0  0  0  0  0  0  0  0  0  0
    5.3243  -12.3392   26.8287 C   0  0  0  0  0  0  0  0  0  0  0  0
    5.5159  -13.2581   25.8187 C   0  0  0  0  0  0  0  0  0  0  0  0
    7.6855  -16.6563   23.7793 C   0  0  0  0  0  0  0  0  0  0  0  0
    7.1764  -16.9581   22.6821 O   0  0  0  0  0  0  0  0  0  0  0  0
    8.9077  -17.2089   24.2106 N   0  0  0  0  0  0  0  0  0  0  0  0
   10.0280  -17.6135   23.4019 C   0  0  1  0  0  0  0  0  0  0  0  0
   10.2448  -16.6770   22.2526 C   0  0  0  0  0  0  0  0  0  0  0  0
   11.3297  -17.0799   21.3577 C   0  0  0  0  0  0  0  0  0  0  0  0
   11.0989  -17.3517   20.1588 O   0  0  0  0  0  0  0  0  0  0  0  0
   11.2185  -18.0694   24.1063 C   0  0  0  0  0  0  0  0  0  0  0  0
   12.0685  -18.8028   23.5663 O   0  0  0  0  0  0  0  0  0  0  0  0
   12.6307  -17.1709   21.8187 O   0  0  0  0  0  0  0  0  0  0  0  0
   11.4516  -17.6837   25.4596 N   0  0  0  0  0  0  0  0  0  0  0  0
   10.6413  -18.1632   26.5556 C   0  0  0  0  0  0  0  0  0  0  0  0
   11.1118  -19.4873   27.0505 C   0  0  0  0  0  0  0  0  0  0  0  0
   11.1000  -19.6873   28.2879 O   0  0  0  0  0  0  0  0  0  0  0  0
   11.5487  -20.4742   26.2120 O   0  0  0  0  0  0  0  0  0  0  0  0
  2  1  1  1
  2 10  1  0
  3  2  1  0
  4  3  1  0
  5  4  2  0
  6  5  1  0
  7  6  2  0
  7  8  1  0
  8  9  2  0
  9  4  1  0
 10 11  2  0
 10 12  1  0
 12 13  1  0
 13 17  1  0
 14 15  1  0
 13 14  1  1
 15 16  2  0
 17 18  2  0
 17 20  1  0
 19 15  1  0
 20 21  1  0
 21 22  1  0
 22 24  1  0
 23 22  2  0
M  END
$$$$
