FDG.pdb
     RDKit          3D

 24 24  0  0  1  0  0  0  0  0999 V2000
    7.7187  -15.0198   21.2382 N   0  0  0  0  0  0  0  0  0  0  0  0
    8.0595  -14.6680   22.6024 C   0  0  1  0  0  0  0  0  0  0  0  0
    6.7478  -14.3978   23.3135 C   0  0  0  0  0  0  0  0  0  0  0  0
    7.0767  -13.8737   24.6776 C   0  0  0  0  0  0  0  0  0  0  0  0
    7.0014  -14.6883   25.7847 C   0  0  0  0  0  0  0  0  0  0  0  0
    7.2978  -14.2260   27.0450 C   0  0  0  0  0  0  0  0  0  0  0  0
    7.6811  -12.9117   27.2096 C   0  0  0  0  0  0  0  0  0  0  0  0
    7.7663  -12.0770   26.1370 C   0  0  0  0  0  0  0  0  0  0  0  0
    7.4655  -12.5584   24.8804 C   0  0  0  0  0  0  0  0  0  0  0  0
    8.7907  -15.7959   23.2280 C   0  0  0  0  0  0  0  0  0  0  0  0
    8.3228  -16.9456   23.1120 O   0  0  0  0  0  0  0  0  0  0  0  0
    9.9850  -15.5452   23.9322 N   0  0  0  0  0  0  0  0  0  0  0  0
   10.8377  -16.4992   24.5920 C   0  0  1  0  0  0  0  0  0  0  0  0
   12.2806  -16.2721   24.2583 C   0  0  0  0  0  0  0  0  0  0  0  0
   12.5700  -16.3139   22.8249 C   0  0  0  0  0  0  0  0  0  0  0  0
   13.2253  -15.3982   22.2802 O   0  0  0  0  0  0  0  0  0  0  0  0
   10.5297  -16.8078   25.9817 C   0  0  0  0  0  0  0  0  0  0  0  0
   10.9430  -17.8425   26.5387 O   0  0  0  0  0  0  0  0  0  0  0  0
   12.1237  -17.3640   22.0430 O   0  0  0  0  0  0  0  0  0  0  0  0
    9.7310  -15.9193   26.7609 N   0  0  0  0  0  0  0  0  0  0  0  0
    9.4254  -16.1648   28.1516 C   0  0  0  0  0  0  0  0  0  0  0  0
   10.6241  -15.9885   29.0185 C   0  0  0  0  0  0  0  0  0  0  0  0
   11.7117  -15.7066   28.4626 O   0  0  0  0  0  0  0  0  0  0  0  0
   10.5763  -16.1224   30.3778 O   0  0  0  0  0  0  0  0  0  0  0  0
  2  1  1  6
  2 10  1  0
  3  2  1  0
  4  3  1  0
  5  4  2  0
  6  5  1  0
  7  6  2  0
  7  8  1  0
  8  9  2  0
  9  4  1  0
 10 11  2  0
 10 12  1  0
 12 13  1  0
 13 17  1  0
 14 15  1  0
 13 14  1  1
 15 16  2  0
 17 18  2  0
 17 20  1  0
 19 15  1  0
 20 21  1  0
 21 22  1  0
 22 24  1  0
 23 22  2  0
M  END
$$$$
