FDG.pdb
     RDKit          3D

 24 24  0  0  1  0  0  0  0  0999 V2000
    7.0656  -15.6957   21.3880 N   0  0  0  0  0  0  0  0  0  0  0  0
    7.5418  -14.9561   22.5401 C   0  0  1  0  0  0  0  0  0  0  0  0
    6.3075  -14.4869   23.2856 C   0  0  0  0  0  0  0  0  0  0  0  0
    6.7724  -13.7067   24.4767 C   0  0  0  0  0  0  0  0  0  0  0  0
    6.5559  -14.1714   25.7542 C   0  0  0  0  0  0  0  0  0  0  0  0
    6.9735  -13.4697   26.8602 C   0  0  0  0  0  0  0  0  0  0  0  0
    7.6272  -12.2675   26.6902 C   0  0  0  0  0  0  0  0  0  0  0  0
    7.8584  -11.7770   25.4412 C   0  0  0  0  0  0  0  0  0  0  0  0
    7.4326  -12.4948   24.3436 C   0  0  0  0  0  0  0  0  0  0  0  0
    8.3744  -15.8486   23.3817 C   0  0  0  0  0  0  0  0  0  0  0  0
    7.8881  -16.9316   23.7622 O   0  0  0  0  0  0  0  0  0  0  0  0
    9.6824  -15.4565   23.7287 N   0  0  0  0  0  0  0  0  0  0  0  0
   10.6597  -16.2049   24.4753 C   0  0  1  0  0  0  0  0  0  0  0  0
   12.0567  -15.8041   24.1112 C   0  0  0  0  0  0  0  0  0  0  0  0
   12.4080  -16.0820   22.7186 C   0  0  0  0  0  0  0  0  0  0  0  0
   11.7540  -16.9126   22.0501 O   0  0  0  0  0  0  0  0  0  0  0  0
   10.3884  -16.4144   25.8909 C   0  0  0  0  0  0  0  0  0  0  0  0
   10.5826  -15.5257   26.7420 O   0  0  0  0  0  0  0  0  0  0  0  0
   13.4703  -15.4348   22.1138 O   0  0  0  0  0  0  0  0  0  0  0  0
    9.8835  -17.6654   26.3541 N   0  0  0  0  0  0  0  0  0  0  0  0
    9.6381  -17.9355   27.7522 C   0  0  0  0  0  0  0  0  0  0  0  0
   10.8038  -18.6019   28.3975 C   0  0  0  0  0  0  0  0  0  0  0  0
   10.7014  -18.9186   29.6061 O   0  0  0  0  0  0  0  0  0  0  0  0
   11.9620  -18.8740   27.7249 O   0  0  0  0  0  0  0  0  0  0  0  0
  2  1  1  6
  2 10  1  0
  3  2  1  0
  4  3  1  0
  5  4  2  0
  6  5  1  0
  7  6  2  0
  7  8  1  0
  8  9  2  0
  9  4  1  0
 10 11  2  0
 10 12  1  0
 12 13  1  0
 13 17  1  0
 14 15  1  0
 13 14  1  1
 15 16  2  0
 17 18  2  0
 17 20  1  0
 19 15  1  0
 20 21  1  0
 21 22  1  0
 22 24  1  0
 23 22  2  0
M  END
$$$$
