FDG.pdb
     RDKit          3D

 24 24  0  0  1  0  0  0  0  0999 V2000
    6.1641  -16.2652   25.5318 N   0  0  0  0  0  0  0  0  0  0  0  0
    7.1415  -15.8280   24.5548 C   0  0  1  0  0  0  0  0  0  0  0  0
    8.1805  -15.0300   25.3184 C   0  0  0  0  0  0  0  0  0  0  0  0
    7.5327  -13.7520   25.7549 C   0  0  0  0  0  0  0  0  0  0  0  0
    6.8920  -13.6636   26.9701 C   0  0  0  0  0  0  0  0  0  0  0  0
    6.2903  -12.5004   27.3882 C   0  0  0  0  0  0  0  0  0  0  0  0
    6.3268  -11.3897   26.5717 C   0  0  0  0  0  0  0  0  0  0  0  0
    6.9515  -11.4407   25.3628 C   0  0  0  0  0  0  0  0  0  0  0  0
    7.5498  -12.6160   24.9603 C   0  0  0  0  0  0  0  0  0  0  0  0
    7.7442  -17.0159   23.9038 C   0  0  0  0  0  0  0  0  0  0  0  0
    7.0890  -18.0761   23.8769 O   0  0  0  0  0  0  0  0  0  0  0  0
    9.0304  -16.9204   23.3364 N   0  0  0  0  0  0  0  0  0  0  0  0
    9.4711  -17.4179   22.0593 C   0  0  1  0  0  0  0  0  0  0  0  0
    8.4399  -17.1952   20.9954 C   0  0  0  0  0  0  0  0  0  0  0  0
    8.8156  -17.7295   19.6864 C   0  0  0  0  0  0  0  0  0  0  0  0
    9.2892  -18.8824   19.5808 O   0  0  0  0  0  0  0  0  0  0  0  0
   10.8557  -17.1548   21.6919 C   0  0  0  0  0  0  0  0  0  0  0  0
   11.3349  -17.5253   20.6035 O   0  0  0  0  0  0  0  0  0  0  0  0
    8.6574  -16.9713   18.5404 O   0  0  0  0  0  0  0  0  0  0  0  0
   11.7205  -16.4528   22.5829 N   0  0  0  0  0  0  0  0  0  0  0  0
   12.2092  -17.0344   23.8121 C   0  0  0  0  0  0  0  0  0  0  0  0
   13.0837  -16.0881   24.5598 C   0  0  0  0  0  0  0  0  0  0  0  0
   13.2892  -14.9588   24.0559 O   0  0  0  0  0  0  0  0  0  0  0  0
   13.6595  -16.4070   25.7576 O   0  0  0  0  0  0  0  0  0  0  0  0
  2  1  1  1
  2 10  1  0
  3  2  1  0
  4  3  1  0
  5  4  2  0
  6  5  1  0
  7  6  2  0
  7  8  1  0
  8  9  2  0
  9  4  1  0
 10 11  2  0
 10 12  1  0
 12 13  1  0
 13 17  1  0
 14 15  1  0
 13 14  1  6
 15 16  2  0
 17 18  2  0
 17 20  1  0
 19 15  1  0
 20 21  1  0
 21 22  1  0
 22 24  1  0
 23 22  2  0
M  END
$$$$
