FDG.pdb
     RDKit          3D

 24 24  0  0  1  0  0  0  0  0999 V2000
    7.4480  -16.1883   26.5307 N   0  0  0  0  0  0  0  0  0  0  0  0
    7.5783  -15.9525   25.1064 C   0  0  1  0  0  0  0  0  0  0  0  0
    8.2794  -14.6162   24.9578 C   0  0  0  0  0  0  0  0  0  0  0  0
    7.5008  -13.6106   25.7490 C   0  0  0  0  0  0  0  0  0  0  0  0
    6.3286  -13.0804   25.2593 C   0  0  0  0  0  0  0  0  0  0  0  0
    5.6003  -12.1556   25.9693 C   0  0  0  0  0  0  0  0  0  0  0  0
    6.0522  -11.7447   27.2057 C   0  0  0  0  0  0  0  0  0  0  0  0
    7.2078  -12.2477   27.7214 C   0  0  0  0  0  0  0  0  0  0  0  0
    7.9249  -13.1748   26.9951 C   0  0  0  0  0  0  0  0  0  0  0  0
    8.3720  -17.0491   24.5017 C   0  0  0  0  0  0  0  0  0  0  0  0
    8.4131  -18.1477   25.0895 O   0  0  0  0  0  0  0  0  0  0  0  0
    9.0546  -16.8267   23.2894 N   0  0  0  0  0  0  0  0  0  0  0  0
    9.2875  -17.7648   22.2225 C   0  0  1  0  0  0  0  0  0  0  0  0
    8.0367  -18.5034   21.8552 C   0  0  0  0  0  0  0  0  0  0  0  0
    8.2443  -19.5652   20.8705 C   0  0  0  0  0  0  0  0  0  0  0  0
    7.8714  -19.4173   19.6857 O   0  0  0  0  0  0  0  0  0  0  0  0
   10.1273  -17.3145   21.1209 C   0  0  0  0  0  0  0  0  0  0  0  0
   10.4581  -18.0701   20.1874 O   0  0  0  0  0  0  0  0  0  0  0  0
    8.8541  -20.7538   21.2291 O   0  0  0  0  0  0  0  0  0  0  0  0
   10.6052  -15.9714   21.0767 N   0  0  0  0  0  0  0  0  0  0  0  0
   11.6334  -15.4819   21.9662 C   0  0  0  0  0  0  0  0  0  0  0  0
   12.9975  -15.8089   21.4644 C   0  0  0  0  0  0  0  0  0  0  0  0
   13.5245  -16.8768   21.8561 O   0  0  0  0  0  0  0  0  0  0  0  0
   13.6810  -14.9951   20.6051 O   0  0  0  0  0  0  0  0  0  0  0  0
  2  1  1  1
  2 10  1  0
  3  2  1  0
  4  3  1  0
  5  4  2  0
  6  5  1  0
  7  6  2  0
  7  8  1  0
  8  9  2  0
  9  4  1  0
 10 11  2  0
 10 12  1  0
 12 13  1  0
 13 17  1  0
 14 15  1  0
 13 14  1  6
 15 16  2  0
 17 18  2  0
 17 20  1  0
 19 15  1  0
 20 21  1  0
 21 22  1  0
 22 24  1  0
 23 22  2  0
M  END
$$$$
