FDG.pdb
     RDKit          3D

 24 24  0  0  1  0  0  0  0  0999 V2000
    6.3756  -16.2280   25.6157 N   0  0  0  0  0  0  0  0  0  0  0  0
    7.2221  -15.7869   24.5249 C   0  0  1  0  0  0  0  0  0  0  0  0
    8.2458  -14.8476   25.1325 C   0  0  0  0  0  0  0  0  0  0  0  0
    7.5055  -13.6554   25.6561 C   0  0  0  0  0  0  0  0  0  0  0  0
    6.5247  -13.0471   24.9059 C   0  0  0  0  0  0  0  0  0  0  0  0
    5.8350  -11.9514   25.3680 C   0  0  0  0  0  0  0  0  0  0  0  0
    6.1302  -11.4443   26.6159 C   0  0  0  0  0  0  0  0  0  0  0  0
    7.0946  -12.0203   27.3856 C   0  0  0  0  0  0  0  0  0  0  0  0
    7.7758  -13.1189   26.9057 C   0  0  0  0  0  0  0  0  0  0  0  0
    7.8723  -16.9666   23.9053 C   0  0  0  0  0  0  0  0  0  0  0  0
    7.1688  -17.9592   23.6334 O   0  0  0  0  0  0  0  0  0  0  0  0
    9.2559  -16.9391   23.6408 N   0  0  0  0  0  0  0  0  0  0  0  0
    9.9250  -17.2542   22.4057 C   0  0  1  0  0  0  0  0  0  0  0  0
    9.2735  -16.5785   21.2379 C   0  0  0  0  0  0  0  0  0  0  0  0
    9.8197  -16.9805   19.9416 C   0  0  0  0  0  0  0  0  0  0  0  0
    9.4658  -18.0542   19.4064 O   0  0  0  0  0  0  0  0  0  0  0  0
   11.3814  -17.2593   22.4280 C   0  0  0  0  0  0  0  0  0  0  0  0
   12.0595  -17.4811   21.4069 O   0  0  0  0  0  0  0  0  0  0  0  0
   10.7391  -16.1841   19.2831 O   0  0  0  0  0  0  0  0  0  0  0  0
   12.0879  -17.0064   23.6410 N   0  0  0  0  0  0  0  0  0  0  0  0
   12.6439  -15.7120   23.9620 C   0  0  0  0  0  0  0  0  0  0  0  0
   14.1185  -15.6783   23.7523 C   0  0  0  0  0  0  0  0  0  0  0  0
   14.7332  -14.6381   24.0862 O   0  0  0  0  0  0  0  0  0  0  0  0
   14.8104  -16.7279   23.2163 O   0  0  0  0  0  0  0  0  0  0  0  0
  2  1  1  1
  2 10  1  0
  3  2  1  0
  4  3  1  0
  5  4  2  0
  6  5  1  0
  7  6  2  0
  7  8  1  0
  8  9  2  0
  9  4  1  0
 10 11  2  0
 10 12  1  0
 12 13  1  0
 13 17  1  0
 14 15  1  0
 13 14  1  6
 15 16  2  0
 17 18  2  0
 17 20  1  0
 19 15  1  0
 20 21  1  0
 21 22  1  0
 22 24  1  0
 23 22  2  0
M  END
$$$$
