FDG.pdb
     RDKit          3D

 24 24  0  0  1  0  0  0  0  0999 V2000
    9.0258  -13.8820   23.8629 N   0  0  0  0  0  0  0  0  0  0  0  0
    9.0229  -14.8553   24.9370 C   0  0  1  0  0  0  0  0  0  0  0  0
    7.5793  -14.9987   25.3786 C   0  0  0  0  0  0  0  0  0  0  0  0
    7.1479  -13.6779   25.9379 C   0  0  0  0  0  0  0  0  0  0  0  0
    7.8474  -13.0822   26.9630 C   0  0  0  0  0  0  0  0  0  0  0  0
    7.4669  -11.8712   27.4908 C   0  0  0  0  0  0  0  0  0  0  0  0
    6.3553  -11.2323   26.9833 C   0  0  0  0  0  0  0  0  0  0  0  0
    5.6391  -11.7922   25.9694 C   0  0  0  0  0  0  0  0  0  0  0  0
    6.0358  -13.0073   25.4522 C   0  0  0  0  0  0  0  0  0  0  0  0
    9.5633  -16.1401   24.4316 C   0  0  0  0  0  0  0  0  0  0  0  0
    9.4940  -17.1447   25.1665 O   0  0  0  0  0  0  0  0  0  0  0  0
   10.1368  -16.1955   23.1459 N   0  0  0  0  0  0  0  0  0  0  0  0
   10.9362  -17.2510   22.5806 C   0  0  1  0  0  0  0  0  0  0  0  0
   10.7311  -17.3657   21.1008 C   0  0  0  0  0  0  0  0  0  0  0  0
   11.3946  -18.5225   20.4995 C   0  0  0  0  0  0  0  0  0  0  0  0
   11.1840  -19.6758   20.9357 O   0  0  0  0  0  0  0  0  0  0  0  0
   12.3061  -17.3695   23.0610 C   0  0  0  0  0  0  0  0  0  0  0  0
   12.8870  -18.4683   23.1444 O   0  0  0  0  0  0  0  0  0  0  0  0
   12.2692  -18.3651   19.4395 O   0  0  0  0  0  0  0  0  0  0  0  0
   13.0370  -16.2108   23.4580 N   0  0  0  0  0  0  0  0  0  0  0  0
   14.3496  -16.2866   24.0574 C   0  0  0  0  0  0  0  0  0  0  0  0
   15.4288  -16.1687   23.0372 C   0  0  0  0  0  0  0  0  0  0  0  0
   16.5985  -15.9725   23.4430 O   0  0  0  0  0  0  0  0  0  0  0  0
   15.1879  -16.2659   21.6955 O   0  0  0  0  0  0  0  0  0  0  0  0
  2  1  1  6
  2 10  1  0
  3  2  1  0
  4  3  1  0
  5  4  2  0
  6  5  1  0
  7  6  2  0
  7  8  1  0
  8  9  2  0
  9  4  1  0
 10 11  2  0
 10 12  1  0
 12 13  1  0
 13 17  1  0
 14 15  1  0
 13 14  1  6
 15 16  2  0
 17 18  2  0
 17 20  1  0
 19 15  1  0
 20 21  1  0
 21 22  1  0
 22 24  1  0
 23 22  2  0
M  END
$$$$
