FDG.pdb
     RDKit          3D

 24 24  0  0  1  0  0  0  0  0999 V2000
    6.8993  -16.3694   25.6283 N   0  0  0  0  0  0  0  0  0  0  0  0
    7.6274  -15.4562   24.7698 C   0  0  1  0  0  0  0  0  0  0  0  0
    8.4550  -14.5769   25.6870 C   0  0  0  0  0  0  0  0  0  0  0  0
    7.5687  -13.4682   26.1655 C   0  0  0  0  0  0  0  0  0  0  0  0
    6.9601  -12.6150   25.2730 C   0  0  0  0  0  0  0  0  0  0  0  0
    6.1444  -11.5908   25.6921 C   0  0  0  0  0  0  0  0  0  0  0  0
    5.9272  -11.4093   27.0417 C   0  0  0  0  0  0  0  0  0  0  0  0
    6.5130  -12.2341   27.9532 C   0  0  0  0  0  0  0  0  0  0  0  0
    7.3278  -13.2563   27.5143 C   0  0  0  0  0  0  0  0  0  0  0  0
    8.4879  -16.2359   23.8480 C   0  0  0  0  0  0  0  0  0  0  0  0
    8.7660  -17.4138   24.1471 O   0  0  0  0  0  0  0  0  0  0  0  0
    8.9667  -15.6341   22.6674 N   0  0  0  0  0  0  0  0  0  0  0  0
    9.8270  -16.2120   21.6682 C   0  0  1  0  0  0  0  0  0  0  0  0
    9.3887  -15.8437   20.2836 C   0  0  0  0  0  0  0  0  0  0  0  0
    8.3028  -16.6762   19.7658 C   0  0  0  0  0  0  0  0  0  0  0  0
    7.2957  -16.9183   20.4669 O   0  0  0  0  0  0  0  0  0  0  0  0
   11.2592  -16.1756   21.9310 C   0  0  0  0  0  0  0  0  0  0  0  0
   12.0901  -16.6732   21.1477 O   0  0  0  0  0  0  0  0  0  0  0  0
    8.3683  -17.2139   18.4931 O   0  0  0  0  0  0  0  0  0  0  0  0
   11.7628  -15.5586   23.1143 N   0  0  0  0  0  0  0  0  0  0  0  0
   13.1744  -15.4898   23.4153 C   0  0  0  0  0  0  0  0  0  0  0  0
   13.6137  -16.6343   24.2618 C   0  0  0  0  0  0  0  0  0  0  0  0
   14.7850  -16.6163   24.7079 O   0  0  0  0  0  0  0  0  0  0  0  0
   12.7937  -17.6857   24.5621 O   0  0  0  0  0  0  0  0  0  0  0  0
  2  1  1  1
  2 10  1  0
  3  2  1  0
  4  3  1  0
  5  4  2  0
  6  5  1  0
  7  6  2  0
  7  8  1  0
  8  9  2  0
  9  4  1  0
 10 11  2  0
 10 12  1  0
 12 13  1  0
 13 17  1  0
 14 15  1  0
 13 14  1  6
 15 16  2  0
 17 18  2  0
 17 20  1  0
 19 15  1  0
 20 21  1  0
 21 22  1  0
 22 24  1  0
 23 22  2  0
M  END
$$$$
