FDG.pdb
     RDKit          3D

 24 24  0  0  1  0  0  0  0  0999 V2000
    8.6705  -15.1287   26.2350 N   0  0  0  0  0  0  0  0  0  0  0  0
    7.7352  -15.9500   25.4921 C   0  0  1  0  0  0  0  0  0  0  0  0
    6.9966  -15.0140   24.5553 C   0  0  0  0  0  0  0  0  0  0  0  0
    6.8549  -13.6977   25.2560 C   0  0  0  0  0  0  0  0  0  0  0  0
    7.5910  -12.6038   24.8604 C   0  0  0  0  0  0  0  0  0  0  0  0
    7.4764  -11.3878   25.4912 C   0  0  0  0  0  0  0  0  0  0  0  0
    6.6020  -11.2554   26.5493 C   0  0  0  0  0  0  0  0  0  0  0  0
    5.8580  -12.3162   26.9680 C   0  0  0  0  0  0  0  0  0  0  0  0
    5.9859  -13.5282   26.3230 C   0  0  0  0  0  0  0  0  0  0  0  0
    8.4857  -16.9846   24.7408 C   0  0  0  0  0  0  0  0  0  0  0  0
    7.8572  -17.9561   24.2768 O   0  0  0  0  0  0  0  0  0  0  0  0
    9.8776  -16.8477   24.5702 N   0  0  0  0  0  0  0  0  0  0  0  0
   10.8568  -17.8935   24.4289 C   0  0  1  0  0  0  0  0  0  0  0  0
   11.8558  -17.5724   23.3594 C   0  0  0  0  0  0  0  0  0  0  0  0
   11.2538  -17.2423   22.0675 C   0  0  0  0  0  0  0  0  0  0  0  0
   11.7069  -16.3049   21.3744 O   0  0  0  0  0  0  0  0  0  0  0  0
   11.3797  -18.4769   25.6568 C   0  0  0  0  0  0  0  0  0  0  0  0
   12.2292  -19.3879   25.6489 O   0  0  0  0  0  0  0  0  0  0  0  0
   10.1714  -17.9574   21.5876 O   0  0  0  0  0  0  0  0  0  0  0  0
   10.9267  -18.0151   26.9280 N   0  0  0  0  0  0  0  0  0  0  0  0
   11.3501  -18.6185   28.1708 C   0  0  0  0  0  0  0  0  0  0  0  0
   10.6315  -19.8964   28.4357 C   0  0  0  0  0  0  0  0  0  0  0  0
    9.3782  -19.8762   28.4238 O   0  0  0  0  0  0  0  0  0  0  0  0
   11.2847  -21.0702   28.6873 O   0  0  0  0  0  0  0  0  0  0  0  0
  2  1  1  6
  2 10  1  0
  3  2  1  0
  4  3  1  0
  5  4  2  0
  6  5  1  0
  7  6  2  0
  7  8  1  0
  8  9  2  0
  9  4  1  0
 10 11  2  0
 10 12  1  0
 12 13  1  0
 13 17  1  0
 14 15  1  0
 13 14  1  1
 15 16  2  0
 17 18  2  0
 17 20  1  0
 19 15  1  0
 20 21  1  0
 21 22  1  0
 22 24  1  0
 23 22  2  0
M  END
$$$$
