FDG.pdb
     RDKit          3D

 24 24  0  0  1  0  0  0  0  0999 V2000
    6.3228  -16.0476   25.1696 N   0  0  0  0  0  0  0  0  0  0  0  0
    7.3562  -15.3763   24.4065 C   0  0  1  0  0  0  0  0  0  0  0  0
    8.1900  -14.6007   25.4077 C   0  0  0  0  0  0  0  0  0  0  0  0
    7.3738  -13.4287   25.8590 C   0  0  0  0  0  0  0  0  0  0  0  0
    7.4325  -12.2271   25.1899 C   0  0  0  0  0  0  0  0  0  0  0  0
    6.6924  -11.1395   25.5890 C   0  0  0  0  0  0  0  0  0  0  0  0
    5.8678  -11.2503   26.6887 C   0  0  0  0  0  0  0  0  0  0  0  0
    5.7847  -12.4235   27.3749 C   0  0  0  0  0  0  0  0  0  0  0  0
    6.5342  -13.5039   26.9598 C   0  0  0  0  0  0  0  0  0  0  0  0
    8.1715  -16.3894   23.6944 C   0  0  0  0  0  0  0  0  0  0  0  0
    7.8452  -16.7069   22.5338 O   0  0  0  0  0  0  0  0  0  0  0  0
    9.2848  -16.9642   24.3388 N   0  0  0  0  0  0  0  0  0  0  0  0
   10.5573  -17.3107   23.7616 C   0  0  1  0  0  0  0  0  0  0  0  0
   10.9388  -16.3675   22.6617 C   0  0  0  0  0  0  0  0  0  0  0  0
   11.0585  -17.0052   21.3505 C   0  0  0  0  0  0  0  0  0  0  0  0
   11.1178  -18.2506   21.2508 O   0  0  0  0  0  0  0  0  0  0  0  0
   11.6151  -17.7002   24.6840 C   0  0  0  0  0  0  0  0  0  0  0  0
   12.7541  -18.0169   24.2915 O   0  0  0  0  0  0  0  0  0  0  0  0
   11.1108  -16.2453   20.1960 O   0  0  0  0  0  0  0  0  0  0  0  0
   11.3749  -17.7317   26.0897 N   0  0  0  0  0  0  0  0  0  0  0  0
   12.3669  -18.1828   27.0385 C   0  0  0  0  0  0  0  0  0  0  0  0
   11.9849  -19.4822   27.6591 C   0  0  0  0  0  0  0  0  0  0  0  0
   10.9375  -19.5165   28.3469 O   0  0  0  0  0  0  0  0  0  0  0  0
   12.7280  -20.6188   27.5048 O   0  0  0  0  0  0  0  0  0  0  0  0
  2  1  1  1
  2 10  1  0
  3  2  1  0
  4  3  1  0
  5  4  2  0
  6  5  1  0
  7  6  2  0
  7  8  1  0
  8  9  2  0
  9  4  1  0
 10 11  2  0
 10 12  1  0
 12 13  1  0
 13 17  1  0
 14 15  1  0
 13 14  1  1
 15 16  2  0
 17 18  2  0
 17 20  1  0
 19 15  1  0
 20 21  1  0
 21 22  1  0
 22 24  1  0
 23 22  2  0
M  END
$$$$
