FDG.pdb
     RDKit          3D

 24 24  0  0  1  0  0  0  0  0999 V2000
    7.8963  -15.6654   25.4467 N   0  0  0  0  0  0  0  0  0  0  0  0
    7.6461  -15.1805   24.1039 C   0  0  1  0  0  0  0  0  0  0  0  0
    8.1053  -13.7356   24.0797 C   0  0  0  0  0  0  0  0  0  0  0  0
    7.4856  -13.0482   25.2574 C   0  0  0  0  0  0  0  0  0  0  0  0
    6.1650  -12.6603   25.2348 C   0  0  0  0  0  0  0  0  0  0  0  0
    5.5783  -12.0272   26.3047 C   0  0  0  0  0  0  0  0  0  0  0  0
    6.3287  -11.7713   27.4329 C   0  0  0  0  0  0  0  0  0  0  0  0
    7.6381  -12.1406   27.4905 C   0  0  0  0  0  0  0  0  0  0  0  0
    8.2097  -12.7751   26.4078 C   0  0  0  0  0  0  0  0  0  0  0  0
    8.4098  -16.0062   23.1378 C   0  0  0  0  0  0  0  0  0  0  0  0
    8.4149  -15.6663   21.9384 O   0  0  0  0  0  0  0  0  0  0  0  0
    9.1049  -17.1442   23.5926 N   0  0  0  0  0  0  0  0  0  0  0  0
   10.4371  -17.5633   23.2429 C   0  0  1  0  0  0  0  0  0  0  0  0
   11.3297  -16.3913   22.9697 C   0  0  0  0  0  0  0  0  0  0  0  0
   11.5071  -16.1018   21.5467 C   0  0  0  0  0  0  0  0  0  0  0  0
   11.3403  -14.9429   21.1067 O   0  0  0  0  0  0  0  0  0  0  0  0
   11.0103  -18.6534   24.0203 C   0  0  0  0  0  0  0  0  0  0  0  0
   12.1434  -19.1131   23.7829 O   0  0  0  0  0  0  0  0  0  0  0  0
   11.8600  -17.1025   20.6594 O   0  0  0  0  0  0  0  0  0  0  0  0
   10.2787  -19.2386   25.0959 N   0  0  0  0  0  0  0  0  0  0  0  0
   10.3668  -18.7504   26.4530 C   0  0  0  0  0  0  0  0  0  0  0  0
   11.5983  -19.2378   27.1351 C   0  0  0  0  0  0  0  0  0  0  0  0
   11.7544  -20.4767   27.2457 O   0  0  0  0  0  0  0  0  0  0  0  0
   12.5472  -18.3912   27.6358 O   0  0  0  0  0  0  0  0  0  0  0  0
  2  1  1  1
  2 10  1  0
  3  2  1  0
  4  3  1  0
  5  4  2  0
  6  5  1  0
  7  6  2  0
  7  8  1  0
  8  9  2  0
  9  4  1  0
 10 11  2  0
 10 12  1  0
 12 13  1  0
 13 17  1  0
 14 15  1  0
 13 14  1  1
 15 16  2  0
 17 18  2  0
 17 20  1  0
 19 15  1  0
 20 21  1  0
 21 22  1  0
 22 24  1  0
 23 22  2  0
M  END
$$$$
