CNL.pdb
     RDKit          3D

 23 22  0  0  1  0  0  0  0  0999 V2000
   27.1045  -16.7551  -19.2912 N   0  0  0  0  0  0  0  0  0  0  0  0
   26.5677  -17.9872  -18.7771 C   0  0  1  0  0  0  0  0  0  0  0  0
   27.7556  -18.7658  -18.1957 C   0  0  0  0  0  0  0  0  0  0  0  0
   28.4962  -19.6753  -19.5785 S   0  0  0  0  0  0  0  0  0  0  0  0
   25.6528  -17.7323  -17.6388 C   0  0  0  0  0  0  0  0  0  0  0  0
   25.9091  -16.8337  -16.7892 O   0  0  0  0  0  0  0  0  0  0  0  0
   21.6689  -16.3081  -18.7565 N   0  0  0  0  0  0  0  0  0  0  0  0
   22.0323  -16.6509  -17.4328 C   0  0  0  0  0  0  0  0  0  0  0  0
   22.2327  -15.6906  -16.6133 O   0  0  0  0  0  0  0  0  0  0  0  0
   22.1814  -18.0467  -16.9933 C   0  0  0  0  0  0  0  0  0  0  0  0
   23.5154  -18.3582  -16.4310 C   0  0  2  0  0  0  0  0  0  0  0  0
   24.4840  -18.5230  -17.5297 N   0  0  0  0  0  0  0  0  0  0  0  0
   23.5302  -19.5188  -15.5545 C   0  0  0  0  0  0  0  0  0  0  0  0
   23.4906  -20.6904  -16.0707 O   0  0  0  0  0  0  0  0  0  0  0  0
   25.3427  -22.5289  -11.4325 C   0  0  0  0  0  0  0  0  0  0  0  0
   24.4443  -21.3997  -11.0611 C   0  0  1  0  0  0  0  0  0  0  0  0
   24.9641  -20.7547   -9.7877 C   0  0  0  0  0  0  0  0  0  0  0  0
   24.3688  -20.3171  -12.0955 C   0  0  0  0  0  0  0  0  0  0  0  0
   23.6235  -20.7053  -13.3479 C   0  0  2  0  0  0  0  0  0  0  0  0
   23.5876  -19.4750  -14.1649 N   0  0  0  0  0  0  0  0  0  0  0  0
   22.2422  -21.1275  -13.1272 C   0  0  0  0  0  0  0  0  0  0  0  0
   21.3254  -20.3251  -12.8802 O   0  0  0  0  0  0  0  0  0  0  0  0
   21.8816  -22.4838  -13.1855 O   0  0  0  0  0  0  0  0  0  0  0  0
  2  1  1  1
  2  3  1  0
  2  5  1  0
  4  3  1  0
  5  6  2  0
  7  8  1  0
  8  9  2  0
  8 10  1  0
 11 10  1  6
 11 13  1  0
 12  5  1  0
 12 11  1  0
 13 20  1  0
 13 14  2  0
 16 17  1  1
 16 15  1  0
 18 16  1  0
 19 18  1  1
 19 21  1  0
 20 19  1  0
 21 23  1  0
 22 21  2  0
M  END
$$$$
