CNL.pdb
     RDKit          3D

 23 22  0  0  1  0  0  0  0  0999 V2000
   25.6532  -17.0727  -15.0924 N   0  0  0  0  0  0  0  0  0  0  0  0
   24.3694  -17.7039  -15.2478 C   0  0  1  0  0  0  0  0  0  0  0  0
   23.8293  -17.2525  -16.6116 C   0  0  0  0  0  0  0  0  0  0  0  0
   23.8675  -15.4397  -16.6015 S   0  0  0  0  0  0  0  0  0  0  0  0
   24.5104  -19.1770  -15.3341 C   0  0  0  0  0  0  0  0  0  0  0  0
   23.5822  -19.8911  -15.8069 O   0  0  0  0  0  0  0  0  0  0  0  0
   28.6829  -20.0101  -16.8127 N   0  0  0  0  0  0  0  0  0  0  0  0
   27.6569  -20.9657  -16.6233 C   0  0  0  0  0  0  0  0  0  0  0  0
   27.0159  -21.3499  -17.6604 O   0  0  0  0  0  0  0  0  0  0  0  0
   27.3212  -21.5088  -15.2982 C   0  0  0  0  0  0  0  0  0  0  0  0
   25.9348  -21.2195  -14.8661 C   0  0  2  0  0  0  0  0  0  0  0  0
   25.7136  -19.7623  -14.8722 N   0  0  0  0  0  0  0  0  0  0  0  0
   25.5894  -21.7863  -13.5719 C   0  0  0  0  0  0  0  0  0  0  0  0
   25.6917  -23.0511  -13.3980 O   0  0  0  0  0  0  0  0  0  0  0  0
   25.9160  -20.3637   -7.9744 C   0  0  0  0  0  0  0  0  0  0  0  0
   25.6142  -20.1999   -9.4244 C   0  0  1  0  0  0  0  0  0  0  0  0
   26.5455  -19.1501  -10.0061 C   0  0  0  0  0  0  0  0  0  0  0  0
   25.8108  -21.4481  -10.2312 C   0  0  0  0  0  0  0  0  0  0  0  0
   24.7105  -21.7255  -11.2248 C   0  0  2  0  0  0  0  0  0  0  0  0
   25.1470  -21.0611  -12.4698 N   0  0  0  0  0  0  0  0  0  0  0  0
   23.4091  -21.1690  -10.8618 C   0  0  0  0  0  0  0  0  0  0  0  0
   22.8105  -21.4841   -9.8189 O   0  0  0  0  0  0  0  0  0  0  0  0
   22.7644  -20.2356  -11.6901 O   0  0  0  0  0  0  0  0  0  0  0  0
  2  1  1  6
  2  3  1  0
  2  5  1  0
  4  3  1  0
  5  6  2  0
  7  8  1  0
  8  9  2  0
  8 10  1  0
 11 10  1  1
 11 13  1  0
 12  5  1  0
 12 11  1  0
 13 20  1  0
 13 14  2  0
 16 17  1  6
 16 15  1  0
 18 16  1  0
 19 18  1  1
 19 21  1  0
 20 19  1  0
 21 23  1  0
 22 21  2  0
M  END
$$$$
