CNL.pdb
     RDKit          3D

 23 22  0  0  1  0  0  0  0  0999 V2000
   29.0476  -20.9742  -18.3153 N   0  0  0  0  0  0  0  0  0  0  0  0
   28.0696  -21.5657  -17.4410 C   0  0  1  0  0  0  0  0  0  0  0  0
   28.7948  -21.8635  -16.1216 C   0  0  0  0  0  0  0  0  0  0  0  0
   29.5074  -23.5219  -16.2934 S   0  0  0  0  0  0  0  0  0  0  0  0
   27.0010  -20.5941  -17.1070 C   0  0  0  0  0  0  0  0  0  0  0  0
   27.2076  -19.3505  -17.1843 O   0  0  0  0  0  0  0  0  0  0  0  0
   21.0516  -19.8966  -17.2189 N   0  0  0  0  0  0  0  0  0  0  0  0
   22.3890  -19.4604  -17.0675 C   0  0  0  0  0  0  0  0  0  0  0  0
   22.5719  -18.2511  -16.6960 O   0  0  0  0  0  0  0  0  0  0  0  0
   23.5387  -20.3418  -17.3224 C   0  0  0  0  0  0  0  0  0  0  0  0
   24.6221  -20.2178  -16.3207 C   0  0  2  0  0  0  0  0  0  0  0  0
   25.7426  -21.0973  -16.6992 N   0  0  0  0  0  0  0  0  0  0  0  0
   24.1973  -20.4851  -14.9556 C   0  0  0  0  0  0  0  0  0  0  0  0
   23.2740  -19.7643  -14.4375 O   0  0  0  0  0  0  0  0  0  0  0  0
   25.1624  -21.9771   -9.7273 C   0  0  0  0  0  0  0  0  0  0  0  0
   24.9704  -20.7028  -10.4753 C   0  0  1  0  0  0  0  0  0  0  0  0
   25.9031  -19.6496   -9.9019 C   0  0  0  0  0  0  0  0  0  0  0  0
   25.2792  -20.8043  -11.9388 C   0  0  0  0  0  0  0  0  0  0  0  0
   24.2918  -21.6286  -12.7265 C   0  0  2  0  0  0  0  0  0  0  0  0
   24.7138  -21.4829  -14.1347 N   0  0  0  0  0  0  0  0  0  0  0  0
   22.9070  -21.1719  -12.6325 C   0  0  0  0  0  0  0  0  0  0  0  0
   21.9689  -21.9286  -12.3282 O   0  0  0  0  0  0  0  0  0  0  0  0
   22.5675  -19.8327  -12.8861 O   0  0  0  0  0  0  0  0  0  0  0  0
  2  1  1  6
  2  3  1  0
  2  5  1  0
  4  3  1  0
  5  6  2  0
  7  8  1  0
  8  9  2  0
  8 10  1  0
 11 10  1  6
 11 13  1  0
 12  5  1  0
 12 11  1  0
 13 20  1  0
 13 14  2  0
 16 17  1  1
 16 15  1  0
 18 16  1  0
 19 18  1  1
 19 21  1  0
 20 19  1  0
 21 23  1  0
 22 21  2  0
M  END
$$$$
