CNL.pdb
     RDKit          3D

 23 22  0  0  1  0  0  0  0  0999 V2000
   14.6128  -13.8914  -12.7046 N   0  0  0  0  0  0  0  0  0  0  0  0
   14.1120  -12.5457  -12.6099 C   0  0  1  0  0  0  0  0  0  0  0  0
   12.9168  -12.5971  -11.6484 C   0  0  0  0  0  0  0  0  0  0  0  0
   11.5278  -13.2754  -12.5962 S   0  0  0  0  0  0  0  0  0  0  0  0
   15.1088  -11.6533  -11.9716 C   0  0  0  0  0  0  0  0  0  0  0  0
   15.6550  -11.9683  -10.8773 O   0  0  0  0  0  0  0  0  0  0  0  0
   18.5490  -11.1624  -12.6165 N   0  0  0  0  0  0  0  0  0  0  0  0
   18.4305   -9.9371  -13.3139 C   0  0  0  0  0  0  0  0  0  0  0  0
   19.3417   -9.6579  -14.1659 O   0  0  0  0  0  0  0  0  0  0  0  0
   17.3158   -9.0051  -13.0852 C   0  0  0  0  0  0  0  0  0  0  0  0
   16.3643   -9.4537  -12.0431 C   0  0  2  0  0  0  0  0  0  0  0  0
   15.4323  -10.4382  -12.6215 N   0  0  0  0  0  0  0  0  0  0  0  0
   15.6351   -8.3699  -11.4035 C   0  0  0  0  0  0  0  0  0  0  0  0
   14.7527   -7.7301  -12.0762 O   0  0  0  0  0  0  0  0  0  0  0  0
   12.8997   -5.8478   -7.4620 C   0  0  0  0  0  0  0  0  0  0  0  0
   14.3702   -5.9637   -7.2504 C   0  0  1  0  0  0  0  0  0  0  0  0
   14.6347   -6.2690   -5.7859 C   0  0  0  0  0  0  0  0  0  0  0  0
   15.0142   -7.0601   -8.0446 C   0  0  0  0  0  0  0  0  0  0  0  0
   15.0629   -6.8050   -9.5303 C   0  0  2  0  0  0  0  0  0  0  0  0
   15.8095   -7.9512  -10.0880 N   0  0  0  0  0  0  0  0  0  0  0  0
   15.7736   -5.5876   -9.9151 C   0  0  0  0  0  0  0  0  0  0  0  0
   17.0123   -5.5320  -10.0038 O   0  0  0  0  0  0  0  0  0  0  0  0
   15.0762   -4.4039  -10.2075 O   0  0  0  0  0  0  0  0  0  0  0  0
  2  1  1  1
  2  3  1  0
  2  5  1  0
  4  3  1  0
  5  6  2  0
  7  8  1  0
  8  9  2  0
  8 10  1  0
 11 10  1  6
 11 13  1  0
 12  5  1  0
 12 11  1  0
 13 20  1  0
 13 14  2  0
 16 17  1  1
 16 15  1  0
 18 16  1  0
 19 18  1  1
 19 21  1  0
 20 19  1  0
 21 23  1  0
 22 21  2  0
M  END
$$$$
