CNL.pdb
     RDKit          3D

 23 22  0  0  1  0  0  0  0  0999 V2000
   24.0448  -18.4712  -16.6832 N   0  0  0  0  0  0  0  0  0  0  0  0
   24.1886  -18.4620  -15.2514 C   0  0  1  0  0  0  0  0  0  0  0  0
   22.7935  -18.7417  -14.6762 C   0  0  0  0  0  0  0  0  0  0  0  0
   21.9468  -17.1406  -14.5889 S   0  0  0  0  0  0  0  0  0  0  0  0
   25.0470  -19.5824  -14.7981 C   0  0  0  0  0  0  0  0  0  0  0  0
   24.7422  -20.7799  -15.0590 O   0  0  0  0  0  0  0  0  0  0  0  0
   30.1963  -20.6579  -11.7950 N   0  0  0  0  0  0  0  0  0  0  0  0
   29.5008  -20.7541  -13.0232 C   0  0  0  0  0  0  0  0  0  0  0  0
   29.7804  -21.7470  -13.7782 O   0  0  0  0  0  0  0  0  0  0  0  0
   28.4943  -19.7649  -13.4381 C   0  0  0  0  0  0  0  0  0  0  0  0
   27.1231  -20.3137  -13.5433 C   0  0  2  0  0  0  0  0  0  0  0  0
   26.2178  -19.2741  -14.0649 N   0  0  0  0  0  0  0  0  0  0  0  0
   26.6104  -20.8642  -12.2984 C   0  0  0  0  0  0  0  0  0  0  0  0
   27.1369  -21.9317  -11.8253 O   0  0  0  0  0  0  0  0  0  0  0  0
   27.2417  -19.2026   -7.6747 C   0  0  0  0  0  0  0  0  0  0  0  0
   26.8679  -20.1628   -8.7511 C   0  0  1  0  0  0  0  0  0  0  0  0
   27.0512  -21.5792   -8.2333 C   0  0  0  0  0  0  0  0  0  0  0  0
   25.4425  -20.0472   -9.2010 C   0  0  0  0  0  0  0  0  0  0  0  0
   25.0682  -20.9803  -10.3253 C   0  0  2  0  0  0  0  0  0  0  0  0
   25.5714  -20.3221  -11.5483 N   0  0  0  0  0  0  0  0  0  0  0  0
   23.6310  -21.1831  -10.4941 C   0  0  0  0  0  0  0  0  0  0  0  0
   22.9168  -21.6962   -9.6155 O   0  0  0  0  0  0  0  0  0  0  0  0
   22.9800  -20.8000  -11.6783 O   0  0  0  0  0  0  0  0  0  0  0  0
  2  1  1  6
  2  3  1  0
  2  5  1  0
  4  3  1  0
  5  6  2  0
  7  8  1  0
  8  9  2  0
  8 10  1  0
 11 10  1  1
 11 13  1  0
 12  5  1  0
 12 11  1  0
 13 20  1  0
 13 14  2  0
 16 17  1  1
 16 15  1  0
 18 16  1  0
 19 18  1  1
 19 21  1  0
 20 19  1  0
 21 23  1  0
 22 21  2  0
M  END
$$$$
