CNL.pdb
     RDKit          3D

 23 22  0  0  1  0  0  0  0  0999 V2000
   14.1600  -11.9747  -10.9383 N   0  0  0  0  0  0  0  0  0  0  0  0
   13.9509  -10.5942  -10.5902 C   0  0  1  0  0  0  0  0  0  0  0  0
   13.1665  -10.5963   -9.2710 C   0  0  0  0  0  0  0  0  0  0  0  0
   11.5580  -11.3503   -9.6345 S   0  0  0  0  0  0  0  0  0  0  0  0
   15.2386   -9.9213  -10.2961 C   0  0  0  0  0  0  0  0  0  0  0  0
   16.2927  -10.5911  -10.1083 O   0  0  0  0  0  0  0  0  0  0  0  0
   19.0045   -6.5359  -10.9437 N   0  0  0  0  0  0  0  0  0  0  0  0
   18.4784   -7.4851  -11.8516 C   0  0  0  0  0  0  0  0  0  0  0  0
   19.1708   -7.7443  -12.8943 O   0  0  0  0  0  0  0  0  0  0  0  0
   17.1898   -8.1584  -11.6285 C   0  0  0  0  0  0  0  0  0  0  0  0
   16.4904   -7.7208  -10.3989 C   0  0  2  0  0  0  0  0  0  0  0  0
   15.2553   -8.5074  -10.2314 N   0  0  0  0  0  0  0  0  0  0  0  0
   16.2016   -6.2959  -10.3593 C   0  0  0  0  0  0  0  0  0  0  0  0
   15.3901   -5.8003  -11.2175 O   0  0  0  0  0  0  0  0  0  0  0  0
   15.2227   -1.6098   -7.7453 C   0  0  0  0  0  0  0  0  0  0  0  0
   16.6587   -1.9632   -7.9272 C   0  0  1  0  0  0  0  0  0  0  0  0
   17.4260   -1.5663   -6.6776 C   0  0  0  0  0  0  0  0  0  0  0  0
   16.9026   -3.4272   -8.1386 C   0  0  0  0  0  0  0  0  0  0  0  0
   16.3240   -3.9750   -9.4192 C   0  0  2  0  0  0  0  0  0  0  0  0
   16.7384   -5.3927   -9.4471 N   0  0  0  0  0  0  0  0  0  0  0  0
   16.8326   -3.3438  -10.6349 C   0  0  0  0  0  0  0  0  0  0  0  0
   16.2826   -2.3621  -11.1632 O   0  0  0  0  0  0  0  0  0  0  0  0
   17.9871   -3.8267  -11.2728 O   0  0  0  0  0  0  0  0  0  0  0  0
  2  1  1  1
  2  3  1  0
  2  5  1  0
  4  3  1  0
  5  6  2  0
  7  8  1  0
  8  9  2  0
  8 10  1  0
 11 10  1  6
 11 13  1  0
 12  5  1  0
 12 11  1  0
 13 20  1  0
 13 14  2  0
 16 17  1  1
 16 15  1  0
 18 16  1  0
 19 18  1  1
 19 21  1  0
 20 19  1  0
 21 23  1  0
 22 21  2  0
M  END
$$$$
