CNL.pdb
     RDKit          3D

 23 22  0  0  1  0  0  0  0  0999 V2000
   15.6900  -13.2734  -14.6529 N   0  0  0  0  0  0  0  0  0  0  0  0
   15.2420  -11.9131  -14.5123 C   0  0  1  0  0  0  0  0  0  0  0  0
   13.7880  -11.9861  -14.0265 C   0  0  0  0  0  0  0  0  0  0  0  0
   12.7721  -12.2852  -15.4983 S   0  0  0  0  0  0  0  0  0  0  0  0
   15.9936  -11.2158  -13.4416 C   0  0  0  0  0  0  0  0  0  0  0  0
   16.3344  -11.8224  -12.3876 O   0  0  0  0  0  0  0  0  0  0  0  0
   19.9423   -7.9340  -11.4874 N   0  0  0  0  0  0  0  0  0  0  0  0
   18.8955   -7.4662  -12.3163 C   0  0  0  0  0  0  0  0  0  0  0  0
   18.5965   -6.2259  -12.2381 O   0  0  0  0  0  0  0  0  0  0  0  0
   18.1650   -8.3504  -13.2371 C   0  0  0  0  0  0  0  0  0  0  0  0
   17.0226   -9.0546  -12.6112 C   0  0  2  0  0  0  0  0  0  0  0  0
   16.3193   -9.8517  -13.6322 N   0  0  0  0  0  0  0  0  0  0  0  0
   16.0953   -8.1749  -11.9173 C   0  0  0  0  0  0  0  0  0  0  0  0
   15.2166   -7.5356  -12.5954 O   0  0  0  0  0  0  0  0  0  0  0  0
   12.2714   -6.7392   -8.7099 C   0  0  0  0  0  0  0  0  0  0  0  0
   13.5222   -7.0235   -7.9515 C   0  0  1  0  0  0  0  0  0  0  0  0
   13.1813   -7.8748   -6.7403 C   0  0  0  0  0  0  0  0  0  0  0  0
   14.5509   -7.7800   -8.7370 C   0  0  0  0  0  0  0  0  0  0  0  0
   15.1072   -7.0269   -9.9195 C   0  0  2  0  0  0  0  0  0  0  0  0
   16.0703   -7.9575  -10.5431 N   0  0  0  0  0  0  0  0  0  0  0  0
   15.8338   -5.8066   -9.5759 C   0  0  0  0  0  0  0  0  0  0  0  0
   17.0345   -5.8072   -9.2539 O   0  0  0  0  0  0  0  0  0  0  0  0
   15.1964   -4.5550   -9.5944 O   0  0  0  0  0  0  0  0  0  0  0  0
  2  1  1  1
  2  3  1  0
  2  5  1  0
  4  3  1  0
  5  6  2  0
  7  8  1  0
  8  9  2  0
  8 10  1  0
 11 10  1  6
 11 13  1  0
 12  5  1  0
 12 11  1  0
 13 20  1  0
 13 14  2  0
 16 17  1  1
 16 15  1  0
 18 16  1  0
 19 18  1  1
 19 21  1  0
 20 19  1  0
 21 23  1  0
 22 21  2  0
M  END
$$$$
