CNL.pdb
     RDKit          3D

 23 22  0  0  1  0  0  0  0  0999 V2000
   27.6653  -21.2814  -10.8088 N   0  0  0  0  0  0  0  0  0  0  0  0
   26.2345  -21.2354  -10.6620 C   0  0  1  0  0  0  0  0  0  0  0  0
   25.9461  -20.1936   -9.5726 C   0  0  0  0  0  0  0  0  0  0  0  0
   26.7481  -20.7979   -8.0629 S   0  0  0  0  0  0  0  0  0  0  0  0
   25.5918  -20.7222  -11.8953 C   0  0  0  0  0  0  0  0  0  0  0  0
   26.0184  -19.6778  -12.4630 O   0  0  0  0  0  0  0  0  0  0  0  0
   26.0909  -20.9879  -15.9734 N   0  0  0  0  0  0  0  0  0  0  0  0
   25.5544  -21.9986  -15.1413 C   0  0  0  0  0  0  0  0  0  0  0  0
   26.3517  -22.9162  -14.7463 O   0  0  0  0  0  0  0  0  0  0  0  0
   24.1409  -22.0162  -14.7348 C   0  0  0  0  0  0  0  0  0  0  0  0
   23.8118  -21.0413  -13.6700 C   0  0  2  0  0  0  0  0  0  0  0  0
   24.4867  -21.4343  -12.4200 N   0  0  0  0  0  0  0  0  0  0  0  0
   22.3847  -20.8663  -13.4503 C   0  0  0  0  0  0  0  0  0  0  0  0
   21.7919  -21.6034  -12.5867 O   0  0  0  0  0  0  0  0  0  0  0  0
   20.2653  -15.9770  -14.0330 C   0  0  0  0  0  0  0  0  0  0  0  0
   20.4227  -17.3382  -13.4476 C   0  0  1  0  0  0  0  0  0  0  0  0
   19.7803  -17.3599  -12.0711 C   0  0  0  0  0  0  0  0  0  0  0  0
   19.7685  -18.4238  -14.2482 C   0  0  0  0  0  0  0  0  0  0  0  0
   20.1352  -19.8216  -13.8159 C   0  0  2  0  0  0  0  0  0  0  0  0
   21.5781  -19.9430  -14.1085 N   0  0  0  0  0  0  0  0  0  0  0  0
   19.4471  -20.8838  -14.5461 C   0  0  0  0  0  0  0  0  0  0  0  0
   19.9556  -21.4705  -15.5169 O   0  0  0  0  0  0  0  0  0  0  0  0
   18.1565  -21.2975  -14.1769 O   0  0  0  0  0  0  0  0  0  0  0  0
  2  1  1  6
  2  3  1  0
  2  5  1  0
  4  3  1  0
  5  6  2  0
  7  8  1  0
  8  9  2  0
  8 10  1  0
 11 10  1  6
 11 13  1  0
 12  5  1  0
 12 11  1  0
 13 20  1  0
 13 14  2  0
 16 17  1  1
 16 15  1  0
 18 16  1  0
 19 18  1  6
 19 21  1  0
 20 19  1  0
 21 23  1  0
 22 21  2  0
M  END
$$$$
