CNL.pdb
     RDKit          3D

 23 22  0  0  1  0  0  0  0  0999 V2000
   17.2919  -12.0979  -17.4184 N   0  0  0  0  0  0  0  0  0  0  0  0
   18.0493  -11.5961  -16.3025 C   0  0  1  0  0  0  0  0  0  0  0  0
   19.4200  -12.2835  -16.3678 C   0  0  0  0  0  0  0  0  0  0  0  0
   19.1725  -13.9747  -15.7624 S   0  0  0  0  0  0  0  0  0  0  0  0
   18.3149  -10.1454  -16.4519 C   0  0  0  0  0  0  0  0  0  0  0  0
   18.6911   -9.6652  -17.5578 O   0  0  0  0  0  0  0  0  0  0  0  0
   15.3636   -5.7653  -15.3242 N   0  0  0  0  0  0  0  0  0  0  0  0
   15.9712   -7.0334  -15.1678 C   0  0  0  0  0  0  0  0  0  0  0  0
   15.3342   -8.0472  -15.6154 O   0  0  0  0  0  0  0  0  0  0  0  0
   17.2802   -7.2050  -14.5192 C   0  0  0  0  0  0  0  0  0  0  0  0
   18.2966   -7.8485  -15.3826 C   0  0  2  0  0  0  0  0  0  0  0  0
   18.1353   -9.3124  -15.3218 N   0  0  0  0  0  0  0  0  0  0  0  0
   19.6648   -7.4687  -15.0674 C   0  0  0  0  0  0  0  0  0  0  0  0
   20.1972   -7.8980  -13.9844 O   0  0  0  0  0  0  0  0  0  0  0  0
   24.9135   -6.7395  -15.9674 C   0  0  0  0  0  0  0  0  0  0  0  0
   24.0326   -5.6970  -16.5655 C   0  0  1  0  0  0  0  0  0  0  0  0
   24.5550   -5.3442  -17.9477 C   0  0  0  0  0  0  0  0  0  0  0  0
   22.6080   -6.1308  -16.7385 C   0  0  0  0  0  0  0  0  0  0  0  0
   21.8470   -6.2942  -15.4466 C   0  0  2  0  0  0  0  0  0  0  0  0
   20.4760   -6.6600  -15.8574 N   0  0  0  0  0  0  0  0  0  0  0  0
   21.7551   -5.0810  -14.6375 C   0  0  0  0  0  0  0  0  0  0  0  0
   20.9271   -4.1822  -14.8654 O   0  0  0  0  0  0  0  0  0  0  0  0
   22.6139   -4.8721  -13.5458 O   0  0  0  0  0  0  0  0  0  0  0  0
  2  1  1  6
  2  3  1  0
  2  5  1  0
  4  3  1  0
  5  6  2  0
  7  8  1  0
  8  9  2  0
  8 10  1  0
 11 10  1  1
 11 13  1  0
 12  5  1  0
 12 11  1  0
 13 20  1  0
 13 14  2  0
 16 17  1  6
 16 15  1  0
 18 16  1  0
 19 18  1  6
 19 21  1  0
 20 19  1  0
 21 23  1  0
 22 21  2  0
M  END
$$$$
