CNL.pdb
     RDKit          3D

 23 22  0  0  1  0  0  0  0  0999 V2000
   15.5173  -21.6679    1.0215 N   0  0  0  0  0  0  0  0  0  0  0  0
   15.9327  -21.3875    2.3704 C   0  0  1  0  0  0  0  0  0  0  0  0
   17.4638  -21.4929    2.3808 C   0  0  0  0  0  0  0  0  0  0  0  0
   17.8555  -23.1917    2.8792 S   0  0  0  0  0  0  0  0  0  0  0  0
   15.6193  -19.9868    2.7408 C   0  0  0  0  0  0  0  0  0  0  0  0
   15.6762  -19.0608    1.8839 O   0  0  0  0  0  0  0  0  0  0  0  0
   12.0190  -19.6255    6.6283 N   0  0  0  0  0  0  0  0  0  0  0  0
   12.7135  -18.8742    5.6511 C   0  0  0  0  0  0  0  0  0  0  0  0
   12.0677  -18.5432    4.5988 O   0  0  0  0  0  0  0  0  0  0  0  0
   14.1209  -18.4791    5.8146 C   0  0  0  0  0  0  0  0  0  0  0  0
   14.8641  -18.3690    4.5386 C   0  0  2  0  0  0  0  0  0  0  0  0
   15.2544  -19.7147    4.0810 N   0  0  0  0  0  0  0  0  0  0  0  0
   16.0229  -17.4923    4.6041 C   0  0  0  0  0  0  0  0  0  0  0  0
   17.1524  -17.9780    4.9631 O   0  0  0  0  0  0  0  0  0  0  0  0
   18.5373  -12.5246    4.3545 C   0  0  0  0  0  0  0  0  0  0  0  0
   18.1890  -13.3037    3.1330 C   0  0  1  0  0  0  0  0  0  0  0  0
   19.3791  -14.1624    2.7403 C   0  0  0  0  0  0  0  0  0  0  0  0
   17.0262  -14.2323    3.3151 C   0  0  0  0  0  0  0  0  0  0  0  0
   17.2591  -15.3294    4.3235 C   0  0  2  0  0  0  0  0  0  0  0  0
   16.0204  -16.1341    4.3017 N   0  0  0  0  0  0  0  0  0  0  0  0
   17.4570  -14.8633    5.6941 C   0  0  0  0  0  0  0  0  0  0  0  0
   18.5811  -14.7701    6.2167 O   0  0  0  0  0  0  0  0  0  0  0  0
   16.3660  -14.4926    6.4974 O   0  0  0  0  0  0  0  0  0  0  0  0
  2  1  1  6
  2  3  1  0
  2  5  1  0
  4  3  1  0
  5  6  2  0
  7  8  1  0
  8  9  2  0
  8 10  1  0
 11 10  1  1
 11 13  1  0
 12  5  1  0
 12 11  1  0
 13 20  1  0
 13 14  2  0
 16 17  1  1
 16 15  1  0
 18 16  1  0
 19 18  1  6
 19 21  1  0
 20 19  1  0
 21 23  1  0
 22 21  2  0
M  END
$$$$
