CNL.pdb
     RDKit          3D

 23 22  0  0  1  0  0  0  0  0999 V2000
   20.4296  -16.8523  -17.3890 N   0  0  0  0  0  0  0  0  0  0  0  0
   20.2984  -16.0227  -16.2205 C   0  0  1  0  0  0  0  0  0  0  0  0
   21.5238  -16.3154  -15.3441 C   0  0  0  0  0  0  0  0  0  0  0  0
   21.2196  -17.9223  -14.5611 S   0  0  0  0  0  0  0  0  0  0  0  0
   20.3881  -14.5867  -16.5777 C   0  0  0  0  0  0  0  0  0  0  0  0
   21.2048  -14.1858  -17.4537 O   0  0  0  0  0  0  0  0  0  0  0  0
   17.6666   -9.5723  -17.2374 N   0  0  0  0  0  0  0  0  0  0  0  0
   18.1426  -10.1987  -16.0615 C   0  0  0  0  0  0  0  0  0  0  0  0
   18.5226   -9.4392  -15.1061 O   0  0  0  0  0  0  0  0  0  0  0  0
   18.2089  -11.6613  -15.9198 C   0  0  0  0  0  0  0  0  0  0  0  0
   19.5515  -12.2281  -16.1823 C   0  0  2  0  0  0  0  0  0  0  0  0
   19.5336  -13.6766  -15.9107 N   0  0  0  0  0  0  0  0  0  0  0  0
   20.6214  -11.5793  -15.4408 C   0  0  0  0  0  0  0  0  0  0  0  0
   20.8643  -11.9544  -14.2404 O   0  0  0  0  0  0  0  0  0  0  0  0
   25.3994  -10.5387  -13.8643 C   0  0  0  0  0  0  0  0  0  0  0  0
   25.0146   -9.8041  -15.1024 C   0  0  1  0  0  0  0  0  0  0  0  0
   26.1449   -9.9131  -16.1115 C   0  0  0  0  0  0  0  0  0  0  0  0
   23.7843  -10.3407  -15.7703 C   0  0  0  0  0  0  0  0  0  0  0  0
   22.4915   -9.9443  -15.1021 C   0  0  2  0  0  0  0  0  0  0  0  0
   21.4329  -10.5597  -15.9285 N   0  0  0  0  0  0  0  0  0  0  0  0
   22.2417   -8.5051  -15.0670 C   0  0  0  0  0  0  0  0  0  0  0  0
   21.8484   -7.8668  -16.0586 O   0  0  0  0  0  0  0  0  0  0  0  0
   22.4381   -7.7647  -13.8897 O   0  0  0  0  0  0  0  0  0  0  0  0
  2  1  1  6
  2  3  1  0
  2  5  1  0
  4  3  1  0
  5  6  2  0
  7  8  1  0
  8  9  2  0
  8 10  1  0
 11 10  1  1
 11 13  1  0
 12  5  1  0
 12 11  1  0
 13 20  1  0
 13 14  2  0
 16 17  1  6
 16 15  1  0
 18 16  1  0
 19 18  1  6
 19 21  1  0
 20 19  1  0
 21 23  1  0
 22 21  2  0
M  END
$$$$
