CNL.pdb
     RDKit          3D

 23 22  0  0  1  0  0  0  0  0999 V2000
   22.8529  -13.9829  -19.1053 N   0  0  0  0  0  0  0  0  0  0  0  0
   22.2491  -12.6771  -19.0731 C   0  0  1  0  0  0  0  0  0  0  0  0
   20.8253  -12.8736  -18.5349 C   0  0  0  0  0  0  0  0  0  0  0  0
   19.9458  -13.8696  -19.7686 S   0  0  0  0  0  0  0  0  0  0  0  0
   22.9358  -11.8000  -18.0951 C   0  0  0  0  0  0  0  0  0  0  0  0
   23.6651  -12.2875  -17.1865 O   0  0  0  0  0  0  0  0  0  0  0  0
   26.7065   -7.9094  -17.1736 N   0  0  0  0  0  0  0  0  0  0  0  0
   25.3218   -7.7813  -17.4346 C   0  0  0  0  0  0  0  0  0  0  0  0
   24.7402   -6.7271  -17.0053 O   0  0  0  0  0  0  0  0  0  0  0  0
   24.5601   -8.8053  -18.1659 C   0  0  0  0  0  0  0  0  0  0  0  0
   23.4846   -9.4360  -17.3671 C   0  0  2  0  0  0  0  0  0  0  0  0
   22.7522  -10.4009  -18.2066 N   0  0  0  0  0  0  0  0  0  0  0  0
   22.5677   -8.4859  -16.7570 C   0  0  0  0  0  0  0  0  0  0  0  0
   21.7154   -7.8794  -17.4962 O   0  0  0  0  0  0  0  0  0  0  0  0
   18.5084   -7.0728  -13.7144 C   0  0  0  0  0  0  0  0  0  0  0  0
   19.7980   -7.2629  -12.9924 C   0  0  1  0  0  0  0  0  0  0  0  0
   19.5365   -8.0387  -11.7127 C   0  0  0  0  0  0  0  0  0  0  0  0
   20.8204   -8.0381  -13.7677 C   0  0  0  0  0  0  0  0  0  0  0  0
   21.5092   -7.2472  -14.8516 C   0  0  2  0  0  0  0  0  0  0  0  0
   22.5262   -8.1656  -15.4036 N   0  0  0  0  0  0  0  0  0  0  0  0
   22.2048   -6.0509  -14.3826 C   0  0  0  0  0  0  0  0  0  0  0  0
   23.4113   -6.0487  -14.0832 O   0  0  0  0  0  0  0  0  0  0  0  0
   21.5290   -4.8270  -14.2466 O   0  0  0  0  0  0  0  0  0  0  0  0
  2  1  1  1
  2  3  1  0
  2  5  1  0
  4  3  1  0
  5  6  2  0
  7  8  1  0
  8  9  2  0
  8 10  1  0
 11 10  1  6
 11 13  1  0
 12  5  1  0
 12 11  1  0
 13 20  1  0
 13 14  2  0
 16 17  1  1
 16 15  1  0
 18 16  1  0
 19 18  1  1
 19 21  1  0
 20 19  1  0
 21 23  1  0
 22 21  2  0
M  END
$$$$
