CNL.pdb
     RDKit          3D

 23 22  0  0  1  0  0  0  0  0999 V2000
   15.5374  -13.5305  -13.5819 N   0  0  0  0  0  0  0  0  0  0  0  0
   14.9691  -12.2294  -13.8164 C   0  0  1  0  0  0  0  0  0  0  0  0
   13.5482  -12.2688  -13.2378 C   0  0  0  0  0  0  0  0  0  0  0  0
   12.5569  -13.2633  -14.3851 S   0  0  0  0  0  0  0  0  0  0  0  0
   15.6924  -11.1890  -13.0471 C   0  0  0  0  0  0  0  0  0  0  0  0
   16.1024  -11.4167  -11.8744 O   0  0  0  0  0  0  0  0  0  0  0  0
   18.6045   -7.0183  -12.0530 N   0  0  0  0  0  0  0  0  0  0  0  0
   18.4577   -7.2038  -13.4479 C   0  0  0  0  0  0  0  0  0  0  0  0
   19.2390   -6.5409  -14.2122 O   0  0  0  0  0  0  0  0  0  0  0  0
   17.4544   -8.1145  -14.0202 C   0  0  0  0  0  0  0  0  0  0  0  0
   16.6655   -8.8500  -13.0057 C   0  0  2  0  0  0  0  0  0  0  0  0
   15.9114   -9.9331  -13.6620 N   0  0  0  0  0  0  0  0  0  0  0  0
   15.7763   -8.0057  -12.2233 C   0  0  0  0  0  0  0  0  0  0  0  0
   14.7156   -7.5413  -12.7710 O   0  0  0  0  0  0  0  0  0  0  0  0
   12.8161   -6.4969   -7.9366 C   0  0  0  0  0  0  0  0  0  0  0  0
   14.2929   -6.3528   -7.8010 C   0  0  1  0  0  0  0  0  0  0  0  0
   14.7010   -6.7616   -6.3959 C   0  0  0  0  0  0  0  0  0  0  0  0
   15.0771   -7.2118   -8.7470 C   0  0  0  0  0  0  0  0  0  0  0  0
   15.0395   -6.7500  -10.1823 C   0  0  2  0  0  0  0  0  0  0  0  0
   15.9742   -7.6458  -10.8938 N   0  0  0  0  0  0  0  0  0  0  0  0
   15.4984   -5.3787  -10.3919 C   0  0  0  0  0  0  0  0  0  0  0  0
   14.7171   -4.4193  -10.5120 O   0  0  0  0  0  0  0  0  0  0  0  0
   16.8682   -5.0774  -10.4683 O   0  0  0  0  0  0  0  0  0  0  0  0
  2  1  1  1
  2  3  1  0
  2  5  1  0
  4  3  1  0
  5  6  2  0
  7  8  1  0
  8  9  2  0
  8 10  1  0
 11 10  1  6
 11 13  1  0
 12  5  1  0
 12 11  1  0
 13 20  1  0
 13 14  2  0
 16 17  1  1
 16 15  1  0
 18 16  1  0
 19 18  1  1
 19 21  1  0
 20 19  1  0
 21 23  1  0
 22 21  2  0
M  END
$$$$
