CNL.pdb
     RDKit          3D

 23 22  0  0  1  0  0  0  0  0999 V2000
   34.4345  -10.1775  -20.1835 N   0  0  0  0  0  0  0  0  0  0  0  0
   35.0463   -9.0676  -19.5019 C   0  0  1  0  0  0  0  0  0  0  0  0
   35.9543   -8.3781  -20.5293 C   0  0  0  0  0  0  0  0  0  0  0  0
   37.3600   -9.4917  -20.7972 S   0  0  0  0  0  0  0  0  0  0  0  0
   34.0312   -8.0589  -19.1152 C   0  0  0  0  0  0  0  0  0  0  0  0
   33.0017   -7.8704  -19.8220 O   0  0  0  0  0  0  0  0  0  0  0  0
   31.5922   -9.2381  -16.5765 N   0  0  0  0  0  0  0  0  0  0  0  0
   31.4619   -7.8406  -16.7548 C   0  0  0  0  0  0  0  0  0  0  0  0
   30.3932   -7.4190  -17.3152 O   0  0  0  0  0  0  0  0  0  0  0  0
   32.4996   -6.8914  -16.3237 C   0  0  0  0  0  0  0  0  0  0  0  0
   33.2824   -6.3124  -17.4392 C   0  0  2  0  0  0  0  0  0  0  0  0
   34.2466   -7.3123  -17.9321 N   0  0  0  0  0  0  0  0  0  0  0  0
   33.9580   -5.0690  -17.1034 C   0  0  0  0  0  0  0  0  0  0  0  0
   34.9815   -5.1037  -16.3341 O   0  0  0  0  0  0  0  0  0  0  0  0
   34.0327   -0.9035  -20.6198 C   0  0  0  0  0  0  0  0  0  0  0  0
   34.4610   -1.8825  -19.5813 C   0  0  1  0  0  0  0  0  0  0  0  0
   35.9786   -1.8950  -19.5121 C   0  0  0  0  0  0  0  0  0  0  0  0
   33.9672   -1.5615  -18.2026 C   0  0  0  0  0  0  0  0  0  0  0  0
   34.3260   -2.5897  -17.1591 C   0  0  2  0  0  0  0  0  0  0  0  0
   33.5873   -3.8062  -17.5551 N   0  0  0  0  0  0  0  0  0  0  0  0
   33.9127   -2.2466  -15.8002 C   0  0  0  0  0  0  0  0  0  0  0  0
   32.7565   -2.4314  -15.3824 O   0  0  0  0  0  0  0  0  0  0  0  0
   34.8198   -1.6823  -14.8883 O   0  0  0  0  0  0  0  0  0  0  0  0
  2  1  1  6
  2  3  1  0
  2  5  1  0
  4  3  1  0
  5  6  2  0
  7  8  1  0
  8  9  2  0
  8 10  1  0
 11 10  1  1
 11 13  1  0
 12  5  1  0
 12 11  1  0
 13 20  1  0
 13 14  2  0
 16 17  1  1
 16 15  1  0
 18 16  1  0
 19 18  1  6
 19 21  1  0
 20 19  1  0
 21 23  1  0
 22 21  2  0
M  END
$$$$
