CNL.pdb
     RDKit          3D

 23 22  0  0  1  0  0  0  0  0999 V2000
   19.4023  -13.8317  -16.3480 N   0  0  0  0  0  0  0  0  0  0  0  0
   19.1073  -12.5478  -16.9269 C   0  0  1  0  0  0  0  0  0  0  0  0
   17.6562  -12.6207  -17.4213 C   0  0  0  0  0  0  0  0  0  0  0  0
   17.6196  -13.8945  -18.7112 S   0  0  0  0  0  0  0  0  0  0  0  0
   19.1321  -11.4833  -15.8954 C   0  0  0  0  0  0  0  0  0  0  0  0
   18.6085  -11.6670  -14.7609 O   0  0  0  0  0  0  0  0  0  0  0  0
   21.9790   -6.5406  -14.0861 N   0  0  0  0  0  0  0  0  0  0  0  0
   21.2175   -7.7147  -13.8779 C   0  0  0  0  0  0  0  0  0  0  0  0
   20.5970   -7.8205  -12.7654 O   0  0  0  0  0  0  0  0  0  0  0  0
   21.1287   -8.7846  -14.8834 C   0  0  0  0  0  0  0  0  0  0  0  0
   19.7441   -9.0966  -15.3052 C   0  0  2  0  0  0  0  0  0  0  0  0
   19.7585  -10.2552  -16.2161 N   0  0  0  0  0  0  0  0  0  0  0  0
   19.0447   -7.9747  -15.9117 C   0  0  0  0  0  0  0  0  0  0  0  0
   19.4361   -7.5383  -17.0506 O   0  0  0  0  0  0  0  0  0  0  0  0
   15.1127   -5.1520  -17.9498 C   0  0  0  0  0  0  0  0  0  0  0  0
   15.0068   -5.2751  -16.4686 C   0  0  1  0  0  0  0  0  0  0  0  0
   13.5663   -5.5889  -16.1019 C   0  0  0  0  0  0  0  0  0  0  0  0
   15.8500   -6.3700  -15.8876 C   0  0  0  0  0  0  0  0  0  0  0  0
   17.3358   -6.1432  -16.0132 C   0  0  2  0  0  0  0  0  0  0  0  0
   17.9552   -7.3119  -15.3553 N   0  0  0  0  0  0  0  0  0  0  0  0
   17.8273   -4.9452  -15.3361 C   0  0  0  0  0  0  0  0  0  0  0  0
   17.9788   -3.8579  -15.9192 O   0  0  0  0  0  0  0  0  0  0  0  0
   18.1563   -4.9689  -13.9707 O   0  0  0  0  0  0  0  0  0  0  0  0
  2  1  1  1
  2  3  1  0
  2  5  1  0
  4  3  1  0
  5  6  2  0
  7  8  1  0
  8  9  2  0
  8 10  1  0
 11 10  1  6
 11 13  1  0
 12  5  1  0
 12 11  1  0
 13 20  1  0
 13 14  2  0
 16 17  1  6
 16 15  1  0
 18 16  1  0
 19 18  1  1
 19 21  1  0
 20 19  1  0
 21 23  1  0
 22 21  2  0
M  END
$$$$
