SML.pdb
     RDKit          3D

 23 22  0  0  1  0  0  0  0  0999 V2000
   18.0426  -13.8095  -14.5008 O   0  0  0  0  0  0  0  0  0  0  0  0
   18.6075  -12.6428  -15.0234 C   0  0  0  0  0  0  0  0  0  0  0  0
   17.6910  -12.0158  -16.0374 C   0  0  2  0  0  0  0  0  0  0  0  0
   17.8467  -12.6980  -17.3061 N   0  0  0  0  0  0  0  0  0  0  0  0
   17.8905  -10.5826  -16.2238 C   0  0  0  0  0  0  0  0  0  0  0  0
   18.6683  -10.1754  -17.1256 O   0  0  0  0  0  0  0  0  0  0  0  0
   13.3544   -6.3939  -15.5752 C   0  0  0  0  0  0  0  0  0  0  0  0
   14.6544   -5.1116  -15.6124 S   0  0  0  0  0  0  0  0  0  0  0  0
   16.2978   -5.9028  -15.8046 C   0  0  0  0  0  0  0  0  0  0  0  0
   16.1559   -7.3698  -15.5128 C   0  0  0  0  0  0  0  0  0  0  0  0
   17.4134   -8.1496  -15.6756 C   0  0  2  0  0  0  0  0  0  0  0  0
   17.2620   -9.5697  -15.4499 N   0  0  0  0  0  0  0  0  0  0  0  0
   18.5575   -7.5814  -14.9205 C   0  0  0  0  0  0  0  0  0  0  0  0
   18.7431   -7.8210  -13.6894 O   0  0  0  0  0  0  0  0  0  0  0  0
   23.7582   -5.1893  -15.2787 C   0  0  0  0  0  0  0  0  0  0  0  0
   23.2260   -6.5606  -15.1467 C   0  0  2  0  0  0  0  0  0  0  0  0
   24.1069   -7.4881  -16.0245 C   0  0  0  0  0  0  0  0  0  0  0  0
   21.8377   -6.8503  -15.5143 C   0  0  0  0  0  0  0  0  0  0  0  0
   20.6982   -6.2091  -14.8173 C   0  0  2  0  0  0  0  0  0  0  0  0
   19.4999   -6.7363  -15.5583 N   0  0  0  0  0  0  0  0  0  0  0  0
   20.6631   -4.7639  -14.9720 C   0  0  0  0  0  0  0  0  0  0  0  0
   21.1244   -3.8110  -14.0745 O   0  0  0  0  0  0  0  0  0  0  0  0
   20.1531   -4.2730  -16.0369 O   0  0  0  0  0  0  0  0  0  0  0  0
  1  2  1  0
  3  2  1  0
  3  5  1  0
  3  4  1  6
  5 12  1  0
  6  5  2  0
  8  9  1  0
  8  7  1  0
 10  9  1  0
 11 10  1  1
 11 13  1  0
 12 11  1  0
 13 14  2  0
 16 18  1  0
 16 15  1  6
 17 16  1  0
 19 18  1  6
 20 13  1  0
 20 19  1  0
 21 22  1  0
 21 19  1  0
 23 21  2  0
M  END
$$$$
