SML.pdb
     RDKit          3D

 23 22  0  0  1  0  0  0  0  0999 V2000
   17.7561  -19.1758    0.7127 O   0  0  0  0  0  0  0  0  0  0  0  0
   18.0585  -18.6344    1.9653 C   0  0  0  0  0  0  0  0  0  0  0  0
   16.9095  -18.8213    2.9172 C   0  0  2  0  0  0  0  0  0  0  0  0
   15.7610  -18.0862    2.4273 N   0  0  0  0  0  0  0  0  0  0  0  0
   17.1958  -18.4240    4.2914 C   0  0  0  0  0  0  0  0  0  0  0  0
   16.4975  -17.5314    4.8390 O   0  0  0  0  0  0  0  0  0  0  0  0
   21.9492  -21.1107    6.8928 C   0  0  0  0  0  0  0  0  0  0  0  0
   20.3419  -21.9759    6.8314 S   0  0  0  0  0  0  0  0  0  0  0  0
   19.0002  -20.8230    7.3152 C   0  0  0  0  0  0  0  0  0  0  0  0
   19.5029  -19.4159    7.1576 C   0  0  0  0  0  0  0  0  0  0  0  0
   18.5748  -18.5142    6.4218 C   0  0  2  0  0  0  0  0  0  0  0  0
   18.2302  -18.9751    5.0953 N   0  0  0  0  0  0  0  0  0  0  0  0
   19.0091  -17.0954    6.4265 C   0  0  0  0  0  0  0  0  0  0  0  0
   20.0698  -16.7093    5.8490 O   0  0  0  0  0  0  0  0  0  0  0  0
   19.6115  -12.2192    5.2459 C   0  0  0  0  0  0  0  0  0  0  0  0
   18.7155  -13.3552    4.9492 C   0  0  2  0  0  0  0  0  0  0  0  0
   17.6318  -12.8475    3.9619 C   0  0  0  0  0  0  0  0  0  0  0  0
   17.9956  -14.0280    6.0333 C   0  0  0  0  0  0  0  0  0  0  0  0
   18.7107  -14.6761    7.1575 C   0  0  2  0  0  0  0  0  0  0  0  0
   18.2418  -16.1037    7.0874 N   0  0  0  0  0  0  0  0  0  0  0  0
   18.3050  -14.1831    8.4638 C   0  0  0  0  0  0  0  0  0  0  0  0
   18.7974  -13.0712    9.1327 O   0  0  0  0  0  0  0  0  0  0  0  0
   17.4000  -14.8189    9.1055 O   0  0  0  0  0  0  0  0  0  0  0  0
  1  2  1  0
  3  2  1  0
  3  5  1  0
  3  4  1  6
  5 12  1  0
  6  5  2  0
  8  9  1  0
  8  7  1  0
 10  9  1  0
 11 10  1  6
 11 13  1  0
 12 11  1  0
 13 14  2  0
 16 18  1  0
 16 15  1  1
 17 16  1  0
 19 18  1  6
 20 13  1  0
 20 19  1  0
 21 22  1  0
 21 19  1  0
 23 21  2  0
M  END
$$$$
