SML.pdb
     RDKit          3D

 23 22  0  0  1  0  0  0  0  0999 V2000
   19.8668  -14.6069  -16.9949 O   0  0  0  0  0  0  0  0  0  0  0  0
   20.6559  -13.7919  -16.1785 C   0  0  0  0  0  0  0  0  0  0  0  0
   21.0877  -12.5561  -16.9187 C   0  0  2  0  0  0  0  0  0  0  0  0
   21.9024  -12.9410  -18.0533 N   0  0  0  0  0  0  0  0  0  0  0  0
   21.8111  -11.5875  -16.1020 C   0  0  0  0  0  0  0  0  0  0  0  0
   21.3483  -11.2505  -14.9811 O   0  0  0  0  0  0  0  0  0  0  0  0
   28.0621  -13.3331  -15.2125 C   0  0  0  0  0  0  0  0  0  0  0  0
   27.4838  -11.6278  -15.5179 S   0  0  0  0  0  0  0  0  0  0  0  0
   25.6613  -11.5498  -15.3289 C   0  0  0  0  0  0  0  0  0  0  0  0
   25.2096  -10.1534  -15.6510 C   0  0  0  0  0  0  0  0  0  0  0  0
   23.7313   -9.9807  -15.6794 C   0  0  2  0  0  0  0  0  0  0  0  0
   23.0356  -10.9688  -16.4731 N   0  0  0  0  0  0  0  0  0  0  0  0
   23.3090   -8.5974  -16.0111 C   0  0  0  0  0  0  0  0  0  0  0  0
   23.1974   -8.1911  -17.2069 O   0  0  0  0  0  0  0  0  0  0  0  0
   18.8943   -5.9042  -16.9004 C   0  0  0  0  0  0  0  0  0  0  0  0
   20.2285   -5.5587  -16.3699 C   0  0  2  0  0  0  0  0  0  0  0  0
   20.9743   -4.7595  -17.4708 C   0  0  0  0  0  0  0  0  0  0  0  0
   21.1473   -6.6165  -15.9417 C   0  0  0  0  0  0  0  0  0  0  0  0
   22.4515   -6.3059  -15.3109 C   0  0  2  0  0  0  0  0  0  0  0  0
   23.0101   -7.6645  -14.9867 N   0  0  0  0  0  0  0  0  0  0  0  0
   22.3298   -5.6076  -14.0414 C   0  0  0  0  0  0  0  0  0  0  0  0
   22.5265   -4.2543  -13.8043 O   0  0  0  0  0  0  0  0  0  0  0  0
   22.0136   -6.2787  -12.9999 O   0  0  0  0  0  0  0  0  0  0  0  0
  1  2  1  0
  3  2  1  0
  3  5  1  0
  3  4  1  6
  5 12  1  0
  6  5  2  0
  8  9  1  0
  8  7  1  0
 10  9  1  0
 11 10  1  6
 11 13  1  0
 12 11  1  0
 13 14  2  0
 16 18  1  0
 16 15  1  6
 17 16  1  0
 19 18  1  1
 20 13  1  0
 20 19  1  0
 21 22  1  0
 21 19  1  0
 23 21  2  0
M  END
$$$$
