SML.pdb
     RDKit          3D

 23 22  0  0  1  0  0  0  0  0999 V2000
   17.3723  -13.5959  -20.0373 O   0  0  0  0  0  0  0  0  0  0  0  0
   18.1583  -12.8018  -19.1977 C   0  0  0  0  0  0  0  0  0  0  0  0
   19.2543  -13.6161  -18.5675 C   0  0  2  0  0  0  0  0  0  0  0  0
   18.6715  -14.7607  -17.8970 N   0  0  0  0  0  0  0  0  0  0  0  0
   20.0929  -12.8747  -17.6319 C   0  0  0  0  0  0  0  0  0  0  0  0
   19.5903  -12.4223  -16.5705 O   0  0  0  0  0  0  0  0  0  0  0  0
   27.3535  -10.8709  -15.0192 C   0  0  0  0  0  0  0  0  0  0  0  0
   26.3053  -11.8656  -16.1361 S   0  0  0  0  0  0  0  0  0  0  0  0
   24.5729  -11.2699  -16.0518 C   0  0  0  0  0  0  0  0  0  0  0  0
   23.7340  -12.1171  -16.9662 C   0  0  0  0  0  0  0  0  0  0  0  0
   22.2823  -11.7886  -16.9429 C   0  0  2  0  0  0  0  0  0  0  0  0
   21.4763  -12.6085  -17.8196 N   0  0  0  0  0  0  0  0  0  0  0  0
   22.0058  -10.3414  -17.1185 C   0  0  0  0  0  0  0  0  0  0  0  0
   21.9776   -9.7903  -18.2600 O   0  0  0  0  0  0  0  0  0  0  0  0
   19.0683   -5.8311  -16.0830 C   0  0  0  0  0  0  0  0  0  0  0  0
   19.4240   -6.8003  -17.1391 C   0  0  2  0  0  0  0  0  0  0  0  0
   18.1095   -7.2174  -17.8497 C   0  0  0  0  0  0  0  0  0  0  0  0
   20.1129   -8.0462  -16.7935 C   0  0  0  0  0  0  0  0  0  0  0  0
   21.4567   -8.0449  -16.1692 C   0  0  2  0  0  0  0  0  0  0  0  0
   21.7591   -9.5086  -15.9984 N   0  0  0  0  0  0  0  0  0  0  0  0
   21.4746   -7.4718  -14.8331 C   0  0  0  0  0  0  0  0  0  0  0  0
   21.6800   -6.1424  -14.4914 O   0  0  0  0  0  0  0  0  0  0  0  0
   21.2905   -8.2450  -13.8314 O   0  0  0  0  0  0  0  0  0  0  0  0
  1  2  1  0
  3  2  1  0
  3  5  1  0
  3  4  1  1
  5 12  1  0
  6  5  2  0
  8  9  1  0
  8  7  1  0
 10  9  1  0
 11 10  1  6
 11 13  1  0
 12 11  1  0
 13 14  2  0
 16 18  1  0
 16 15  1  1
 17 16  1  0
 19 18  1  1
 20 13  1  0
 20 19  1  0
 21 22  1  0
 21 19  1  0
 23 21  2  0
M  END
$$$$
