SML.pdb
     RDKit          3D

 23 22  0  0  1  0  0  0  0  0999 V2000
   18.6140  -14.2534  -19.3677 O   0  0  0  0  0  0  0  0  0  0  0  0
   18.9935  -13.3538  -18.3676 C   0  0  0  0  0  0  0  0  0  0  0  0
   20.3488  -13.7073  -17.8201 C   0  0  2  0  0  0  0  0  0  0  0  0
   20.2557  -14.9533  -17.0864 N   0  0  0  0  0  0  0  0  0  0  0  0
   20.9406  -12.6805  -16.9693 C   0  0  0  0  0  0  0  0  0  0  0  0
   20.4190  -12.4210  -15.8537 O   0  0  0  0  0  0  0  0  0  0  0  0
   26.9143  -12.0320  -15.4406 C   0  0  0  0  0  0  0  0  0  0  0  0
   26.5716  -10.2408  -15.3422 S   0  0  0  0  0  0  0  0  0  0  0  0
   24.7625   -9.9518  -15.4265 C   0  0  0  0  0  0  0  0  0  0  0  0
   24.1598  -10.9776  -16.3442 C   0  0  0  0  0  0  0  0  0  0  0  0
   22.6775  -10.9005  -16.4573 C   0  0  2  0  0  0  0  0  0  0  0  0
   22.0949  -11.9205  -17.3004 N   0  0  0  0  0  0  0  0  0  0  0  0
   22.1855   -9.5430  -16.7991 C   0  0  0  0  0  0  0  0  0  0  0  0
   22.0957   -9.1362  -17.9966 O   0  0  0  0  0  0  0  0  0  0  0  0
   18.7687   -5.2846  -16.6847 C   0  0  0  0  0  0  0  0  0  0  0  0
   19.1861   -6.4979  -17.4159 C   0  0  2  0  0  0  0  0  0  0  0  0
   17.9014   -7.1846  -17.9497 C   0  0  0  0  0  0  0  0  0  0  0  0
   19.9523   -7.5428  -16.7322 C   0  0  0  0  0  0  0  0  0  0  0  0
   21.2736   -7.2656  -16.1220 C   0  0  2  0  0  0  0  0  0  0  0  0
   21.7915   -8.6367  -15.7830 N   0  0  0  0  0  0  0  0  0  0  0  0
   21.1906   -6.5443  -14.8624 C   0  0  0  0  0  0  0  0  0  0  0  0
   21.1880   -5.1683  -14.6802 O   0  0  0  0  0  0  0  0  0  0  0  0
   21.1158   -7.2139  -13.7756 O   0  0  0  0  0  0  0  0  0  0  0  0
  1  2  1  0
  3  2  1  0
  3  5  1  0
  3  4  1  1
  5 12  1  0
  6  5  2  0
  8  9  1  0
  8  7  1  0
 10  9  1  0
 11 10  1  6
 11 13  1  0
 12 11  1  0
 13 14  2  0
 16 18  1  0
 16 15  1  1
 17 16  1  0
 19 18  1  1
 20 13  1  0
 20 19  1  0
 21 22  1  0
 21 19  1  0
 23 21  2  0
M  END
$$$$
