SML.pdb
     RDKit          3D

 23 22  0  0  1  0  0  0  0  0999 V2000
   21.2791  -11.2947  -20.7097 O   0  0  0  0  0  0  0  0  0  0  0  0
   21.7359  -12.6154  -20.6942 C   0  0  0  0  0  0  0  0  0  0  0  0
   21.1573  -13.3649  -19.5258 C   0  0  2  0  0  0  0  0  0  0  0  0
   19.7302  -13.5225  -19.7208 N   0  0  0  0  0  0  0  0  0  0  0  0
   21.4093  -12.7454  -18.2292 C   0  0  0  0  0  0  0  0  0  0  0  0
   20.4566  -12.2228  -17.5942 O   0  0  0  0  0  0  0  0  0  0  0  0
   27.2721  -13.5302  -15.8501 C   0  0  0  0  0  0  0  0  0  0  0  0
   26.0081  -14.1946  -14.7115 S   0  0  0  0  0  0  0  0  0  0  0  0
   24.3347  -13.8705  -15.3883 C   0  0  0  0  0  0  0  0  0  0  0  0
   24.2224  -12.4041  -15.6960 C   0  0  0  0  0  0  0  0  0  0  0  0
   22.9392  -12.0114  -16.3402 C   0  0  2  0  0  0  0  0  0  0  0  0
   22.6804  -12.6775  -17.5971 N   0  0  0  0  0  0  0  0  0  0  0  0
   22.7576  -10.5419  -16.4374 C   0  0  0  0  0  0  0  0  0  0  0  0
   23.0928   -9.8842  -17.4682 O   0  0  0  0  0  0  0  0  0  0  0  0
   18.7985   -7.0990  -17.5563 C   0  0  0  0  0  0  0  0  0  0  0  0
   20.0584   -7.0690  -16.7863 C   0  0  2  0  0  0  0  0  0  0  0  0
   21.0877   -6.2510  -17.6099 C   0  0  0  0  0  0  0  0  0  0  0  0
   20.7294   -8.3196  -16.4229 C   0  0  0  0  0  0  0  0  0  0  0  0
   21.8887   -8.3411  -15.5004 C   0  0  2  0  0  0  0  0  0  0  0  0
   22.1938   -9.8078  -15.3640 N   0  0  0  0  0  0  0  0  0  0  0  0
   21.5731   -7.8696  -14.1618 C   0  0  0  0  0  0  0  0  0  0  0  0
   21.7962   -6.6019  -13.6427 O   0  0  0  0  0  0  0  0  0  0  0  0
   21.0338   -8.6834  -13.3360 O   0  0  0  0  0  0  0  0  0  0  0  0
  1  2  1  0
  3  2  1  0
  3  5  1  0
  3  4  1  6
  5 12  1  0
  6  5  2  0
  8  9  1  0
  8  7  1  0
 10  9  1  0
 11 10  1  6
 11 13  1  0
 12 11  1  0
 13 14  2  0
 16 18  1  0
 16 15  1  6
 17 16  1  0
 19 18  1  6
 20 13  1  0
 20 19  1  0
 21 22  1  0
 21 19  1  0
 23 21  2  0
M  END
$$$$
