SML.pdb
     RDKit          3D

 23 22  0  0  1  0  0  0  0  0999 V2000
   25.4956  -18.2797  -15.6967 O   0  0  0  0  0  0  0  0  0  0  0  0
   25.8095  -18.4140  -14.3415 C   0  0  0  0  0  0  0  0  0  0  0  0
   27.1580  -19.0569  -14.1688 C   0  0  2  0  0  0  0  0  0  0  0  0
   27.6320  -19.5223  -15.4565 N   0  0  0  0  0  0  0  0  0  0  0  0
   27.1819  -20.1571  -13.2110 C   0  0  0  0  0  0  0  0  0  0  0  0
   27.0017  -21.3359  -13.6135 O   0  0  0  0  0  0  0  0  0  0  0  0
   27.0503  -18.4577   -7.0561 C   0  0  0  0  0  0  0  0  0  0  0  0
   26.2797  -20.0892   -6.7732 S   0  0  0  0  0  0  0  0  0  0  0  0
   26.2640  -21.0452   -8.3383 C   0  0  0  0  0  0  0  0  0  0  0  0
   26.7153  -20.1423   -9.4512 C   0  0  0  0  0  0  0  0  0  0  0  0
   26.7323  -20.7874  -10.7926 C   0  0  2  0  0  0  0  0  0  0  0  0
   27.3984  -20.0104  -11.8140 N   0  0  0  0  0  0  0  0  0  0  0  0
   25.3968  -21.2621  -11.2318 C   0  0  0  0  0  0  0  0  0  0  0  0
   25.0928  -22.4924  -11.2675 O   0  0  0  0  0  0  0  0  0  0  0  0
   20.1043  -19.9428   -9.3696 C   0  0  0  0  0  0  0  0  0  0  0  0
   20.8029  -20.4680  -10.5600 C   0  0  2  0  0  0  0  0  0  0  0  0
   20.5219  -21.9921  -10.6298 C   0  0  0  0  0  0  0  0  0  0  0  0
   22.2542  -20.3153  -10.6893 C   0  0  0  0  0  0  0  0  0  0  0  0
   22.9831  -20.7926  -11.8877 C   0  0  2  0  0  0  0  0  0  0  0  0
   24.3960  -20.3426  -11.6341 N   0  0  0  0  0  0  0  0  0  0  0  0
   22.5673  -20.1386  -13.1179 C   0  0  0  0  0  0  0  0  0  0  0  0
   23.2811  -19.2051  -13.8564 O   0  0  0  0  0  0  0  0  0  0  0  0
   21.4198  -20.4220  -13.6058 O   0  0  0  0  0  0  0  0  0  0  0  0
  1  2  1  0
  3  2  1  0
  3  5  1  0
  3  4  1  6
  5 12  1  0
  6  5  2  0
  8  9  1  0
  8  7  1  0
 10  9  1  0
 11 10  1  1
 11 13  1  0
 12 11  1  0
 13 14  2  0
 16 18  1  0
 16 15  1  1
 17 16  1  0
 19 18  1  1
 20 13  1  0
 20 19  1  0
 21 22  1  0
 21 19  1  0
 23 21  2  0
M  END
$$$$
