SML.pdb
     RDKit          3D

 23 22  0  0  1  0  0  0  0  0999 V2000
   13.2734  -10.9411  -15.5133 O   0  0  0  0  0  0  0  0  0  0  0  0
   14.0281  -11.8239  -14.7358 C   0  0  0  0  0  0  0  0  0  0  0  0
   15.4975  -11.6417  -14.9988 C   0  0  2  0  0  0  0  0  0  0  0  0
   16.0971  -12.9334  -15.2660 N   0  0  0  0  0  0  0  0  0  0  0  0
   16.2237  -10.9776  -13.9218 C   0  0  0  0  0  0  0  0  0  0  0  0
   16.4966  -11.6144  -12.8710 O   0  0  0  0  0  0  0  0  0  0  0  0
   22.1121   -6.5828  -11.4131 C   0  0  0  0  0  0  0  0  0  0  0  0
   21.1617   -7.3866  -12.7496 S   0  0  0  0  0  0  0  0  0  0  0  0
   19.5025   -7.8613  -12.1291 C   0  0  0  0  0  0  0  0  0  0  0  0
   18.7270   -8.4692  -13.2634 C   0  0  0  0  0  0  0  0  0  0  0  0
   17.3773   -8.9684  -12.8826 C   0  0  2  0  0  0  0  0  0  0  0  0
   16.6662   -9.6275  -13.9552 N   0  0  0  0  0  0  0  0  0  0  0  0
   16.5439   -7.9454  -12.2038 C   0  0  0  0  0  0  0  0  0  0  0  0
   15.9846   -6.9989  -12.8352 O   0  0  0  0  0  0  0  0  0  0  0  0
   14.0129   -6.2741   -7.2407 C   0  0  0  0  0  0  0  0  0  0  0  0
   13.6184   -7.1622   -8.3528 C   0  0  2  0  0  0  0  0  0  0  0  0
   12.8055   -8.3356   -7.7454 C   0  0  0  0  0  0  0  0  0  0  0  0
   14.6410   -7.7736   -9.2053 C   0  0  0  0  0  0  0  0  0  0  0  0
   15.4902   -6.9606  -10.1070 C   0  0  2  0  0  0  0  0  0  0  0  0
   16.3395   -7.9896  -10.8019 N   0  0  0  0  0  0  0  0  0  0  0  0
   16.4136   -6.0866   -9.4018 C   0  0  0  0  0  0  0  0  0  0  0  0
   17.7276   -6.3611   -9.0491 O   0  0  0  0  0  0  0  0  0  0  0  0
   16.0088   -4.9280   -9.0427 O   0  0  0  0  0  0  0  0  0  0  0  0
  1  2  1  0
  3  2  1  0
  3  5  1  0
  3  4  1  1
  5 12  1  0
  6  5  2  0
  8  9  1  0
  8  7  1  0
 10  9  1  0
 11 10  1  6
 11 13  1  0
 12 11  1  0
 13 14  2  0
 16 18  1  0
 16 15  1  1
 17 16  1  0
 19 18  1  1
 20 13  1  0
 20 19  1  0
 21 22  1  0
 21 19  1  0
 23 21  2  0
M  END
$$$$
