SML.pdb
     RDKit          3D

 23 22  0  0  1  0  0  0  0  0999 V2000
   15.4630  -13.7343  -16.2600 O   0  0  0  0  0  0  0  0  0  0  0  0
   16.7597  -13.2134  -16.2361 C   0  0  0  0  0  0  0  0  0  0  0  0
   17.3616  -13.2206  -17.6142 C   0  0  2  0  0  0  0  0  0  0  0  0
   17.6686  -14.5852  -17.9924 N   0  0  0  0  0  0  0  0  0  0  0  0
   18.5549  -12.3930  -17.7539 C   0  0  0  0  0  0  0  0  0  0  0  0
   19.6909  -12.9053  -17.5775 O   0  0  0  0  0  0  0  0  0  0  0  0
   18.4345   -8.2145  -23.2664 C   0  0  0  0  0  0  0  0  0  0  0  0
   18.9192   -7.8276  -21.5486 S   0  0  0  0  0  0  0  0  0  0  0  0
   19.1913   -9.3841  -20.6175 C   0  0  0  0  0  0  0  0  0  0  0  0
   19.5145   -9.0349  -19.1924 C   0  0  0  0  0  0  0  0  0  0  0  0
   19.7327  -10.2130  -18.3090 C   0  0  2  0  0  0  0  0  0  0  0  0
   18.5480  -11.0106  -18.0835 N   0  0  0  0  0  0  0  0  0  0  0  0
   20.4300   -9.8756  -17.0433 C   0  0  0  0  0  0  0  0  0  0  0  0
   19.8039   -9.6470  -15.9648 O   0  0  0  0  0  0  0  0  0  0  0  0
   26.3765  -10.1760  -15.2687 C   0  0  0  0  0  0  0  0  0  0  0  0
   24.9806   -9.8303  -14.9323 C   0  0  2  0  0  0  0  0  0  0  0  0
   24.5663  -10.6992  -13.7157 C   0  0  0  0  0  0  0  0  0  0  0  0
   23.9203   -9.9945  -15.9299 C   0  0  0  0  0  0  0  0  0  0  0  0
   22.5586   -9.4517  -15.7146 C   0  0  2  0  0  0  0  0  0  0  0  0
   21.8442   -9.7953  -16.9931 N   0  0  0  0  0  0  0  0  0  0  0  0
   22.5222   -8.0019  -15.6106 C   0  0  0  0  0  0  0  0  0  0  0  0
   22.5815   -7.0829  -16.6489 O   0  0  0  0  0  0  0  0  0  0  0  0
   22.4317   -7.4721  -14.4503 O   0  0  0  0  0  0  0  0  0  0  0  0
  1  2  1  0
  3  2  1  0
  3  5  1  0
  3  4  1  1
  5 12  1  0
  6  5  2  0
  8  9  1  0
  8  7  1  0
 10  9  1  0
 11 10  1  1
 11 13  1  0
 12 11  1  0
 13 14  2  0
 16 18  1  0
 16 15  1  6
 17 16  1  0
 19 18  1  6
 20 13  1  0
 20 19  1  0
 21 22  1  0
 21 19  1  0
 23 21  2  0
M  END
$$$$
