SML.pdb
     RDKit          3D

 23 22  0  0  1  0  0  0  0  0999 V2000
   26.4448  -19.0110  -15.4942 O   0  0  0  0  0  0  0  0  0  0  0  0
   27.7776  -19.0373  -15.0743 C   0  0  0  0  0  0  0  0  0  0  0  0
   28.1540  -20.4080  -14.5836 C   0  0  2  0  0  0  0  0  0  0  0  0
   28.2795  -21.3017  -15.7171 N   0  0  0  0  0  0  0  0  0  0  0  0
   27.2250  -20.9756  -13.6124 C   0  0  0  0  0  0  0  0  0  0  0  0
   26.3229  -21.7624  -14.0014 O   0  0  0  0  0  0  0  0  0  0  0  0
   27.5711  -20.2608   -7.1012 C   0  0  0  0  0  0  0  0  0  0  0  0
   25.7576  -20.1765   -7.2999 S   0  0  0  0  0  0  0  0  0  0  0  0
   25.2877  -20.8006   -8.9591 C   0  0  0  0  0  0  0  0  0  0  0  0
   26.3780  -20.4410   -9.9284 C   0  0  0  0  0  0  0  0  0  0  0  0
   26.1230  -20.8832  -11.3266 C   0  0  2  0  0  0  0  0  0  0  0  0
   27.2492  -20.7094  -12.2166 N   0  0  0  0  0  0  0  0  0  0  0  0
   24.8686  -20.3319  -11.8964 C   0  0  0  0  0  0  0  0  0  0  0  0
   24.8453  -19.2599  -12.5729 O   0  0  0  0  0  0  0  0  0  0  0  0
   20.3745  -21.4961  -14.8210 C   0  0  0  0  0  0  0  0  0  0  0  0
   21.7016  -20.8555  -14.9182 C   0  0  2  0  0  0  0  0  0  0  0  0
   22.3823  -21.3885  -16.2064 C   0  0  0  0  0  0  0  0  0  0  0  0
   22.6807  -21.0226  -13.8413 C   0  0  0  0  0  0  0  0  0  0  0  0
   22.3983  -20.5767  -12.4569 C   0  0  2  0  0  0  0  0  0  0  0  0
   23.6307  -20.9942  -11.7019 N   0  0  0  0  0  0  0  0  0  0  0  0
   21.2883  -21.2812  -11.8360 C   0  0  0  0  0  0  0  0  0  0  0  0
   21.3082  -22.5480  -11.2693 O   0  0  0  0  0  0  0  0  0  0  0  0
   20.1462  -20.7079  -11.7908 O   0  0  0  0  0  0  0  0  0  0  0  0
  1  2  1  0
  3  2  1  0
  3  5  1  0
  3  4  1  6
  5 12  1  0
  6  5  2  0
  8  9  1  0
  8  7  1  0
 10  9  1  0
 11 10  1  1
 11 13  1  0
 12 11  1  0
 13 14  2  0
 16 18  1  0
 16 15  1  1
 17 16  1  0
 19 18  1  6
 20 13  1  0
 20 19  1  0
 21 22  1  0
 21 19  1  0
 23 21  2  0
M  END
$$$$
