NLS.pdb
     RDKit          3D

 23 22  0  0  1  0  0  0  0  0999 V2000
   19.8260  -12.8689  -19.8245 N   0  0  0  0  0  0  0  0  0  0  0  0
   19.8203  -13.2528  -18.4619 C   0  0  0  0  0  0  0  0  0  0  0  0
   19.1098  -14.2801  -18.1938 O   0  0  0  0  0  0  0  0  0  0  0  0
   20.5752  -12.5365  -17.3826 C   0  0  0  0  0  0  0  0  0  0  0  0
   21.3097  -11.3855  -18.0300 C   0  0  2  0  0  0  0  0  0  0  0  0
   22.1179  -11.8860  -19.1041 N   0  0  0  0  0  0  0  0  0  0  0  0
   21.9889  -10.4951  -17.1010 C   0  0  0  0  0  0  0  0  0  0  0  0
   21.3372  -10.1985  -16.0409 O   0  0  0  0  0  0  0  0  0  0  0  0
   25.7562  -11.1407  -14.9674 C   0  0  0  0  0  0  0  0  0  0  0  0
   25.9668  -10.4017  -16.2465 C   0  0  2  0  0  0  0  0  0  0  0  0
   27.4493  -10.2452  -16.5192 C   0  0  0  0  0  0  0  0  0  0  0  0
   25.3288   -9.0521  -16.2738 C   0  0  0  0  0  0  0  0  0  0  0  0
   23.7945   -9.1173  -16.1863 C   0  0  2  0  0  0  0  0  0  0  0  0
   23.2962   -9.9330  -17.2745 N   0  0  0  0  0  0  0  0  0  0  0  0
   23.3439   -7.7289  -16.3734 C   0  0  0  0  0  0  0  0  0  0  0  0
   23.4891   -7.1363  -17.4713 O   0  0  0  0  0  0  0  0  0  0  0  0
   20.3740   -4.3891  -16.0683 O   0  0  0  0  0  0  0  0  0  0  0  0
   20.7808   -5.7116  -15.9032 C   0  0  0  0  0  0  0  0  0  0  0  0
   22.2547   -5.6920  -15.4965 C   0  0  2  0  0  0  0  0  0  0  0  0
   22.7196   -7.0539  -15.2801 N   0  0  0  0  0  0  0  0  0  0  0  0
   22.4780   -4.9034  -14.2770 C   0  0  0  0  0  0  0  0  0  0  0  0
   22.7691   -3.6944  -14.3712 O   0  0  0  0  0  0  0  0  0  0  0  0
   22.3692   -5.4850  -13.0298 O   0  0  0  0  0  0  0  0  0  0  0  0
  2  3  2  0
  2  1  1  0
  4  2  1  0
  5  4  1  0
  5  6  1  6
  7  5  1  0
  7  8  2  0
 10  9  1  1
 10 11  1  0
 10 12  1  0
 13 12  1  6
 13 15  1  0
 13 14  1  0
 14  7  1  0
 15 20  1  0
 16 15  2  0
 18 17  1  0
 19 18  1  1
 19 21  1  0
 20 19  1  0
 21 22  2  0
 21 23  1  0
M  END
$$$$
