NLS.pdb
     RDKit          3D

 23 22  0  0  1  0  0  0  0  0999 V2000
   22.0283  -14.6156  -21.1493 N   0  0  0  0  0  0  0  0  0  0  0  0
   21.9659  -15.2494  -19.8849 C   0  0  0  0  0  0  0  0  0  0  0  0
   21.8077  -16.5165  -19.9238 O   0  0  0  0  0  0  0  0  0  0  0  0
   22.0718  -14.5272  -18.5753 C   0  0  0  0  0  0  0  0  0  0  0  0
   22.1412  -13.0483  -18.8771 C   0  0  2  0  0  0  0  0  0  0  0  0
   23.0699  -12.8282  -19.9479 N   0  0  0  0  0  0  0  0  0  0  0  0
   22.3195  -12.1952  -17.7119 C   0  0  0  0  0  0  0  0  0  0  0  0
   21.4735  -12.3637  -16.7673 O   0  0  0  0  0  0  0  0  0  0  0  0
   25.6032  -11.7674  -14.8228 C   0  0  0  0  0  0  0  0  0  0  0  0
   25.7625  -10.8230  -15.9670 C   0  0  2  0  0  0  0  0  0  0  0  0
   27.0923  -10.1032  -15.8667 C   0  0  0  0  0  0  0  0  0  0  0  0
   24.6730   -9.8066  -16.0645 C   0  0  0  0  0  0  0  0  0  0  0  0
   23.2920  -10.4366  -16.3130 C   0  0  2  0  0  0  0  0  0  0  0  0
   23.3391  -11.2019  -17.5418 N   0  0  0  0  0  0  0  0  0  0  0  0
   22.3792   -9.2953  -16.4856 C   0  0  0  0  0  0  0  0  0  0  0  0
   22.3840   -8.6067  -17.5360 O   0  0  0  0  0  0  0  0  0  0  0  0
   18.7410   -9.3395  -15.9580 O   0  0  0  0  0  0  0  0  0  0  0  0
   19.1487   -8.2591  -15.1782 C   0  0  0  0  0  0  0  0  0  0  0  0
   20.5526   -7.8639  -15.6377 C   0  0  2  0  0  0  0  0  0  0  0  0
   21.4649   -8.9793  -15.4344 N   0  0  0  0  0  0  0  0  0  0  0  0
   21.0563   -6.6872  -14.9162 C   0  0  0  0  0  0  0  0  0  0  0  0
   22.0793   -6.7899  -14.2104 O   0  0  0  0  0  0  0  0  0  0  0  0
   20.4105   -5.4707  -15.0108 O   0  0  0  0  0  0  0  0  0  0  0  0
  2  3  2  0
  2  1  1  0
  4  2  1  0
  5  4  1  0
  5  6  1  6
  7  5  1  0
  7  8  2  0
 10  9  1  1
 10 11  1  0
 10 12  1  0
 13 12  1  6
 13 15  1  0
 13 14  1  0
 14  7  1  0
 15 20  1  0
 16 15  2  0
 18 17  1  0
 19 18  1  1
 19 21  1  0
 20 19  1  0
 21 22  2  0
 21 23  1  0
M  END
$$$$
