NLS.pdb
     RDKit          3D

 23 22  0  0  1  0  0  0  0  0999 V2000
   16.5307  -24.6828  -12.2267 N   0  0  0  0  0  0  0  0  0  0  0  0
   17.9042  -24.4171  -12.4437 C   0  0  0  0  0  0  0  0  0  0  0  0
   18.6725  -25.4327  -12.3432 O   0  0  0  0  0  0  0  0  0  0  0  0
   18.4583  -23.0622  -12.7678 C   0  0  0  0  0  0  0  0  0  0  0  0
   19.3391  -22.6443  -11.6134 C   0  0  2  0  0  0  0  0  0  0  0  0
   18.5187  -22.3689  -10.4695 N   0  0  0  0  0  0  0  0  0  0  0  0
   20.3233  -21.6222  -11.9355 C   0  0  0  0  0  0  0  0  0  0  0  0
   19.8910  -20.4182  -11.9392 O   0  0  0  0  0  0  0  0  0  0  0  0
   23.9169  -19.9599  -10.0170 C   0  0  0  0  0  0  0  0  0  0  0  0
   24.2441  -21.1531  -10.8512 C   0  0  2  0  0  0  0  0  0  0  0  0
   25.7027  -21.5258  -10.6771 C   0  0  0  0  0  0  0  0  0  0  0  0
   23.9676  -20.9642  -12.3062 C   0  0  0  0  0  0  0  0  0  0  0  0
   22.4842  -20.6805  -12.5982 C   0  0  2  0  0  0  0  0  0  0  0  0
   21.7044  -21.8491  -12.2459 N   0  0  0  0  0  0  0  0  0  0  0  0
   22.4166  -20.4712  -14.0532 C   0  0  0  0  0  0  0  0  0  0  0  0
   22.5717  -21.4223  -14.8589 O   0  0  0  0  0  0  0  0  0  0  0  0
   21.4781  -16.7407  -15.5141 O   0  0  0  0  0  0  0  0  0  0  0  0
   21.0677  -17.8295  -16.2808 C   0  0  0  0  0  0  0  0  0  0  0  0
   22.0251  -18.9853  -15.9879 C   0  0  2  0  0  0  0  0  0  0  0  0
   22.1577  -19.1567  -14.5489 N   0  0  0  0  0  0  0  0  0  0  0  0
   23.3535  -18.7608  -16.5745 C   0  0  0  0  0  0  0  0  0  0  0  0
   24.3394  -18.6124  -15.8253 O   0  0  0  0  0  0  0  0  0  0  0  0
   23.5221  -18.7125  -17.9437 O   0  0  0  0  0  0  0  0  0  0  0  0
  2  3  2  0
  2  1  1  0
  4  2  1  0
  5  4  1  0
  5  6  1  1
  7  5  1  0
  7  8  2  0
 10  9  1  1
 10 11  1  0
 10 12  1  0
 13 12  1  6
 13 15  1  0
 13 14  1  0
 14  7  1  0
 15 20  1  0
 16 15  2  0
 18 17  1  0
 19 18  1  1
 19 21  1  0
 20 19  1  0
 21 22  2  0
 21 23  1  0
M  END
$$$$
