NLS.pdb
     RDKit          3D

 23 22  0  0  1  0  0  0  0  0999 V2000
   17.7870  -13.3099  -17.6638 N   0  0  0  0  0  0  0  0  0  0  0  0
   18.1486  -13.5345  -16.3136 C   0  0  0  0  0  0  0  0  0  0  0  0
   17.3742  -14.3219  -15.6715 O   0  0  0  0  0  0  0  0  0  0  0  0
   19.3404  -12.9152  -15.6474 C   0  0  0  0  0  0  0  0  0  0  0  0
   20.0278  -12.0401  -16.6696 C   0  0  2  0  0  0  0  0  0  0  0  0
   20.3149  -12.8180  -17.8400 N   0  0  0  0  0  0  0  0  0  0  0  0
   21.1400  -11.2568  -16.1533 C   0  0  0  0  0  0  0  0  0  0  0  0
   20.9918  -10.7983  -14.9683 O   0  0  0  0  0  0  0  0  0  0  0  0
   27.0988   -9.6281  -16.6941 C   0  0  0  0  0  0  0  0  0  0  0  0
   25.7672   -9.5741  -16.0227 C   0  0  2  0  0  0  0  0  0  0  0  0
   25.8872  -10.0514  -14.5894 C   0  0  0  0  0  0  0  0  0  0  0  0
   24.7139  -10.3789  -16.7098 C   0  0  0  0  0  0  0  0  0  0  0  0
   23.3043  -10.1118  -16.1550 C   0  0  2  0  0  0  0  0  0  0  0  0
   22.3577  -10.9602  -16.8492 N   0  0  0  0  0  0  0  0  0  0  0  0
   23.0274   -8.7042  -16.4829 C   0  0  0  0  0  0  0  0  0  0  0  0
   22.8107   -8.3382  -17.6648 O   0  0  0  0  0  0  0  0  0  0  0  0
   20.6753   -6.2521  -14.5228 O   0  0  0  0  0  0  0  0  0  0  0  0
   21.9535   -5.7017  -14.5940 C   0  0  0  0  0  0  0  0  0  0  0  0
   22.6756   -6.3659  -15.7668 C   0  0  2  0  0  0  0  0  0  0  0  0
   22.9958   -7.7438  -15.4258 N   0  0  0  0  0  0  0  0  0  0  0  0
   23.9104   -5.6550  -16.1257 C   0  0  0  0  0  0  0  0  0  0  0  0
   24.9898   -5.9941  -15.6011 O   0  0  0  0  0  0  0  0  0  0  0  0
   23.8892   -4.6174  -17.0360 O   0  0  0  0  0  0  0  0  0  0  0  0
  2  3  2  0
  2  1  1  0
  4  2  1  0
  5  4  1  0
  5  6  1  6
  7  5  1  0
  7  8  2  0
 10  9  1  6
 10 11  1  0
 10 12  1  0
 13 12  1  6
 13 15  1  0
 13 14  1  0
 14  7  1  0
 15 20  1  0
 16 15  2  0
 18 17  1  0
 19 18  1  1
 19 21  1  0
 20 19  1  0
 21 22  2  0
 21 23  1  0
M  END
$$$$
