NLS.pdb
     RDKit          3D

 23 22  0  0  1  0  0  0  0  0999 V2000
   13.4073  -17.5004    6.3852 N   0  0  0  0  0  0  0  0  0  0  0  0
   14.1798  -18.4910    7.0380 C   0  0  0  0  0  0  0  0  0  0  0  0
   13.5210  -19.2669    7.8100 O   0  0  0  0  0  0  0  0  0  0  0  0
   15.6605  -18.6523    6.8663 C   0  0  0  0  0  0  0  0  0  0  0  0
   16.1363  -17.5389    5.9624 C   0  0  2  0  0  0  0  0  0  0  0  0
   16.1441  -18.0035    4.6054 N   0  0  0  0  0  0  0  0  0  0  0  0
   17.3543  -16.8749    6.4012 C   0  0  0  0  0  0  0  0  0  0  0  0
   18.4270  -17.5653    6.3056 O   0  0  0  0  0  0  0  0  0  0  0  0
   20.2831  -13.4918    5.1413 C   0  0  0  0  0  0  0  0  0  0  0  0
   18.9941  -13.0642    5.7594 C   0  0  2  0  0  0  0  0  0  0  0  0
   18.8855  -11.5528    5.7442 C   0  0  0  0  0  0  0  0  0  0  0  0
   18.8105  -13.5443    7.1613 C   0  0  0  0  0  0  0  0  0  0  0  0
   18.7764  -15.0786    7.2652 C   0  0  2  0  0  0  0  0  0  0  0  0
   17.4477  -15.5431    6.9235 N   0  0  0  0  0  0  0  0  0  0  0  0
   19.0437  -15.3695    8.6828 C   0  0  0  0  0  0  0  0  0  0  0  0
   18.1742  -15.1695    9.5669 O   0  0  0  0  0  0  0  0  0  0  0  0
   21.7991  -18.1233    9.7997 O   0  0  0  0  0  0  0  0  0  0  0  0
   20.7134  -17.7498   10.5893 C   0  0  0  0  0  0  0  0  0  0  0  0
   20.5400  -16.2372   10.4470 C   0  0  2  0  0  0  0  0  0  0  0  0
   20.3184  -15.9005    9.0487 N   0  0  0  0  0  0  0  0  0  0  0  0
   21.7102  -15.5006   10.9440 C   0  0  0  0  0  0  0  0  0  0  0  0
   22.4095  -14.8459   10.1454 O   0  0  0  0  0  0  0  0  0  0  0  0
   22.0437  -15.5251   12.2834 O   0  0  0  0  0  0  0  0  0  0  0  0
  2  3  2  0
  2  1  1  0
  4  2  1  0
  5  4  1  0
  5  6  1  6
  7  5  1  0
  7  8  2  0
 10  9  1  1
 10 11  1  0
 10 12  1  0
 13 12  1  1
 13 15  1  0
 13 14  1  0
 14  7  1  0
 15 20  1  0
 16 15  2  0
 18 17  1  0
 19 18  1  6
 19 21  1  0
 20 19  1  0
 21 22  2  0
 21 23  1  0
M  END
$$$$
