NLS.pdb
     RDKit          3D

 23 22  0  0  1  0  0  0  0  0999 V2000
   17.7763  -11.9112  -19.9424 N   0  0  0  0  0  0  0  0  0  0  0  0
   18.8092  -10.9558  -19.7857 C   0  0  0  0  0  0  0  0  0  0  0  0
   19.5183  -10.7520  -20.8285 O   0  0  0  0  0  0  0  0  0  0  0  0
   19.0858  -10.2169  -18.5107 C   0  0  0  0  0  0  0  0  0  0  0  0
   20.2455  -10.9057  -17.8296 C   0  0  2  0  0  0  0  0  0  0  0  0
   19.8202  -12.1926  -17.3601 N   0  0  0  0  0  0  0  0  0  0  0  0
   20.9534  -10.0892  -16.8553 C   0  0  0  0  0  0  0  0  0  0  0  0
   20.3825   -9.9645  -15.7174 O   0  0  0  0  0  0  0  0  0  0  0  0
   24.4655  -10.9206  -14.5606 C   0  0  0  0  0  0  0  0  0  0  0  0
   24.8128  -10.2807  -15.8631 C   0  0  2  0  0  0  0  0  0  0  0  0
   26.3148  -10.2905  -16.0637 C   0  0  0  0  0  0  0  0  0  0  0  0
   24.3204   -8.8773  -15.9942 C   0  0  0  0  0  0  0  0  0  0  0  0
   22.7881   -8.7736  -15.9073 C   0  0  2  0  0  0  0  0  0  0  0  0
   22.2069   -9.4253  -17.0630 N   0  0  0  0  0  0  0  0  0  0  0  0
   22.5008   -7.3316  -15.9664 C   0  0  0  0  0  0  0  0  0  0  0  0
   22.7464   -6.6573  -16.9972 O   0  0  0  0  0  0  0  0  0  0  0  0
   19.6957   -5.6218  -13.6535 O   0  0  0  0  0  0  0  0  0  0  0  0
   20.1635   -5.0054  -14.8124 C   0  0  0  0  0  0  0  0  0  0  0  0
   21.6679   -5.2660  -14.8968 C   0  0  2  0  0  0  0  0  0  0  0  0
   21.9202   -6.6974  -14.8256 N   0  0  0  0  0  0  0  0  0  0  0  0
   22.4042   -4.5892  -13.8204 C   0  0  0  0  0  0  0  0  0  0  0  0
   22.4409   -3.3430  -13.7896 O   0  0  0  0  0  0  0  0  0  0  0  0
   23.0550   -5.3164  -12.8440 O   0  0  0  0  0  0  0  0  0  0  0  0
  2  3  2  0
  2  1  1  0
  4  2  1  0
  5  4  1  0
  5  6  1  1
  7  5  1  0
  7  8  2  0
 10  9  1  1
 10 11  1  0
 10 12  1  0
 13 12  1  6
 13 15  1  0
 13 14  1  0
 14  7  1  0
 15 20  1  0
 16 15  2  0
 18 17  1  0
 19 18  1  1
 19 21  1  0
 20 19  1  0
 21 22  2  0
 21 23  1  0
M  END
$$$$
