NLS.pdb
     RDKit          3D

 23 22  0  0  1  0  0  0  0  0999 V2000
   20.4713  -13.0785  -21.3775 N   0  0  0  0  0  0  0  0  0  0  0  0
   19.6656  -12.1496  -20.6760 C   0  0  0  0  0  0  0  0  0  0  0  0
   18.6452  -11.7274  -21.3183 O   0  0  0  0  0  0  0  0  0  0  0  0
   19.9517  -11.6696  -19.2847 C   0  0  0  0  0  0  0  0  0  0  0  0
   21.1890  -12.3900  -18.8017 C   0  0  2  0  0  0  0  0  0  0  0  0
   20.8321  -13.7169  -18.3900 N   0  0  0  0  0  0  0  0  0  0  0  0
   22.0011  -11.6406  -17.8551 C   0  0  0  0  0  0  0  0  0  0  0  0
   21.5035  -11.5040  -16.6846 O   0  0  0  0  0  0  0  0  0  0  0  0
   27.6026   -9.5950  -16.2674 C   0  0  0  0  0  0  0  0  0  0  0  0
   26.1211   -9.6258  -16.0918 C   0  0  2  0  0  0  0  0  0  0  0  0
   25.7707  -10.1611  -14.7181 C   0  0  0  0  0  0  0  0  0  0  0  0
   25.4102  -10.4419  -17.1204 C   0  0  0  0  0  0  0  0  0  0  0  0
   23.8806  -10.2997  -17.0399 C   0  0  2  0  0  0  0  0  0  0  0  0
   23.2813  -11.0531  -18.1220 N   0  0  0  0  0  0  0  0  0  0  0  0
   23.6211   -8.8656  -17.2437 C   0  0  0  0  0  0  0  0  0  0  0  0
   23.8776   -8.3032  -18.3371 O   0  0  0  0  0  0  0  0  0  0  0  0
   21.8007   -6.5534  -14.2617 O   0  0  0  0  0  0  0  0  0  0  0  0
   21.5127   -6.3073  -15.6026 C   0  0  0  0  0  0  0  0  0  0  0  0
   22.7420   -6.7091  -16.4184 C   0  0  2  0  0  0  0  0  0  0  0  0
   23.0551   -8.1088  -16.1724 N   0  0  0  0  0  0  0  0  0  0  0  0
   23.9131   -5.8847  -16.0899 C   0  0  0  0  0  0  0  0  0  0  0  0
   24.9028   -6.4120  -15.5440 O   0  0  0  0  0  0  0  0  0  0  0  0
   23.9301   -4.5349  -16.3783 O   0  0  0  0  0  0  0  0  0  0  0  0
  2  3  2  0
  2  1  1  0
  4  2  1  0
  5  4  1  0
  5  6  1  1
  7  5  1  0
  7  8  2  0
 10  9  1  6
 10 11  1  0
 10 12  1  0
 13 12  1  6
 13 15  1  0
 13 14  1  0
 14  7  1  0
 15 20  1  0
 16 15  2  0
 18 17  1  0
 19 18  1  1
 19 21  1  0
 20 19  1  0
 21 22  2  0
 21 23  1  0
M  END
$$$$
