NLS.pdb
     RDKit          3D

 23 22  0  0  1  0  0  0  0  0999 V2000
   18.8251  -23.1976  -12.8566 N   0  0  0  0  0  0  0  0  0  0  0  0
   18.8964  -22.2429  -13.8994 C   0  0  0  0  0  0  0  0  0  0  0  0
   18.0058  -22.3675  -14.8067 O   0  0  0  0  0  0  0  0  0  0  0  0
   19.9229  -21.1525  -13.9735 C   0  0  0  0  0  0  0  0  0  0  0  0
   20.8612  -21.3325  -12.8028 C   0  0  2  0  0  0  0  0  0  0  0  0
   20.1611  -21.0352  -11.5868 N   0  0  0  0  0  0  0  0  0  0  0  0
   22.1549  -20.6836  -12.9522 C   0  0  0  0  0  0  0  0  0  0  0  0
   22.1270  -19.4085  -13.0517 O   0  0  0  0  0  0  0  0  0  0  0  0
   25.2448  -19.8255  -10.2696 C   0  0  0  0  0  0  0  0  0  0  0  0
   25.5292  -21.1627  -10.8674 C   0  0  2  0  0  0  0  0  0  0  0  0
   26.7410  -21.7833  -10.2018 C   0  0  0  0  0  0  0  0  0  0  0  0
   25.7582  -21.1261  -12.3424 C   0  0  0  0  0  0  0  0  0  0  0  0
   24.5902  -20.4839  -13.1101 C   0  0  2  0  0  0  0  0  0  0  0  0
   23.4279  -21.3411  -13.0001 N   0  0  0  0  0  0  0  0  0  0  0  0
   25.0338  -20.4437  -14.5127 C   0  0  0  0  0  0  0  0  0  0  0  0
   24.9973  -21.4671  -15.2400 O   0  0  0  0  0  0  0  0  0  0  0  0
   25.3810  -17.6703  -18.1488 O   0  0  0  0  0  0  0  0  0  0  0  0
   26.0487  -17.7474  -16.9281 C   0  0  0  0  0  0  0  0  0  0  0  0
   25.9456  -19.1922  -16.4380 C   0  0  2  0  0  0  0  0  0  0  0  0
   25.5038  -19.2070  -15.0515 N   0  0  0  0  0  0  0  0  0  0  0  0
   27.2273  -19.9024  -16.5467 C   0  0  0  0  0  0  0  0  0  0  0  0
   28.0911  -19.7514  -15.6599 O   0  0  0  0  0  0  0  0  0  0  0  0
   27.4856  -20.7338  -17.6180 O   0  0  0  0  0  0  0  0  0  0  0  0
  2  3  2  0
  2  1  1  0
  4  2  1  0
  5  4  1  0
  5  6  1  1
  7  5  1  0
  7  8  2  0
 10  9  1  1
 10 11  1  0
 10 12  1  0
 13 12  1  1
 13 15  1  0
 13 14  1  0
 14  7  1  0
 15 20  1  0
 16 15  2  0
 18 17  1  0
 19 18  1  1
 19 21  1  0
 20 19  1  0
 21 22  2  0
 21 23  1  0
M  END
$$$$
