NLS.pdb
     RDKit          3D

 23 22  0  0  1  0  0  0  0  0999 V2000
   24.4091  -18.9021  -13.7559 N   0  0  0  0  0  0  0  0  0  0  0  0
   24.3992  -20.2832  -13.4447 C   0  0  0  0  0  0  0  0  0  0  0  0
   24.1748  -21.0578  -14.4354 O   0  0  0  0  0  0  0  0  0  0  0  0
   24.6287  -20.8380  -12.0709 C   0  0  0  0  0  0  0  0  0  0  0  0
   25.9511  -20.2977  -11.5785 C   0  0  2  0  0  0  0  0  0  0  0  0
   26.9735  -20.6080  -12.5355 N   0  0  0  0  0  0  0  0  0  0  0  0
   26.2690  -20.6274  -10.1974 C   0  0  0  0  0  0  0  0  0  0  0  0
   26.1113  -21.8540   -9.8702 O   0  0  0  0  0  0  0  0  0  0  0  0
   28.3594  -18.6302   -4.6924 C   0  0  0  0  0  0  0  0  0  0  0  0
   28.0663  -19.7202   -5.6683 C   0  0  2  0  0  0  0  0  0  0  0  0
   29.2420  -20.6725   -5.7536 C   0  0  0  0  0  0  0  0  0  0  0  0
   27.7466  -19.2285   -7.0414 C   0  0  0  0  0  0  0  0  0  0  0  0
   26.9912  -20.2693   -7.8854 C   0  0  2  0  0  0  0  0  0  0  0  0
   26.7295  -19.7109   -9.1959 N   0  0  0  0  0  0  0  0  0  0  0  0
   25.7157  -20.4761   -7.1812 C   0  0  0  0  0  0  0  0  0  0  0  0
   24.8243  -19.5913   -7.1688 O   0  0  0  0  0  0  0  0  0  0  0  0
   24.9685  -23.9944   -5.0342 O   0  0  0  0  0  0  0  0  0  0  0  0
   23.9123  -23.3994   -5.7213 C   0  0  0  0  0  0  0  0  0  0  0  0
   24.2189  -21.9055   -5.8319 C   0  0  2  0  0  0  0  0  0  0  0  0
   25.4925  -21.7173   -6.5101 N   0  0  0  0  0  0  0  0  0  0  0  0
   24.2696  -21.2558   -4.5150 C   0  0  0  0  0  0  0  0  0  0  0  0
   25.3536  -20.8073   -4.0918 O   0  0  0  0  0  0  0  0  0  0  0  0
   23.1321  -21.1365   -3.7419 O   0  0  0  0  0  0  0  0  0  0  0  0
  2  3  2  0
  2  1  1  0
  4  2  1  0
  5  4  1  0
  5  6  1  6
  7  5  1  0
  7  8  2  0
 10  9  1  1
 10 11  1  0
 10 12  1  0
 13 12  1  1
 13 15  1  0
 13 14  1  0
 14  7  1  0
 15 20  1  0
 16 15  2  0
 18 17  1  0
 19 18  1  1
 19 21  1  0
 20 19  1  0
 21 22  2  0
 21 23  1  0
M  END
$$$$
