NLS.pdb
     RDKit          3D

 23 22  0  0  1  0  0  0  0  0999 V2000
   19.8764  -22.7380   -8.1966 N   0  0  0  0  0  0  0  0  0  0  0  0
   19.9827  -22.2230   -9.5109 C   0  0  0  0  0  0  0  0  0  0  0  0
   19.0286  -22.5471  -10.2962 O   0  0  0  0  0  0  0  0  0  0  0  0
   21.1122  -21.3600   -9.9879 C   0  0  0  0  0  0  0  0  0  0  0  0
   22.1143  -21.2607   -8.8614 C   0  0  2  0  0  0  0  0  0  0  0  0
   21.5140  -20.5727   -7.7551 N   0  0  0  0  0  0  0  0  0  0  0  0
   23.4298  -20.7797   -9.2553 C   0  0  0  0  0  0  0  0  0  0  0  0
   23.4388  -19.8327  -10.1152 O   0  0  0  0  0  0  0  0  0  0  0  0
   28.4580  -19.8449   -6.5505 C   0  0  0  0  0  0  0  0  0  0  0  0
   27.3551  -19.6462   -7.5358 C   0  0  2  0  0  0  0  0  0  0  0  0
   26.0944  -19.2003   -6.8229 C   0  0  0  0  0  0  0  0  0  0  0  0
   27.0445  -20.8622   -8.3445 C   0  0  0  0  0  0  0  0  0  0  0  0
   25.8738  -20.6459   -9.3187 C   0  0  2  0  0  0  0  0  0  0  0  0
   24.6870  -21.2716   -8.7730 N   0  0  0  0  0  0  0  0  0  0  0  0
   26.2702  -21.3465  -10.5506 C   0  0  0  0  0  0  0  0  0  0  0  0
   26.1187  -22.5870  -10.6754 O   0  0  0  0  0  0  0  0  0  0  0  0
   24.8365  -21.2546  -14.5936 O   0  0  0  0  0  0  0  0  0  0  0  0
   25.0493  -20.8811  -13.2681 C   0  0  0  0  0  0  0  0  0  0  0  0
   26.5452  -21.0236  -12.9846 C   0  0  2  0  0  0  0  0  0  0  0  0
   26.8281  -20.5883  -11.6252 N   0  0  0  0  0  0  0  0  0  0  0  0
   27.3597  -20.2411  -13.9244 C   0  0  0  0  0  0  0  0  0  0  0  0
   27.7944  -19.1243  -13.5792 O   0  0  0  0  0  0  0  0  0  0  0  0
   27.6488  -20.7278  -15.1834 O   0  0  0  0  0  0  0  0  0  0  0  0
  2  3  2  0
  2  1  1  0
  4  2  1  0
  5  4  1  0
  5  6  1  1
  7  5  1  0
  7  8  2  0
 10  9  1  1
 10 11  1  0
 10 12  1  0
 13 12  1  1
 13 15  1  0
 13 14  1  0
 14  7  1  0
 15 20  1  0
 16 15  2  0
 18 17  1  0
 19 18  1  6
 19 21  1  0
 20 19  1  0
 21 22  2  0
 21 23  1  0
M  END
$$$$
