NLS.pdb
     RDKit          3D

 23 22  0  0  1  0  0  0  0  0999 V2000
   29.5315  -19.9108  -18.7931 N   0  0  0  0  0  0  0  0  0  0  0  0
   28.2429  -20.3432  -19.1888 C   0  0  0  0  0  0  0  0  0  0  0  0
   28.0222  -20.3008  -20.4464 O   0  0  0  0  0  0  0  0  0  0  0  0
   27.1868  -20.8214  -18.2381 C   0  0  0  0  0  0  0  0  0  0  0  0
   27.7670  -20.7543  -16.8445 C   0  0  2  0  0  0  0  0  0  0  0  0
   29.0139  -21.4627  -16.8178 N   0  0  0  0  0  0  0  0  0  0  0  0
   26.8354  -21.0911  -15.7787 C   0  0  0  0  0  0  0  0  0  0  0  0
   26.0254  -22.0481  -16.0326 O   0  0  0  0  0  0  0  0  0  0  0  0
   25.2533  -20.2821   -9.8046 C   0  0  0  0  0  0  0  0  0  0  0  0
   25.1576  -20.9776  -11.1213 C   0  0  2  0  0  0  0  0  0  0  0  0
   25.4887  -22.4474  -10.9589 C   0  0  0  0  0  0  0  0  0  0  0  0
   26.0454  -20.3992  -12.1733 C   0  0  0  0  0  0  0  0  0  0  0  0
   25.7952  -21.0077  -13.5637 C   0  0  2  0  0  0  0  0  0  0  0  0
   26.7504  -20.4504  -14.4990 N   0  0  0  0  0  0  0  0  0  0  0  0
   24.4401  -20.5682  -13.9326 C   0  0  0  0  0  0  0  0  0  0  0  0
   24.1804  -19.3581  -14.1466 O   0  0  0  0  0  0  0  0  0  0  0  0
   22.2777  -22.0051  -16.6367 O   0  0  0  0  0  0  0  0  0  0  0  0
   21.5013  -22.0809  -15.4821 C   0  0  0  0  0  0  0  0  0  0  0  0
   22.0870  -21.0972  -14.4685 C   0  0  2  0  0  0  0  0  0  0  0  0
   23.4082  -21.5481  -14.0579 N   0  0  0  0  0  0  0  0  0  0  0  0
   21.2318  -20.9561  -13.2821 C   0  0  0  0  0  0  0  0  0  0  0  0
   20.2480  -20.1906  -13.3207 O   0  0  0  0  0  0  0  0  0  0  0  0
   21.5048  -21.6604  -12.1267 O   0  0  0  0  0  0  0  0  0  0  0  0
  2  3  2  0
  2  1  1  0
  4  2  1  0
  5  4  1  0
  5  6  1  6
  7  5  1  0
  7  8  2  0
 10  9  1  1
 10 11  1  0
 10 12  1  0
 13 12  1  1
 13 15  1  0
 13 14  1  0
 14  7  1  0
 15 20  1  0
 16 15  2  0
 18 17  1  0
 19 18  1  6
 19 21  1  0
 20 19  1  0
 21 22  2  0
 21 23  1  0
M  END
$$$$
