NLS.pdb
     RDKit          3D

 23 22  0  0  1  0  0  0  0  0999 V2000
   18.6465  -12.0049  -20.6773 N   0  0  0  0  0  0  0  0  0  0  0  0
   19.9003  -11.6962  -20.0970 C   0  0  0  0  0  0  0  0  0  0  0  0
   20.9150  -12.1132  -20.7515 O   0  0  0  0  0  0  0  0  0  0  0  0
   20.0703  -10.9407  -18.8132 C   0  0  0  0  0  0  0  0  0  0  0  0
   21.2947  -11.4926  -18.1207 C   0  0  2  0  0  0  0  0  0  0  0  0
   21.0813  -12.8784  -17.8182 N   0  0  0  0  0  0  0  0  0  0  0  0
   21.7894  -10.6826  -17.0179 C   0  0  0  0  0  0  0  0  0  0  0  0
   21.0203  -10.6053  -15.9986 O   0  0  0  0  0  0  0  0  0  0  0  0
   26.5050  -10.8426  -15.5234 C   0  0  0  0  0  0  0  0  0  0  0  0
   25.4102  -10.1140  -14.8183 C   0  0  2  0  0  0  0  0  0  0  0  0
   24.3149  -11.0815  -14.4176 C   0  0  0  0  0  0  0  0  0  0  0  0
   24.8055   -9.0114  -15.6233 C   0  0  0  0  0  0  0  0  0  0  0  0
   23.2866   -9.1715  -15.8053 C   0  0  2  0  0  0  0  0  0  0  0  0
   23.0369   -9.9773  -16.9827 N   0  0  0  0  0  0  0  0  0  0  0  0
   22.7855   -7.8070  -16.0347 C   0  0  0  0  0  0  0  0  0  0  0  0
   22.9911   -7.2082  -17.1194 O   0  0  0  0  0  0  0  0  0  0  0  0
   19.6487   -4.4270  -14.8802 O   0  0  0  0  0  0  0  0  0  0  0  0
   20.1270   -5.7054  -14.5997 C   0  0  0  0  0  0  0  0  0  0  0  0
   21.4923   -5.8439  -15.2742 C   0  0  2  0  0  0  0  0  0  0  0  0
   22.0411   -7.1632  -14.9991 N   0  0  0  0  0  0  0  0  0  0  0  0
   22.4391   -4.8187  -14.8144 C   0  0  0  0  0  0  0  0  0  0  0  0
   23.2010   -5.0693  -13.8594 O   0  0  0  0  0  0  0  0  0  0  0  0
   22.4946   -3.5828  -15.4269 O   0  0  0  0  0  0  0  0  0  0  0  0
  2  3  2  0
  2  1  1  0
  4  2  1  0
  5  4  1  0
  5  6  1  1
  7  5  1  0
  7  8  2  0
 10  9  1  6
 10 11  1  0
 10 12  1  0
 13 12  1  6
 13 15  1  0
 13 14  1  0
 14  7  1  0
 15 20  1  0
 16 15  2  0
 18 17  1  0
 19 18  1  1
 19 21  1  0
 20 19  1  0
 21 22  2  0
 21 23  1  0
M  END
$$$$
