NLS.pdb
     RDKit          3D

 23 22  0  0  1  0  0  0  0  0999 V2000
   17.1574  -14.8852  -16.5515 N   0  0  0  0  0  0  0  0  0  0  0  0
   17.2132  -13.4896  -16.7823 C   0  0  0  0  0  0  0  0  0  0  0  0
   16.5269  -13.0797  -17.7788 O   0  0  0  0  0  0  0  0  0  0  0  0
   18.0054  -12.5294  -15.9467 C   0  0  0  0  0  0  0  0  0  0  0  0
   18.6959  -11.5708  -16.8888 C   0  0  2  0  0  0  0  0  0  0  0  0
   19.5764  -12.3069  -17.7492 N   0  0  0  0  0  0  0  0  0  0  0  0
   19.2816  -10.4023  -16.2495 C   0  0  0  0  0  0  0  0  0  0  0  0
   18.5563   -9.8345  -15.3618 O   0  0  0  0  0  0  0  0  0  0  0  0
   22.5583   -9.6575  -13.3126 C   0  0  0  0  0  0  0  0  0  0  0  0
   23.0011   -9.7630  -14.7337 C   0  0  2  0  0  0  0  0  0  0  0  0
   24.5146   -9.7759  -14.8078 C   0  0  0  0  0  0  0  0  0  0  0  0
   22.4874   -8.6661  -15.6069 C   0  0  0  0  0  0  0  0  0  0  0  0
   20.9560   -8.6871  -15.7499 C   0  0  2  0  0  0  0  0  0  0  0  0
   20.5728   -9.8460  -16.5296 N   0  0  0  0  0  0  0  0  0  0  0  0
   20.6278   -7.4651  -16.5014 C   0  0  0  0  0  0  0  0  0  0  0  0
   21.0045   -7.3065  -17.6891 O   0  0  0  0  0  0  0  0  0  0  0  0
   17.8773   -4.7709  -15.0175 O   0  0  0  0  0  0  0  0  0  0  0  0
   18.0702   -4.8740  -16.3936 C   0  0  0  0  0  0  0  0  0  0  0  0
   19.5331   -5.2537  -16.6259 C   0  0  2  0  0  0  0  0  0  0  0  0
   19.8546   -6.4490  -15.8607 N   0  0  0  0  0  0  0  0  0  0  0  0
   20.4495   -4.1709  -16.2428 C   0  0  0  0  0  0  0  0  0  0  0  0
   21.2675   -4.3554  -15.3197 O   0  0  0  0  0  0  0  0  0  0  0  0
   20.4150   -2.9534  -16.8924 O   0  0  0  0  0  0  0  0  0  0  0  0
  2  3  2  0
  2  1  1  0
  4  2  1  0
  5  4  1  0
  5  6  1  1
  7  5  1  0
  7  8  2  0
 10  9  1  1
 10 11  1  0
 10 12  1  0
 13 12  1  6
 13 15  1  0
 13 14  1  0
 14  7  1  0
 15 20  1  0
 16 15  2  0
 18 17  1  0
 19 18  1  1
 19 21  1  0
 20 19  1  0
 21 22  2  0
 21 23  1  0
M  END
$$$$
