NLS.pdb
     RDKit          3D

 23 22  0  0  1  0  0  0  0  0999 V2000
   16.1096  -12.3629  -18.7310 N   0  0  0  0  0  0  0  0  0  0  0  0
   15.5652  -11.9141  -17.5036 C   0  0  0  0  0  0  0  0  0  0  0  0
   14.5306  -12.5502  -17.1076 O   0  0  0  0  0  0  0  0  0  0  0  0
   16.1274  -10.7817  -16.6976 C   0  0  0  0  0  0  0  0  0  0  0  0
   17.4704  -11.2260  -16.1664 C   0  0  2  0  0  0  0  0  0  0  0  0
   17.2790  -12.3106  -15.2474 N   0  0  0  0  0  0  0  0  0  0  0  0
   18.3251  -10.1490  -15.6905 C   0  0  0  0  0  0  0  0  0  0  0  0
   17.8111   -9.3848  -14.8026 O   0  0  0  0  0  0  0  0  0  0  0  0
   21.9824   -9.3528  -13.0555 C   0  0  0  0  0  0  0  0  0  0  0  0
   22.2498   -9.8791  -14.4259 C   0  0  2  0  0  0  0  0  0  0  0  0
   23.7256  -10.1826  -14.5882 C   0  0  0  0  0  0  0  0  0  0  0  0
   21.8273   -8.9537  -15.5188 C   0  0  0  0  0  0  0  0  0  0  0  0
   20.3074   -8.7189  -15.5455 C   0  0  2  0  0  0  0  0  0  0  0  0
   19.6631   -9.8780  -16.1280 N   0  0  0  0  0  0  0  0  0  0  0  0
   20.1174   -7.5599  -16.4322 C   0  0  0  0  0  0  0  0  0  0  0  0
   20.2750   -7.6541  -17.6748 O   0  0  0  0  0  0  0  0  0  0  0  0
   17.9519   -3.8333  -17.8351 O   0  0  0  0  0  0  0  0  0  0  0  0
   18.0762   -4.9843  -17.0597 C   0  0  0  0  0  0  0  0  0  0  0  0
   19.5622   -5.1739  -16.7528 C   0  0  2  0  0  0  0  0  0  0  0  0
   19.7351   -6.3088  -15.8585 N   0  0  0  0  0  0  0  0  0  0  0  0
   20.1536   -3.9773  -16.1385 C   0  0  0  0  0  0  0  0  0  0  0  0
   20.3426   -3.9482  -14.9061 O   0  0  0  0  0  0  0  0  0  0  0  0
   20.5019   -2.8863  -16.9093 O   0  0  0  0  0  0  0  0  0  0  0  0
  2  3  2  0
  2  1  1  0
  4  2  1  0
  5  4  1  0
  5  6  1  1
  7  5  1  0
  7  8  2  0
 10  9  1  1
 10 11  1  0
 10 12  1  0
 13 12  1  6
 13 15  1  0
 13 14  1  0
 14  7  1  0
 15 20  1  0
 16 15  2  0
 18 17  1  0
 19 18  1  1
 19 21  1  0
 20 19  1  0
 21 22  2  0
 21 23  1  0
M  END
$$$$
