FTY.pdb
     RDKit          3D

 31 32  0  0  1  0  0  0  0  0999 V2000
   29.6475  -19.8643  -13.3189 N   0  0  0  0  0  0  0  0  0  0  0  0
   28.5483  -20.6941  -12.8702 C   0  0  1  0  0  0  0  0  0  0  0  0
   28.7220  -20.8999  -11.3852 C   0  0  0  0  0  0  0  0  0  0  0  0
   30.0238  -21.5826  -11.1846 C   0  0  0  0  0  0  0  0  0  0  0  0
   30.4394  -22.5551  -12.0641 C   0  0  0  0  0  0  0  0  0  0  0  0
   31.6545  -23.2170  -11.9076 C   0  0  0  0  0  0  0  0  0  0  0  0
   32.4800  -22.9050  -10.8491 C   0  0  0  0  0  0  0  0  0  0  0  0
   32.0605  -21.9233   -9.9615 C   0  0  0  0  0  0  0  0  0  0  0  0
   30.8477  -21.2699  -10.1265 C   0  0  0  0  0  0  0  0  0  0  0  0
   27.2828  -20.0680  -13.2318 C   0  0  0  0  0  0  0  0  0  0  0  0
   27.1285  -18.8329  -13.0644 O   0  0  0  0  0  0  0  0  0  0  0  0
   25.3887  -19.0403  -16.1080 C   0  0  0  0  0  0  0  0  0  0  0  0
   24.4808  -20.0021  -15.3781 C   0  0  1  0  0  0  0  0  0  0  0  0
   24.4861  -21.2746  -15.9353 O   0  0  0  0  0  0  0  0  0  0  0  0
   24.8536  -20.1292  -13.9175 C   0  0  2  0  0  0  0  0  0  0  0  0
   26.1673  -20.7655  -13.7787 N   0  0  0  0  0  0  0  0  0  0  0  0
   23.8765  -20.9114  -13.1257 C   0  0  0  0  0  0  0  0  0  0  0  0
   24.1190  -22.1421  -12.8860 O   0  0  0  0  0  0  0  0  0  0  0  0
   17.5899  -23.2877   -7.3950 O   0  0  0  0  0  0  0  0  0  0  0  0
   18.4583  -22.5681   -8.2142 C   0  0  0  0  0  0  0  0  0  0  0  0
   19.7991  -22.4547   -7.8957 C   0  0  0  0  0  0  0  0  0  0  0  0
   20.6691  -21.7460   -8.6969 C   0  0  0  0  0  0  0  0  0  0  0  0
   20.2484  -21.1216   -9.8442 C   0  0  0  0  0  0  0  0  0  0  0  0
   21.1770  -20.3592  -10.7099 C   0  0  0  0  0  0  0  0  0  0  0  0
   21.7327  -21.2257  -11.8450 C   0  0  2  0  0  0  0  0  0  0  0  0
   22.6690  -20.3967  -12.6001 N   0  0  0  0  0  0  0  0  0  0  0  0
   20.6181  -21.6270  -12.7197 C   0  0  0  0  0  0  0  0  0  0  0  0
   20.2277  -20.8347  -13.6245 O   0  0  0  0  0  0  0  0  0  0  0  0
   18.8949  -21.2265  -10.1810 C   0  0  0  0  0  0  0  0  0  0  0  0
   18.0447  -21.9394   -9.3657 C   0  0  0  0  0  0  0  0  0  0  0  0
   20.0025  -22.8590  -12.5546 O   0  0  0  0  0  0  0  0  0  0  0  0
  2  1  1  1
  2 10  1  0
  3  2  1  0
  3  4  1  0
  4  9  1  0
  4  5  2  0
  5  6  1  0
  7  6  2  0
  8  7  1  0
  9  8  2  0
 10 11  2  0
 13 12  1  6
 13 15  1  0
 14 13  1  0
 15 17  1  0
 15 16  1  6
 16 10  1  0
 17 26  1  0
 17 18  2  0
 19 20  1  0
 20 30  2  0
 20 21  1  0
 21 22  2  0
 22 23  1  0
 23 24  1  0
 25 24  1  1
 25 27  1  0
 26 25  1  0
 27 28  2  0
 27 31  1  0
 29 23  2  0
 30 29  1  0
M  END
$$$$
