FTY.pdb
     RDKit          3D

 31 32  0  0  1  0  0  0  0  0999 V2000
   26.8659   -5.2409  -19.7120 N   0  0  0  0  0  0  0  0  0  0  0  0
   25.9415   -5.8584  -18.7834 C   0  0  1  0  0  0  0  0  0  0  0  0
   26.6454   -5.9559  -17.4520 C   0  0  0  0  0  0  0  0  0  0  0  0
   27.6640   -7.0280  -17.5699 C   0  0  0  0  0  0  0  0  0  0  0  0
   28.9847   -6.7089  -17.7845 C   0  0  0  0  0  0  0  0  0  0  0  0
   29.9680   -7.6879  -17.9004 C   0  0  0  0  0  0  0  0  0  0  0  0
   29.6314   -9.0207  -17.8004 C   0  0  0  0  0  0  0  0  0  0  0  0
   28.2984   -9.3426  -17.5838 C   0  0  0  0  0  0  0  0  0  0  0  0
   27.3263   -8.3592  -17.4698 C   0  0  0  0  0  0  0  0  0  0  0  0
   24.7050   -5.0882  -18.7385 C   0  0  0  0  0  0  0  0  0  0  0  0
   24.7427   -3.8405  -18.8765 O   0  0  0  0  0  0  0  0  0  0  0  0
   21.7069   -5.2419  -20.9842 C   0  0  0  0  0  0  0  0  0  0  0  0
   21.2058   -5.3751  -19.5653 C   0  0  1  0  0  0  0  0  0  0  0  0
   20.9229   -6.6896  -19.2162 O   0  0  0  0  0  0  0  0  0  0  0  0
   22.1996   -4.8285  -18.5642 C   0  0  2  0  0  0  0  0  0  0  0  0
   23.4116   -5.6534  -18.5443 N   0  0  0  0  0  0  0  0  0  0  0  0
   21.6672   -4.7579  -17.1839 C   0  0  0  0  0  0  0  0  0  0  0  0
   21.9136   -5.7161  -16.3765 O   0  0  0  0  0  0  0  0  0  0  0  0
   19.3383    2.3025  -17.3313 O   0  0  0  0  0  0  0  0  0  0  0  0
   19.6927    1.1349  -16.6574 C   0  0  0  0  0  0  0  0  0  0  0  0
   20.9372    0.5617  -16.8436 C   0  0  0  0  0  0  0  0  0  0  0  0
   21.3010   -0.5929  -16.1836 C   0  0  0  0  0  0  0  0  0  0  0  0
   20.4493   -1.2263  -15.3137 C   0  0  0  0  0  0  0  0  0  0  0  0
   20.8332   -2.4663  -14.6009 C   0  0  0  0  0  0  0  0  0  0  0  0
   20.3252   -3.7166  -15.3266 C   0  0  2  0  0  0  0  0  0  0  0  0
   20.8911   -3.6920  -16.6731 N   0  0  0  0  0  0  0  0  0  0  0  0
   18.8567   -3.6478  -15.4108 C   0  0  0  0  0  0  0  0  0  0  0  0
   18.3111   -3.4658  -16.5369 O   0  0  0  0  0  0  0  0  0  0  0  0
   19.1864   -0.6596  -15.1139 C   0  0  0  0  0  0  0  0  0  0  0  0
   18.8451    0.4939  -15.7840 C   0  0  0  0  0  0  0  0  0  0  0  0
   18.0794   -3.7809  -14.2697 O   0  0  0  0  0  0  0  0  0  0  0  0
  2  1  1  6
  2 10  1  0
  3  2  1  0
  3  4  1  0
  4  9  1  0
  4  5  2  0
  5  6  1  0
  7  6  2  0
  8  7  1  0
  9  8  2  0
 10 11  2  0
 13 12  1  6
 13 15  1  0
 14 13  1  0
 15 17  1  0
 15 16  1  1
 16 10  1  0
 17 26  1  0
 17 18  2  0
 19 20  1  0
 20 30  2  0
 20 21  1  0
 21 22  2  0
 22 23  1  0
 23 24  1  0
 25 24  1  1
 25 27  1  0
 26 25  1  0
 27 28  2  0
 27 31  1  0
 29 23  2  0
 30 29  1  0
M  END
$$$$
