FTY.pdb
     RDKit          3D

 31 32  0  0  1  0  0  0  0  0999 V2000
   25.1730  -21.0996   -7.8760 N   0  0  0  0  0  0  0  0  0  0  0  0
   25.9450  -20.4166   -8.8936 C   0  0  1  0  0  0  0  0  0  0  0  0
   27.3936  -20.4857   -8.4758 C   0  0  0  0  0  0  0  0  0  0  0  0
   27.5225  -19.7282   -7.2067 C   0  0  0  0  0  0  0  0  0  0  0  0
   28.2454  -20.2491   -6.1588 C   0  0  0  0  0  0  0  0  0  0  0  0
   28.3880  -19.5669   -4.9533 C   0  0  0  0  0  0  0  0  0  0  0  0
   27.7968  -18.3337   -4.7830 C   0  0  0  0  0  0  0  0  0  0  0  0
   27.0671  -17.8081   -5.8407 C   0  0  0  0  0  0  0  0  0  0  0  0
   26.9312  -18.4961   -7.0379 C   0  0  0  0  0  0  0  0  0  0  0  0
   25.6802  -21.0175  -10.1947 C   0  0  0  0  0  0  0  0  0  0  0  0
   25.5721  -22.2647  -10.2946 O   0  0  0  0  0  0  0  0  0  0  0  0
   22.6677  -20.7115  -12.4739 C   0  0  0  0  0  0  0  0  0  0  0  0
   23.9061  -20.3022  -13.2362 C   0  0  1  0  0  0  0  0  0  0  0  0
   24.0936  -18.9259  -13.2579 O   0  0  0  0  0  0  0  0  0  0  0  0
   25.1545  -20.9356  -12.6629 C   0  0  2  0  0  0  0  0  0  0  0  0
   25.5285  -20.2813  -11.4051 N   0  0  0  0  0  0  0  0  0  0  0  0
   26.3183  -20.8766  -13.5771 C   0  0  0  0  0  0  0  0  0  0  0  0
   27.1176  -19.8839  -13.4969 O   0  0  0  0  0  0  0  0  0  0  0  0
   24.0587  -26.3170  -17.8874 O   0  0  0  0  0  0  0  0  0  0  0  0
   25.0965  -25.5619  -17.3436 C   0  0  0  0  0  0  0  0  0  0  0  0
   25.2010  -25.3861  -15.9760 C   0  0  0  0  0  0  0  0  0  0  0  0
   26.2222  -24.6417  -15.4246 C   0  0  0  0  0  0  0  0  0  0  0  0
   27.1802  -24.0419  -16.2028 C   0  0  0  0  0  0  0  0  0  0  0  0
   28.2802  -23.2414  -15.6177 C   0  0  0  0  0  0  0  0  0  0  0  0
   27.8484  -21.7954  -15.3517 C   0  0  2  0  0  0  0  0  0  0  0  0
   26.6259  -21.8515  -14.5539 N   0  0  0  0  0  0  0  0  0  0  0  0
   27.5624  -21.1449  -16.6415 C   0  0  0  0  0  0  0  0  0  0  0  0
   28.5091  -20.9465  -17.4558 O   0  0  0  0  0  0  0  0  0  0  0  0
   27.0892  -24.2098  -17.5883 C   0  0  0  0  0  0  0  0  0  0  0  0
   26.0606  -24.9574  -18.1165 C   0  0  0  0  0  0  0  0  0  0  0  0
   26.2706  -20.7537  -16.9611 O   0  0  0  0  0  0  0  0  0  0  0  0
  2  1  1  1
  2 10  1  0
  3  2  1  0
  3  4  1  0
  4  9  1  0
  4  5  2  0
  5  6  1  0
  7  6  2  0
  8  7  1  0
  9  8  2  0
 10 11  2  0
 13 12  1  1
 13 15  1  0
 14 13  1  0
 15 17  1  0
 15 16  1  1
 16 10  1  0
 17 26  1  0
 17 18  2  0
 19 20  1  0
 20 30  2  0
 20 21  1  0
 21 22  2  0
 22 23  1  0
 23 24  1  0
 25 24  1  6
 25 27  1  0
 26 25  1  0
 27 28  2  0
 27 31  1  0
 29 23  2  0
 30 29  1  0
M  END
$$$$
