FTY.pdb
     RDKit          3D

 31 32  0  0  1  0  0  0  0  0999 V2000
   28.4212  -18.0318  -20.1551 N   0  0  0  0  0  0  0  0  0  0  0  0
   28.6477  -18.5132  -18.8079 C   0  0  1  0  0  0  0  0  0  0  0  0
   28.8828  -17.3041  -17.9359 C   0  0  0  0  0  0  0  0  0  0  0  0
   30.1570  -16.6848  -18.3761 C   0  0  0  0  0  0  0  0  0  0  0  0
   30.1758  -15.3875  -18.8330 C   0  0  0  0  0  0  0  0  0  0  0  0
   31.3525  -14.7735  -19.2543 C   0  0  0  0  0  0  0  0  0  0  0  0
   32.5435  -15.4662  -19.2212 C   0  0  0  0  0  0  0  0  0  0  0  0
   32.5244  -16.7756  -18.7600 C   0  0  0  0  0  0  0  0  0  0  0  0
   31.3463  -17.3780  -18.3425 C   0  0  0  0  0  0  0  0  0  0  0  0
   27.5185  -19.3316  -18.3842 C   0  0  0  0  0  0  0  0  0  0  0  0
   26.3496  -18.8860  -18.4952 O   0  0  0  0  0  0  0  0  0  0  0  0
   26.5324  -22.6596  -19.7033 C   0  0  0  0  0  0  0  0  0  0  0  0
   26.5333  -22.7952  -18.1987 C   0  0  1  0  0  0  0  0  0  0  0  0
   27.6565  -23.4572  -17.7192 O   0  0  0  0  0  0  0  0  0  0  0  0
   26.4549  -21.4492  -17.5126 C   0  0  2  0  0  0  0  0  0  0  0  0
   27.6352  -20.6413  -17.8354 N   0  0  0  0  0  0  0  0  0  0  0  0
   26.3505  -21.5444  -16.0383 C   0  0  0  0  0  0  0  0  0  0  0  0
   27.4159  -21.7019  -15.3521 O   0  0  0  0  0  0  0  0  0  0  0  0
   24.8275  -21.0946   -7.5021 O   0  0  0  0  0  0  0  0  0  0  0  0
   24.9901  -20.9515   -8.8792 C   0  0  0  0  0  0  0  0  0  0  0  0
   23.9610  -20.4674   -9.6656 C   0  0  0  0  0  0  0  0  0  0  0  0
   24.1081  -20.3208  -11.0287 C   0  0  0  0  0  0  0  0  0  0  0  0
   25.2778  -20.6468  -11.6680 C   0  0  0  0  0  0  0  0  0  0  0  0
   25.4433  -20.4916  -13.1314 C   0  0  0  0  0  0  0  0  0  0  0  0
   25.0727  -21.7750  -13.8822 C   0  0  2  0  0  0  0  0  0  0  0  0
   25.1407  -21.4730  -15.3098 N   0  0  0  0  0  0  0  0  0  0  0  0
   23.6934  -22.1474  -13.5253 C   0  0  0  0  0  0  0  0  0  0  0  0
   23.4715  -22.6933  -12.4065 O   0  0  0  0  0  0  0  0  0  0  0  0
   26.3290  -21.1380  -10.8870 C   0  0  0  0  0  0  0  0  0  0  0  0
   26.1591  -21.2759   -9.5276 C   0  0  0  0  0  0  0  0  0  0  0  0
   22.6487  -21.9031  -14.4044 O   0  0  0  0  0  0  0  0  0  0  0  0
  2  1  1  6
  2 10  1  0
  3  2  1  0
  3  4  1  0
  4  9  1  0
  4  5  2  0
  5  6  1  0
  7  6  2  0
  8  7  1  0
  9  8  2  0
 10 11  2  0
 13 12  1  6
 13 15  1  0
 14 13  1  0
 15 17  1  0
 15 16  1  1
 16 10  1  0
 17 26  1  0
 17 18  2  0
 19 20  1  0
 20 30  2  0
 20 21  1  0
 21 22  2  0
 22 23  1  0
 23 24  1  0
 25 24  1  1
 25 27  1  0
 26 25  1  0
 27 28  2  0
 27 31  1  0
 29 23  2  0
 30 29  1  0
M  END
$$$$
