FTY.pdb
     RDKit          3D

 31 32  0  0  1  0  0  0  0  0999 V2000
   23.9022  -22.4402  -16.9052 N   0  0  0  0  0  0  0  0  0  0  0  0
   23.5536  -22.0613  -15.5513 C   0  0  1  0  0  0  0  0  0  0  0  0
   22.4224  -22.9595  -15.1140 C   0  0  0  0  0  0  0  0  0  0  0  0
   21.1789  -22.4320  -15.7275 C   0  0  0  0  0  0  0  0  0  0  0  0
   20.6029  -21.2797  -15.2456 C   0  0  0  0  0  0  0  0  0  0  0  0
   19.4364  -20.7551  -15.7961 C   0  0  0  0  0  0  0  0  0  0  0  0
   18.8246  -21.3919  -16.8543 C   0  0  0  0  0  0  0  0  0  0  0  0
   19.4061  -22.5550  -17.3406 C   0  0  0  0  0  0  0  0  0  0  0  0
   20.5687  -23.0692  -16.7847 C   0  0  0  0  0  0  0  0  0  0  0  0
   24.7335  -22.1466  -14.6999 C   0  0  0  0  0  0  0  0  0  0  0  0
   25.6114  -23.0129  -14.9367 O   0  0  0  0  0  0  0  0  0  0  0  0
   27.5724  -20.3734  -14.8136 C   0  0  0  0  0  0  0  0  0  0  0  0
   27.1414  -20.1666  -13.3805 C   0  0  1  0  0  0  0  0  0  0  0  0
   26.4450  -18.9791  -13.1945 O   0  0  0  0  0  0  0  0  0  0  0  0
   26.2722  -21.3014  -12.8852 C   0  0  2  0  0  0  0  0  0  0  0  0
   24.9821  -21.2989  -13.5820 N   0  0  0  0  0  0  0  0  0  0  0  0
   26.0096  -21.2500  -11.4286 C   0  0  0  0  0  0  0  0  0  0  0  0
   24.8336  -20.9624  -11.0222 O   0  0  0  0  0  0  0  0  0  0  0  0
   27.7986  -18.8282   -3.1176 O   0  0  0  0  0  0  0  0  0  0  0  0
   27.8849  -19.3119   -4.4222 C   0  0  0  0  0  0  0  0  0  0  0  0
   28.0619  -18.4467   -5.4862 C   0  0  0  0  0  0  0  0  0  0  0  0
   28.1489  -18.9113   -6.7814 C   0  0  0  0  0  0  0  0  0  0  0  0
   28.0644  -20.2489   -7.0760 C   0  0  0  0  0  0  0  0  0  0  0  0
   28.1574  -20.7553   -8.4646 C   0  0  0  0  0  0  0  0  0  0  0  0
   26.7772  -21.0956   -9.0365 C   0  0  2  0  0  0  0  0  0  0  0  0
   26.9753  -21.4996  -10.4263 N   0  0  0  0  0  0  0  0  0  0  0  0
   25.9384  -19.8861   -8.9927 C   0  0  0  0  0  0  0  0  0  0  0  0
   24.9299  -19.8619   -8.2303 O   0  0  0  0  0  0  0  0  0  0  0  0
   27.8853  -21.1378   -6.0111 C   0  0  0  0  0  0  0  0  0  0  0  0
   27.8011  -20.6508   -4.7259 C   0  0  0  0  0  0  0  0  0  0  0  0
   26.2491  -18.7855   -9.7776 O   0  0  0  0  0  0  0  0  0  0  0  0
  2  1  1  6
  2 10  1  0
  3  2  1  0
  3  4  1  0
  4  9  1  0
  4  5  2  0
  5  6  1  0
  7  6  2  0
  8  7  1  0
  9  8  2  0
 10 11  2  0
 13 12  1  6
 13 15  1  0
 14 13  1  0
 15 17  1  0
 15 16  1  6
 16 10  1  0
 17 26  1  0
 17 18  2  0
 19 20  1  0
 20 30  2  0
 20 21  1  0
 21 22  2  0
 22 23  1  0
 23 24  1  0
 25 24  1  6
 25 27  1  0
 26 25  1  0
 27 28  2  0
 27 31  1  0
 29 23  2  0
 30 29  1  0
M  END
$$$$
