FTY.pdb
     RDKit          3D

 31 32  0  0  1  0  0  0  0  0999 V2000
   14.6147   -9.0991   -9.9145 N   0  0  0  0  0  0  0  0  0  0  0  0
   15.1945   -7.7853  -10.1037 C   0  0  1  0  0  0  0  0  0  0  0  0
   15.6247   -7.2878   -8.7454 C   0  0  0  0  0  0  0  0  0  0  0  0
   14.4018   -6.8474   -8.0300 C   0  0  0  0  0  0  0  0  0  0  0  0
   13.6902   -7.7381   -7.2605 C   0  0  0  0  0  0  0  0  0  0  0  0
   12.5383   -7.3607   -6.5752 C   0  0  0  0  0  0  0  0  0  0  0  0
   12.0800   -6.0635   -6.6558 C   0  0  0  0  0  0  0  0  0  0  0  0
   12.7984   -5.1646   -7.4326 C   0  0  0  0  0  0  0  0  0  0  0  0
   13.9450   -5.5510   -8.1115 C   0  0  0  0  0  0  0  0  0  0  0  0
   16.2817   -7.8646  -11.0711 C   0  0  0  0  0  0  0  0  0  0  0  0
   17.0428   -8.8636  -11.0724 O   0  0  0  0  0  0  0  0  0  0  0  0
   16.3629   -8.4661  -14.6904 C   0  0  0  0  0  0  0  0  0  0  0  0
   17.0190   -7.1288  -14.4389 C   0  0  1  0  0  0  0  0  0  0  0  0
   16.1419   -6.0624  -14.5915 O   0  0  0  0  0  0  0  0  0  0  0  0
   17.6175   -7.0478  -13.0519 C   0  0  2  0  0  0  0  0  0  0  0  0
   16.5624   -6.8678  -12.0496 N   0  0  0  0  0  0  0  0  0  0  0  0
   18.5950   -5.9462  -12.8952 C   0  0  0  0  0  0  0  0  0  0  0  0
   18.2092   -4.8473  -12.3713 O   0  0  0  0  0  0  0  0  0  0  0  0
   23.6891   -9.1834  -16.9422 O   0  0  0  0  0  0  0  0  0  0  0  0
   23.3454   -8.2773  -15.9402 C   0  0  0  0  0  0  0  0  0  0  0  0
   22.6717   -8.6977  -14.8082 C   0  0  0  0  0  0  0  0  0  0  0  0
   22.3256   -7.8123  -13.8095 C   0  0  0  0  0  0  0  0  0  0  0  0
   22.6317   -6.4770  -13.8901 C   0  0  0  0  0  0  0  0  0  0  0  0
   22.2637   -5.5204  -12.8212 C   0  0  0  0  0  0  0  0  0  0  0  0
   20.8808   -4.9062  -13.0630 C   0  0  2  0  0  0  0  0  0  0  0  0
   19.9523   -6.0117  -13.2861 N   0  0  0  0  0  0  0  0  0  0  0  0
   20.9432   -4.0672  -14.2715 C   0  0  0  0  0  0  0  0  0  0  0  0
   20.3875   -4.4716  -15.3328 O   0  0  0  0  0  0  0  0  0  0  0  0
   23.3131   -6.0352  -15.0288 C   0  0  0  0  0  0  0  0  0  0  0  0
   23.6484   -6.9375  -16.0134 C   0  0  0  0  0  0  0  0  0  0  0  0
   21.6033   -2.8474  -14.2480 O   0  0  0  0  0  0  0  0  0  0  0  0
  2  1  1  1
  2 10  1  0
  3  2  1  0
  3  4  1  0
  4  9  1  0
  4  5  2  0
  5  6  1  0
  7  6  2  0
  8  7  1  0
  9  8  2  0
 10 11  2  0
 13 12  1  1
 13 15  1  0
 14 13  1  0
 15 17  1  0
 15 16  1  1
 16 10  1  0
 17 26  1  0
 17 18  2  0
 19 20  1  0
 20 30  2  0
 20 21  1  0
 21 22  2  0
 22 23  1  0
 23 24  1  0
 25 24  1  6
 25 27  1  0
 26 25  1  0
 27 28  2  0
 27 31  1  0
 29 23  2  0
 30 29  1  0
M  END
$$$$
