FTY.pdb
     RDKit          3D

 31 32  0  0  1  0  0  0  0  0999 V2000
   24.7287  -15.9367  -18.2784 N   0  0  0  0  0  0  0  0  0  0  0  0
   24.7658  -14.7783  -17.4096 C   0  0  1  0  0  0  0  0  0  0  0  0
   26.2185  -14.4443  -17.1734 C   0  0  0  0  0  0  0  0  0  0  0  0
   26.8135  -15.5755  -16.4202 C   0  0  0  0  0  0  0  0  0  0  0  0
   27.5832  -16.5123  -17.0698 C   0  0  0  0  0  0  0  0  0  0  0  0
   28.1575  -17.5869  -16.3958 C   0  0  0  0  0  0  0  0  0  0  0  0
   27.9627  -17.7360  -15.0396 C   0  0  0  0  0  0  0  0  0  0  0  0
   27.1858  -16.7904  -14.3841 C   0  0  0  0  0  0  0  0  0  0  0  0
   26.6180  -15.7232  -15.0652 C   0  0  0  0  0  0  0  0  0  0  0  0
   24.0038  -13.6909  -18.0107 C   0  0  0  0  0  0  0  0  0  0  0  0
   24.1661  -13.4131  -19.2247 O   0  0  0  0  0  0  0  0  0  0  0  0
   20.5164  -13.2436  -18.9668 C   0  0  0  0  0  0  0  0  0  0  0  0
   20.8373  -12.1266  -18.0017 C   0  0  1  0  0  0  0  0  0  0  0  0
   20.4356  -12.4072  -16.7018 O   0  0  0  0  0  0  0  0  0  0  0  0
   22.3170  -11.8125  -17.9768 C   0  0  2  0  0  0  0  0  0  0  0  0
   23.0569  -12.8889  -17.3105 N   0  0  0  0  0  0  0  0  0  0  0  0
   22.6377  -10.5395  -17.2910 C   0  0  0  0  0  0  0  0  0  0  0  0
   22.9402  -10.5648  -16.0506 O   0  0  0  0  0  0  0  0  0  0  0  0
   24.2497   -1.9201  -15.7521 O   0  0  0  0  0  0  0  0  0  0  0  0
   23.9954   -3.1513  -16.3544 C   0  0  0  0  0  0  0  0  0  0  0  0
   22.7120   -3.5017  -16.7315 C   0  0  0  0  0  0  0  0  0  0  0  0
   22.4462   -4.7160  -17.3280 C   0  0  0  0  0  0  0  0  0  0  0  0
   23.4381   -5.6315  -17.5754 C   0  0  0  0  0  0  0  0  0  0  0  0
   23.1603   -6.9374  -18.2161 C   0  0  0  0  0  0  0  0  0  0  0  0
   22.9562   -8.0454  -17.1775 C   0  0  2  0  0  0  0  0  0  0  0  0
   22.6376   -9.2684  -17.9103 N   0  0  0  0  0  0  0  0  0  0  0  0
   21.8190   -7.6798  -16.3165 C   0  0  0  0  0  0  0  0  0  0  0  0
   20.6414   -7.8535  -16.7428 O   0  0  0  0  0  0  0  0  0  0  0  0
   24.7421   -5.2928  -17.2000 C   0  0  0  0  0  0  0  0  0  0  0  0
   24.9837   -4.0744  -16.6057 C   0  0  0  0  0  0  0  0  0  0  0  0
   22.0350   -7.1509  -15.0525 O   0  0  0  0  0  0  0  0  0  0  0  0
  2  1  1  6
  2 10  1  0
  3  2  1  0
  3  4  1  0
  4  9  1  0
  4  5  2  0
  5  6  1  0
  7  6  2  0
  8  7  1  0
  9  8  2  0
 10 11  2  0
 13 12  1  6
 13 15  1  0
 14 13  1  0
 15 17  1  0
 15 16  1  1
 16 10  1  0
 17 26  1  0
 17 18  2  0
 19 20  1  0
 20 30  2  0
 20 21  1  0
 21 22  2  0
 22 23  1  0
 23 24  1  0
 25 24  1  6
 25 27  1  0
 26 25  1  0
 27 28  2  0
 27 31  1  0
 29 23  2  0
 30 29  1  0
M  END
$$$$
