FTY.pdb
     RDKit          3D

 31 32  0  0  1  0  0  0  0  0999 V2000
   26.7020  -19.1022  -16.4479 N   0  0  0  0  0  0  0  0  0  0  0  0
   25.9184  -18.6543  -15.3150 C   0  0  1  0  0  0  0  0  0  0  0  0
   25.0029  -17.5614  -15.8100 C   0  0  0  0  0  0  0  0  0  0  0  0
   25.8466  -16.3739  -16.0911 C   0  0  0  0  0  0  0  0  0  0  0  0
   26.2047  -16.0681  -17.3834 C   0  0  0  0  0  0  0  0  0  0  0  0
   26.9951  -14.9621  -17.6850 C   0  0  0  0  0  0  0  0  0  0  0  0
   27.4425  -14.1367  -16.6761 C   0  0  0  0  0  0  0  0  0  0  0  0
   27.0809  -14.4454  -15.3717 C   0  0  0  0  0  0  0  0  0  0  0  0
   26.2929  -15.5500  -15.0820 C   0  0  0  0  0  0  0  0  0  0  0  0
   25.2151  -19.7876  -14.7273 C   0  0  0  0  0  0  0  0  0  0  0  0
   24.8437  -20.7380  -15.4595 O   0  0  0  0  0  0  0  0  0  0  0  0
   26.0542  -21.4828  -11.2049 C   0  0  0  0  0  0  0  0  0  0  0  0
   24.5617  -21.3211  -11.3728 C   0  0  1  0  0  0  0  0  0  0  0  0
   24.0438  -20.2835  -10.6079 O   0  0  0  0  0  0  0  0  0  0  0  0
   24.1815  -21.0735  -12.8160 C   0  0  2  0  0  0  0  0  0  0  0  0
   24.9033  -19.9108  -13.3425 N   0  0  0  0  0  0  0  0  0  0  0  0
   22.7316  -20.8439  -13.0125 C   0  0  0  0  0  0  0  0  0  0  0  0
   22.2456  -19.6943  -12.7421 O   0  0  0  0  0  0  0  0  0  0  0  0
   14.3545  -20.7396  -15.5793 O   0  0  0  0  0  0  0  0  0  0  0  0
   15.7283  -20.9261  -15.4341 C   0  0  0  0  0  0  0  0  0  0  0  0
   16.2886  -22.1833  -15.5673 C   0  0  0  0  0  0  0  0  0  0  0  0
   17.6457  -22.3821  -15.4263 C   0  0  0  0  0  0  0  0  0  0  0  0
   18.5022  -21.3467  -15.1482 C   0  0  0  0  0  0  0  0  0  0  0  0
   19.9608  -21.5525  -14.9959 C   0  0  0  0  0  0  0  0  0  0  0  0
   20.3781  -21.5763  -13.5217 C   0  0  2  0  0  0  0  0  0  0  0  0
   21.8190  -21.8144  -13.4865 N   0  0  0  0  0  0  0  0  0  0  0  0
   19.6813  -22.6882  -12.8533 C   0  0  0  0  0  0  0  0  0  0  0  0
   20.1978  -23.8421  -12.8750 O   0  0  0  0  0  0  0  0  0  0  0  0
   17.9517  -20.0683  -15.0103 C   0  0  0  0  0  0  0  0  0  0  0  0
   16.5936  -19.8938  -15.1554 C   0  0  0  0  0  0  0  0  0  0  0  0
   18.4727  -22.4742  -12.2072 O   0  0  0  0  0  0  0  0  0  0  0  0
  2  1  1  6
  2 10  1  0
  3  2  1  0
  3  4  1  0
  4  9  1  0
  4  5  2  0
  5  6  1  0
  7  6  2  0
  8  7  1  0
  9  8  2  0
 10 11  2  0
 13 12  1  6
 13 15  1  0
 14 13  1  0
 15 17  1  0
 15 16  1  1
 16 10  1  0
 17 26  1  0
 17 18  2  0
 19 20  1  0
 20 30  2  0
 20 21  1  0
 21 22  2  0
 22 23  1  0
 23 24  1  0
 25 24  1  6
 25 27  1  0
 26 25  1  0
 27 28  2  0
 27 31  1  0
 29 23  2  0
 30 29  1  0
M  END
$$$$
