FTY.pdb
     RDKit          3D

 31 32  0  0  1  0  0  0  0  0999 V2000
   28.2296  -21.7269  -13.8295 N   0  0  0  0  0  0  0  0  0  0  0  0
   27.1986  -20.8470  -13.3189 C   0  0  1  0  0  0  0  0  0  0  0  0
   27.8938  -19.6905  -12.6430 C   0  0  0  0  0  0  0  0  0  0  0  0
   28.4104  -20.1859  -11.3435 C   0  0  0  0  0  0  0  0  0  0  0  0
   27.5691  -20.3013  -10.2615 C   0  0  0  0  0  0  0  0  0  0  0  0
   28.0185  -20.7624   -9.0268 C   0  0  0  0  0  0  0  0  0  0  0  0
   29.3395  -21.1188   -8.8614 C   0  0  0  0  0  0  0  0  0  0  0  0
   30.1886  -21.0022   -9.9536 C   0  0  0  0  0  0  0  0  0  0  0  0
   29.7305  -20.5417  -11.1796 C   0  0  0  0  0  0  0  0  0  0  0  0
   26.3145  -20.4461  -14.4061 C   0  0  0  0  0  0  0  0  0  0  0  0
   26.7790  -20.2941  -15.5630 O   0  0  0  0  0  0  0  0  0  0  0  0
   25.4393  -21.6151  -16.7966 C   0  0  0  0  0  0  0  0  0  0  0  0
   24.0584  -21.3241  -16.2576 C   0  0  1  0  0  0  0  0  0  0  0  0
   23.5533  -22.3618  -15.4843 O   0  0  0  0  0  0  0  0  0  0  0  0
   24.0349  -20.0633  -15.4218 C   0  0  2  0  0  0  0  0  0  0  0  0
   24.9181  -20.2037  -14.2599 N   0  0  0  0  0  0  0  0  0  0  0  0
   22.6834  -19.7053  -14.9331 C   0  0  0  0  0  0  0  0  0  0  0  0
   22.3822  -19.9468  -13.7158 O   0  0  0  0  0  0  0  0  0  0  0  0
   21.9477  -12.6600  -16.4994 O   0  0  0  0  0  0  0  0  0  0  0  0
   21.3993  -13.9400  -16.4370 C   0  0  0  0  0  0  0  0  0  0  0  0
   20.1978  -14.1632  -15.7899 C   0  0  0  0  0  0  0  0  0  0  0  0
   19.6441  -15.4240  -15.7206 C   0  0  0  0  0  0  0  0  0  0  0  0
   20.2558  -16.5136  -16.2879 C   0  0  0  0  0  0  0  0  0  0  0  0
   19.6668  -17.8706  -16.2179 C   0  0  0  0  0  0  0  0  0  0  0  0
   20.3712  -18.7400  -15.1710 C   0  0  2  0  0  0  0  0  0  0  0  0
   21.6750  -19.1034  -15.7206 N   0  0  0  0  0  0  0  0  0  0  0  0
   19.5727  -19.9586  -14.9569 C   0  0  0  0  0  0  0  0  0  0  0  0
   19.8087  -20.9824  -15.6605 O   0  0  0  0  0  0  0  0  0  0  0  0
   21.4720  -16.3052  -16.9463 C   0  0  0  0  0  0  0  0  0  0  0  0
   22.0060  -15.0373  -17.0028 C   0  0  0  0  0  0  0  0  0  0  0  0
   18.5732  -19.9850  -13.9956 O   0  0  0  0  0  0  0  0  0  0  0  0
  2  1  1  6
  2 10  1  0
  3  2  1  0
  3  4  1  0
  4  9  1  0
  4  5  2  0
  5  6  1  0
  7  6  2  0
  8  7  1  0
  9  8  2  0
 10 11  2  0
 13 12  1  1
 13 15  1  0
 14 13  1  0
 15 17  1  0
 15 16  1  1
 16 10  1  0
 17 26  1  0
 17 18  2  0
 19 20  1  0
 20 30  2  0
 20 21  1  0
 21 22  2  0
 22 23  1  0
 23 24  1  0
 25 24  1  6
 25 27  1  0
 26 25  1  0
 27 28  2  0
 27 31  1  0
 29 23  2  0
 30 29  1  0
M  END
$$$$
