FTY.pdb
     RDKit          3D

 31 32  0  0  1  0  0  0  0  0999 V2000
   24.5595  -18.4041  -16.8891 N   0  0  0  0  0  0  0  0  0  0  0  0
   24.5466  -18.5705  -15.4503 C   0  0  1  0  0  0  0  0  0  0  0  0
   25.4095  -17.4783  -14.8672 C   0  0  0  0  0  0  0  0  0  0  0  0
   26.7929  -17.7030  -15.3537 C   0  0  0  0  0  0  0  0  0  0  0  0
   27.4004  -16.7761  -16.1683 C   0  0  0  0  0  0  0  0  0  0  0  0
   28.6971  -16.9532  -16.6439 C   0  0  0  0  0  0  0  0  0  0  0  0
   29.4106  -18.0816  -16.3016 C   0  0  0  0  0  0  0  0  0  0  0  0
   28.7972  -19.0171  -15.4794 C   0  0  0  0  0  0  0  0  0  0  0  0
   27.5046  -18.8309  -15.0110 C   0  0  0  0  0  0  0  0  0  0  0  0
   23.1714  -18.5526  -14.9678 C   0  0  0  0  0  0  0  0  0  0  0  0
   22.4954  -17.4975  -15.0515 O   0  0  0  0  0  0  0  0  0  0  0  0
   20.4384  -18.5786  -16.2635 C   0  0  0  0  0  0  0  0  0  0  0  0
   20.2649  -19.7780  -15.3615 C   0  0  1  0  0  0  0  0  0  0  0  0
   20.6247  -20.9702  -15.9771 O   0  0  0  0  0  0  0  0  0  0  0  0
   21.0722  -19.6461  -14.0888 C   0  0  2  0  0  0  0  0  0  0  0  0
   22.5072  -19.6723  -14.3887 N   0  0  0  0  0  0  0  0  0  0  0  0
   20.7887  -20.7100  -13.0983 C   0  0  0  0  0  0  0  0  0  0  0  0
   21.5607  -21.7258  -13.0441 O   0  0  0  0  0  0  0  0  0  0  0  0
   17.5199  -25.1250   -6.1168 O   0  0  0  0  0  0  0  0  0  0  0  0
   17.8412  -24.1559   -7.0659 C   0  0  0  0  0  0  0  0  0  0  0  0
   16.8993  -23.7240   -7.9816 C   0  0  0  0  0  0  0  0  0  0  0  0
   17.2035  -22.7663   -8.9256 C   0  0  0  0  0  0  0  0  0  0  0  0
   18.4502  -22.1978   -9.0020 C   0  0  0  0  0  0  0  0  0  0  0  0
   18.7840  -21.1684  -10.0129 C   0  0  0  0  0  0  0  0  0  0  0  0
   19.4766  -21.7794  -11.2355 C   0  0  2  0  0  0  0  0  0  0  0  0
   19.7091  -20.6940  -12.1853 N   0  0  0  0  0  0  0  0  0  0  0  0
   18.5742  -22.7741  -11.8394 C   0  0  0  0  0  0  0  0  0  0  0  0
   17.6675  -22.3849  -12.6302 O   0  0  0  0  0  0  0  0  0  0  0  0
   19.4148  -22.6236   -8.0831 C   0  0  0  0  0  0  0  0  0  0  0  0
   19.0882  -23.5813   -7.1492 C   0  0  0  0  0  0  0  0  0  0  0  0
   18.7154  -24.1223  -11.5455 O   0  0  0  0  0  0  0  0  0  0  0  0
  2  1  1  6
  2 10  1  0
  3  2  1  0
  3  4  1  0
  4  9  1  0
  4  5  2  0
  5  6  1  0
  7  6  2  0
  8  7  1  0
  9  8  2  0
 10 11  2  0
 13 12  1  6
 13 15  1  0
 14 13  1  0
 15 17  1  0
 15 16  1  6
 16 10  1  0
 17 26  1  0
 17 18  2  0
 19 20  1  0
 20 30  2  0
 20 21  1  0
 21 22  2  0
 22 23  1  0
 23 24  1  0
 25 24  1  1
 25 27  1  0
 26 25  1  0
 27 28  2  0
 27 31  1  0
 29 23  2  0
 30 29  1  0
M  END
$$$$
