FTY.pdb
     RDKit          3D

 31 32  0  0  1  0  0  0  0  0999 V2000
   23.2897  -10.2563  -21.7873 N   0  0  0  0  0  0  0  0  0  0  0  0
   22.4147  -10.1263  -20.6404 C   0  0  1  0  0  0  0  0  0  0  0  0
   22.8152  -11.1929  -19.6506 C   0  0  0  0  0  0  0  0  0  0  0  0
   22.4007  -12.4990  -20.2190 C   0  0  0  0  0  0  0  0  0  0  0  0
   21.0894  -12.9062  -20.1363 C   0  0  0  0  0  0  0  0  0  0  0  0
   20.6639  -14.1251  -20.6581 C   0  0  0  0  0  0  0  0  0  0  0  0
   21.5647  -14.9630  -21.2792 C   0  0  0  0  0  0  0  0  0  0  0  0
   22.8882  -14.5519  -21.3626 C   0  0  0  0  0  0  0  0  0  0  0  0
   23.3017  -13.3353  -20.8393 C   0  0  0  0  0  0  0  0  0  0  0  0
   22.5007   -8.7714  -20.1101 C   0  0  0  0  0  0  0  0  0  0  0  0
   23.6176   -8.2023  -20.0328 O   0  0  0  0  0  0  0  0  0  0  0  0
   21.1963   -5.5233  -21.4006 C   0  0  0  0  0  0  0  0  0  0  0  0
   20.6654   -5.6989  -19.9972 C   0  0  1  0  0  0  0  0  0  0  0  0
   19.3645   -6.1857  -19.9714 O   0  0  0  0  0  0  0  0  0  0  0  0
   21.5310   -6.6333  -19.1811 C   0  0  2  0  0  0  0  0  0  0  0  0
   21.3835   -8.0126  -19.6562 N   0  0  0  0  0  0  0  0  0  0  0  0
   21.2218   -6.6090  -17.7329 C   0  0  0  0  0  0  0  0  0  0  0  0
   20.3491   -7.4202  -17.2734 O   0  0  0  0  0  0  0  0  0  0  0  0
   24.9792  -11.1135  -15.5447 O   0  0  0  0  0  0  0  0  0  0  0  0
   24.4395   -9.8484  -15.3181 C   0  0  0  0  0  0  0  0  0  0  0  0
   23.5248   -9.6421  -14.3017 C   0  0  0  0  0  0  0  0  0  0  0  0
   22.9831   -8.3962  -14.0665 C   0  0  0  0  0  0  0  0  0  0  0  0
   23.3239   -7.3054  -14.8262 C   0  0  0  0  0  0  0  0  0  0  0  0
   22.7467   -5.9642  -14.5792 C   0  0  0  0  0  0  0  0  0  0  0  0
   21.4589   -5.7460  -15.3805 C   0  0  2  0  0  0  0  0  0  0  0  0
   21.8274   -5.7422  -16.7941 N   0  0  0  0  0  0  0  0  0  0  0  0
   20.8953   -4.4348  -15.0175 C   0  0  0  0  0  0  0  0  0  0  0  0
   20.4211   -4.2668  -13.8575 O   0  0  0  0  0  0  0  0  0  0  0  0
   24.2480   -7.4968  -15.8586 C   0  0  0  0  0  0  0  0  0  0  0  0
   24.7757   -8.7501  -16.0749 C   0  0  0  0  0  0  0  0  0  0  0  0
   20.8838   -3.3953  -15.9358 O   0  0  0  0  0  0  0  0  0  0  0  0
  2  1  1  6
  2 10  1  0
  3  2  1  0
  3  4  1  0
  4  9  1  0
  4  5  2  0
  5  6  1  0
  7  6  2  0
  8  7  1  0
  9  8  2  0
 10 11  2  0
 13 12  1  6
 13 15  1  0
 14 13  1  0
 15 17  1  0
 15 16  1  6
 16 10  1  0
 17 26  1  0
 17 18  2  0
 19 20  1  0
 20 30  2  0
 20 21  1  0
 21 22  2  0
 22 23  1  0
 23 24  1  0
 25 24  1  1
 25 27  1  0
 26 25  1  0
 27 28  2  0
 27 31  1  0
 29 23  2  0
 30 29  1  0
M  END
$$$$
