FTY.pdb
     RDKit          3D

 31 32  0  0  1  0  0  0  0  0999 V2000
   21.6625    2.5530  -16.5865 N   0  0  0  0  0  0  0  0  0  0  0  0
   21.2093    2.1914  -15.2591 C   0  0  1  0  0  0  0  0  0  0  0  0
   22.2018    1.1993  -14.7038 C   0  0  0  0  0  0  0  0  0  0  0  0
   21.9573   -0.0961  -15.3843 C   0  0  0  0  0  0  0  0  0  0  0  0
   22.6408   -0.4147  -16.5345 C   0  0  0  0  0  0  0  0  0  0  0  0
   22.4375   -1.6207  -17.2002 C   0  0  0  0  0  0  0  0  0  0  0  0
   21.5306   -2.5359  -16.7108 C   0  0  0  0  0  0  0  0  0  0  0  0
   20.8407   -2.2140  -15.5497 C   0  0  0  0  0  0  0  0  0  0  0  0
   21.0509   -1.0094  -14.8942 C   0  0  0  0  0  0  0  0  0  0  0  0
   21.0638    3.3931  -14.4472 C   0  0  0  0  0  0  0  0  0  0  0  0
   21.8605    4.3512  -14.6040 O   0  0  0  0  0  0  0  0  0  0  0  0
   18.2904    6.3193  -11.5181 C   0  0  0  0  0  0  0  0  0  0  0  0
   18.4739    5.0356  -12.2931 C   0  0  1  0  0  0  0  0  0  0  0  0
   17.6635    4.9669  -13.4193 O   0  0  0  0  0  0  0  0  0  0  0  0
   19.9080    4.8461  -12.7361 C   0  0  2  0  0  0  0  0  0  0  0  0
   20.0573    3.5773  -13.4557 N   0  0  0  0  0  0  0  0  0  0  0  0
   20.8771    4.8578  -11.6162 C   0  0  0  0  0  0  0  0  0  0  0  0
   21.0000    3.8118  -10.8940 O   0  0  0  0  0  0  0  0  0  0  0  0
   27.1718    7.4123   -5.8719 O   0  0  0  0  0  0  0  0  0  0  0  0
   26.2682    7.3505   -6.9315 C   0  0  0  0  0  0  0  0  0  0  0  0
   25.0984    8.0874   -6.9064 C   0  0  0  0  0  0  0  0  0  0  0  0
   24.1959    8.0357   -7.9475 C   0  0  0  0  0  0  0  0  0  0  0  0
   24.4139    7.2541   -9.0542 C   0  0  0  0  0  0  0  0  0  0  0  0
   23.4495    7.1939  -10.1764 C   0  0  0  0  0  0  0  0  0  0  0  0
   22.5748    5.9379  -10.1041 C   0  0  2  0  0  0  0  0  0  0  0  0
   21.6979    5.9567  -11.2724 N   0  0  0  0  0  0  0  0  0  0  0  0
   21.7602    6.0015   -8.8790 C   0  0  0  0  0  0  0  0  0  0  0  0
   20.7893    6.8097   -8.8249 O   0  0  0  0  0  0  0  0  0  0  0  0
   25.5926    6.5022   -9.0955 C   0  0  0  0  0  0  0  0  0  0  0  0
   26.4792    6.5697   -8.0442 C   0  0  0  0  0  0  0  0  0  0  0  0
   22.0529    5.1854   -7.7963 O   0  0  0  0  0  0  0  0  0  0  0  0
  2  1  1  6
  2 10  1  0
  3  2  1  0
  3  4  1  0
  4  9  1  0
  4  5  2  0
  5  6  1  0
  7  6  2  0
  8  7  1  0
  9  8  2  0
 10 11  2  0
 13 12  1  6
 13 15  1  0
 14 13  1  0
 15 17  1  0
 15 16  1  1
 16 10  1  0
 17 26  1  0
 17 18  2  0
 19 20  1  0
 20 30  2  0
 20 21  1  0
 21 22  2  0
 22 23  1  0
 23 24  1  0
 25 24  1  6
 25 27  1  0
 26 25  1  0
 27 28  2  0
 27 31  1  0
 29 23  2  0
 30 29  1  0
M  END
$$$$
