FTY.pdb
     RDKit          3D

 31 32  0  0  1  0  0  0  0  0999 V2000
   28.3588  -21.6330  -13.8886 N   0  0  0  0  0  0  0  0  0  0  0  0
   27.2296  -21.1127  -13.1454 C   0  0  1  0  0  0  0  0  0  0  0  0
   27.7204  -19.9155  -12.3685 C   0  0  0  0  0  0  0  0  0  0  0  0
   28.1574  -20.4034  -11.0373 C   0  0  0  0  0  0  0  0  0  0  0  0
   29.4768  -20.7218  -10.8145 C   0  0  0  0  0  0  0  0  0  0  0  0
   29.9231  -21.1825   -9.5786 C   0  0  0  0  0  0  0  0  0  0  0  0
   29.0355  -21.3312   -8.5349 C   0  0  0  0  0  0  0  0  0  0  0  0
   27.7037  -21.0097   -8.7599 C   0  0  0  0  0  0  0  0  0  0  0  0
   27.2694  -20.5515   -9.9954 C   0  0  0  0  0  0  0  0  0  0  0  0
   26.1377  -20.8100  -14.0621 C   0  0  0  0  0  0  0  0  0  0  0  0
   26.3730  -20.1882  -15.1276 O   0  0  0  0  0  0  0  0  0  0  0  0
   24.3915  -22.8651  -16.2742 C   0  0  0  0  0  0  0  0  0  0  0  0
   23.2855  -22.2116  -15.4794 C   0  0  1  0  0  0  0  0  0  0  0  0
   22.7886  -23.0319  -14.4743 O   0  0  0  0  0  0  0  0  0  0  0  0
   23.7394  -20.9157  -14.8443 C   0  0  2  0  0  0  0  0  0  0  0  0
   24.7779  -21.1739  -13.8419 N   0  0  0  0  0  0  0  0  0  0  0  0
   22.6434  -20.1647  -14.1897 C   0  0  0  0  0  0  0  0  0  0  0  0
   22.4599  -20.3077  -12.9341 O   0  0  0  0  0  0  0  0  0  0  0  0
   15.9247  -14.5193  -12.7366 O   0  0  0  0  0  0  0  0  0  0  0  0
   17.0152  -15.2024  -13.2726 C   0  0  0  0  0  0  0  0  0  0  0  0
   16.8424  -16.1196  -14.2929 C   0  0  0  0  0  0  0  0  0  0  0  0
   17.9121  -16.8023  -14.8322 C   0  0  0  0  0  0  0  0  0  0  0  0
   19.1943  -16.6055  -14.3845 C   0  0  0  0  0  0  0  0  0  0  0  0
   20.3480  -17.3347  -14.9592 C   0  0  0  0  0  0  0  0  0  0  0  0
   20.6694  -18.6035  -14.1625 C   0  0  2  0  0  0  0  0  0  0  0  0
   21.7628  -19.2808  -14.8551 N   0  0  0  0  0  0  0  0  0  0  0  0
   19.4795  -19.4710  -14.1589 C   0  0  0  0  0  0  0  0  0  0  0  0
   18.6877  -19.4283  -13.1740 O   0  0  0  0  0  0  0  0  0  0  0  0
   19.3866  -15.6811  -13.3527 C   0  0  0  0  0  0  0  0  0  0  0  0
   18.3034  -15.0110  -12.8296 C   0  0  0  0  0  0  0  0  0  0  0  0
   19.2286  -20.3255  -15.2223 O   0  0  0  0  0  0  0  0  0  0  0  0
  2  1  1  6
  2 10  1  0
  3  2  1  0
  3  4  1  0
  4  9  1  0
  4  5  2  0
  5  6  1  0
  7  6  2  0
  8  7  1  0
  9  8  2  0
 10 11  2  0
 13 12  1  1
 13 15  1  0
 14 13  1  0
 15 17  1  0
 15 16  1  1
 16 10  1  0
 17 26  1  0
 17 18  2  0
 19 20  1  0
 20 30  2  0
 20 21  1  0
 21 22  2  0
 22 23  1  0
 23 24  1  0
 25 24  1  6
 25 27  1  0
 26 25  1  0
 27 28  2  0
 27 31  1  0
 29 23  2  0
 30 29  1  0
M  END
$$$$
