FTY.pdb
     RDKit          3D

 31 32  0  0  1  0  0  0  0  0999 V2000
   26.6658  -21.8950  -11.6997 N   0  0  0  0  0  0  0  0  0  0  0  0
   25.6544  -20.8586  -11.6653 C   0  0  1  0  0  0  0  0  0  0  0  0
   26.2950  -19.6300  -11.0674 C   0  0  0  0  0  0  0  0  0  0  0  0
   26.3350  -19.8254   -9.5973 C   0  0  0  0  0  0  0  0  0  0  0  0
   25.1862  -20.1369   -8.9079 C   0  0  0  0  0  0  0  0  0  0  0  0
   25.1855  -20.3275   -7.5285 C   0  0  0  0  0  0  0  0  0  0  0  0
   26.3574  -20.2056   -6.8135 C   0  0  0  0  0  0  0  0  0  0  0  0
   27.5168  -19.8912   -7.5095 C   0  0  0  0  0  0  0  0  0  0  0  0
   27.5065  -19.7033   -8.8841 C   0  0  0  0  0  0  0  0  0  0  0  0
   25.1220  -20.6495  -13.0059 C   0  0  0  0  0  0  0  0  0  0  0  0
   25.9087  -20.4562  -13.9656 O   0  0  0  0  0  0  0  0  0  0  0  0
   23.4820  -22.7409  -15.4924 C   0  0  0  0  0  0  0  0  0  0  0  0
   22.5388  -21.5872  -15.2448 C   0  0  1  0  0  0  0  0  0  0  0  0
   21.5104  -21.9118  -14.3691 O   0  0  0  0  0  0  0  0  0  0  0  0
   23.2613  -20.3789  -14.6909 C   0  0  2  0  0  0  0  0  0  0  0  0
   23.7343  -20.6460  -13.3290 N   0  0  0  0  0  0  0  0  0  0  0  0
   22.4254  -19.1567  -14.6572 C   0  0  0  0  0  0  0  0  0  0  0  0
   21.7552  -18.8951  -13.6022 O   0  0  0  0  0  0  0  0  0  0  0  0
   18.7721  -11.3204  -16.7193 O   0  0  0  0  0  0  0  0  0  0  0  0
   19.5248  -12.4937  -16.7342 C   0  0  0  0  0  0  0  0  0  0  0  0
   20.6029  -12.6524  -15.8831 C   0  0  0  0  0  0  0  0  0  0  0  0
   21.3559  -13.8074  -15.8872 C   0  0  0  0  0  0  0  0  0  0  0  0
   21.0731  -14.8508  -16.7326 C   0  0  0  0  0  0  0  0  0  0  0  0
   21.8770  -16.0945  -16.7424 C   0  0  0  0  0  0  0  0  0  0  0  0
   21.4324  -17.0644  -15.6425 C   0  0  2  0  0  0  0  0  0  0  0  0
   22.3054  -18.2330  -15.7211 N   0  0  0  0  0  0  0  0  0  0  0  0
   20.0426  -17.4722  -15.9083 C   0  0  0  0  0  0  0  0  0  0  0  0
   19.1040  -16.9211  -15.2647 O   0  0  0  0  0  0  0  0  0  0  0  0
   19.9856  -14.7065  -17.6002 C   0  0  0  0  0  0  0  0  0  0  0  0
   19.2480  -13.5440  -17.5783 C   0  0  0  0  0  0  0  0  0  0  0  0
   19.7644  -18.4490  -16.8530 O   0  0  0  0  0  0  0  0  0  0  0  0
  2  1  1  6
  2 10  1  0
  3  2  1  0
  3  4  1  0
  4  9  1  0
  4  5  2  0
  5  6  1  0
  7  6  2  0
  8  7  1  0
  9  8  2  0
 10 11  2  0
 13 12  1  1
 13 15  1  0
 14 13  1  0
 15 17  1  0
 15 16  1  1
 16 10  1  0
 17 26  1  0
 17 18  2  0
 19 20  1  0
 20 30  2  0
 20 21  1  0
 21 22  2  0
 22 23  1  0
 23 24  1  0
 25 24  1  6
 25 27  1  0
 26 25  1  0
 27 28  2  0
 27 31  1  0
 29 23  2  0
 30 29  1  0
M  END
$$$$
