FTY.pdb
     RDKit          3D

 31 32  0  0  1  0  0  0  0  0999 V2000
   20.9722  -14.3829  -20.0860 N   0  0  0  0  0  0  0  0  0  0  0  0
   20.1872  -13.5096  -19.2379 C   0  0  1  0  0  0  0  0  0  0  0  0
   20.2781  -14.0526  -17.8328 C   0  0  0  0  0  0  0  0  0  0  0  0
   19.4722  -15.2974  -17.7887 C   0  0  0  0  0  0  0  0  0  0  0  0
   18.0982  -15.2337  -17.7810 C   0  0  0  0  0  0  0  0  0  0  0  0
   17.3095  -16.3805  -17.7401 C   0  0  0  0  0  0  0  0  0  0  0  0
   17.9007  -17.6250  -17.7059 C   0  0  0  0  0  0  0  0  0  0  0  0
   19.2875  -17.6891  -17.7136 C   0  0  0  0  0  0  0  0  0  0  0  0
   20.0642  -16.5401  -17.7545 C   0  0  0  0  0  0  0  0  0  0  0  0
   20.6659  -12.1393  -19.3697 C   0  0  0  0  0  0  0  0  0  0  0  0
   21.8656  -11.9249  -19.6730 O   0  0  0  0  0  0  0  0  0  0  0  0
   19.4552   -9.6853  -21.8666 C   0  0  0  0  0  0  0  0  0  0  0  0
   19.4074   -8.9917  -20.5254 C   0  0  1  0  0  0  0  0  0  0  0  0
   18.1313   -8.9693  -19.9768 O   0  0  0  0  0  0  0  0  0  0  0  0
   20.3364   -9.6408  -19.5231 C   0  0  2  0  0  0  0  0  0  0  0  0
   19.8572  -10.9824  -19.1761 N   0  0  0  0  0  0  0  0  0  0  0  0
   20.4853   -8.8658  -18.2698 C   0  0  0  0  0  0  0  0  0  0  0  0
   19.7234   -9.1367  -17.2814 O   0  0  0  0  0  0  0  0  0  0  0  0
   22.3191   -1.8307  -13.1513 O   0  0  0  0  0  0  0  0  0  0  0  0
   22.3864   -2.8509  -14.0988 C   0  0  0  0  0  0  0  0  0  0  0  0
   22.7152   -4.1411  -13.7257 C   0  0  0  0  0  0  0  0  0  0  0  0
   22.7854   -5.1597  -14.6523 C   0  0  0  0  0  0  0  0  0  0  0  0
   22.5335   -4.9433  -15.9838 C   0  0  0  0  0  0  0  0  0  0  0  0
   22.6064   -6.0324  -16.9846 C   0  0  0  0  0  0  0  0  0  0  0  0
   21.4009   -6.9732  -16.8862 C   0  0  2  0  0  0  0  0  0  0  0  0
   21.4236   -7.8268  -18.0715 N   0  0  0  0  0  0  0  0  0  0  0  0
   20.1708   -6.1637  -16.8888 C   0  0  0  0  0  0  0  0  0  0  0  0
   19.7163   -5.7355  -17.9883 O   0  0  0  0  0  0  0  0  0  0  0  0
   22.1995   -3.6437  -16.3781 C   0  0  0  0  0  0  0  0  0  0  0  0
   22.1354   -2.6424  -15.4351 C   0  0  0  0  0  0  0  0  0  0  0  0
   19.5170   -5.8733  -15.7005 O   0  0  0  0  0  0  0  0  0  0  0  0
  2  1  1  6
  2 10  1  0
  3  2  1  0
  3  4  1  0
  4  9  1  0
  4  5  2  0
  5  6  1  0
  7  6  2  0
  8  7  1  0
  9  8  2  0
 10 11  2  0
 13 12  1  6
 13 15  1  0
 14 13  1  0
 15 17  1  0
 15 16  1  1
 16 10  1  0
 17 26  1  0
 17 18  2  0
 19 20  1  0
 20 30  2  0
 20 21  1  0
 21 22  2  0
 22 23  1  0
 23 24  1  0
 25 24  1  6
 25 27  1  0
 26 25  1  0
 27 28  2  0
 27 31  1  0
 29 23  2  0
 30 29  1  0
M  END
$$$$
