RVG.pdb
     RDKit          3D

 23 22  0  0  1  0  0  0  0  0999 V2000
    8.1848  -15.2209   16.8333 N   0  0  0  0  0  0  0  0  0  0  0  0
    8.1103  -13.8093   16.8829 C   0  0  0  0  0  0  0  0  0  0  0  0
    8.5588  -13.0436   15.9205 N   0  0  0  0  0  0  0  0  0  0  0  0
    7.5395  -13.1193   17.9885 N   0  0  0  0  0  0  0  0  0  0  0  0
    6.9042  -13.8316   19.0788 C   0  0  0  0  0  0  0  0  0  0  0  0
    7.9815  -14.3343   19.9996 C   0  0  0  0  0  0  0  0  0  0  0  0
    7.4397  -15.1444   21.1497 C   0  0  0  0  0  0  0  0  0  0  0  0
    8.5300  -15.5728   22.1067 C   0  0  2  0  0  0  0  0  0  0  0  0
    8.1230  -16.8835   22.6288 N   0  0  0  0  0  0  0  0  0  0  0  0
    8.5344  -14.5784   23.2423 C   0  0  0  0  0  0  0  0  0  0  0  0
    8.4327  -13.3480   23.0107 O   0  0  0  0  0  0  0  0  0  0  0  0
    8.4327  -12.0207   16.0562 C   0  0  0  0  0  0  0  0  0  0  0  0
    6.5463  -13.0952   26.8792 C   0  0  1  0  0  0  0  0  0  0  0  0
    7.1171  -13.5005   25.5631 C   0  0  0  0  0  0  0  0  0  0  0  0
    7.4026  -12.2766   24.6880 C   0  0  1  0  0  0  0  0  0  0  0  0
    8.4530  -14.1776   25.7544 N   0  0  0  0  0  0  0  0  0  0  0  0
    8.6518  -15.0115   24.5708 C   0  0  0  0  0  0  0  0  0  0  0  0
    8.5892  -14.9601   26.9838 O   0  0  0  0  0  0  0  0  0  0  0  0
    8.9555  -14.3283   28.0395 N   0  0  0  0  0  0  0  0  0  0  0  0
    8.3643  -16.3338   27.1638 C   0  0  0  0  0  0  0  0  0  0  0  0
    9.3512  -17.3541   26.8523 C   0  0  0  0  0  0  0  0  0  0  0  0
   10.1682  -17.5854   28.0674 O   0  0  0  0  0  0  0  0  0  0  0  0
   10.0755  -16.8550   29.0924 O   0  0  0  0  0  0  0  0  0  0  0  0
  2  1  1  0
  2  4  1  0
  3  2  2  0
  5  4  1  0
  6  5  1  0
  7  6  1  0
  7  8  1  0
  8  9  1  1
  8 10  1  0
 10 11  2  0
 13 14  1  1
 13 15  1  0
 13 12  1  0
 16 10  1  0
 15 16  1  6
 17 15  1  0
 17 18  2  0
 19 20  1  0
 19 17  1  0
 20 21  1  0
 21 22  2  0
 21 23  1  0
M  END
$$$$
