RVG.pdb
     RDKit          3D

 23 22  0  0  1  0  0  0  0  0999 V2000
    9.0419  -12.4871   18.6066 N   0  0  0  0  0  0  0  0  0  0  0  0
    8.3384  -13.4189   17.8082 C   0  0  0  0  0  0  0  0  0  0  0  0
    8.0182  -13.1817   16.5613 N   0  0  0  0  0  0  0  0  0  0  0  0
    7.9275  -14.6862   18.3076 N   0  0  0  0  0  0  0  0  0  0  0  0
    8.3201  -15.1439   19.6252 C   0  0  0  0  0  0  0  0  0  0  0  0
    7.6992  -14.2272   20.6427 C   0  0  0  0  0  0  0  0  0  0  0  0
    6.6529  -14.9098   21.4865 C   0  0  0  0  0  0  0  0  0  0  0  0
    7.2670  -15.7463   22.5871 C   0  0  2  0  0  0  0  0  0  0  0  0
    6.2176  -16.6735   23.0289 N   0  0  0  0  0  0  0  0  0  0  0  0
    7.5943  -14.8073   23.7228 C   0  0  0  0  0  0  0  0  0  0  0  0
    7.1664  -13.6263   23.7150 O   0  0  0  0  0  0  0  0  0  0  0  0
    7.6036  -13.9785   16.0382 C   0  0  0  0  0  0  0  0  0  0  0  0
    7.8588  -12.9182   27.6413 C   0  0  2  0  0  0  0  0  0  0  0  0
    7.5854  -13.6444   26.3684 C   0  0  0  0  0  0  0  0  0  0  0  0
    7.2761  -12.6646   25.2328 C   0  0  1  0  0  0  0  0  0  0  0  0
    8.8118  -14.4030   25.9211 N   0  0  0  0  0  0  0  0  0  0  0  0
    8.3794  -15.2377   24.8019 C   0  0  0  0  0  0  0  0  0  0  0  0
    9.4673  -15.2026   26.9571 O   0  0  0  0  0  0  0  0  0  0  0  0
    8.7083  -15.8954   27.7264 N   0  0  0  0  0  0  0  0  0  0  0  0
   10.8410  -15.3160   27.2220 C   0  0  0  0  0  0  0  0  0  0  0  0
   11.5628  -16.5765   27.1803 C   0  0  0  0  0  0  0  0  0  0  0  0
   11.2831  -17.3050   28.4407 O   0  0  0  0  0  0  0  0  0  0  0  0
   11.8144  -18.4176   28.7096 O   0  0  0  0  0  0  0  0  0  0  0  0
  2  1  1  0
  2  4  1  0
  3  2  2  0
  5  4  1  0
  6  5  1  0
  7  6  1  0
  7  8  1  0
  8  9  1  1
  8 10  1  0
 10 11  2  0
 13 14  1  6
 13 15  1  0
 13 12  1  0
 16 10  1  0
 15 16  1  1
 17 15  1  0
 17 18  2  0
 19 20  1  0
 19 17  1  0
 20 21  1  0
 21 22  2  0
 21 23  1  0
M  END
$$$$
