RVG.pdb
     RDKit          3D

 23 22  0  0  1  0  0  0  0  0999 V2000
    5.9039  -17.5982   18.1191 N   0  0  0  0  0  0  0  0  0  0  0  0
    5.5296  -18.8660   18.6222 C   0  0  0  0  0  0  0  0  0  0  0  0
    4.4952  -19.5287   18.1699 N   0  0  0  0  0  0  0  0  0  0  0  0
    6.2555  -19.5132   19.6608 N   0  0  0  0  0  0  0  0  0  0  0  0
    6.5520  -18.8404   20.9095 C   0  0  0  0  0  0  0  0  0  0  0  0
    7.5014  -17.7113   20.6182 C   0  0  0  0  0  0  0  0  0  0  0  0
    8.0119  -17.0370   21.8661 C   0  0  0  0  0  0  0  0  0  0  0  0
    7.7624  -15.5451   21.8487 C   0  0  2  0  0  0  0  0  0  0  0  0
    8.5525  -15.0123   20.7315 N   0  0  0  0  0  0  0  0  0  0  0  0
    8.3140  -14.9917   23.1403 C   0  0  0  0  0  0  0  0  0  0  0  0
    9.5540  -14.9510   23.3366 O   0  0  0  0  0  0  0  0  0  0  0  0
    4.3295  -20.4615   18.5977 C   0  0  0  0  0  0  0  0  0  0  0  0
    7.2242  -12.6395   27.3276 C   0  0  2  0  0  0  0  0  0  0  0  0
    6.8373  -13.1616   25.9859 C   0  0  0  0  0  0  0  0  0  0  0  0
    6.8535  -12.0459   24.9370 C   0  0  1  0  0  0  0  0  0  0  0  0
    7.8448  -14.1785   25.5060 N   0  0  0  0  0  0  0  0  0  0  0  0
    7.4527  -14.5154   24.1390 C   0  0  0  0  0  0  0  0  0  0  0  0
    7.9675  -15.3791   26.3341 O   0  0  0  0  0  0  0  0  0  0  0  0
    6.8795  -15.9811   26.6530 N   0  0  0  0  0  0  0  0  0  0  0  0
    9.1392  -15.9709   26.8308 C   0  0  0  0  0  0  0  0  0  0  0  0
    9.1457  -17.1804   27.6364 C   0  0  0  0  0  0  0  0  0  0  0  0
   10.1211  -16.9912   28.7365 O   0  0  0  0  0  0  0  0  0  0  0  0
   10.7670  -15.9179   28.8890 O   0  0  0  0  0  0  0  0  0  0  0  0
  2  1  1  0
  2  4  1  0
  3  2  2  0
  5  4  1  0
  6  5  1  0
  7  6  1  0
  7  8  1  0
  8  9  1  6
  8 10  1  0
 10 11  2  0
 13 14  1  6
 13 15  1  0
 13 12  1  0
 16 10  1  0
 15 16  1  1
 17 15  1  0
 17 18  2  0
 19 20  1  0
 19 17  1  0
 20 21  1  0
 21 22  2  0
 21 23  1  0
M  END
$$$$
