RVG.pdb
     RDKit          3D

 23 22  0  0  1  0  0  0  0  0999 V2000
    9.2594  -12.8876   19.0195 N   0  0  0  0  0  0  0  0  0  0  0  0
    8.3946  -13.5455   18.1141 C   0  0  0  0  0  0  0  0  0  0  0  0
    7.8263  -12.9320   17.1070 N   0  0  0  0  0  0  0  0  0  0  0  0
    8.0804  -14.9278   18.2354 N   0  0  0  0  0  0  0  0  0  0  0  0
    7.6973  -15.5080   19.5068 C   0  0  0  0  0  0  0  0  0  0  0  0
    8.6433  -14.9968   20.5579 C   0  0  0  0  0  0  0  0  0  0  0  0
    8.7838  -15.9368   21.7282 C   0  0  0  0  0  0  0  0  0  0  0  0
    7.6563  -15.7772   22.7240 C   0  0  2  0  0  0  0  0  0  0  0  0
    6.4820  -15.3600   21.9475 N   0  0  0  0  0  0  0  0  0  0  0  0
    8.0467  -14.6543   23.6543 C   0  0  0  0  0  0  0  0  0  0  0  0
    8.1298  -13.4754   23.2284 O   0  0  0  0  0  0  0  0  0  0  0  0
    7.1666  -13.5015   16.5404 C   0  0  0  0  0  0  0  0  0  0  0  0
    7.5562  -12.2885   24.4737 C   0  0  2  0  0  0  0  0  0  0  0  0
    7.5434  -12.8383   25.8594 C   0  0  0  0  0  0  0  0  0  0  0  0
    6.2201  -13.5498   26.1557 C   0  0  2  0  0  0  0  0  0  0  0  0
    8.6110  -13.8943   26.0169 N   0  0  0  0  0  0  0  0  0  0  0  0
    8.3220  -14.9088   25.0053 C   0  0  0  0  0  0  0  0  0  0  0  0
    8.7134  -14.4887   27.3505 O   0  0  0  0  0  0  0  0  0  0  0  0
    7.9840  -13.9769   28.2745 N   0  0  0  0  0  0  0  0  0  0  0  0
    9.5157  -15.5659   27.7577 C   0  0  0  0  0  0  0  0  0  0  0  0
    9.4537  -16.1531   29.0856 C   0  0  0  0  0  0  0  0  0  0  0  0
   10.4216  -17.2748   29.1347 O   0  0  0  0  0  0  0  0  0  0  0  0
   11.0022  -17.7111   28.1027 O   0  0  0  0  0  0  0  0  0  0  0  0
  2  1  1  0
  2  4  1  0
  3  2  2  0
  5  4  1  0
  6  5  1  0
  7  6  1  0
  7  8  1  0
  8  9  1  6
  8 10  1  0
 10 11  2  0
 13 14  1  6
 13 15  1  0
 13 12  1  0
 16 10  1  0
 15 16  1  1
 17 15  1  0
 17 18  2  0
 19 20  1  0
 19 17  1  0
 20 21  1  0
 21 22  2  0
 21 23  1  0
M  END
$$$$
