RVG.pdb
     RDKit          3D

 23 22  0  0  1  0  0  0  0  0999 V2000
    8.2523  -19.7636   13.9771 N   0  0  0  0  0  0  0  0  0  0  0  0
    7.5461  -20.8676   14.5091 C   0  0  0  0  0  0  0  0  0  0  0  0
    6.7827  -21.6380   13.7760 N   0  0  0  0  0  0  0  0  0  0  0  0
    7.6168  -21.2199   15.8858 N   0  0  0  0  0  0  0  0  0  0  0  0
    8.3637  -20.4188   16.8345 C   0  0  0  0  0  0  0  0  0  0  0  0
    8.0561  -18.9711   16.5681 C   0  0  0  0  0  0  0  0  0  0  0  0
    8.7780  -18.0359   17.5046 C   0  0  0  0  0  0  0  0  0  0  0  0
    8.4511  -16.5859   17.2235 C   0  0  2  0  0  0  0  0  0  0  0  0
    9.0140  -16.2898   15.9000 N   0  0  0  0  0  0  0  0  0  0  0  0
    9.1812  -15.7621   18.2565 C   0  0  0  0  0  0  0  0  0  0  0  0
   10.4144  -15.5505   18.1455 O   0  0  0  0  0  0  0  0  0  0  0  0
    6.2657  -22.3831   14.2842 C   0  0  0  0  0  0  0  0  0  0  0  0
    7.8020  -12.5398   19.4309 C   0  0  2  0  0  0  0  0  0  0  0  0
    8.0996  -13.2964   20.6805 C   0  0  0  0  0  0  0  0  0  0  0  0
    6.8459  -14.0001   21.2082 C   0  0  2  0  0  0  0  0  0  0  0  0
    9.0929  -14.3994   20.4044 N   0  0  0  0  0  0  0  0  0  0  0  0
    8.4958  -15.2214   19.3537 C   0  0  0  0  0  0  0  0  0  0  0  0
    9.4681  -15.2103   21.5637 O   0  0  0  0  0  0  0  0  0  0  0  0
    8.8106  -16.2964   21.7530 N   0  0  0  0  0  0  0  0  0  0  0  0
   10.4725  -14.9534   22.5099 C   0  0  0  0  0  0  0  0  0  0  0  0
   10.7219  -15.8020   23.6629 C   0  0  0  0  0  0  0  0  0  0  0  0
   12.1157  -16.2987   23.5716 O   0  0  0  0  0  0  0  0  0  0  0  0
   12.7220  -16.4099   22.4705 O   0  0  0  0  0  0  0  0  0  0  0  0
  2  1  1  0
  2  4  1  0
  3  2  2  0
  5  4  1  0
  6  5  1  0
  7  6  1  0
  7  8  1  0
  8  9  1  6
  8 10  1  0
 10 11  2  0
 13 14  1  6
 13 15  1  0
 13 12  1  0
 16 10  1  0
 15 16  1  1
 17 15  1  0
 17 18  2  0
 19 20  1  0
 19 17  1  0
 20 21  1  0
 21 22  2  0
 21 23  1  0
M  END
$$$$
