RVG.pdb
     RDKit          3D

 23 22  0  0  1  0  0  0  0  0999 V2000
    6.0952  -18.5634   17.2622 N   0  0  0  0  0  0  0  0  0  0  0  0
    7.4162  -18.0829   17.1048 C   0  0  0  0  0  0  0  0  0  0  0  0
    8.0137  -18.0259   15.9415 N   0  0  0  0  0  0  0  0  0  0  0  0
    8.1920  -17.6253   18.2063 N   0  0  0  0  0  0  0  0  0  0  0  0
    7.6830  -17.6732   19.5621 C   0  0  0  0  0  0  0  0  0  0  0  0
    7.1863  -16.3007   19.9238 C   0  0  0  0  0  0  0  0  0  0  0  0
    7.9533  -15.6806   21.0639 C   0  0  0  0  0  0  0  0  0  0  0  0
    7.4115  -14.3191   21.4394 C   0  0  2  0  0  0  0  0  0  0  0  0
    7.8342  -13.4032   20.3724 N   0  0  0  0  0  0  0  0  0  0  0  0
    8.0922  -13.9139   22.7244 C   0  0  0  0  0  0  0  0  0  0  0  0
    9.2681  -13.4726   22.7094 O   0  0  0  0  0  0  0  0  0  0  0  0
    9.0024  -17.7051   15.9526 C   0  0  0  0  0  0  0  0  0  0  0  0
    7.5336  -12.5798   27.3671 C   0  0  2  0  0  0  0  0  0  0  0  0
    7.0101  -12.9325   26.0166 C   0  0  0  0  0  0  0  0  0  0  0  0
    6.8053  -11.6782   25.1621 C   0  0  1  0  0  0  0  0  0  0  0  0
    8.0157  -13.7708   25.2644 N   0  0  0  0  0  0  0  0  0  0  0  0
    7.4239  -14.0235   23.9522 C   0  0  0  0  0  0  0  0  0  0  0  0
    8.4065  -15.0198   25.9198 O   0  0  0  0  0  0  0  0  0  0  0  0
    7.4680  -15.8494   26.2005 N   0  0  0  0  0  0  0  0  0  0  0  0
    9.6956  -15.4384   26.2845 C   0  0  0  0  0  0  0  0  0  0  0  0
    9.9867  -16.7559   26.8242 C   0  0  0  0  0  0  0  0  0  0  0  0
   10.1941  -16.6153   28.2853 O   0  0  0  0  0  0  0  0  0  0  0  0
   10.1269  -15.5004   28.8725 O   0  0  0  0  0  0  0  0  0  0  0  0
  2  1  1  0
  2  4  1  0
  3  2  2  0
  5  4  1  0
  6  5  1  0
  7  6  1  0
  7  8  1  0
  8  9  1  6
  8 10  1  0
 10 11  2  0
 13 14  1  6
 13 15  1  0
 13 12  1  0
 16 10  1  0
 15 16  1  1
 17 15  1  0
 17 18  2  0
 19 20  1  0
 19 17  1  0
 20 21  1  0
 21 22  2  0
 21 23  1  0
M  END
$$$$
