RVG.pdb
     RDKit          3D

 23 22  0  0  1  0  0  0  0  0999 V2000
    8.3995  -13.0459   15.7757 N   0  0  0  0  0  0  0  0  0  0  0  0
    8.0534  -13.8246   16.9046 C   0  0  0  0  0  0  0  0  0  0  0  0
    8.2312  -15.1207   16.9507 N   0  0  0  0  0  0  0  0  0  0  0  0
    7.4848  -13.2501   18.0755 N   0  0  0  0  0  0  0  0  0  0  0  0
    6.9988  -14.0745   19.1635 C   0  0  0  0  0  0  0  0  0  0  0  0
    8.1823  -14.7371   19.8127 C   0  0  0  0  0  0  0  0  0  0  0  0
    8.5179  -14.1497   21.1599 C   0  0  0  0  0  0  0  0  0  0  0  0
    8.6084  -15.2094   22.2356 C   0  0  2  0  0  0  0  0  0  0  0  0
    7.2646  -15.7902   22.3504 N   0  0  0  0  0  0  0  0  0  0  0  0
    8.9420  -14.4998   23.5254 C   0  0  0  0  0  0  0  0  0  0  0  0
   10.0294  -13.8832   23.6493 O   0  0  0  0  0  0  0  0  0  0  0  0
    7.9248  -15.5915   17.8254 C   0  0  0  0  0  0  0  0  0  0  0  0
    6.8156  -12.6872   27.5785 C   0  0  2  0  0  0  0  0  0  0  0  0
    6.8122  -13.2925   26.2161 C   0  0  0  0  0  0  0  0  0  0  0  0
    6.4366  -12.2542   25.1549 C   0  0  1  0  0  0  0  0  0  0  0  0
    8.1982  -13.7624   25.8451 N   0  0  0  0  0  0  0  0  0  0  0  0
    8.0453  -14.5176   24.6032 C   0  0  0  0  0  0  0  0  0  0  0  0
    8.8864  -14.5538   26.8661 O   0  0  0  0  0  0  0  0  0  0  0  0
    9.1792  -13.9592   27.9654 N   0  0  0  0  0  0  0  0  0  0  0  0
    9.2716  -15.9019   26.8011 C   0  0  0  0  0  0  0  0  0  0  0  0
    9.9287  -16.6003   27.8930 C   0  0  0  0  0  0  0  0  0  0  0  0
   10.1686  -17.9983   27.4624 O   0  0  0  0  0  0  0  0  0  0  0  0
    9.8426  -18.4176   26.3177 O   0  0  0  0  0  0  0  0  0  0  0  0
  2  1  1  0
  2  4  1  0
  3  2  2  0
  5  4  1  0
  6  5  1  0
  7  6  1  0
  7  8  1  0
  8  9  1  1
  8 10  1  0
 10 11  2  0
 13 14  1  6
 13 15  1  0
 13 12  1  0
 16 10  1  0
 15 16  1  1
 17 15  1  0
 17 18  2  0
 19 20  1  0
 19 17  1  0
 20 21  1  0
 21 22  2  0
 21 23  1  0
M  END
$$$$
