RVG.pdb
     RDKit          3D

 23 22  0  0  1  0  0  0  0  0999 V2000
    8.5560  -15.2123   16.9290 N   0  0  0  0  0  0  0  0  0  0  0  0
    8.1448  -13.9265   16.5069 C   0  0  0  0  0  0  0  0  0  0  0  0
    8.2783  -13.5114   15.2727 N   0  0  0  0  0  0  0  0  0  0  0  0
    7.5539  -12.9893   17.3997 N   0  0  0  0  0  0  0  0  0  0  0  0
    7.0522  -13.3932   18.6977 C   0  0  0  0  0  0  0  0  0  0  0  0
    8.0844  -14.2752   19.3441 C   0  0  0  0  0  0  0  0  0  0  0  0
    8.3106  -13.9457   20.7977 C   0  0  0  0  0  0  0  0  0  0  0  0
    8.2801  -15.1800   21.6717 C   0  0  2  0  0  0  0  0  0  0  0  0
    6.9018  -15.6834   21.6190 N   0  0  0  0  0  0  0  0  0  0  0  0
    8.5781  -14.7286   23.0810 C   0  0  0  0  0  0  0  0  0  0  0  0
    9.7017  -14.2473   23.3705 O   0  0  0  0  0  0  0  0  0  0  0  0
    7.9752  -12.5348   15.0854 C   0  0  0  0  0  0  0  0  0  0  0  0
    6.8054  -13.1861   27.3072 C   0  0  2  0  0  0  0  0  0  0  0  0
    6.7612  -13.4984   25.8502 C   0  0  0  0  0  0  0  0  0  0  0  0
    7.1036  -12.2626   25.0129 C   0  0  1  0  0  0  0  0  0  0  0  0
    7.8117  -14.5245   25.4994 N   0  0  0  0  0  0  0  0  0  0  0  0
    7.6075  -14.8391   24.0869 C   0  0  0  0  0  0  0  0  0  0  0  0
    7.8029  -15.7368   26.3197 O   0  0  0  0  0  0  0  0  0  0  0  0
    6.6871  -16.3630   26.4227 N   0  0  0  0  0  0  0  0  0  0  0  0
    8.8740  -16.3164   27.0174 C   0  0  0  0  0  0  0  0  0  0  0  0
    8.7452  -17.5140   27.8305 C   0  0  0  0  0  0  0  0  0  0  0  0
   10.0676  -17.7988   28.4369 O   0  0  0  0  0  0  0  0  0  0  0  0
   11.1038  -17.1451   28.1346 O   0  0  0  0  0  0  0  0  0  0  0  0
  2  1  1  0
  2  4  1  0
  3  2  2  0
  5  4  1  0
  6  5  1  0
  7  6  1  0
  7  8  1  0
  8  9  1  1
  8 10  1  0
 10 11  2  0
 13 14  1  1
 13 15  1  0
 13 12  1  0
 16 10  1  0
 15 16  1  6
 17 15  1  0
 17 18  2  0
 19 20  1  0
 19 17  1  0
 20 21  1  0
 21 22  2  0
 21 23  1  0
M  END
$$$$
