RVG.pdb
     RDKit          3D

 23 22  0  0  1  0  0  0  0  0999 V2000
    6.1767  -14.9451   16.5757 N   0  0  0  0  0  0  0  0  0  0  0  0
    7.5705  -15.1345   16.4269 C   0  0  0  0  0  0  0  0  0  0  0  0
    8.3210  -14.3315   15.7160 N   0  0  0  0  0  0  0  0  0  0  0  0
    8.2578  -16.2172   17.0433 N   0  0  0  0  0  0  0  0  0  0  0  0
    8.5885  -16.1986   18.4540 C   0  0  0  0  0  0  0  0  0  0  0  0
    8.1953  -14.8574   19.0087 C   0  0  0  0  0  0  0  0  0  0  0  0
    8.5183  -14.7106   20.4739 C   0  0  0  0  0  0  0  0  0  0  0  0
    7.9548  -13.4328   21.0550 C   0  0  2  0  0  0  0  0  0  0  0  0
    8.6157  -12.3333   20.3406 N   0  0  0  0  0  0  0  0  0  0  0  0
    8.3707  -13.3882   22.5054 C   0  0  0  0  0  0  0  0  0  0  0  0
    9.5488  -13.0868   22.8202 O   0  0  0  0  0  0  0  0  0  0  0  0
    9.3393  -14.5406   15.7164 C   0  0  0  0  0  0  0  0  0  0  0  0
    6.8437  -12.9464   27.1044 C   0  0  2  0  0  0  0  0  0  0  0  0
    6.5830  -13.0677   25.6416 C   0  0  0  0  0  0  0  0  0  0  0  0
    6.4512  -11.6876   24.9910 C   0  0  1  0  0  0  0  0  0  0  0  0
    7.7528  -13.7269   24.9511 N   0  0  0  0  0  0  0  0  0  0  0  0
    7.4506  -13.6818   23.5219 C   0  0  0  0  0  0  0  0  0  0  0  0
    8.0509  -15.0918   25.3877 O   0  0  0  0  0  0  0  0  0  0  0  0
    7.0805  -15.9320   25.3783 N   0  0  0  0  0  0  0  0  0  0  0  0
    9.2808  -15.6123   25.8192 C   0  0  0  0  0  0  0  0  0  0  0  0
    9.5059  -17.0246   26.0777 C   0  0  0  0  0  0  0  0  0  0  0  0
    9.5865  -17.2130   27.5458 O   0  0  0  0  0  0  0  0  0  0  0  0
    9.3216  -16.2868   28.3609 O   0  0  0  0  0  0  0  0  0  0  0  0
  2  1  1  0
  2  4  1  0
  3  2  2  0
  5  4  1  0
  6  5  1  0
  7  6  1  0
  7  8  1  0
  8  9  1  6
  8 10  1  0
 10 11  2  0
 13 14  1  1
 13 15  1  0
 13 12  1  0
 16 10  1  0
 15 16  1  6
 17 15  1  0
 17 18  2  0
 19 20  1  0
 19 17  1  0
 20 21  1  0
 21 22  2  0
 21 23  1  0
M  END
$$$$
