RVG.pdb
     RDKit          3D

 23 22  0  0  1  0  0  0  0  0999 V2000
   10.9503  -19.6321   15.4711 N   0  0  0  0  0  0  0  0  0  0  0  0
   11.6988  -19.1057   14.3926 C   0  0  0  0  0  0  0  0  0  0  0  0
   11.3518  -19.2756   13.1419 N   0  0  0  0  0  0  0  0  0  0  0  0
   12.8879  -18.3505   14.5931 N   0  0  0  0  0  0  0  0  0  0  0  0
   12.9607  -17.3053   15.5941 C   0  0  0  0  0  0  0  0  0  0  0  0
   12.2257  -17.7780   16.8178 C   0  0  0  0  0  0  0  0  0  0  0  0
   12.3402  -16.8213   17.9773 C   0  0  0  0  0  0  0  0  0  0  0  0
   12.1021  -15.3878   17.5572 C   0  0  2  0  0  0  0  0  0  0  0  0
   13.4136  -14.8529   17.1698 N   0  0  0  0  0  0  0  0  0  0  0  0
   11.6173  -14.6459   18.7792 C   0  0  0  0  0  0  0  0  0  0  0  0
   12.4388  -14.1387   19.5828 O   0  0  0  0  0  0  0  0  0  0  0  0
   12.0052  -18.8894   12.4315 C   0  0  0  0  0  0  0  0  0  0  0  0
    7.4674  -12.9485   20.9002 C   0  0  1  0  0  0  0  0  0  0  0  0
    8.2841  -13.3722   19.7272 C   0  0  0  0  0  0  0  0  0  0  0  0
    8.5127  -12.2023   18.7657 C   0  0  1  0  0  0  0  0  0  0  0  0
    9.6616  -13.8014   20.1720 N   0  0  0  0  0  0  0  0  0  0  0  0
   10.2454  -14.5116   19.0359 C   0  0  0  0  0  0  0  0  0  0  0  0
    9.7027  -14.6177   21.3861 O   0  0  0  0  0  0  0  0  0  0  0  0
    9.3408  -14.0533   22.4807 N   0  0  0  0  0  0  0  0  0  0  0  0
   10.0891  -15.9612   21.5121 C   0  0  0  0  0  0  0  0  0  0  0  0
   10.0763  -16.6830   22.7734 C   0  0  0  0  0  0  0  0  0  0  0  0
   11.4282  -16.5793   23.3727 O   0  0  0  0  0  0  0  0  0  0  0  0
   12.3761  -15.9746   22.7998 O   0  0  0  0  0  0  0  0  0  0  0  0
  2  1  1  0
  2  4  1  0
  3  2  2  0
  5  4  1  0
  6  5  1  0
  7  6  1  0
  7  8  1  0
  8  9  1  1
  8 10  1  0
 10 11  2  0
 13 14  1  1
 13 15  1  0
 13 12  1  0
 16 10  1  0
 15 16  1  6
 17 15  1  0
 17 18  2  0
 19 20  1  0
 19 17  1  0
 20 21  1  0
 21 22  2  0
 21 23  1  0
M  END
$$$$
