RVG.pdb
     RDKit          3D

 23 22  0  0  1  0  0  0  0  0999 V2000
    8.1045  -11.9072   18.5491 N   0  0  0  0  0  0  0  0  0  0  0  0
    8.7326  -12.8651   19.3788 C   0  0  0  0  0  0  0  0  0  0  0  0
   10.0309  -12.9206   19.5368 N   0  0  0  0  0  0  0  0  0  0  0  0
    7.9929  -13.8405   20.1039 N   0  0  0  0  0  0  0  0  0  0  0  0
    6.6500  -14.2176   19.7113 C   0  0  0  0  0  0  0  0  0  0  0  0
    6.2168  -15.3700   20.5747 C   0  0  0  0  0  0  0  0  0  0  0  0
    7.3744  -16.0824   21.2268 C   0  0  0  0  0  0  0  0  0  0  0  0
    8.1635  -16.9098   20.2364 C   0  0  2  0  0  0  0  0  0  0  0  0
    7.2939  -18.0304   19.8565 N   0  0  0  0  0  0  0  0  0  0  0  0
    9.3622  -17.4546   20.9746 C   0  0  0  0  0  0  0  0  0  0  0  0
    9.3536  -18.6280   21.4229 O   0  0  0  0  0  0  0  0  0  0  0  0
   10.4179  -13.8477   19.8036 C   0  0  0  0  0  0  0  0  0  0  0  0
   14.0899  -16.4935   22.0931 C   0  0  1  0  0  0  0  0  0  0  0  0
   12.8199  -16.2042   21.3679 C   0  0  0  0  0  0  0  0  0  0  0  0
   12.9407  -16.5635   19.8841 C   0  0  1  0  0  0  0  0  0  0  0  0
   11.7012  -17.0673   21.9002 N   0  0  0  0  0  0  0  0  0  0  0  0
   10.5015  -16.6612   21.1711 C   0  0  0  0  0  0  0  0  0  0  0  0
   11.4912  -17.0000   23.3471 O   0  0  0  0  0  0  0  0  0  0  0  0
   10.9153  -15.9478   23.8043 N   0  0  0  0  0  0  0  0  0  0  0  0
   11.8394  -17.9532   24.3167 C   0  0  0  0  0  0  0  0  0  0  0  0
   11.5742  -17.7856   25.7356 C   0  0  0  0  0  0  0  0  0  0  0  0
   11.9917  -19.0280   26.4282 O   0  0  0  0  0  0  0  0  0  0  0  0
   12.4622  -20.0212   25.8080 O   0  0  0  0  0  0  0  0  0  0  0  0
  2  1  1  0
  2  4  1  0
  3  2  2  0
  5  4  1  0
  6  5  1  0
  7  6  1  0
  7  8  1  0
  8  9  1  1
  8 10  1  0
 10 11  2  0
 13 14  1  1
 13 15  1  0
 13 12  1  0
 16 10  1  0
 15 16  1  6
 17 15  1  0
 17 18  2  0
 19 20  1  0
 19 17  1  0
 20 21  1  0
 21 22  2  0
 21 23  1  0
M  END
$$$$
