RVG.pdb
     RDKit          3D

 23 22  0  0  1  0  0  0  0  0999 V2000
    6.7791  -21.6540   22.0424 N   0  0  0  0  0  0  0  0  0  0  0  0
    5.4277  -21.4541   22.4087 C   0  0  0  0  0  0  0  0  0  0  0  0
    4.4479  -22.1659   21.9118 N   0  0  0  0  0  0  0  0  0  0  0  0
    5.0368  -20.4597   23.3482 N   0  0  0  0  0  0  0  0  0  0  0  0
    6.0090  -19.5869   23.9749 C   0  0  0  0  0  0  0  0  0  0  0  0
    6.6224  -18.7261   22.9054 C   0  0  0  0  0  0  0  0  0  0  0  0
    7.5874  -17.7063   23.4544 C   0  0  0  0  0  0  0  0  0  0  0  0
    7.3256  -16.3219   22.9039 C   0  0  2  0  0  0  0  0  0  0  0  0
    8.0086  -16.2631   21.6054 N   0  0  0  0  0  0  0  0  0  0  0  0
    7.9857  -15.3425   23.8440 C   0  0  0  0  0  0  0  0  0  0  0  0
    9.2294  -15.1688   23.8108 O   0  0  0  0  0  0  0  0  0  0  0  0
    3.5062  -21.9883   22.3145 C   0  0  0  0  0  0  0  0  0  0  0  0
    6.9967  -12.0222   27.4048 C   0  0  1  0  0  0  0  0  0  0  0  0
    6.6129  -12.8408   26.2196 C   0  0  0  0  0  0  0  0  0  0  0  0
    6.3202  -11.9503   25.0085 C   0  0  1  0  0  0  0  0  0  0  0  0
    7.7600  -13.7273   25.7980 N   0  0  0  0  0  0  0  0  0  0  0  0
    7.2229  -14.6130   24.7669 C   0  0  0  0  0  0  0  0  0  0  0  0
    8.3925  -14.4897   26.8756 O   0  0  0  0  0  0  0  0  0  0  0  0
    9.0972  -13.8292   27.7212 N   0  0  0  0  0  0  0  0  0  0  0  0
    8.3253  -15.8716   27.1118 C   0  0  0  0  0  0  0  0  0  0  0  0
    8.8115  -16.5003   28.3285 C   0  0  0  0  0  0  0  0  0  0  0  0
   10.1648  -17.0398   28.0545 O   0  0  0  0  0  0  0  0  0  0  0  0
   10.7264  -16.9155   26.9313 O   0  0  0  0  0  0  0  0  0  0  0  0
  2  1  1  0
  2  4  1  0
  3  2  2  0
  5  4  1  0
  6  5  1  0
  7  6  1  0
  7  8  1  0
  8  9  1  6
  8 10  1  0
 10 11  2  0
 13 14  1  6
 13 15  1  0
 13 12  1  0
 16 10  1  0
 15 16  1  1
 17 15  1  0
 17 18  2  0
 19 20  1  0
 19 17  1  0
 20 21  1  0
 21 22  2  0
 21 23  1  0
M  END
$$$$
