RVG.pdb
     RDKit          3D

 23 22  0  0  1  0  0  0  0  0999 V2000
    5.2055  -19.2983   20.1129 N   0  0  0  0  0  0  0  0  0  0  0  0
    4.2094  -18.6105   20.8444 C   0  0  0  0  0  0  0  0  0  0  0  0
    2.9805  -19.0490   20.9499 N   0  0  0  0  0  0  0  0  0  0  0  0
    4.4751  -17.3871   21.5206 N   0  0  0  0  0  0  0  0  0  0  0  0
    5.2086  -16.3132   20.8815 C   0  0  0  0  0  0  0  0  0  0  0  0
    6.6741  -16.5302   21.1388 C   0  0  0  0  0  0  0  0  0  0  0  0
    7.5337  -15.4049   20.6217 C   0  0  0  0  0  0  0  0  0  0  0  0
    7.1143  -14.0647   21.1840 C   0  0  2  0  0  0  0  0  0  0  0  0
    7.6795  -13.0502   20.2854 N   0  0  0  0  0  0  0  0  0  0  0  0
    7.7679  -13.9316   22.5381 C   0  0  0  0  0  0  0  0  0  0  0  0
    9.0076  -13.7515   22.6309 O   0  0  0  0  0  0  0  0  0  0  0  0
    2.3216  -18.4365   21.4708 C   0  0  0  0  0  0  0  0  0  0  0  0
    7.1088  -12.8036   27.2166 C   0  0  1  0  0  0  0  0  0  0  0  0
    6.6006  -13.0285   25.8333 C   0  0  0  0  0  0  0  0  0  0  0  0
    6.5743  -11.7198   25.0383 C   0  0  1  0  0  0  0  0  0  0  0  0
    7.5314  -13.9418   25.0722 N   0  0  0  0  0  0  0  0  0  0  0  0
    7.0033  -14.0067   23.7110 C   0  0  0  0  0  0  0  0  0  0  0  0
    7.7002  -15.2801   25.6403 O   0  0  0  0  0  0  0  0  0  0  0  0
    6.6316  -15.9430   25.8983 N   0  0  0  0  0  0  0  0  0  0  0  0
    8.8980  -15.9467   25.9417 C   0  0  0  0  0  0  0  0  0  0  0  0
    8.9515  -17.3108   26.4399 C   0  0  0  0  0  0  0  0  0  0  0  0
    9.4846  -17.2716   27.8225 O   0  0  0  0  0  0  0  0  0  0  0  0
    9.8437  -16.1966   28.3774 O   0  0  0  0  0  0  0  0  0  0  0  0
  2  1  1  0
  2  4  1  0
  3  2  2  0
  5  4  1  0
  6  5  1  0
  7  6  1  0
  7  8  1  0
  8  9  1  6
  8 10  1  0
 10 11  2  0
 13 14  1  6
 13 15  1  0
 13 12  1  0
 16 10  1  0
 15 16  1  1
 17 15  1  0
 17 18  2  0
 19 20  1  0
 19 17  1  0
 20 21  1  0
 21 22  2  0
 21 23  1  0
M  END
$$$$
