ILD.pdb
     RDKit          3D

 25 24  0  0  1  0  0  0  0  0999 V2000
    7.0519  -13.0526   18.3830 C   0  0  0  0  0  0  0  0  0  0  0  0
    7.3304  -14.2041   19.3063 C   0  0  0  0  0  0  0  0  0  0  0  0
    7.9363  -13.8181   20.6173 C   0  0  2  0  0  0  0  0  0  0  0  0
    9.2182  -13.0608   20.3247 C   0  0  0  0  0  0  0  0  0  0  0  0
    8.1936  -15.0244   21.4861 C   0  0  2  0  0  0  0  0  0  0  0  0
    6.8895  -15.7211   21.6923 N   0  0  0  0  0  0  0  0  0  0  0  0
    8.6531  -14.6967   22.8531 C   0  0  0  0  0  0  0  0  0  0  0  0
    9.8500  -14.2707   23.0445 O   0  0  0  0  0  0  0  0  0  0  0  0
    7.7880  -11.5285   25.7855 C   0  0  0  0  0  0  0  0  0  0  0  0
    6.7447  -12.6555   25.6522 C   0  0  2  0  0  0  0  0  0  0  0  0
    5.5150  -12.1916   26.3498 C   0  0  0  0  0  0  0  0  0  0  0  0
    7.3310  -13.9174   26.1407 C   0  0  0  0  0  0  0  0  0  0  0  0
    8.4718  -14.4980   25.3730 C   0  0  2  0  0  0  0  0  0  0  0  0
    7.8933  -14.7988   24.0358 N   0  0  0  0  0  0  0  0  0  0  0  0
    9.0008  -15.7674   25.9285 C   0  0  0  0  0  0  0  0  0  0  0  0
    9.3715  -15.8034   27.1436 O   0  0  0  0  0  0  0  0  0  0  0  0
    9.1313  -16.9649   25.2195 N   0  0  0  0  0  0  0  0  0  0  0  0
    9.7491  -18.1653   25.8090 C   0  0  1  0  0  0  0  0  0  0  0  0
    9.0149  -19.3992   25.4239 C   0  0  0  0  0  0  0  0  0  0  0  0
    7.8373  -19.5788   26.2849 C   0  0  0  0  0  0  0  0  0  0  0  0
    7.5743  -18.8339   27.2530 O   0  0  0  0  0  0  0  0  0  0  0  0
   11.1510  -18.2495   25.3455 C   0  0  0  0  0  0  0  0  0  0  0  0
   11.6604  -17.4220   24.3743 O   0  0  0  0  0  0  0  0  0  0  0  0
    6.9744  -20.6240   26.0128 O   0  0  0  0  0  0  0  0  0  0  0  0
   11.9366  -19.1056   25.8403 O   0  0  0  0  0  0  0  0  0  0  0  0
  2  1  1  0
  3  2  1  0
  3  4  1  6
  3  5  1  0
  5  6  1  1
  7  8  2  0
  7  5  1  0
 10  9  1  1
 10 12  1  0
 11 10  1  0
 13 12  1  1
 13 14  1  0
 14  7  1  0
 15 13  1  0
 16 15  2  0
 17 15  1  0
 18 22  1  0
 18 17  1  0
 19 20  1  0
 18 19  1  6
 20 24  1  0
 21 20  2  0
 22 23  1  0
 25 22  2  0
M  END
$$$$
