ILD.pdb
     RDKit          3D

 25 24  0  0  1  0  0  0  0  0999 V2000
    7.1778  -12.4301   17.8622 C   0  0  0  0  0  0  0  0  0  0  0  0
    7.5403  -13.6910   18.5933 C   0  0  0  0  0  0  0  0  0  0  0  0
    7.9024  -13.4949   20.0304 C   0  0  2  0  0  0  0  0  0  0  0  0
    9.0877  -12.5488   20.0795 C   0  0  0  0  0  0  0  0  0  0  0  0
    8.2143  -14.8064   20.7078 C   0  0  2  0  0  0  0  0  0  0  0  0
    6.9533  -15.6040   20.7538 N   0  0  0  0  0  0  0  0  0  0  0  0
    8.6146  -14.6733   22.1253 C   0  0  0  0  0  0  0  0  0  0  0  0
    9.8481  -14.4829   22.4301 O   0  0  0  0  0  0  0  0  0  0  0  0
    5.8553  -13.0913   27.3060 C   0  0  0  0  0  0  0  0  0  0  0  0
    7.2275  -13.5103   26.7420 C   0  0  2  0  0  0  0  0  0  0  0  0
    8.1781  -12.4088   27.0536 C   0  0  0  0  0  0  0  0  0  0  0  0
    7.0792  -13.8557   25.3161 C   0  0  0  0  0  0  0  0  0  0  0  0
    8.2474  -14.4767   24.6251 C   0  0  2  0  0  0  0  0  0  0  0  0
    7.7582  -14.7309   23.2432 N   0  0  0  0  0  0  0  0  0  0  0  0
    8.6758  -15.7772   25.1953 C   0  0  0  0  0  0  0  0  0  0  0  0
    7.8078  -16.6869   25.3803 O   0  0  0  0  0  0  0  0  0  0  0  0
    9.9851  -16.1065   25.5568 N   0  0  0  0  0  0  0  0  0  0  0  0
   10.3522  -17.4448   26.0511 C   0  0  1  0  0  0  0  0  0  0  0  0
   11.7177  -17.8318   25.6091 C   0  0  0  0  0  0  0  0  0  0  0  0
   11.7918  -17.8436   24.1412 C   0  0  0  0  0  0  0  0  0  0  0  0
   10.9957  -18.4802   23.4185 O   0  0  0  0  0  0  0  0  0  0  0  0
   10.2861  -17.4357   27.5286 C   0  0  0  0  0  0  0  0  0  0  0  0
   10.2286  -16.2740   28.2598 O   0  0  0  0  0  0  0  0  0  0  0  0
   12.7918  -17.1144   23.5252 O   0  0  0  0  0  0  0  0  0  0  0  0
   10.2822  -18.5212   28.1741 O   0  0  0  0  0  0  0  0  0  0  0  0
  2  1  1  0
  3  2  1  0
  3  4  1  6
  3  5  1  0
  5  6  1  1
  7  8  2  0
  7  5  1  0
 10  9  1  6
 10 12  1  0
 11 10  1  0
 13 12  1  1
 13 14  1  0
 14  7  1  0
 15 13  1  0
 16 15  2  0
 17 15  1  0
 18 22  1  0
 18 17  1  0
 19 20  1  0
 18 19  1  1
 20 24  1  0
 21 20  2  0
 22 23  1  0
 25 22  2  0
M  END
$$$$
