ILD.pdb
     RDKit          3D

 25 24  0  0  1  0  0  0  0  0999 V2000
    7.3864  -11.0831   27.8383 C   0  0  0  0  0  0  0  0  0  0  0  0
    7.5908  -12.5516   27.5985 C   0  0  0  0  0  0  0  0  0  0  0  0
    7.0074  -13.0605   26.3197 C   0  0  2  0  0  0  0  0  0  0  0  0
    5.5038  -12.8700   26.3939 C   0  0  0  0  0  0  0  0  0  0  0  0
    7.3698  -14.5054   26.0809 C   0  0  2  0  0  0  0  0  0  0  0  0
    8.7722  -14.7050   26.5520 N   0  0  0  0  0  0  0  0  0  0  0  0
    7.4053  -14.8909   24.6536 C   0  0  0  0  0  0  0  0  0  0  0  0
    6.3116  -15.1416   24.0276 O   0  0  0  0  0  0  0  0  0  0  0  0
    8.6184  -12.2481   19.9585 C   0  0  0  0  0  0  0  0  0  0  0  0
    8.3007  -13.7023   20.3596 C   0  0  2  0  0  0  0  0  0  0  0  0
    6.9507  -14.0155   19.8181 C   0  0  0  0  0  0  0  0  0  0  0  0
    8.4650  -13.8484   21.8178 C   0  0  0  0  0  0  0  0  0  0  0  0
    8.4764  -15.2302   22.3820 C   0  0  2  0  0  0  0  0  0  0  0  0
    8.5578  -15.0208   23.8527 N   0  0  0  0  0  0  0  0  0  0  0  0
    9.6479  -16.0462   21.9799 C   0  0  0  0  0  0  0  0  0  0  0  0
    9.7025  -16.5087   20.7974 O   0  0  0  0  0  0  0  0  0  0  0  0
   10.7316  -16.3615   22.8044 N   0  0  0  0  0  0  0  0  0  0  0  0
   11.5682  -17.5538   22.5831 C   0  0  1  0  0  0  0  0  0  0  0  0
   12.9415  -17.3610   23.1184 C   0  0  0  0  0  0  0  0  0  0  0  0
   13.5622  -16.1761   22.5092 C   0  0  0  0  0  0  0  0  0  0  0  0
   14.6920  -15.7506   22.8312 O   0  0  0  0  0  0  0  0  0  0  0  0
   10.9273  -18.7090   23.2480 C   0  0  0  0  0  0  0  0  0  0  0  0
    9.8368  -18.5766   24.0731 O   0  0  0  0  0  0  0  0  0  0  0  0
   12.8634  -15.4953   21.5298 O   0  0  0  0  0  0  0  0  0  0  0  0
   11.3764  -19.8762   23.0728 O   0  0  0  0  0  0  0  0  0  0  0  0
  2  1  1  0
  3  2  1  0
  3  4  1  1
  3  5  1  0
  5  6  1  6
  7  8  2  0
  7  5  1  0
 10  9  1  1
 10 12  1  0
 11 10  1  0
 13 12  1  6
 13 14  1  0
 14  7  1  0
 15 13  1  0
 16 15  2  0
 17 15  1  0
 18 22  1  0
 18 17  1  0
 19 20  1  0
 18 19  1  1
 20 24  1  0
 21 20  2  0
 22 23  1  0
 25 22  2  0
M  END
$$$$
