ILD.pdb
     RDKit          3D

 25 24  0  0  1  0  0  0  0  0999 V2000
    9.7936  -13.6806   29.7795 C   0  0  0  0  0  0  0  0  0  0  0  0
    9.8849  -14.5297   28.5440 C   0  0  0  0  0  0  0  0  0  0  0  0
    9.6880  -15.9929   28.7786 C   0  0  2  0  0  0  0  0  0  0  0  0
   10.7911  -16.4604   29.7099 C   0  0  0  0  0  0  0  0  0  0  0  0
    9.6929  -16.7678   27.4842 C   0  0  2  0  0  0  0  0  0  0  0  0
   10.9346  -16.4014   26.7410 N   0  0  0  0  0  0  0  0  0  0  0  0
    8.5949  -16.4079   26.5611 C   0  0  0  0  0  0  0  0  0  0  0  0
    7.5603  -17.1639   26.4664 O   0  0  0  0  0  0  0  0  0  0  0  0
    5.8318  -13.1622   26.4532 C   0  0  0  0  0  0  0  0  0  0  0  0
    7.2087  -12.9270   25.8012 C   0  0  2  0  0  0  0  0  0  0  0  0
    7.3898  -11.4541   25.6918 C   0  0  0  0  0  0  0  0  0  0  0  0
    7.2817  -13.6853   24.5385 C   0  0  0  0  0  0  0  0  0  0  0  0
    7.5573  -15.1499   24.6211 C   0  0  2  0  0  0  0  0  0  0  0  0
    8.5429  -15.2715   25.7290 N   0  0  0  0  0  0  0  0  0  0  0  0
    8.1783  -15.7259   23.4035 C   0  0  0  0  0  0  0  0  0  0  0  0
    7.5313  -15.7030   22.3099 O   0  0  0  0  0  0  0  0  0  0  0  0
    9.4481  -16.3068   23.3442 N   0  0  0  0  0  0  0  0  0  0  0  0
    9.9928  -16.8831   22.1027 C   0  0  1  0  0  0  0  0  0  0  0  0
   11.0623  -16.0250   21.5287 C   0  0  0  0  0  0  0  0  0  0  0  0
   11.6140  -16.6447   20.3155 C   0  0  0  0  0  0  0  0  0  0  0  0
   10.9591  -16.7940   19.2620 O   0  0  0  0  0  0  0  0  0  0  0  0
   10.5339  -18.2260   22.4045 C   0  0  0  0  0  0  0  0  0  0  0  0
   10.9277  -19.1031   21.4232 O   0  0  0  0  0  0  0  0  0  0  0  0
   12.9240  -17.0859   20.3373 O   0  0  0  0  0  0  0  0  0  0  0  0
   10.6501  -18.6133   23.6010 O   0  0  0  0  0  0  0  0  0  0  0  0
  2  1  1  0
  3  2  1  0
  3  4  1  1
  3  5  1  0
  5  6  1  6
  7  8  2  0
  7  5  1  0
 10  9  1  6
 10 12  1  0
 11 10  1  0
 13 12  1  6
 13 14  1  0
 14  7  1  0
 15 13  1  0
 16 15  2  0
 17 15  1  0
 18 22  1  0
 18 17  1  0
 19 20  1  0
 18 19  1  1
 20 24  1  0
 21 20  2  0
 22 23  1  0
 25 22  2  0
M  END
$$$$
