ILD.pdb
     RDKit          3D

 25 24  0  0  1  0  0  0  0  0999 V2000
    7.7629  -11.6142   20.1942 C   0  0  0  0  0  0  0  0  0  0  0  0
    7.7532  -12.8658   21.0245 C   0  0  0  0  0  0  0  0  0  0  0  0
    8.5188  -14.0078   20.4377 C   0  0  2  0  0  0  0  0  0  0  0  0
    7.9056  -14.3246   19.0863 C   0  0  0  0  0  0  0  0  0  0  0  0
    8.5032  -15.2116   21.3470 C   0  0  2  0  0  0  0  0  0  0  0  0
    7.0809  -15.6310   21.5197 N   0  0  0  0  0  0  0  0  0  0  0  0
    8.9723  -14.9354   22.7221 C   0  0  0  0  0  0  0  0  0  0  0  0
   10.2087  -14.6596   22.9366 O   0  0  0  0  0  0  0  0  0  0  0  0
    8.0207  -11.8074   25.7839 C   0  0  0  0  0  0  0  0  0  0  0  0
    6.9668  -12.9286   25.6909 C   0  0  2  0  0  0  0  0  0  0  0  0
    5.8129  -12.5087   26.5313 C   0  0  0  0  0  0  0  0  0  0  0  0
    7.5957  -14.2140   26.0476 C   0  0  0  0  0  0  0  0  0  0  0  0
    8.7612  -14.6683   25.2334 C   0  0  2  0  0  0  0  0  0  0  0  0
    8.1823  -14.9360   23.8893 N   0  0  0  0  0  0  0  0  0  0  0  0
    9.3884  -15.9251   25.7098 C   0  0  0  0  0  0  0  0  0  0  0  0
    9.7943  -15.9962   26.9120 O   0  0  0  0  0  0  0  0  0  0  0  0
    9.5783  -17.0742   24.9372 N   0  0  0  0  0  0  0  0  0  0  0  0
   10.2445  -18.2770   25.4661 C   0  0  1  0  0  0  0  0  0  0  0  0
    9.9724  -19.4666   24.6173 C   0  0  0  0  0  0  0  0  0  0  0  0
   10.6492  -20.6492   25.1686 C   0  0  0  0  0  0  0  0  0  0  0  0
   11.3215  -21.4414   24.4747 O   0  0  0  0  0  0  0  0  0  0  0  0
   11.7003  -18.0226   25.5229 C   0  0  0  0  0  0  0  0  0  0  0  0
   12.5265  -18.6482   26.4248 O   0  0  0  0  0  0  0  0  0  0  0  0
   10.5384  -20.9009   26.5234 O   0  0  0  0  0  0  0  0  0  0  0  0
   12.2366  -17.2026   24.7260 O   0  0  0  0  0  0  0  0  0  0  0  0
  2  1  1  0
  3  2  1  0
  3  4  1  6
  3  5  1  0
  5  6  1  1
  7  8  2  0
  7  5  1  0
 10  9  1  1
 10 12  1  0
 11 10  1  0
 13 12  1  1
 13 14  1  0
 14  7  1  0
 15 13  1  0
 16 15  2  0
 17 15  1  0
 18 22  1  0
 18 17  1  0
 19 20  1  0
 18 19  1  6
 20 24  1  0
 21 20  2  0
 22 23  1  0
 25 22  2  0
M  END
$$$$
