ILD.pdb
     RDKit          3D

 25 24  0  0  1  0  0  0  0  0999 V2000
    7.5565  -12.3500   18.8449 C   0  0  0  0  0  0  0  0  0  0  0  0
    7.4484  -13.6583   19.5747 C   0  0  0  0  0  0  0  0  0  0  0  0
    8.1297  -13.6869   20.9051 C   0  0  2  0  0  0  0  0  0  0  0  0
    9.5956  -13.3687   20.6764 C   0  0  0  0  0  0  0  0  0  0  0  0
    7.9543  -15.0199   21.5896 C   0  0  2  0  0  0  0  0  0  0  0  0
    6.5219  -15.4163   21.4498 N   0  0  0  0  0  0  0  0  0  0  0  0
    8.1824  -14.9829   23.0503 C   0  0  0  0  0  0  0  0  0  0  0  0
    9.3804  -14.9524   23.5137 O   0  0  0  0  0  0  0  0  0  0  0  0
    8.0084  -12.1777   26.7092 C   0  0  0  0  0  0  0  0  0  0  0  0
    6.7363  -12.5870   25.9406 C   0  0  2  0  0  0  0  0  0  0  0  0
    5.6380  -11.7054   26.4210 C   0  0  0  0  0  0  0  0  0  0  0  0
    6.5210  -14.0372   26.0994 C   0  0  0  0  0  0  0  0  0  0  0  0
    7.5283  -14.9603   25.4986 C   0  0  2  0  0  0  0  0  0  0  0  0
    7.1890  -14.9742   24.0501 N   0  0  0  0  0  0  0  0  0  0  0  0
    7.4492  -16.3572   25.9909 C   0  0  0  0  0  0  0  0  0  0  0  0
    6.4584  -17.0770   25.6513 O   0  0  0  0  0  0  0  0  0  0  0  0
    8.3925  -16.9754   26.8165 N   0  0  0  0  0  0  0  0  0  0  0  0
    8.6268  -18.4296   26.7924 C   0  0  1  0  0  0  0  0  0  0  0  0
    8.9591  -18.9039   25.4234 C   0  0  0  0  0  0  0  0  0  0  0  0
    9.3135  -20.3301   25.4523 C   0  0  0  0  0  0  0  0  0  0  0  0
    9.0811  -21.0758   26.4275 O   0  0  0  0  0  0  0  0  0  0  0  0
    9.7384  -18.7430   27.7164 C   0  0  0  0  0  0  0  0  0  0  0  0
    9.8135  -19.9270   28.4091 O   0  0  0  0  0  0  0  0  0  0  0  0
    9.9358  -20.8777   24.3460 O   0  0  0  0  0  0  0  0  0  0  0  0
   10.6702  -17.9104   27.8995 O   0  0  0  0  0  0  0  0  0  0  0  0
  2  1  1  0
  3  2  1  0
  3  4  1  6
  3  5  1  0
  5  6  1  1
  7  8  2  0
  7  5  1  0
 10  9  1  1
 10 12  1  0
 11 10  1  0
 13 12  1  1
 13 14  1  0
 14  7  1  0
 15 13  1  0
 16 15  2  0
 17 15  1  0
 18 22  1  0
 18 17  1  0
 19 20  1  0
 18 19  1  6
 20 24  1  0
 21 20  2  0
 22 23  1  0
 25 22  2  0
M  END
$$$$
