ILD.pdb
     RDKit          3D

 25 24  0  0  1  0  0  0  0  0999 V2000
   11.4699  -14.7138   30.2590 C   0  0  0  0  0  0  0  0  0  0  0  0
   10.4403  -15.7549   29.9248 C   0  0  0  0  0  0  0  0  0  0  0  0
    9.9165  -15.6857   28.5263 C   0  0  2  0  0  0  0  0  0  0  0  0
    9.5138  -14.2474   28.2583 C   0  0  0  0  0  0  0  0  0  0  0  0
    8.7587  -16.6308   28.3202 C   0  0  2  0  0  0  0  0  0  0  0  0
    9.2693  -18.0209   28.5081 N   0  0  0  0  0  0  0  0  0  0  0  0
    8.2120  -16.6248   26.9461 C   0  0  0  0  0  0  0  0  0  0  0  0
    8.0349  -17.7325   26.3195 O   0  0  0  0  0  0  0  0  0  0  0  0
    5.9987  -12.7566   26.3653 C   0  0  0  0  0  0  0  0  0  0  0  0
    7.1026  -13.1215   25.3529 C   0  0  2  0  0  0  0  0  0  0  0  0
    7.4127  -11.8845   24.5864 C   0  0  0  0  0  0  0  0  0  0  0  0
    6.6650  -14.2845   24.5588 C   0  0  0  0  0  0  0  0  0  0  0  0
    7.3488  -15.5891   24.8002 C   0  0  2  0  0  0  0  0  0  0  0  0
    7.8388  -15.4879   26.2013 N   0  0  0  0  0  0  0  0  0  0  0  0
    8.5249  -15.8343   23.9305 C   0  0  0  0  0  0  0  0  0  0  0  0
    8.3484  -15.9900   22.6816 O   0  0  0  0  0  0  0  0  0  0  0  0
    9.8498  -15.9100   24.3692 N   0  0  0  0  0  0  0  0  0  0  0  0
   10.9543  -16.2968   23.4744 C   0  0  1  0  0  0  0  0  0  0  0  0
   12.0537  -15.2968   23.5043 C   0  0  0  0  0  0  0  0  0  0  0  0
   13.0868  -15.6484   22.5197 C   0  0  0  0  0  0  0  0  0  0  0  0
   12.8367  -16.2146   21.4343 O   0  0  0  0  0  0  0  0  0  0  0  0
   11.4650  -17.6179   23.9004 C   0  0  0  0  0  0  0  0  0  0  0  0
   11.0996  -18.2050   25.0875 O   0  0  0  0  0  0  0  0  0  0  0  0
   14.4033  -15.3383   22.8056 O   0  0  0  0  0  0  0  0  0  0  0  0
   12.2714  -18.2569   23.1681 O   0  0  0  0  0  0  0  0  0  0  0  0
  2  1  1  0
  3  2  1  0
  3  4  1  1
  3  5  1  0
  5  6  1  6
  7  8  2  0
  7  5  1  0
 10  9  1  1
 10 12  1  0
 11 10  1  0
 13 12  1  6
 13 14  1  0
 14  7  1  0
 15 13  1  0
 16 15  2  0
 17 15  1  0
 18 22  1  0
 18 17  1  0
 19 20  1  0
 18 19  1  1
 20 24  1  0
 21 20  2  0
 22 23  1  0
 25 22  2  0
M  END
$$$$
