ILD.pdb
     RDKit          3D

 25 24  0  0  1  0  0  0  0  0999 V2000
    6.8174  -12.6173   18.9511 C   0  0  0  0  0  0  0  0  0  0  0  0
    7.1830  -13.8644   19.7041 C   0  0  0  0  0  0  0  0  0  0  0  0
    8.1600  -13.6560   20.8162 C   0  0  2  0  0  0  0  0  0  0  0  0
    9.4542  -13.1558   20.2018 C   0  0  0  0  0  0  0  0  0  0  0  0
    8.3775  -14.9217   21.6079 C   0  0  2  0  0  0  0  0  0  0  0  0
    7.0579  -15.6074   21.7383 N   0  0  0  0  0  0  0  0  0  0  0  0
    8.8104  -14.6937   23.0036 C   0  0  0  0  0  0  0  0  0  0  0  0
   10.0163  -14.3257   23.2510 O   0  0  0  0  0  0  0  0  0  0  0  0
    7.7417  -11.8635   26.3123 C   0  0  0  0  0  0  0  0  0  0  0  0
    6.7582  -13.0207   26.0473 C   0  0  2  0  0  0  0  0  0  0  0  0
    5.5169  -12.7165   26.8092 C   0  0  0  0  0  0  0  0  0  0  0  0
    7.4191  -14.2996   26.3672 C   0  0  0  0  0  0  0  0  0  0  0  0
    8.5825  -14.7110   25.5275 C   0  0  2  0  0  0  0  0  0  0  0  0
    8.0148  -14.8371   24.1581 N   0  0  0  0  0  0  0  0  0  0  0  0
    9.1675  -16.0241   25.8928 C   0  0  0  0  0  0  0  0  0  0  0  0
    9.5706  -16.2114   27.0835 O   0  0  0  0  0  0  0  0  0  0  0  0
    9.3191  -17.1085   25.0242 N   0  0  0  0  0  0  0  0  0  0  0  0
    9.9741  -18.3620   25.4369 C   0  0  1  0  0  0  0  0  0  0  0  0
    9.8584  -19.4071   24.3862 C   0  0  0  0  0  0  0  0  0  0  0  0
   10.4886  -20.6550   24.8399 C   0  0  0  0  0  0  0  0  0  0  0  0
   11.5767  -21.0767   24.3934 O   0  0  0  0  0  0  0  0  0  0  0  0
   11.4000  -18.0803   25.7106 C   0  0  0  0  0  0  0  0  0  0  0  0
   12.1582  -17.2575   24.9135 O   0  0  0  0  0  0  0  0  0  0  0  0
    9.8477  -21.4030   25.8099 O   0  0  0  0  0  0  0  0  0  0  0  0
   11.9738  -18.6022   26.7073 O   0  0  0  0  0  0  0  0  0  0  0  0
  2  1  1  0
  3  2  1  0
  3  4  1  6
  3  5  1  0
  5  6  1  1
  7  8  2  0
  7  5  1  0
 10  9  1  1
 10 12  1  0
 11 10  1  0
 13 12  1  1
 13 14  1  0
 14  7  1  0
 15 13  1  0
 16 15  2  0
 17 15  1  0
 18 22  1  0
 18 17  1  0
 19 20  1  0
 18 19  1  6
 20 24  1  0
 21 20  2  0
 22 23  1  0
 25 22  2  0
M  END
$$$$
