ILD.pdb
     RDKit          3D

 25 24  0  0  1  0  0  0  0  0999 V2000
    7.7811  -11.6637   20.0935 C   0  0  0  0  0  0  0  0  0  0  0  0
    7.6424  -12.9434   20.8674 C   0  0  0  0  0  0  0  0  0  0  0  0
    8.3840  -14.1047   20.2877 C   0  0  2  0  0  0  0  0  0  0  0  0
    7.8613  -14.3261   18.8804 C   0  0  0  0  0  0  0  0  0  0  0  0
    8.2273  -15.3424   21.1360 C   0  0  2  0  0  0  0  0  0  0  0  0
    6.7716  -15.6672   21.1996 N   0  0  0  0  0  0  0  0  0  0  0  0
    8.6230  -15.1596   22.5492 C   0  0  0  0  0  0  0  0  0  0  0  0
    9.8358  -14.8538   22.8431 O   0  0  0  0  0  0  0  0  0  0  0  0
    7.6517  -12.2978   26.1123 C   0  0  0  0  0  0  0  0  0  0  0  0
    6.5630  -13.2893   25.6560 C   0  0  2  0  0  0  0  0  0  0  0  0
    5.3239  -12.9461   26.4048 C   0  0  0  0  0  0  0  0  0  0  0  0
    7.0624  -14.6666   25.8240 C   0  0  0  0  0  0  0  0  0  0  0  0
    8.2807  -15.0635   25.0585 C   0  0  2  0  0  0  0  0  0  0  0  0
    7.7829  -15.2848   23.6740 N   0  0  0  0  0  0  0  0  0  0  0  0
    8.9073  -16.3273   25.5168 C   0  0  0  0  0  0  0  0  0  0  0  0
    8.2039  -17.3848   25.5627 O   0  0  0  0  0  0  0  0  0  0  0  0
   10.2403  -16.4686   25.9127 N   0  0  0  0  0  0  0  0  0  0  0  0
   10.7637  -17.7227   26.4816 C   0  0  1  0  0  0  0  0  0  0  0  0
   12.2166  -17.8784   26.2090 C   0  0  0  0  0  0  0  0  0  0  0  0
   12.4334  -18.2328   24.7991 C   0  0  0  0  0  0  0  0  0  0  0  0
   11.5298  -18.6670   24.0533 O   0  0  0  0  0  0  0  0  0  0  0  0
   10.5245  -17.7137   27.9411 C   0  0  0  0  0  0  0  0  0  0  0  0
   10.6556  -18.8382   28.7196 O   0  0  0  0  0  0  0  0  0  0  0  0
   13.7003  -18.0792   24.2676 O   0  0  0  0  0  0  0  0  0  0  0  0
   10.1834  -16.6474   28.5256 O   0  0  0  0  0  0  0  0  0  0  0  0
  2  1  1  0
  3  2  1  0
  3  4  1  6
  3  5  1  0
  5  6  1  1
  7  8  2  0
  7  5  1  0
 10  9  1  1
 10 12  1  0
 11 10  1  0
 13 12  1  1
 13 14  1  0
 14  7  1  0
 15 13  1  0
 16 15  2  0
 17 15  1  0
 18 22  1  0
 18 17  1  0
 19 20  1  0
 18 19  1  1
 20 24  1  0
 21 20  2  0
 22 23  1  0
 25 22  2  0
M  END
$$$$
