KGE.pdb
     RDKit          3D

 23 22  0  0  1  0  0  0  0  0999 V2000
    8.5193  -15.3333   25.4978 N   0  0  0  0  0  0  0  0  0  0  0  0
    7.6867  -14.6883   24.5270 C   0  0  1  0  0  0  0  0  0  0  0  0
    7.3249  -13.2794   24.9350 C   0  0  0  0  0  0  0  0  0  0  0  0
    6.6196  -13.1742   26.2422 C   0  0  0  0  0  0  0  0  0  0  0  0
    6.1530  -11.8073   26.6224 C   0  0  0  0  0  0  0  0  0  0  0  0
    5.2794  -11.7934   27.8407 C   0  0  0  0  0  0  0  0  0  0  0  0
    4.9309  -10.4149   28.1242 N   0  0  0  0  0  0  0  0  0  0  0  0
    8.3114  -14.6114   23.1866 C   0  0  0  0  0  0  0  0  0  0  0  0
    9.5367  -14.3349   23.1195 O   0  0  0  0  0  0  0  0  0  0  0  0
    7.6192  -14.8293   21.9657 N   0  0  0  0  0  0  0  0  0  0  0  0
    8.2195  -14.6479   20.6737 C   0  0  0  0  0  0  0  0  0  0  0  0
    9.0900  -15.7843   20.2847 C   0  0  0  0  0  0  0  0  0  0  0  0
    9.5892  -15.8025   19.1329 O   0  0  0  0  0  0  0  0  0  0  0  0
    9.3765  -16.8516   21.1733 N   0  0  0  0  0  0  0  0  0  0  0  0
   10.1263  -18.0348   20.7596 C   0  0  1  0  0  0  0  0  0  0  0  0
   11.3799  -18.0362   21.5899 C   0  0  0  0  0  0  0  0  0  0  0  0
   12.2515  -16.8320   21.4375 C   0  0  0  0  0  0  0  0  0  0  0  0
   13.5143  -16.9435   22.1584 C   0  0  0  0  0  0  0  0  0  0  0  0
   14.4563  -17.7155   21.8727 O   0  0  0  0  0  0  0  0  0  0  0  0
    9.3192  -19.2534   20.8663 C   0  0  0  0  0  0  0  0  0  0  0  0
    8.1481  -19.2173   21.6154 O   0  0  0  0  0  0  0  0  0  0  0  0
   13.7138  -16.1186   23.2797 O   0  0  0  0  0  0  0  0  0  0  0  0
    9.6077  -20.3452   20.3250 O   0  0  0  0  0  0  0  0  0  0  0  0
  2  8  1  0
  2  1  1  1
  3  2  1  0
  4  3  1  0
  5  6  1  0
  5  4  1  0
  7  6  1  0
  8  9  2  0
 10 11  1  0
 10  8  1  0
 12 11  1  0
 12 14  1  0
 13 12  2  0
 15 14  1  0
 15 16  1  1
 16 17  1  0
 18 17  1  0
 18 22  1  0
 19 18  2  0
 20 15  1  0
 21 20  1  0
 23 20  2  0
M  END
$$$$
