KGE.pdb
     RDKit          3D

 23 22  0  0  1  0  0  0  0  0999 V2000
    4.8785  -17.1920   20.3831 N   0  0  0  0  0  0  0  0  0  0  0  0
    6.1236  -16.7900   20.9662 C   0  0  1  0  0  0  0  0  0  0  0  0
    6.3838  -15.3125   20.7879 C   0  0  0  0  0  0  0  0  0  0  0  0
    7.2080  -14.9674   19.5968 C   0  0  0  0  0  0  0  0  0  0  0  0
    7.4689  -13.5123   19.3847 C   0  0  0  0  0  0  0  0  0  0  0  0
    8.2060  -13.2183   18.1127 C   0  0  0  0  0  0  0  0  0  0  0  0
    8.3081  -11.7782   17.9787 N   0  0  0  0  0  0  0  0  0  0  0  0
    6.2050  -17.0792   22.4162 C   0  0  0  0  0  0  0  0  0  0  0  0
    5.2239  -16.7659   23.1384 O   0  0  0  0  0  0  0  0  0  0  0  0
    7.3198  -17.6888   23.0508 N   0  0  0  0  0  0  0  0  0  0  0  0
    7.4540  -17.8006   24.4763 C   0  0  0  0  0  0  0  0  0  0  0  0
    8.5324  -16.9376   25.0171 C   0  0  0  0  0  0  0  0  0  0  0  0
    9.2791  -16.3227   24.2169 O   0  0  0  0  0  0  0  0  0  0  0  0
    8.7470  -16.7850   26.4105 N   0  0  0  0  0  0  0  0  0  0  0  0
    9.8413  -15.9827   26.9508 C   0  0  1  0  0  0  0  0  0  0  0  0
    9.7163  -16.0738   28.4465 C   0  0  0  0  0  0  0  0  0  0  0  0
   10.7665  -15.3478   29.2232 C   0  0  0  0  0  0  0  0  0  0  0  0
   10.6641  -15.5598   30.6625 C   0  0  0  0  0  0  0  0  0  0  0  0
    9.8530  -16.3200   31.2360 O   0  0  0  0  0  0  0  0  0  0  0  0
   11.1391  -16.4060   26.4175 C   0  0  0  0  0  0  0  0  0  0  0  0
   11.3640  -17.7611   26.2006 O   0  0  0  0  0  0  0  0  0  0  0  0
   11.5470  -14.8568   31.5015 O   0  0  0  0  0  0  0  0  0  0  0  0
   12.0789  -15.6275   26.1367 O   0  0  0  0  0  0  0  0  0  0  0  0
  2  8  1  0
  2  1  1  1
  3  2  1  0
  4  3  1  0
  5  6  1  0
  5  4  1  0
  7  6  1  0
  8  9  2  0
 10 11  1  0
 10  8  1  0
 12 11  1  0
 12 14  1  0
 13 12  2  0
 15 14  1  0
 15 16  1  1
 16 17  1  0
 18 17  1  0
 18 22  1  0
 19 18  2  0
 20 15  1  0
 21 20  1  0
 23 20  2  0
M  END
$$$$
