KGE.pdb
     RDKit          3D

 23 22  0  0  1  0  0  0  0  0999 V2000
    6.9937  -17.4267   21.8301 N   0  0  0  0  0  0  0  0  0  0  0  0
    8.4111  -17.3044   21.6631 C   0  0  1  0  0  0  0  0  0  0  0  0
    8.8560  -15.8613   21.6223 C   0  0  0  0  0  0  0  0  0  0  0  0
    8.2893  -15.0694   20.4958 C   0  0  0  0  0  0  0  0  0  0  0  0
    8.6386  -13.6174   20.4797 C   0  0  0  0  0  0  0  0  0  0  0  0
    7.9721  -12.8563   19.3733 C   0  0  0  0  0  0  0  0  0  0  0  0
    8.3051  -11.4542   19.5325 N   0  0  0  0  0  0  0  0  0  0  0  0
    9.1814  -17.9720   22.7373 C   0  0  0  0  0  0  0  0  0  0  0  0
   10.4313  -18.0408   22.6143 O   0  0  0  0  0  0  0  0  0  0  0  0
    8.6034  -18.5428   23.9023 N   0  0  0  0  0  0  0  0  0  0  0  0
    9.3697  -19.1996   24.9241 C   0  0  0  0  0  0  0  0  0  0  0  0
   10.2135  -18.2571   25.6987 C   0  0  0  0  0  0  0  0  0  0  0  0
   11.4307  -18.1514   25.4103 O   0  0  0  0  0  0  0  0  0  0  0  0
    9.6883  -17.4710   26.7557 N   0  0  0  0  0  0  0  0  0  0  0  0
   10.5335  -16.6340   27.6033 C   0  0  1  0  0  0  0  0  0  0  0  0
    9.7035  -15.4277   27.9454 C   0  0  0  0  0  0  0  0  0  0  0  0
    9.2106  -14.6362   26.7776 C   0  0  0  0  0  0  0  0  0  0  0  0
    8.4013  -13.4865   27.1650 C   0  0  0  0  0  0  0  0  0  0  0  0
    7.1679  -13.4946   27.3737 O   0  0  0  0  0  0  0  0  0  0  0  0
   11.0443  -17.3745   28.7602 C   0  0  0  0  0  0  0  0  0  0  0  0
   10.4698  -18.6006   29.0771 O   0  0  0  0  0  0  0  0  0  0  0  0
    9.0438  -12.2458   27.3245 O   0  0  0  0  0  0  0  0  0  0  0  0
   11.9755  -16.9813   29.4995 O   0  0  0  0  0  0  0  0  0  0  0  0
  2  8  1  0
  2  1  1  1
  3  2  1  0
  4  3  1  0
  5  6  1  0
  5  4  1  0
  7  6  1  0
  8  9  2  0
 10 11  1  0
 10  8  1  0
 12 11  1  0
 12 14  1  0
 13 12  2  0
 15 14  1  0
 15 16  1  1
 16 17  1  0
 18 17  1  0
 18 22  1  0
 19 18  2  0
 20 15  1  0
 21 20  1  0
 23 20  2  0
M  END
$$$$
