KGE.pdb
     RDKit          3D

 23 22  0  0  1  0  0  0  0  0999 V2000
    6.2714  -20.4120   19.9285 N   0  0  0  0  0  0  0  0  0  0  0  0
    5.4136  -19.5512   20.6869 C   0  0  1  0  0  0  0  0  0  0  0  0
    5.1160  -20.1104   22.0584 C   0  0  0  0  0  0  0  0  0  0  0  0
    6.2813  -20.7422   22.7366 C   0  0  0  0  0  0  0  0  0  0  0  0
    6.0302  -21.2617   24.1142 C   0  0  0  0  0  0  0  0  0  0  0  0
    7.2388  -21.8849   24.7455 C   0  0  0  0  0  0  0  0  0  0  0  0
    6.9564  -22.0790   26.1543 N   0  0  0  0  0  0  0  0  0  0  0  0
    5.9754  -18.1943   20.8775 C   0  0  0  0  0  0  0  0  0  0  0  0
    5.2382  -17.3157   21.3941 O   0  0  0  0  0  0  0  0  0  0  0  0
    7.2952  -17.8148   20.5156 N   0  0  0  0  0  0  0  0  0  0  0  0
    7.8132  -16.4874   20.6952 C   0  0  0  0  0  0  0  0  0  0  0  0
    8.1890  -16.2074   22.1026 C   0  0  0  0  0  0  0  0  0  0  0  0
    7.3158  -15.7677   22.8901 O   0  0  0  0  0  0  0  0  0  0  0  0
    9.5046  -16.4208   22.5870 N   0  0  0  0  0  0  0  0  0  0  0  0
    9.9126  -16.0416   23.9372 C   0  0  1  0  0  0  0  0  0  0  0  0
    9.0232  -16.8192   24.8674 C   0  0  0  0  0  0  0  0  0  0  0  0
    9.3169  -18.2813   24.9627 C   0  0  0  0  0  0  0  0  0  0  0  0
    8.5897  -18.9430   26.0399 C   0  0  0  0  0  0  0  0  0  0  0  0
    7.8162  -18.3883   26.8515 O   0  0  0  0  0  0  0  0  0  0  0  0
   11.3483  -16.2468   24.1480 C   0  0  0  0  0  0  0  0  0  0  0  0
   12.0874  -16.8782   23.1534 O   0  0  0  0  0  0  0  0  0  0  0  0
    8.7576  -20.3300   26.2000 O   0  0  0  0  0  0  0  0  0  0  0  0
   11.9730  -15.8910   25.1734 O   0  0  0  0  0  0  0  0  0  0  0  0
  2  8  1  0
  2  1  1  1
  3  2  1  0
  4  3  1  0
  5  6  1  0
  5  4  1  0
  7  6  1  0
  8  9  2  0
 10 11  1  0
 10  8  1  0
 12 11  1  0
 12 14  1  0
 13 12  2  0
 15 14  1  0
 15 16  1  1
 16 17  1  0
 18 17  1  0
 18 22  1  0
 19 18  2  0
 20 15  1  0
 21 20  1  0
 23 20  2  0
M  END
$$$$
