KGE.pdb
     RDKit          3D

 23 22  0  0  1  0  0  0  0  0999 V2000
    5.8080  -15.9128   22.1650 N   0  0  0  0  0  0  0  0  0  0  0  0
    6.9210  -15.1485   21.6866 C   0  0  1  0  0  0  0  0  0  0  0  0
    6.5016  -13.7860   21.1864 C   0  0  0  0  0  0  0  0  0  0  0  0
    7.5383  -13.0712   20.3917 C   0  0  0  0  0  0  0  0  0  0  0  0
    7.9662  -13.7409   19.1271 C   0  0  0  0  0  0  0  0  0  0  0  0
    8.9666  -12.9472   18.3417 C   0  0  0  0  0  0  0  0  0  0  0  0
    9.3183  -13.7144   17.1627 N   0  0  0  0  0  0  0  0  0  0  0  0
    7.9646  -14.9371   22.7158 C   0  0  0  0  0  0  0  0  0  0  0  0
    7.8870  -13.9079   23.4349 O   0  0  0  0  0  0  0  0  0  0  0  0
    9.0521  -15.8205   22.9481 N   0  0  0  0  0  0  0  0  0  0  0  0
   10.0636  -15.5850   23.9400 C   0  0  0  0  0  0  0  0  0  0  0  0
   11.0698  -16.6733   23.9981 C   0  0  0  0  0  0  0  0  0  0  0  0
   10.7842  -17.7935   23.5084 O   0  0  0  0  0  0  0  0  0  0  0  0
   12.3452  -16.4886   24.5899 N   0  0  0  0  0  0  0  0  0  0  0  0
   13.2878  -17.5884   24.7775 C   0  0  1  0  0  0  0  0  0  0  0  0
   14.6490  -16.9536   24.8481 C   0  0  0  0  0  0  0  0  0  0  0  0
   15.3481  -16.7879   23.5377 C   0  0  0  0  0  0  0  0  0  0  0  0
   16.2112  -15.6132   23.4931 C   0  0  0  0  0  0  0  0  0  0  0  0
   16.8747  -15.1538   24.4489 O   0  0  0  0  0  0  0  0  0  0  0  0
   12.9355  -18.4132   25.9366 C   0  0  0  0  0  0  0  0  0  0  0  0
   13.5644  -19.6428   26.0991 O   0  0  0  0  0  0  0  0  0  0  0  0
   16.3235  -14.9176   22.2760 O   0  0  0  0  0  0  0  0  0  0  0  0
   12.0964  -18.0905   26.8083 O   0  0  0  0  0  0  0  0  0  0  0  0
  2  8  1  0
  2  1  1  1
  3  2  1  0
  4  3  1  0
  5  6  1  0
  5  4  1  0
  7  6  1  0
  8  9  2  0
 10 11  1  0
 10  8  1  0
 12 11  1  0
 12 14  1  0
 13 12  2  0
 15 14  1  0
 15 16  1  1
 16 17  1  0
 18 17  1  0
 18 22  1  0
 19 18  2  0
 20 15  1  0
 21 20  1  0
 23 20  2  0
M  END
$$$$
