KGE.pdb
     RDKit          3D

 23 22  0  0  1  0  0  0  0  0999 V2000
    8.8149  -16.1224   20.2890 N   0  0  0  0  0  0  0  0  0  0  0  0
    9.1319  -15.3103   21.4255 C   0  0  1  0  0  0  0  0  0  0  0  0
    8.2291  -14.1037   21.5313 C   0  0  0  0  0  0  0  0  0  0  0  0
    8.1826  -13.2550   20.3087 C   0  0  0  0  0  0  0  0  0  0  0  0
    7.4777  -13.8458   19.1320 C   0  0  0  0  0  0  0  0  0  0  0  0
    7.4664  -12.9477   17.9316 C   0  0  0  0  0  0  0  0  0  0  0  0
    8.4065  -13.4820   16.9657 N   0  0  0  0  0  0  0  0  0  0  0  0
    9.0366  -16.0448   22.7079 C   0  0  0  0  0  0  0  0  0  0  0  0
    9.4034  -15.4549   23.7566 O   0  0  0  0  0  0  0  0  0  0  0  0
    8.5575  -17.3757   22.8359 N   0  0  0  0  0  0  0  0  0  0  0  0
    9.1606  -18.3532   23.6980 C   0  0  0  0  0  0  0  0  0  0  0  0
   10.2459  -17.7842   24.5340 C   0  0  0  0  0  0  0  0  0  0  0  0
   11.2055  -17.2015   23.9722 O   0  0  0  0  0  0  0  0  0  0  0  0
   10.2338  -17.8777   25.9489 N   0  0  0  0  0  0  0  0  0  0  0  0
   11.3516  -17.4252   26.7729 C   0  0  1  0  0  0  0  0  0  0  0  0
   11.0593  -15.9885   27.1066 C   0  0  0  0  0  0  0  0  0  0  0  0
   10.1189  -15.7738   28.2480 C   0  0  0  0  0  0  0  0  0  0  0  0
    9.8473  -14.3650   28.5095 C   0  0  0  0  0  0  0  0  0  0  0  0
    9.5198  -13.8736   29.6123 O   0  0  0  0  0  0  0  0  0  0  0  0
   11.5562  -18.2947   27.9348 C   0  0  0  0  0  0  0  0  0  0  0  0
   12.7204  -18.1510   28.6818 O   0  0  0  0  0  0  0  0  0  0  0  0
    9.9572  -13.4580   27.4404 O   0  0  0  0  0  0  0  0  0  0  0  0
   10.7488  -19.1736   28.3142 O   0  0  0  0  0  0  0  0  0  0  0  0
  2  8  1  0
  2  1  1  6
  3  2  1  0
  4  3  1  0
  5  6  1  0
  5  4  1  0
  7  6  1  0
  8  9  2  0
 10 11  1  0
 10  8  1  0
 12 11  1  0
 12 14  1  0
 13 12  2  0
 15 14  1  0
 15 16  1  1
 16 17  1  0
 18 17  1  0
 18 22  1  0
 19 18  2  0
 20 15  1  0
 21 20  1  0
 23 20  2  0
M  END
$$$$
