KGE.pdb
     RDKit          3D

 23 22  0  0  1  0  0  0  0  0999 V2000
    6.8147  -16.5970   21.6273 N   0  0  0  0  0  0  0  0  0  0  0  0
    7.8903  -15.7116   21.9605 C   0  0  1  0  0  0  0  0  0  0  0  0
    7.8616  -14.4467   21.1349 C   0  0  0  0  0  0  0  0  0  0  0  0
    7.9741  -14.6625   19.6659 C   0  0  0  0  0  0  0  0  0  0  0  0
    7.9665  -13.4290   18.8238 C   0  0  0  0  0  0  0  0  0  0  0  0
    8.2618  -13.6927   17.3778 C   0  0  0  0  0  0  0  0  0  0  0  0
    8.0728  -12.4529   16.6504 N   0  0  0  0  0  0  0  0  0  0  0  0
    7.8885  -15.3072   23.3851 C   0  0  0  0  0  0  0  0  0  0  0  0
    8.8998  -14.7067   23.8312 O   0  0  0  0  0  0  0  0  0  0  0  0
    6.8187  -15.5517   24.2866 N   0  0  0  0  0  0  0  0  0  0  0  0
    6.4297  -16.8668   24.7132 C   0  0  0  0  0  0  0  0  0  0  0  0
    7.4519  -17.5134   25.5719 C   0  0  0  0  0  0  0  0  0  0  0  0
    7.1436  -18.5493   26.2106 O   0  0  0  0  0  0  0  0  0  0  0  0
    8.7673  -16.9981   25.6945 N   0  0  0  0  0  0  0  0  0  0  0  0
    9.8586  -17.7698   26.2833 C   0  0  1  0  0  0  0  0  0  0  0  0
   11.1063  -17.3219   25.5738 C   0  0  0  0  0  0  0  0  0  0  0  0
   11.5660  -18.2095   24.4629 C   0  0  0  0  0  0  0  0  0  0  0  0
   12.7802  -17.7310   23.8121 C   0  0  0  0  0  0  0  0  0  0  0  0
   12.8550  -16.7708   23.0138 O   0  0  0  0  0  0  0  0  0  0  0  0
    9.8984  -17.6278   27.7415 C   0  0  0  0  0  0  0  0  0  0  0  0
   10.7475  -18.4526   28.4714 O   0  0  0  0  0  0  0  0  0  0  0  0
   13.9887  -18.3936   24.0919 O   0  0  0  0  0  0  0  0  0  0  0  0
    9.2144  -16.8060   28.3933 O   0  0  0  0  0  0  0  0  0  0  0  0
  2  8  1  0
  2  1  1  1
  3  2  1  0
  4  3  1  0
  5  6  1  0
  5  4  1  0
  7  6  1  0
  8  9  2  0
 10 11  1  0
 10  8  1  0
 12 11  1  0
 12 14  1  0
 13 12  2  0
 15 14  1  0
 15 16  1  6
 16 17  1  0
 18 17  1  0
 18 22  1  0
 19 18  2  0
 20 15  1  0
 21 20  1  0
 23 20  2  0
M  END
$$$$
