KGE.pdb
     RDKit          3D

 23 22  0  0  1  0  0  0  0  0999 V2000
   10.3237  -13.5429   18.3755 N   0  0  0  0  0  0  0  0  0  0  0  0
    8.9776  -13.3463   18.8240 C   0  0  1  0  0  0  0  0  0  0  0  0
    7.9717  -14.0034   17.9081 C   0  0  0  0  0  0  0  0  0  0  0  0
    8.1820  -13.7314   16.4593 C   0  0  0  0  0  0  0  0  0  0  0  0
    7.2197  -14.3904   15.5265 C   0  0  0  0  0  0  0  0  0  0  0  0
    7.3938  -13.9720   14.0974 C   0  0  0  0  0  0  0  0  0  0  0  0
    6.3890  -14.6556   13.3067 N   0  0  0  0  0  0  0  0  0  0  0  0
    8.7385  -13.8704   20.1882 C   0  0  0  0  0  0  0  0  0  0  0  0
    7.6704  -13.5460   20.7682 O   0  0  0  0  0  0  0  0  0  0  0  0
    9.6362  -14.7179   20.8903 N   0  0  0  0  0  0  0  0  0  0  0  0
    9.3381  -15.2980   22.1699 C   0  0  0  0  0  0  0  0  0  0  0  0
   10.4603  -16.1074   22.7045 C   0  0  0  0  0  0  0  0  0  0  0  0
   10.3079  -17.3463   22.8383 O   0  0  0  0  0  0  0  0  0  0  0  0
   11.7009  -15.5256   23.0696 N   0  0  0  0  0  0  0  0  0  0  0  0
   12.9399  -16.2968   23.1291 C   0  0  1  0  0  0  0  0  0  0  0  0
   14.0432  -15.3240   22.8176 C   0  0  0  0  0  0  0  0  0  0  0  0
   15.4287  -15.8783   22.8983 C   0  0  0  0  0  0  0  0  0  0  0  0
   16.4558  -14.9092   22.5338 C   0  0  0  0  0  0  0  0  0  0  0  0
   16.4685  -14.2086   21.4976 O   0  0  0  0  0  0  0  0  0  0  0  0
   13.0828  -16.9962   24.4090 C   0  0  0  0  0  0  0  0  0  0  0  0
   12.3526  -16.5453   25.5034 O   0  0  0  0  0  0  0  0  0  0  0  0
   17.5398  -14.7290   23.4114 O   0  0  0  0  0  0  0  0  0  0  0  0
   13.8253  -17.9869   24.5972 O   0  0  0  0  0  0  0  0  0  0  0  0
  2  8  1  0
  2  1  1  6
  3  2  1  0
  4  3  1  0
  5  6  1  0
  5  4  1  0
  7  6  1  0
  8  9  2  0
 10 11  1  0
 10  8  1  0
 12 11  1  0
 12 14  1  0
 13 12  2  0
 15 14  1  0
 15 16  1  1
 16 17  1  0
 18 17  1  0
 18 22  1  0
 19 18  2  0
 20 15  1  0
 21 20  1  0
 23 20  2  0
M  END
$$$$
