KGE.pdb
     RDKit          3D

 23 22  0  0  1  0  0  0  0  0999 V2000
    8.8840  -14.9163   21.1329 N   0  0  0  0  0  0  0  0  0  0  0  0
    8.4076  -16.1322   20.5444 C   0  0  1  0  0  0  0  0  0  0  0  0
    7.8183  -15.9063   19.1718 C   0  0  0  0  0  0  0  0  0  0  0  0
    7.6378  -14.4752   18.8024 C   0  0  0  0  0  0  0  0  0  0  0  0
    6.8811  -14.2185   17.5406 C   0  0  0  0  0  0  0  0  0  0  0  0
    6.6000  -12.7658   17.2993 C   0  0  0  0  0  0  0  0  0  0  0  0
    5.8434  -12.6563   16.0674 N   0  0  0  0  0  0  0  0  0  0  0  0
    9.4629  -17.1619   20.4060 C   0  0  0  0  0  0  0  0  0  0  0  0
    9.2289  -18.3133   20.8552 O   0  0  0  0  0  0  0  0  0  0  0  0
   10.7269  -16.9380   19.7984 N   0  0  0  0  0  0  0  0  0  0  0  0
   11.9153  -17.6600   20.1574 C   0  0  0  0  0  0  0  0  0  0  0  0
   12.5767  -17.1057   21.3640 C   0  0  0  0  0  0  0  0  0  0  0  0
   12.9096  -15.8953   21.3740 O   0  0  0  0  0  0  0  0  0  0  0  0
   12.8452  -17.9004   22.5073 N   0  0  0  0  0  0  0  0  0  0  0  0
   13.4681  -17.3554   23.7107 C   0  0  1  0  0  0  0  0  0  0  0  0
   13.2941  -18.4050   24.7732 C   0  0  0  0  0  0  0  0  0  0  0  0
   13.9315  -18.0971   26.0893 C   0  0  0  0  0  0  0  0  0  0  0  0
   13.7273  -19.1440   27.0839 C   0  0  0  0  0  0  0  0  0  0  0  0
   14.5987  -19.9376   27.5030 O   0  0  0  0  0  0  0  0  0  0  0  0
   14.8563  -16.9530   23.4685 C   0  0  0  0  0  0  0  0  0  0  0  0
   15.4731  -16.0973   24.3747 O   0  0  0  0  0  0  0  0  0  0  0  0
   12.4425  -19.2940   27.6358 O   0  0  0  0  0  0  0  0  0  0  0  0
   15.5431  -17.3269   22.4903 O   0  0  0  0  0  0  0  0  0  0  0  0
  2  8  1  0
  2  1  1  6
  3  2  1  0
  4  3  1  0
  5  6  1  0
  5  4  1  0
  7  6  1  0
  8  9  2  0
 10 11  1  0
 10  8  1  0
 12 11  1  0
 12 14  1  0
 13 12  2  0
 15 14  1  0
 15 16  1  1
 16 17  1  0
 18 17  1  0
 18 22  1  0
 19 18  2  0
 20 15  1  0
 21 20  1  0
 23 20  2  0
M  END
$$$$
