KGE.pdb
     RDKit          3D

 23 22  0  0  1  0  0  0  0  0999 V2000
    9.7168  -16.4281   18.6407 N   0  0  0  0  0  0  0  0  0  0  0  0
    9.3953  -15.2132   19.3280 C   0  0  1  0  0  0  0  0  0  0  0  0
    8.1683  -14.5437   18.7548 C   0  0  0  0  0  0  0  0  0  0  0  0
    8.1716  -14.4083   17.2720 C   0  0  0  0  0  0  0  0  0  0  0  0
    7.0282  -13.6477   16.6848 C   0  0  0  0  0  0  0  0  0  0  0  0
    7.1143  -13.4979   15.1956 C   0  0  0  0  0  0  0  0  0  0  0  0
    5.9436  -12.7663   14.7522 N   0  0  0  0  0  0  0  0  0  0  0  0
    9.1520  -15.4126   20.7751 C   0  0  0  0  0  0  0  0  0  0  0  0
    8.9772  -14.3937   21.4919 O   0  0  0  0  0  0  0  0  0  0  0  0
    9.1024  -16.6807   21.4126 N   0  0  0  0  0  0  0  0  0  0  0  0
    8.7291  -16.8599   22.7878 C   0  0  0  0  0  0  0  0  0  0  0  0
    9.8297  -16.5278   23.7253 C   0  0  0  0  0  0  0  0  0  0  0  0
   10.9805  -16.3256   23.2662 O   0  0  0  0  0  0  0  0  0  0  0  0
    9.6230  -16.4315   25.1249 N   0  0  0  0  0  0  0  0  0  0  0  0
   10.7084  -16.1427   26.0585 C   0  0  1  0  0  0  0  0  0  0  0  0
   10.1398  -15.1781   27.0620 C   0  0  0  0  0  0  0  0  0  0  0  0
    9.2778  -14.0969   26.4951 C   0  0  0  0  0  0  0  0  0  0  0  0
    8.6602  -13.2608   27.5181 C   0  0  0  0  0  0  0  0  0  0  0  0
    8.8039  -13.3876   28.7542 O   0  0  0  0  0  0  0  0  0  0  0  0
   11.2683  -17.3680   26.6355 C   0  0  0  0  0  0  0  0  0  0  0  0
   10.5604  -18.5571   26.4977 O   0  0  0  0  0  0  0  0  0  0  0  0
    7.8230  -12.2107   27.1009 O   0  0  0  0  0  0  0  0  0  0  0  0
   12.3552  -17.4285   27.2546 O   0  0  0  0  0  0  0  0  0  0  0  0
  2  8  1  0
  2  1  1  6
  3  2  1  0
  4  3  1  0
  5  6  1  0
  5  4  1  0
  7  6  1  0
  8  9  2  0
 10 11  1  0
 10  8  1  0
 12 11  1  0
 12 14  1  0
 13 12  2  0
 15 14  1  0
 15 16  1  1
 16 17  1  0
 18 17  1  0
 18 22  1  0
 19 18  2  0
 20 15  1  0
 21 20  1  0
 23 20  2  0
M  END
$$$$
