TFN.pdb
     RDKit          3D

 27 27  0  0  1  0  0  0  0  0999 V2000
   28.0466  -20.7055  -18.5563 C   0  0  0  0  0  0  0  0  0  0  0  0
   27.1903  -20.6876  -17.3027 C   0  0  1  0  0  0  0  0  0  0  0  0
   25.8738  -20.4635  -17.7362 O   0  0  0  0  0  0  0  0  0  0  0  0
   27.2868  -22.0224  -16.5775 C   0  0  2  0  0  0  0  0  0  0  0  0
   26.6955  -23.0548  -17.4145 N   0  0  0  0  0  0  0  0  0  0  0  0
   26.5570  -21.9946  -15.2946 C   0  0  0  0  0  0  0  0  0  0  0  0
   25.4161  -22.5561  -15.1700 O   0  0  0  0  0  0  0  0  0  0  0  0
   27.0394  -21.3614  -14.1166 N   0  0  0  0  0  0  0  0  0  0  0  0
   26.2561  -21.1976  -12.9174 C   0  0  1  0  0  0  0  0  0  0  0  0
   27.1802  -20.8287  -11.7867 C   0  0  0  0  0  0  0  0  0  0  0  0
   26.4422  -20.6042  -10.5111 C   0  0  0  0  0  0  0  0  0  0  0  0
   26.2356  -19.3471   -9.9925 C   0  0  0  0  0  0  0  0  0  0  0  0
   25.5428  -19.1522   -8.7953 C   0  0  0  0  0  0  0  0  0  0  0  0
   25.0363  -20.2172   -8.0835 C   0  0  0  0  0  0  0  0  0  0  0  0
   25.2407  -21.4799   -8.5999 C   0  0  0  0  0  0  0  0  0  0  0  0
   25.9251  -21.6698   -9.7817 C   0  0  0  0  0  0  0  0  0  0  0  0
   25.0837  -20.3442  -13.0920 C   0  0  0  0  0  0  0  0  0  0  0  0
   25.2387  -19.3253  -13.8418 O   0  0  0  0  0  0  0  0  0  0  0  0
   20.1460  -19.6343  -14.6105 N   0  0  0  0  0  0  0  0  0  0  0  0
   21.1889  -20.4016  -15.1652 C   0  0  0  0  0  0  0  0  0  0  0  0
   20.9921  -20.8865  -16.3352 O   0  0  0  0  0  0  0  0  0  0  0  0
   22.4861  -20.7118  -14.5579 C   0  0  0  0  0  0  0  0  0  0  0  0
   22.5670  -20.1479  -13.1644 C   0  0  2  0  0  0  0  0  0  0  0  0
   23.8243  -20.5377  -12.5242 N   0  0  0  0  0  0  0  0  0  0  0  0
   21.5099  -20.5867  -12.2569 C   0  0  0  0  0  0  0  0  0  0  0  0
   21.6011  -21.6672  -11.6429 O   0  0  0  0  0  0  0  0  0  0  0  0
   20.3355  -19.8538  -12.0031 O   0  0  0  0  0  0  0  0  0  0  0  0
  2  1  1  6
  3  2  1  0
  4  2  1  0
  4  5  1  6
  6  4  1  0
  7  6  2  0
  8  6  1  0
  9  8  1  0
  9 10  1  1
 10 11  1  0
 11 12  2  0
 12 13  1  0
 14 13  2  0
 15 14  1  0
 16 11  1  0
 16 15  2  0
 17 18  2  0
 17  9  1  0
 19 20  1  0
 20 21  2  0
 23 22  1  6
 22 20  1  0
 23 24  1  0
 24 17  1  0
 25 23  1  0
 26 25  2  0
 27 25  1  0
M  END
$$$$
