TFN.pdb
     RDKit          3D

 27 27  0  0  1  0  0  0  0  0999 V2000
   20.3666   -6.8461  -20.2268 C   0  0  0  0  0  0  0  0  0  0  0  0
   20.4480   -8.3131  -19.8444 C   0  0  1  0  0  0  0  0  0  0  0  0
   20.7182   -9.0088  -21.0337 O   0  0  0  0  0  0  0  0  0  0  0  0
   21.5675   -8.5355  -18.8374 C   0  0  2  0  0  0  0  0  0  0  0  0
   21.6723   -9.9595  -18.5593 N   0  0  0  0  0  0  0  0  0  0  0  0
   21.2979   -7.8358  -17.5659 C   0  0  0  0  0  0  0  0  0  0  0  0
   20.3817   -8.2373  -16.7709 O   0  0  0  0  0  0  0  0  0  0  0  0
   22.0088   -6.6875  -17.1214 N   0  0  0  0  0  0  0  0  0  0  0  0
   21.6838   -5.9597  -15.9201 C   0  0  1  0  0  0  0  0  0  0  0  0
   22.8885   -5.9622  -15.0163 C   0  0  0  0  0  0  0  0  0  0  0  0
   23.2740   -7.3410  -14.6011 C   0  0  0  0  0  0  0  0  0  0  0  0
   24.3516   -7.9991  -15.1467 C   0  0  0  0  0  0  0  0  0  0  0  0
   24.7002   -9.2918  -14.7482 C   0  0  0  0  0  0  0  0  0  0  0  0
   23.9747   -9.9616  -13.7879 C   0  0  0  0  0  0  0  0  0  0  0  0
   22.8931   -9.3055  -13.2376 C   0  0  0  0  0  0  0  0  0  0  0  0
   22.5508   -8.0296  -13.6326 C   0  0  0  0  0  0  0  0  0  0  0  0
   21.0708   -4.6575  -16.1685 C   0  0  0  0  0  0  0  0  0  0  0  0
   21.8499   -3.7433  -16.5948 O   0  0  0  0  0  0  0  0  0  0  0  0
   18.5865   -0.6686  -18.6955 N   0  0  0  0  0  0  0  0  0  0  0  0
   17.9648   -1.7465  -18.0354 C   0  0  0  0  0  0  0  0  0  0  0  0
   16.7437   -1.5827  -17.6821 O   0  0  0  0  0  0  0  0  0  0  0  0
   18.5540   -3.0468  -17.7041 C   0  0  0  0  0  0  0  0  0  0  0  0
   19.1544   -3.0200  -16.3238 C   0  0  2  0  0  0  0  0  0  0  0  0
   19.7284   -4.3238  -15.9874 N   0  0  0  0  0  0  0  0  0  0  0  0
   18.2168   -2.7124  -15.2469 C   0  0  0  0  0  0  0  0  0  0  0  0
   17.6975   -1.5834  -15.1535 O   0  0  0  0  0  0  0  0  0  0  0  0
   17.8288   -3.6313  -14.2540 O   0  0  0  0  0  0  0  0  0  0  0  0
  2  1  1  6
  3  2  1  0
  4  2  1  0
  4  5  1  1
  6  4  1  0
  7  6  2  0
  8  6  1  0
  9  8  1  0
  9 10  1  6
 10 11  1  0
 11 12  2  0
 12 13  1  0
 14 13  2  0
 15 14  1  0
 16 11  1  0
 16 15  2  0
 17 18  2  0
 17  9  1  0
 19 20  1  0
 20 21  2  0
 23 22  1  6
 22 20  1  0
 23 24  1  0
 24 17  1  0
 25 23  1  0
 26 25  2  0
 27 25  1  0
M  END
$$$$
