TFN.pdb
     RDKit          3D

 27 27  0  0  1  0  0  0  0  0999 V2000
   24.3424  -19.8065  -14.3299 C   0  0  0  0  0  0  0  0  0  0  0  0
   24.4512  -20.1673  -12.8593 C   0  0  1  0  0  0  0  0  0  0  0  0
   23.3782  -21.0326  -12.5925 O   0  0  0  0  0  0  0  0  0  0  0  0
   25.7743  -20.8672  -12.5831 C   0  0  2  0  0  0  0  0  0  0  0  0
   25.7835  -22.1447  -13.2788 N   0  0  0  0  0  0  0  0  0  0  0  0
   25.9586  -21.1258  -11.1415 C   0  0  0  0  0  0  0  0  0  0  0  0
   25.6975  -22.2696  -10.6356 O   0  0  0  0  0  0  0  0  0  0  0  0
   26.4282  -20.1581  -10.2116 N   0  0  0  0  0  0  0  0  0  0  0  0
   26.5420  -20.3984   -8.7946 C   0  0  1  0  0  0  0  0  0  0  0  0
   27.5821  -19.4660   -8.2314 C   0  0  0  0  0  0  0  0  0  0  0  0
   27.7652  -19.6527   -6.7638 C   0  0  0  0  0  0  0  0  0  0  0  0
   27.3762  -18.7034   -5.8475 C   0  0  0  0  0  0  0  0  0  0  0  0
   27.5551  -18.8919   -4.4751 C   0  0  0  0  0  0  0  0  0  0  0  0
   28.1309  -20.0423   -3.9828 C   0  0  0  0  0  0  0  0  0  0  0  0
   28.5225  -20.9974   -4.8979 C   0  0  0  0  0  0  0  0  0  0  0  0
   28.3450  -20.8090   -6.2522 C   0  0  0  0  0  0  0  0  0  0  0  0
   25.2590  -20.4247   -8.0972 C   0  0  0  0  0  0  0  0  0  0  0  0
   24.4173  -19.5303   -8.4377 O   0  0  0  0  0  0  0  0  0  0  0  0
   20.9162  -21.7245   -5.4029 N   0  0  0  0  0  0  0  0  0  0  0  0
   21.4753  -22.6555   -6.2997 C   0  0  0  0  0  0  0  0  0  0  0  0
   20.7431  -23.6547   -6.6287 O   0  0  0  0  0  0  0  0  0  0  0  0
   22.8074  -22.6150   -6.9095 C   0  0  0  0  0  0  0  0  0  0  0  0
   23.5371  -21.3618   -6.5051 C   0  0  2  0  0  0  0  0  0  0  0  0
   24.8711  -21.3270   -7.1064 N   0  0  0  0  0  0  0  0  0  0  0  0
   23.7480  -21.2048   -5.0683 C   0  0  0  0  0  0  0  0  0  0  0  0
   24.8701  -21.3966   -4.5614 O   0  0  0  0  0  0  0  0  0  0  0  0
   22.7385  -20.8350   -4.1600 O   0  0  0  0  0  0  0  0  0  0  0  0
  2  1  1  6
  3  2  1  0
  4  2  1  0
  4  5  1  6
  6  4  1  0
  7  6  2  0
  8  6  1  0
  9  8  1  0
  9 10  1  1
 10 11  1  0
 11 12  2  0
 12 13  1  0
 14 13  2  0
 15 14  1  0
 16 11  1  0
 16 15  2  0
 17 18  2  0
 17  9  1  0
 19 20  1  0
 20 21  2  0
 23 22  1  1
 22 20  1  0
 23 24  1  0
 24 17  1  0
 25 23  1  0
 26 25  2  0
 27 25  1  0
M  END
$$$$
