TFN.pdb
     RDKit          3D

 27 27  0  0  1  0  0  0  0  0999 V2000
   20.4774  -10.2412  -21.3392 C   0  0  0  0  0  0  0  0  0  0  0  0
   19.7863  -11.2923  -20.4894 C   0  0  1  0  0  0  0  0  0  0  0  0
   19.7859  -12.4697  -21.2542 O   0  0  0  0  0  0  0  0  0  0  0  0
   20.5499  -11.5076  -19.1903 C   0  0  2  0  0  0  0  0  0  0  0  0
   19.9591  -12.6309  -18.4795 N   0  0  0  0  0  0  0  0  0  0  0  0
   20.4772  -10.3196  -18.3172 C   0  0  0  0  0  0  0  0  0  0  0  0
   19.3867   -9.9884  -17.7397 O   0  0  0  0  0  0  0  0  0  0  0  0
   21.5775   -9.4609  -18.0462 N   0  0  0  0  0  0  0  0  0  0  0  0
   21.4924   -8.2901  -17.2093 C   0  0  1  0  0  0  0  0  0  0  0  0
   22.6341   -8.3176  -16.2273 C   0  0  0  0  0  0  0  0  0  0  0  0
   22.6616   -7.1007  -15.3667 C   0  0  0  0  0  0  0  0  0  0  0  0
   23.2819   -5.9371  -15.7581 C   0  0  0  0  0  0  0  0  0  0  0  0
   23.3003   -4.8048  -14.9403 C   0  0  0  0  0  0  0  0  0  0  0  0
   22.6945   -4.8091  -13.7032 C   0  0  0  0  0  0  0  0  0  0  0  0
   22.0709   -5.9739  -13.3065 C   0  0  0  0  0  0  0  0  0  0  0  0
   22.0542   -7.0904  -14.1153 C   0  0  0  0  0  0  0  0  0  0  0  0
   21.3165   -7.0459  -17.9537 C   0  0  0  0  0  0  0  0  0  0  0  0
   22.1613   -6.8236  -18.8818 O   0  0  0  0  0  0  0  0  0  0  0  0
   16.6432   -4.1862  -18.3602 N   0  0  0  0  0  0  0  0  0  0  0  0
   17.7910   -4.9976  -18.4499 C   0  0  0  0  0  0  0  0  0  0  0  0
   17.8237   -6.0392  -17.7038 O   0  0  0  0  0  0  0  0  0  0  0  0
   18.9625   -4.7913  -19.3060 C   0  0  0  0  0  0  0  0  0  0  0  0
   20.2277   -4.8314  -18.4909 C   0  0  2  0  0  0  0  0  0  0  0  0
   20.3216   -6.0897  -17.7490 N   0  0  0  0  0  0  0  0  0  0  0  0
   20.3538   -3.7739  -17.4914 C   0  0  0  0  0  0  0  0  0  0  0  0
   19.4592   -3.5832  -16.6450 O   0  0  0  0  0  0  0  0  0  0  0  0
   21.4583   -2.9068  -17.3973 O   0  0  0  0  0  0  0  0  0  0  0  0
  2  1  1  6
  3  2  1  0
  4  2  1  0
  4  5  1  1
  6  4  1  0
  7  6  2  0
  8  6  1  0
  9  8  1  0
  9 10  1  6
 10 11  1  0
 11 12  2  0
 12 13  1  0
 14 13  2  0
 15 14  1  0
 16 11  1  0
 16 15  2  0
 17 18  2  0
 17  9  1  0
 19 20  1  0
 20 21  2  0
 23 22  1  1
 22 20  1  0
 23 24  1  0
 24 17  1  0
 25 23  1  0
 26 25  2  0
 27 25  1  0
M  END
$$$$
