TFN.pdb
     RDKit          3D

 27 27  0  0  1  0  0  0  0  0999 V2000
   20.6967   -8.7157  -20.2712 C   0  0  0  0  0  0  0  0  0  0  0  0
   20.9862  -10.1211  -19.7752 C   0  0  1  0  0  0  0  0  0  0  0  0
   21.3559  -10.8630  -20.9084 O   0  0  0  0  0  0  0  0  0  0  0  0
   22.1235  -10.1010  -18.7638 C   0  0  2  0  0  0  0  0  0  0  0  0
   22.4317  -11.4691  -18.3773 N   0  0  0  0  0  0  0  0  0  0  0  0
   21.7525   -9.3506  -17.5480 C   0  0  0  0  0  0  0  0  0  0  0  0
   20.9975   -9.8672  -16.6560 O   0  0  0  0  0  0  0  0  0  0  0  0
   22.1863   -8.0265  -17.2649 N   0  0  0  0  0  0  0  0  0  0  0  0
   21.8118   -7.2974  -16.0789 C   0  0  1  0  0  0  0  0  0  0  0  0
   23.0654   -6.8610  -15.3674 C   0  0  0  0  0  0  0  0  0  0  0  0
   23.9163   -8.0192  -14.9713 C   0  0  0  0  0  0  0  0  0  0  0  0
   23.5330   -8.9154  -14.0008 C   0  0  0  0  0  0  0  0  0  0  0  0
   24.3415   -9.9957  -13.6394 C   0  0  0  0  0  0  0  0  0  0  0  0
   25.5607  -10.2071  -14.2444 C   0  0  0  0  0  0  0  0  0  0  0  0
   25.9493   -9.3110  -15.2186 C   0  0  0  0  0  0  0  0  0  0  0  0
   25.1497   -8.2453  -15.5735 C   0  0  0  0  0  0  0  0  0  0  0  0
   20.8145   -6.2573  -16.3176 C   0  0  0  0  0  0  0  0  0  0  0  0
   21.1218   -5.3742  -17.1837 O   0  0  0  0  0  0  0  0  0  0  0  0
   15.4780   -4.2945  -17.2712 N   0  0  0  0  0  0  0  0  0  0  0  0
   16.1948   -4.6036  -16.0988 C   0  0  0  0  0  0  0  0  0  0  0  0
   15.9580   -3.8803  -15.0675 O   0  0  0  0  0  0  0  0  0  0  0  0
   17.1870   -5.6666  -15.9160 C   0  0  0  0  0  0  0  0  0  0  0  0
   18.5827   -5.1125  -16.0238 C   0  0  2  0  0  0  0  0  0  0  0  0
   19.5710   -6.1413  -15.6962 N   0  0  0  0  0  0  0  0  0  0  0  0
   18.8732   -3.9897  -15.1359 C   0  0  0  0  0  0  0  0  0  0  0  0
   18.5062   -2.8342  -15.4242 O   0  0  0  0  0  0  0  0  0  0  0  0
   19.5682   -4.1083  -13.9179 O   0  0  0  0  0  0  0  0  0  0  0  0
  2  1  1  6
  3  2  1  0
  4  2  1  0
  4  5  1  1
  6  4  1  0
  7  6  2  0
  8  6  1  0
  9  8  1  0
  9 10  1  6
 10 11  1  0
 11 12  2  0
 12 13  1  0
 14 13  2  0
 15 14  1  0
 16 11  1  0
 16 15  2  0
 17 18  2  0
 17  9  1  0
 19 20  1  0
 20 21  2  0
 23 22  1  1
 22 20  1  0
 23 24  1  0
 24 17  1  0
 25 23  1  0
 26 25  2  0
 27 25  1  0
M  END
$$$$
