TFN.pdb
     RDKit          3D

 27 27  0  0  1  0  0  0  0  0999 V2000
   18.4522  -30.5141   -5.9273 C   0  0  0  0  0  0  0  0  0  0  0  0
   17.5236  -31.2418   -4.9718 C   0  0  1  0  0  0  0  0  0  0  0  0
   17.9595  -32.5762   -4.9493 O   0  0  0  0  0  0  0  0  0  0  0  0
   17.6153  -30.6335   -3.5795 C   0  0  2  0  0  0  0  0  0  0  0  0
   16.6778  -31.3206   -2.7047 N   0  0  0  0  0  0  0  0  0  0  0  0
   17.2676  -29.1990   -3.5922 C   0  0  0  0  0  0  0  0  0  0  0  0
   16.0548  -28.8129   -3.7045 O   0  0  0  0  0  0  0  0  0  0  0  0
   18.2183  -28.1473   -3.4844 N   0  0  0  0  0  0  0  0  0  0  0  0
   17.8758  -26.7484   -3.5497 C   0  0  1  0  0  0  0  0  0  0  0  0
   18.3835  -26.0709   -2.3040 C   0  0  0  0  0  0  0  0  0  0  0  0
   17.5225  -26.3566   -1.1211 C   0  0  0  0  0  0  0  0  0  0  0  0
   16.3289  -25.7075   -0.9063 C   0  0  0  0  0  0  0  0  0  0  0  0
   15.5330  -25.9851    0.2076 C   0  0  0  0  0  0  0  0  0  0  0  0
   15.9142  -26.9251    1.1395 C   0  0  0  0  0  0  0  0  0  0  0  0
   17.1105  -27.5788    0.9282 C   0  0  0  0  0  0  0  0  0  0  0  0
   17.8945  -27.3030   -0.1719 C   0  0  0  0  0  0  0  0  0  0  0  0
   18.2323  -26.1135   -4.8158 C   0  0  0  0  0  0  0  0  0  0  0  0
   19.3926  -26.3814   -5.2702 O   0  0  0  0  0  0  0  0  0  0  0  0
   19.6655  -24.8973   -9.6767 N   0  0  0  0  0  0  0  0  0  0  0  0
   18.4701  -25.4230   -9.1488 C   0  0  0  0  0  0  0  0  0  0  0  0
   17.4708  -25.5044   -9.9472 O   0  0  0  0  0  0  0  0  0  0  0  0
   18.2323  -25.8952   -7.7819 C   0  0  0  0  0  0  0  0  0  0  0  0
   17.7826  -24.7606   -6.9004 C   0  0  2  0  0  0  0  0  0  0  0  0
   17.4317  -25.2532   -5.5675 N   0  0  0  0  0  0  0  0  0  0  0  0
   16.6064  -24.0365   -7.3755 C   0  0  0  0  0  0  0  0  0  0  0  0
   16.7198  -23.0804   -8.1666 O   0  0  0  0  0  0  0  0  0  0  0  0
   15.2863  -24.3436   -6.9964 O   0  0  0  0  0  0  0  0  0  0  0  0
  2  1  1  6
  3  2  1  0
  4  2  1  0
  4  5  1  1
  6  4  1  0
  7  6  2  0
  8  6  1  0
  9  8  1  0
  9 10  1  1
 10 11  1  0
 11 12  2  0
 12 13  1  0
 14 13  2  0
 15 14  1  0
 16 11  1  0
 16 15  2  0
 17 18  2  0
 17  9  1  0
 19 20  1  0
 20 21  2  0
 23 22  1  6
 22 20  1  0
 23 24  1  0
 24 17  1  0
 25 23  1  0
 26 25  2  0
 27 25  1  0
M  END
$$$$
