TFN.pdb
     RDKit          3D

 27 27  0  0  1  0  0  0  0  0999 V2000
   19.3151  -11.3205  -20.0031 C   0  0  0  0  0  0  0  0  0  0  0  0
   18.6784  -12.4295  -19.1849 C   0  0  1  0  0  0  0  0  0  0  0  0
   18.6321  -13.5532  -20.0254 O   0  0  0  0  0  0  0  0  0  0  0  0
   19.5204  -12.7272  -17.9523 C   0  0  2  0  0  0  0  0  0  0  0  0
   18.9743  -13.8974  -17.2826 N   0  0  0  0  0  0  0  0  0  0  0  0
   19.5017  -11.5999  -16.9996 C   0  0  0  0  0  0  0  0  0  0  0  0
   18.4338  -11.2777  -16.3764 O   0  0  0  0  0  0  0  0  0  0  0  0
   20.6328  -10.7935  -16.6963 N   0  0  0  0  0  0  0  0  0  0  0  0
   20.5772   -9.6152  -15.8674 C   0  0  1  0  0  0  0  0  0  0  0  0
   21.9050   -9.4514  -15.1758 C   0  0  0  0  0  0  0  0  0  0  0  0
   21.9596   -8.2073  -14.3563 C   0  0  0  0  0  0  0  0  0  0  0  0
   22.3768   -7.0033  -14.8743 C   0  0  0  0  0  0  0  0  0  0  0  0
   22.4236   -5.8457  -14.0938 C   0  0  0  0  0  0  0  0  0  0  0  0
   22.0514   -5.8647  -12.7678 C   0  0  0  0  0  0  0  0  0  0  0  0
   21.6320   -7.0700  -12.2439 C   0  0  0  0  0  0  0  0  0  0  0  0
   21.5869   -8.2113  -13.0162 C   0  0  0  0  0  0  0  0  0  0  0  0
   20.0628   -8.4346  -16.5564 C   0  0  0  0  0  0  0  0  0  0  0  0
   20.4753   -8.2574  -17.7493 O   0  0  0  0  0  0  0  0  0  0  0  0
   16.9198   -4.9217  -19.4116 N   0  0  0  0  0  0  0  0  0  0  0  0
   16.9436   -5.2745  -18.0481 C   0  0  0  0  0  0  0  0  0  0  0  0
   16.4766   -4.4156  -17.2194 O   0  0  0  0  0  0  0  0  0  0  0  0
   17.4414   -6.5209  -17.4596 C   0  0  0  0  0  0  0  0  0  0  0  0
   18.7486   -6.2867  -16.7504 C   0  0  2  0  0  0  0  0  0  0  0  0
   19.1714   -7.4943  -16.0394 N   0  0  0  0  0  0  0  0  0  0  0  0
   18.7269   -5.2255  -15.7470 C   0  0  0  0  0  0  0  0  0  0  0  0
   18.4350   -5.4721  -14.5608 O   0  0  0  0  0  0  0  0  0  0  0  0
   19.0240   -3.8772  -16.0201 O   0  0  0  0  0  0  0  0  0  0  0  0
  2  1  1  6
  3  2  1  0
  4  2  1  0
  4  5  1  1
  6  4  1  0
  7  6  2  0
  8  6  1  0
  9  8  1  0
  9 10  1  6
 10 11  1  0
 11 12  2  0
 12 13  1  0
 14 13  2  0
 15 14  1  0
 16 11  1  0
 16 15  2  0
 17 18  2  0
 17  9  1  0
 19 20  1  0
 20 21  2  0
 23 22  1  1
 22 20  1  0
 23 24  1  0
 24 17  1  0
 25 23  1  0
 26 25  2  0
 27 25  1  0
M  END
$$$$
