TFN.pdb
     RDKit          3D

 27 27  0  0  1  0  0  0  0  0999 V2000
   19.8709  -11.6244  -21.7092 C   0  0  0  0  0  0  0  0  0  0  0  0
   19.8297  -10.7156  -20.4938 C   0  0  1  0  0  0  0  0  0  0  0  0
   18.5627  -10.1107  -20.5054 O   0  0  0  0  0  0  0  0  0  0  0  0
   20.0147  -11.5278  -19.2198 C   0  0  2  0  0  0  0  0  0  0  0  0
   18.9808  -12.5493  -19.1604 N   0  0  0  0  0  0  0  0  0  0  0  0
   19.8960  -10.6808  -18.0167 C   0  0  0  0  0  0  0  0  0  0  0  0
   18.7982  -10.6035  -17.3675 O   0  0  0  0  0  0  0  0  0  0  0  0
   20.9569   -9.8977  -17.4852 N   0  0  0  0  0  0  0  0  0  0  0  0
   20.8075   -9.0009  -16.3662 C   0  0  1  0  0  0  0  0  0  0  0  0
   22.0722   -9.0375  -15.5491 C   0  0  0  0  0  0  0  0  0  0  0  0
   22.0067   -8.1215  -14.3749 C   0  0  0  0  0  0  0  0  0  0  0  0
   22.2864   -6.7784  -14.4735 C   0  0  0  0  0  0  0  0  0  0  0  0
   22.2217   -5.9323  -13.3639 C   0  0  0  0  0  0  0  0  0  0  0  0
   21.8732   -6.4124  -12.1208 C   0  0  0  0  0  0  0  0  0  0  0  0
   21.5915   -7.7589  -12.0171 C   0  0  0  0  0  0  0  0  0  0  0  0
   21.6562   -8.5921  -13.1137 C   0  0  0  0  0  0  0  0  0  0  0  0
   20.3209   -7.6743  -16.7359 C   0  0  0  0  0  0  0  0  0  0  0  0
   20.6429   -7.2629  -17.8984 O   0  0  0  0  0  0  0  0  0  0  0  0
   18.7072   -3.6601  -18.5314 N   0  0  0  0  0  0  0  0  0  0  0  0
   17.9790   -4.8646  -18.5840 C   0  0  0  0  0  0  0  0  0  0  0  0
   17.2359   -5.0477  -19.6121 O   0  0  0  0  0  0  0  0  0  0  0  0
   17.9727   -5.9453  -17.5940 C   0  0  0  0  0  0  0  0  0  0  0  0
   18.8873   -5.6157  -16.4445 C   0  0  2  0  0  0  0  0  0  0  0  0
   19.5441   -6.8255  -15.9470 N   0  0  0  0  0  0  0  0  0  0  0  0
   18.2321   -5.0173  -15.2843 C   0  0  0  0  0  0  0  0  0  0  0  0
   17.5304   -5.7066  -14.5192 O   0  0  0  0  0  0  0  0  0  0  0  0
   18.3320   -3.6568  -14.9383 O   0  0  0  0  0  0  0  0  0  0  0  0
  2  1  1  6
  3  2  1  0
  4  2  1  0
  4  5  1  1
  6  4  1  0
  7  6  2  0
  8  6  1  0
  9  8  1  0
  9 10  1  6
 10 11  1  0
 11 12  2  0
 12 13  1  0
 14 13  2  0
 15 14  1  0
 16 11  1  0
 16 15  2  0
 17 18  2  0
 17  9  1  0
 19 20  1  0
 20 21  2  0
 23 22  1  6
 22 20  1  0
 23 24  1  0
 24 17  1  0
 25 23  1  0
 26 25  2  0
 27 25  1  0
M  END
$$$$
