TFN.pdb
     RDKit          3D

 27 27  0  0  1  0  0  0  0  0999 V2000
   27.0513  -18.5451  -16.5045 C   0  0  0  0  0  0  0  0  0  0  0  0
   26.8243  -19.7927  -17.3392 C   0  0  1  0  0  0  0  0  0  0  0  0
   27.5243  -19.5884  -18.5391 O   0  0  0  0  0  0  0  0  0  0  0  0
   27.3642  -21.0183  -16.6159 C   0  0  2  0  0  0  0  0  0  0  0  0
   27.1993  -22.1806  -17.4749 N   0  0  0  0  0  0  0  0  0  0  0  0
   26.6349  -21.2680  -15.3570 C   0  0  0  0  0  0  0  0  0  0  0  0
   25.5366  -21.9208  -15.3468 O   0  0  0  0  0  0  0  0  0  0  0  0
   27.0718  -20.8203  -14.0802 N   0  0  0  0  0  0  0  0  0  0  0  0
   26.2545  -20.8643  -12.8934 C   0  0  1  0  0  0  0  0  0  0  0  0
   27.1292  -20.5938  -11.6975 C   0  0  0  0  0  0  0  0  0  0  0  0
   26.3489  -20.5677  -10.4276 C   0  0  0  0  0  0  0  0  0  0  0  0
   26.0148  -19.3936   -9.7937 C   0  0  0  0  0  0  0  0  0  0  0  0
   25.2838  -19.3848   -8.6035 C   0  0  0  0  0  0  0  0  0  0  0  0
   24.8663  -20.5581   -8.0149 C   0  0  0  0  0  0  0  0  0  0  0  0
   25.1988  -21.7382   -8.6471 C   0  0  0  0  0  0  0  0  0  0  0  0
   25.9206  -21.7444   -9.8218 C   0  0  0  0  0  0  0  0  0  0  0  0
   25.0343  -20.0674  -12.9890 C   0  0  0  0  0  0  0  0  0  0  0  0
   25.1092  -19.0102  -13.6969 O   0  0  0  0  0  0  0  0  0  0  0  0
   20.1996  -18.7763  -14.1655 N   0  0  0  0  0  0  0  0  0  0  0  0
   21.1707  -19.4979  -14.8868 C   0  0  0  0  0  0  0  0  0  0  0  0
   20.9647  -19.6505  -16.1426 O   0  0  0  0  0  0  0  0  0  0  0  0
   22.4023  -20.0983  -14.3667 C   0  0  0  0  0  0  0  0  0  0  0  0
   22.5190  -19.8670  -12.8836 C   0  0  2  0  0  0  0  0  0  0  0  0
   23.8080  -20.3515  -12.3876 N   0  0  0  0  0  0  0  0  0  0  0  0
   21.5068  -20.5370  -12.0713 C   0  0  0  0  0  0  0  0  0  0  0  0
   21.4423  -21.7807  -12.0265 O   0  0  0  0  0  0  0  0  0  0  0  0
   20.5480  -19.8617  -11.2931 O   0  0  0  0  0  0  0  0  0  0  0  0
  2  1  1  1
  3  2  1  0
  4  2  1  0
  4  5  1  6
  6  4  1  0
  7  6  2  0
  8  6  1  0
  9  8  1  0
  9 10  1  1
 10 11  1  0
 11 12  2  0
 12 13  1  0
 14 13  2  0
 15 14  1  0
 16 11  1  0
 16 15  2  0
 17 18  2  0
 17  9  1  0
 19 20  1  0
 20 21  2  0
 23 22  1  6
 22 20  1  0
 23 24  1  0
 24 17  1  0
 25 23  1  0
 26 25  2  0
 27 25  1  0
M  END
$$$$
