TFN.pdb
     RDKit          3D

 27 27  0  0  1  0  0  0  0  0999 V2000
   27.4684  -19.5628  -14.9137 C   0  0  0  0  0  0  0  0  0  0  0  0
   27.0622  -19.7531  -13.4633 C   0  0  1  0  0  0  0  0  0  0  0  0
   25.6598  -19.8203  -13.4595 O   0  0  0  0  0  0  0  0  0  0  0  0
   27.6535  -21.0435  -12.9136 C   0  0  2  0  0  0  0  0  0  0  0  0
   27.1044  -22.1658  -13.6587 N   0  0  0  0  0  0  0  0  0  0  0  0
   27.3177  -21.2278  -11.4880 C   0  0  0  0  0  0  0  0  0  0  0  0
   26.6692  -22.2535  -11.0881 O   0  0  0  0  0  0  0  0  0  0  0  0
   27.6727  -20.3115  -10.4604 N   0  0  0  0  0  0  0  0  0  0  0  0
   27.4526  -20.5575   -9.0570 C   0  0  1  0  0  0  0  0  0  0  0  0
   28.5663  -19.9114   -8.2757 C   0  0  0  0  0  0  0  0  0  0  0  0
   28.3403  -19.9959   -6.8046 C   0  0  0  0  0  0  0  0  0  0  0  0
   27.7414  -18.9824   -6.0932 C   0  0  0  0  0  0  0  0  0  0  0  0
   27.5371  -19.0754   -4.7145 C   0  0  0  0  0  0  0  0  0  0  0  0
   27.9292  -20.1919   -4.0096 C   0  0  0  0  0  0  0  0  0  0  0  0
   28.5300  -21.2112   -4.7189 C   0  0  0  0  0  0  0  0  0  0  0  0
   28.7309  -21.1170   -6.0797 C   0  0  0  0  0  0  0  0  0  0  0  0
   26.0955  -20.2523   -8.6116 C   0  0  0  0  0  0  0  0  0  0  0  0
   25.6761  -20.9077   -7.6022 O   0  0  0  0  0  0  0  0  0  0  0  0
   22.6913  -21.6579  -12.5165 N   0  0  0  0  0  0  0  0  0  0  0  0
   23.0882  -20.3904  -12.0478 C   0  0  0  0  0  0  0  0  0  0  0  0
   22.2910  -19.4130  -12.2755 O   0  0  0  0  0  0  0  0  0  0  0  0
   24.3155  -20.0541  -11.3208 C   0  0  0  0  0  0  0  0  0  0  0  0
   24.0013  -19.6731   -9.8987 C   0  0  2  0  0  0  0  0  0  0  0  0
   25.2257  -19.3205   -9.1783 N   0  0  0  0  0  0  0  0  0  0  0  0
   23.3639  -20.7199   -9.1040 C   0  0  0  0  0  0  0  0  0  0  0  0
   22.1322  -20.7190   -8.9143 O   0  0  0  0  0  0  0  0  0  0  0  0
   24.0590  -21.7860   -8.5033 O   0  0  0  0  0  0  0  0  0  0  0  0
  2  1  1  6
  3  2  1  0
  4  2  1  0
  4  5  1  6
  6  4  1  0
  7  6  2  0
  8  6  1  0
  9  8  1  0
  9 10  1  1
 10 11  1  0
 11 12  2  0
 12 13  1  0
 14 13  2  0
 15 14  1  0
 16 11  1  0
 16 15  2  0
 17 18  2  0
 17  9  1  0
 19 20  1  0
 20 21  2  0
 23 22  1  6
 22 20  1  0
 23 24  1  0
 24 17  1  0
 25 23  1  0
 26 25  2  0
 27 25  1  0
M  END
$$$$
