SEA.pdb
     RDKit          3D

 21 20  0  0  1  0  0  0  0  0999 V2000
   16.6230   -5.4932   -8.2096 O   0  0  0  0  0  0  0  0  0  0  0  0
   15.5984   -5.5538   -9.1258 C   0  0  0  0  0  0  0  0  0  0  0  0
   15.0848   -6.9751   -9.1907 C   0  0  2  0  0  0  0  0  0  0  0  0
   14.9127   -7.5589   -7.8907 N   0  0  0  0  0  0  0  0  0  0  0  0
   16.0530   -7.8084   -9.9558 C   0  0  0  0  0  0  0  0  0  0  0  0
   16.8504   -8.6031   -9.3823 O   0  0  0  0  0  0  0  0  0  0  0  0
   16.1191   -7.7424  -11.3738 N   0  0  0  0  0  0  0  0  0  0  0  0
   17.0678   -8.5953  -12.1372 C   0  0  1  0  0  0  0  0  0  0  0  0
   16.3191   -9.2611  -13.2219 C   0  0  0  0  0  0  0  0  0  0  0  0
   17.0409  -10.0879  -14.1975 C   0  0  0  0  0  0  0  0  0  0  0  0
   16.0656  -10.6506  -15.2045 C   0  0  0  0  0  0  0  0  0  0  0  0
   15.5530  -11.7781  -15.0251 O   0  0  0  0  0  0  0  0  0  0  0  0
   18.1739   -7.7208  -12.4966 C   0  0  0  0  0  0  0  0  0  0  0  0
   18.0591   -6.4779  -12.7195 O   0  0  0  0  0  0  0  0  0  0  0  0
   15.7291   -9.9340  -16.3278 O   0  0  0  0  0  0  0  0  0  0  0  0
   21.8620   -8.2639  -13.0641 C   0  0  0  0  0  0  0  0  0  0  0  0
   20.5850   -7.4161  -13.0596 C   0  0  2  0  0  0  0  0  0  0  0  0
   19.4834   -8.2566  -12.6112 N   0  0  0  0  0  0  0  0  0  0  0  0
   20.3350   -6.9907  -14.4369 C   0  0  0  0  0  0  0  0  0  0  0  0
   20.8810   -5.8111  -14.9069 O   0  0  0  0  0  0  0  0  0  0  0  0
   19.6123   -7.7026  -15.2150 O   0  0  0  0  0  0  0  0  0  0  0  0
  2  1  1  0
  3  2  1  0
  3  4  1  1
  5  3  1  0
  5  7  1  0
  6  5  2  0
  8  7  1  0
  8  9  1  6
 10  9  1  0
 10 11  1  0
 11 12  2  0
 11 15  1  0
 13  8  1  0
 13 18  1  0
 14 13  2  0
 17 18  1  0
 17 16  1  6
 19 17  1  0
 20 19  1  0
 21 19  2  0
M  END
$$$$
