SEA.pdb
     RDKit          3D

 21 20  0  0  1  0  0  0  0  0999 V2000
   14.7960   -5.4322   -7.5001 O   0  0  0  0  0  0  0  0  0  0  0  0
   15.7553   -6.0914   -8.2336 C   0  0  0  0  0  0  0  0  0  0  0  0
   15.0762   -7.1098   -9.1223 C   0  0  2  0  0  0  0  0  0  0  0  0
   14.4660   -8.1731   -8.3758 N   0  0  0  0  0  0  0  0  0  0  0  0
   16.0849   -7.7013  -10.0442 C   0  0  0  0  0  0  0  0  0  0  0  0
   16.8182   -8.6708   -9.6997 O   0  0  0  0  0  0  0  0  0  0  0  0
   16.2644   -7.1945  -11.3596 N   0  0  0  0  0  0  0  0  0  0  0  0
   17.2037   -7.8461  -12.3102 C   0  0  1  0  0  0  0  0  0  0  0  0
   16.4753   -8.1161  -13.5660 C   0  0  0  0  0  0  0  0  0  0  0  0
   17.1876   -8.7180  -14.7004 C   0  0  0  0  0  0  0  0  0  0  0  0
   16.3737   -9.8604  -15.2609 C   0  0  0  0  0  0  0  0  0  0  0  0
   15.6563   -9.6882  -16.2718 O   0  0  0  0  0  0  0  0  0  0  0  0
   18.3701   -6.9775  -12.3609 C   0  0  0  0  0  0  0  0  0  0  0  0
   18.3231   -5.7126  -12.2870 O   0  0  0  0  0  0  0  0  0  0  0  0
   16.4099  -11.1007  -14.6699 O   0  0  0  0  0  0  0  0  0  0  0  0
   22.0775   -7.5857  -12.6791 C   0  0  0  0  0  0  0  0  0  0  0  0
   20.8481   -6.7014  -12.4426 C   0  0  2  0  0  0  0  0  0  0  0  0
   19.6633   -7.5466  -12.4975 N   0  0  0  0  0  0  0  0  0  0  0  0
   20.7927   -5.7253  -13.5311 C   0  0  0  0  0  0  0  0  0  0  0  0
   21.4995   -4.5413  -13.4356 O   0  0  0  0  0  0  0  0  0  0  0  0
   20.0933   -5.9572  -14.5758 O   0  0  0  0  0  0  0  0  0  0  0  0
  2  1  1  0
  3  2  1  0
  3  4  1  1
  5  3  1  0
  5  7  1  0
  6  5  2  0
  8  7  1  0
  8  9  1  6
 10  9  1  0
 10 11  1  0
 11 12  2  0
 11 15  1  0
 13  8  1  0
 13 18  1  0
 14 13  2  0
 17 18  1  0
 17 16  1  6
 19 17  1  0
 20 19  1  0
 21 19  2  0
M  END
$$$$
