SEA.pdb
     RDKit          3D

 21 20  0  0  1  0  0  0  0  0999 V2000
   15.9447  -11.8388  -13.3456 O   0  0  0  0  0  0  0  0  0  0  0  0
   16.9579  -11.0575  -13.8517 C   0  0  0  0  0  0  0  0  0  0  0  0
   16.5237  -10.5012  -15.1896 C   0  0  2  0  0  0  0  0  0  0  0  0
   16.5486  -11.4884  -16.2314 N   0  0  0  0  0  0  0  0  0  0  0  0
   17.4363   -9.3891  -15.5740 C   0  0  0  0  0  0  0  0  0  0  0  0
   18.4373   -9.5740  -16.3223 O   0  0  0  0  0  0  0  0  0  0  0  0
   17.2155   -8.0641  -15.1104 N   0  0  0  0  0  0  0  0  0  0  0  0
   18.0747   -6.9397  -15.5663 C   0  0  1  0  0  0  0  0  0  0  0  0
   17.2251   -5.7411  -15.7147 C   0  0  0  0  0  0  0  0  0  0  0  0
   17.8495   -4.4421  -15.9962 C   0  0  0  0  0  0  0  0  0  0  0  0
   16.7842   -3.3738  -16.0715 C   0  0  0  0  0  0  0  0  0  0  0  0
   16.2653   -3.0760  -17.1707 O   0  0  0  0  0  0  0  0  0  0  0  0
   19.1820   -6.8896  -14.6235 C   0  0  0  0  0  0  0  0  0  0  0  0
   19.0511   -6.9450  -13.3636 O   0  0  0  0  0  0  0  0  0  0  0  0
   16.3718   -2.7165  -14.9372 O   0  0  0  0  0  0  0  0  0  0  0  0
   22.9106   -7.0733  -14.9759 C   0  0  0  0  0  0  0  0  0  0  0  0
   21.6344   -6.7761  -14.1807 C   0  0  2  0  0  0  0  0  0  0  0  0
   20.5113   -6.7753  -15.1080 N   0  0  0  0  0  0  0  0  0  0  0  0
   21.7790   -5.4410  -13.6002 C   0  0  0  0  0  0  0  0  0  0  0  0
   22.4656   -5.2734  -12.4123 O   0  0  0  0  0  0  0  0  0  0  0  0
   21.2741   -4.4215  -14.1834 O   0  0  0  0  0  0  0  0  0  0  0  0
  2  1  1  0
  3  2  1  0
  3  4  1  6
  5  3  1  0
  5  7  1  0
  6  5  2  0
  8  7  1  0
  8  9  1  1
 10  9  1  0
 10 11  1  0
 11 12  2  0
 11 15  1  0
 13  8  1  0
 13 18  1  0
 14 13  2  0
 17 18  1  0
 17 16  1  6
 19 17  1  0
 20 19  1  0
 21 19  2  0
M  END
$$$$
