SEA.pdb
     RDKit          3D

 21 20  0  0  1  0  0  0  0  0999 V2000
   14.2194  -11.1018  -13.9882 O   0  0  0  0  0  0  0  0  0  0  0  0
   15.4897  -10.7970  -14.4200 C   0  0  0  0  0  0  0  0  0  0  0  0
   15.6987   -9.3031  -14.3064 C   0  0  2  0  0  0  0  0  0  0  0  0
   14.8723   -8.5602  -15.2149 N   0  0  0  0  0  0  0  0  0  0  0  0
   17.1236   -8.9869  -14.6012 C   0  0  0  0  0  0  0  0  0  0  0  0
   18.0745   -9.5708  -14.0085 O   0  0  0  0  0  0  0  0  0  0  0  0
   17.4736   -8.0074  -15.5694 N   0  0  0  0  0  0  0  0  0  0  0  0
   18.8970   -7.7190  -15.8876 C   0  0  1  0  0  0  0  0  0  0  0  0
   18.9834   -7.3409  -17.3124 C   0  0  0  0  0  0  0  0  0  0  0  0
   18.6950   -8.3436  -18.3457 C   0  0  0  0  0  0  0  0  0  0  0  0
   18.8589   -7.7232  -19.7132 C   0  0  0  0  0  0  0  0  0  0  0  0
   19.0812   -8.4446  -20.7113 O   0  0  0  0  0  0  0  0  0  0  0  0
   19.3306   -6.7536  -14.8888 C   0  0  0  0  0  0  0  0  0  0  0  0
   18.6155   -5.7982  -14.4605 O   0  0  0  0  0  0  0  0  0  0  0  0
   18.7665   -6.3620  -19.8791 O   0  0  0  0  0  0  0  0  0  0  0  0
   22.1397   -6.6442  -12.4486 C   0  0  0  0  0  0  0  0  0  0  0  0
   21.0542   -5.9467  -13.2761 C   0  0  2  0  0  0  0  0  0  0  0  0
   20.6317   -6.8576  -14.3309 N   0  0  0  0  0  0  0  0  0  0  0  0
   21.6576   -4.7587  -13.8803 C   0  0  0  0  0  0  0  0  0  0  0  0
   21.8730   -4.7097  -15.2448 O   0  0  0  0  0  0  0  0  0  0  0  0
   21.9898   -3.7594  -13.1554 O   0  0  0  0  0  0  0  0  0  0  0  0
  2  1  1  0
  3  2  1  0
  3  4  1  6
  5  3  1  0
  5  7  1  0
  6  5  2  0
  8  7  1  0
  8  9  1  6
 10  9  1  0
 10 11  1  0
 11 12  2  0
 11 15  1  0
 13  8  1  0
 13 18  1  0
 14 13  2  0
 17 18  1  0
 17 16  1  1
 19 17  1  0
 20 19  1  0
 21 19  2  0
M  END
$$$$
