SEA.pdb
     RDKit          3D

 21 20  0  0  1  0  0  0  0  0999 V2000
   17.8776  -11.7471  -13.9478 O   0  0  0  0  0  0  0  0  0  0  0  0
   16.7426  -10.9893  -13.7727 C   0  0  0  0  0  0  0  0  0  0  0  0
   16.3526  -10.3800  -15.1011 C   0  0  2  0  0  0  0  0  0  0  0  0
   16.4513  -11.3143  -16.1863 N   0  0  0  0  0  0  0  0  0  0  0  0
   17.2496   -9.2271  -15.3903 C   0  0  0  0  0  0  0  0  0  0  0  0
   18.1635   -9.2929  -16.2602 O   0  0  0  0  0  0  0  0  0  0  0  0
   17.1122   -7.9965  -14.6932 N   0  0  0  0  0  0  0  0  0  0  0  0
   17.8885   -6.7952  -15.0989 C   0  0  1  0  0  0  0  0  0  0  0  0
   16.9987   -5.6200  -15.0115 C   0  0  0  0  0  0  0  0  0  0  0  0
   17.5452   -4.2791  -15.2558 C   0  0  0  0  0  0  0  0  0  0  0  0
   16.4473   -3.2513  -15.1142 C   0  0  0  0  0  0  0  0  0  0  0  0
   16.6447   -2.2026  -14.4603 O   0  0  0  0  0  0  0  0  0  0  0  0
   19.0907   -6.8142  -14.2792 C   0  0  0  0  0  0  0  0  0  0  0  0
   19.1021   -7.0442  -13.0323 O   0  0  0  0  0  0  0  0  0  0  0  0
   15.2206   -3.4533  -15.6999 O   0  0  0  0  0  0  0  0  0  0  0  0
   22.7378   -6.9483  -15.0572 C   0  0  0  0  0  0  0  0  0  0  0  0
   21.5750   -6.6811  -14.0949 C   0  0  2  0  0  0  0  0  0  0  0  0
   20.3532   -6.5677  -14.8795 N   0  0  0  0  0  0  0  0  0  0  0  0
   21.8391   -5.4051  -13.4299 C   0  0  0  0  0  0  0  0  0  0  0  0
   22.7139   -5.3495  -12.3611 O   0  0  0  0  0  0  0  0  0  0  0  0
   21.2659   -4.3343  -13.8290 O   0  0  0  0  0  0  0  0  0  0  0  0
  2  1  1  0
  3  2  1  0
  3  4  1  6
  5  3  1  0
  5  7  1  0
  6  5  2  0
  8  7  1  0
  8  9  1  1
 10  9  1  0
 10 11  1  0
 11 12  2  0
 11 15  1  0
 13  8  1  0
 13 18  1  0
 14 13  2  0
 17 18  1  0
 17 16  1  6
 19 17  1  0
 20 19  1  0
 21 19  2  0
M  END
$$$$
