SEA.pdb
     RDKit          3D

 21 20  0  0  1  0  0  0  0  0999 V2000
   14.8979  -10.9486  -14.8024 O   0  0  0  0  0  0  0  0  0  0  0  0
   16.1758  -10.4429  -14.7381 C   0  0  0  0  0  0  0  0  0  0  0  0
   16.9977  -11.0495  -15.8538 C   0  0  2  0  0  0  0  0  0  0  0  0
   17.3240  -12.4263  -15.6121 N   0  0  0  0  0  0  0  0  0  0  0  0
   18.2667  -10.2835  -15.9958 C   0  0  0  0  0  0  0  0  0  0  0  0
   19.3338  -10.6458  -15.4245 O   0  0  0  0  0  0  0  0  0  0  0  0
   18.3284   -9.1044  -16.7864 N   0  0  0  0  0  0  0  0  0  0  0  0
   19.6065   -8.3652  -16.9614 C   0  0  1  0  0  0  0  0  0  0  0  0
   19.5666   -7.6779  -18.2677 C   0  0  0  0  0  0  0  0  0  0  0  0
   20.6660   -6.7815  -18.6474 C   0  0  0  0  0  0  0  0  0  0  0  0
   20.3528   -6.1295  -19.9735 C   0  0  0  0  0  0  0  0  0  0  0  0
   19.8206   -4.9975  -20.0106 O   0  0  0  0  0  0  0  0  0  0  0  0
   19.7562   -7.5579  -15.7600 C   0  0  0  0  0  0  0  0  0  0  0  0
   18.8164   -6.9015  -15.2182 O   0  0  0  0  0  0  0  0  0  0  0  0
   20.6473   -6.7690  -21.1538 O   0  0  0  0  0  0  0  0  0  0  0  0
   22.2192   -7.5697  -13.0190 C   0  0  0  0  0  0  0  0  0  0  0  0
   21.1517   -6.8233  -13.8270 C   0  0  2  0  0  0  0  0  0  0  0  0
   21.0214   -7.4781  -15.1214 N   0  0  0  0  0  0  0  0  0  0  0  0
   21.6286   -5.4547  -14.0268 C   0  0  0  0  0  0  0  0  0  0  0  0
   21.9557   -5.0139  -15.2954 O   0  0  0  0  0  0  0  0  0  0  0  0
   21.7470   -4.6573  -13.0345 O   0  0  0  0  0  0  0  0  0  0  0  0
  2  1  1  0
  3  2  1  0
  3  4  1  1
  5  3  1  0
  5  7  1  0
  6  5  2  0
  8  7  1  0
  8  9  1  6
 10  9  1  0
 10 11  1  0
 11 12  2  0
 11 15  1  0
 13  8  1  0
 13 18  1  0
 14 13  2  0
 17 18  1  0
 17 16  1  1
 19 17  1  0
 20 19  1  0
 21 19  2  0
M  END
$$$$
