SEA.pdb
     RDKit          3D

 21 20  0  0  1  0  0  0  0  0999 V2000
   15.7117  -10.6066  -16.9690 O   0  0  0  0  0  0  0  0  0  0  0  0
   15.9348   -9.6492  -16.0065 C   0  0  0  0  0  0  0  0  0  0  0  0
   17.4066   -9.6417  -15.6571 C   0  0  2  0  0  0  0  0  0  0  0  0
   17.7951  -10.7861  -14.8827 N   0  0  0  0  0  0  0  0  0  0  0  0
   17.7142   -8.4153  -14.8705 C   0  0  0  0  0  0  0  0  0  0  0  0
   17.4854   -8.3419  -13.6301 O   0  0  0  0  0  0  0  0  0  0  0  0
   18.2821   -7.2690  -15.4890 N   0  0  0  0  0  0  0  0  0  0  0  0
   18.5809   -6.0430  -14.7028 C   0  0  1  0  0  0  0  0  0  0  0  0
   20.0411   -5.9735  -14.4942 C   0  0  0  0  0  0  0  0  0  0  0  0
   20.6220   -4.7993  -13.8307 C   0  0  0  0  0  0  0  0  0  0  0  0
   22.1144   -4.9844  -13.6890 C   0  0  0  0  0  0  0  0  0  0  0  0
   22.5787   -5.6818  -12.7594 O   0  0  0  0  0  0  0  0  0  0  0  0
   17.9325   -4.9546  -15.4187 C   0  0  0  0  0  0  0  0  0  0  0  0
   18.0877   -4.7196  -16.6549 O   0  0  0  0  0  0  0  0  0  0  0  0
   22.9799   -4.3910  -14.5764 O   0  0  0  0  0  0  0  0  0  0  0  0
   15.1997   -2.5312  -14.6167 C   0  0  0  0  0  0  0  0  0  0  0  0
   16.4383   -2.9569  -15.4129 C   0  0  2  0  0  0  0  0  0  0  0  0
   17.0584   -4.0794  -14.7224 N   0  0  0  0  0  0  0  0  0  0  0  0
   17.3661   -1.8258  -15.4205 C   0  0  0  0  0  0  0  0  0  0  0  0
   18.5724   -1.9155  -14.7516 O   0  0  0  0  0  0  0  0  0  0  0  0
   17.0713   -0.7487  -16.0429 O   0  0  0  0  0  0  0  0  0  0  0  0
  2  1  1  0
  3  2  1  0
  3  4  1  1
  5  3  1  0
  5  7  1  0
  6  5  2  0
  8  7  1  0
  8  9  1  6
 10  9  1  0
 10 11  1  0
 11 12  2  0
 11 15  1  0
 13  8  1  0
 13 18  1  0
 14 13  2  0
 17 18  1  0
 17 16  1  1
 19 17  1  0
 20 19  1  0
 21 19  2  0
M  END
$$$$
