SEA.pdb
     RDKit          3D

 21 20  0  0  1  0  0  0  0  0999 V2000
   23.6158  -13.3546  -14.7506 O   0  0  0  0  0  0  0  0  0  0  0  0
   23.3340  -12.1039  -15.2498 C   0  0  0  0  0  0  0  0  0  0  0  0
   22.0374  -12.1688  -16.0262 C   0  0  2  0  0  0  0  0  0  0  0  0
   22.1703  -12.8869  -17.2619 N   0  0  0  0  0  0  0  0  0  0  0  0
   21.5839  -10.7841  -16.3335 C   0  0  0  0  0  0  0  0  0  0  0  0
   22.0339  -10.1369  -17.3208 O   0  0  0  0  0  0  0  0  0  0  0  0
   20.6185  -10.1301  -15.5214 N   0  0  0  0  0  0  0  0  0  0  0  0
   20.2112   -8.7267  -15.7951 C   0  0  1  0  0  0  0  0  0  0  0  0
   18.7659   -8.6038  -15.5189 C   0  0  0  0  0  0  0  0  0  0  0  0
   18.1082   -7.2999  -15.6725 C   0  0  0  0  0  0  0  0  0  0  0  0
   16.6364   -7.4350  -15.3605 C   0  0  0  0  0  0  0  0  0  0  0  0
   15.7922   -7.4311  -16.2844 O   0  0  0  0  0  0  0  0  0  0  0  0
   21.1334   -7.8985  -15.0327 C   0  0  0  0  0  0  0  0  0  0  0  0
   21.5485   -8.1775  -13.8676 O   0  0  0  0  0  0  0  0  0  0  0  0
   16.2060   -7.5638  -14.0618 O   0  0  0  0  0  0  0  0  0  0  0  0
   23.1149   -4.7987  -15.8349 C   0  0  0  0  0  0  0  0  0  0  0  0
   22.6288   -5.9067  -14.8939 C   0  0  2  0  0  0  0  0  0  0  0  0
   21.6259   -6.6933  -15.5984 N   0  0  0  0  0  0  0  0  0  0  0  0
   22.0074   -5.2603  -13.7379 C   0  0  0  0  0  0  0  0  0  0  0  0
   22.7962   -4.6796  -12.7625 O   0  0  0  0  0  0  0  0  0  0  0  0
   20.7349   -5.2266  -13.6193 O   0  0  0  0  0  0  0  0  0  0  0  0
  2  1  1  0
  3  2  1  0
  3  4  1  6
  5  3  1  0
  5  7  1  0
  6  5  2  0
  8  7  1  0
  8  9  1  1
 10  9  1  0
 10 11  1  0
 11 12  2  0
 11 15  1  0
 13  8  1  0
 13 18  1  0
 14 13  2  0
 17 18  1  0
 17 16  1  6
 19 17  1  0
 20 19  1  0
 21 19  2  0
M  END
$$$$
