SEA.pdb
     RDKit          3D

 21 20  0  0  1  0  0  0  0  0999 V2000
   93.9745   19.9848  -42.1268 O   0  0  0  0  0  0  0  0  0  0  0  0
   95.1640   19.3568  -42.4160 C   0  0  0  0  0  0  0  0  0  0  0  0
   95.0414   17.8914  -42.0614 C   0  0  2  0  0  0  0  0  0  0  0  0
   94.2084   17.1696  -42.9809 N   0  0  0  0  0  0  0  0  0  0  0  0
   94.4544   17.7675  -40.6986 C   0  0  0  0  0  0  0  0  0  0  0  0
   93.2679   17.3742  -40.5149 O   0  0  0  0  0  0  0  0  0  0  0  0
   95.2121   18.0897  -39.5404 N   0  0  0  0  0  0  0  0  0  0  0  0
   94.5732   18.7302  -38.3605 C   0  0  1  0  0  0  0  0  0  0  0  0
   94.0886   17.6628  -37.4625 C   0  0  0  0  0  0  0  0  0  0  0  0
   94.3345   17.7652  -36.0184 C   0  0  0  0  0  0  0  0  0  0  0  0
   95.8218   17.7464  -35.7554 C   0  0  0  0  0  0  0  0  0  0  0  0
   96.4794   16.6948  -35.9228 O   0  0  0  0  0  0  0  0  0  0  0  0
   95.5584   19.6704  -37.8476 C   0  0  0  0  0  0  0  0  0  0  0  0
   96.6259   19.9884  -38.4533 O   0  0  0  0  0  0  0  0  0  0  0  0
   96.4711   18.8805  -35.3299 O   0  0  0  0  0  0  0  0  0  0  0  0
   97.4300   21.4207  -37.0876 C   0  0  0  0  0  0  0  0  0  0  0  0
   96.2228   21.3678  -36.1446 C   0  0  2  0  0  0  0  0  0  0  0  0
   95.3437   20.2962  -36.5918 N   0  0  0  0  0  0  0  0  0  0  0  0
   95.5194   22.6455  -36.2590 C   0  0  0  0  0  0  0  0  0  0  0  0
   94.1507   22.6674  -36.4511 O   0  0  0  0  0  0  0  0  0  0  0  0
   96.1610   23.7487  -36.1829 O   0  0  0  0  0  0  0  0  0  0  0  0
  2  1  1  0
  3  2  1  0
  3  4  1  6
  5  3  1  0
  5  7  1  0
  6  5  2  0
  8  7  1  0
  8  9  1  1
 10  9  1  0
 10 11  1  0
 11 12  2  0
 11 15  1  0
 13  8  1  0
 13 18  1  0
 14 13  2  0
 17 18  1  0
 17 16  1  6
 19 17  1  0
 20 19  1  0
 21 19  2  0
M  END
$$$$
