SEA.pdb
     RDKit          3D

 21 20  0  0  1  0  0  0  0  0999 V2000
   29.4054  -20.1015  -21.0107 O   0  0  0  0  0  0  0  0  0  0  0  0
   29.0802  -21.0867  -20.1070 C   0  0  0  0  0  0  0  0  0  0  0  0
   28.3395  -20.4597  -18.9466 C   0  0  2  0  0  0  0  0  0  0  0  0
   29.1558  -19.5432  -18.2022 N   0  0  0  0  0  0  0  0  0  0  0  0
   27.8790  -21.5346  -18.0248 C   0  0  0  0  0  0  0  0  0  0  0  0
   28.3576  -21.6697  -16.8634 O   0  0  0  0  0  0  0  0  0  0  0  0
   26.8742  -22.4592  -18.4182 N   0  0  0  0  0  0  0  0  0  0  0  0
   26.4306  -23.5440  -17.5034 C   0  0  1  0  0  0  0  0  0  0  0  0
   24.9633  -23.6686  -17.6134 C   0  0  0  0  0  0  0  0  0  0  0  0
   24.2746  -24.7556  -16.9061 C   0  0  0  0  0  0  0  0  0  0  0  0
   22.7918  -24.6819  -17.1851 C   0  0  0  0  0  0  0  0  0  0  0  0
   22.0906  -25.7179  -17.1511 O   0  0  0  0  0  0  0  0  0  0  0  0
   27.2496  -24.6979  -17.8429 C   0  0  0  0  0  0  0  0  0  0  0  0
   27.6429  -24.9750  -19.0159 O   0  0  0  0  0  0  0  0  0  0  0  0
   22.1947  -23.4795  -17.4791 O   0  0  0  0  0  0  0  0  0  0  0  0
   28.9668  -27.3708  -15.8243 C   0  0  0  0  0  0  0  0  0  0  0  0
   28.4934  -26.7429  -17.1400 C   0  0  2  0  0  0  0  0  0  0  0  0
   27.6584  -25.5933  -16.8201 N   0  0  0  0  0  0  0  0  0  0  0  0
   27.6863  -27.7432  -17.8390 C   0  0  0  0  0  0  0  0  0  0  0  0
   28.2934  -28.8444  -18.4128 O   0  0  0  0  0  0  0  0  0  0  0  0
   26.4179  -27.6087  -17.9254 O   0  0  0  0  0  0  0  0  0  0  0  0
  2  1  1  0
  3  2  1  0
  3  4  1  1
  5  3  1  0
  5  7  1  0
  6  5  2  0
  8  7  1  0
  8  9  1  6
 10  9  1  0
 10 11  1  0
 11 12  2  0
 11 15  1  0
 13  8  1  0
 13 18  1  0
 14 13  2  0
 17 18  1  0
 17 16  1  1
 19 17  1  0
 20 19  1  0
 21 19  2  0
M  END
$$$$
