SEA.pdb
     RDKit          3D

 21 20  0  0  1  0  0  0  0  0999 V2000
   22.6951  -15.6703  -16.1171 O   0  0  0  0  0  0  0  0  0  0  0  0
   22.4098  -14.5086  -16.7968 C   0  0  0  0  0  0  0  0  0  0  0  0
   20.9773  -14.5646  -17.2796 C   0  0  2  0  0  0  0  0  0  0  0  0
   20.8547  -15.1771  -18.5719 N   0  0  0  0  0  0  0  0  0  0  0  0
   20.4369  -13.1796  -17.3626 C   0  0  0  0  0  0  0  0  0  0  0  0
   20.5510  -12.4790  -18.4078 O   0  0  0  0  0  0  0  0  0  0  0  0
   19.7654  -12.5856  -16.2601 N   0  0  0  0  0  0  0  0  0  0  0  0
   19.1478  -11.2381  -16.3746 C   0  0  1  0  0  0  0  0  0  0  0  0
   17.7742  -11.3133  -15.8378 C   0  0  0  0  0  0  0  0  0  0  0  0
   16.9733  -10.0876  -15.7253 C   0  0  0  0  0  0  0  0  0  0  0  0
   15.6389  -10.4106  -15.0953 C   0  0  0  0  0  0  0  0  0  0  0  0
   14.6790  -10.7841  -15.8062 O   0  0  0  0  0  0  0  0  0  0  0  0
   20.0878  -10.3247  -15.7424 C   0  0  0  0  0  0  0  0  0  0  0  0
   20.6620  -10.5445  -14.6335 O   0  0  0  0  0  0  0  0  0  0  0  0
   15.4616  -10.2990  -13.7371 O   0  0  0  0  0  0  0  0  0  0  0  0
   21.5753   -6.9975  -16.6863 C   0  0  0  0  0  0  0  0  0  0  0  0
   21.1979   -8.0915  -15.6813 C   0  0  2  0  0  0  0  0  0  0  0  0
   20.4116   -9.0987  -16.3803 N   0  0  0  0  0  0  0  0  0  0  0  0
   20.3719   -7.4709  -14.6455 C   0  0  0  0  0  0  0  0  0  0  0  0
   19.0149   -7.7293  -14.5950 O   0  0  0  0  0  0  0  0  0  0  0  0
   20.8948   -6.6872  -13.7813 O   0  0  0  0  0  0  0  0  0  0  0  0
  2  1  1  0
  3  2  1  0
  3  4  1  6
  5  3  1  0
  5  7  1  0
  6  5  2  0
  8  7  1  0
  8  9  1  1
 10  9  1  0
 10 11  1  0
 11 12  2  0
 11 15  1  0
 13  8  1  0
 13 18  1  0
 14 13  2  0
 17 18  1  0
 17 16  1  6
 19 17  1  0
 20 19  1  0
 21 19  2  0
M  END
$$$$
