SEA.pdb
     RDKit          3D

 21 20  0  0  1  0  0  0  0  0999 V2000
   25.5744  -19.8133  -10.0837 O   0  0  0  0  0  0  0  0  0  0  0  0
   24.2928  -20.2241   -9.7973 C   0  0  0  0  0  0  0  0  0  0  0  0
   24.0879  -21.6129  -10.3607 C   0  0  2  0  0  0  0  0  0  0  0  0
   25.1258  -22.5245   -9.9710 N   0  0  0  0  0  0  0  0  0  0  0  0
   24.0631  -21.5365  -11.8476 C   0  0  0  0  0  0  0  0  0  0  0  0
   24.9570  -22.0751  -12.5597 O   0  0  0  0  0  0  0  0  0  0  0  0
   23.0239  -20.8489  -12.5307 N   0  0  0  0  0  0  0  0  0  0  0  0
   22.9416  -20.8644  -14.0150 C   0  0  1  0  0  0  0  0  0  0  0  0
   21.5314  -21.0797  -14.3964 C   0  0  0  0  0  0  0  0  0  0  0  0
   21.1540  -21.0561  -15.8154 C   0  0  0  0  0  0  0  0  0  0  0  0
   19.6680  -21.2923  -15.9482 C   0  0  0  0  0  0  0  0  0  0  0  0
   19.2266  -22.4484  -16.1347 O   0  0  0  0  0  0  0  0  0  0  0  0
   23.5970  -19.6414  -14.4534 C   0  0  0  0  0  0  0  0  0  0  0  0
   23.3821  -18.4964  -13.9531 O   0  0  0  0  0  0  0  0  0  0  0  0
   18.7833  -20.2438  -15.8663 O   0  0  0  0  0  0  0  0  0  0  0  0
   26.7631  -18.8114  -15.9313 C   0  0  0  0  0  0  0  0  0  0  0  0
   25.2642  -18.4914  -15.9099 C   0  0  2  0  0  0  0  0  0  0  0  0
   24.5488  -19.6937  -15.5053 N   0  0  0  0  0  0  0  0  0  0  0  0
   24.8715  -18.1346  -17.2733 C   0  0  0  0  0  0  0  0  0  0  0  0
   25.4208  -17.0226  -17.8833 O   0  0  0  0  0  0  0  0  0  0  0  0
   24.0203  -18.8446  -17.9104 O   0  0  0  0  0  0  0  0  0  0  0  0
  2  1  1  0
  3  2  1  0
  3  4  1  6
  5  3  1  0
  5  7  1  0
  6  5  2  0
  8  7  1  0
  8  9  1  1
 10  9  1  0
 10 11  1  0
 11 12  2  0
 11 15  1  0
 13  8  1  0
 13 18  1  0
 14 13  2  0
 17 18  1  0
 17 16  1  6
 19 17  1  0
 20 19  1  0
 21 19  2  0
M  END
$$$$
