SEA.pdb
     RDKit          3D

 21 20  0  0  1  0  0  0  0  0999 V2000
   24.2379  -13.7798  -18.2722 O   0  0  0  0  0  0  0  0  0  0  0  0
   24.7565  -12.6080  -17.7712 C   0  0  0  0  0  0  0  0  0  0  0  0
   26.1594  -12.8700  -17.2697 C   0  0  2  0  0  0  0  0  0  0  0  0
   26.1916  -13.8179  -16.1923 N   0  0  0  0  0  0  0  0  0  0  0  0
   26.7514  -11.5911  -16.7886 C   0  0  0  0  0  0  0  0  0  0  0  0
   26.8824  -11.3363  -15.5580 O   0  0  0  0  0  0  0  0  0  0  0  0
   27.1963  -10.5980  -17.7023 N   0  0  0  0  0  0  0  0  0  0  0  0
   27.8749   -9.3649  -17.2232 C   0  0  1  0  0  0  0  0  0  0  0  0
   29.2378   -9.3384  -17.7909 C   0  0  0  0  0  0  0  0  0  0  0  0
   30.2149  -10.3524  -17.3742 C   0  0  0  0  0  0  0  0  0  0  0  0
   31.5404  -10.0851  -18.0475 C   0  0  0  0  0  0  0  0  0  0  0  0
   32.5453   -9.7826  -17.3656 O   0  0  0  0  0  0  0  0  0  0  0  0
   26.9699   -8.2724  -17.5472 C   0  0  0  0  0  0  0  0  0  0  0  0
   27.2131   -7.0500  -17.3146 O   0  0  0  0  0  0  0  0  0  0  0  0
   31.6604  -10.1704  -19.4139 O   0  0  0  0  0  0  0  0  0  0  0  0
   23.5889   -8.0594  -19.1962 C   0  0  0  0  0  0  0  0  0  0  0  0
   24.7450   -7.4938  -18.3637 C   0  0  2  0  0  0  0  0  0  0  0  0
   25.7250   -8.5534  -18.1687 N   0  0  0  0  0  0  0  0  0  0  0  0
   24.1994   -7.0991  -17.0649 C   0  0  0  0  0  0  0  0  0  0  0  0
   24.2902   -7.9583  -15.9860 O   0  0  0  0  0  0  0  0  0  0  0  0
   23.6360   -5.9611  -16.9163 O   0  0  0  0  0  0  0  0  0  0  0  0
  2  1  1  0
  3  2  1  0
  3  4  1  1
  5  3  1  0
  5  7  1  0
  6  5  2  0
  8  7  1  0
  8  9  1  6
 10  9  1  0
 10 11  1  0
 11 12  2  0
 11 15  1  0
 13  8  1  0
 13 18  1  0
 14 13  2  0
 17 18  1  0
 17 16  1  6
 19 17  1  0
 20 19  1  0
 21 19  2  0
M  END
$$$$
