CHS.pdb
     RDKit          3D

 23 23  0  0  1  0  0  0  0  0999 V2000
    8.1263  -13.8632   17.1554 N   0  0  0  0  0  0  0  0  0  0  0  0
    8.6448  -13.3972   18.4248 C   0  0  1  0  0  0  0  0  0  0  0  0
    7.4721  -13.1325   19.3257 C   0  0  0  0  0  0  0  0  0  0  0  0
    8.1471  -12.6503   20.9460 S   0  0  0  0  0  0  0  0  0  0  0  0
    9.6264  -14.3300   18.9630 C   0  0  0  0  0  0  0  0  0  0  0  0
    9.4285  -15.5621   18.7928 O   0  0  0  0  0  0  0  0  0  0  0  0
   10.7966  -13.9825   19.6679 N   0  0  0  0  0  0  0  0  0  0  0  0
   11.8160  -14.9112   20.0847 C   0  0  1  0  0  0  0  0  0  0  0  0
   13.2001  -14.3870   20.0952 C   0  0  0  0  0  0  0  0  0  0  0  0
   13.9642  -14.5215   18.8438 C   0  0  0  0  0  0  0  0  0  0  0  0
   13.7165  -15.3017   17.7456 C   0  0  0  0  0  0  0  0  0  0  0  0
   14.6936  -15.1294   16.8063 N   0  0  0  0  0  0  0  0  0  0  0  0
   15.5308  -14.2492   17.3310 C   0  0  0  0  0  0  0  0  0  0  0  0
   15.1274  -13.8623   18.5500 N   0  0  0  0  0  0  0  0  0  0  0  0
   11.5420  -15.4154   21.4760 C   0  0  0  0  0  0  0  0  0  0  0  0
   11.0448  -14.5747   22.2732 O   0  0  0  0  0  0  0  0  0  0  0  0
    9.8852  -18.6550   24.3105 O   0  0  0  0  0  0  0  0  0  0  0  0
   10.2122  -18.1392   23.0585 C   0  0  0  0  0  0  0  0  0  0  0  0
   11.4075  -17.2075   23.1627 C   0  0  2  0  0  0  0  0  0  0  0  0
   11.8256  -16.7504   21.8627 N   0  0  0  0  0  0  0  0  0  0  0  0
   12.5163  -17.8354   23.9223 C   0  0  0  0  0  0  0  0  0  0  0  0
   12.4151  -18.0540   25.2881 O   0  0  0  0  0  0  0  0  0  0  0  0
   13.5760  -18.1857   23.3487 O   0  0  0  0  0  0  0  0  0  0  0  0
  2  1  1  6
  3  2  1  0
  4  3  1  0
  5  2  1  0
  6  5  2  0
  7  5  1  0
  8  7  1  0
  9 10  1  0
  8  9  1  1
 10 11  2  0
 12 11  1  0
 13 12  1  0
 14 13  2  0
 14 10  1  0
 15 20  1  0
 15  8  1  0
 16 15  2  0
 18 17  1  0
 19 20  1  0
 19 18  1  6
 21 19  1  0
 21 22  1  0
 23 21  2  0
M  END
$$$$
