CHS.pdb
     RDKit          3D

 23 23  0  0  1  0  0  0  0  0999 V2000
    8.3857  -13.7070   17.0874 N   0  0  0  0  0  0  0  0  0  0  0  0
    8.7635  -13.4231   18.4564 C   0  0  1  0  0  0  0  0  0  0  0  0
    7.5001  -13.2769   19.2561 C   0  0  0  0  0  0  0  0  0  0  0  0
    7.9971  -12.9705   20.9802 S   0  0  0  0  0  0  0  0  0  0  0  0
    9.6902  -14.4274   18.9621 C   0  0  0  0  0  0  0  0  0  0  0  0
    9.4964  -15.6291   18.6384 O   0  0  0  0  0  0  0  0  0  0  0  0
   10.8022  -14.1818   19.7929 N   0  0  0  0  0  0  0  0  0  0  0  0
   11.7254  -15.1863   20.2556 C   0  0  1  0  0  0  0  0  0  0  0  0
   13.1542  -14.8003   20.2497 C   0  0  0  0  0  0  0  0  0  0  0  0
   13.8865  -15.0068   18.9892 C   0  0  0  0  0  0  0  0  0  0  0  0
   14.2867  -14.0947   18.0489 C   0  0  0  0  0  0  0  0  0  0  0  0
   14.9320  -14.7203   17.0200 N   0  0  0  0  0  0  0  0  0  0  0  0
   14.9239  -16.0060   17.3331 C   0  0  0  0  0  0  0  0  0  0  0  0
   14.3067  -16.2163   18.5050 N   0  0  0  0  0  0  0  0  0  0  0  0
   11.4023  -15.5989   21.6663 C   0  0  0  0  0  0  0  0  0  0  0  0
   11.2264  -14.6556   22.4841 O   0  0  0  0  0  0  0  0  0  0  0  0
    9.8628  -19.2394   22.6910 O   0  0  0  0  0  0  0  0  0  0  0  0
    9.7900  -18.1480   23.5536 C   0  0  0  0  0  0  0  0  0  0  0  0
   11.0338  -17.2851   23.4257 C   0  0  2  0  0  0  0  0  0  0  0  0
   11.3028  -16.9613   22.0486 N   0  0  0  0  0  0  0  0  0  0  0  0
   12.1987  -17.9154   24.0939 C   0  0  0  0  0  0  0  0  0  0  0  0
   13.3806  -18.1458   23.4059 O   0  0  0  0  0  0  0  0  0  0  0  0
   12.1454  -18.2569   25.3002 O   0  0  0  0  0  0  0  0  0  0  0  0
  2  1  1  6
  3  2  1  0
  4  3  1  0
  5  2  1  0
  6  5  2  0
  7  5  1  0
  8  7  1  0
  9 10  1  0
  8  9  1  1
 10 11  2  0
 12 11  1  0
 13 12  1  0
 14 13  2  0
 14 10  1  0
 15 20  1  0
 15  8  1  0
 16 15  2  0
 18 17  1  0
 19 20  1  0
 19 18  1  6
 21 19  1  0
 21 22  1  0
 23 21  2  0
M  END
$$$$
