CHS.pdb
     RDKit          3D

 23 23  0  0  1  0  0  0  0  0999 V2000
    8.6872  -18.9160   16.7226 N   0  0  0  0  0  0  0  0  0  0  0  0
    8.1009  -18.7777   18.0397 C   0  0  1  0  0  0  0  0  0  0  0  0
    7.8611  -20.1596   18.5783 C   0  0  0  0  0  0  0  0  0  0  0  0
    9.4608  -20.7736   19.1925 S   0  0  0  0  0  0  0  0  0  0  0  0
    8.9226  -17.9276   18.8913 C   0  0  0  0  0  0  0  0  0  0  0  0
   10.0552  -17.5793   18.4647 O   0  0  0  0  0  0  0  0  0  0  0  0
    8.5679  -17.4481   20.1685 N   0  0  0  0  0  0  0  0  0  0  0  0
    9.3393  -16.5084   20.9415 C   0  0  1  0  0  0  0  0  0  0  0  0
    8.5894  -15.3570   21.4915 C   0  0  0  0  0  0  0  0  0  0  0  0
    8.1464  -14.3381   20.5254 C   0  0  0  0  0  0  0  0  0  0  0  0
    8.3397  -14.2722   19.1710 C   0  0  0  0  0  0  0  0  0  0  0  0
    7.7672  -13.1416   18.6605 N   0  0  0  0  0  0  0  0  0  0  0  0
    7.2289  -12.5234   19.6993 C   0  0  0  0  0  0  0  0  0  0  0  0
    7.4354  -13.2094   20.8330 N   0  0  0  0  0  0  0  0  0  0  0  0
    9.9915  -17.1901   22.1140 C   0  0  0  0  0  0  0  0  0  0  0  0
    9.3305  -18.1274   22.6373 O   0  0  0  0  0  0  0  0  0  0  0  0
   13.7825  -16.1142   23.6610 O   0  0  0  0  0  0  0  0  0  0  0  0
   13.4212  -17.4545   23.5437 C   0  0  0  0  0  0  0  0  0  0  0  0
   11.9107  -17.6054   23.6036 C   0  0  2  0  0  0  0  0  0  0  0  0
   11.2674  -16.8012   22.5970 N   0  0  0  0  0  0  0  0  0  0  0  0
   11.3939  -17.3230   24.9651 C   0  0  0  0  0  0  0  0  0  0  0  0
   11.8448  -18.0376   26.0649 O   0  0  0  0  0  0  0  0  0  0  0  0
   10.5344  -16.4293   25.1580 O   0  0  0  0  0  0  0  0  0  0  0  0
  2  1  1  6
  3  2  1  0
  4  3  1  0
  5  2  1  0
  6  5  2  0
  7  5  1  0
  8  7  1  0
  9 10  1  0
  8  9  1  1
 10 11  2  0
 12 11  1  0
 13 12  1  0
 14 13  2  0
 14 10  1  0
 15 20  1  0
 15  8  1  0
 16 15  2  0
 18 17  1  0
 19 20  1  0
 19 18  1  1
 21 19  1  0
 21 22  1  0
 23 21  2  0
M  END
$$$$
