CHS.pdb
     RDKit          3D

 23 23  0  0  1  0  0  0  0  0999 V2000
    8.2935  -13.3511   17.0446 N   0  0  0  0  0  0  0  0  0  0  0  0
    8.9348  -13.1524   18.3279 C   0  0  1  0  0  0  0  0  0  0  0  0
    7.8557  -13.0913   19.3712 C   0  0  0  0  0  0  0  0  0  0  0  0
    8.6857  -12.9246   20.9826 S   0  0  0  0  0  0  0  0  0  0  0  0
    9.9537  -14.1664   18.5658 C   0  0  0  0  0  0  0  0  0  0  0  0
    9.7482  -15.3280   18.1245 O   0  0  0  0  0  0  0  0  0  0  0  0
   11.1686  -13.9715   19.2537 N   0  0  0  0  0  0  0  0  0  0  0  0
   12.1413  -15.0003   19.5198 C   0  0  1  0  0  0  0  0  0  0  0  0
   13.5313  -14.6936   19.1141 C   0  0  0  0  0  0  0  0  0  0  0  0
   13.9373  -15.1358   17.7697 C   0  0  0  0  0  0  0  0  0  0  0  0
   14.5997  -14.4516   16.7852 C   0  0  0  0  0  0  0  0  0  0  0  0
   14.7636  -15.2404   15.6818 N   0  0  0  0  0  0  0  0  0  0  0  0
   14.2035  -16.3979   15.9939 C   0  0  0  0  0  0  0  0  0  0  0  0
   13.6979  -16.3734   17.2358 N   0  0  0  0  0  0  0  0  0  0  0  0
   12.1886  -15.3228   20.9890 C   0  0  0  0  0  0  0  0  0  0  0  0
   12.5820  -14.3899   21.7402 O   0  0  0  0  0  0  0  0  0  0  0  0
   10.2869  -18.5882   22.6668 O   0  0  0  0  0  0  0  0  0  0  0  0
   10.6345  -17.4816   23.4383 C   0  0  0  0  0  0  0  0  0  0  0  0
   11.9069  -16.8426   22.9088 C   0  0  2  0  0  0  0  0  0  0  0  0
   11.8144  -16.5948   21.4932 N   0  0  0  0  0  0  0  0  0  0  0  0
   13.1022  -17.6468   23.2627 C   0  0  0  0  0  0  0  0  0  0  0  0
   13.9875  -18.0812   22.2876 O   0  0  0  0  0  0  0  0  0  0  0  0
   13.3440  -17.9555   24.4547 O   0  0  0  0  0  0  0  0  0  0  0  0
  2  1  1  6
  3  2  1  0
  4  3  1  0
  5  2  1  0
  6  5  2  0
  7  5  1  0
  8  7  1  0
  9 10  1  0
  8  9  1  1
 10 11  2  0
 12 11  1  0
 13 12  1  0
 14 13  2  0
 14 10  1  0
 15 20  1  0
 15  8  1  0
 16 15  2  0
 18 17  1  0
 19 20  1  0
 19 18  1  6
 21 19  1  0
 21 22  1  0
 23 21  2  0
M  END
$$$$
