CHS.pdb
     RDKit          3D

 23 23  0  0  1  0  0  0  0  0999 V2000
    5.7233  -19.0917   19.5996 N   0  0  0  0  0  0  0  0  0  0  0  0
    5.5333  -18.2927   20.7926 C   0  0  1  0  0  0  0  0  0  0  0  0
    5.1887  -19.2280   21.9165 C   0  0  0  0  0  0  0  0  0  0  0  0
    4.8902  -18.1998   23.3886 S   0  0  0  0  0  0  0  0  0  0  0  0
    6.6900  -17.4425   21.0422 C   0  0  0  0  0  0  0  0  0  0  0  0
    7.8320  -17.9026   20.7767 O   0  0  0  0  0  0  0  0  0  0  0  0
    6.6558  -16.1323   21.5610 N   0  0  0  0  0  0  0  0  0  0  0  0
    7.8158  -15.3337   21.8649 C   0  0  1  0  0  0  0  0  0  0  0  0
    7.7850  -13.9385   21.3720 C   0  0  0  0  0  0  0  0  0  0  0  0
    7.9141  -13.7514   19.9173 C   0  0  0  0  0  0  0  0  0  0  0  0
    7.0239  -13.2247   19.0193 C   0  0  0  0  0  0  0  0  0  0  0  0
    7.5460  -13.2507   17.7570 N   0  0  0  0  0  0  0  0  0  0  0  0
    8.7471  -13.7906   17.8871 C   0  0  0  0  0  0  0  0  0  0  0  0
    9.0028  -14.1035   19.1658 N   0  0  0  0  0  0  0  0  0  0  0  0
    8.0345  -15.2546   23.3517 C   0  0  0  0  0  0  0  0  0  0  0  0
    7.0208  -14.9511   24.0372 O   0  0  0  0  0  0  0  0  0  0  0  0
    8.5962  -18.0654   26.4607 O   0  0  0  0  0  0  0  0  0  0  0  0
    8.5355  -17.4425   25.2162 C   0  0  0  0  0  0  0  0  0  0  0  0
    9.3595  -16.1662   25.2194 C   0  0  2  0  0  0  0  0  0  0  0  0
    9.3002  -15.5056   23.9412 N   0  0  0  0  0  0  0  0  0  0  0  0
   10.7536  -16.4251   25.6553 C   0  0  0  0  0  0  0  0  0  0  0  0
   11.0512  -16.6889   26.9840 O   0  0  0  0  0  0  0  0  0  0  0  0
   11.7012  -16.4123   24.8329 O   0  0  0  0  0  0  0  0  0  0  0  0
  2  1  1  6
  3  2  1  0
  4  3  1  0
  5  2  1  0
  6  5  2  0
  7  5  1  0
  8  7  1  0
  9 10  1  0
  8  9  1  1
 10 11  2  0
 12 11  1  0
 13 12  1  0
 14 13  2  0
 14 10  1  0
 15 20  1  0
 15  8  1  0
 16 15  2  0
 18 17  1  0
 19 20  1  0
 19 18  1  6
 21 19  1  0
 21 22  1  0
 23 21  2  0
M  END
$$$$
