CHS.pdb
     RDKit          3D

 23 23  0  0  1  0  0  0  0  0999 V2000
   -0.5098  -21.7785   21.3409 N   0  0  0  0  0  0  0  0  0  0  0  0
   -0.7962  -21.4499   22.7221 C   0  0  1  0  0  0  0  0  0  0  0  0
   -1.0603  -19.9727   22.7929 C   0  0  0  0  0  0  0  0  0  0  0  0
    0.5356  -19.1363   22.5340 S   0  0  0  0  0  0  0  0  0  0  0  0
   -1.8688  -22.2850   23.2467 C   0  0  0  0  0  0  0  0  0  0  0  0
   -2.7901  -22.6298   22.4602 O   0  0  0  0  0  0  0  0  0  0  0  0
   -1.9785  -22.7532   24.5718 N   0  0  0  0  0  0  0  0  0  0  0  0
   -2.9867  -23.6676   25.0438 C   0  0  1  0  0  0  0  0  0  0  0  0
   -2.5044  -25.0081   25.4447 C   0  0  0  0  0  0  0  0  0  0  0  0
   -2.0623  -25.9001   24.3599 C   0  0  0  0  0  0  0  0  0  0  0  0
   -2.7812  -26.7983   23.6165 C   0  0  0  0  0  0  0  0  0  0  0  0
   -1.9709  -27.4317   22.7170 N   0  0  0  0  0  0  0  0  0  0  0  0
   -0.7659  -26.9213   22.9130 C   0  0  0  0  0  0  0  0  0  0  0  0
   -0.7811  -26.0013   23.8886 N   0  0  0  0  0  0  0  0  0  0  0  0
   -3.7052  -23.0997   26.2380 C   0  0  0  0  0  0  0  0  0  0  0  0
   -2.9979  -22.4154   27.0259 O   0  0  0  0  0  0  0  0  0  0  0  0
   -7.6629  -24.1215   27.3487 O   0  0  0  0  0  0  0  0  0  0  0  0
   -7.2202  -22.8142   27.5377 C   0  0  0  0  0  0  0  0  0  0  0  0
   -5.7051  -22.7755   27.6417 C   0  0  2  0  0  0  0  0  0  0  0  0
   -5.0886  -23.3215   26.4603 N   0  0  0  0  0  0  0  0  0  0  0  0
   -5.2323  -23.4390   28.8814 C   0  0  0  0  0  0  0  0  0  0  0  0
   -5.5897  -22.9580   30.1321 O   0  0  0  0  0  0  0  0  0  0  0  0
   -4.4959  -24.4537   28.8312 O   0  0  0  0  0  0  0  0  0  0  0  0
  2  1  1  6
  3  2  1  0
  4  3  1  0
  5  2  1  0
  6  5  2  0
  7  5  1  0
  8  7  1  0
  9 10  1  0
  8  9  1  1
 10 11  2  0
 12 11  1  0
 13 12  1  0
 14 13  2  0
 14 10  1  0
 15 20  1  0
 15  8  1  0
 16 15  2  0
 18 17  1  0
 19 20  1  0
 19 18  1  6
 21 19  1  0
 21 22  1  0
 23 21  2  0
M  END
$$$$
