CHS.pdb
     RDKit          3D

 23 23  0  0  1  0  0  0  0  0999 V2000
    7.9232  -12.1017   25.7720 N   0  0  0  0  0  0  0  0  0  0  0  0
    6.9162  -13.1141   26.0141 C   0  0  1  0  0  0  0  0  0  0  0  0
    5.5713  -12.4745   25.8162 C   0  0  0  0  0  0  0  0  0  0  0  0
    5.1293  -11.6731   27.3896 S   0  0  0  0  0  0  0  0  0  0  0  0
    7.1542  -14.2950   25.1945 C   0  0  0  0  0  0  0  0  0  0  0  0
    6.3063  -15.2254   25.2352 O   0  0  0  0  0  0  0  0  0  0  0  0
    8.2601  -14.5021   24.3452 N   0  0  0  0  0  0  0  0  0  0  0  0
    8.5281  -15.7175   23.6196 C   0  0  1  0  0  0  0  0  0  0  0  0
    9.1383  -15.5484   22.2819 C   0  0  0  0  0  0  0  0  0  0  0  0
    8.4084  -14.6960   21.3286 C   0  0  0  0  0  0  0  0  0  0  0  0
    7.0999  -14.7517   20.9275 C   0  0  0  0  0  0  0  0  0  0  0  0
    6.8383  -13.7722   20.0116 N   0  0  0  0  0  0  0  0  0  0  0  0
    7.9820  -13.1249   19.8566 C   0  0  0  0  0  0  0  0  0  0  0  0
    8.9451  -13.6492   20.6286 N   0  0  0  0  0  0  0  0  0  0  0  0
    9.4544  -16.6113   24.3994 C   0  0  0  0  0  0  0  0  0  0  0  0
   10.4015  -16.0296   24.9945 O   0  0  0  0  0  0  0  0  0  0  0  0
    8.3730  -19.8053   26.4959 O   0  0  0  0  0  0  0  0  0  0  0  0
    9.4998  -20.0904   25.7279 C   0  0  0  0  0  0  0  0  0  0  0  0
   10.1666  -18.8064   25.2648 C   0  0  2  0  0  0  0  0  0  0  0  0
    9.2714  -18.0167   24.4593 N   0  0  0  0  0  0  0  0  0  0  0  0
   11.4497  -19.0836   24.5738 C   0  0  0  0  0  0  0  0  0  0  0  0
   12.4822  -19.7470   25.2197 O   0  0  0  0  0  0  0  0  0  0  0  0
   11.6349  -18.7250   23.3857 O   0  0  0  0  0  0  0  0  0  0  0  0
  2  1  1  6
  3  2  1  0
  4  3  1  0
  5  2  1  0
  6  5  2  0
  7  5  1  0
  8  7  1  0
  9 10  1  0
  8  9  1  6
 10 11  2  0
 12 11  1  0
 13 12  1  0
 14 13  2  0
 14 10  1  0
 15 20  1  0
 15  8  1  0
 16 15  2  0
 18 17  1  0
 19 20  1  0
 19 18  1  6
 21 19  1  0
 21 22  1  0
 23 21  2  0
M  END
$$$$
