CHS.pdb
     RDKit          3D

 23 23  0  0  1  0  0  0  0  0999 V2000
    9.0384  -19.5310   16.4789 N   0  0  0  0  0  0  0  0  0  0  0  0
    9.0643  -19.3388   17.9141 C   0  0  1  0  0  0  0  0  0  0  0  0
    7.6446  -19.3777   18.4040 C   0  0  0  0  0  0  0  0  0  0  0  0
    7.7045  -19.2077   20.2153 S   0  0  0  0  0  0  0  0  0  0  0  0
    9.9547  -20.2981   18.5543 C   0  0  0  0  0  0  0  0  0  0  0  0
    9.7045  -21.5244   18.4134 O   0  0  0  0  0  0  0  0  0  0  0  0
   11.0890  -19.9829   19.3296 N   0  0  0  0  0  0  0  0  0  0  0  0
   11.9402  -20.9474   19.9781 C   0  0  1  0  0  0  0  0  0  0  0  0
   13.3207  -21.0445   19.4535 C   0  0  0  0  0  0  0  0  0  0  0  0
   13.4710  -21.5863   18.0927 C   0  0  0  0  0  0  0  0  0  0  0  0
   13.7840  -20.9445   16.9238 C   0  0  0  0  0  0  0  0  0  0  0  0
   13.8072  -21.8299   15.8834 N   0  0  0  0  0  0  0  0  0  0  0  0
   13.5096  -23.0036   16.4173 C   0  0  0  0  0  0  0  0  0  0  0  0
   13.3016  -22.8976   17.7378 N   0  0  0  0  0  0  0  0  0  0  0  0
   12.0641  -20.6472   21.4476 C   0  0  0  0  0  0  0  0  0  0  0  0
   12.3921  -19.4648   21.7373 O   0  0  0  0  0  0  0  0  0  0  0  0
    9.7708  -22.2901   24.2864 O   0  0  0  0  0  0  0  0  0  0  0  0
   11.1019  -22.2325   24.6933 C   0  0  0  0  0  0  0  0  0  0  0  0
   11.8804  -21.2554   23.8290 C   0  0  2  0  0  0  0  0  0  0  0  0
   11.8266  -21.6324   22.4402 N   0  0  0  0  0  0  0  0  0  0  0  0
   13.2727  -21.0955   24.3155 C   0  0  0  0  0  0  0  0  0  0  0  0
   13.5605  -20.2990   25.4138 O   0  0  0  0  0  0  0  0  0  0  0  0
   14.2275  -21.6770   23.7458 O   0  0  0  0  0  0  0  0  0  0  0  0
  2  1  1  6
  3  2  1  0
  4  3  1  0
  5  2  1  0
  6  5  2  0
  7  5  1  0
  8  7  1  0
  9 10  1  0
  8  9  1  6
 10 11  2  0
 12 11  1  0
 13 12  1  0
 14 13  2  0
 14 10  1  0
 15 20  1  0
 15  8  1  0
 16 15  2  0
 18 17  1  0
 19 20  1  0
 19 18  1  1
 21 19  1  0
 21 22  1  0
 23 21  2  0
M  END
$$$$
