CHS.pdb
     RDKit          3D

 23 23  0  0  1  0  0  0  0  0999 V2000
   11.2362  -16.5439   15.4421 N   0  0  0  0  0  0  0  0  0  0  0  0
   11.5693  -15.6012   16.4899 C   0  0  1  0  0  0  0  0  0  0  0  0
   10.7597  -15.9637   17.7023 C   0  0  0  0  0  0  0  0  0  0  0  0
    9.0195  -15.6105   17.3021 S   0  0  0  0  0  0  0  0  0  0  0  0
   13.0086  -15.5534   16.7121 C   0  0  0  0  0  0  0  0  0  0  0  0
   13.6951  -16.5509   16.3659 O   0  0  0  0  0  0  0  0  0  0  0  0
   13.7207  -14.4811   17.2867 N   0  0  0  0  0  0  0  0  0  0  0  0
   15.1551  -14.4077   17.3980 C   0  0  1  0  0  0  0  0  0  0  0  0
   15.7595  -13.0933   17.0857 C   0  0  0  0  0  0  0  0  0  0  0  0
   17.2305  -13.0308   17.0767 C   0  0  0  0  0  0  0  0  0  0  0  0
   18.0863  -12.4091   17.9470 C   0  0  0  0  0  0  0  0  0  0  0  0
   19.3826  -12.5937   17.5569 N   0  0  0  0  0  0  0  0  0  0  0  0
   19.3150  -13.3235   16.4551 C   0  0  0  0  0  0  0  0  0  0  0  0
   18.0431  -13.6047   16.1364 N   0  0  0  0  0  0  0  0  0  0  0  0
   15.6010  -14.7602   18.7916 C   0  0  0  0  0  0  0  0  0  0  0  0
   15.0183  -14.1428   19.7236 O   0  0  0  0  0  0  0  0  0  0  0  0
   17.4980  -18.2506   19.6267 O   0  0  0  0  0  0  0  0  0  0  0  0
   16.8573  -17.5471   20.6441 C   0  0  0  0  0  0  0  0  0  0  0  0
   16.9528  -16.0510   20.3981 C   0  0  2  0  0  0  0  0  0  0  0  0
   16.6115  -15.7248   19.0376 N   0  0  0  0  0  0  0  0  0  0  0  0
   18.2842  -15.5244   20.7864 C   0  0  0  0  0  0  0  0  0  0  0  0
   18.7495  -15.6427   22.0876 O   0  0  0  0  0  0  0  0  0  0  0  0
   19.0252  -14.9575   19.9473 O   0  0  0  0  0  0  0  0  0  0  0  0
  2  1  1  6
  3  2  1  0
  4  3  1  0
  5  2  1  0
  6  5  2  0
  7  5  1  0
  8  7  1  0
  9 10  1  0
  8  9  1  1
 10 11  2  0
 12 11  1  0
 13 12  1  0
 14 13  2  0
 14 10  1  0
 15 20  1  0
 15  8  1  0
 16 15  2  0
 18 17  1  0
 19 20  1  0
 19 18  1  6
 21 19  1  0
 21 22  1  0
 23 21  2  0
M  END
$$$$
