CHS.pdb
     RDKit          3D

 23 23  0  0  1  0  0  0  0  0999 V2000
    7.6848  -15.0698   16.6436 N   0  0  0  0  0  0  0  0  0  0  0  0
    8.3968  -14.7077   17.8517 C   0  0  1  0  0  0  0  0  0  0  0  0
    7.6186  -13.6152   18.5284 C   0  0  0  0  0  0  0  0  0  0  0  0
    7.9970  -12.0697   17.6443 S   0  0  0  0  0  0  0  0  0  0  0  0
    8.6480  -15.8787   18.6816 C   0  0  0  0  0  0  0  0  0  0  0  0
    7.7071  -16.6990   18.8494 O   0  0  0  0  0  0  0  0  0  0  0  0
    9.8624  -16.1892   19.3266 N   0  0  0  0  0  0  0  0  0  0  0  0
   10.1078  -17.3829   20.0948 C   0  0  1  0  0  0  0  0  0  0  0  0
   10.8547  -18.4548   19.3993 C   0  0  0  0  0  0  0  0  0  0  0  0
   10.1073  -19.2355   18.3994 C   0  0  0  0  0  0  0  0  0  0  0  0
    9.5448  -18.8345   17.2166 C   0  0  0  0  0  0  0  0  0  0  0  0
    8.9293  -19.8863   16.5989 N   0  0  0  0  0  0  0  0  0  0  0  0
    9.1166  -20.9211   17.4021 C   0  0  0  0  0  0  0  0  0  0  0  0
    9.8175  -20.5704   18.4903 N   0  0  0  0  0  0  0  0  0  0  0  0
   10.8858  -17.0638   21.3429 C   0  0  0  0  0  0  0  0  0  0  0  0
   11.8521  -16.2676   21.1951 O   0  0  0  0  0  0  0  0  0  0  0  0
   11.5368  -17.5506   26.1260 O   0  0  0  0  0  0  0  0  0  0  0  0
   10.7250  -17.8315   25.0292 C   0  0  0  0  0  0  0  0  0  0  0  0
   11.3391  -17.2742   23.7564 C   0  0  2  0  0  0  0  0  0  0  0  0
   10.5515  -17.6238   22.6026 N   0  0  0  0  0  0  0  0  0  0  0  0
   12.7572  -17.6865   23.6161 C   0  0  0  0  0  0  0  0  0  0  0  0
   13.7833  -16.9105   24.1345 O   0  0  0  0  0  0  0  0  0  0  0  0
   13.0662  -18.7489   23.0244 O   0  0  0  0  0  0  0  0  0  0  0  0
  2  1  1  6
  3  2  1  0
  4  3  1  0
  5  2  1  0
  6  5  2  0
  7  5  1  0
  8  7  1  0
  9 10  1  0
  8  9  1  6
 10 11  2  0
 12 11  1  0
 13 12  1  0
 14 13  2  0
 14 10  1  0
 15 20  1  0
 15  8  1  0
 16 15  2  0
 18 17  1  0
 19 20  1  0
 19 18  1  1
 21 19  1  0
 21 22  1  0
 23 21  2  0
M  END
$$$$
