CHS.pdb
     RDKit          3D

 23 23  0  0  1  0  0  0  0  0999 V2000
    7.9161  -13.6518   17.2977 N   0  0  0  0  0  0  0  0  0  0  0  0
    8.4962  -13.3853   18.5977 C   0  0  1  0  0  0  0  0  0  0  0  0
    7.3820  -13.4017   19.6053 C   0  0  0  0  0  0  0  0  0  0  0  0
    8.1452  -13.1795   21.2427 S   0  0  0  0  0  0  0  0  0  0  0  0
    9.5871  -14.3082   18.8828 C   0  0  0  0  0  0  0  0  0  0  0  0
    9.4658  -15.5037   18.5054 O   0  0  0  0  0  0  0  0  0  0  0  0
   10.7863  -13.9888   19.5513 N   0  0  0  0  0  0  0  0  0  0  0  0
   11.8380  -14.9256   19.8539 C   0  0  1  0  0  0  0  0  0  0  0  0
   13.2182  -14.4373   19.6372 C   0  0  0  0  0  0  0  0  0  0  0  0
   13.8568  -14.8124   18.3645 C   0  0  0  0  0  0  0  0  0  0  0  0
   13.4526  -15.7108   17.4129 C   0  0  0  0  0  0  0  0  0  0  0  0
   14.3544  -15.7596   16.3876 N   0  0  0  0  0  0  0  0  0  0  0  0
   15.3018  -14.8955   16.7147 C   0  0  0  0  0  0  0  0  0  0  0  0
   15.0387  -14.3090   17.8916 N   0  0  0  0  0  0  0  0  0  0  0  0
   11.7636  -15.3657   21.2911 C   0  0  0  0  0  0  0  0  0  0  0  0
   11.6880  -14.4389   22.1425 O   0  0  0  0  0  0  0  0  0  0  0  0
   10.5800  -19.1237   22.4185 O   0  0  0  0  0  0  0  0  0  0  0  0
   10.5026  -18.0368   23.2864 C   0  0  0  0  0  0  0  0  0  0  0  0
   11.6644  -17.0861   23.0532 C   0  0  2  0  0  0  0  0  0  0  0  0
   11.7777  -16.7350   21.6612 N   0  0  0  0  0  0  0  0  0  0  0  0
   12.9291  -17.6355   23.6002 C   0  0  0  0  0  0  0  0  0  0  0  0
   13.0475  -17.9592   24.9436 O   0  0  0  0  0  0  0  0  0  0  0  0
   13.9261  -17.8220   22.8614 O   0  0  0  0  0  0  0  0  0  0  0  0
  2  1  1  6
  3  2  1  0
  4  3  1  0
  5  2  1  0
  6  5  2  0
  7  5  1  0
  8  7  1  0
  9 10  1  0
  8  9  1  1
 10 11  2  0
 12 11  1  0
 13 12  1  0
 14 13  2  0
 14 10  1  0
 15 20  1  0
 15  8  1  0
 16 15  2  0
 18 17  1  0
 19 20  1  0
 19 18  1  6
 21 19  1  0
 21 22  1  0
 23 21  2  0
M  END
$$$$
