CHS.pdb
     RDKit          3D

 23 23  0  0  1  0  0  0  0  0999 V2000
   11.2749  -15.3228   14.4033 N   0  0  0  0  0  0  0  0  0  0  0  0
   10.9457  -16.0453   15.6145 C   0  0  1  0  0  0  0  0  0  0  0  0
   11.4353  -17.4561   15.4501 C   0  0  0  0  0  0  0  0  0  0  0  0
   13.2422  -17.4182   15.6670 S   0  0  0  0  0  0  0  0  0  0  0  0
   11.4605  -15.3564   16.7907 C   0  0  0  0  0  0  0  0  0  0  0  0
   11.9067  -14.1877   16.6450 O   0  0  0  0  0  0  0  0  0  0  0  0
   11.5090  -15.8789   18.0990 N   0  0  0  0  0  0  0  0  0  0  0  0
   11.7103  -15.0984   19.2931 C   0  0  1  0  0  0  0  0  0  0  0  0
   10.5125  -14.8914   20.1374 C   0  0  0  0  0  0  0  0  0  0  0  0
    9.4401  -14.0599   19.5659 C   0  0  0  0  0  0  0  0  0  0  0  0
    9.4291  -13.3111   18.4190 C   0  0  0  0  0  0  0  0  0  0  0  0
    8.2258  -12.6813   18.2707 N   0  0  0  0  0  0  0  0  0  0  0  0
    7.5093  -13.0453   19.3220 C   0  0  0  0  0  0  0  0  0  0  0  0
    8.2028  -13.8703   20.1200 N   0  0  0  0  0  0  0  0  0  0  0  0
   12.7490  -15.7341   20.1774 C   0  0  0  0  0  0  0  0  0  0  0  0
   12.5784  -16.9582   20.4267 O   0  0  0  0  0  0  0  0  0  0  0  0
   16.2765  -13.7405   21.2442 O   0  0  0  0  0  0  0  0  0  0  0  0
   16.2696  -15.1095   20.9862 C   0  0  0  0  0  0  0  0  0  0  0  0
   14.9209  -15.7111   21.3423 C   0  0  2  0  0  0  0  0  0  0  0  0
   13.8477  -15.0015   20.6954 N   0  0  0  0  0  0  0  0  0  0  0  0
   14.7372  -15.7915   22.8122 C   0  0  0  0  0  0  0  0  0  0  0  0
   15.6441  -16.4718   23.6111 O   0  0  0  0  0  0  0  0  0  0  0  0
   13.7558  -15.2457   23.3720 O   0  0  0  0  0  0  0  0  0  0  0  0
  2  1  1  6
  3  2  1  0
  4  3  1  0
  5  2  1  0
  6  5  2  0
  7  5  1  0
  8  7  1  0
  9 10  1  0
  8  9  1  1
 10 11  2  0
 12 11  1  0
 13 12  1  0
 14 13  2  0
 14 10  1  0
 15 20  1  0
 15  8  1  0
 16 15  2  0
 18 17  1  0
 19 20  1  0
 19 18  1  1
 21 19  1  0
 21 22  1  0
 23 21  2  0
M  END
$$$$
