CHS.pdb
     RDKit          3D

 23 23  0  0  1  0  0  0  0  0999 V2000
    8.0550  -19.1127   14.0633 N   0  0  0  0  0  0  0  0  0  0  0  0
    9.2513  -19.7975   14.5077 C   0  0  1  0  0  0  0  0  0  0  0  0
   10.4210  -18.8966   14.2296 C   0  0  0  0  0  0  0  0  0  0  0  0
   10.5975  -18.8011   12.4204 S   0  0  0  0  0  0  0  0  0  0  0  0
    9.1265  -20.2204   15.8964 C   0  0  0  0  0  0  0  0  0  0  0  0
    8.2755  -19.6376   16.6192 O   0  0  0  0  0  0  0  0  0  0  0  0
    9.8782  -21.2359   16.5216 N   0  0  0  0  0  0  0  0  0  0  0  0
    9.7179  -21.6590   17.8893 C   0  0  1  0  0  0  0  0  0  0  0  0
    9.7469  -23.1207   18.1195 C   0  0  0  0  0  0  0  0  0  0  0  0
    9.5395  -23.5730   19.5053 C   0  0  0  0  0  0  0  0  0  0  0  0
    9.3583  -22.8401   20.6482 C   0  0  0  0  0  0  0  0  0  0  0  0
    9.2143  -23.6651   21.7276 N   0  0  0  0  0  0  0  0  0  0  0  0
    9.3078  -24.8931   21.2433 C   0  0  0  0  0  0  0  0  0  0  0  0
    9.5027  -24.8781   19.9166 N   0  0  0  0  0  0  0  0  0  0  0  0
   10.7951  -21.0702   18.7598 C   0  0  0  0  0  0  0  0  0  0  0  0
   11.9259  -20.9418   18.2172 O   0  0  0  0  0  0  0  0  0  0  0  0
   10.1500  -19.9900   22.7507 O   0  0  0  0  0  0  0  0  0  0  0  0
   11.0088  -19.2019   21.9878 C   0  0  0  0  0  0  0  0  0  0  0  0
   11.5881  -20.0069   20.8371 C   0  0  2  0  0  0  0  0  0  0  0  0
   10.5514  -20.6854   20.1032 N   0  0  0  0  0  0  0  0  0  0  0  0
   12.6455  -20.9354   21.3069 C   0  0  0  0  0  0  0  0  0  0  0  0
   13.8592  -20.4586   21.7790 O   0  0  0  0  0  0  0  0  0  0  0  0
   12.4695  -22.1777   21.2894 O   0  0  0  0  0  0  0  0  0  0  0  0
  2  1  1  1
  3  2  1  0
  4  3  1  0
  5  2  1  0
  6  5  2  0
  7  5  1  0
  8  7  1  0
  9 10  1  0
  8  9  1  6
 10 11  2  0
 12 11  1  0
 13 12  1  0
 14 13  2  0
 14 10  1  0
 15 20  1  0
 15  8  1  0
 16 15  2  0
 18 17  1  0
 19 20  1  0
 19 18  1  1
 21 19  1  0
 21 22  1  0
 23 21  2  0
M  END
$$$$
