CHS.pdb
     RDKit          3D

 23 23  0  0  1  0  0  0  0  0999 V2000
   10.2924  -18.6411   14.6685 N   0  0  0  0  0  0  0  0  0  0  0  0
    9.4094  -18.8710   15.7932 C   0  0  1  0  0  0  0  0  0  0  0  0
    9.6857  -20.2530   16.3136 C   0  0  0  0  0  0  0  0  0  0  0  0
    9.0241  -21.4231   15.0863 S   0  0  0  0  0  0  0  0  0  0  0  0
    9.5386  -17.8111   16.7847 C   0  0  0  0  0  0  0  0  0  0  0  0
   10.6638  -17.2622   16.9222 O   0  0  0  0  0  0  0  0  0  0  0  0
    8.5095  -17.3312   17.6200 N   0  0  0  0  0  0  0  0  0  0  0  0
    8.6438  -16.2422   18.5536 C   0  0  1  0  0  0  0  0  0  0  0  0
    7.3976  -15.5116   18.8754 C   0  0  0  0  0  0  0  0  0  0  0  0
    7.5351  -14.3198   19.7290 C   0  0  0  0  0  0  0  0  0  0  0  0
    8.1747  -13.1341   19.4816 C   0  0  0  0  0  0  0  0  0  0  0  0
    8.0674  -12.2992   20.5577 N   0  0  0  0  0  0  0  0  0  0  0  0
    7.3665  -12.9741   21.4546 C   0  0  0  0  0  0  0  0  0  0  0  0
    7.0300  -14.1879   20.9944 N   0  0  0  0  0  0  0  0  0  0  0  0
    9.2019  -16.7285   19.8640 C   0  0  0  0  0  0  0  0  0  0  0  0
    8.8891  -17.9064   20.1869 O   0  0  0  0  0  0  0  0  0  0  0  0
   12.7867  -15.8350   21.2615 O   0  0  0  0  0  0  0  0  0  0  0  0
   11.8534  -15.7555   22.2926 C   0  0  0  0  0  0  0  0  0  0  0  0
   10.5652  -16.4584   21.8994 C   0  0  2  0  0  0  0  0  0  0  0  0
   10.0260  -15.9125   20.6808 N   0  0  0  0  0  0  0  0  0  0  0  0
    9.5804  -16.4402   23.0087 C   0  0  0  0  0  0  0  0  0  0  0  0
    9.8702  -17.0234   24.2332 O   0  0  0  0  0  0  0  0  0  0  0  0
    8.4584  -15.8963   22.8684 O   0  0  0  0  0  0  0  0  0  0  0  0
  2  1  1  6
  3  2  1  0
  4  3  1  0
  5  2  1  0
  6  5  2  0
  7  5  1  0
  8  7  1  0
  9 10  1  0
  8  9  1  1
 10 11  2  0
 12 11  1  0
 13 12  1  0
 14 13  2  0
 14 10  1  0
 15 20  1  0
 15  8  1  0
 16 15  2  0
 18 17  1  0
 19 20  1  0
 19 18  1  1
 21 19  1  0
 21 22  1  0
 23 21  2  0
M  END
$$$$
