CHS.pdb
     RDKit          3D

 23 23  0  0  1  0  0  0  0  0999 V2000
    7.7902  -14.4827   17.7308 N   0  0  0  0  0  0  0  0  0  0  0  0
    8.5838  -14.0799   18.8734 C   0  0  1  0  0  0  0  0  0  0  0  0
    7.7750  -13.0902   19.6630 C   0  0  0  0  0  0  0  0  0  0  0  0
    7.9217  -11.4877   18.8124 S   0  0  0  0  0  0  0  0  0  0  0  0
    9.0346  -15.2393   19.6320 C   0  0  0  0  0  0  0  0  0  0  0  0
    8.1872  -16.1258   19.9190 O   0  0  0  0  0  0  0  0  0  0  0  0
   10.3496  -15.4705   20.0842 N   0  0  0  0  0  0  0  0  0  0  0  0
   10.7884  -16.6547   20.7774 C   0  0  1  0  0  0  0  0  0  0  0  0
   11.6645  -17.5653   20.0068 C   0  0  0  0  0  0  0  0  0  0  0  0
   11.0218  -18.3503   18.9397 C   0  0  0  0  0  0  0  0  0  0  0  0
   10.1740  -19.4224   19.0302 C   0  0  0  0  0  0  0  0  0  0  0  0
    9.8207  -19.8591   17.7847 N   0  0  0  0  0  0  0  0  0  0  0  0
   10.4507  -19.0568   16.9418 C   0  0  0  0  0  0  0  0  0  0  0  0
   11.1796  -18.1409   17.5962 N   0  0  0  0  0  0  0  0  0  0  0  0
   11.5457  -16.2922   22.0263 C   0  0  0  0  0  0  0  0  0  0  0  0
   11.8008  -15.0664   22.1735 O   0  0  0  0  0  0  0  0  0  0  0  0
   10.0530  -17.2044   25.8960 O   0  0  0  0  0  0  0  0  0  0  0  0
   10.4919  -16.4972   24.7789 C   0  0  0  0  0  0  0  0  0  0  0  0
   11.8859  -16.9484   24.3776 C   0  0  2  0  0  0  0  0  0  0  0  0
   11.9453  -17.2684   22.9748 N   0  0  0  0  0  0  0  0  0  0  0  0
   12.3575  -18.0666   25.2308 C   0  0  0  0  0  0  0  0  0  0  0  0
   12.9528  -17.8274   26.4604 O   0  0  0  0  0  0  0  0  0  0  0  0
   12.2302  -19.2592   24.8623 O   0  0  0  0  0  0  0  0  0  0  0  0
  2  1  1  6
  3  2  1  0
  4  3  1  0
  5  2  1  0
  6  5  2  0
  7  5  1  0
  8  7  1  0
  9 10  1  0
  8  9  1  6
 10 11  2  0
 12 11  1  0
 13 12  1  0
 14 13  2  0
 14 10  1  0
 15 20  1  0
 15  8  1  0
 16 15  2  0
 18 17  1  0
 19 20  1  0
 19 18  1  1
 21 19  1  0
 21 22  1  0
 23 21  2  0
M  END
$$$$
