ASM.pdb
     RDKit          3D

 20 19  0  0  1  0  0  0  0  0999 V2000
   27.2849  -20.4236  -16.6506 C   0  0  0  0  0  0  0  0  0  0  0  0
   27.4466  -21.1561  -15.3561 C   0  0  2  0  0  0  0  0  0  0  0  0
   26.6770  -22.4037  -15.3616 N   0  0  0  0  0  0  0  0  0  0  0  0
   26.9877  -20.2872  -14.2408 C   0  0  0  0  0  0  0  0  0  0  0  0
   27.4748  -19.1525  -14.0926 O   0  0  0  0  0  0  0  0  0  0  0  0
   23.5638  -21.3471  -12.5642 O   0  0  0  0  0  0  0  0  0  0  0  0
   23.9189  -19.9998  -12.4991 C   0  0  0  0  0  0  0  0  0  0  0  0
   25.4190  -19.9549  -12.2967 C   0  0  2  0  0  0  0  0  0  0  0  0
   26.0060  -20.7490  -13.3572 N   0  0  0  0  0  0  0  0  0  0  0  0
   25.8185  -20.5809  -11.0016 C   0  0  0  0  0  0  0  0  0  0  0  0
   26.0513  -21.8223  -10.9247 O   0  0  0  0  0  0  0  0  0  0  0  0
   28.6834  -20.0347   -3.6954 C   0  0  0  0  0  0  0  0  0  0  0  0
   28.1788  -19.1329   -5.1809 S   0  0  0  0  0  0  0  0  0  0  0  0
   27.3137  -20.2747   -6.3207 C   0  0  0  0  0  0  0  0  0  0  0  0
   26.9955  -19.5922   -7.6177 C   0  0  0  0  0  0  0  0  0  0  0  0
   26.3496  -20.5332   -8.5646 C   0  0  2  0  0  0  0  0  0  0  0  0
   25.9569  -19.8338   -9.8073 N   0  0  0  0  0  0  0  0  0  0  0  0
   25.0953  -21.0627   -8.0089 C   0  0  0  0  0  0  0  0  0  0  0  0
   23.9873  -20.6967   -8.3987 O   0  0  0  0  0  0  0  0  0  0  0  0
   25.1508  -22.0299   -6.9875 O   0  0  0  0  0  0  0  0  0  0  0  0
  2  1  1  6
  2  4  1  0
  3  2  1  0
  4  5  2  0
  8  7  1  6
  7  6  1  0
  9  4  1  0
  9  8  1  0
 10  8  1  0
 10 11  2  0
 12 13  1  0
 13 14  1  0
 14 15  1  0
 16 15  1  1
 16 17  1  0
 16 18  1  0
 17 10  1  0
 18 20  1  0
 19 18  2  0
M  END
$$$$
