ASM.pdb
     RDKit          3D

 20 19  0  0  1  0  0  0  0  0999 V2000
   14.7460  -12.8812  -14.0563 C   0  0  0  0  0  0  0  0  0  0  0  0
   16.2134  -12.7986  -14.3362 C   0  0  2  0  0  0  0  0  0  0  0  0
   16.8342  -14.1249  -14.2687 N   0  0  0  0  0  0  0  0  0  0  0  0
   16.8513  -11.8939  -13.3443 C   0  0  0  0  0  0  0  0  0  0  0  0
   17.0128  -12.2700  -12.1699 O   0  0  0  0  0  0  0  0  0  0  0  0
   18.0100   -8.2807  -14.7383 O   0  0  0  0  0  0  0  0  0  0  0  0
   18.8445   -8.8360  -13.7683 C   0  0  0  0  0  0  0  0  0  0  0  0
   17.9658   -9.6835  -12.8723 C   0  0  2  0  0  0  0  0  0  0  0  0
   17.2698  -10.6171  -13.7347 N   0  0  0  0  0  0  0  0  0  0  0  0
   16.9289   -8.8612  -12.1814 C   0  0  0  0  0  0  0  0  0  0  0  0
   15.7655   -8.7427  -12.6649 O   0  0  0  0  0  0  0  0  0  0  0  0
   11.5414   -7.8538   -7.3748 C   0  0  0  0  0  0  0  0  0  0  0  0
   12.8930   -8.7893   -8.1315 S   0  0  0  0  0  0  0  0  0  0  0  0
   14.0639   -7.6293   -8.9280 C   0  0  0  0  0  0  0  0  0  0  0  0
   15.1666   -8.3760   -9.6177 C   0  0  0  0  0  0  0  0  0  0  0  0
   16.0826   -7.4402  -10.3139 C   0  0  2  0  0  0  0  0  0  0  0  0
   17.1843   -8.1796  -10.9674 N   0  0  0  0  0  0  0  0  0  0  0  0
   16.7401   -6.5367   -9.3579 C   0  0  0  0  0  0  0  0  0  0  0  0
   17.9292   -6.6355   -9.0580 O   0  0  0  0  0  0  0  0  0  0  0  0
   15.9885   -5.5113   -8.7534 O   0  0  0  0  0  0  0  0  0  0  0  0
  2  1  1  1
  2  4  1  0
  3  2  1  0
  4  5  2  0
  8  7  1  6
  7  6  1  0
  9  4  1  0
  9  8  1  0
 10  8  1  0
 10 11  2  0
 12 13  1  0
 13 14  1  0
 14 15  1  0
 16 15  1  1
 16 17  1  0
 16 18  1  0
 17 10  1  0
 18 20  1  0
 19 18  2  0
M  END
$$$$
