ASM.pdb
     RDKit          3D

 20 19  0  0  1  0  0  0  0  0999 V2000
   17.2878  -12.7445  -17.8878 C   0  0  0  0  0  0  0  0  0  0  0  0
   18.3312  -12.2253  -16.9497 C   0  0  2  0  0  0  0  0  0  0  0  0
   18.0500  -12.6413  -15.5725 N   0  0  0  0  0  0  0  0  0  0  0  0
   18.3670  -10.7414  -17.0292 C   0  0  0  0  0  0  0  0  0  0  0  0
   18.5226  -10.1788  -18.1274 O   0  0  0  0  0  0  0  0  0  0  0  0
   17.1530   -8.7050  -13.7899 O   0  0  0  0  0  0  0  0  0  0  0  0
   17.0900   -8.0644  -15.0273 C   0  0  0  0  0  0  0  0  0  0  0  0
   18.2926   -8.5314  -15.8203 C   0  0  2  0  0  0  0  0  0  0  0  0
   18.2253   -9.9783  -15.8650 N   0  0  0  0  0  0  0  0  0  0  0  0
   19.5728   -8.1683  -15.1436 C   0  0  0  0  0  0  0  0  0  0  0  0
   20.0294   -8.8724  -14.1966 O   0  0  0  0  0  0  0  0  0  0  0  0
   24.6381   -9.4504  -18.3765 C   0  0  0  0  0  0  0  0  0  0  0  0
   24.3614   -7.8350  -17.6095 S   0  0  0  0  0  0  0  0  0  0  0  0
   23.0733   -7.9879  -16.3178 C   0  0  0  0  0  0  0  0  0  0  0  0
   22.7274   -6.6439  -15.7493 C   0  0  0  0  0  0  0  0  0  0  0  0
   21.5951   -6.7491  -14.7974 C   0  0  2  0  0  0  0  0  0  0  0  0
   20.3348   -7.0353  -15.5170 N   0  0  0  0  0  0  0  0  0  0  0  0
   21.3631   -5.4699  -14.1102 C   0  0  0  0  0  0  0  0  0  0  0  0
   20.4000   -4.7457  -14.3583 O   0  0  0  0  0  0  0  0  0  0  0  0
   22.2739   -5.0446  -13.1247 O   0  0  0  0  0  0  0  0  0  0  0  0
  2  1  1  6
  2  4  1  0
  3  2  1  0
  4  5  2  0
  8  7  1  1
  7  6  1  0
  9  4  1  0
  9  8  1  0
 10  8  1  0
 10 11  2  0
 12 13  1  0
 13 14  1  0
 14 15  1  0
 16 15  1  6
 16 17  1  0
 16 18  1  0
 17 10  1  0
 18 20  1  0
 19 18  2  0
M  END
$$$$
