ASM.pdb
     RDKit          3D

 20 19  0  0  1  0  0  0  0  0999 V2000
   19.5194  -14.0762  -17.6113 C   0  0  0  0  0  0  0  0  0  0  0  0
   19.7695  -13.6928  -19.0358 C   0  0  2  0  0  0  0  0  0  0  0  0
   20.4481  -14.7738  -19.7569 N   0  0  0  0  0  0  0  0  0  0  0  0
   20.6032  -12.4628  -19.0731 C   0  0  0  0  0  0  0  0  0  0  0  0
   21.8143  -12.5211  -18.7966 O   0  0  0  0  0  0  0  0  0  0  0  0
   18.6482   -8.9753  -19.6640 O   0  0  0  0  0  0  0  0  0  0  0  0
   19.8725   -9.0460  -20.3285 C   0  0  0  0  0  0  0  0  0  0  0  0
   20.7474   -9.9884  -19.5288 C   0  0  2  0  0  0  0  0  0  0  0  0
   20.0220  -11.2382  -19.4200 N   0  0  0  0  0  0  0  0  0  0  0  0
   20.9738   -9.4854  -18.1416 C   0  0  0  0  0  0  0  0  0  0  0  0
   20.1843   -9.7938  -17.2019 O   0  0  0  0  0  0  0  0  0  0  0  0
   25.3413  -12.0813  -14.4088 C   0  0  0  0  0  0  0  0  0  0  0  0
   25.3037  -10.3522  -14.9409 S   0  0  0  0  0  0  0  0  0  0  0  0
   23.5935   -9.8975  -15.4095 C   0  0  0  0  0  0  0  0  0  0  0  0
   23.5283   -8.4705  -15.8661 C   0  0  0  0  0  0  0  0  0  0  0  0
   22.1884   -8.1534  -16.4171 C   0  0  2  0  0  0  0  0  0  0  0  0
   22.0655   -8.6495  -17.8051 N   0  0  0  0  0  0  0  0  0  0  0  0
   21.9866   -6.6997  -16.5094 C   0  0  0  0  0  0  0  0  0  0  0  0
   21.8657   -6.1109  -17.5828 O   0  0  0  0  0  0  0  0  0  0  0  0
   21.9271   -5.9380  -15.3269 O   0  0  0  0  0  0  0  0  0  0  0  0
  2  1  1  1
  2  4  1  0
  3  2  1  0
  4  5  2  0
  8  7  1  6
  7  6  1  0
  9  4  1  0
  9  8  1  0
 10  8  1  0
 10 11  2  0
 12 13  1  0
 13 14  1  0
 14 15  1  0
 16 15  1  6
 16 17  1  0
 16 18  1  0
 17 10  1  0
 18 20  1  0
 19 18  2  0
M  END
$$$$
