ASM.pdb
     RDKit          3D

 20 19  0  0  1  0  0  0  0  0999 V2000
   17.8804  -12.9019  -17.8530 C   0  0  0  0  0  0  0  0  0  0  0  0
   19.1854  -12.2908  -17.4507 C   0  0  2  0  0  0  0  0  0  0  0  0
   19.6278  -12.8096  -16.1529 N   0  0  0  0  0  0  0  0  0  0  0  0
   19.0329  -10.8141  -17.3762 C   0  0  0  0  0  0  0  0  0  0  0  0
   18.7726  -10.1611  -18.4022 O   0  0  0  0  0  0  0  0  0  0  0  0
   18.5120   -9.1900  -13.7226 O   0  0  0  0  0  0  0  0  0  0  0  0
   17.9957   -8.5577  -14.8536 C   0  0  0  0  0  0  0  0  0  0  0  0
   19.0200   -8.7329  -15.9552 C   0  0  2  0  0  0  0  0  0  0  0  0
   19.1831  -10.1597  -16.1486 N   0  0  0  0  0  0  0  0  0  0  0  0
   20.3512   -8.1842  -15.5612 C   0  0  0  0  0  0  0  0  0  0  0  0
   21.1405   -8.8544  -14.8337 O   0  0  0  0  0  0  0  0  0  0  0  0
   26.3878   -3.3788  -17.0343 C   0  0  0  0  0  0  0  0  0  0  0  0
   24.7609   -3.9783  -17.5524 S   0  0  0  0  0  0  0  0  0  0  0  0
   24.0821   -5.0860  -16.2627 C   0  0  0  0  0  0  0  0  0  0  0  0
   22.7557   -5.6442  -16.6847 C   0  0  0  0  0  0  0  0  0  0  0  0
   22.1628   -6.4696  -15.6047 C   0  0  2  0  0  0  0  0  0  0  0  0
   20.7979   -6.9054  -15.9721 N   0  0  0  0  0  0  0  0  0  0  0  0
   21.9968   -5.6850  -14.3720 C   0  0  0  0  0  0  0  0  0  0  0  0
   22.9246   -5.4591  -13.5964 O   0  0  0  0  0  0  0  0  0  0  0  0
   20.7277   -5.1648  -14.0546 O   0  0  0  0  0  0  0  0  0  0  0  0
  2  1  1  1
  2  4  1  0
  3  2  1  0
  4  5  2  0
  8  7  1  1
  7  6  1  0
  9  4  1  0
  9  8  1  0
 10  8  1  0
 10 11  2  0
 12 13  1  0
 13 14  1  0
 14 15  1  0
 16 15  1  6
 16 17  1  0
 16 18  1  0
 17 10  1  0
 18 20  1  0
 19 18  2  0
M  END
$$$$
