ASM.pdb
     RDKit          3D

 20 19  0  0  1  0  0  0  0  0999 V2000
   14.7473  -11.1051  -14.0573 C   0  0  0  0  0  0  0  0  0  0  0  0
   16.2409  -11.1161  -14.1437 C   0  0  2  0  0  0  0  0  0  0  0  0
   16.7623  -12.4800  -14.0137 N   0  0  0  0  0  0  0  0  0  0  0  0
   16.8005  -10.2592  -13.0657 C   0  0  0  0  0  0  0  0  0  0  0  0
   16.7502  -10.6341  -11.8809 O   0  0  0  0  0  0  0  0  0  0  0  0
   20.1645   -7.8349  -13.3067 O   0  0  0  0  0  0  0  0  0  0  0  0
   18.9164   -7.2181  -13.2211 C   0  0  0  0  0  0  0  0  0  0  0  0
   18.0243   -8.1504  -12.4284 C   0  0  2  0  0  0  0  0  0  0  0  0
   17.3841   -9.0287  -13.3868 N   0  0  0  0  0  0  0  0  0  0  0  0
   16.9425   -7.4056  -11.7186 C   0  0  0  0  0  0  0  0  0  0  0  0
   15.9636   -6.9184  -12.3556 O   0  0  0  0  0  0  0  0  0  0  0  0
   11.9504   -9.7175   -7.9293 C   0  0  0  0  0  0  0  0  0  0  0  0
   13.4232   -8.7887   -7.4368 S   0  0  0  0  0  0  0  0  0  0  0  0
   14.0479   -7.8353   -8.8692 C   0  0  0  0  0  0  0  0  0  0  0  0
   15.3139   -7.1128   -8.5164 C   0  0  0  0  0  0  0  0  0  0  0  0
   15.8678   -6.4103   -9.6993 C   0  0  2  0  0  0  0  0  0  0  0  0
   16.9508   -7.2058  -10.3173 N   0  0  0  0  0  0  0  0  0  0  0  0
   16.4979   -5.1397   -9.3109 C   0  0  0  0  0  0  0  0  0  0  0  0
   15.8731   -4.2202   -8.7840 O   0  0  0  0  0  0  0  0  0  0  0  0
   17.8735   -4.9550   -9.5464 O   0  0  0  0  0  0  0  0  0  0  0  0
  2  1  1  1
  2  4  1  0
  3  2  1  0
  4  5  2  0
  8  7  1  6
  7  6  1  0
  9  4  1  0
  9  8  1  0
 10  8  1  0
 10 11  2  0
 12 13  1  0
 13 14  1  0
 14 15  1  0
 16 15  1  1
 16 17  1  0
 16 18  1  0
 17 10  1  0
 18 20  1  0
 19 18  2  0
M  END
$$$$
