ASM.pdb
     RDKit          3D

 20 19  0  0  1  0  0  0  0  0999 V2000
   27.1291  -18.4548  -15.4772 C   0  0  0  0  0  0  0  0  0  0  0  0
   27.7172  -19.7895  -15.1436 C   0  0  2  0  0  0  0  0  0  0  0  0
   28.2812  -20.4257  -16.3379 N   0  0  0  0  0  0  0  0  0  0  0  0
   26.6611  -20.6589  -14.5622 C   0  0  0  0  0  0  0  0  0  0  0  0
   25.9907  -21.4041  -15.2984 O   0  0  0  0  0  0  0  0  0  0  0  0
   25.5920  -20.0740  -10.5974 O   0  0  0  0  0  0  0  0  0  0  0  0
   25.6993  -21.3899  -11.0473 C   0  0  0  0  0  0  0  0  0  0  0  0
   25.3628  -21.3733  -12.5237 C   0  0  2  0  0  0  0  0  0  0  0  0
   26.4222  -20.6369  -13.1837 N   0  0  0  0  0  0  0  0  0  0  0  0
   24.0862  -20.6462  -12.7890 C   0  0  0  0  0  0  0  0  0  0  0  0
   24.0936  -19.4668  -13.2474 O   0  0  0  0  0  0  0  0  0  0  0  0
   19.1807  -19.8181  -17.9929 C   0  0  0  0  0  0  0  0  0  0  0  0
   20.6277  -20.5525  -17.1920 S   0  0  0  0  0  0  0  0  0  0  0  0
   20.5190  -20.2920  -15.3833 C   0  0  0  0  0  0  0  0  0  0  0  0
   21.7357  -20.8333  -14.6935 C   0  0  0  0  0  0  0  0  0  0  0  0
   21.6298  -20.6610  -13.2243 C   0  0  2  0  0  0  0  0  0  0  0  0
   22.8175  -21.2254  -12.5470 N   0  0  0  0  0  0  0  0  0  0  0  0
   20.4868  -21.4133  -12.6859 C   0  0  0  0  0  0  0  0  0  0  0  0
   19.4695  -20.8662  -12.2622 O   0  0  0  0  0  0  0  0  0  0  0  0
   20.5462  -22.8193  -12.6484 O   0  0  0  0  0  0  0  0  0  0  0  0
  2  1  1  6
  2  4  1  0
  3  2  1  0
  4  5  2  0
  8  7  1  1
  7  6  1  0
  9  4  1  0
  9  8  1  0
 10  8  1  0
 10 11  2  0
 12 13  1  0
 13 14  1  0
 14 15  1  0
 16 15  1  6
 16 17  1  0
 16 18  1  0
 17 10  1  0
 18 20  1  0
 19 18  2  0
M  END
$$$$
