ASM.pdb
     RDKit          3D

 20 19  0  0  1  0  0  0  0  0999 V2000
   18.8106  -14.0435  -15.5927 C   0  0  0  0  0  0  0  0  0  0  0  0
   17.8089  -13.2244  -16.3437 C   0  0  2  0  0  0  0  0  0  0  0  0
   17.2495  -13.9828  -17.4666 N   0  0  0  0  0  0  0  0  0  0  0  0
   18.4649  -11.9896  -16.8482 C   0  0  0  0  0  0  0  0  0  0  0  0
   19.2999  -12.0575  -17.7674 O   0  0  0  0  0  0  0  0  0  0  0  0
   17.3176   -8.4871  -15.1223 O   0  0  0  0  0  0  0  0  0  0  0  0
   17.6704   -8.4265  -16.4704 C   0  0  0  0  0  0  0  0  0  0  0  0
   18.7275   -9.4882  -16.6912 C   0  0  2  0  0  0  0  0  0  0  0  0
   18.1410  -10.7499  -16.2862 N   0  0  0  0  0  0  0  0  0  0  0  0
   19.9252   -9.2597  -15.8299 C   0  0  0  0  0  0  0  0  0  0  0  0
   19.9595   -9.6857  -14.6389 O   0  0  0  0  0  0  0  0  0  0  0  0
   27.2805  -10.3540  -14.7511 C   0  0  0  0  0  0  0  0  0  0  0  0
   26.0648   -9.7929  -15.9683 S   0  0  0  0  0  0  0  0  0  0  0  0
   24.5067   -9.3537  -15.1135 C   0  0  0  0  0  0  0  0  0  0  0  0
   23.4781   -8.8750  -16.0943 C   0  0  0  0  0  0  0  0  0  0  0  0
   22.2427   -8.4448  -15.3957 C   0  0  2  0  0  0  0  0  0  0  0  0
   21.0703   -8.5658  -16.2893 N   0  0  0  0  0  0  0  0  0  0  0  0
   22.3079   -7.0199  -15.0381 C   0  0  0  0  0  0  0  0  0  0  0  0
   21.8973   -6.1279  -15.7792 O   0  0  0  0  0  0  0  0  0  0  0  0
   22.8611   -6.6474  -13.7983 O   0  0  0  0  0  0  0  0  0  0  0  0
  2  1  1  6
  2  4  1  0
  3  2  1  0
  4  5  2  0
  8  7  1  1
  7  6  1  0
  9  4  1  0
  9  8  1  0
 10  8  1  0
 10 11  2  0
 12 13  1  0
 13 14  1  0
 14 15  1  0
 16 15  1  6
 16 17  1  0
 16 18  1  0
 17 10  1  0
 18 20  1  0
 19 18  2  0
M  END
$$$$
