ASM.pdb
     RDKit          3D

 20 19  0  0  1  0  0  0  0  0999 V2000
   18.7304  -10.8342  -18.7772 C   0  0  0  0  0  0  0  0  0  0  0  0
   19.5494  -11.7037  -17.8762 C   0  0  2  0  0  0  0  0  0  0  0  0
   18.8064  -12.9086  -17.4952 N   0  0  0  0  0  0  0  0  0  0  0  0
   19.9204  -10.9359  -16.6587 C   0  0  0  0  0  0  0  0  0  0  0  0
   19.0371  -10.5348  -15.8805 O   0  0  0  0  0  0  0  0  0  0  0  0
   23.8868  -10.2099  -16.1108 O   0  0  0  0  0  0  0  0  0  0  0  0
   23.1356  -10.3811  -14.9480 C   0  0  0  0  0  0  0  0  0  0  0  0
   21.7366   -9.8915  -15.2582 C   0  0  2  0  0  0  0  0  0  0  0  0
   21.2665  -10.6648  -16.3899 N   0  0  0  0  0  0  0  0  0  0  0  0
   21.7346   -8.4567  -15.6706 C   0  0  0  0  0  0  0  0  0  0  0  0
   21.9523   -8.1260  -16.8725 O   0  0  0  0  0  0  0  0  0  0  0  0
   17.9166   -4.5049  -17.4226 C   0  0  0  0  0  0  0  0  0  0  0  0
   18.7826   -3.3010  -16.3856 S   0  0  0  0  0  0  0  0  0  0  0  0
   20.4101   -3.9805  -15.8951 C   0  0  0  0  0  0  0  0  0  0  0  0
   20.2935   -5.4306  -15.5306 C   0  0  0  0  0  0  0  0  0  0  0  0
   21.6249   -6.0054  -15.2204 C   0  0  2  0  0  0  0  0  0  0  0  0
   21.4930   -7.4036  -14.7561 N   0  0  0  0  0  0  0  0  0  0  0  0
   22.2620   -5.2888  -14.1054 C   0  0  0  0  0  0  0  0  0  0  0  0
   22.8434   -4.2143  -14.2499 O   0  0  0  0  0  0  0  0  0  0  0  0
   22.2116   -5.8450  -12.8132 O   0  0  0  0  0  0  0  0  0  0  0  0
  2  1  1  6
  2  4  1  0
  3  2  1  0
  4  5  2  0
  8  7  1  6
  7  6  1  0
  9  4  1  0
  9  8  1  0
 10  8  1  0
 10 11  2  0
 12 13  1  0
 13 14  1  0
 14 15  1  0
 16 15  1  1
 16 17  1  0
 16 18  1  0
 17 10  1  0
 18 20  1  0
 19 18  2  0
M  END
$$$$
