ASM.pdb
     RDKit          3D

 20 19  0  0  1  0  0  0  0  0999 V2000
   26.5895  -23.8559  -16.3083 C   0  0  0  0  0  0  0  0  0  0  0  0
   25.4790  -23.4266  -15.4023 C   0  0  2  0  0  0  0  0  0  0  0  0
   24.2452  -23.1965  -16.1598 N   0  0  0  0  0  0  0  0  0  0  0  0
   25.8760  -22.1797  -14.6973 C   0  0  0  0  0  0  0  0  0  0  0  0
   26.4602  -21.2722  -15.3154 O   0  0  0  0  0  0  0  0  0  0  0  0
   23.3685  -20.7264  -12.3131 O   0  0  0  0  0  0  0  0  0  0  0  0
   24.4097  -20.0110  -12.9045 C   0  0  0  0  0  0  0  0  0  0  0  0
   25.6835  -20.7763  -12.6130 C   0  0  2  0  0  0  0  0  0  0  0  0
   25.5910  -22.0288  -13.3358 N   0  0  0  0  0  0  0  0  0  0  0  0
   25.8057  -21.1095  -11.1630 C   0  0  0  0  0  0  0  0  0  0  0  0
   25.5106  -22.2630  -10.7345 O   0  0  0  0  0  0  0  0  0  0  0  0
   28.4616  -19.4358   -3.9280 C   0  0  0  0  0  0  0  0  0  0  0  0
   28.3060  -18.8522   -5.6338 S   0  0  0  0  0  0  0  0  0  0  0  0
   27.1934  -19.9723   -6.5604 C   0  0  0  0  0  0  0  0  0  0  0  0
   27.1584  -19.6049   -8.0140 C   0  0  0  0  0  0  0  0  0  0  0  0
   26.3613  -20.5875   -8.7876 C   0  0  2  0  0  0  0  0  0  0  0  0
   26.2510  -20.1700  -10.2023 N   0  0  0  0  0  0  0  0  0  0  0  0
   24.9767  -20.6477   -8.2957 C   0  0  0  0  0  0  0  0  0  0  0  0
   24.0535  -20.0330   -8.8281 O   0  0  0  0  0  0  0  0  0  0  0  0
   24.6819  -21.4385   -7.1690 O   0  0  0  0  0  0  0  0  0  0  0  0
  2  1  1  6
  2  4  1  0
  3  2  1  0
  4  5  2  0
  8  7  1  1
  7  6  1  0
  9  4  1  0
  9  8  1  0
 10  8  1  0
 10 11  2  0
 12 13  1  0
 13 14  1  0
 14 15  1  0
 16 15  1  1
 16 17  1  0
 16 18  1  0
 17 10  1  0
 18 20  1  0
 19 18  2  0
M  END
$$$$
