DDR.pdb
     RDKit          3D

 28 27  0  0  1  0  0  0  0  0999 V2000
   11.7985  -19.8224   16.6067 N   0  0  0  0  0  0  0  0  0  0  0  0
   12.8414  -19.0902   17.2481 C   0  0  1  0  0  0  0  0  0  0  0  0
   12.9978  -17.6890   16.7525 C   0  0  0  0  0  0  0  0  0  0  0  0
   13.3831  -17.5983   15.3255 C   0  0  0  0  0  0  0  0  0  0  0  0
   14.1854  -18.4366   14.8634 O   0  0  0  0  0  0  0  0  0  0  0  0
   12.6271  -18.9960   18.7332 C   0  0  0  0  0  0  0  0  0  0  0  0
   11.5081  -19.3256   19.1851 O   0  0  0  0  0  0  0  0  0  0  0  0
   12.8858  -16.6188   14.4868 O   0  0  0  0  0  0  0  0  0  0  0  0
   13.6181  -18.5567   19.6375 N   0  0  0  0  0  0  0  0  0  0  0  0
   13.4912  -18.5575   21.0658 C   0  0  1  0  0  0  0  0  0  0  0  0
   14.8230  -18.5801   21.7338 C   0  0  0  0  0  0  0  0  0  0  0  0
   14.7831  -18.6428   23.1976 C   0  0  0  0  0  0  0  0  0  0  0  0
   15.5689  -17.8848   23.8296 O   0  0  0  0  0  0  0  0  0  0  0  0
   12.6010  -17.4674   21.5508 C   0  0  0  0  0  0  0  0  0  0  0  0
   12.9121  -16.2826   21.2840 O   0  0  0  0  0  0  0  0  0  0  0  0
   13.9590  -19.4613   23.9550 O   0  0  0  0  0  0  0  0  0  0  0  0
    7.3877  -12.2724   21.2248 N   0  0  0  0  0  0  0  0  0  0  0  0
    7.9573  -12.9317   20.0935 C   0  0  0  0  0  0  0  0  0  0  0  0
    8.3301  -12.2614   19.0527 N   0  0  0  0  0  0  0  0  0  0  0  0
    8.1426  -14.3391   20.0476 N   0  0  0  0  0  0  0  0  0  0  0  0
    7.5871  -15.1554   21.0664 C   0  0  0  0  0  0  0  0  0  0  0  0
    8.4830  -15.3312   22.2808 C   0  0  0  0  0  0  0  0  0  0  0  0
    9.3463  -16.5329   21.9884 C   0  0  0  0  0  0  0  0  0  0  0  0
   10.6096  -16.5967   22.8227 C   0  0  2  0  0  0  0  0  0  0  0  0
   11.4201  -17.6953   22.2976 N   0  0  0  0  0  0  0  0  0  0  0  0
   10.3755  -16.7372   24.2604 C   0  0  0  0  0  0  0  0  0  0  0  0
   10.0026  -15.7500   24.9326 O   0  0  0  0  0  0  0  0  0  0  0  0
   10.5514  -17.9463   24.9377 O   0  0  0  0  0  0  0  0  0  0  0  0
  2  1  1  6
  2  3  1  0
  3  4  1  0
  4  8  1  0
  5  4  2  0
  6  2  1  0
  7  6  2  0
  9  6  1  0
 10 14  1  0
 10  9  1  0
 10 11  1  1
 12 11  1  0
 12 16  1  0
 13 12  2  0
 14 15  2  0
 18 20  1  0
 18 17  1  0
 19 18  2  0
 21 20  1  0
 22 21  1  0
 23 22  1  0
 24 23  1  6
 25 24  1  0
 25 14  1  0
 26 28  1  0
 26 24  1  0
 27 26  2  0
M  END
$$$$
