DDR.pdb
     RDKit          3D

 28 27  0  0  1  0  0  0  0  0999 V2000
   11.6843  -21.1808   20.2390 N   0  0  0  0  0  0  0  0  0  0  0  0
   12.7264  -21.1599   21.2130 C   0  0  1  0  0  0  0  0  0  0  0  0
   13.1827  -19.7876   21.5899 C   0  0  0  0  0  0  0  0  0  0  0  0
   13.0046  -18.7820   20.5175 C   0  0  0  0  0  0  0  0  0  0  0  0
   12.5335  -19.1480   19.4202 O   0  0  0  0  0  0  0  0  0  0  0  0
   12.3126  -21.8374   22.4897 C   0  0  0  0  0  0  0  0  0  0  0  0
   12.1422  -23.0765   22.4660 O   0  0  0  0  0  0  0  0  0  0  0  0
   13.3410  -17.4524   20.6882 O   0  0  0  0  0  0  0  0  0  0  0  0
   12.1073  -21.1505   23.7058 N   0  0  0  0  0  0  0  0  0  0  0  0
   11.9294  -21.7724   24.9855 C   0  0  1  0  0  0  0  0  0  0  0  0
   12.9952  -22.7772   25.2589 C   0  0  0  0  0  0  0  0  0  0  0  0
   12.8798  -23.4716   26.5444 C   0  0  0  0  0  0  0  0  0  0  0  0
   11.9004  -24.2528   26.6929 O   0  0  0  0  0  0  0  0  0  0  0  0
   11.7597  -20.7737   26.0762 C   0  0  0  0  0  0  0  0  0  0  0  0
   12.7490  -20.0761   26.4029 O   0  0  0  0  0  0  0  0  0  0  0  0
   13.7502  -23.3487   27.6168 O   0  0  0  0  0  0  0  0  0  0  0  0
    6.7898  -21.5350   23.9973 N   0  0  0  0  0  0  0  0  0  0  0  0
    6.5557  -20.1264   24.0042 C   0  0  0  0  0  0  0  0  0  0  0  0
    6.4867  -19.4595   22.8987 N   0  0  0  0  0  0  0  0  0  0  0  0
    6.3893  -19.3894   25.2068 N   0  0  0  0  0  0  0  0  0  0  0  0
    7.1341  -19.7473   26.3601 C   0  0  0  0  0  0  0  0  0  0  0  0
    8.1729  -18.7187   26.7742 C   0  0  0  0  0  0  0  0  0  0  0  0
    8.8889  -19.3085   27.9634 C   0  0  0  0  0  0  0  0  0  0  0  0
   10.3771  -19.4977   27.7500 C   0  0  2  0  0  0  0  0  0  0  0  0
   10.5408  -20.5673   26.7658 N   0  0  0  0  0  0  0  0  0  0  0  0
   11.1314  -19.7697   28.9741 C   0  0  0  0  0  0  0  0  0  0  0  0
   11.6317  -20.9010   29.1619 O   0  0  0  0  0  0  0  0  0  0  0  0
   11.3265  -18.8078   29.9682 O   0  0  0  0  0  0  0  0  0  0  0  0
  2  1  1  6
  2  3  1  0
  3  4  1  0
  4  8  1  0
  5  4  2  0
  6  2  1  0
  7  6  2  0
  9  6  1  0
 10 14  1  0
 10  9  1  0
 10 11  1  1
 12 11  1  0
 12 16  1  0
 13 12  2  0
 14 15  2  0
 18 20  1  0
 18 17  1  0
 19 18  2  0
 21 20  1  0
 22 21  1  0
 23 22  1  0
 24 23  1  1
 25 24  1  0
 25 14  1  0
 26 28  1  0
 26 24  1  0
 27 26  2  0
M  END
$$$$
