DDR.pdb
     RDKit          3D

 28 27  0  0  1  0  0  0  0  0999 V2000
   11.4644  -17.3296   17.7658 N   0  0  0  0  0  0  0  0  0  0  0  0
   10.3928  -17.8516   18.5497 C   0  0  1  0  0  0  0  0  0  0  0  0
    9.8853  -19.1779   18.0843 C   0  0  0  0  0  0  0  0  0  0  0  0
   10.9533  -20.1138   17.6644 C   0  0  0  0  0  0  0  0  0  0  0  0
   12.1443  -19.8037   17.8773 O   0  0  0  0  0  0  0  0  0  0  0  0
   10.7872  -18.0272   19.9898 C   0  0  0  0  0  0  0  0  0  0  0  0
    9.8968  -18.3570   20.8044 O   0  0  0  0  0  0  0  0  0  0  0  0
   10.6786  -21.3186   17.0455 O   0  0  0  0  0  0  0  0  0  0  0  0
   12.1027  -17.8395   20.4664 N   0  0  0  0  0  0  0  0  0  0  0  0
   12.4815  -17.7941   21.8486 C   0  0  1  0  0  0  0  0  0  0  0  0
   13.9507  -17.6025   22.0077 C   0  0  0  0  0  0  0  0  0  0  0  0
   14.4841  -17.9543   23.3267 C   0  0  0  0  0  0  0  0  0  0  0  0
   13.6625  -18.3665   24.1906 O   0  0  0  0  0  0  0  0  0  0  0  0
   11.6672  -16.8171   22.6220 C   0  0  0  0  0  0  0  0  0  0  0  0
   11.6836  -15.6153   22.2654 O   0  0  0  0  0  0  0  0  0  0  0  0
   15.8130  -17.8752   23.7147 O   0  0  0  0  0  0  0  0  0  0  0  0
    7.5977  -11.9540   21.1079 N   0  0  0  0  0  0  0  0  0  0  0  0
    8.1610  -12.8089   20.1125 C   0  0  0  0  0  0  0  0  0  0  0  0
    8.6411  -12.3232   19.0147 N   0  0  0  0  0  0  0  0  0  0  0  0
    8.2236  -14.2192   20.2688 N   0  0  0  0  0  0  0  0  0  0  0  0
    8.0231  -14.7947   21.5501 C   0  0  0  0  0  0  0  0  0  0  0  0
    9.3039  -15.0397   22.3297 C   0  0  0  0  0  0  0  0  0  0  0  0
    8.9002  -15.8220   23.5544 C   0  0  0  0  0  0  0  0  0  0  0  0
   10.0610  -16.1886   24.4568 C   0  0  2  0  0  0  0  0  0  0  0  0
   10.8734  -17.1709   23.7395 N   0  0  0  0  0  0  0  0  0  0  0  0
    9.6656  -16.6762   25.7787 C   0  0  0  0  0  0  0  0  0  0  0  0
    9.8874  -17.8653   26.0986 O   0  0  0  0  0  0  0  0  0  0  0  0
    9.0380  -15.8626   26.7251 O   0  0  0  0  0  0  0  0  0  0  0  0
  2  1  1  6
  2  3  1  0
  3  4  1  0
  4  8  1  0
  5  4  2  0
  6  2  1  0
  7  6  2  0
  9  6  1  0
 10 14  1  0
 10  9  1  0
 10 11  1  6
 12 11  1  0
 12 16  1  0
 13 12  2  0
 14 15  2  0
 18 20  1  0
 18 17  1  0
 19 18  2  0
 21 20  1  0
 22 21  1  0
 23 22  1  0
 24 23  1  6
 25 24  1  0
 25 14  1  0
 26 28  1  0
 26 24  1  0
 27 26  2  0
M  END
$$$$
