DDR.pdb
     RDKit          3D

 28 27  0  0  1  0  0  0  0  0999 V2000
   13.9085  -16.2294   17.4536 N   0  0  0  0  0  0  0  0  0  0  0  0
   14.0819  -15.9257   18.8367 C   0  0  1  0  0  0  0  0  0  0  0  0
   14.3384  -14.4804   19.1171 C   0  0  0  0  0  0  0  0  0  0  0  0
   15.6257  -13.9853   18.5778 C   0  0  0  0  0  0  0  0  0  0  0  0
   16.6498  -14.6849   18.7251 O   0  0  0  0  0  0  0  0  0  0  0  0
   12.8770  -16.3106   19.6493 C   0  0  0  0  0  0  0  0  0  0  0  0
   11.7583  -15.9016   19.2669 O   0  0  0  0  0  0  0  0  0  0  0  0
   15.7337  -12.7764   17.9168 O   0  0  0  0  0  0  0  0  0  0  0  0
   12.9438  -17.1045   20.8147 N   0  0  0  0  0  0  0  0  0  0  0  0
   11.8121  -17.5780   21.5571 C   0  0  1  0  0  0  0  0  0  0  0  0
   12.0728  -18.9163   22.1583 C   0  0  0  0  0  0  0  0  0  0  0  0
   12.2274  -20.0106   21.1957 C   0  0  0  0  0  0  0  0  0  0  0  0
   13.3086  -20.6597   21.2280 O   0  0  0  0  0  0  0  0  0  0  0  0
   11.3227  -16.5706   22.5377 C   0  0  0  0  0  0  0  0  0  0  0  0
   12.1638  -15.9916   23.2652 O   0  0  0  0  0  0  0  0  0  0  0  0
   11.2921  -20.3999   20.2488 O   0  0  0  0  0  0  0  0  0  0  0  0
    8.8500  -12.2248   18.5798 N   0  0  0  0  0  0  0  0  0  0  0  0
    8.4707  -13.5968   18.6926 C   0  0  0  0  0  0  0  0  0  0  0  0
    8.7775  -14.4485   17.7695 N   0  0  0  0  0  0  0  0  0  0  0  0
    7.7450  -14.0956   19.8070 N   0  0  0  0  0  0  0  0  0  0  0  0
    7.6181  -13.3020   20.9762 C   0  0  0  0  0  0  0  0  0  0  0  0
    8.7811  -13.4311   21.9453 C   0  0  0  0  0  0  0  0  0  0  0  0
    8.3603  -14.4621   22.9625 C   0  0  0  0  0  0  0  0  0  0  0  0
    9.5200  -15.1838   23.6185 C   0  0  2  0  0  0  0  0  0  0  0  0
    9.9578  -16.2294   22.6940 N   0  0  0  0  0  0  0  0  0  0  0  0
    9.2198  -15.7258   24.9443 C   0  0  0  0  0  0  0  0  0  0  0  0
    9.0604  -16.9576   25.0948 O   0  0  0  0  0  0  0  0  0  0  0  0
    9.0992  -14.9190   26.0783 O   0  0  0  0  0  0  0  0  0  0  0  0
  2  1  1  6
  2  3  1  0
  3  4  1  0
  4  8  1  0
  5  4  2  0
  6  2  1  0
  7  6  2  0
  9  6  1  0
 10 14  1  0
 10  9  1  0
 10 11  1  1
 12 11  1  0
 12 16  1  0
 13 12  2  0
 14 15  2  0
 18 20  1  0
 18 17  1  0
 19 18  2  0
 21 20  1  0
 22 21  1  0
 23 22  1  0
 24 23  1  6
 25 24  1  0
 25 14  1  0
 26 28  1  0
 26 24  1  0
 27 26  2  0
M  END
$$$$
