DDR.pdb
     RDKit          3D

 28 27  0  0  1  0  0  0  0  0999 V2000
   11.0246  -17.5192   17.3689 N   0  0  0  0  0  0  0  0  0  0  0  0
    9.7426  -17.2942   17.9528 C   0  0  1  0  0  0  0  0  0  0  0  0
    8.6532  -18.1418   17.3799 C   0  0  0  0  0  0  0  0  0  0  0  0
    8.6697  -18.2189   15.9012 C   0  0  0  0  0  0  0  0  0  0  0  0
    7.6422  -17.8948   15.2693 O   0  0  0  0  0  0  0  0  0  0  0  0
    9.7494  -17.5519   19.4339 C   0  0  0  0  0  0  0  0  0  0  0  0
    8.6682  -17.4376   20.0528 O   0  0  0  0  0  0  0  0  0  0  0  0
    9.7823  -18.6364   15.1955 O   0  0  0  0  0  0  0  0  0  0  0  0
   10.9067  -17.9135   20.1570 N   0  0  0  0  0  0  0  0  0  0  0  0
   10.9509  -18.1788   21.5655 C   0  0  1  0  0  0  0  0  0  0  0  0
   12.2055  -18.8846   21.9506 C   0  0  0  0  0  0  0  0  0  0  0  0
   13.4151  -18.4207   21.2650 C   0  0  0  0  0  0  0  0  0  0  0  0
   13.2972  -18.0725   20.0583 O   0  0  0  0  0  0  0  0  0  0  0  0
   10.6824  -16.9589   22.3751 C   0  0  0  0  0  0  0  0  0  0  0  0
   11.4363  -15.9683   22.2257 O   0  0  0  0  0  0  0  0  0  0  0  0
   14.6817  -18.3292   21.8218 O   0  0  0  0  0  0  0  0  0  0  0  0
    7.8093  -13.1851   18.0702 N   0  0  0  0  0  0  0  0  0  0  0  0
    7.9030  -12.8383   19.4522 C   0  0  0  0  0  0  0  0  0  0  0  0
    8.6793  -11.8822   19.8456 N   0  0  0  0  0  0  0  0  0  0  0  0
    7.1614  -13.5142   20.4575 N   0  0  0  0  0  0  0  0  0  0  0  0
    7.4822  -13.3113   21.8246 C   0  0  0  0  0  0  0  0  0  0  0  0
    8.7227  -14.0550   22.2898 C   0  0  0  0  0  0  0  0  0  0  0  0
    8.2948  -14.8660   23.4873 C   0  0  0  0  0  0  0  0  0  0  0  0
    9.4187  -15.6590   24.1229 C   0  0  2  0  0  0  0  0  0  0  0  0
    9.6207  -16.8551   23.3057 N   0  0  0  0  0  0  0  0  0  0  0  0
    9.1971  -15.9966   25.5295 C   0  0  0  0  0  0  0  0  0  0  0  0
    8.8634  -17.1596   25.8483 O   0  0  0  0  0  0  0  0  0  0  0  0
    9.3426  -15.0647   26.5599 O   0  0  0  0  0  0  0  0  0  0  0  0
  2  1  1  6
  2  3  1  0
  3  4  1  0
  4  8  1  0
  5  4  2  0
  6  2  1  0
  7  6  2  0
  9  6  1  0
 10 14  1  0
 10  9  1  0
 10 11  1  1
 12 11  1  0
 12 16  1  0
 13 12  2  0
 14 15  2  0
 18 20  1  0
 18 17  1  0
 19 18  2  0
 21 20  1  0
 22 21  1  0
 23 22  1  0
 24 23  1  6
 25 24  1  0
 25 14  1  0
 26 28  1  0
 26 24  1  0
 27 26  2  0
M  END
$$$$
