DDR.pdb
     RDKit          3D

 28 27  0  0  1  0  0  0  0  0999 V2000
   14.2689  -15.2406   18.9085 N   0  0  0  0  0  0  0  0  0  0  0  0
   12.9403  -15.6334   18.5686 C   0  0  1  0  0  0  0  0  0  0  0  0
   12.8562  -16.5446   17.3870 C   0  0  0  0  0  0  0  0  0  0  0  0
   13.3642  -15.9455   16.1317 C   0  0  0  0  0  0  0  0  0  0  0  0
   14.5728  -15.6399   16.0556 O   0  0  0  0  0  0  0  0  0  0  0  0
   12.2590  -16.3441   19.7047 C   0  0  0  0  0  0  0  0  0  0  0  0
   11.0902  -16.7516   19.5234 O   0  0  0  0  0  0  0  0  0  0  0  0
   12.5479  -15.7128   15.0409 O   0  0  0  0  0  0  0  0  0  0  0  0
   12.8674  -16.5731   20.9579 N   0  0  0  0  0  0  0  0  0  0  0  0
   12.1987  -17.0823   22.1196 C   0  0  1  0  0  0  0  0  0  0  0  0
   13.1677  -17.6010   23.1258 C   0  0  0  0  0  0  0  0  0  0  0  0
   14.0555  -18.6629   22.6438 C   0  0  0  0  0  0  0  0  0  0  0  0
   13.5211  -19.7570   22.3142 O   0  0  0  0  0  0  0  0  0  0  0  0
   11.2250  -16.1056   22.6800 C   0  0  0  0  0  0  0  0  0  0  0  0
   11.4733  -14.8827   22.5594 O   0  0  0  0  0  0  0  0  0  0  0  0
   15.4335  -18.5762   22.5164 O   0  0  0  0  0  0  0  0  0  0  0  0
    9.1757  -13.7122   17.5660 N   0  0  0  0  0  0  0  0  0  0  0  0
    8.2794  -13.1941   18.5495 C   0  0  0  0  0  0  0  0  0  0  0  0
    7.3644  -12.3389   18.2289 N   0  0  0  0  0  0  0  0  0  0  0  0
    8.3422  -13.5818   19.9144 N   0  0  0  0  0  0  0  0  0  0  0  0
    7.1437  -13.7342   20.6583 C   0  0  0  0  0  0  0  0  0  0  0  0
    7.3583  -14.1181   22.1126 C   0  0  0  0  0  0  0  0  0  0  0  0
    8.5421  -15.0527   22.1240 C   0  0  0  0  0  0  0  0  0  0  0  0
    8.9093  -15.5587   23.5043 C   0  0  2  0  0  0  0  0  0  0  0  0
   10.0319  -16.4822   23.3423 N   0  0  0  0  0  0  0  0  0  0  0  0
    7.8014  -16.1774   24.2335 C   0  0  0  0  0  0  0  0  0  0  0  0
    7.6511  -17.4192   24.2063 O   0  0  0  0  0  0  0  0  0  0  0  0
    6.8807  -15.4348   24.9765 O   0  0  0  0  0  0  0  0  0  0  0  0
  2  1  1  1
  2  3  1  0
  3  4  1  0
  4  8  1  0
  5  4  2  0
  6  2  1  0
  7  6  2  0
  9  6  1  0
 10 14  1  0
 10  9  1  0
 10 11  1  1
 12 11  1  0
 12 16  1  0
 13 12  2  0
 14 15  2  0
 18 20  1  0
 18 17  1  0
 19 18  2  0
 21 20  1  0
 22 21  1  0
 23 22  1  0
 24 23  1  6
 25 24  1  0
 25 14  1  0
 26 28  1  0
 26 24  1  0
 27 26  2  0
M  END
$$$$
