DDR.pdb
     RDKit          3D

 28 27  0  0  1  0  0  0  0  0999 V2000
   11.5340  -17.3390   17.3946 N   0  0  0  0  0  0  0  0  0  0  0  0
   10.3087  -17.5463   18.0953 C   0  0  1  0  0  0  0  0  0  0  0  0
    9.5303  -18.7328   17.6265 C   0  0  0  0  0  0  0  0  0  0  0  0
    9.1406  -18.6671   16.1993 C   0  0  0  0  0  0  0  0  0  0  0  0
    9.5464  -17.7100   15.5071 O   0  0  0  0  0  0  0  0  0  0  0  0
   10.5329  -17.7386   19.5694 C   0  0  0  0  0  0  0  0  0  0  0  0
    9.5303  -17.9216   20.2949 O   0  0  0  0  0  0  0  0  0  0  0  0
    8.3437  -19.6280   15.6062 O   0  0  0  0  0  0  0  0  0  0  0  0
   11.8092  -17.7226   20.1725 N   0  0  0  0  0  0  0  0  0  0  0  0
   12.0561  -17.7730   21.5842 C   0  0  1  0  0  0  0  0  0  0  0  0
   13.5155  -17.7923   21.8844 C   0  0  0  0  0  0  0  0  0  0  0  0
   13.8571  -17.9955   23.2951 C   0  0  0  0  0  0  0  0  0  0  0  0
   13.7066  -17.0137   24.0729 O   0  0  0  0  0  0  0  0  0  0  0  0
   11.3109  -16.7167   22.3223 C   0  0  0  0  0  0  0  0  0  0  0  0
   11.4475  -15.5258   21.9550 O   0  0  0  0  0  0  0  0  0  0  0  0
   14.3326  -19.1711   23.8562 O   0  0  0  0  0  0  0  0  0  0  0  0
    7.9551  -14.1198   18.3706 N   0  0  0  0  0  0  0  0  0  0  0  0
    8.0455  -13.0514   19.3137 C   0  0  0  0  0  0  0  0  0  0  0  0
    8.3258  -11.8490   18.9298 N   0  0  0  0  0  0  0  0  0  0  0  0
    7.8373  -13.2461   20.7050 N   0  0  0  0  0  0  0  0  0  0  0  0
    8.1518  -14.4974   21.2952 C   0  0  0  0  0  0  0  0  0  0  0  0
    7.8572  -14.5752   22.7837 C   0  0  0  0  0  0  0  0  0  0  0  0
    8.3010  -15.9482   23.2227 C   0  0  0  0  0  0  0  0  0  0  0  0
    9.5996  -15.9513   24.0035 C   0  0  2  0  0  0  0  0  0  0  0  0
   10.4546  -16.9832   23.4176 N   0  0  0  0  0  0  0  0  0  0  0  0
    9.4350  -16.1403   25.4454 C   0  0  0  0  0  0  0  0  0  0  0  0
    9.8159  -17.2034   25.9840 O   0  0  0  0  0  0  0  0  0  0  0  0
    8.8606  -15.1713   26.2715 O   0  0  0  0  0  0  0  0  0  0  0  0
  2  1  1  6
  2  3  1  0
  3  4  1  0
  4  8  1  0
  5  4  2  0
  6  2  1  0
  7  6  2  0
  9  6  1  0
 10 14  1  0
 10  9  1  0
 10 11  1  6
 12 11  1  0
 12 16  1  0
 13 12  2  0
 14 15  2  0
 18 20  1  0
 18 17  1  0
 19 18  2  0
 21 20  1  0
 22 21  1  0
 23 22  1  0
 24 23  1  6
 25 24  1  0
 25 14  1  0
 26 28  1  0
 26 24  1  0
 27 26  2  0
M  END
$$$$
