DDR.pdb
     RDKit          3D

 28 27  0  0  1  0  0  0  0  0999 V2000
   14.1576  -17.7032   18.2999 N   0  0  0  0  0  0  0  0  0  0  0  0
   14.4672  -16.9484   19.4702 C   0  0  1  0  0  0  0  0  0  0  0  0
   14.2704  -15.4750   19.3165 C   0  0  0  0  0  0  0  0  0  0  0  0
   15.3231  -14.8109   18.5142 C   0  0  0  0  0  0  0  0  0  0  0  0
   16.5111  -15.1642   18.6683 O   0  0  0  0  0  0  0  0  0  0  0  0
   13.6302  -17.3703   20.6456 C   0  0  0  0  0  0  0  0  0  0  0  0
   12.3902  -17.4283   20.4903 O   0  0  0  0  0  0  0  0  0  0  0  0
   15.0372  -13.8141   17.6006 O   0  0  0  0  0  0  0  0  0  0  0  0
   14.1691  -17.7017   21.9076 N   0  0  0  0  0  0  0  0  0  0  0  0
   13.4118  -18.1693   23.0319 C   0  0  1  0  0  0  0  0  0  0  0  0
   14.2992  -18.6554   24.1258 C   0  0  0  0  0  0  0  0  0  0  0  0
   13.6079  -19.2938   25.2495 C   0  0  0  0  0  0  0  0  0  0  0  0
   12.3542  -19.4071   25.1669 O   0  0  0  0  0  0  0  0  0  0  0  0
   12.4031  -17.1719   23.4832 C   0  0  0  0  0  0  0  0  0  0  0  0
   12.8028  -16.0316   23.8174 O   0  0  0  0  0  0  0  0  0  0  0  0
   14.2062  -19.7862   26.3994 O   0  0  0  0  0  0  0  0  0  0  0  0
    7.3569  -13.8615   18.4954 N   0  0  0  0  0  0  0  0  0  0  0  0
    7.9763  -12.8415   19.2795 C   0  0  0  0  0  0  0  0  0  0  0  0
    8.0345  -11.6215   18.8554 N   0  0  0  0  0  0  0  0  0  0  0  0
    8.5558  -13.1052   20.5491 N   0  0  0  0  0  0  0  0  0  0  0  0
    8.5976  -14.4355   21.0407 C   0  0  0  0  0  0  0  0  0  0  0  0
    9.2627  -14.5763   22.3995 C   0  0  0  0  0  0  0  0  0  0  0  0
    9.2508  -16.0510   22.7158 C   0  0  0  0  0  0  0  0  0  0  0  0
   10.0464  -16.4185   23.9518 C   0  0  2  0  0  0  0  0  0  0  0  0
   11.0150  -17.4402   23.5553 N   0  0  0  0  0  0  0  0  0  0  0  0
    9.2308  -16.8578   25.0847 C   0  0  0  0  0  0  0  0  0  0  0  0
    9.1834  -18.0707   25.3879 O   0  0  0  0  0  0  0  0  0  0  0  0
    8.4841  -15.9710   25.8641 O   0  0  0  0  0  0  0  0  0  0  0  0
  2  1  1  6
  2  3  1  0
  3  4  1  0
  4  8  1  0
  5  4  2  0
  6  2  1  0
  7  6  2  0
  9  6  1  0
 10 14  1  0
 10  9  1  0
 10 11  1  1
 12 11  1  0
 12 16  1  0
 13 12  2  0
 14 15  2  0
 18 20  1  0
 18 17  1  0
 19 18  2  0
 21 20  1  0
 22 21  1  0
 23 22  1  0
 24 23  1  6
 25 24  1  0
 25 14  1  0
 26 28  1  0
 26 24  1  0
 27 26  2  0
M  END
$$$$
