DDR.pdb
     RDKit          3D

 28 27  0  0  1  0  0  0  0  0999 V2000
    8.0396  -19.8993   16.0965 N   0  0  0  0  0  0  0  0  0  0  0  0
    9.2927  -19.6538   16.7327 C   0  0  1  0  0  0  0  0  0  0  0  0
    9.9450  -18.3731   16.3233 C   0  0  0  0  0  0  0  0  0  0  0  0
   10.4534  -18.3782   14.9324 C   0  0  0  0  0  0  0  0  0  0  0  0
    9.7633  -17.8482   14.0365 O   0  0  0  0  0  0  0  0  0  0  0  0
    9.1602  -19.6056   18.2295 C   0  0  0  0  0  0  0  0  0  0  0  0
    8.2574  -18.8880   18.7143 O   0  0  0  0  0  0  0  0  0  0  0  0
   11.6651  -18.9487   14.5908 O   0  0  0  0  0  0  0  0  0  0  0  0
    9.9980  -20.3240   19.1099 N   0  0  0  0  0  0  0  0  0  0  0  0
    9.8832  -20.3287   20.5392 C   0  0  1  0  0  0  0  0  0  0  0  0
   10.6505  -21.4525   21.1464 C   0  0  0  0  0  0  0  0  0  0  0  0
   10.3235  -21.7443   22.5449 C   0  0  0  0  0  0  0  0  0  0  0  0
   10.9142  -22.7195   23.0847 O   0  0  0  0  0  0  0  0  0  0  0  0
   10.2030  -19.0014   21.1323 C   0  0  0  0  0  0  0  0  0  0  0  0
   11.2330  -18.4059   20.7367 O   0  0  0  0  0  0  0  0  0  0  0  0
    9.4212  -21.0455   23.3326 O   0  0  0  0  0  0  0  0  0  0  0  0
    6.9545  -11.8907   19.7392 N   0  0  0  0  0  0  0  0  0  0  0  0
    8.0664  -12.7333   19.4347 C   0  0  0  0  0  0  0  0  0  0  0  0
    8.5503  -12.7869   18.2369 N   0  0  0  0  0  0  0  0  0  0  0  0
    8.6932  -13.5484   20.4144 N   0  0  0  0  0  0  0  0  0  0  0  0
    8.0271  -13.8153   21.6384 C   0  0  0  0  0  0  0  0  0  0  0  0
    8.8230  -14.6751   22.6056 C   0  0  0  0  0  0  0  0  0  0  0  0
    8.6538  -16.0969   22.1317 C   0  0  0  0  0  0  0  0  0  0  0  0
    9.7221  -17.0432   22.6409 C   0  0  2  0  0  0  0  0  0  0  0  0
    9.4066  -18.3730   22.1197 N   0  0  0  0  0  0  0  0  0  0  0  0
    9.8723  -17.0550   24.0965 C   0  0  0  0  0  0  0  0  0  0  0  0
   10.2285  -16.0166   24.6967 O   0  0  0  0  0  0  0  0  0  0  0  0
    9.6326  -18.1937   24.8694 O   0  0  0  0  0  0  0  0  0  0  0  0
  2  1  1  6
  2  3  1  0
  3  4  1  0
  4  8  1  0
  5  4  2  0
  6  2  1  0
  7  6  2  0
  9  6  1  0
 10 14  1  0
 10  9  1  0
 10 11  1  1
 12 11  1  0
 12 16  1  0
 13 12  2  0
 14 15  2  0
 18 20  1  0
 18 17  1  0
 19 18  2  0
 21 20  1  0
 22 21  1  0
 23 22  1  0
 24 23  1  1
 25 24  1  0
 25 14  1  0
 26 28  1  0
 26 24  1  0
 27 26  2  0
M  END
$$$$
