DDR.pdb
     RDKit          3D

 28 27  0  0  1  0  0  0  0  0999 V2000
   10.2905  -15.8933   16.0466 N   0  0  0  0  0  0  0  0  0  0  0  0
   10.0213  -16.9053   17.0153 C   0  0  1  0  0  0  0  0  0  0  0  0
   10.2429  -18.2982   16.5211 C   0  0  0  0  0  0  0  0  0  0  0  0
    9.9130  -18.4850   15.0896 C   0  0  0  0  0  0  0  0  0  0  0  0
    9.6732  -17.4786   14.3900 O   0  0  0  0  0  0  0  0  0  0  0  0
   10.8759  -16.7469   18.2421 C   0  0  0  0  0  0  0  0  0  0  0  0
   10.6748  -17.5262   19.1999 O   0  0  0  0  0  0  0  0  0  0  0  0
    9.8614  -19.7341   14.5003 O   0  0  0  0  0  0  0  0  0  0  0  0
   11.8866  -15.7694   18.3672 N   0  0  0  0  0  0  0  0  0  0  0  0
   12.6587  -15.5269   19.5509 C   0  0  1  0  0  0  0  0  0  0  0  0
   13.6705  -14.4546   19.3346 C   0  0  0  0  0  0  0  0  0  0  0  0
   15.0372  -14.7995   19.7363 C   0  0  0  0  0  0  0  0  0  0  0  0
   15.1750  -15.7354   20.5709 O   0  0  0  0  0  0  0  0  0  0  0  0
   11.7992  -15.3014   20.7452 C   0  0  0  0  0  0  0  0  0  0  0  0
   10.8899  -14.4416   20.6695 O   0  0  0  0  0  0  0  0  0  0  0  0
   16.1972  -14.1899   19.2827 O   0  0  0  0  0  0  0  0  0  0  0  0
    8.5223  -13.3194   18.3773 N   0  0  0  0  0  0  0  0  0  0  0  0
    7.9034  -12.7860   19.5484 C   0  0  0  0  0  0  0  0  0  0  0  0
    7.3702  -11.6082   19.5396 N   0  0  0  0  0  0  0  0  0  0  0  0
    7.8405  -13.5071   20.7704 N   0  0  0  0  0  0  0  0  0  0  0  0
    8.8052  -14.5104   21.0457 C   0  0  0  0  0  0  0  0  0  0  0  0
    8.6116  -15.2105   22.3801 C   0  0  0  0  0  0  0  0  0  0  0  0
    9.6192  -16.3325   22.4093 C   0  0  0  0  0  0  0  0  0  0  0  0
   10.9482  -15.9460   23.0259 C   0  0  2  0  0  0  0  0  0  0  0  0
   11.9519  -16.0057   21.9636 N   0  0  0  0  0  0  0  0  0  0  0  0
   11.3350  -16.7570   24.1810 C   0  0  0  0  0  0  0  0  0  0  0  0
   12.0857  -17.7460   24.0274 O   0  0  0  0  0  0  0  0  0  0  0  0
   10.8985  -16.4769   25.4782 O   0  0  0  0  0  0  0  0  0  0  0  0
  2  1  1  6
  2  3  1  0
  3  4  1  0
  4  8  1  0
  5  4  2  0
  6  2  1  0
  7  6  2  0
  9  6  1  0
 10 14  1  0
 10  9  1  0
 10 11  1  6
 12 11  1  0
 12 16  1  0
 13 12  2  0
 14 15  2  0
 18 20  1  0
 18 17  1  0
 19 18  2  0
 21 20  1  0
 22 21  1  0
 23 22  1  0
 24 23  1  6
 25 24  1  0
 25 14  1  0
 26 28  1  0
 26 24  1  0
 27 26  2  0
M  END
$$$$
