NDD.pdb
     RDKit          3D

 25 24  0  0  1  0  0  0  0  0999 V2000
   28.4137  -19.2718  -16.9166 N   0  0  0  0  0  0  0  0  0  0  0  0
   28.3626  -20.6545  -16.5993 C   0  0  0  0  0  0  0  0  0  0  0  0
   29.2754  -21.3880  -17.0333 O   0  0  0  0  0  0  0  0  0  0  0  0
   27.2321  -21.1415  -15.7751 C   0  0  0  0  0  0  0  0  0  0  0  0
   26.2389  -20.0392  -15.4823 C   0  0  2  0  0  0  0  0  0  0  0  0
   26.9157  -18.9957  -14.7600 N   0  0  0  0  0  0  0  0  0  0  0  0
   25.1428  -20.6688  -14.6670 C   0  0  0  0  0  0  0  0  0  0  0  0
   24.4630  -21.5448  -15.2577 O   0  0  0  0  0  0  0  0  0  0  0  0
   24.8835  -20.3178  -13.3471 N   0  0  0  0  0  0  0  0  0  0  0  0
   23.8047  -20.9747  -12.6031 C   0  0  1  0  0  0  0  0  0  0  0  0
   24.0783  -20.9133  -11.1311 C   0  0  0  0  0  0  0  0  0  0  0  0
   25.2138  -21.7180  -10.6582 C   0  0  0  0  0  0  0  0  0  0  0  0
   25.6390  -22.6914  -11.3120 O   0  0  0  0  0  0  0  0  0  0  0  0
   22.5385  -20.2424  -12.8858 C   0  0  0  0  0  0  0  0  0  0  0  0
   22.5407  -19.0185  -13.0311 O   0  0  0  0  0  0  0  0  0  0  0  0
   25.8699  -21.4319   -9.4560 O   0  0  0  0  0  0  0  0  0  0  0  0
   21.2853  -20.9216  -12.9967 N   0  0  0  0  0  0  0  0  0  0  0  0
   20.1073  -20.2899  -13.5454 C   0  0  1  0  0  0  0  0  0  0  0  0
   20.3312  -19.6797  -14.9045 C   0  0  0  0  0  0  0  0  0  0  0  0
   19.1131  -19.0290  -15.4322 C   0  0  0  0  0  0  0  0  0  0  0  0
   18.8067  -17.8550  -15.1268 O   0  0  0  0  0  0  0  0  0  0  0  0
   18.9462  -21.2301  -13.5616 C   0  0  0  0  0  0  0  0  0  0  0  0
   19.0738  -22.4053  -13.9902 O   0  0  0  0  0  0  0  0  0  0  0  0
   18.2758  -19.7219  -16.2898 O   0  0  0  0  0  0  0  0  0  0  0  0
   17.6969  -20.8400  -13.1075 O   0  0  0  0  0  0  0  0  0  0  0  0
  1  2  1  0
  2  3  2  0
  4  2  1  0
  5  4  1  0
  5  6  1  1
  7  5  1  0
  7  8  2  0
  9  7  1  0
 10  9  1  0
 10 11  1  1
 12 11  1  0
 13 12  2  0
 14 10  1  0
 15 14  2  0
 16 12  1  0
 17 14  1  0
 18 17  1  0
 18 22  1  0
 18 19  1  6
 20 21  2  0
 20 19  1  0
 22 25  1  0
 23 22  2  0
 24 20  1  0
M  END
$$$$
