NDD.pdb
     RDKit          3D

 25 24  0  0  1  0  0  0  0  0999 V2000
   12.6625  -12.6764  -16.1069 N   0  0  0  0  0  0  0  0  0  0  0  0
   12.6044  -12.1882  -14.7752 C   0  0  0  0  0  0  0  0  0  0  0  0
   11.4830  -12.1026  -14.2324 O   0  0  0  0  0  0  0  0  0  0  0  0
   13.8745  -11.8109  -14.1127 C   0  0  0  0  0  0  0  0  0  0  0  0
   15.0600  -11.9905  -15.0346 C   0  0  2  0  0  0  0  0  0  0  0  0
   15.5736  -13.3229  -14.8626 N   0  0  0  0  0  0  0  0  0  0  0  0
   16.0639  -10.9441  -14.6344 C   0  0  0  0  0  0  0  0  0  0  0  0
   16.3048  -10.8668  -13.4038 O   0  0  0  0  0  0  0  0  0  0  0  0
   16.6930  -10.1086  -15.5502 N   0  0  0  0  0  0  0  0  0  0  0  0
   17.6722   -9.1159  -15.0978 C   0  0  1  0  0  0  0  0  0  0  0  0
   18.9629   -9.2857  -15.8400 C   0  0  0  0  0  0  0  0  0  0  0  0
   20.0045   -8.2912  -15.5458 C   0  0  0  0  0  0  0  0  0  0  0  0
   20.7663   -7.8634  -16.4359 O   0  0  0  0  0  0  0  0  0  0  0  0
   17.1249   -7.7621  -15.3926 C   0  0  0  0  0  0  0  0  0  0  0  0
   16.5872   -7.5251  -16.4761 O   0  0  0  0  0  0  0  0  0  0  0  0
   20.1911   -7.7786  -14.2573 O   0  0  0  0  0  0  0  0  0  0  0  0
   17.2020   -6.6962  -14.4429 N   0  0  0  0  0  0  0  0  0  0  0  0
   16.7915   -5.3470  -14.7569 C   0  0  1  0  0  0  0  0  0  0  0  0
   15.8364   -4.7604  -13.7502 C   0  0  0  0  0  0  0  0  0  0  0  0
   15.4944   -3.3554  -14.0574 C   0  0  0  0  0  0  0  0  0  0  0  0
   15.2220   -2.9813  -15.2198 O   0  0  0  0  0  0  0  0  0  0  0  0
   17.9724   -4.4552  -14.9624 C   0  0  0  0  0  0  0  0  0  0  0  0
   17.8225   -3.2556  -15.3083 O   0  0  0  0  0  0  0  0  0  0  0  0
   15.4692   -2.4127  -13.0438 O   0  0  0  0  0  0  0  0  0  0  0  0
   19.2653   -4.9182  -14.7797 O   0  0  0  0  0  0  0  0  0  0  0  0
  1  2  1  0
  2  3  2  0
  4  2  1  0
  5  4  1  0
  5  6  1  1
  7  5  1  0
  7  8  2  0
  9  7  1  0
 10  9  1  0
 10 11  1  6
 12 11  1  0
 13 12  2  0
 14 10  1  0
 15 14  2  0
 16 12  1  0
 17 14  1  0
 18 17  1  0
 18 22  1  0
 18 19  1  1
 20 21  2  0
 20 19  1  0
 22 25  1  0
 23 22  2  0
 24 20  1  0
M  END
$$$$
