NDD.pdb
     RDKit          3D

 25 24  0  0  1  0  0  0  0  0999 V2000
   24.4142  -32.4506   -9.0597 N   0  0  0  0  0  0  0  0  0  0  0  0
   25.3772  -33.3817   -9.5296 C   0  0  0  0  0  0  0  0  0  0  0  0
   25.4045  -33.6268  -10.7539 O   0  0  0  0  0  0  0  0  0  0  0  0
   26.2883  -34.0043   -8.5414 C   0  0  0  0  0  0  0  0  0  0  0  0
   26.0324  -33.4880   -7.1431 C   0  0  2  0  0  0  0  0  0  0  0  0
   26.3449  -32.0845   -7.1109 N   0  0  0  0  0  0  0  0  0  0  0  0
   26.9259  -34.2849   -6.2324 C   0  0  0  0  0  0  0  0  0  0  0  0
   26.5406  -35.4543   -5.9826 O   0  0  0  0  0  0  0  0  0  0  0  0
   28.1028  -33.7785   -5.6929 N   0  0  0  0  0  0  0  0  0  0  0  0
   28.8654  -34.5582   -4.7133 C   0  0  1  0  0  0  0  0  0  0  0  0
   30.2575  -34.0173   -4.5911 C   0  0  0  0  0  0  0  0  0  0  0  0
   31.1444  -34.7391   -3.6676 C   0  0  0  0  0  0  0  0  0  0  0  0
   31.0199  -34.6357   -2.4309 O   0  0  0  0  0  0  0  0  0  0  0  0
   28.1849  -34.4314   -3.3941 C   0  0  0  0  0  0  0  0  0  0  0  0
   27.7041  -33.3541   -3.0372 O   0  0  0  0  0  0  0  0  0  0  0  0
   32.1678  -35.5738   -4.1299 O   0  0  0  0  0  0  0  0  0  0  0  0
   28.0653  -35.5403   -2.4997 N   0  0  0  0  0  0  0  0  0  0  0  0
   27.4304  -35.4282   -1.2066 C   0  0  1  0  0  0  0  0  0  0  0  0
   26.1005  -36.1317   -1.1278 C   0  0  0  0  0  0  0  0  0  0  0  0
   25.4872  -36.0183    0.2126 C   0  0  0  0  0  0  0  0  0  0  0  0
   26.0242  -35.3595    1.1307 O   0  0  0  0  0  0  0  0  0  0  0  0
   28.3439  -35.8789   -0.1136 C   0  0  0  0  0  0  0  0  0  0  0  0
   27.9756  -35.8487    1.0883 O   0  0  0  0  0  0  0  0  0  0  0  0
   24.2850  -36.6515    0.4783 O   0  0  0  0  0  0  0  0  0  0  0  0
   29.6205  -36.3426   -0.3868 O   0  0  0  0  0  0  0  0  0  0  0  0
  1  2  1  0
  2  3  2  0
  4  2  1  0
  5  4  1  0
  5  6  1  6
  7  5  1  0
  7  8  2  0
  9  7  1  0
 10  9  1  0
 10 11  1  1
 12 11  1  0
 13 12  2  0
 14 10  1  0
 15 14  2  0
 16 12  1  0
 17 14  1  0
 18 17  1  0
 18 22  1  0
 18 19  1  6
 20 21  2  0
 20 19  1  0
 22 25  1  0
 23 22  2  0
 24 20  1  0
M  END
$$$$
