NDD.pdb
     RDKit          3D

 25 24  0  0  1  0  0  0  0  0999 V2000
   26.7532  -20.2707   -9.1296 N   0  0  0  0  0  0  0  0  0  0  0  0
   27.4821  -20.7202  -10.2617 C   0  0  0  0  0  0  0  0  0  0  0  0
   28.6717  -21.0611  -10.0935 O   0  0  0  0  0  0  0  0  0  0  0  0
   26.7887  -20.7572  -11.5702 C   0  0  0  0  0  0  0  0  0  0  0  0
   25.3994  -20.1659  -11.4829 C   0  0  2  0  0  0  0  0  0  0  0  0
   24.6698  -20.8650  -10.4593 N   0  0  0  0  0  0  0  0  0  0  0  0
   24.7799  -20.3499  -12.8413 C   0  0  0  0  0  0  0  0  0  0  0  0
   25.5064  -20.0318  -13.8157 O   0  0  0  0  0  0  0  0  0  0  0  0
   23.4912  -20.8371  -13.0264 N   0  0  0  0  0  0  0  0  0  0  0  0
   22.9544  -21.0201  -14.3781 C   0  0  1  0  0  0  0  0  0  0  0  0
   22.2229  -22.3244  -14.4730 C   0  0  0  0  0  0  0  0  0  0  0  0
   23.0662  -23.5231  -14.5850 C   0  0  0  0  0  0  0  0  0  0  0  0
   24.2571  -23.4497  -14.9483 O   0  0  0  0  0  0  0  0  0  0  0  0
   21.9949  -19.9124  -14.6461 C   0  0  0  0  0  0  0  0  0  0  0  0
   21.1992  -19.5480  -13.7782 O   0  0  0  0  0  0  0  0  0  0  0  0
   22.5751  -24.7998  -14.2908 O   0  0  0  0  0  0  0  0  0  0  0  0
   21.9580  -19.2372  -15.9057 N   0  0  0  0  0  0  0  0  0  0  0  0
   21.0726  -18.1249  -16.1634 C   0  0  1  0  0  0  0  0  0  0  0  0
   21.7919  -16.8126  -16.3370 C   0  0  0  0  0  0  0  0  0  0  0  0
   20.8563  -15.6823  -16.5172 C   0  0  0  0  0  0  0  0  0  0  0  0
   19.6167  -15.8324  -16.4385 O   0  0  0  0  0  0  0  0  0  0  0  0
   20.1747  -18.4048  -17.3242 C   0  0  0  0  0  0  0  0  0  0  0  0
   20.6496  -18.6594  -18.4604 O   0  0  0  0  0  0  0  0  0  0  0  0
   21.3465  -14.4146  -16.7808 O   0  0  0  0  0  0  0  0  0  0  0  0
   18.7960  -18.3930  -17.1881 O   0  0  0  0  0  0  0  0  0  0  0  0
  1  2  1  0
  2  3  2  0
  4  2  1  0
  5  4  1  0
  5  6  1  1
  7  5  1  0
  7  8  2  0
  9  7  1  0
 10  9  1  0
 10 11  1  1
 12 11  1  0
 13 12  2  0
 14 10  1  0
 15 14  2  0
 16 12  1  0
 17 14  1  0
 18 17  1  0
 18 22  1  0
 18 19  1  6
 20 21  2  0
 20 19  1  0
 22 25  1  0
 23 22  2  0
 24 20  1  0
M  END
$$$$
