NDD.pdb
     RDKit          3D

 25 24  0  0  1  0  0  0  0  0999 V2000
   13.1414   -7.4170   -7.9557 N   0  0  0  0  0  0  0  0  0  0  0  0
   13.2103   -8.7971   -8.2805 C   0  0  0  0  0  0  0  0  0  0  0  0
   12.2561   -9.5265   -7.9382 O   0  0  0  0  0  0  0  0  0  0  0  0
   14.4069   -9.2865   -9.0037 C   0  0  0  0  0  0  0  0  0  0  0  0
   15.3853   -8.1681   -9.2855 C   0  0  2  0  0  0  0  0  0  0  0  0
   14.6400   -6.9756   -9.5876 N   0  0  0  0  0  0  0  0  0  0  0  0
   16.2168   -8.6235  -10.4534 C   0  0  0  0  0  0  0  0  0  0  0  0
   17.0542   -9.5260  -10.2031 O   0  0  0  0  0  0  0  0  0  0  0  0
   16.0827   -8.0930  -11.7313 N   0  0  0  0  0  0  0  0  0  0  0  0
   17.0163   -8.4752  -12.7948 C   0  0  1  0  0  0  0  0  0  0  0  0
   16.2814   -8.6612  -14.0874 C   0  0  0  0  0  0  0  0  0  0  0  0
   17.1091   -9.0260  -15.2460 C   0  0  0  0  0  0  0  0  0  0  0  0
   17.0258   -8.4079  -16.3262 O   0  0  0  0  0  0  0  0  0  0  0  0
   18.0031   -7.3713  -12.9596 C   0  0  0  0  0  0  0  0  0  0  0  0
   17.7875   -6.2595  -12.4734 O   0  0  0  0  0  0  0  0  0  0  0  0
   18.0268  -10.0808  -15.1932 O   0  0  0  0  0  0  0  0  0  0  0  0
   19.2238   -7.5548  -13.6809 N   0  0  0  0  0  0  0  0  0  0  0  0
   20.2526   -6.5417  -13.7340 C   0  0  1  0  0  0  0  0  0  0  0  0
   21.0690   -6.4484  -12.4713 C   0  0  0  0  0  0  0  0  0  0  0  0
   22.0775   -5.3694  -12.5366 C   0  0  0  0  0  0  0  0  0  0  0  0
   21.9233   -4.3650  -13.2665 O   0  0  0  0  0  0  0  0  0  0  0  0
   21.1292   -6.7219  -14.9303 C   0  0  0  0  0  0  0  0  0  0  0  0
   22.0311   -5.8883  -15.2005 O   0  0  0  0  0  0  0  0  0  0  0  0
   23.2311   -5.4546  -11.7759 O   0  0  0  0  0  0  0  0  0  0  0  0
   20.9783   -7.8078  -15.7772 O   0  0  0  0  0  0  0  0  0  0  0  0
  1  2  1  0
  2  3  2  0
  4  2  1  0
  5  4  1  0
  5  6  1  6
  7  5  1  0
  7  8  2  0
  9  7  1  0
 10  9  1  0
 10 11  1  6
 12 11  1  0
 13 12  2  0
 14 10  1  0
 15 14  2  0
 16 12  1  0
 17 14  1  0
 18 17  1  0
 18 22  1  0
 18 19  1  1
 20 21  2  0
 20 19  1  0
 22 25  1  0
 23 22  2  0
 24 20  1  0
M  END
$$$$
