NDD.pdb
     RDKit          3D

 25 24  0  0  1  0  0  0  0  0999 V2000
   11.0417   -8.9189   -9.1783 N   0  0  0  0  0  0  0  0  0  0  0  0
   12.1867   -9.2148   -8.3930 C   0  0  0  0  0  0  0  0  0  0  0  0
   12.0182   -9.4442   -7.1771 O   0  0  0  0  0  0  0  0  0  0  0  0
   13.5080   -9.2331   -9.0624 C   0  0  0  0  0  0  0  0  0  0  0  0
   13.3776   -9.0682  -10.5601 C   0  0  2  0  0  0  0  0  0  0  0  0
   12.6096  -10.1698  -11.0750 N   0  0  0  0  0  0  0  0  0  0  0  0
   14.7801   -9.0568  -11.1038 C   0  0  0  0  0  0  0  0  0  0  0  0
   15.6403   -8.5058  -10.3725 O   0  0  0  0  0  0  0  0  0  0  0  0
   15.1212   -9.6129  -12.3314 N   0  0  0  0  0  0  0  0  0  0  0  0
   16.4988   -9.5311  -12.8257 C   0  0  1  0  0  0  0  0  0  0  0  0
   16.9168  -10.8440  -13.4148 C   0  0  0  0  0  0  0  0  0  0  0  0
   18.2460  -10.8687  -14.0417 C   0  0  0  0  0  0  0  0  0  0  0  0
   19.2390  -10.3611  -13.4829 O   0  0  0  0  0  0  0  0  0  0  0  0
   16.5443   -8.4917  -13.8919 C   0  0  0  0  0  0  0  0  0  0  0  0
   15.5216   -8.1736  -14.5018 O   0  0  0  0  0  0  0  0  0  0  0  0
   18.4606  -11.4603  -15.2913 O   0  0  0  0  0  0  0  0  0  0  0  0
   17.7613   -7.8310  -14.2471 N   0  0  0  0  0  0  0  0  0  0  0  0
   17.8116   -6.7766  -15.2337 C   0  0  1  0  0  0  0  0  0  0  0  0
   16.8429   -5.6548  -14.9633 C   0  0  0  0  0  0  0  0  0  0  0  0
   16.9253   -4.5876  -15.9830 C   0  0  0  0  0  0  0  0  0  0  0  0
   16.5033   -4.7546  -17.1489 O   0  0  0  0  0  0  0  0  0  0  0  0
   19.2026   -6.2582  -15.4024 C   0  0  0  0  0  0  0  0  0  0  0  0
   19.5246   -5.5946  -16.4208 O   0  0  0  0  0  0  0  0  0  0  0  0
   17.4815   -3.3622  -15.6576 O   0  0  0  0  0  0  0  0  0  0  0  0
   20.1789   -6.4905  -14.4473 O   0  0  0  0  0  0  0  0  0  0  0  0
  1  2  1  0
  2  3  2  0
  4  2  1  0
  5  4  1  0
  5  6  1  6
  7  5  1  0
  7  8  2  0
  9  7  1  0
 10  9  1  0
 10 11  1  6
 12 11  1  0
 13 12  2  0
 14 10  1  0
 15 14  2  0
 16 12  1  0
 17 14  1  0
 18 17  1  0
 18 22  1  0
 18 19  1  1
 20 21  2  0
 20 19  1  0
 22 25  1  0
 23 22  2  0
 24 20  1  0
M  END
$$$$
