NDD.pdb
     RDKit          3D

 25 24  0  0  1  0  0  0  0  0999 V2000
   15.3798  -15.4144  -16.3360 N   0  0  0  0  0  0  0  0  0  0  0  0
   15.5994  -14.4902  -15.2811 C   0  0  0  0  0  0  0  0  0  0  0  0
   14.6125  -14.1261  -14.6080 O   0  0  0  0  0  0  0  0  0  0  0  0
   16.9824  -14.0153  -15.0441 C   0  0  0  0  0  0  0  0  0  0  0  0
   17.9433  -14.5545  -16.0801 C   0  0  2  0  0  0  0  0  0  0  0  0
   18.4028  -15.8468  -15.6470 N   0  0  0  0  0  0  0  0  0  0  0  0
   19.0666  -13.5579  -16.1683 C   0  0  0  0  0  0  0  0  0  0  0  0
   20.0447  -13.7756  -15.4105 O   0  0  0  0  0  0  0  0  0  0  0  0
   19.0421  -12.4628  -17.0242 N   0  0  0  0  0  0  0  0  0  0  0  0
   20.2018  -11.5715  -17.1217 C   0  0  1  0  0  0  0  0  0  0  0  0
   20.7664  -11.6057  -18.5093 C   0  0  0  0  0  0  0  0  0  0  0  0
   21.9202  -10.7278  -18.7514 C   0  0  0  0  0  0  0  0  0  0  0  0
   21.8158   -9.6885  -19.4330 O   0  0  0  0  0  0  0  0  0  0  0  0
   19.7432  -10.1854  -16.8255 C   0  0  0  0  0  0  0  0  0  0  0  0
   18.7815   -9.7012  -17.4253 O   0  0  0  0  0  0  0  0  0  0  0  0
   23.1868  -11.0149  -18.2308 O   0  0  0  0  0  0  0  0  0  0  0  0
   20.3932   -9.3709  -15.8467 N   0  0  0  0  0  0  0  0  0  0  0  0
   20.0039   -8.0025  -15.5946 C   0  0  1  0  0  0  0  0  0  0  0  0
   18.9878   -7.8609  -14.4913 C   0  0  0  0  0  0  0  0  0  0  0  0
   18.5333   -6.4639  -14.3264 C   0  0  0  0  0  0  0  0  0  0  0  0
   18.1524   -5.7745  -15.2985 O   0  0  0  0  0  0  0  0  0  0  0  0
   21.1959   -7.1375  -15.3434 C   0  0  0  0  0  0  0  0  0  0  0  0
   21.0639   -5.9084  -15.1131 O   0  0  0  0  0  0  0  0  0  0  0  0
   18.5213   -5.8849  -13.0689 O   0  0  0  0  0  0  0  0  0  0  0  0
   22.4796   -7.6584  -15.3560 O   0  0  0  0  0  0  0  0  0  0  0  0
  1  2  1  0
  2  3  2  0
  4  2  1  0
  5  4  1  0
  5  6  1  1
  7  5  1  0
  7  8  2  0
  9  7  1  0
 10  9  1  0
 10 11  1  6
 12 11  1  0
 13 12  2  0
 14 10  1  0
 15 14  2  0
 16 12  1  0
 17 14  1  0
 18 17  1  0
 18 22  1  0
 18 19  1  1
 20 21  2  0
 20 19  1  0
 22 25  1  0
 23 22  2  0
 24 20  1  0
M  END
$$$$
