NDD.pdb
     RDKit          3D

 25 24  0  0  1  0  0  0  0  0999 V2000
   15.4896  -13.0359  -10.7118 N   0  0  0  0  0  0  0  0  0  0  0  0
   16.5443  -12.3008  -11.3138 C   0  0  0  0  0  0  0  0  0  0  0  0
   17.4903  -12.9418  -11.8175 O   0  0  0  0  0  0  0  0  0  0  0  0
   16.4584  -10.8220  -11.3073 C   0  0  0  0  0  0  0  0  0  0  0  0
   15.2970  -10.3337  -10.4707 C   0  0  2  0  0  0  0  0  0  0  0  0
   14.0777  -10.8333  -11.0473 N   0  0  0  0  0  0  0  0  0  0  0  0
   15.3605   -8.8311  -10.5024 C   0  0  0  0  0  0  0  0  0  0  0  0
   14.9988   -8.2962  -11.5801 O   0  0  0  0  0  0  0  0  0  0  0  0
   15.7887   -8.0681   -9.4222 N   0  0  0  0  0  0  0  0  0  0  0  0
   15.7784   -6.6042   -9.4976 C   0  0  1  0  0  0  0  0  0  0  0  0
   15.3243   -6.0212   -8.1940 C   0  0  0  0  0  0  0  0  0  0  0  0
   15.1964   -4.5574   -8.1588 C   0  0  0  0  0  0  0  0  0  0  0  0
   15.4504   -3.8574   -9.1594 O   0  0  0  0  0  0  0  0  0  0  0  0
   17.1705   -6.1475   -9.7674 C   0  0  0  0  0  0  0  0  0  0  0  0
   18.0581   -6.3111   -8.9280 O   0  0  0  0  0  0  0  0  0  0  0  0
   14.7851   -3.8811   -7.0050 O   0  0  0  0  0  0  0  0  0  0  0  0
   17.5278   -5.5075  -10.9949 N   0  0  0  0  0  0  0  0  0  0  0  0
   18.9022   -5.3122  -11.3958 C   0  0  1  0  0  0  0  0  0  0  0  0
   19.7199   -6.5773  -11.3728 C   0  0  0  0  0  0  0  0  0  0  0  0
   21.0953   -6.3625  -11.8702 C   0  0  0  0  0  0  0  0  0  0  0  0
   21.6131   -7.1150  -12.7253 O   0  0  0  0  0  0  0  0  0  0  0  0
   18.9879   -4.6394  -12.7270 C   0  0  0  0  0  0  0  0  0  0  0  0
   20.0934   -4.2521  -13.1840 O   0  0  0  0  0  0  0  0  0  0  0  0
   21.8471   -5.3044  -11.3886 O   0  0  0  0  0  0  0  0  0  0  0  0
   17.8578   -4.4212  -13.4981 O   0  0  0  0  0  0  0  0  0  0  0  0
  1  2  1  0
  2  3  2  0
  4  2  1  0
  5  4  1  0
  5  6  1  6
  7  5  1  0
  7  8  2  0
  9  7  1  0
 10  9  1  0
 10 11  1  1
 12 11  1  0
 13 12  2  0
 14 10  1  0
 15 14  2  0
 16 12  1  0
 17 14  1  0
 18 17  1  0
 18 22  1  0
 18 19  1  6
 20 21  2  0
 20 19  1  0
 22 25  1  0
 23 22  2  0
 24 20  1  0
M  END
$$$$
