NDD.pdb
     RDKit          3D

 25 24  0  0  1  0  0  0  0  0999 V2000
   21.7656   -7.4760  -10.7929 N   0  0  0  0  0  0  0  0  0  0  0  0
   21.6207   -6.6066  -11.9056 C   0  0  0  0  0  0  0  0  0  0  0  0
   22.4393   -5.6713  -12.0272 O   0  0  0  0  0  0  0  0  0  0  0  0
   20.5098   -6.8611  -12.8520 C   0  0  0  0  0  0  0  0  0  0  0  0
   19.7736   -8.1392  -12.5180 C   0  0  2  0  0  0  0  0  0  0  0  0
   19.6629   -8.9280  -13.7156 N   0  0  0  0  0  0  0  0  0  0  0  0
   18.4273   -7.7219  -11.9923 C   0  0  0  0  0  0  0  0  0  0  0  0
   17.7376   -7.0153  -12.7692 O   0  0  0  0  0  0  0  0  0  0  0  0
   17.9604   -8.0831  -10.7338 N   0  0  0  0  0  0  0  0  0  0  0  0
   16.6112   -7.7020  -10.3057 C   0  0  1  0  0  0  0  0  0  0  0  0
   16.0041   -8.7912   -9.4747 C   0  0  0  0  0  0  0  0  0  0  0  0
   14.6038   -8.5865   -9.0774 C   0  0  0  0  0  0  0  0  0  0  0  0
   13.9782   -9.4490   -8.4291 O   0  0  0  0  0  0  0  0  0  0  0  0
   16.7229   -6.4710   -9.4740 C   0  0  0  0  0  0  0  0  0  0  0  0
   17.6999   -6.2937   -8.7439 O   0  0  0  0  0  0  0  0  0  0  0  0
   13.9077   -7.4183   -9.4067 O   0  0  0  0  0  0  0  0  0  0  0  0
   15.7128   -5.4593   -9.4881 N   0  0  0  0  0  0  0  0  0  0  0  0
   15.8813   -4.1864   -8.8255 C   0  0  1  0  0  0  0  0  0  0  0  0
   17.1704   -3.4915   -9.1791 C   0  0  0  0  0  0  0  0  0  0  0  0
   17.2990   -2.1790   -8.5110 C   0  0  0  0  0  0  0  0  0  0  0  0
   16.4100   -1.7354   -7.7506 O   0  0  0  0  0  0  0  0  0  0  0  0
   14.7063   -3.2939   -9.0597 C   0  0  0  0  0  0  0  0  0  0  0  0
   14.5928   -2.2025   -8.4456 O   0  0  0  0  0  0  0  0  0  0  0  0
   18.4275   -1.4048   -8.7201 O   0  0  0  0  0  0  0  0  0  0  0  0
   13.7079   -3.6375   -9.9566 O   0  0  0  0  0  0  0  0  0  0  0  0
  1  2  1  0
  2  3  2  0
  4  2  1  0
  5  4  1  0
  5  6  1  6
  7  5  1  0
  7  8  2  0
  9  7  1  0
 10  9  1  0
 10 11  1  1
 12 11  1  0
 13 12  2  0
 14 10  1  0
 15 14  2  0
 16 12  1  0
 17 14  1  0
 18 17  1  0
 18 22  1  0
 18 19  1  6
 20 21  2  0
 20 19  1  0
 22 25  1  0
 23 22  2  0
 24 20  1  0
M  END
$$$$
