NDD.pdb
     RDKit          3D

 25 24  0  0  1  0  0  0  0  0999 V2000
   16.8828  -14.4191  -15.6276 N   0  0  0  0  0  0  0  0  0  0  0  0
   17.2831  -13.3010  -16.4052 C   0  0  0  0  0  0  0  0  0  0  0  0
   16.6290  -13.0424  -17.4371 O   0  0  0  0  0  0  0  0  0  0  0  0
   18.4496  -12.5117  -15.9463 C   0  0  0  0  0  0  0  0  0  0  0  0
   18.6242  -11.2488  -16.7598 C   0  0  2  0  0  0  0  0  0  0  0  0
   18.8687  -11.6180  -18.1283 N   0  0  0  0  0  0  0  0  0  0  0  0
   19.7932  -10.5199  -16.1558 C   0  0  0  0  0  0  0  0  0  0  0  0
   19.7922  -10.4390  -14.9021 O   0  0  0  0  0  0  0  0  0  0  0  0
   20.8156   -9.9654  -16.9173 N   0  0  0  0  0  0  0  0  0  0  0  0
   21.9561   -9.3143  -16.2660 C   0  0  1  0  0  0  0  0  0  0  0  0
   23.1769   -9.4236  -17.1281 C   0  0  0  0  0  0  0  0  0  0  0  0
   23.6597  -10.7886  -17.3817 C   0  0  0  0  0  0  0  0  0  0  0  0
   23.9656  -11.5553  -16.4467 O   0  0  0  0  0  0  0  0  0  0  0  0
   21.6232   -7.8732  -16.0879 C   0  0  0  0  0  0  0  0  0  0  0  0
   21.0545   -7.2454  -16.9833 O   0  0  0  0  0  0  0  0  0  0  0  0
   23.7991  -11.2916  -18.6799 O   0  0  0  0  0  0  0  0  0  0  0  0
   21.9475   -7.1689  -14.8868 N   0  0  0  0  0  0  0  0  0  0  0  0
   21.6418   -5.7688  -14.7025 C   0  0  1  0  0  0  0  0  0  0  0  0
   20.1866   -5.4395  -14.9115 C   0  0  0  0  0  0  0  0  0  0  0  0
   19.9041   -4.0029  -14.7073 C   0  0  0  0  0  0  0  0  0  0  0  0
   20.7325   -3.1170  -15.0144 O   0  0  0  0  0  0  0  0  0  0  0  0
   22.1193   -5.2803  -13.3738 C   0  0  0  0  0  0  0  0  0  0  0  0
   22.5368   -6.0852  -12.5026 O   0  0  0  0  0  0  0  0  0  0  0  0
   18.6944   -3.6070  -14.1627 O   0  0  0  0  0  0  0  0  0  0  0  0
   22.1177   -3.9311  -13.0591 O   0  0  0  0  0  0  0  0  0  0  0  0
  1  2  1  0
  2  3  2  0
  4  2  1  0
  5  4  1  0
  5  6  1  6
  7  5  1  0
  7  8  2  0
  9  7  1  0
 10  9  1  0
 10 11  1  6
 12 11  1  0
 13 12  2  0
 14 10  1  0
 15 14  2  0
 16 12  1  0
 17 14  1  0
 18 17  1  0
 18 22  1  0
 18 19  1  1
 20 21  2  0
 20 19  1  0
 22 25  1  0
 23 22  2  0
 24 20  1  0
M  END
$$$$
