NDD.pdb
     RDKit          3D

 25 24  0  0  1  0  0  0  0  0999 V2000
   27.4168  -15.8495  -21.6837 N   0  0  0  0  0  0  0  0  0  0  0  0
   26.4770  -14.7862  -21.6506 C   0  0  0  0  0  0  0  0  0  0  0  0
   25.5330  -14.8146  -22.4677 O   0  0  0  0  0  0  0  0  0  0  0  0
   26.6732  -13.7103  -20.6513 C   0  0  0  0  0  0  0  0  0  0  0  0
   27.9385  -13.9173  -19.8492 C   0  0  2  0  0  0  0  0  0  0  0  0
   27.7817  -15.1010  -19.0474 N   0  0  0  0  0  0  0  0  0  0  0  0
   28.1057  -12.6835  -19.0050 C   0  0  0  0  0  0  0  0  0  0  0  0
   27.2526  -12.5295  -18.0957 O   0  0  0  0  0  0  0  0  0  0  0  0
   29.1288  -11.7633  -19.2028 N   0  0  0  0  0  0  0  0  0  0  0  0
   29.2383  -10.5800  -18.3445 C   0  0  1  0  0  0  0  0  0  0  0  0
   30.6092  -10.5001  -17.7446 C   0  0  0  0  0  0  0  0  0  0  0  0
   30.8656   -9.3316  -16.8906 C   0  0  0  0  0  0  0  0  0  0  0  0
   29.9474   -8.5580  -16.5527 O   0  0  0  0  0  0  0  0  0  0  0  0
   29.0153   -9.3749  -19.1914 C   0  0  0  0  0  0  0  0  0  0  0  0
   29.6601   -9.2090  -20.2286 O   0  0  0  0  0  0  0  0  0  0  0  0
   32.1479   -9.0316  -16.4178 O   0  0  0  0  0  0  0  0  0  0  0  0
   28.0573   -8.3741  -18.8383 N   0  0  0  0  0  0  0  0  0  0  0  0
   27.8245   -7.2028  -19.6516 C   0  0  1  0  0  0  0  0  0  0  0  0
   26.5483   -6.4786  -19.3099 C   0  0  0  0  0  0  0  0  0  0  0  0
   26.2467   -5.3952  -20.2695 C   0  0  0  0  0  0  0  0  0  0  0  0
   26.9862   -5.1571  -21.2502 O   0  0  0  0  0  0  0  0  0  0  0  0
   28.9959   -6.2762  -19.6152 C   0  0  0  0  0  0  0  0  0  0  0  0
   29.4280   -5.7411  -20.6679 O   0  0  0  0  0  0  0  0  0  0  0  0
   25.1187   -4.6116  -20.0950 O   0  0  0  0  0  0  0  0  0  0  0  0
   29.6418   -5.9777  -18.4265 O   0  0  0  0  0  0  0  0  0  0  0  0
  1  2  1  0
  2  3  2  0
  4  2  1  0
  5  4  1  0
  5  6  1  1
  7  5  1  0
  7  8  2  0
  9  7  1  0
 10  9  1  0
 10 11  1  6
 12 11  1  0
 13 12  2  0
 14 10  1  0
 15 14  2  0
 16 12  1  0
 17 14  1  0
 18 17  1  0
 18 22  1  0
 18 19  1  1
 20 21  2  0
 20 19  1  0
 22 25  1  0
 23 22  2  0
 24 20  1  0
M  END
$$$$
