VWI.pdb
     RDKit          3D

 30 31  0  0  1  0  0  0  0  0999 V2000
   28.4746  -21.4599  -17.6260 C   0  0  0  0  0  0  0  0  0  0  0  0
   28.9669  -20.1570  -18.1522 C   0  0  1  0  0  0  0  0  0  0  0  0
   30.1683  -20.2627  -19.0576 C   0  0  0  0  0  0  0  0  0  0  0  0
   27.8782  -19.2691  -18.7177 C   0  0  2  0  0  0  0  0  0  0  0  0
   28.4538  -17.9582  -19.0792 N   0  0  0  0  0  0  0  0  0  0  0  0
   26.7619  -19.0279  -17.7875 C   0  0  0  0  0  0  0  0  0  0  0  0
   26.9432  -18.2543  -16.7850 O   0  0  0  0  0  0  0  0  0  0  0  0
   25.4711  -19.5773  -17.8886 N   0  0  0  0  0  0  0  0  0  0  0  0
   24.4456  -19.4226  -16.8473 C   0  0  1  0  0  0  0  0  0  0  0  0
   23.0883  -19.2776  -17.4653 C   0  0  0  0  0  0  0  0  0  0  0  0
   21.9674  -19.0887  -16.5685 C   0  0  0  0  0  0  0  0  0  0  0  0
   21.8267  -17.9478  -15.7687 C   0  0  0  0  0  0  0  0  0  0  0  0
   20.6864  -18.0987  -15.0900 N   0  0  0  0  0  0  0  0  0  0  0  0
   20.0696  -19.2715  -15.3965 C   0  0  0  0  0  0  0  0  0  0  0  0
   18.9018  -19.8622  -14.9668 C   0  0  0  0  0  0  0  0  0  0  0  0
   18.5031  -21.0830  -15.4457 C   0  0  0  0  0  0  0  0  0  0  0  0
   19.2927  -21.7319  -16.3796 C   0  0  0  0  0  0  0  0  0  0  0  0
   20.4534  -21.1214  -16.7925 C   0  0  0  0  0  0  0  0  0  0  0  0
   20.8928  -19.8954  -16.3387 C   0  0  0  0  0  0  0  0  0  0  0  0
   24.5735  -20.3974  -15.7560 C   0  0  0  0  0  0  0  0  0  0  0  0
   24.8378  -21.6234  -15.9826 O   0  0  0  0  0  0  0  0  0  0  0  0
   28.0963  -19.9775  -12.1936 C   0  0  0  0  0  0  0  0  0  0  0  0
   26.9569  -20.4251  -13.0181 C   0  0  0  0  0  0  0  0  0  0  0  0
   25.6269  -20.5737  -12.4271 C   0  0  2  0  0  0  0  0  0  0  0  0
   25.6430  -21.3626  -11.1165 C   0  0  0  0  0  0  0  0  0  0  0  0
   24.4632  -20.9949  -13.2828 C   0  0  2  0  0  0  0  0  0  0  0  0
   24.4200  -20.0351  -14.3999 N   0  0  0  0  0  0  0  0  0  0  0  0
   23.1677  -21.1313  -12.6518 C   0  0  0  0  0  0  0  0  0  0  0  0
   22.6728  -22.2326  -12.3097 O   0  0  0  0  0  0  0  0  0  0  0  0
   22.3334  -20.0299  -12.3581 O   0  0  0  0  0  0  0  0  0  0  0  0
  2  1  1  6
  2  3  1  0
  4  2  1  0
  4  5  1  1
  6  4  1  0
  6  7  2  0
  8  6  1  0
  9  8  1  0
 10 11  1  0
  9 10  1  6
 11 19  1  0
 12 11  2  0
 12 13  1  0
 13 14  1  0
 14 15  1  0
 15 16  2  0
 17 16  1  0
 18 17  2  0
 19 14  2  0
 19 18  1  0
 20 21  2  0
 20  9  1  0
 23 22  1  0
 23 24  1  0
 24 26  1  0
 24 25  1  1
 26 27  1  6
 26 28  1  0
 27 20  1  0
 28 30  1  0
 29 28  2  0
M  END
$$$$
