VWI.pdb
     RDKit          3D

 30 31  0  0  1  0  0  0  0  0999 V2000
   29.0401  -21.3560  -18.9417 C   0  0  0  0  0  0  0  0  0  0  0  0
   28.1213  -21.4212  -17.7719 C   0  0  1  0  0  0  0  0  0  0  0  0
   26.6754  -21.6620  -18.1258 C   0  0  0  0  0  0  0  0  0  0  0  0
   28.6113  -22.3149  -16.6518 C   0  0  2  0  0  0  0  0  0  0  0  0
   28.5339  -23.7256  -17.0812 N   0  0  0  0  0  0  0  0  0  0  0  0
   27.8411  -22.1830  -15.4031 C   0  0  0  0  0  0  0  0  0  0  0  0
   26.7604  -22.8532  -15.2647 O   0  0  0  0  0  0  0  0  0  0  0  0
   28.1805  -21.3694  -14.3072 N   0  0  0  0  0  0  0  0  0  0  0  0
   27.3275  -21.2199  -13.1197 C   0  0  1  0  0  0  0  0  0  0  0  0
   28.0745  -20.5268  -12.0212 C   0  0  0  0  0  0  0  0  0  0  0  0
   27.3937  -20.3675  -10.7533 C   0  0  0  0  0  0  0  0  0  0  0  0
   26.0089  -20.1810  -10.6602 C   0  0  0  0  0  0  0  0  0  0  0  0
   25.7254  -20.0885   -9.3584 N   0  0  0  0  0  0  0  0  0  0  0  0
   26.8423  -20.2030   -8.5906 C   0  0  0  0  0  0  0  0  0  0  0  0
   27.0579  -20.1707   -7.2305 C   0  0  0  0  0  0  0  0  0  0  0  0
   28.3163  -20.3104   -6.7055 C   0  0  0  0  0  0  0  0  0  0  0  0
   29.3890  -20.4871   -7.5626 C   0  0  0  0  0  0  0  0  0  0  0  0
   29.1475  -20.5158   -8.9159 C   0  0  0  0  0  0  0  0  0  0  0  0
   27.8998  -20.3801   -9.4876 C   0  0  0  0  0  0  0  0  0  0  0  0
   25.9849  -20.7106  -13.4288 C   0  0  0  0  0  0  0  0  0  0  0  0
   25.8121  -19.5803  -13.9918 O   0  0  0  0  0  0  0  0  0  0  0  0
   23.1672  -22.1878  -17.0545 C   0  0  0  0  0  0  0  0  0  0  0  0
   23.6137  -21.4450  -15.8598 C   0  0  0  0  0  0  0  0  0  0  0  0
   22.9400  -21.6331  -14.5749 C   0  0  2  0  0  0  0  0  0  0  0  0
   21.4190  -21.5039  -14.6759 C   0  0  0  0  0  0  0  0  0  0  0  0
   23.4491  -20.9307  -13.3455 C   0  0  2  0  0  0  0  0  0  0  0  0
   24.8142  -21.4412  -13.1295 N   0  0  0  0  0  0  0  0  0  0  0  0
   22.6564  -21.0116  -12.1371 C   0  0  0  0  0  0  0  0  0  0  0  0
   22.6428  -22.0119  -11.3795 O   0  0  0  0  0  0  0  0  0  0  0  0
   21.8189  -19.9644  -11.6929 O   0  0  0  0  0  0  0  0  0  0  0  0
  2  1  1  6
  2  3  1  0
  4  2  1  0
  4  5  1  6
  6  4  1  0
  6  7  2  0
  8  6  1  0
  9  8  1  0
 10 11  1  0
  9 10  1  1
 11 19  1  0
 12 11  2  0
 12 13  1  0
 13 14  1  0
 14 15  1  0
 15 16  2  0
 17 16  1  0
 18 17  2  0
 19 14  2  0
 19 18  1  0
 20 21  2  0
 20  9  1  0
 23 22  1  0
 23 24  1  0
 24 26  1  0
 24 25  1  6
 26 27  1  1
 26 28  1  0
 27 20  1  0
 28 30  1  0
 29 28  2  0
M  END
$$$$
