VWI.pdb
     RDKit          3D

 30 31  0  0  1  0  0  0  0  0999 V2000
   20.3980  -19.9177  -12.7077 C   0  0  0  0  0  0  0  0  0  0  0  0
   21.2509  -20.4255  -13.8174 C   0  0  1  0  0  0  0  0  0  0  0  0
   20.7178  -20.1358  -15.1979 C   0  0  0  0  0  0  0  0  0  0  0  0
   22.7201  -20.0892  -13.6697 C   0  0  2  0  0  0  0  0  0  0  0  0
   23.4844  -20.7495  -14.7468 N   0  0  0  0  0  0  0  0  0  0  0  0
   23.3021  -20.5101  -12.3836 C   0  0  0  0  0  0  0  0  0  0  0  0
   23.3996  -21.7588  -12.1235 O   0  0  0  0  0  0  0  0  0  0  0  0
   23.7797  -19.6538  -11.3752 N   0  0  0  0  0  0  0  0  0  0  0  0
   24.3144  -20.1368  -10.0942 C   0  0  1  0  0  0  0  0  0  0  0  0
   25.5484  -19.3738   -9.7199 C   0  0  0  0  0  0  0  0  0  0  0  0
   26.5862  -20.0953   -9.0136 C   0  0  0  0  0  0  0  0  0  0  0  0
   27.0712  -21.3350   -9.4485 C   0  0  0  0  0  0  0  0  0  0  0  0
   28.0197  -21.6967   -8.5807 N   0  0  0  0  0  0  0  0  0  0  0  0
   28.1865  -20.7680   -7.6011 C   0  0  0  0  0  0  0  0  0  0  0  0
   29.0191  -20.6924   -6.5064 C   0  0  0  0  0  0  0  0  0  0  0  0
   28.9796  -19.6194   -5.6544 C   0  0  0  0  0  0  0  0  0  0  0  0
   28.0837  -18.5937   -5.9025 C   0  0  0  0  0  0  0  0  0  0  0  0
   27.2635  -18.6927   -7.0016 C   0  0  0  0  0  0  0  0  0  0  0  0
   27.2691  -19.7518   -7.8849 C   0  0  0  0  0  0  0  0  0  0  0  0
   23.2878  -20.2835   -9.0541 C   0  0  0  0  0  0  0  0  0  0  0  0
   22.4860  -19.3350   -8.7679 O   0  0  0  0  0  0  0  0  0  0  0  0
   19.5241  -23.6130   -9.2421 C   0  0  0  0  0  0  0  0  0  0  0  0
   20.3954  -22.5185   -8.7715 C   0  0  0  0  0  0  0  0  0  0  0  0
   21.2221  -22.6902   -7.5768 C   0  0  2  0  0  0  0  0  0  0  0  0
   20.4216  -23.1641   -6.3623 C   0  0  0  0  0  0  0  0  0  0  0  0
   22.2038  -21.6220   -7.1781 C   0  0  2  0  0  0  0  0  0  0  0  0
   23.1243  -21.4784   -8.3196 N   0  0  0  0  0  0  0  0  0  0  0  0
   22.9251  -21.7894   -5.9344 C   0  0  0  0  0  0  0  0  0  0  0  0
   24.0323  -22.3732   -5.8453 O   0  0  0  0  0  0  0  0  0  0  0  0
   22.4480  -21.3066   -4.6955 O   0  0  0  0  0  0  0  0  0  0  0  0
  2  1  1  1
  2  3  1  0
  4  2  1  0
  4  5  1  6
  6  4  1  0
  6  7  2  0
  8  6  1  0
  9  8  1  0
 10 11  1  0
  9 10  1  1
 11 19  1  0
 12 11  2  0
 12 13  1  0
 13 14  1  0
 14 15  1  0
 15 16  2  0
 17 16  1  0
 18 17  2  0
 19 14  2  0
 19 18  1  0
 20 21  2  0
 20  9  1  0
 23 22  1  0
 23 24  1  0
 24 26  1  0
 24 25  1  1
 26 27  1  6
 26 28  1  0
 27 20  1  0
 28 30  1  0
 29 28  2  0
M  END
$$$$
