VWI.pdb
     RDKit          3D

 30 31  0  0  1  0  0  0  0  0999 V2000
   25.4798  -19.4081  -16.9654 C   0  0  0  0  0  0  0  0  0  0  0  0
   26.1698  -20.5293  -17.6609 C   0  0  1  0  0  0  0  0  0  0  0  0
   26.4772  -20.2683  -19.1140 C   0  0  0  0  0  0  0  0  0  0  0  0
   27.3515  -21.0933  -16.9000 C   0  0  2  0  0  0  0  0  0  0  0  0
   27.7537  -22.3796  -17.5033 N   0  0  0  0  0  0  0  0  0  0  0  0
   27.0821  -21.3324  -15.4716 C   0  0  0  0  0  0  0  0  0  0  0  0
   26.2745  -22.2667  -15.1385 O   0  0  0  0  0  0  0  0  0  0  0  0
   27.6393  -20.6168  -14.3966 N   0  0  0  0  0  0  0  0  0  0  0  0
   27.2302  -20.8142  -12.9988 C   0  0  1  0  0  0  0  0  0  0  0  0
   28.3382  -20.4253  -12.0681 C   0  0  0  0  0  0  0  0  0  0  0  0
   28.1986  -20.8002  -10.6766 C   0  0  0  0  0  0  0  0  0  0  0  0
   28.6372  -22.0344  -10.1814 C   0  0  0  0  0  0  0  0  0  0  0  0
   28.3684  -22.0354   -8.8732 N   0  0  0  0  0  0  0  0  0  0  0  0
   27.7788  -20.8747   -8.4796 C   0  0  0  0  0  0  0  0  0  0  0  0
   27.3235  -20.4143   -7.2638 C   0  0  0  0  0  0  0  0  0  0  0  0
   26.7511  -19.1749   -7.1407 C   0  0  0  0  0  0  0  0  0  0  0  0
   26.6298  -18.3734   -8.2629 C   0  0  0  0  0  0  0  0  0  0  0  0
   27.0920  -18.8557   -9.4647 C   0  0  0  0  0  0  0  0  0  0  0  0
   27.6744  -20.0942   -9.6349 C   0  0  0  0  0  0  0  0  0  0  0  0
   25.8974  -20.2732  -12.7013 C   0  0  0  0  0  0  0  0  0  0  0  0
   25.5416  -19.1161  -13.0998 O   0  0  0  0  0  0  0  0  0  0  0  0
   22.8281  -19.1204  -15.3042 C   0  0  0  0  0  0  0  0  0  0  0  0
   23.5016  -19.3863  -14.0181 C   0  0  0  0  0  0  0  0  0  0  0  0
   22.9362  -20.3456  -13.0693 C   0  0  2  0  0  0  0  0  0  0  0  0
   21.4153  -20.2351  -12.9465 C   0  0  0  0  0  0  0  0  0  0  0  0
   23.5637  -20.5260  -11.7136 C   0  0  2  0  0  0  0  0  0  0  0  0
   24.9351  -21.0010  -11.9677 N   0  0  0  0  0  0  0  0  0  0  0  0
   22.8814  -21.3675  -10.7536 C   0  0  0  0  0  0  0  0  0  0  0  0
   23.0896  -22.5993  -10.6363 O   0  0  0  0  0  0  0  0  0  0  0  0
   21.9116  -20.8774   -9.8510 O   0  0  0  0  0  0  0  0  0  0  0  0
  2  1  1  1
  2  3  1  0
  4  2  1  0
  4  5  1  6
  6  4  1  0
  6  7  2  0
  8  6  1  0
  9  8  1  0
 10 11  1  0
  9 10  1  1
 11 19  1  0
 12 11  2  0
 12 13  1  0
 13 14  1  0
 14 15  1  0
 15 16  2  0
 17 16  1  0
 18 17  2  0
 19 14  2  0
 19 18  1  0
 20 21  2  0
 20  9  1  0
 23 22  1  0
 23 24  1  0
 24 26  1  0
 24 25  1  1
 26 27  1  6
 26 28  1  0
 27 20  1  0
 28 30  1  0
 29 28  2  0
M  END
$$$$
