VWI.pdb
     RDKit          3D

 30 31  0  0  1  0  0  0  0  0999 V2000
   28.0019  -25.1712  -16.6051 C   0  0  0  0  0  0  0  0  0  0  0  0
   26.7714  -24.5611  -17.1798 C   0  0  1  0  0  0  0  0  0  0  0  0
   26.4812  -23.1635  -16.6934 C   0  0  0  0  0  0  0  0  0  0  0  0
   26.6600  -24.6973  -18.6840 C   0  0  2  0  0  0  0  0  0  0  0  0
   25.2937  -24.3329  -19.1090 N   0  0  0  0  0  0  0  0  0  0  0  0
   26.9377  -26.0554  -19.1823 C   0  0  0  0  0  0  0  0  0  0  0  0
   26.0828  -26.9830  -18.9704 O   0  0  0  0  0  0  0  0  0  0  0  0
   28.0844  -26.4546  -19.8922 N   0  0  0  0  0  0  0  0  0  0  0  0
   28.3582  -27.8506  -20.2616 C   0  0  1  0  0  0  0  0  0  0  0  0
   29.0309  -27.9170  -21.5987 C   0  0  0  0  0  0  0  0  0  0  0  0
   29.1802  -29.2245  -22.2025 C   0  0  0  0  0  0  0  0  0  0  0  0
   28.0837  -30.0070  -22.5851 C   0  0  0  0  0  0  0  0  0  0  0  0
   28.5832  -31.1271  -23.1138 N   0  0  0  0  0  0  0  0  0  0  0  0
   29.9432  -31.1269  -23.1009 C   0  0  0  0  0  0  0  0  0  0  0  0
   30.8895  -32.0353  -23.5213 C   0  0  0  0  0  0  0  0  0  0  0  0
   32.2297  -31.7825  -23.3843 C   0  0  0  0  0  0  0  0  0  0  0  0
   32.6360  -30.5895  -22.8115 C   0  0  0  0  0  0  0  0  0  0  0  0
   31.6721  -29.6994  -22.4001 C   0  0  0  0  0  0  0  0  0  0  0  0
   30.3145  -29.9114  -22.5185 C   0  0  0  0  0  0  0  0  0  0  0  0
   28.9676  -28.6303  -19.1762 C   0  0  0  0  0  0  0  0  0  0  0  0
   29.8833  -28.1427  -18.4358 O   0  0  0  0  0  0  0  0  0  0  0  0
   25.7711  -31.1758  -15.8613 C   0  0  0  0  0  0  0  0  0  0  0  0
   26.9448  -30.5623  -16.5128 C   0  0  0  0  0  0  0  0  0  0  0  0
   27.9932  -31.4010  -17.0939 C   0  0  2  0  0  0  0  0  0  0  0  0
   28.4768  -32.4951  -16.1403 C   0  0  0  0  0  0  0  0  0  0  0  0
   29.1581  -30.7684  -17.8059 C   0  0  2  0  0  0  0  0  0  0  0  0
   28.5727  -29.9545  -18.8856 N   0  0  0  0  0  0  0  0  0  0  0  0
   30.2042  -31.6357  -18.3046 C   0  0  0  0  0  0  0  0  0  0  0  0
   30.0804  -32.3625  -19.3200 O   0  0  0  0  0  0  0  0  0  0  0  0
   31.4723  -31.7448  -17.6920 O   0  0  0  0  0  0  0  0  0  0  0  0
  2  1  1  6
  2  3  1  0
  4  2  1  0
  4  5  1  1
  6  4  1  0
  6  7  2  0
  8  6  1  0
  9  8  1  0
 10 11  1  0
  9 10  1  6
 11 19  1  0
 12 11  2  0
 12 13  1  0
 13 14  1  0
 14 15  1  0
 15 16  2  0
 17 16  1  0
 18 17  2  0
 19 14  2  0
 19 18  1  0
 20 21  2  0
 20  9  1  0
 23 22  1  0
 23 24  1  0
 24 26  1  0
 24 25  1  1
 26 27  1  6
 26 28  1  0
 27 20  1  0
 28 30  1  0
 29 28  2  0
M  END
$$$$
