VWI.pdb
     RDKit          3D

 30 31  0  0  1  0  0  0  0  0999 V2000
   28.8476  -20.3758  -18.0730 C   0  0  0  0  0  0  0  0  0  0  0  0
   27.8924  -20.6266  -16.9588 C   0  0  1  0  0  0  0  0  0  0  0  0
   26.4461  -20.6985  -17.3800 C   0  0  0  0  0  0  0  0  0  0  0  0
   28.2973  -21.7628  -16.0431 C   0  0  2  0  0  0  0  0  0  0  0  0
   28.1073  -23.0484  -16.7442 N   0  0  0  0  0  0  0  0  0  0  0  0
   27.5300  -21.8191  -14.7869 C   0  0  0  0  0  0  0  0  0  0  0  0
   26.4778  -22.5444  -14.7322 O   0  0  0  0  0  0  0  0  0  0  0  0
   27.8432  -21.1355  -13.5982 N   0  0  0  0  0  0  0  0  0  0  0  0
   26.9979  -21.1793  -12.3967 C   0  0  1  0  0  0  0  0  0  0  0  0
   27.7677  -20.7181  -11.1968 C   0  0  0  0  0  0  0  0  0  0  0  0
   27.0376  -20.5743   -9.9548 C   0  0  0  0  0  0  0  0  0  0  0  0
   25.6387  -20.5332   -9.9039 C   0  0  0  0  0  0  0  0  0  0  0  0
   25.3096  -20.4115   -8.6153 N   0  0  0  0  0  0  0  0  0  0  0  0
   26.4097  -20.3699   -7.8165 C   0  0  0  0  0  0  0  0  0  0  0  0
   26.5813  -20.2519   -6.4549 C   0  0  0  0  0  0  0  0  0  0  0  0
   27.8318  -20.2315   -5.8939 C   0  0  0  0  0  0  0  0  0  0  0  0
   28.9414  -20.3316   -6.7155 C   0  0  0  0  0  0  0  0  0  0  0  0
   28.7435  -20.4486   -8.0711 C   0  0  0  0  0  0  0  0  0  0  0  0
   27.5055  -20.4740   -8.6784 C   0  0  0  0  0  0  0  0  0  0  0  0
   25.6701  -20.5846  -12.5981 C   0  0  0  0  0  0  0  0  0  0  0  0
   25.5297  -19.3752  -12.9752 O   0  0  0  0  0  0  0  0  0  0  0  0
   23.0636  -21.9585  -16.4007 C   0  0  0  0  0  0  0  0  0  0  0  0
   23.4074  -21.2030  -15.1803 C   0  0  0  0  0  0  0  0  0  0  0  0
   22.6750  -21.4327  -13.9349 C   0  0  2  0  0  0  0  0  0  0  0  0
   21.1609  -21.2890  -14.0998 C   0  0  0  0  0  0  0  0  0  0  0  0
   23.1316  -20.7789  -12.6589 C   0  0  2  0  0  0  0  0  0  0  0  0
   24.4785  -21.3145  -12.3948 N   0  0  0  0  0  0  0  0  0  0  0  0
   22.2799  -20.8902  -11.4937 C   0  0  0  0  0  0  0  0  0  0  0  0
   21.5914  -19.9433  -11.0421 O   0  0  0  0  0  0  0  0  0  0  0  0
   22.1415  -22.0839  -10.7513 O   0  0  0  0  0  0  0  0  0  0  0  0
  2  1  1  6
  2  3  1  0
  4  2  1  0
  4  5  1  6
  6  4  1  0
  6  7  2  0
  8  6  1  0
  9  8  1  0
 10 11  1  0
  9 10  1  1
 11 19  1  0
 12 11  2  0
 12 13  1  0
 13 14  1  0
 14 15  1  0
 15 16  2  0
 17 16  1  0
 18 17  2  0
 19 14  2  0
 19 18  1  0
 20 21  2  0
 20  9  1  0
 23 22  1  0
 23 24  1  0
 24 26  1  0
 24 25  1  6
 26 27  1  1
 26 28  1  0
 27 20  1  0
 28 30  1  0
 29 28  2  0
M  END
$$$$
