VWI.pdb
     RDKit          3D

 30 31  0  0  1  0  0  0  0  0999 V2000
   27.1696  -20.6017  -18.0782 C   0  0  0  0  0  0  0  0  0  0  0  0
   28.0905  -21.7687  -18.1625 C   0  0  1  0  0  0  0  0  0  0  0  0
   28.9675  -21.7851  -19.3892 C   0  0  0  0  0  0  0  0  0  0  0  0
   28.8570  -22.0431  -16.8855 C   0  0  2  0  0  0  0  0  0  0  0  0
   29.4791  -23.3799  -16.9654 N   0  0  0  0  0  0  0  0  0  0  0  0
   28.0246  -22.0074  -15.6707 C   0  0  0  0  0  0  0  0  0  0  0  0
   27.1773  -22.9443  -15.4691 O   0  0  0  0  0  0  0  0  0  0  0  0
   28.0645  -21.0170  -14.6728 N   0  0  0  0  0  0  0  0  0  0  0  0
   27.1895  -21.0271  -13.4920 C   0  0  1  0  0  0  0  0  0  0  0  0
   27.7315  -20.1198  -12.4299 C   0  0  0  0  0  0  0  0  0  0  0  0
   27.0323  -20.0896  -11.1624 C   0  0  0  0  0  0  0  0  0  0  0  0
   25.6648  -19.8046  -11.0632 C   0  0  0  0  0  0  0  0  0  0  0  0
   25.3552  -19.8781   -9.7661 N   0  0  0  0  0  0  0  0  0  0  0  0
   26.4387  -20.1942   -9.0071 C   0  0  0  0  0  0  0  0  0  0  0  0
   26.6201  -20.3768   -7.6539 C   0  0  0  0  0  0  0  0  0  0  0  0
   27.8490  -20.6945   -7.1367 C   0  0  0  0  0  0  0  0  0  0  0  0
   28.9265  -20.8336   -7.9946 C   0  0  0  0  0  0  0  0  0  0  0  0
   28.7195  -20.6464   -9.3410 C   0  0  0  0  0  0  0  0  0  0  0  0
   27.5021  -20.3268   -9.9049 C   0  0  0  0  0  0  0  0  0  0  0  0
   25.7658  -20.8805  -13.8222 C   0  0  0  0  0  0  0  0  0  0  0  0
   25.3400  -19.9082  -14.5277 O   0  0  0  0  0  0  0  0  0  0  0  0
   23.4173  -24.8921  -16.0207 C   0  0  0  0  0  0  0  0  0  0  0  0
   23.6302  -23.5125  -15.5413 C   0  0  0  0  0  0  0  0  0  0  0  0
   22.9911  -23.0484  -14.3099 C   0  0  2  0  0  0  0  0  0  0  0  0
   21.4717  -23.2262  -14.3244 C   0  0  0  0  0  0  0  0  0  0  0  0
   23.3608  -21.7125  -13.7245 C   0  0  2  0  0  0  0  0  0  0  0  0
   24.7920  -21.8059  -13.3871 N   0  0  0  0  0  0  0  0  0  0  0  0
   22.5844  -21.2202  -12.6064 C   0  0  0  0  0  0  0  0  0  0  0  0
   21.7360  -20.3003  -12.6998 O   0  0  0  0  0  0  0  0  0  0  0  0
   22.7084  -21.7336  -11.2963 O   0  0  0  0  0  0  0  0  0  0  0  0
  2  1  1  1
  2  3  1  0
  4  2  1  0
  4  5  1  6
  6  4  1  0
  6  7  2  0
  8  6  1  0
  9  8  1  0
 10 11  1  0
  9 10  1  1
 11 19  1  0
 12 11  2  0
 12 13  1  0
 13 14  1  0
 14 15  1  0
 15 16  2  0
 17 16  1  0
 18 17  2  0
 19 14  2  0
 19 18  1  0
 20 21  2  0
 20  9  1  0
 23 22  1  0
 23 24  1  0
 24 26  1  0
 24 25  1  6
 26 27  1  1
 26 28  1  0
 27 20  1  0
 28 30  1  0
 29 28  2  0
M  END
$$$$
