VWI.pdb
     RDKit          3D

 30 31  0  0  1  0  0  0  0  0999 V2000
   28.6862  -19.2145  -16.4342 C   0  0  0  0  0  0  0  0  0  0  0  0
   27.6043  -19.7185  -15.5442 C   0  0  1  0  0  0  0  0  0  0  0  0
   26.3729  -20.2005  -16.2691 C   0  0  0  0  0  0  0  0  0  0  0  0
   28.0805  -20.6870  -14.4818 C   0  0  2  0  0  0  0  0  0  0  0  0
   28.5782  -21.9176  -15.1285 N   0  0  0  0  0  0  0  0  0  0  0  0
   27.0362  -21.0770  -13.5188 C   0  0  0  0  0  0  0  0  0  0  0  0
   26.2471  -22.0400  -13.8126 O   0  0  0  0  0  0  0  0  0  0  0  0
   26.8068  -20.4817  -12.2654 N   0  0  0  0  0  0  0  0  0  0  0  0
   25.6458  -20.8000  -11.4224 C   0  0  1  0  0  0  0  0  0  0  0  0
   25.8772  -20.3397  -10.0154 C   0  0  0  0  0  0  0  0  0  0  0  0
   27.1464  -20.6781   -9.4065 C   0  0  0  0  0  0  0  0  0  0  0  0
   28.0535  -21.5651   -9.9993 C   0  0  0  0  0  0  0  0  0  0  0  0
   29.1086  -21.6304   -9.1831 N   0  0  0  0  0  0  0  0  0  0  0  0
   28.9482  -20.8389   -8.0887 C   0  0  0  0  0  0  0  0  0  0  0  0
   29.7376  -20.5788   -6.9903 C   0  0  0  0  0  0  0  0  0  0  0  0
   29.3252  -19.7208   -6.0041 C   0  0  0  0  0  0  0  0  0  0  0  0
   28.0902  -19.1057   -6.1181 C   0  0  0  0  0  0  0  0  0  0  0  0
   27.3212  -19.3818   -7.2240 C   0  0  0  0  0  0  0  0  0  0  0  0
   27.6955  -20.2366   -8.2395 C   0  0  0  0  0  0  0  0  0  0  0  0
   24.3633  -20.4303  -12.0357 C   0  0  0  0  0  0  0  0  0  0  0  0
   24.1849  -19.2898  -12.5756 O   0  0  0  0  0  0  0  0  0  0  0  0
   22.6686  -22.9166  -16.0046 C   0  0  0  0  0  0  0  0  0  0  0  0
   22.8009  -21.9640  -14.8850 C   0  0  0  0  0  0  0  0  0  0  0  0
   21.7868  -21.9118  -13.8319 C   0  0  2  0  0  0  0  0  0  0  0  0
   20.3615  -21.8303  -14.3818 C   0  0  0  0  0  0  0  0  0  0  0  0
   21.9570  -20.9766  -12.6655 C   0  0  2  0  0  0  0  0  0  0  0  0
   23.2619  -21.3133  -12.0700 N   0  0  0  0  0  0  0  0  0  0  0  0
   20.9122  -20.9389  -11.6644 C   0  0  0  0  0  0  0  0  0  0  0  0
   20.0201  -20.0574  -11.6225 O   0  0  0  0  0  0  0  0  0  0  0  0
   20.7967  -21.8985  -10.6343 O   0  0  0  0  0  0  0  0  0  0  0  0
  2  1  1  6
  2  3  1  0
  4  2  1  0
  4  5  1  6
  6  4  1  0
  6  7  2  0
  8  6  1  0
  9  8  1  0
 10 11  1  0
  9 10  1  1
 11 19  1  0
 12 11  2  0
 12 13  1  0
 13 14  1  0
 14 15  1  0
 15 16  2  0
 17 16  1  0
 18 17  2  0
 19 14  2  0
 19 18  1  0
 20 21  2  0
 20  9  1  0
 23 22  1  0
 23 24  1  0
 24 26  1  0
 24 25  1  6
 26 27  1  1
 26 28  1  0
 27 20  1  0
 28 30  1  0
 29 28  2  0
M  END
$$$$
