VWI.pdb
     RDKit          3D

 30 31  0  0  1  0  0  0  0  0999 V2000
   28.8747  -21.0890  -16.8457 C   0  0  0  0  0  0  0  0  0  0  0  0
   28.3225  -21.5339  -15.5366 C   0  0  1  0  0  0  0  0  0  0  0  0
   29.2935  -22.3056  -14.6788 C   0  0  0  0  0  0  0  0  0  0  0  0
   27.5948  -20.4475  -14.7727 C   0  0  2  0  0  0  0  0  0  0  0  0
   28.5179  -19.3224  -14.5225 N   0  0  0  0  0  0  0  0  0  0  0  0
   27.0611  -20.8877  -13.4723 C   0  0  0  0  0  0  0  0  0  0  0  0
   26.1585  -21.7937  -13.4445 O   0  0  0  0  0  0  0  0  0  0  0  0
   27.4531  -20.4003  -12.2125 N   0  0  0  0  0  0  0  0  0  0  0  0
   26.7635  -20.7502  -10.9627 C   0  0  1  0  0  0  0  0  0  0  0  0
   27.6678  -20.5371   -9.7872 C   0  0  0  0  0  0  0  0  0  0  0  0
   27.0662  -20.5777   -8.4709 C   0  0  0  0  0  0  0  0  0  0  0  0
   25.7921  -21.1116   -8.2412 C   0  0  0  0  0  0  0  0  0  0  0  0
   25.5659  -21.0021   -6.9295 N   0  0  0  0  0  0  0  0  0  0  0  0
   26.6161  -20.4276   -6.2838 C   0  0  0  0  0  0  0  0  0  0  0  0
   26.8499  -20.1075   -4.9647 C   0  0  0  0  0  0  0  0  0  0  0  0
   28.0222  -19.5150   -4.5727 C   0  0  0  0  0  0  0  0  0  0  0  0
   28.9874  -19.2344   -5.5245 C   0  0  0  0  0  0  0  0  0  0  0  0
   28.7300  -19.5638   -6.8344 C   0  0  0  0  0  0  0  0  0  0  0  0
   27.5667  -20.1605   -7.2735 C   0  0  0  0  0  0  0  0  0  0  0  0
   25.4113  -20.1846  -10.8668 C   0  0  0  0  0  0  0  0  0  0  0  0
   25.2176  -18.9285  -10.7717 O   0  0  0  0  0  0  0  0  0  0  0  0
   23.3824  -19.3774  -14.8249 C   0  0  0  0  0  0  0  0  0  0  0  0
   23.4745  -19.4030  -13.3521 C   0  0  0  0  0  0  0  0  0  0  0  0
   22.7088  -20.3801  -12.5780 C   0  0  2  0  0  0  0  0  0  0  0  0
   21.2223  -20.3924  -12.9394 C   0  0  0  0  0  0  0  0  0  0  0  0
   22.8905  -20.4719  -11.0872 C   0  0  2  0  0  0  0  0  0  0  0  0
   24.2534  -20.9926  -10.8817 N   0  0  0  0  0  0  0  0  0  0  0  0
   21.9159  -21.2254  -10.3272 C   0  0  0  0  0  0  0  0  0  0  0  0
   21.9725  -22.4679  -10.1611 O   0  0  0  0  0  0  0  0  0  0  0  0
   20.8025  -20.6285   -9.6951 O   0  0  0  0  0  0  0  0  0  0  0  0
  2  1  1  6
  2  3  1  0
  4  2  1  0
  4  5  1  1
  6  4  1  0
  6  7  2  0
  8  6  1  0
  9  8  1  0
 10 11  1  0
  9 10  1  1
 11 19  1  0
 12 11  2  0
 12 13  1  0
 13 14  1  0
 14 15  1  0
 15 16  2  0
 17 16  1  0
 18 17  2  0
 19 14  2  0
 19 18  1  0
 20 21  2  0
 20  9  1  0
 23 22  1  0
 23 24  1  0
 24 26  1  0
 24 25  1  1
 26 27  1  6
 26 28  1  0
 27 20  1  0
 28 30  1  0
 29 28  2  0
M  END
$$$$
