VWI.pdb
     RDKit          3D

 30 31  0  0  1  0  0  0  0  0999 V2000
   22.2264  -19.2442  -13.8482 C   0  0  0  0  0  0  0  0  0  0  0  0
   21.5026  -19.9161  -12.7340 C   0  0  1  0  0  0  0  0  0  0  0  0
   20.0707  -20.2728  -13.0445 C   0  0  0  0  0  0  0  0  0  0  0  0
   22.2703  -21.0565  -12.0988 C   0  0  2  0  0  0  0  0  0  0  0  0
   21.4540  -21.6586  -11.0257 N   0  0  0  0  0  0  0  0  0  0  0  0
   23.5588  -20.6533  -11.5098 C   0  0  0  0  0  0  0  0  0  0  0  0
   24.4222  -20.0629  -12.2462 O   0  0  0  0  0  0  0  0  0  0  0  0
   23.9547  -20.8556  -10.1754 N   0  0  0  0  0  0  0  0  0  0  0  0
   25.2654  -20.4450   -9.6525 C   0  0  1  0  0  0  0  0  0  0  0  0
   25.2565  -20.4474   -8.1542 C   0  0  0  0  0  0  0  0  0  0  0  0
   26.2961  -19.6956   -7.4830 C   0  0  0  0  0  0  0  0  0  0  0  0
   26.6596  -18.4003   -7.8720 C   0  0  0  0  0  0  0  0  0  0  0  0
   27.6253  -18.0103   -7.0360 N   0  0  0  0  0  0  0  0  0  0  0  0
   27.9180  -18.9729   -6.1208 C   0  0  0  0  0  0  0  0  0  0  0  0
   28.8188  -19.0414   -5.0810 C   0  0  0  0  0  0  0  0  0  0  0  0
   28.9151  -20.1601   -4.2948 C   0  0  0  0  0  0  0  0  0  0  0  0
   28.0889  -21.2402   -4.5544 C   0  0  0  0  0  0  0  0  0  0  0  0
   27.1982  -21.1468   -5.5978 C   0  0  0  0  0  0  0  0  0  0  0  0
   27.0667  -20.0425   -6.4134 C   0  0  0  0  0  0  0  0  0  0  0  0
   26.3912  -21.1241  -10.3073 C   0  0  0  0  0  0  0  0  0  0  0  0
   26.3836  -22.3814  -10.5155 O   0  0  0  0  0  0  0  0  0  0  0  0
   27.7733  -19.1507  -14.8205 C   0  0  0  0  0  0  0  0  0  0  0  0
   27.6746  -20.0725  -13.6720 C   0  0  0  0  0  0  0  0  0  0  0  0
   28.7997  -20.2326  -12.7508 C   0  0  2  0  0  0  0  0  0  0  0  0
   30.1061  -20.5878  -13.4631 C   0  0  0  0  0  0  0  0  0  0  0  0
   28.6403  -21.0534  -11.4998 C   0  0  2  0  0  0  0  0  0  0  0  0
   27.5377  -20.4280  -10.7489 N   0  0  0  0  0  0  0  0  0  0  0  0
   29.8044  -21.2529  -10.6630 C   0  0  0  0  0  0  0  0  0  0  0  0
   30.0348  -20.5909   -9.6222 O   0  0  0  0  0  0  0  0  0  0  0  0
   30.7965  -22.2194  -10.9401 O   0  0  0  0  0  0  0  0  0  0  0  0
  2  1  1  6
  2  3  1  0
  4  2  1  0
  4  5  1  1
  6  4  1  0
  6  7  2  0
  8  6  1  0
  9  8  1  0
 10 11  1  0
  9 10  1  1
 11 19  1  0
 12 11  2  0
 12 13  1  0
 13 14  1  0
 14 15  1  0
 15 16  2  0
 17 16  1  0
 18 17  2  0
 19 14  2  0
 19 18  1  0
 20 21  2  0
 20  9  1  0
 23 22  1  0
 23 24  1  0
 24 26  1  0
 24 25  1  6
 26 27  1  1
 26 28  1  0
 27 20  1  0
 28 30  1  0
 29 28  2  0
M  END
$$$$
