VWI.pdb
     RDKit          3D

 30 31  0  0  1  0  0  0  0  0999 V2000
   28.4611  -18.7732  -15.9219 C   0  0  0  0  0  0  0  0  0  0  0  0
   27.5173  -19.2428  -14.8705 C   0  0  1  0  0  0  0  0  0  0  0  0
   26.0604  -19.1315  -15.2438 C   0  0  0  0  0  0  0  0  0  0  0  0
   27.8734  -20.5908  -14.2792 C   0  0  2  0  0  0  0  0  0  0  0  0
   27.5163  -21.6558  -15.2376 N   0  0  0  0  0  0  0  0  0  0  0  0
   27.1900  -20.8839  -13.0076 C   0  0  0  0  0  0  0  0  0  0  0  0
   26.0848  -21.5276  -13.0290 O   0  0  0  0  0  0  0  0  0  0  0  0
   27.6403  -20.5182  -11.7263 N   0  0  0  0  0  0  0  0  0  0  0  0
   26.8886  -20.8035  -10.4961 C   0  0  1  0  0  0  0  0  0  0  0  0
   27.7622  -20.6190   -9.2928 C   0  0  0  0  0  0  0  0  0  0  0  0
   27.1220  -20.6608   -7.9949 C   0  0  0  0  0  0  0  0  0  0  0  0
   25.8779  -21.2697   -7.7880 C   0  0  0  0  0  0  0  0  0  0  0  0
   25.6026  -21.1376   -6.4879 N   0  0  0  0  0  0  0  0  0  0  0  0
   26.5922  -20.4776   -5.8282 C   0  0  0  0  0  0  0  0  0  0  0  0
   26.7620  -20.1052   -4.5130 C   0  0  0  0  0  0  0  0  0  0  0  0
   27.8805  -19.4268   -4.1037 C   0  0  0  0  0  0  0  0  0  0  0  0
   28.8562  -19.1114   -5.0338 C   0  0  0  0  0  0  0  0  0  0  0  0
   28.6632  -19.4943   -6.3402 C   0  0  0  0  0  0  0  0  0  0  0  0
   27.5554  -20.1778   -6.7961 C   0  0  0  0  0  0  0  0  0  0  0  0
   25.5687  -20.1600  -10.4588 C   0  0  0  0  0  0  0  0  0  0  0  0
   25.4282  -18.9106  -10.6676 O   0  0  0  0  0  0  0  0  0  0  0  0
   23.7451  -19.3178  -14.2326 C   0  0  0  0  0  0  0  0  0  0  0  0
   23.7666  -19.3507  -12.7571 C   0  0  0  0  0  0  0  0  0  0  0  0
   22.9699  -20.3359  -12.0257 C   0  0  2  0  0  0  0  0  0  0  0  0
   21.5184  -20.4012  -12.5044 C   0  0  0  0  0  0  0  0  0  0  0  0
   23.0335  -20.3931  -10.5234 C   0  0  2  0  0  0  0  0  0  0  0  0
   24.3844  -20.8837  -10.1987 N   0  0  0  0  0  0  0  0  0  0  0  0
   22.0144  -21.1488   -9.8267 C   0  0  0  0  0  0  0  0  0  0  0  0
   20.9074  -20.6697   -9.4808 O   0  0  0  0  0  0  0  0  0  0  0  0
   22.1704  -22.5065   -9.4694 O   0  0  0  0  0  0  0  0  0  0  0  0
  2  1  1  6
  2  3  1  0
  4  2  1  0
  4  5  1  6
  6  4  1  0
  6  7  2  0
  8  6  1  0
  9  8  1  0
 10 11  1  0
  9 10  1  1
 11 19  1  0
 12 11  2  0
 12 13  1  0
 13 14  1  0
 14 15  1  0
 15 16  2  0
 17 16  1  0
 18 17  2  0
 19 14  2  0
 19 18  1  0
 20 21  2  0
 20  9  1  0
 23 22  1  0
 23 24  1  0
 24 26  1  0
 24 25  1  1
 26 27  1  6
 26 28  1  0
 27 20  1  0
 28 30  1  0
 29 28  2  0
M  END
$$$$
