VWI.pdb
     RDKit          3D

 30 31  0  0  1  0  0  0  0  0999 V2000
   27.3813  -18.4773  -13.7346 C   0  0  0  0  0  0  0  0  0  0  0  0
   28.6650  -19.2258  -13.6421 C   0  0  1  0  0  0  0  0  0  0  0  0
   29.8372  -18.5391  -14.2968 C   0  0  0  0  0  0  0  0  0  0  0  0
   28.9820  -19.7377  -12.2525 C   0  0  2  0  0  0  0  0  0  0  0  0
   30.1393  -20.6523  -12.3196 N   0  0  0  0  0  0  0  0  0  0  0  0
   27.8705  -20.4663  -11.6172 C   0  0  0  0  0  0  0  0  0  0  0  0
   27.7160  -21.7104  -11.8712 O   0  0  0  0  0  0  0  0  0  0  0  0
   26.9274  -19.9194  -10.7286 N   0  0  0  0  0  0  0  0  0  0  0  0
   25.7281  -20.6417  -10.2813 C   0  0  1  0  0  0  0  0  0  0  0  0
   25.3435  -20.2138   -8.8978 C   0  0  0  0  0  0  0  0  0  0  0  0
   26.4038  -19.7506   -8.0275 C   0  0  0  0  0  0  0  0  0  0  0  0
   26.9675  -18.4737   -8.1408 C   0  0  0  0  0  0  0  0  0  0  0  0
   27.8924  -18.3809   -7.1819 N   0  0  0  0  0  0  0  0  0  0  0  0
   27.9699  -19.5216   -6.4452 C   0  0  0  0  0  0  0  0  0  0  0  0
   28.7519  -19.9019   -5.3770 C   0  0  0  0  0  0  0  0  0  0  0  0
   28.6274  -21.1433   -4.8095 C   0  0  0  0  0  0  0  0  0  0  0  0
   27.6962  -22.0296   -5.3233 C   0  0  0  0  0  0  0  0  0  0  0  0
   26.9278  -21.6261   -6.3897 C   0  0  0  0  0  0  0  0  0  0  0  0
   27.0184  -20.3883   -6.9912 C   0  0  0  0  0  0  0  0  0  0  0  0
   24.6569  -20.6682  -11.2860 C   0  0  0  0  0  0  0  0  0  0  0  0
   24.3693  -19.6410  -11.9835 O   0  0  0  0  0  0  0  0  0  0  0  0
   24.7032  -24.7096  -14.6012 C   0  0  0  0  0  0  0  0  0  0  0  0
   24.4024  -23.4163  -13.9566 C   0  0  0  0  0  0  0  0  0  0  0  0
   23.1044  -23.1884  -13.3216 C   0  0  2  0  0  0  0  0  0  0  0  0
   21.9264  -23.5243  -14.2380 C   0  0  0  0  0  0  0  0  0  0  0  0
   22.8438  -21.9087  -12.5742 C   0  0  2  0  0  0  0  0  0  0  0  0
   23.8925  -21.8275  -11.5424 N   0  0  0  0  0  0  0  0  0  0  0  0
   21.5272  -21.7066  -12.0077 C   0  0  0  0  0  0  0  0  0  0  0  0
   21.2003  -22.0818  -10.8557 O   0  0  0  0  0  0  0  0  0  0  0  0
   20.4797  -21.0620  -12.7024 O   0  0  0  0  0  0  0  0  0  0  0  0
  2  1  1  1
  2  3  1  0
  4  2  1  0
  4  5  1  6
  6  4  1  0
  6  7  2  0
  8  6  1  0
  9  8  1  0
 10 11  1  0
  9 10  1  1
 11 19  1  0
 12 11  2  0
 12 13  1  0
 13 14  1  0
 14 15  1  0
 15 16  2  0
 17 16  1  0
 18 17  2  0
 19 14  2  0
 19 18  1  0
 20 21  2  0
 20  9  1  0
 23 22  1  0
 23 24  1  0
 24 26  1  0
 24 25  1  6
 26 27  1  1
 26 28  1  0
 27 20  1  0
 28 30  1  0
 29 28  2  0
M  END
$$$$
