CWE.pdb
     RDKit          3D

 30 31  0  0  1  0  0  0  0  0999 V2000
   28.6547  -20.9148  -15.8034 N   0  0  0  0  0  0  0  0  0  0  0  0
   28.4502  -20.1679  -14.6007 C   0  0  1  0  0  0  0  0  0  0  0  0
   27.9276  -18.7799  -14.8722 C   0  0  0  0  0  0  0  0  0  0  0  0
   29.2722  -17.7977  -15.6139 S   0  0  0  0  0  0  0  0  0  0  0  0
   27.5056  -20.8651  -13.6482 C   0  0  0  0  0  0  0  0  0  0  0  0
   26.5849  -21.5670  -14.1349 O   0  0  0  0  0  0  0  0  0  0  0  0
   27.7034  -20.6938  -12.2665 N   0  0  0  0  0  0  0  0  0  0  0  0
   26.8910  -21.2422  -11.2328 C   0  0  1  0  0  0  0  0  0  0  0  0
   27.7034  -21.5445   -9.9910 C   0  0  0  0  0  0  0  0  0  0  0  0
   26.9558  -21.0419   -8.8095 C   0  0  0  0  0  0  0  0  0  0  0  0
   25.6069  -20.8800   -8.5919 C   0  0  0  0  0  0  0  0  0  0  0  0
   25.3692  -20.3906   -7.3461 N   0  0  0  0  0  0  0  0  0  0  0  0
   26.5474  -20.2221   -6.7229 C   0  0  0  0  0  0  0  0  0  0  0  0
   26.8490  -19.7602   -5.4605 C   0  0  0  0  0  0  0  0  0  0  0  0
   28.1644  -19.6762   -5.0316 C   0  0  0  0  0  0  0  0  0  0  0  0
   29.1591  -20.0665   -5.9004 C   0  0  0  0  0  0  0  0  0  0  0  0
   28.8214  -20.5312   -7.1760 C   0  0  0  0  0  0  0  0  0  0  0  0
   27.5303  -20.6135   -7.5973 C   0  0  0  0  0  0  0  0  0  0  0  0
   25.6909  -20.4237  -10.9789 C   0  0  0  0  0  0  0  0  0  0  0  0
   25.8044  -19.2035  -10.7180 O   0  0  0  0  0  0  0  0  0  0  0  0
   24.3870  -20.9835  -11.0211 N   0  0  0  0  0  0  0  0  0  0  0  0
   23.2930  -20.5196  -11.8391 C   0  0  1  0  0  0  0  0  0  0  0  0
   23.6996  -20.2729  -13.2346 C   0  0  0  0  0  0  0  0  0  0  0  0
   22.6559  -19.7369  -14.1450 C   0  0  0  0  0  0  0  0  0  0  0  0
   23.0867  -18.6220  -14.9961 C   0  0  0  0  0  0  0  0  0  0  0  0
   22.7577  -17.4334  -14.9029 O   0  0  0  0  0  0  0  0  0  0  0  0
   22.0315  -21.2797  -11.6586 C   0  0  0  0  0  0  0  0  0  0  0  0
   20.9031  -20.7591  -11.6576 O   0  0  0  0  0  0  0  0  0  0  0  0
   23.9769  -18.9398  -16.0394 O   0  0  0  0  0  0  0  0  0  0  0  0
   22.1071  -22.6432  -11.4773 O   0  0  0  0  0  0  0  0  0  0  0  0
  2  1  1  6
  2  5  1  0
  3  4  1  0
  3  2  1  0
  5  7  1  0
  5  6  2  0
  7  8  1  0
  8  9  1  1
  8 19  1  0
  9 10  1  0
 10 11  2  0
 10 18  1  0
 11 12  1  0
 12 13  1  0
 13 14  2  0
 14 15  1  0
 16 15  2  0
 17 18  2  0
 17 16  1  0
 18 13  1  0
 19 20  2  0
 21 22  1  0
 21 19  1  0
 23 24  1  0
 22 23  1  6
 24 25  1  0
 25 26  2  0
 25 29  1  0
 27 22  1  0
 27 30  1  0
 28 27  2  0
M  END
$$$$
