CWE.pdb
     RDKit          3D

 30 31  0  0  1  0  0  0  0  0999 V2000
   24.9208  -21.3673  -10.5796 N   0  0  0  0  0  0  0  0  0  0  0  0
   25.4132  -21.2781  -11.9196 C   0  0  1  0  0  0  0  0  0  0  0  0
   24.8995  -22.3951  -12.7924 C   0  0  0  0  0  0  0  0  0  0  0  0
   25.6728  -23.9517  -12.2431 S   0  0  0  0  0  0  0  0  0  0  0  0
   25.0690  -19.9567  -12.5686 C   0  0  0  0  0  0  0  0  0  0  0  0
   23.9621  -19.4318  -12.2924 O   0  0  0  0  0  0  0  0  0  0  0  0
   26.0031  -19.3813  -13.4483 N   0  0  0  0  0  0  0  0  0  0  0  0
   25.7835  -18.2360  -14.2665 C   0  0  1  0  0  0  0  0  0  0  0  0
   27.0860  -17.5481  -14.6181 C   0  0  0  0  0  0  0  0  0  0  0  0
   26.7731  -16.3332  -15.4140 C   0  0  0  0  0  0  0  0  0  0  0  0
   26.4103  -15.0640  -15.0262 C   0  0  0  0  0  0  0  0  0  0  0  0
   26.2276  -14.2577  -16.1054 N   0  0  0  0  0  0  0  0  0  0  0  0
   26.4649  -14.9741  -17.2169 C   0  0  0  0  0  0  0  0  0  0  0  0
   26.4192  -14.6252  -18.5489 C   0  0  0  0  0  0  0  0  0  0  0  0
   26.7126  -15.5536  -19.5355 C   0  0  0  0  0  0  0  0  0  0  0  0
   27.0503  -16.8313  -19.1481 C   0  0  0  0  0  0  0  0  0  0  0  0
   27.0881  -17.1553  -17.7877 C   0  0  0  0  0  0  0  0  0  0  0  0
   26.7999  -16.2443  -16.8191 C   0  0  0  0  0  0  0  0  0  0  0  0
   24.9347  -18.5433  -15.4325 C   0  0  0  0  0  0  0  0  0  0  0  0
   24.9396  -19.6933  -15.9296 O   0  0  0  0  0  0  0  0  0  0  0  0
   24.0964  -17.5603  -16.0211 N   0  0  0  0  0  0  0  0  0  0  0  0
   22.7334  -17.7578  -16.4507 C   0  0  1  0  0  0  0  0  0  0  0  0
   21.9566  -18.5734  -15.4994 C   0  0  0  0  0  0  0  0  0  0  0  0
   20.5192  -18.7725  -15.8154 C   0  0  0  0  0  0  0  0  0  0  0  0
   20.2193  -19.9601  -16.6233 C   0  0  0  0  0  0  0  0  0  0  0  0
   20.4234  -21.1433  -16.3265 O   0  0  0  0  0  0  0  0  0  0  0  0
   22.0650  -16.5280  -16.9431 C   0  0  0  0  0  0  0  0  0  0  0  0
   21.9118  -15.5016  -16.2594 O   0  0  0  0  0  0  0  0  0  0  0  0
   19.6317  -19.7281  -17.8814 O   0  0  0  0  0  0  0  0  0  0  0  0
   21.5796  -16.5162  -18.2323 O   0  0  0  0  0  0  0  0  0  0  0  0
  2  1  1  1
  2  5  1  0
  3  4  1  0
  3  2  1  0
  5  7  1  0
  5  6  2  0
  7  8  1  0
  8  9  1  6
  8 19  1  0
  9 10  1  0
 10 11  2  0
 10 18  1  0
 11 12  1  0
 12 13  1  0
 13 14  2  0
 14 15  1  0
 16 15  2  0
 17 18  2  0
 17 16  1  0
 18 13  1  0
 19 20  2  0
 21 22  1  0
 21 19  1  0
 23 24  1  0
 22 23  1  1
 24 25  1  0
 25 26  2  0
 25 29  1  0
 27 22  1  0
 27 30  1  0
 28 27  2  0
M  END
$$$$
