CWE.pdb
     RDKit          3D

 30 31  0  0  1  0  0  0  0  0999 V2000
   28.1615  -21.9358  -15.6920 N   0  0  0  0  0  0  0  0  0  0  0  0
   28.1683  -20.8757  -14.7316 C   0  0  1  0  0  0  0  0  0  0  0  0
   27.6604  -19.5787  -15.3091 C   0  0  0  0  0  0  0  0  0  0  0  0
   28.8567  -19.0014  -16.5574 S   0  0  0  0  0  0  0  0  0  0  0  0
   27.3546  -21.2121  -13.5027 C   0  0  0  0  0  0  0  0  0  0  0  0
   26.2684  -21.8225  -13.6603 O   0  0  0  0  0  0  0  0  0  0  0  0
   27.8526  -20.8257  -12.2456 N   0  0  0  0  0  0  0  0  0  0  0  0
   27.1602  -20.9316  -11.0051 C   0  0  1  0  0  0  0  0  0  0  0  0
   28.0227  -20.4725   -9.8481 C   0  0  0  0  0  0  0  0  0  0  0  0
   27.2228  -20.5727   -8.6001 C   0  0  0  0  0  0  0  0  0  0  0  0
   25.9375  -21.0117   -8.3800 C   0  0  0  0  0  0  0  0  0  0  0  0
   25.6147  -20.9344   -7.0617 N   0  0  0  0  0  0  0  0  0  0  0  0
   26.6728  -20.4470   -6.3923 C   0  0  0  0  0  0  0  0  0  0  0  0
   26.8565  -20.1828   -5.0528 C   0  0  0  0  0  0  0  0  0  0  0  0
   28.0599  -19.6750   -4.5887 C   0  0  0  0  0  0  0  0  0  0  0  0
   29.0643  -19.4426   -5.5018 C   0  0  0  0  0  0  0  0  0  0  0  0
   28.8476  -19.7209   -6.8556 C   0  0  0  0  0  0  0  0  0  0  0  0
   27.6664  -20.2191   -7.3114 C   0  0  0  0  0  0  0  0  0  0  0  0
   25.8337  -20.2893  -11.0550 C   0  0  0  0  0  0  0  0  0  0  0  0
   25.7402  -19.0417  -11.1227 O   0  0  0  0  0  0  0  0  0  0  0  0
   24.6370  -21.0525  -11.0285 N   0  0  0  0  0  0  0  0  0  0  0  0
   23.3129  -20.5606  -11.3220 C   0  0  1  0  0  0  0  0  0  0  0  0
   22.8075  -21.0461  -12.6191 C   0  0  0  0  0  0  0  0  0  0  0  0
   22.8570  -20.0867  -13.7517 C   0  0  0  0  0  0  0  0  0  0  0  0
   21.9786  -20.4127  -14.8809 C   0  0  0  0  0  0  0  0  0  0  0  0
   21.2447  -21.4007  -15.0027 O   0  0  0  0  0  0  0  0  0  0  0  0
   22.3637  -20.6488  -10.1850 C   0  0  0  0  0  0  0  0  0  0  0  0
   22.6100  -21.2421   -9.1212 O   0  0  0  0  0  0  0  0  0  0  0  0
   21.9689  -19.4966  -15.9499 O   0  0  0  0  0  0  0  0  0  0  0  0
   21.1329  -20.0425  -10.3091 O   0  0  0  0  0  0  0  0  0  0  0  0
  2  1  1  6
  2  5  1  0
  3  4  1  0
  3  2  1  0
  5  7  1  0
  5  6  2  0
  7  8  1  0
  8  9  1  1
  8 19  1  0
  9 10  1  0
 10 11  2  0
 10 18  1  0
 11 12  1  0
 12 13  1  0
 13 14  2  0
 14 15  1  0
 16 15  2  0
 17 18  2  0
 17 16  1  0
 18 13  1  0
 19 20  2  0
 21 22  1  0
 21 19  1  0
 23 24  1  0
 22 23  1  6
 24 25  1  0
 25 26  2  0
 25 29  1  0
 27 22  1  0
 27 30  1  0
 28 27  2  0
M  END
$$$$
