CWE.pdb
     RDKit          3D

 30 31  0  0  1  0  0  0  0  0999 V2000
   27.4013  -20.9644  -16.7759 N   0  0  0  0  0  0  0  0  0  0  0  0
   27.3488  -22.2923  -16.2467 C   0  0  1  0  0  0  0  0  0  0  0  0
   28.7224  -22.8729  -16.0237 C   0  0  0  0  0  0  0  0  0  0  0  0
   29.8994  -21.9847  -17.0954 S   0  0  0  0  0  0  0  0  0  0  0  0
   26.5758  -22.3608  -14.9493 C   0  0  0  0  0  0  0  0  0  0  0  0
   26.4493  -23.4798  -14.3935 O   0  0  0  0  0  0  0  0  0  0  0  0
   26.0369  -21.1705  -14.4293 N   0  0  0  0  0  0  0  0  0  0  0  0
   25.2316  -21.0601  -13.2594 C   0  0  1  0  0  0  0  0  0  0  0  0
   25.7031  -19.9315  -12.3665 C   0  0  0  0  0  0  0  0  0  0  0  0
   26.8634  -20.4154  -11.5747 C   0  0  0  0  0  0  0  0  0  0  0  0
   28.1211  -20.8172  -11.9621 C   0  0  0  0  0  0  0  0  0  0  0  0
   28.8711  -21.1765  -10.8868 N   0  0  0  0  0  0  0  0  0  0  0  0
   28.1285  -21.0196   -9.7782 C   0  0  0  0  0  0  0  0  0  0  0  0
   28.4213  -21.2409   -8.4503 C   0  0  0  0  0  0  0  0  0  0  0  0
   27.4757  -20.9997   -7.4660 C   0  0  0  0  0  0  0  0  0  0  0  0
   26.2384  -20.5336   -7.8513 C   0  0  0  0  0  0  0  0  0  0  0  0
   25.9710  -20.3186   -9.2076 C   0  0  0  0  0  0  0  0  0  0  0  0
   26.8988  -20.5556  -10.1740 C   0  0  0  0  0  0  0  0  0  0  0  0
   23.7932  -21.0089  -13.5803 C   0  0  0  0  0  0  0  0  0  0  0  0
   23.3569  -20.1506  -14.3820 O   0  0  0  0  0  0  0  0  0  0  0  0
   22.8695  -21.9173  -12.9998 N   0  0  0  0  0  0  0  0  0  0  0  0
   21.4394  -21.9067  -13.1894 C   0  0  1  0  0  0  0  0  0  0  0  0
   20.8554  -23.2594  -13.1382 C   0  0  0  0  0  0  0  0  0  0  0  0
   19.3771  -23.3486  -13.2485 C   0  0  0  0  0  0  0  0  0  0  0  0
   18.8553  -23.3509  -14.6198 C   0  0  0  0  0  0  0  0  0  0  0  0
   19.3818  -23.8438  -15.6245 O   0  0  0  0  0  0  0  0  0  0  0  0
   20.7282  -20.8661  -12.4065 C   0  0  0  0  0  0  0  0  0  0  0  0
   19.7772  -20.1976  -12.8458 O   0  0  0  0  0  0  0  0  0  0  0  0
   17.6123  -22.7198  -14.8167 O   0  0  0  0  0  0  0  0  0  0  0  0
   21.1427  -20.6177  -11.1164 O   0  0  0  0  0  0  0  0  0  0  0  0
  2  1  1  1
  2  5  1  0
  3  4  1  0
  3  2  1  0
  5  7  1  0
  5  6  2  0
  7  8  1  0
  8  9  1  6
  8 19  1  0
  9 10  1  0
 10 11  2  0
 10 18  1  0
 11 12  1  0
 12 13  1  0
 13 14  2  0
 14 15  1  0
 16 15  2  0
 17 18  2  0
 17 16  1  0
 18 13  1  0
 19 20  2  0
 21 22  1  0
 21 19  1  0
 23 24  1  0
 22 23  1  1
 24 25  1  0
 25 26  2  0
 25 29  1  0
 27 22  1  0
 27 30  1  0
 28 27  2  0
M  END
$$$$
