CWE.pdb
     RDKit          3D

 30 31  0  0  1  0  0  0  0  0999 V2000
   21.3019  -10.5504  -15.9684 N   0  0  0  0  0  0  0  0  0  0  0  0
   22.3190   -9.6571  -15.5064 C   0  0  1  0  0  0  0  0  0  0  0  0
   23.4761  -10.3875  -14.8730 C   0  0  0  0  0  0  0  0  0  0  0  0
   22.8550  -11.2861  -13.4137 S   0  0  0  0  0  0  0  0  0  0  0  0
   22.8492   -8.7731  -16.6123 C   0  0  0  0  0  0  0  0  0  0  0  0
   23.7376   -7.9333  -16.3249 O   0  0  0  0  0  0  0  0  0  0  0  0
   22.3226   -8.9339  -17.9063 N   0  0  0  0  0  0  0  0  0  0  0  0
   22.5953   -8.0991  -19.0280 C   0  0  1  0  0  0  0  0  0  0  0  0
   22.7624   -8.9110  -20.2954 C   0  0  0  0  0  0  0  0  0  0  0  0
   23.9235   -9.8209  -20.1180 C   0  0  0  0  0  0  0  0  0  0  0  0
   25.2692   -9.5605  -19.9976 C   0  0  0  0  0  0  0  0  0  0  0  0
   25.9766  -10.7109  -19.8423 N   0  0  0  0  0  0  0  0  0  0  0  0
   25.1178  -11.7440  -19.8568 C   0  0  0  0  0  0  0  0  0  0  0  0
   25.3269  -13.1003  -19.7361 C   0  0  0  0  0  0  0  0  0  0  0  0
   24.2635  -13.9884  -19.7798 C   0  0  0  0  0  0  0  0  0  0  0  0
   22.9952  -13.4783  -19.9467 C   0  0  0  0  0  0  0  0  0  0  0  0
   22.8148  -12.0962  -20.0664 C   0  0  0  0  0  0  0  0  0  0  0  0
   23.8584  -11.2243  -20.0238 C   0  0  0  0  0  0  0  0  0  0  0  0
   21.6232   -6.9966  -19.1468 C   0  0  0  0  0  0  0  0  0  0  0  0
   20.4589   -7.2242  -19.5499 O   0  0  0  0  0  0  0  0  0  0  0  0
   21.9698   -5.6610  -18.8132 N   0  0  0  0  0  0  0  0  0  0  0  0
   21.0475   -4.5650  -18.6415 C   0  0  1  0  0  0  0  0  0  0  0  0
   19.9836   -4.8727  -17.6683 C   0  0  0  0  0  0  0  0  0  0  0  0
   18.9743   -3.8097  -17.4303 C   0  0  0  0  0  0  0  0  0  0  0  0
   17.9169   -4.1594  -16.4751 C   0  0  0  0  0  0  0  0  0  0  0  0
   18.0507   -4.6848  -15.3634 O   0  0  0  0  0  0  0  0  0  0  0  0
   21.6968   -3.2394  -18.4911 C   0  0  0  0  0  0  0  0  0  0  0  0
   22.8969   -3.0839  -18.2080 O   0  0  0  0  0  0  0  0  0  0  0  0
   16.5975   -3.8637  -16.8672 O   0  0  0  0  0  0  0  0  0  0  0  0
   20.9303   -2.1090  -18.6708 O   0  0  0  0  0  0  0  0  0  0  0  0
  2  1  1  6
  2  5  1  0
  3  4  1  0
  3  2  1  0
  5  7  1  0
  5  6  2  0
  7  8  1  0
  8  9  1  6
  8 19  1  0
  9 10  1  0
 10 11  2  0
 10 18  1  0
 11 12  1  0
 12 13  1  0
 13 14  2  0
 14 15  1  0
 16 15  2  0
 17 18  2  0
 17 16  1  0
 18 13  1  0
 19 20  2  0
 21 22  1  0
 21 19  1  0
 23 24  1  0
 22 23  1  1
 24 25  1  0
 25 26  2  0
 25 29  1  0
 27 22  1  0
 27 30  1  0
 28 27  2  0
M  END
$$$$
