CWE.pdb
     RDKit          3D

 30 31  0  0  1  0  0  0  0  0999 V2000
   28.7309  -19.6296  -16.3316 N   0  0  0  0  0  0  0  0  0  0  0  0
   28.6275  -19.5611  -14.9066 C   0  0  1  0  0  0  0  0  0  0  0  0
   28.5822  -18.1399  -14.4049 C   0  0  0  0  0  0  0  0  0  0  0  0
   26.9773  -17.4172  -14.8790 S   0  0  0  0  0  0  0  0  0  0  0  0
   27.4158  -20.2994  -14.3849 C   0  0  0  0  0  0  0  0  0  0  0  0
   26.4352  -20.4474  -15.1555 O   0  0  0  0  0  0  0  0  0  0  0  0
   27.4456  -20.7832  -13.0648 N   0  0  0  0  0  0  0  0  0  0  0  0
   26.3997  -21.4993  -12.4146 C   0  0  1  0  0  0  0  0  0  0  0  0
   26.9037  -22.2161  -11.1795 C   0  0  0  0  0  0  0  0  0  0  0  0
   26.5127  -21.4223   -9.9860 C   0  0  0  0  0  0  0  0  0  0  0  0
   25.3276  -20.8064   -9.6553 C   0  0  0  0  0  0  0  0  0  0  0  0
   25.4183  -20.1914   -8.4464 N   0  0  0  0  0  0  0  0  0  0  0  0
   26.6552  -20.3885   -7.9602 C   0  0  0  0  0  0  0  0  0  0  0  0
   27.2447  -19.9783   -6.7846 C   0  0  0  0  0  0  0  0  0  0  0  0
   28.5585  -20.3126   -6.4958 C   0  0  0  0  0  0  0  0  0  0  0  0
   29.2565  -21.0644   -7.4147 C   0  0  0  0  0  0  0  0  0  0  0  0
   28.6305  -21.4660   -8.5996 C   0  0  0  0  0  0  0  0  0  0  0  0
   27.3410  -21.1378   -8.8834 C   0  0  0  0  0  0  0  0  0  0  0  0
   25.2157  -20.6535  -12.1750 C   0  0  0  0  0  0  0  0  0  0  0  0
   25.3548  -19.4423  -11.8864 O   0  0  0  0  0  0  0  0  0  0  0  0
   23.8988  -21.1767  -12.2622 N   0  0  0  0  0  0  0  0  0  0  0  0
   22.7913  -20.5691  -12.9590 C   0  0  1  0  0  0  0  0  0  0  0  0
   23.1634  -20.1016  -14.3069 C   0  0  0  0  0  0  0  0  0  0  0  0
   22.0777  -19.5041  -15.1252 C   0  0  0  0  0  0  0  0  0  0  0  0
   22.3401  -18.1434  -15.6074 C   0  0  0  0  0  0  0  0  0  0  0  0
   23.4344  -17.5737  -15.6942 O   0  0  0  0  0  0  0  0  0  0  0  0
   21.5213  -21.3308  -12.8673 C   0  0  0  0  0  0  0  0  0  0  0  0
   20.4348  -20.8286  -12.5332 O   0  0  0  0  0  0  0  0  0  0  0  0
   21.2183  -17.3989  -16.0190 O   0  0  0  0  0  0  0  0  0  0  0  0
   21.5397  -22.6757  -13.1651 O   0  0  0  0  0  0  0  0  0  0  0  0
  2  1  1  6
  2  5  1  0
  3  4  1  0
  3  2  1  0
  5  7  1  0
  5  6  2  0
  7  8  1  0
  8  9  1  1
  8 19  1  0
  9 10  1  0
 10 11  2  0
 10 18  1  0
 11 12  1  0
 12 13  1  0
 13 14  2  0
 14 15  1  0
 16 15  2  0
 17 18  2  0
 17 16  1  0
 18 13  1  0
 19 20  2  0
 21 22  1  0
 21 19  1  0
 23 24  1  0
 22 23  1  6
 24 25  1  0
 25 26  2  0
 25 29  1  0
 27 22  1  0
 27 30  1  0
 28 27  2  0
M  END
$$$$
