CWE.pdb
     RDKit          3D

 30 31  0  0  1  0  0  0  0  0999 V2000
   23.3954  -11.5096  -19.9823 N   0  0  0  0  0  0  0  0  0  0  0  0
   23.1083  -10.1441  -20.2968 C   0  0  1  0  0  0  0  0  0  0  0  0
   21.8365   -9.9966  -21.0932 C   0  0  0  0  0  0  0  0  0  0  0  0
   22.1307  -10.6552  -22.7673 S   0  0  0  0  0  0  0  0  0  0  0  0
   23.0098   -9.2808  -19.0596 C   0  0  0  0  0  0  0  0  0  0  0  0
   22.2822   -9.6784  -18.1163 O   0  0  0  0  0  0  0  0  0  0  0  0
   23.7359   -8.0770  -19.0255 N   0  0  0  0  0  0  0  0  0  0  0  0
   23.7324   -7.1301  -17.9613 C   0  0  1  0  0  0  0  0  0  0  0  0
   25.1069   -6.5312  -17.7479 C   0  0  0  0  0  0  0  0  0  0  0  0
   26.0111   -7.6008  -17.2519 C   0  0  0  0  0  0  0  0  0  0  0  0
   27.2495   -8.0144  -17.6859 C   0  0  0  0  0  0  0  0  0  0  0  0
   27.7183   -9.0357  -16.9209 N   0  0  0  0  0  0  0  0  0  0  0  0
   26.8054   -9.3128  -15.9749 C   0  0  0  0  0  0  0  0  0  0  0  0
   26.8013  -10.2480  -14.9634 C   0  0  0  0  0  0  0  0  0  0  0  0
   25.7275  -10.3457  -14.0924 C   0  0  0  0  0  0  0  0  0  0  0  0
   24.6674   -9.4838  -14.2658 C   0  0  0  0  0  0  0  0  0  0  0  0
   24.7008   -8.5448  -15.3023 C   0  0  0  0  0  0  0  0  0  0  0  0
   25.7546   -8.4489  -16.1575 C   0  0  0  0  0  0  0  0  0  0  0  0
   22.6602   -6.1293  -18.1143 C   0  0  0  0  0  0  0  0  0  0  0  0
   22.5072   -5.5320  -19.2050 O   0  0  0  0  0  0  0  0  0  0  0  0
   21.7793   -5.8147  -17.0464 N   0  0  0  0  0  0  0  0  0  0  0  0
   20.6924   -4.8674  -17.0971 C   0  0  1  0  0  0  0  0  0  0  0  0
   19.3934   -5.4842  -16.7720 C   0  0  0  0  0  0  0  0  0  0  0  0
   18.2089   -4.5887  -16.7966 C   0  0  0  0  0  0  0  0  0  0  0  0
   16.9272   -5.2458  -16.5166 C   0  0  0  0  0  0  0  0  0  0  0  0
   16.7339   -6.4405  -16.2617 O   0  0  0  0  0  0  0  0  0  0  0  0
   20.9789   -3.5743  -16.4283 C   0  0  0  0  0  0  0  0  0  0  0  0
   21.7482   -3.4505  -15.4601 O   0  0  0  0  0  0  0  0  0  0  0  0
   15.7848   -4.4234  -16.5406 O   0  0  0  0  0  0  0  0  0  0  0  0
   20.3567   -2.4394  -16.9001 O   0  0  0  0  0  0  0  0  0  0  0  0
  2  1  1  1
  2  5  1  0
  3  4  1  0
  3  2  1  0
  5  7  1  0
  5  6  2  0
  7  8  1  0
  8  9  1  6
  8 19  1  0
  9 10  1  0
 10 11  2  0
 10 18  1  0
 11 12  1  0
 12 13  1  0
 13 14  2  0
 14 15  1  0
 16 15  2  0
 17 18  2  0
 17 16  1  0
 18 13  1  0
 19 20  2  0
 21 22  1  0
 21 19  1  0
 23 24  1  0
 22 23  1  1
 24 25  1  0
 25 26  2  0
 25 29  1  0
 27 22  1  0
 27 30  1  0
 28 27  2  0
M  END
$$$$
