CWE.pdb
     RDKit          3D

 30 31  0  0  1  0  0  0  0  0999 V2000
   23.6791   -8.3802  -21.8167 N   0  0  0  0  0  0  0  0  0  0  0  0
   23.0254   -9.2499  -20.8879 C   0  0  1  0  0  0  0  0  0  0  0  0
   23.4192  -10.6924  -21.0819 C   0  0  0  0  0  0  0  0  0  0  0  0
   25.1802  -10.8679  -20.6452 S   0  0  0  0  0  0  0  0  0  0  0  0
   23.2963   -8.8610  -19.4523 C   0  0  0  0  0  0  0  0  0  0  0  0
   22.7378   -9.5240  -18.5436 O   0  0  0  0  0  0  0  0  0  0  0  0
   24.1585   -7.7780  -19.2051 N   0  0  0  0  0  0  0  0  0  0  0  0
   24.4548   -7.2219  -17.9274 C   0  0  1  0  0  0  0  0  0  0  0  0
   25.9064   -6.8017  -17.8291 C   0  0  0  0  0  0  0  0  0  0  0  0
   26.7495   -8.0250  -17.8467 C   0  0  0  0  0  0  0  0  0  0  0  0
   27.7031   -8.4560  -18.7399 C   0  0  0  0  0  0  0  0  0  0  0  0
   28.2340   -9.6453  -18.3506 N   0  0  0  0  0  0  0  0  0  0  0  0
   27.6455  -10.0185  -17.2019 C   0  0  0  0  0  0  0  0  0  0  0  0
   27.8273  -11.1294  -16.4077 C   0  0  0  0  0  0  0  0  0  0  0  0
   27.0914  -11.2981  -15.2453 C   0  0  0  0  0  0  0  0  0  0  0  0
   26.1756  -10.3267  -14.9072 C   0  0  0  0  0  0  0  0  0  0  0  0
   26.0136   -9.2099  -15.7340 C   0  0  0  0  0  0  0  0  0  0  0  0
   26.7356   -9.0442  -16.8752 C   0  0  0  0  0  0  0  0  0  0  0  0
   23.4985   -6.1654  -17.5482 C   0  0  0  0  0  0  0  0  0  0  0  0
   23.3255   -5.1747  -18.2954 O   0  0  0  0  0  0  0  0  0  0  0  0
   22.7535   -6.2355  -16.3418 N   0  0  0  0  0  0  0  0  0  0  0  0
   21.7799   -5.2710  -15.8912 C   0  0  1  0  0  0  0  0  0  0  0  0
   20.4177   -5.8320  -15.8335 C   0  0  0  0  0  0  0  0  0  0  0  0
   19.3347   -4.9038  -15.4199 C   0  0  0  0  0  0  0  0  0  0  0  0
   17.9790   -5.4609  -15.4880 C   0  0  0  0  0  0  0  0  0  0  0  0
   17.6537   -6.6133  -15.7976 O   0  0  0  0  0  0  0  0  0  0  0  0
   22.2045   -4.4830  -14.7079 C   0  0  0  0  0  0  0  0  0  0  0  0
   22.8153   -4.9638  -13.7382 O   0  0  0  0  0  0  0  0  0  0  0  0
   16.9260   -4.5844  -15.1642 O   0  0  0  0  0  0  0  0  0  0  0  0
   21.9049   -3.1389  -14.6725 O   0  0  0  0  0  0  0  0  0  0  0  0
  2  1  1  6
  2  5  1  0
  3  4  1  0
  3  2  1  0
  5  7  1  0
  5  6  2  0
  7  8  1  0
  8  9  1  6
  8 19  1  0
  9 10  1  0
 10 11  2  0
 10 18  1  0
 11 12  1  0
 12 13  1  0
 13 14  2  0
 14 15  1  0
 16 15  2  0
 17 18  2  0
 17 16  1  0
 18 13  1  0
 19 20  2  0
 21 22  1  0
 21 19  1  0
 23 24  1  0
 22 23  1  1
 24 25  1  0
 25 26  2  0
 25 29  1  0
 27 22  1  0
 27 30  1  0
 28 27  2  0
M  END
$$$$
