CWE.pdb
     RDKit          3D

 30 31  0  0  1  0  0  0  0  0999 V2000
   28.7686  -21.0279  -15.2595 N   0  0  0  0  0  0  0  0  0  0  0  0
   28.4686  -20.3218  -14.0523 C   0  0  1  0  0  0  0  0  0  0  0  0
   28.2413  -18.8507  -14.2926 C   0  0  0  0  0  0  0  0  0  0  0  0
   26.8303  -18.6689  -15.4323 S   0  0  0  0  0  0  0  0  0  0  0  0
   27.2611  -20.8904  -13.3422 C   0  0  0  0  0  0  0  0  0  0  0  0
   26.5495  -21.7224  -13.9574 O   0  0  0  0  0  0  0  0  0  0  0  0
   26.9940  -20.4605  -12.0301 N   0  0  0  0  0  0  0  0  0  0  0  0
   25.8892  -20.8662  -11.2276 C   0  0  1  0  0  0  0  0  0  0  0  0
   26.0091  -20.3398   -9.8127 C   0  0  0  0  0  0  0  0  0  0  0  0
   27.3137  -20.7841   -9.2576 C   0  0  0  0  0  0  0  0  0  0  0  0
   28.3269  -21.5323   -9.8113 C   0  0  0  0  0  0  0  0  0  0  0  0
   29.3524  -21.6905   -8.9331 N   0  0  0  0  0  0  0  0  0  0  0  0
   29.0378  -21.0543   -7.7923 C   0  0  0  0  0  0  0  0  0  0  0  0
   29.7311  -20.9138   -6.6101 C   0  0  0  0  0  0  0  0  0  0  0  0
   29.1931  -20.1958   -5.5536 C   0  0  0  0  0  0  0  0  0  0  0  0
   27.9492  -19.6282   -5.7181 C   0  0  0  0  0  0  0  0  0  0  0  0
   27.2696  -19.7884   -6.9304 C   0  0  0  0  0  0  0  0  0  0  0  0
   27.7974  -20.4933   -7.9675 C   0  0  0  0  0  0  0  0  0  0  0  0
   24.5972  -20.5648  -11.8713 C   0  0  0  0  0  0  0  0  0  0  0  0
   24.3396  -19.3990  -12.2513 O   0  0  0  0  0  0  0  0  0  0  0  0
   23.6174  -21.5710  -12.0784 N   0  0  0  0  0  0  0  0  0  0  0  0
   22.3447  -21.3909  -12.7335 C   0  0  1  0  0  0  0  0  0  0  0  0
   21.9352  -22.5798  -13.5032 C   0  0  0  0  0  0  0  0  0  0  0  0
   20.6311  -22.4967  -14.2087 C   0  0  0  0  0  0  0  0  0  0  0  0
   20.7166  -22.4852  -15.6734 C   0  0  0  0  0  0  0  0  0  0  0  0
   21.5950  -22.9941  -16.3800 O   0  0  0  0  0  0  0  0  0  0  0  0
   21.2972  -20.7851  -11.8747 C   0  0  0  0  0  0  0  0  0  0  0  0
   21.3708  -20.7168  -10.6360 O   0  0  0  0  0  0  0  0  0  0  0  0
   19.6806  -21.8184  -16.3548 O   0  0  0  0  0  0  0  0  0  0  0  0
   20.1717  -20.2685  -12.4781 O   0  0  0  0  0  0  0  0  0  0  0  0
  2  1  1  6
  2  5  1  0
  3  4  1  0
  3  2  1  0
  5  7  1  0
  5  6  2  0
  7  8  1  0
  8  9  1  1
  8 19  1  0
  9 10  1  0
 10 11  2  0
 10 18  1  0
 11 12  1  0
 12 13  1  0
 13 14  2  0
 14 15  1  0
 16 15  2  0
 17 18  2  0
 17 16  1  0
 18 13  1  0
 19 20  2  0
 21 22  1  0
 21 19  1  0
 23 24  1  0
 22 23  1  1
 24 25  1  0
 25 26  2  0
 25 29  1  0
 27 22  1  0
 27 30  1  0
 28 27  2  0
M  END
$$$$
