CWE.pdb
     RDKit          3D

 30 31  0  0  1  0  0  0  0  0999 V2000
   24.6876  -12.8304  -20.0953 N   0  0  0  0  0  0  0  0  0  0  0  0
   24.6411  -11.4086  -19.9455 C   0  0  1  0  0  0  0  0  0  0  0  0
   23.6472  -10.7680  -20.8811 C   0  0  0  0  0  0  0  0  0  0  0  0
   24.3054  -10.8786  -22.5774 S   0  0  0  0  0  0  0  0  0  0  0  0
   24.3130  -10.9932  -18.5294 C   0  0  0  0  0  0  0  0  0  0  0  0
   23.2575  -11.4350  -18.0119 O   0  0  0  0  0  0  0  0  0  0  0  0
   25.2040  -10.1337  -17.8621 N   0  0  0  0  0  0  0  0  0  0  0  0
   25.0672   -9.6655  -16.5237 C   0  0  1  0  0  0  0  0  0  0  0  0
   26.3948   -9.6741  -15.7952 C   0  0  0  0  0  0  0  0  0  0  0  0
   26.8668  -11.0797  -15.7001 C   0  0  0  0  0  0  0  0  0  0  0  0
   26.2691  -12.2033  -15.1773 C   0  0  0  0  0  0  0  0  0  0  0  0
   27.0723  -13.2914  -15.3139 N   0  0  0  0  0  0  0  0  0  0  0  0
   28.2063  -12.9094  -15.9249 C   0  0  0  0  0  0  0  0  0  0  0  0
   29.3252  -13.6245  -16.2920 C   0  0  0  0  0  0  0  0  0  0  0  0
   30.3888  -13.0011  -16.9254 C   0  0  0  0  0  0  0  0  0  0  0  0
   30.2962  -11.6503  -17.1772 C   0  0  0  0  0  0  0  0  0  0  0  0
   29.1470  -10.9513  -16.7925 C   0  0  0  0  0  0  0  0  0  0  0  0
   28.1029  -11.5629  -16.1704 C   0  0  0  0  0  0  0  0  0  0  0  0
   24.3566   -8.3750  -16.4586 C   0  0  0  0  0  0  0  0  0  0  0  0
   24.7658   -7.3964  -17.1255 O   0  0  0  0  0  0  0  0  0  0  0  0
   23.2026   -8.2019  -15.6501 N   0  0  0  0  0  0  0  0  0  0  0  0
   22.3341   -7.0500  -15.6504 C   0  0  1  0  0  0  0  0  0  0  0  0
   21.9190   -6.6592  -17.0100 C   0  0  0  0  0  0  0  0  0  0  0  0
   21.0307   -5.4739  -17.1177 C   0  0  0  0  0  0  0  0  0  0  0  0
   21.4283   -4.4893  -18.1303 C   0  0  0  0  0  0  0  0  0  0  0  0
   22.1545   -4.6732  -19.1144 O   0  0  0  0  0  0  0  0  0  0  0  0
   21.2536   -7.1007  -14.6347 C   0  0  0  0  0  0  0  0  0  0  0  0
   20.6595   -8.1417  -14.3066 O   0  0  0  0  0  0  0  0  0  0  0  0
   20.9264   -3.1845  -17.9643 O   0  0  0  0  0  0  0  0  0  0  0  0
   20.8785   -5.9281  -14.0165 O   0  0  0  0  0  0  0  0  0  0  0  0
  2  1  1  1
  2  5  1  0
  3  4  1  0
  3  2  1  0
  5  7  1  0
  5  6  2  0
  7  8  1  0
  8  9  1  6
  8 19  1  0
  9 10  1  0
 10 11  2  0
 10 18  1  0
 11 12  1  0
 12 13  1  0
 13 14  2  0
 14 15  1  0
 16 15  2  0
 17 18  2  0
 17 16  1  0
 18 13  1  0
 19 20  2  0
 21 22  1  0
 21 19  1  0
 23 24  1  0
 22 23  1  6
 24 25  1  0
 25 26  2  0
 25 29  1  0
 27 22  1  0
 27 30  1  0
 28 27  2  0
M  END
$$$$
