CWE.pdb
     RDKit          3D

 30 31  0  0  1  0  0  0  0  0999 V2000
   27.9215  -21.4214  -15.4076 N   0  0  0  0  0  0  0  0  0  0  0  0
   27.9355  -20.4730  -14.3369 C   0  0  1  0  0  0  0  0  0  0  0  0
   27.3824  -19.1335  -14.7533 C   0  0  0  0  0  0  0  0  0  0  0  0
   28.5466  -18.3760  -15.9337 S   0  0  0  0  0  0  0  0  0  0  0  0
   27.1677  -20.9619  -13.1298 C   0  0  0  0  0  0  0  0  0  0  0  0
   26.0588  -21.5200  -13.3194 O   0  0  0  0  0  0  0  0  0  0  0  0
   27.7315  -20.7679  -11.8562 N   0  0  0  0  0  0  0  0  0  0  0  0
   27.0329  -20.8285  -10.6162 C   0  0  1  0  0  0  0  0  0  0  0  0
   27.9093  -20.3838   -9.4641 C   0  0  0  0  0  0  0  0  0  0  0  0
   27.1028  -20.4326   -8.2172 C   0  0  0  0  0  0  0  0  0  0  0  0
   25.8145  -20.8574   -7.9869 C   0  0  0  0  0  0  0  0  0  0  0  0
   25.4856  -20.7280   -6.6743 N   0  0  0  0  0  0  0  0  0  0  0  0
   26.5424  -20.2196   -6.0187 C   0  0  0  0  0  0  0  0  0  0  0  0
   26.7207  -19.9048   -4.6894 C   0  0  0  0  0  0  0  0  0  0  0  0
   27.9239  -19.3845   -4.2392 C   0  0  0  0  0  0  0  0  0  0  0  0
   28.9338  -19.1916   -5.1554 C   0  0  0  0  0  0  0  0  0  0  0  0
   28.7226  -19.5209   -6.4985 C   0  0  0  0  0  0  0  0  0  0  0  0
   27.5416  -20.0314   -6.9408 C   0  0  0  0  0  0  0  0  0  0  0  0
   25.7314  -20.1381  -10.6799 C   0  0  0  0  0  0  0  0  0  0  0  0
   25.6845  -18.8887  -10.7609 O   0  0  0  0  0  0  0  0  0  0  0  0
   24.5071  -20.8562  -10.6518 N   0  0  0  0  0  0  0  0  0  0  0  0
   23.2652  -20.4352  -11.2533 C   0  0  1  0  0  0  0  0  0  0  0  0
   23.1054  -20.9436  -12.6279 C   0  0  0  0  0  0  0  0  0  0  0  0
   21.9017  -20.4873  -13.3685 C   0  0  0  0  0  0  0  0  0  0  0  0
   21.7715  -21.0184  -14.7301 C   0  0  0  0  0  0  0  0  0  0  0  0
   21.4507  -22.1655  -15.0629 O   0  0  0  0  0  0  0  0  0  0  0  0
   22.0811  -20.5772  -10.3704 C   0  0  0  0  0  0  0  0  0  0  0  0
   21.6739  -21.6644   -9.9270 O   0  0  0  0  0  0  0  0  0  0  0  0
   22.0425  -20.1202  -15.7798 O   0  0  0  0  0  0  0  0  0  0  0  0
   21.3842  -19.4419  -10.0195 O   0  0  0  0  0  0  0  0  0  0  0  0
  2  1  1  6
  2  5  1  0
  3  4  1  0
  3  2  1  0
  5  7  1  0
  5  6  2  0
  7  8  1  0
  8  9  1  1
  8 19  1  0
  9 10  1  0
 10 11  2  0
 10 18  1  0
 11 12  1  0
 12 13  1  0
 13 14  2  0
 14 15  1  0
 16 15  2  0
 17 18  2  0
 17 16  1  0
 18 13  1  0
 19 20  2  0
 21 22  1  0
 21 19  1  0
 23 24  1  0
 22 23  1  6
 24 25  1  0
 25 26  2  0
 25 29  1  0
 27 22  1  0
 27 30  1  0
 28 27  2  0
M  END
$$$$
