CWE.pdb
     RDKit          3D

 30 31  0  0  1  0  0  0  0  0999 V2000
   33.4981  -35.1965   -7.4803 N   0  0  0  0  0  0  0  0  0  0  0  0
   32.4377  -36.1331   -7.2699 C   0  0  1  0  0  0  0  0  0  0  0  0
   32.9406  -37.4606   -6.7615 C   0  0  0  0  0  0  0  0  0  0  0  0
   33.9319  -38.2387   -8.0786 S   0  0  0  0  0  0  0  0  0  0  0  0
   31.3939  -35.6090   -6.3099 C   0  0  0  0  0  0  0  0  0  0  0  0
   31.7641  -34.8211   -5.4048 O   0  0  0  0  0  0  0  0  0  0  0  0
   30.0622  -36.0288   -6.4769 N   0  0  0  0  0  0  0  0  0  0  0  0
   28.9662  -35.6821   -5.6355 C   0  0  1  0  0  0  0  0  0  0  0  0
   27.6397  -35.9340   -6.3214 C   0  0  0  0  0  0  0  0  0  0  0  0
   27.4546  -34.9023   -7.3744 C   0  0  0  0  0  0  0  0  0  0  0  0
   27.9869  -34.7913   -8.6383 C   0  0  0  0  0  0  0  0  0  0  0  0
   27.5289  -33.6748   -9.2640 N   0  0  0  0  0  0  0  0  0  0  0  0
   26.6920  -33.0332   -8.4315 C   0  0  0  0  0  0  0  0  0  0  0  0
   25.9725  -31.8687   -8.5870 C   0  0  0  0  0  0  0  0  0  0  0  0
   25.1587  -31.3968   -7.5689 C   0  0  0  0  0  0  0  0  0  0  0  0
   25.0896  -32.1227   -6.4007 C   0  0  0  0  0  0  0  0  0  0  0  0
   25.8321  -33.3014   -6.2727 C   0  0  0  0  0  0  0  0  0  0  0  0
   26.6312  -33.7647   -7.2717 C   0  0  0  0  0  0  0  0  0  0  0  0
   29.0766  -36.2985   -4.3004 C   0  0  0  0  0  0  0  0  0  0  0  0
   28.9126  -37.5327   -4.1609 O   0  0  0  0  0  0  0  0  0  0  0  0
   29.3683  -35.5246   -3.1465 N   0  0  0  0  0  0  0  0  0  0  0  0
   29.4306  -36.0162   -1.7915 C   0  0  1  0  0  0  0  0  0  0  0  0
   30.7966  -35.9695   -1.2388 C   0  0  0  0  0  0  0  0  0  0  0  0
   30.9980  -36.6076    0.0870 C   0  0  0  0  0  0  0  0  0  0  0  0
   32.3578  -36.5008    0.6279 C   0  0  0  0  0  0  0  0  0  0  0  0
   33.3423  -35.9789    0.0911 O   0  0  0  0  0  0  0  0  0  0  0  0
   28.3575  -35.5007   -0.9059 C   0  0  0  0  0  0  0  0  0  0  0  0
   27.9447  -34.3287   -0.9275 O   0  0  0  0  0  0  0  0  0  0  0  0
   32.5680  -37.0557    1.9046 O   0  0  0  0  0  0  0  0  0  0  0  0
   27.7817  -36.3651   -0.0009 O   0  0  0  0  0  0  0  0  0  0  0  0
  2  1  1  1
  2  5  1  0
  3  4  1  0
  3  2  1  0
  5  7  1  0
  5  6  2  0
  7  8  1  0
  8  9  1  6
  8 19  1  0
  9 10  1  0
 10 11  2  0
 10 18  1  0
 11 12  1  0
 12 13  1  0
 13 14  2  0
 14 15  1  0
 16 15  2  0
 17 18  2  0
 17 16  1  0
 18 13  1  0
 19 20  2  0
 21 22  1  0
 21 19  1  0
 23 24  1  0
 22 23  1  1
 24 25  1  0
 25 26  2  0
 25 29  1  0
 27 22  1  0
 27 30  1  0
 28 27  2  0
M  END
$$$$
