CWE.pdb
     RDKit          3D

 30 31  0  0  1  0  0  0  0  0999 V2000
   27.2196  -17.8346  -19.8777 N   0  0  0  0  0  0  0  0  0  0  0  0
   26.7586  -17.3846  -18.6006 C   0  0  1  0  0  0  0  0  0  0  0  0
   25.7399  -16.2791  -18.7181 C   0  0  0  0  0  0  0  0  0  0  0  0
   26.6219  -14.7246  -19.0759 S   0  0  0  0  0  0  0  0  0  0  0  0
   26.1655  -18.5065  -17.7789 C   0  0  0  0  0  0  0  0  0  0  0  0
   25.3047  -19.2448  -18.3184 O   0  0  0  0  0  0  0  0  0  0  0  0
   26.6057  -18.6681  -16.4531 N   0  0  0  0  0  0  0  0  0  0  0  0
   26.0647  -19.5773  -15.4991 C   0  0  1  0  0  0  0  0  0  0  0  0
   27.0259  -19.8151  -14.3532 C   0  0  0  0  0  0  0  0  0  0  0  0
   26.4578  -20.8732  -13.4784 C   0  0  0  0  0  0  0  0  0  0  0  0
   26.2010  -22.2040  -13.7152 C   0  0  0  0  0  0  0  0  0  0  0  0
   25.6803  -22.8040  -12.6122 N   0  0  0  0  0  0  0  0  0  0  0  0
   25.5847  -21.8877  -11.6342 C   0  0  0  0  0  0  0  0  0  0  0  0
   25.1280  -21.9872  -10.3383 C   0  0  0  0  0  0  0  0  0  0  0  0
   25.1287  -20.8836   -9.4996 C   0  0  0  0  0  0  0  0  0  0  0  0
   25.5975  -19.6879   -9.9966 C   0  0  0  0  0  0  0  0  0  0  0  0
   26.0547  -19.6183  -11.3169 C   0  0  0  0  0  0  0  0  0  0  0  0
   26.0539  -20.7013  -12.1405 C   0  0  0  0  0  0  0  0  0  0  0  0
   24.7078  -19.1889  -15.0719 C   0  0  0  0  0  0  0  0  0  0  0  0
   24.4962  -18.0429  -14.6117 O   0  0  0  0  0  0  0  0  0  0  0  0
   23.6130  -20.0877  -15.1667 N   0  0  0  0  0  0  0  0  0  0  0  0
   22.2594  -19.8199  -14.7457 C   0  0  1  0  0  0  0  0  0  0  0  0
   21.2698  -20.1609  -15.7841 C   0  0  0  0  0  0  0  0  0  0  0  0
   20.5560  -21.4530  -15.6217 C   0  0  0  0  0  0  0  0  0  0  0  0
   20.2899  -22.1770  -16.8698 C   0  0  0  0  0  0  0  0  0  0  0  0
   19.2554  -22.1540  -17.5473 O   0  0  0  0  0  0  0  0  0  0  0  0
   21.9435  -20.2884  -13.3737 C   0  0  0  0  0  0  0  0  0  0  0  0
   22.5894  -21.1652  -12.7751 O   0  0  0  0  0  0  0  0  0  0  0  0
   21.3307  -22.9925  -17.3534 O   0  0  0  0  0  0  0  0  0  0  0  0
   20.8701  -19.7255  -12.7189 O   0  0  0  0  0  0  0  0  0  0  0  0
  2  1  1  6
  2  5  1  0
  3  4  1  0
  3  2  1  0
  5  7  1  0
  5  6  2  0
  7  8  1  0
  8  9  1  1
  8 19  1  0
  9 10  1  0
 10 11  2  0
 10 18  1  0
 11 12  1  0
 12 13  1  0
 13 14  2  0
 14 15  1  0
 16 15  2  0
 17 18  2  0
 17 16  1  0
 18 13  1  0
 19 20  2  0
 21 22  1  0
 21 19  1  0
 23 24  1  0
 22 23  1  6
 24 25  1  0
 25 26  2  0
 25 29  1  0
 27 22  1  0
 27 30  1  0
 28 27  2  0
M  END
$$$$
