CWE.pdb
     RDKit          3D

 30 31  0  0  1  0  0  0  0  0999 V2000
   28.0902  -23.6982  -16.0625 N   0  0  0  0  0  0  0  0  0  0  0  0
   27.4389  -22.4348  -15.9022 C   0  0  1  0  0  0  0  0  0  0  0  0
   26.5386  -22.1047  -17.0659 C   0  0  0  0  0  0  0  0  0  0  0  0
   27.5851  -21.7490  -18.5154 S   0  0  0  0  0  0  0  0  0  0  0  0
   26.6296  -22.3663  -14.6271 C   0  0  0  0  0  0  0  0  0  0  0  0
   26.0430  -23.4075  -14.2411 O   0  0  0  0  0  0  0  0  0  0  0  0
   26.5731  -21.1423  -13.9369 N   0  0  0  0  0  0  0  0  0  0  0  0
   25.8314  -20.8884  -12.7475 C   0  0  1  0  0  0  0  0  0  0  0  0
   26.4149  -19.7288  -11.9675 C   0  0  0  0  0  0  0  0  0  0  0  0
   27.4424  -20.2617  -11.0361 C   0  0  0  0  0  0  0  0  0  0  0  0
   28.6457  -20.8851  -11.2741 C   0  0  0  0  0  0  0  0  0  0  0  0
   29.2707  -21.2001  -10.1088 N   0  0  0  0  0  0  0  0  0  0  0  0
   28.4979  -20.7934   -9.0878 C   0  0  0  0  0  0  0  0  0  0  0  0
   28.6780  -20.8747   -7.7244 C   0  0  0  0  0  0  0  0  0  0  0  0
   27.7246  -20.3732   -6.8521 C   0  0  0  0  0  0  0  0  0  0  0  0
   26.5952  -19.7927   -7.3850 C   0  0  0  0  0  0  0  0  0  0  0  0
   26.4408  -19.7250   -8.7738 C   0  0  0  0  0  0  0  0  0  0  0  0
   27.3764  -20.2174   -9.6302 C   0  0  0  0  0  0  0  0  0  0  0  0
   24.3860  -20.7653  -13.0121 C   0  0  0  0  0  0  0  0  0  0  0  0
   23.9694  -19.9494  -13.8669 O   0  0  0  0  0  0  0  0  0  0  0  0
   23.4332  -21.5557  -12.3172 N   0  0  0  0  0  0  0  0  0  0  0  0
   21.9994  -21.4586  -12.4437 C   0  0  1  0  0  0  0  0  0  0  0  0
   21.3023  -22.6069  -11.8362 C   0  0  0  0  0  0  0  0  0  0  0  0
   19.8196  -22.6027  -11.9192 C   0  0  0  0  0  0  0  0  0  0  0  0
   19.2699  -22.9493  -13.2347 C   0  0  0  0  0  0  0  0  0  0  0  0
   19.3731  -24.0267  -13.8333 O   0  0  0  0  0  0  0  0  0  0  0  0
   21.4476  -20.1209  -12.1157 C   0  0  0  0  0  0  0  0  0  0  0  0
   21.7966  -19.4502  -11.1294 O   0  0  0  0  0  0  0  0  0  0  0  0
   18.5408  -21.9407  -13.8930 O   0  0  0  0  0  0  0  0  0  0  0  0
   20.4886  -19.5848  -12.9469 O   0  0  0  0  0  0  0  0  0  0  0  0
  2  1  1  6
  2  5  1  0
  3  4  1  0
  3  2  1  0
  5  7  1  0
  5  6  2  0
  7  8  1  0
  8  9  1  6
  8 19  1  0
  9 10  1  0
 10 11  2  0
 10 18  1  0
 11 12  1  0
 12 13  1  0
 13 14  2  0
 14 15  1  0
 16 15  2  0
 17 18  2  0
 17 16  1  0
 18 13  1  0
 19 20  2  0
 21 22  1  0
 21 19  1  0
 23 24  1  0
 22 23  1  1
 24 25  1  0
 25 26  2  0
 25 29  1  0
 27 22  1  0
 27 30  1  0
 28 27  2  0
M  END
$$$$
