WYP.pdb
     RDKit          3D

 34 37  0  0  1  0  0  0  0  0999 V2000
   24.8689  -20.7057   -8.3184 N   0  0  0  0  0  0  0  0  0  0  0  0
   25.9360  -20.4101   -9.2428 C   0  0  1  0  0  0  0  0  0  0  0  0
   27.2450  -20.9285   -8.6912 C   0  0  0  0  0  0  0  0  0  0  0  0
   27.6572  -20.0750   -7.5511 C   0  0  0  0  0  0  0  0  0  0  0  0
   27.1645  -18.8327   -7.1862 C   0  0  0  0  0  0  0  0  0  0  0  0
   27.8154  -18.4074   -6.0902 N   0  0  0  0  0  0  0  0  0  0  0  0
   28.7253  -19.3140   -5.7045 C   0  0  0  0  0  0  0  0  0  0  0  0
   29.6265  -19.3409   -4.6570 C   0  0  0  0  0  0  0  0  0  0  0  0
   30.4430  -20.4468   -4.5339 C   0  0  0  0  0  0  0  0  0  0  0  0
   30.3532  -21.4940   -5.4400 C   0  0  0  0  0  0  0  0  0  0  0  0
   29.4603  -21.4615   -6.4734 C   0  0  0  0  0  0  0  0  0  0  0  0
   28.6342  -20.3585   -6.6100 C   0  0  0  0  0  0  0  0  0  0  0  0
   25.6626  -20.9680  -10.5931 C   0  0  0  0  0  0  0  0  0  0  0  0
   25.8840  -22.1735  -10.8692 O   0  0  0  0  0  0  0  0  0  0  0  0
   19.2238  -22.7118  -10.8048 O   0  0  0  0  0  0  0  0  0  0  0  0
   20.2728  -22.0483  -11.4315 C   0  0  0  0  0  0  0  0  0  0  0  0
   20.7041  -20.8147  -10.9881 C   0  0  0  0  0  0  0  0  0  0  0  0
   21.7599  -20.1482  -11.6197 C   0  0  0  0  0  0  0  0  0  0  0  0
   22.3840  -20.7145  -12.6939 C   0  0  0  0  0  0  0  0  0  0  0  0
   23.5080  -20.0593  -13.4071 C   0  0  0  0  0  0  0  0  0  0  0  0
   24.8487  -20.6535  -12.9615 C   0  0  2  0  0  0  0  0  0  0  0  0
   25.1401  -20.1461  -11.6136 N   0  0  0  0  0  0  0  0  0  0  0  0
   25.8657  -20.1432  -13.9157 C   0  0  0  0  0  0  0  0  0  0  0  0
   26.2960  -18.9582  -13.6991 O   0  0  0  0  0  0  0  0  0  0  0  0
   21.9549  -21.9428  -13.1359 C   0  0  0  0  0  0  0  0  0  0  0  0
   20.8992  -22.6151  -12.5084 C   0  0  0  0  0  0  0  0  0  0  0  0
   26.3793  -20.8425  -15.0071 N   0  0  0  0  0  0  0  0  0  0  0  0
   26.0510  -22.1522  -15.5707 C   0  0  0  0  0  0  0  0  0  0  0  0
   27.3222  -22.6429  -16.2322 C   0  0  0  0  0  0  0  0  0  0  0  0
   28.3323  -21.5707  -15.9145 C   0  0  0  0  0  0  0  0  0  0  0  0
   27.4644  -20.3340  -15.8632 C   0  0  1  0  0  0  0  0  0  0  0  0
   26.8655  -19.9753  -17.1552 C   0  0  0  0  0  0  0  0  0  0  0  0
   27.5344  -19.4084  -18.2285 O   0  0  0  0  0  0  0  0  0  0  0  0
   25.6247  -20.2011  -17.3136 O   0  0  0  0  0  0  0  0  0  0  0  0
  2  1  1  1
  3  2  1  0
  4  5  2  0
  4  3  1  0
  6  5  1  0
  7 12  2  0
  7  6  1  0
  8  7  1  0
  9 10  1  0
  9  8  2  0
 10 11  2  0
 11 12  1  0
 12  4  1  0
 13 14  2  0
 13  2  1  0
 16 17  2  0
 16 15  1  0
 18 17  1  0
 19 18  2  0
 20 19  1  0
 21 20  1  6
 21 22  1  0
 22 13  1  0
 23 24  2  0
 23 21  1  0
 25 19  1  0
 25 26  2  0
 26 16  1  0
 27 23  1  0
 28 29  1  0
 28 27  1  0
 30 31  1  0
 30 29  1  0
 31 27  1  0
 31 32  1  6
 32 33  1  0
 34 32  2  0
M  END
$$$$
