WYP.pdb
     RDKit          3D

 34 37  0  0  1  0  0  0  0  0999 V2000
   25.2990  -20.2265   -8.5088 N   0  0  0  0  0  0  0  0  0  0  0  0
   26.5976  -20.5263   -9.0605 C   0  0  1  0  0  0  0  0  0  0  0  0
   27.4373  -21.2409   -8.0257 C   0  0  0  0  0  0  0  0  0  0  0  0
   27.6777  -20.3238   -6.8859 C   0  0  0  0  0  0  0  0  0  0  0  0
   26.8555  -19.3179   -6.4048 C   0  0  0  0  0  0  0  0  0  0  0  0
   27.4532  -18.7267   -5.3564 N   0  0  0  0  0  0  0  0  0  0  0  0
   28.6436  -19.2952   -5.1142 C   0  0  0  0  0  0  0  0  0  0  0  0
   29.6167  -19.0488   -4.1642 C   0  0  0  0  0  0  0  0  0  0  0  0
   30.7540  -19.8305   -4.1847 C   0  0  0  0  0  0  0  0  0  0  0  0
   30.9051  -20.8305   -5.1350 C   0  0  0  0  0  0  0  0  0  0  0  0
   29.9396  -21.0691   -6.0714 C   0  0  0  0  0  0  0  0  0  0  0  0
   28.7927  -20.2930   -6.0635 C   0  0  0  0  0  0  0  0  0  0  0  0
   26.4920  -21.3228  -10.3110 C   0  0  0  0  0  0  0  0  0  0  0  0
   26.2903  -22.5628  -10.2917 O   0  0  0  0  0  0  0  0  0  0  0  0
   20.5284  -21.1929  -16.4052 O   0  0  0  0  0  0  0  0  0  0  0  0
   21.4495  -21.0132  -15.3792 C   0  0  0  0  0  0  0  0  0  0  0  0
   21.9775  -19.7683  -15.1035 C   0  0  0  0  0  0  0  0  0  0  0  0
   22.9043  -19.5888  -14.0707 C   0  0  0  0  0  0  0  0  0  0  0  0
   23.3030  -20.6530  -13.3140 C   0  0  0  0  0  0  0  0  0  0  0  0
   24.2819  -20.5290  -12.2061 C   0  0  0  0  0  0  0  0  0  0  0  0
   25.6796  -20.9519  -12.6717 C   0  0  2  0  0  0  0  0  0  0  0  0
   26.6173  -20.6977  -11.5693 N   0  0  0  0  0  0  0  0  0  0  0  0
   26.0157  -20.0757  -13.8226 C   0  0  0  0  0  0  0  0  0  0  0  0
   25.9229  -18.8165  -13.6172 O   0  0  0  0  0  0  0  0  0  0  0  0
   22.7776  -21.8929  -13.5882 C   0  0  0  0  0  0  0  0  0  0  0  0
   21.8500  -22.0793  -14.6201 C   0  0  0  0  0  0  0  0  0  0  0  0
   26.4184  -20.5105  -15.0846 N   0  0  0  0  0  0  0  0  0  0  0  0
   26.3571  -21.8210  -15.7322 C   0  0  0  0  0  0  0  0  0  0  0  0
   27.5059  -21.8435  -16.7192 C   0  0  0  0  0  0  0  0  0  0  0  0
   28.2034  -20.5272  -16.4923 C   0  0  0  0  0  0  0  0  0  0  0  0
   27.0536  -19.6347  -16.0838 C   0  0  1  0  0  0  0  0  0  0  0  0
   26.0698  -19.4087  -17.1505 C   0  0  0  0  0  0  0  0  0  0  0  0
   24.7705  -19.8905  -17.1694 O   0  0  0  0  0  0  0  0  0  0  0  0
   26.4319  -18.7105  -18.1490 O   0  0  0  0  0  0  0  0  0  0  0  0
  2  1  1  1
  3  2  1  0
  4  5  2  0
  4  3  1  0
  6  5  1  0
  7 12  2  0
  7  6  1  0
  8  7  1  0
  9 10  1  0
  9  8  2  0
 10 11  2  0
 11 12  1  0
 12  4  1  0
 13 14  2  0
 13  2  1  0
 16 17  2  0
 16 15  1  0
 18 17  1  0
 19 18  2  0
 20 19  1  0
 21 20  1  1
 21 22  1  0
 22 13  1  0
 23 24  2  0
 23 21  1  0
 25 19  1  0
 25 26  2  0
 26 16  1  0
 27 23  1  0
 28 29  1  0
 28 27  1  0
 30 31  1  0
 30 29  1  0
 31 27  1  0
 31 32  1  6
 32 33  1  0
 34 32  2  0
M  END
$$$$
