WYP.pdb
     RDKit          3D

 34 37  0  0  1  0  0  0  0  0999 V2000
   28.1236  -20.2288   -9.5066 N   0  0  0  0  0  0  0  0  0  0  0  0
   26.8907  -20.9636   -9.6510 C   0  0  1  0  0  0  0  0  0  0  0  0
   26.0604  -20.8154   -8.3960 C   0  0  0  0  0  0  0  0  0  0  0  0
   26.8340  -20.0398   -7.3970 C   0  0  0  0  0  0  0  0  0  0  0  0
   26.6648  -18.7182   -7.0175 C   0  0  0  0  0  0  0  0  0  0  0  0
   27.5784  -18.4102   -6.0815 N   0  0  0  0  0  0  0  0  0  0  0  0
   28.3544  -19.4717   -5.8173 C   0  0  0  0  0  0  0  0  0  0  0  0
   29.4139  -19.6573   -4.9494 C   0  0  0  0  0  0  0  0  0  0  0  0
   30.0127  -20.9003   -4.9154 C   0  0  0  0  0  0  0  0  0  0  0  0
   29.5565  -21.9252   -5.7322 C   0  0  0  0  0  0  0  0  0  0  0  0
   28.5087  -21.7356   -6.5880 C   0  0  0  0  0  0  0  0  0  0  0  0
   27.8976  -20.4937   -6.6334 C   0  0  0  0  0  0  0  0  0  0  0  0
   26.1312  -20.5304  -10.8530 C   0  0  0  0  0  0  0  0  0  0  0  0
   25.7155  -19.3522  -10.9850 O   0  0  0  0  0  0  0  0  0  0  0  0
   29.1527  -17.0273  -15.8930 O   0  0  0  0  0  0  0  0  0  0  0  0
   28.3461  -18.0933  -15.5104 C   0  0  0  0  0  0  0  0  0  0  0  0
   26.9703  -18.0071  -15.5750 C   0  0  0  0  0  0  0  0  0  0  0  0
   26.1598  -19.0806  -15.1897 C   0  0  0  0  0  0  0  0  0  0  0  0
   26.7243  -20.2395  -14.7400 C   0  0  0  0  0  0  0  0  0  0  0  0
   25.9209  -21.4127  -14.3163 C   0  0  0  0  0  0  0  0  0  0  0  0
   25.0784  -21.0717  -13.0821 C   0  0  2  0  0  0  0  0  0  0  0  0
   25.8538  -21.4445  -11.8909 N   0  0  0  0  0  0  0  0  0  0  0  0
   23.8595  -21.9159  -13.1664 C   0  0  0  0  0  0  0  0  0  0  0  0
   23.9497  -23.0868  -12.6592 O   0  0  0  0  0  0  0  0  0  0  0  0
   28.0942  -20.3260  -14.6753 C   0  0  0  0  0  0  0  0  0  0  0  0
   28.9109  -19.2556  -15.0593 C   0  0  0  0  0  0  0  0  0  0  0  0
   22.6475  -21.5380  -13.7427 N   0  0  0  0  0  0  0  0  0  0  0  0
   22.2533  -20.3482  -14.4975 C   0  0  0  0  0  0  0  0  0  0  0  0
   20.7694  -20.1774  -14.2458 C   0  0  0  0  0  0  0  0  0  0  0  0
   20.4393  -21.2771  -13.2700 C   0  0  0  0  0  0  0  0  0  0  0  0
   21.4227  -22.3526  -13.6721 C   0  0  1  0  0  0  0  0  0  0  0  0
   21.1876  -22.8997  -15.0145 C   0  0  0  0  0  0  0  0  0  0  0  0
   20.2403  -23.8558  -15.3451 O   0  0  0  0  0  0  0  0  0  0  0  0
   21.9114  -22.4642  -15.9643 O   0  0  0  0  0  0  0  0  0  0  0  0
  2  1  1  1
  3  2  1  0
  4  5  2  0
  4  3  1  0
  6  5  1  0
  7 12  2  0
  7  6  1  0
  8  7  1  0
  9 10  1  0
  9  8  2  0
 10 11  2  0
 11 12  1  0
 12  4  1  0
 13 14  2  0
 13  2  1  0
 16 17  2  0
 16 15  1  0
 18 17  1  0
 19 18  2  0
 20 19  1  0
 21 20  1  6
 21 22  1  0
 22 13  1  0
 23 24  2  0
 23 21  1  0
 25 19  1  0
 25 26  2  0
 26 16  1  0
 27 23  1  0
 28 29  1  0
 28 27  1  0
 30 31  1  0
 30 29  1  0
 31 27  1  0
 31 32  1  6
 32 33  1  0
 34 32  2  0
M  END
$$$$
