WYP.pdb
     RDKit          3D

 34 37  0  0  1  0  0  0  0  0999 V2000
   19.4115  -20.0509  -14.5674 N   0  0  0  0  0  0  0  0  0  0  0  0
   20.3267  -19.5001  -15.5367 C   0  0  1  0  0  0  0  0  0  0  0  0
   19.7268  -18.2567  -16.1535 C   0  0  0  0  0  0  0  0  0  0  0  0
   18.5627  -18.6466  -16.9847 C   0  0  0  0  0  0  0  0  0  0  0  0
   17.2317  -18.7357  -16.6105 C   0  0  0  0  0  0  0  0  0  0  0  0
   16.5033  -19.1250  -17.6705 N   0  0  0  0  0  0  0  0  0  0  0  0
   17.2915  -19.3010  -18.7413 C   0  0  0  0  0  0  0  0  0  0  0  0
   17.0238  -19.6889  -20.0405 C   0  0  0  0  0  0  0  0  0  0  0  0
   18.0826  -19.7751  -20.9215 C   0  0  0  0  0  0  0  0  0  0  0  0
   19.3727  -19.4789  -20.5046 C   0  0  0  0  0  0  0  0  0  0  0  0
   19.6309  -19.0960  -19.2189 C   0  0  0  0  0  0  0  0  0  0  0  0
   18.5786  -19.0049  -18.3233 C   0  0  0  0  0  0  0  0  0  0  0  0
   21.6562  -19.2151  -14.9362 C   0  0  0  0  0  0  0  0  0  0  0  0
   21.9576  -18.0742  -14.5051 O   0  0  0  0  0  0  0  0  0  0  0  0
   22.5507  -26.1651  -14.1114 O   0  0  0  0  0  0  0  0  0  0  0  0
   22.9872  -24.8654  -13.8800 C   0  0  0  0  0  0  0  0  0  0  0  0
   24.3141  -24.5192  -14.0356 C   0  0  0  0  0  0  0  0  0  0  0  0
   24.7519  -23.2109  -13.8025 C   0  0  0  0  0  0  0  0  0  0  0  0
   23.8640  -22.2492  -13.4140 C   0  0  0  0  0  0  0  0  0  0  0  0
   24.2648  -20.8452  -13.1508 C   0  0  0  0  0  0  0  0  0  0  0  0
   23.9998  -19.9694  -14.3804 C   0  0  2  0  0  0  0  0  0  0  0  0
   22.6272  -20.2333  -14.8335 N   0  0  0  0  0  0  0  0  0  0  0  0
   24.9613  -20.4144  -15.4210 C   0  0  0  0  0  0  0  0  0  0  0  0
   24.4620  -21.0451  -16.4157 O   0  0  0  0  0  0  0  0  0  0  0  0
   22.5427  -22.5933  -13.2589 C   0  0  0  0  0  0  0  0  0  0  0  0
   22.0980  -23.9005  -13.4905 C   0  0  0  0  0  0  0  0  0  0  0  0
   26.3389  -20.2008  -15.3994 N   0  0  0  0  0  0  0  0  0  0  0  0
   27.2389  -19.7349  -14.3441 C   0  0  0  0  0  0  0  0  0  0  0  0
   28.3931  -19.0625  -15.0585 C   0  0  0  0  0  0  0  0  0  0  0  0
   28.0073  -19.1318  -16.5135 C   0  0  0  0  0  0  0  0  0  0  0  0
   27.2156  -20.4187  -16.5624 C   0  0  1  0  0  0  0  0  0  0  0  0
   28.0155  -21.6184  -16.2839 C   0  0  0  0  0  0  0  0  0  0  0  0
   28.9539  -22.1817  -17.1341 O   0  0  0  0  0  0  0  0  0  0  0  0
   27.8396  -22.1987  -15.1667 O   0  0  0  0  0  0  0  0  0  0  0  0
  2  1  1  1
  3  2  1  0
  4  5  2  0
  4  3  1  0
  6  5  1  0
  7 12  2  0
  7  6  1  0
  8  7  1  0
  9 10  1  0
  9  8  2  0
 10 11  2  0
 11 12  1  0
 12  4  1  0
 13 14  2  0
 13  2  1  0
 16 17  2  0
 16 15  1  0
 18 17  1  0
 19 18  2  0
 20 19  1  0
 21 20  1  1
 21 22  1  0
 22 13  1  0
 23 24  2  0
 23 21  1  0
 25 19  1  0
 25 26  2  0
 26 16  1  0
 27 23  1  0
 28 29  1  0
 28 27  1  0
 30 31  1  0
 30 29  1  0
 31 27  1  0
 31 32  1  1
 32 33  1  0
 34 32  2  0
M  END
$$$$
