WYP.pdb
     RDKit          3D

 34 37  0  0  1  0  0  0  0  0999 V2000
   16.6436  -13.0245  -16.6466 N   0  0  0  0  0  0  0  0  0  0  0  0
   16.8311  -11.5968  -16.7316 C   0  0  1  0  0  0  0  0  0  0  0  0
   15.6254  -10.8902  -16.1542 C   0  0  0  0  0  0  0  0  0  0  0  0
   14.4903  -11.0282  -17.0979 C   0  0  0  0  0  0  0  0  0  0  0  0
   13.4919  -11.9887  -17.1057 C   0  0  0  0  0  0  0  0  0  0  0  0
   12.6596  -11.7478  -18.1328 N   0  0  0  0  0  0  0  0  0  0  0  0
   13.0588  -10.6643  -18.8150 C   0  0  0  0  0  0  0  0  0  0  0  0
   12.5473  -10.0244  -19.9280 C   0  0  0  0  0  0  0  0  0  0  0  0
   13.2097   -8.9066  -20.3936 C   0  0  0  0  0  0  0  0  0  0  0  0
   14.3536   -8.4482  -19.7556 C   0  0  0  0  0  0  0  0  0  0  0  0
   14.8544   -9.0852  -18.6557 C   0  0  0  0  0  0  0  0  0  0  0  0
   14.2007  -10.2081  -18.1768 C   0  0  0  0  0  0  0  0  0  0  0  0
   18.0824  -11.1663  -16.0546 C   0  0  0  0  0  0  0  0  0  0  0  0
   18.4347  -11.6442  -14.9474 O   0  0  0  0  0  0  0  0  0  0  0  0
   20.4710   -9.0402  -22.2738 O   0  0  0  0  0  0  0  0  0  0  0  0
   20.6737   -9.2663  -20.9169 C   0  0  0  0  0  0  0  0  0  0  0  0
   20.3239  -10.4668  -20.3328 C   0  0  0  0  0  0  0  0  0  0  0  0
   20.5284  -10.6929  -18.9672 C   0  0  0  0  0  0  0  0  0  0  0  0
   21.0823   -9.7197  -18.1861 C   0  0  0  0  0  0  0  0  0  0  0  0
   21.3244   -9.8970  -16.7331 C   0  0  0  0  0  0  0  0  0  0  0  0
   20.0525   -9.5933  -15.9336 C   0  0  2  0  0  0  0  0  0  0  0  0
   18.9180  -10.1963  -16.6467 N   0  0  0  0  0  0  0  0  0  0  0  0
   19.9086   -8.1153  -15.9296 C   0  0  0  0  0  0  0  0  0  0  0  0
   18.9835   -7.6379  -16.6731 O   0  0  0  0  0  0  0  0  0  0  0  0
   21.4308   -8.5242  -18.7671 C   0  0  0  0  0  0  0  0  0  0  0  0
   21.2288   -8.2915  -20.1328 C   0  0  0  0  0  0  0  0  0  0  0  0
   20.6873   -7.2249  -15.1914 N   0  0  0  0  0  0  0  0  0  0  0  0
   21.8132   -7.4344  -14.2809 C   0  0  0  0  0  0  0  0  0  0  0  0
   21.7707   -6.2766  -13.3050 C   0  0  0  0  0  0  0  0  0  0  0  0
   20.5334   -5.5139  -13.7027 C   0  0  0  0  0  0  0  0  0  0  0  0
   20.4797   -5.7670  -15.1921 C   0  0  1  0  0  0  0  0  0  0  0  0
   21.5965   -5.1702  -15.9360 C   0  0  0  0  0  0  0  0  0  0  0  0
   22.6634   -5.8614  -16.4879 O   0  0  0  0  0  0  0  0  0  0  0  0
   21.5935   -3.9089  -16.0936 O   0  0  0  0  0  0  0  0  0  0  0  0
  2  1  1  1
  3  2  1  0
  4  5  2  0
  4  3  1  0
  6  5  1  0
  7 12  2  0
  7  6  1  0
  8  7  1  0
  9 10  1  0
  9  8  2  0
 10 11  2  0
 11 12  1  0
 12  4  1  0
 13 14  2  0
 13  2  1  0
 16 17  2  0
 16 15  1  0
 18 17  1  0
 19 18  2  0
 20 19  1  0
 21 20  1  6
 21 22  1  0
 22 13  1  0
 23 24  2  0
 23 21  1  0
 25 19  1  0
 25 26  2  0
 26 16  1  0
 27 23  1  0
 28 29  1  0
 28 27  1  0
 30 31  1  0
 30 29  1  0
 31 27  1  0
 31 32  1  6
 32 33  1  0
 34 32  2  0
M  END
$$$$
