WYP.pdb
     RDKit          3D

 34 37  0  0  1  0  0  0  0  0999 V2000
   25.2769  -35.2253  -13.2640 N   0  0  0  0  0  0  0  0  0  0  0  0
   23.9172  -35.3279  -12.7936 C   0  0  1  0  0  0  0  0  0  0  0  0
   23.3038  -36.6183  -13.2885 C   0  0  0  0  0  0  0  0  0  0  0  0
   23.0096  -36.4863  -14.7356 C   0  0  0  0  0  0  0  0  0  0  0  0
   23.8965  -36.5253  -15.7992 C   0  0  0  0  0  0  0  0  0  0  0  0
   23.2139  -36.3652  -16.9456 N   0  0  0  0  0  0  0  0  0  0  0  0
   21.9044  -36.2203  -16.6946 C   0  0  0  0  0  0  0  0  0  0  0  0
   20.8134  -36.0310  -17.5216 C   0  0  0  0  0  0  0  0  0  0  0  0
   19.5691  -35.9163  -16.9357 C   0  0  0  0  0  0  0  0  0  0  0  0
   19.4295  -35.9902  -15.5570 C   0  0  0  0  0  0  0  0  0  0  0  0
   20.5118  -36.1774  -14.7447 C   0  0  0  0  0  0  0  0  0  0  0  0
   21.7669  -36.2943  -15.3181 C   0  0  0  0  0  0  0  0  0  0  0  0
   23.8399  -35.2286  -11.3126 C   0  0  0  0  0  0  0  0  0  0  0  0
   24.8700  -35.2356  -10.5934 O   0  0  0  0  0  0  0  0  0  0  0  0
   23.7996  -28.8809   -9.3930 O   0  0  0  0  0  0  0  0  0  0  0  0
   23.2124  -30.1355   -9.2728 C   0  0  0  0  0  0  0  0  0  0  0  0
   22.2959  -30.5870  -10.2006 C   0  0  0  0  0  0  0  0  0  0  0  0
   21.7059  -31.8498  -10.0784 C   0  0  0  0  0  0  0  0  0  0  0  0
   22.0317  -32.6607   -9.0294 C   0  0  0  0  0  0  0  0  0  0  0  0
   21.4414  -34.0091   -8.8430 C   0  0  0  0  0  0  0  0  0  0  0  0
   22.4583  -35.0974   -9.2043 C   0  0  2  0  0  0  0  0  0  0  0  0
   22.5898  -35.1226  -10.6676 N   0  0  0  0  0  0  0  0  0  0  0  0
   21.8764  -36.3806   -8.7352 C   0  0  0  0  0  0  0  0  0  0  0  0
   21.3715  -37.1330   -9.6381 O   0  0  0  0  0  0  0  0  0  0  0  0
   22.9442  -32.2117   -8.1052 C   0  0  0  0  0  0  0  0  0  0  0  0
   23.5383  -30.9493   -8.2216 C   0  0  0  0  0  0  0  0  0  0  0  0
   21.8397  -36.8210   -7.4128 N   0  0  0  0  0  0  0  0  0  0  0  0
   22.1869  -36.1620   -6.1535 C   0  0  0  0  0  0  0  0  0  0  0  0
   22.6055  -37.2729   -5.2126 C   0  0  0  0  0  0  0  0  0  0  0  0
   22.5363  -38.5137   -6.0648 C   0  0  0  0  0  0  0  0  0  0  0  0
   21.4117  -38.1731   -7.0159 C   0  0  1  0  0  0  0  0  0  0  0  0
   20.1028  -38.0397   -6.3636 C   0  0  0  0  0  0  0  0  0  0  0  0
   19.2311  -39.0783   -6.0767 O   0  0  0  0  0  0  0  0  0  0  0  0
   19.7268  -36.8727   -6.0281 O   0  0  0  0  0  0  0  0  0  0  0  0
  2  1  1  1
  3  2  1  0
  4  5  2  0
  4  3  1  0
  6  5  1  0
  7 12  2  0
  7  6  1  0
  8  7  1  0
  9 10  1  0
  9  8  2  0
 10 11  2  0
 11 12  1  0
 12  4  1  0
 13 14  2  0
 13  2  1  0
 16 17  2  0
 16 15  1  0
 18 17  1  0
 19 18  2  0
 20 19  1  0
 21 20  1  6
 21 22  1  0
 22 13  1  0
 23 24  2  0
 23 21  1  0
 25 19  1  0
 25 26  2  0
 26 16  1  0
 27 23  1  0
 28 29  1  0
 28 27  1  0
 30 31  1  0
 30 29  1  0
 31 27  1  0
 31 32  1  1
 32 33  1  0
 34 32  2  0
M  END
$$$$
