WYP.pdb
     RDKit          3D

 34 37  0  0  1  0  0  0  0  0999 V2000
   28.6577  -21.0346  -17.4584 N   0  0  0  0  0  0  0  0  0  0  0  0
   27.8269  -20.2848  -16.5483 C   0  0  1  0  0  0  0  0  0  0  0  0
   26.5529  -19.8683  -17.2483 C   0  0  0  0  0  0  0  0  0  0  0  0
   26.8654  -18.7830  -18.2088 C   0  0  0  0  0  0  0  0  0  0  0  0
   26.7738  -18.8068  -19.5910 C   0  0  0  0  0  0  0  0  0  0  0  0
   27.1523  -17.6122  -20.0762 N   0  0  0  0  0  0  0  0  0  0  0  0
   27.4945  -16.7873  -19.0756 C   0  0  0  0  0  0  0  0  0  0  0  0
   27.9417  -15.4797  -19.0588 C   0  0  0  0  0  0  0  0  0  0  0  0
   28.2123  -14.9039  -17.8341 C   0  0  0  0  0  0  0  0  0  0  0  0
   28.0370  -15.6252  -16.6616 C   0  0  0  0  0  0  0  0  0  0  0  0
   27.5945  -16.9174  -16.6848 C   0  0  0  0  0  0  0  0  0  0  0  0
   27.3188  -17.5089  -17.9062 C   0  0  0  0  0  0  0  0  0  0  0  0
   27.5340  -21.0549  -15.3113 C   0  0  0  0  0  0  0  0  0  0  0  0
   27.1610  -22.2540  -15.3500 O   0  0  0  0  0  0  0  0  0  0  0  0
   24.5662  -21.4792   -6.9376 O   0  0  0  0  0  0  0  0  0  0  0  0
   25.2263  -21.1253   -8.1091 C   0  0  0  0  0  0  0  0  0  0  0  0
   24.5499  -21.0260   -9.3080 C   0  0  0  0  0  0  0  0  0  0  0  0
   25.2154  -20.6698  -10.4861 C   0  0  0  0  0  0  0  0  0  0  0  0
   26.5562  -20.4130  -10.4658 C   0  0  0  0  0  0  0  0  0  0  0  0
   27.3194  -20.0316  -11.6797 C   0  0  0  0  0  0  0  0  0  0  0  0
   26.8648  -20.8616  -12.8853 C   0  0  2  0  0  0  0  0  0  0  0  0
   27.6694  -20.4502  -14.0440 N   0  0  0  0  0  0  0  0  0  0  0  0
   25.4411  -20.5091  -13.1180 C   0  0  0  0  0  0  0  0  0  0  0  0
   25.2078  -19.2929  -13.4389 O   0  0  0  0  0  0  0  0  0  0  0  0
   27.2303  -20.5118   -9.2724 C   0  0  0  0  0  0  0  0  0  0  0  0
   26.5704  -20.8677   -8.0901 C   0  0  0  0  0  0  0  0  0  0  0  0
   24.3603  -21.3840  -13.0175 N   0  0  0  0  0  0  0  0  0  0  0  0
   24.2765  -22.7934  -12.6335 C   0  0  0  0  0  0  0  0  0  0  0  0
   23.0645  -23.3429  -13.3572 C   0  0  0  0  0  0  0  0  0  0  0  0
   22.5818  -22.1816  -14.1874 C   0  0  0  0  0  0  0  0  0  0  0  0
   22.9717  -21.0024  -13.3255 C   0  0  1  0  0  0  0  0  0  0  0  0
   22.2473  -20.9346  -12.0498 C   0  0  0  0  0  0  0  0  0  0  0  0
   22.7574  -21.2830  -10.8092 O   0  0  0  0  0  0  0  0  0  0  0  0
   21.0458  -20.5206  -12.0747 O   0  0  0  0  0  0  0  0  0  0  0  0
  2  1  1  6
  3  2  1  0
  4  5  2  0
  4  3  1  0
  6  5  1  0
  7 12  2  0
  7  6  1  0
  8  7  1  0
  9 10  1  0
  9  8  2  0
 10 11  2  0
 11 12  1  0
 12  4  1  0
 13 14  2  0
 13  2  1  0
 16 17  2  0
 16 15  1  0
 18 17  1  0
 19 18  2  0
 20 19  1  0
 21 20  1  1
 21 22  1  0
 22 13  1  0
 23 24  2  0
 23 21  1  0
 25 19  1  0
 25 26  2  0
 26 16  1  0
 27 23  1  0
 28 29  1  0
 28 27  1  0
 30 31  1  0
 30 29  1  0
 31 27  1  0
 31 32  1  1
 32 33  1  0
 34 32  2  0
M  END
$$$$
