WYP.pdb
     RDKit          3D

 34 37  0  0  1  0  0  0  0  0999 V2000
   24.5750  -20.8168  -10.8544 N   0  0  0  0  0  0  0  0  0  0  0  0
   25.9413  -20.7007  -11.3019 C   0  0  1  0  0  0  0  0  0  0  0  0
   26.8438  -21.5068  -10.3952 C   0  0  0  0  0  0  0  0  0  0  0  0
   26.7932  -20.9295   -9.0306 C   0  0  0  0  0  0  0  0  0  0  0  0
   25.6817  -20.5200   -8.3121 C   0  0  0  0  0  0  0  0  0  0  0  0
   26.0795  -20.0566   -7.1151 N   0  0  0  0  0  0  0  0  0  0  0  0
   27.4133  -20.1385   -7.0009 C   0  0  0  0  0  0  0  0  0  0  0  0
   28.2831  -19.7963   -5.9829 C   0  0  0  0  0  0  0  0  0  0  0  0
   29.6315  -20.0118   -6.1838 C   0  0  0  0  0  0  0  0  0  0  0  0
   30.0887  -20.5561   -7.3756 C   0  0  0  0  0  0  0  0  0  0  0  0
   29.2238  -20.8924   -8.3782 C   0  0  0  0  0  0  0  0  0  0  0  0
   27.8678  -20.6820   -8.1914 C   0  0  0  0  0  0  0  0  0  0  0  0
   26.0916  -21.1185  -12.7204 C   0  0  0  0  0  0  0  0  0  0  0  0
   25.8739  -22.2995  -13.0898 O   0  0  0  0  0  0  0  0  0  0  0  0
   20.5933  -22.9395  -13.3835 O   0  0  0  0  0  0  0  0  0  0  0  0
   21.6161  -22.1206  -13.8487 C   0  0  0  0  0  0  0  0  0  0  0  0
   21.9432  -20.9476  -13.1993 C   0  0  0  0  0  0  0  0  0  0  0  0
   22.9728  -20.1245  -13.6685 C   0  0  0  0  0  0  0  0  0  0  0  0
   23.6750  -20.4737  -14.7861 C   0  0  0  0  0  0  0  0  0  0  0  0
   24.7766  -19.6446  -15.3343 C   0  0  0  0  0  0  0  0  0  0  0  0
   26.1285  -20.3338  -15.1190 C   0  0  2  0  0  0  0  0  0  0  0  0
   26.4882  -20.1863  -13.7019 N   0  0  0  0  0  0  0  0  0  0  0  0
   27.1071  -19.5983  -15.9597 C   0  0  0  0  0  0  0  0  0  0  0  0
   27.4289  -18.4282  -15.5554 O   0  0  0  0  0  0  0  0  0  0  0  0
   23.3498  -21.6416  -15.4332 C   0  0  0  0  0  0  0  0  0  0  0  0
   22.3208  -22.4696  -14.9689 C   0  0  0  0  0  0  0  0  0  0  0  0
   27.6922  -20.0756  -17.1318 N   0  0  0  0  0  0  0  0  0  0  0  0
   27.5004  -21.3151  -17.8851 C   0  0  0  0  0  0  0  0  0  0  0  0
   28.8167  -21.5740  -18.5883 C   0  0  0  0  0  0  0  0  0  0  0  0
   29.7116  -20.4640  -18.1007 C   0  0  0  0  0  0  0  0  0  0  0  0
   28.7222  -19.3414  -17.8858 C   0  0  1  0  0  0  0  0  0  0  0  0
   28.0936  -18.8596  -19.1225 C   0  0  0  0  0  0  0  0  0  0  0  0
   26.7716  -19.0563  -19.4891 O   0  0  0  0  0  0  0  0  0  0  0  0
   28.8173  -18.2026  -19.9352 O   0  0  0  0  0  0  0  0  0  0  0  0
  2  1  1  1
  3  2  1  0
  4  5  2  0
  4  3  1  0
  6  5  1  0
  7 12  2  0
  7  6  1  0
  8  7  1  0
  9 10  1  0
  9  8  2  0
 10 11  2  0
 11 12  1  0
 12  4  1  0
 13 14  2  0
 13  2  1  0
 16 17  2  0
 16 15  1  0
 18 17  1  0
 19 18  2  0
 20 19  1  0
 21 20  1  1
 21 22  1  0
 22 13  1  0
 23 24  2  0
 23 21  1  0
 25 19  1  0
 25 26  2  0
 26 16  1  0
 27 23  1  0
 28 29  1  0
 28 27  1  0
 30 31  1  0
 30 29  1  0
 31 27  1  0
 31 32  1  6
 32 33  1  0
 34 32  2  0
M  END
$$$$
