WYP.pdb
     RDKit          3D

 34 37  0  0  1  0  0  0  0  0999 V2000
   28.7878  -21.8507  -19.1412 N   0  0  0  0  0  0  0  0  0  0  0  0
   28.0225  -20.8101  -18.4993 C   0  0  1  0  0  0  0  0  0  0  0  0
   26.9238  -20.3412  -19.4264 C   0  0  0  0  0  0  0  0  0  0  0  0
   27.5322  -19.5914  -20.5515 C   0  0  0  0  0  0  0  0  0  0  0  0
   27.9117  -18.2595  -20.5902 C   0  0  0  0  0  0  0  0  0  0  0  0
   28.4212  -17.9838  -21.8027 N   0  0  0  0  0  0  0  0  0  0  0  0
   28.3991  -19.0767  -22.5796 C   0  0  0  0  0  0  0  0  0  0  0  0
   28.8034  -19.3014  -23.8820 C   0  0  0  0  0  0  0  0  0  0  0  0
   28.6407  -20.5700  -24.4006 C   0  0  0  0  0  0  0  0  0  0  0  0
   28.0867  -21.5815  -23.6288 C   0  0  0  0  0  0  0  0  0  0  0  0
   27.6890  -21.3532  -22.3420 C   0  0  0  0  0  0  0  0  0  0  0  0
   27.8459  -20.0853  -21.8076 C   0  0  0  0  0  0  0  0  0  0  0  0
   27.4701  -21.2602  -17.1949 C   0  0  0  0  0  0  0  0  0  0  0  0
   26.8569  -22.3502  -17.0757 O   0  0  0  0  0  0  0  0  0  0  0  0
   25.2615  -20.8274   -8.6174 O   0  0  0  0  0  0  0  0  0  0  0  0
   25.8673  -20.6294   -9.8532 C   0  0  0  0  0  0  0  0  0  0  0  0
   26.8517  -21.4815  -10.3107 C   0  0  0  0  0  0  0  0  0  0  0  0
   27.4605  -21.2811  -11.5545 C   0  0  0  0  0  0  0  0  0  0  0  0
   27.0854  -20.2295  -12.3404 C   0  0  0  0  0  0  0  0  0  0  0  0
   27.6921  -19.9623  -13.6677 C   0  0  0  0  0  0  0  0  0  0  0  0
   27.0373  -20.8339  -14.7451 C   0  0  2  0  0  0  0  0  0  0  0  0
   27.6227  -20.4633  -16.0409 N   0  0  0  0  0  0  0  0  0  0  0  0
   25.5928  -20.4894  -14.7352 C   0  0  0  0  0  0  0  0  0  0  0  0
   25.2647  -19.4215  -15.3585 O   0  0  0  0  0  0  0  0  0  0  0  0
   26.1053  -19.3807  -11.8853 C   0  0  0  0  0  0  0  0  0  0  0  0
   25.4921  -19.5756  -10.6419 C   0  0  0  0  0  0  0  0  0  0  0  0
   24.5858  -21.2260  -14.1130 N   0  0  0  0  0  0  0  0  0  0  0  0
   24.6327  -22.3713  -13.2037 C   0  0  0  0  0  0  0  0  0  0  0  0
   23.3390  -23.1261  -13.4298 C   0  0  0  0  0  0  0  0  0  0  0  0
   22.6682  -22.3677  -14.5458 C   0  0  0  0  0  0  0  0  0  0  0  0
   23.1492  -20.9569  -14.2934 C   0  0  1  0  0  0  0  0  0  0  0  0
   22.6554  -20.3774  -13.0376 C   0  0  0  0  0  0  0  0  0  0  0  0
   21.4080  -19.8051  -12.8450 O   0  0  0  0  0  0  0  0  0  0  0  0
   23.4330  -20.3978  -12.0323 O   0  0  0  0  0  0  0  0  0  0  0  0
  2  1  1  6
  3  2  1  0
  4  5  2  0
  4  3  1  0
  6  5  1  0
  7 12  2  0
  7  6  1  0
  8  7  1  0
  9 10  1  0
  9  8  2  0
 10 11  2  0
 11 12  1  0
 12  4  1  0
 13 14  2  0
 13  2  1  0
 16 17  2  0
 16 15  1  0
 18 17  1  0
 19 18  2  0
 20 19  1  0
 21 20  1  1
 21 22  1  0
 22 13  1  0
 23 24  2  0
 23 21  1  0
 25 19  1  0
 25 26  2  0
 26 16  1  0
 27 23  1  0
 28 29  1  0
 28 27  1  0
 30 31  1  0
 30 29  1  0
 31 27  1  0
 31 32  1  1
 32 33  1  0
 34 32  2  0
M  END
$$$$
