WYP.pdb
     RDKit          3D

 34 37  0  0  1  0  0  0  0  0999 V2000
   20.0368  -19.6028  -14.4319 N   0  0  0  0  0  0  0  0  0  0  0  0
   21.1778  -20.4664  -14.6139 C   0  0  1  0  0  0  0  0  0  0  0  0
   21.5823  -20.4745  -16.0709 C   0  0  0  0  0  0  0  0  0  0  0  0
   20.4875  -21.0750  -16.8700 C   0  0  0  0  0  0  0  0  0  0  0  0
   19.7023  -20.4731  -17.8398 C   0  0  0  0  0  0  0  0  0  0  0  0
   18.8271  -21.3742  -18.3170 N   0  0  0  0  0  0  0  0  0  0  0  0
   18.9929  -22.5569  -17.7068 C   0  0  0  0  0  0  0  0  0  0  0  0
   18.3509  -23.7731  -17.8437 C   0  0  0  0  0  0  0  0  0  0  0  0
   18.7702  -24.8196  -17.0475 C   0  0  0  0  0  0  0  0  0  0  0  0
   19.8058  -24.6446  -16.1405 C   0  0  0  0  0  0  0  0  0  0  0  0
   20.4364  -23.4399  -16.0098 C   0  0  0  0  0  0  0  0  0  0  0  0
   20.0269  -22.3803  -16.8019 C   0  0  0  0  0  0  0  0  0  0  0  0
   22.3134  -20.0664  -13.7423 C   0  0  0  0  0  0  0  0  0  0  0  0
   22.6800  -18.8691  -13.6396 O   0  0  0  0  0  0  0  0  0  0  0  0
   28.7927  -20.0504   -7.8836 O   0  0  0  0  0  0  0  0  0  0  0  0
   27.7161  -20.4395   -8.6728 C   0  0  0  0  0  0  0  0  0  0  0  0
   26.4356  -20.0039   -8.3990 C   0  0  0  0  0  0  0  0  0  0  0  0
   25.3531  -20.3962   -9.1941 C   0  0  0  0  0  0  0  0  0  0  0  0
   25.5506  -21.2234  -10.2621 C   0  0  0  0  0  0  0  0  0  0  0  0
   24.4456  -21.6758  -11.1428 C   0  0  0  0  0  0  0  0  0  0  0  0
   24.3089  -20.7488  -12.3557 C   0  0  2  0  0  0  0  0  0  0  0  0
   23.0185  -21.0350  -12.9976 N   0  0  0  0  0  0  0  0  0  0  0  0
   25.4146  -21.1089  -13.2792 C   0  0  0  0  0  0  0  0  0  0  0  0
   25.2883  -22.2189  -13.9024 O   0  0  0  0  0  0  0  0  0  0  0  0
   26.8255  -21.6576  -10.5352 C   0  0  0  0  0  0  0  0  0  0  0  0
   27.9129  -21.2688   -9.7437 C   0  0  0  0  0  0  0  0  0  0  0  0
   26.5566  -20.3452  -13.5165 N   0  0  0  0  0  0  0  0  0  0  0  0
   27.1657  -19.2415  -12.7739 C   0  0  0  0  0  0  0  0  0  0  0  0
   27.8998  -18.4104  -13.8058 C   0  0  0  0  0  0  0  0  0  0  0  0
   27.5746  -19.0865  -15.1125 C   0  0  0  0  0  0  0  0  0  0  0  0
   27.4318  -20.5299  -14.6865 C   0  0  1  0  0  0  0  0  0  0  0  0
   28.6808  -21.1322  -14.2031 C   0  0  0  0  0  0  0  0  0  0  0  0
   29.6817  -21.6691  -14.9973 O   0  0  0  0  0  0  0  0  0  0  0  0
   28.8707  -21.1690  -12.9468 O   0  0  0  0  0  0  0  0  0  0  0  0
  2  1  1  6
  3  2  1  0
  4  5  2  0
  4  3  1  0
  6  5  1  0
  7 12  2  0
  7  6  1  0
  8  7  1  0
  9 10  1  0
  9  8  2  0
 10 11  2  0
 11 12  1  0
 12  4  1  0
 13 14  2  0
 13  2  1  0
 16 17  2  0
 16 15  1  0
 18 17  1  0
 19 18  2  0
 20 19  1  0
 21 20  1  1
 21 22  1  0
 22 13  1  0
 23 24  2  0
 23 21  1  0
 25 19  1  0
 25 26  2  0
 26 16  1  0
 27 23  1  0
 28 29  1  0
 28 27  1  0
 30 31  1  0
 30 29  1  0
 31 27  1  0
 31 32  1  1
 32 33  1  0
 34 32  2  0
M  END
$$$$
