WYP.pdb
     RDKit          3D

 34 37  0  0  1  0  0  0  0  0999 V2000
   24.5431  -20.7831   -8.0028 N   0  0  0  0  0  0  0  0  0  0  0  0
   25.6967  -20.5407   -8.8342 C   0  0  1  0  0  0  0  0  0  0  0  0
   26.9178  -21.1751   -8.2074 C   0  0  0  0  0  0  0  0  0  0  0  0
   27.0138  -20.7384   -6.7938 C   0  0  0  0  0  0  0  0  0  0  0  0
   26.2411  -21.1407   -5.7165 C   0  0  0  0  0  0  0  0  0  0  0  0
   26.6609  -20.5000   -4.6123 N   0  0  0  0  0  0  0  0  0  0  0  0
   27.6841  -19.6839   -4.9049 C   0  0  0  0  0  0  0  0  0  0  0  0
   28.4445  -18.8295   -4.1290 C   0  0  0  0  0  0  0  0  0  0  0  0
   29.4479  -18.1126   -4.7488 C   0  0  0  0  0  0  0  0  0  0  0  0
   29.6773  -18.2532   -6.1102 C   0  0  0  0  0  0  0  0  0  0  0  0
   28.9223  -19.0995   -6.8717 C   0  0  0  0  0  0  0  0  0  0  0  0
   27.9118  -19.8256   -6.2640 C   0  0  0  0  0  0  0  0  0  0  0  0
   25.4867  -21.0325  -10.2210 C   0  0  0  0  0  0  0  0  0  0  0  0
   25.4175  -22.2587  -10.4858 O   0  0  0  0  0  0  0  0  0  0  0  0
   19.0628  -21.8936  -11.2339 O   0  0  0  0  0  0  0  0  0  0  0  0
   20.2589  -21.3907  -11.7334 C   0  0  0  0  0  0  0  0  0  0  0  0
   20.9658  -22.0652  -12.7080 C   0  0  0  0  0  0  0  0  0  0  0  0
   22.1693  -21.5579  -13.2099 C   0  0  0  0  0  0  0  0  0  0  0  0
   22.6660  -20.3770  -12.7377 C   0  0  0  0  0  0  0  0  0  0  0  0
   23.9358  -19.7865  -13.2278 C   0  0  0  0  0  0  0  0  0  0  0  0
   25.1384  -20.5600  -12.6758 C   0  0  2  0  0  0  0  0  0  0  0  0
   25.3580  -20.1218  -11.2906 N   0  0  0  0  0  0  0  0  0  0  0  0
   26.3018  -20.1687  -13.5116 C   0  0  0  0  0  0  0  0  0  0  0  0
   26.9676  -19.1532  -13.1092 O   0  0  0  0  0  0  0  0  0  0  0  0
   21.9626  -19.7048  -11.7672 C   0  0  0  0  0  0  0  0  0  0  0  0
   20.7578  -20.2069  -11.2609 C   0  0  0  0  0  0  0  0  0  0  0  0
   26.7177  -20.8107  -14.6772 N   0  0  0  0  0  0  0  0  0  0  0  0
   26.1403  -21.9152  -15.4436 C   0  0  0  0  0  0  0  0  0  0  0  0
   27.3096  -22.5945  -16.1262 C   0  0  0  0  0  0  0  0  0  0  0  0
   28.5123  -21.8447  -15.6145 C   0  0  0  0  0  0  0  0  0  0  0  0
   27.9469  -20.4580  -15.4076 C   0  0  1  0  0  0  0  0  0  0  0  0
   27.5369  -19.7928  -16.6510 C   0  0  0  0  0  0  0  0  0  0  0  0
   28.3829  -19.1611  -17.5487 O   0  0  0  0  0  0  0  0  0  0  0  0
   26.2987  -19.7910  -16.9388 O   0  0  0  0  0  0  0  0  0  0  0  0
  2  1  1  1
  3  2  1  0
  4  5  2  0
  4  3  1  0
  6  5  1  0
  7 12  2  0
  7  6  1  0
  8  7  1  0
  9 10  1  0
  9  8  2  0
 10 11  2  0
 11 12  1  0
 12  4  1  0
 13 14  2  0
 13  2  1  0
 16 17  2  0
 16 15  1  0
 18 17  1  0
 19 18  2  0
 20 19  1  0
 21 20  1  6
 21 22  1  0
 22 13  1  0
 23 24  2  0
 23 21  1  0
 25 19  1  0
 25 26  2  0
 26 16  1  0
 27 23  1  0
 28 29  1  0
 28 27  1  0
 30 31  1  0
 30 29  1  0
 31 27  1  0
 31 32  1  6
 32 33  1  0
 34 32  2  0
M  END
$$$$
