WYP.pdb
     RDKit          3D

 34 37  0  0  1  0  0  0  0  0999 V2000
   22.4749  -19.3838  -16.1113 N   0  0  0  0  0  0  0  0  0  0  0  0
   23.5715  -18.9147  -15.2999 C   0  0  1  0  0  0  0  0  0  0  0  0
   23.3506  -17.4638  -14.9360 C   0  0  0  0  0  0  0  0  0  0  0  0
   23.9987  -16.6081  -15.9586 C   0  0  0  0  0  0  0  0  0  0  0  0
   23.4023  -15.7166  -16.8355 C   0  0  0  0  0  0  0  0  0  0  0  0
   24.3530  -15.1458  -17.5945 N   0  0  0  0  0  0  0  0  0  0  0  0
   25.5636  -15.6179  -17.2626 C   0  0  0  0  0  0  0  0  0  0  0  0
   26.8315  -15.3484  -17.7422 C   0  0  0  0  0  0  0  0  0  0  0  0
   27.8949  -16.0192  -17.1731 C   0  0  0  0  0  0  0  0  0  0  0  0
   27.6858  -16.9345  -16.1512 C   0  0  0  0  0  0  0  0  0  0  0  0
   26.4301  -17.1966  -15.6815 C   0  0  0  0  0  0  0  0  0  0  0  0
   25.3529  -16.5312  -16.2425 C   0  0  0  0  0  0  0  0  0  0  0  0
   23.7533  -19.7524  -14.0857 C   0  0  0  0  0  0  0  0  0  0  0  0
   22.7768  -20.2526  -13.4735 O   0  0  0  0  0  0  0  0  0  0  0  0
   25.0745  -25.6029  -16.7128 O   0  0  0  0  0  0  0  0  0  0  0  0
   25.4314  -24.6579  -15.7573 C   0  0  0  0  0  0  0  0  0  0  0  0
   26.2855  -23.6185  -16.0650 C   0  0  0  0  0  0  0  0  0  0  0  0
   26.6437  -22.6682  -15.1025 C   0  0  0  0  0  0  0  0  0  0  0  0
   26.1485  -22.7568  -13.8333 C   0  0  0  0  0  0  0  0  0  0  0  0
   26.4900  -21.7823  -12.7680 C   0  0  0  0  0  0  0  0  0  0  0  0
   25.2812  -20.9001  -12.4367 C   0  0  2  0  0  0  0  0  0  0  0  0
   25.0456  -20.0108  -13.5825 N   0  0  0  0  0  0  0  0  0  0  0  0
   25.6694  -20.0930  -11.2522 C   0  0  0  0  0  0  0  0  0  0  0  0
   26.0483  -18.8941  -11.4879 O   0  0  0  0  0  0  0  0  0  0  0  0
   25.2979  -23.7916  -13.5263 C   0  0  0  0  0  0  0  0  0  0  0  0
   24.9355  -24.7457  -14.4846 C   0  0  0  0  0  0  0  0  0  0  0  0
   25.6517  -20.5313   -9.9288 N   0  0  0  0  0  0  0  0  0  0  0  0
   25.3414  -21.8317   -9.3343 C   0  0  0  0  0  0  0  0  0  0  0  0
   24.8210  -21.5318   -7.9437 C   0  0  0  0  0  0  0  0  0  0  0  0
   24.8016  -20.0263   -7.8819 C   0  0  0  0  0  0  0  0  0  0  0  0
   25.9633  -19.6651   -8.7793 C   0  0  1  0  0  0  0  0  0  0  0  0
   27.2695  -20.0886   -8.2585 C   0  0  0  0  0  0  0  0  0  0  0  0
   27.9945  -19.4440   -7.2688 O   0  0  0  0  0  0  0  0  0  0  0  0
   27.7895  -21.1382   -8.7521 O   0  0  0  0  0  0  0  0  0  0  0  0
  2  1  1  1
  3  2  1  0
  4  5  2  0
  4  3  1  0
  6  5  1  0
  7 12  2  0
  7  6  1  0
  8  7  1  0
  9 10  1  0
  9  8  2  0
 10 11  2  0
 11 12  1  0
 12  4  1  0
 13 14  2  0
 13  2  1  0
 16 17  2  0
 16 15  1  0
 18 17  1  0
 19 18  2  0
 20 19  1  0
 21 20  1  6
 21 22  1  0
 22 13  1  0
 23 24  2  0
 23 21  1  0
 25 19  1  0
 25 26  2  0
 26 16  1  0
 27 23  1  0
 28 29  1  0
 28 27  1  0
 30 31  1  0
 30 29  1  0
 31 27  1  0
 31 32  1  1
 32 33  1  0
 34 32  2  0
M  END
$$$$
