WYP.pdb
     RDKit          3D

 34 37  0  0  1  0  0  0  0  0999 V2000
   25.1102  -20.2631   -8.2962 N   0  0  0  0  0  0  0  0  0  0  0  0
   26.4198  -20.1186   -8.8835 C   0  0  1  0  0  0  0  0  0  0  0  0
   27.4674  -20.6371   -7.9243 C   0  0  0  0  0  0  0  0  0  0  0  0
   27.5512  -19.7196   -6.7627 C   0  0  0  0  0  0  0  0  0  0  0  0
   26.9792  -18.4664   -6.6153 C   0  0  0  0  0  0  0  0  0  0  0  0
   27.3039  -17.9756   -5.4072 N   0  0  0  0  0  0  0  0  0  0  0  0
   28.0707  -18.8486   -4.7376 C   0  0  0  0  0  0  0  0  0  0  0  0
   28.6485  -18.8086   -3.4827 C   0  0  0  0  0  0  0  0  0  0  0  0
   29.3975  -19.8956   -3.0800 C   0  0  0  0  0  0  0  0  0  0  0  0
   29.5589  -20.9900   -3.9178 C   0  0  0  0  0  0  0  0  0  0  0  0
   28.9852  -21.0236   -5.1571 C   0  0  0  0  0  0  0  0  0  0  0  0
   28.2307  -19.9403   -5.5753 C   0  0  0  0  0  0  0  0  0  0  0  0
   26.5096  -20.8031  -10.1998 C   0  0  0  0  0  0  0  0  0  0  0  0
   27.5556  -21.3923  -10.5701 O   0  0  0  0  0  0  0  0  0  0  0  0
   24.1082  -24.8661  -17.6205 O   0  0  0  0  0  0  0  0  0  0  0  0
   24.1169  -24.1980  -16.4011 C   0  0  0  0  0  0  0  0  0  0  0  0
   24.7835  -24.7143  -15.3086 C   0  0  0  0  0  0  0  0  0  0  0  0
   24.7915  -24.0409  -14.0821 C   0  0  0  0  0  0  0  0  0  0  0  0
   24.1334  -22.8522  -13.9478 C   0  0  0  0  0  0  0  0  0  0  0  0
   24.1035  -22.0901  -12.6752 C   0  0  0  0  0  0  0  0  0  0  0  0
   25.4623  -21.4333  -12.4081 C   0  0  2  0  0  0  0  0  0  0  0  0
   25.4066  -20.8086  -11.0792 N   0  0  0  0  0  0  0  0  0  0  0  0
   25.6258  -20.3829  -13.4450 C   0  0  0  0  0  0  0  0  0  0  0  0
   24.9174  -19.3284  -13.2945 O   0  0  0  0  0  0  0  0  0  0  0  0
   23.4694  -22.3376  -15.0353 C   0  0  0  0  0  0  0  0  0  0  0  0
   23.4576  -23.0063  -16.2653 C   0  0  0  0  0  0  0  0  0  0  0  0
   26.4763  -20.4547  -14.5475 N   0  0  0  0  0  0  0  0  0  0  0  0
   27.2610  -21.5560  -15.1061 C   0  0  0  0  0  0  0  0  0  0  0  0
   28.4444  -20.9070  -15.7938 C   0  0  0  0  0  0  0  0  0  0  0  0
   28.2762  -19.4397  -15.4951 C   0  0  0  0  0  0  0  0  0  0  0  0
   26.7718  -19.3092  -15.4245 C   0  0  1  0  0  0  0  0  0  0  0  0
   26.0941  -19.5563  -16.7038 C   0  0  0  0  0  0  0  0  0  0  0  0
   25.3608  -20.6870  -17.0268 O   0  0  0  0  0  0  0  0  0  0  0  0
   26.1814  -18.6597  -17.6007 O   0  0  0  0  0  0  0  0  0  0  0  0
  2  1  1  1
  3  2  1  0
  4  5  2  0
  4  3  1  0
  6  5  1  0
  7 12  2  0
  7  6  1  0
  8  7  1  0
  9 10  1  0
  9  8  2  0
 10 11  2  0
 11 12  1  0
 12  4  1  0
 13 14  2  0
 13  2  1  0
 16 17  2  0
 16 15  1  0
 18 17  1  0
 19 18  2  0
 20 19  1  0
 21 20  1  6
 21 22  1  0
 22 13  1  0
 23 24  2  0
 23 21  1  0
 25 19  1  0
 25 26  2  0
 26 16  1  0
 27 23  1  0
 28 29  1  0
 28 27  1  0
 30 31  1  0
 30 29  1  0
 31 27  1  0
 31 32  1  6
 32 33  1  0
 34 32  2  0
M  END
$$$$
