WYP.pdb
     RDKit          3D

 34 37  0  0  1  0  0  0  0  0999 V2000
   15.4796  -14.4549    5.3999 N   0  0  0  0  0  0  0  0  0  0  0  0
   16.5315  -15.3403    4.9636 C   0  0  1  0  0  0  0  0  0  0  0  0
   17.7547  -15.1427    5.8303 C   0  0  0  0  0  0  0  0  0  0  0  0
   18.3868  -13.8480    5.4810 C   0  0  0  0  0  0  0  0  0  0  0  0
   17.8928  -12.8440    4.6641 C   0  0  0  0  0  0  0  0  0  0  0  0
   18.7843  -11.8396    4.6157 N   0  0  0  0  0  0  0  0  0  0  0  0
   19.8568  -12.1287    5.3671 C   0  0  0  0  0  0  0  0  0  0  0  0
   21.0200  -11.4324    5.6362 C   0  0  0  0  0  0  0  0  0  0  0  0
   21.9488  -12.0213    6.4701 C   0  0  0  0  0  0  0  0  0  0  0  0
   21.7115  -13.2749    7.0160 C   0  0  0  0  0  0  0  0  0  0  0  0
   20.5598  -13.9582    6.7463 C   0  0  0  0  0  0  0  0  0  0  0  0
   19.6182  -13.3802    5.9113 C   0  0  0  0  0  0  0  0  0  0  0  0
   16.0915  -16.7600    4.9695 C   0  0  0  0  0  0  0  0  0  0  0  0
   15.4835  -17.2612    5.9481 O   0  0  0  0  0  0  0  0  0  0  0  0
   15.9370  -25.2490    2.4838 O   0  0  0  0  0  0  0  0  0  0  0  0
   16.1534  -23.8760    2.5214 C   0  0  0  0  0  0  0  0  0  0  0  0
   17.3867  -23.3563    2.8579 C   0  0  0  0  0  0  0  0  0  0  0  0
   17.6030  -21.9744    2.8954 C   0  0  0  0  0  0  0  0  0  0  0  0
   16.5870  -21.1126    2.5967 C   0  0  0  0  0  0  0  0  0  0  0  0
   16.7517  -19.6383    2.6188 C   0  0  0  0  0  0  0  0  0  0  0  0
   16.1842  -19.0518    3.9162 C   0  0  2  0  0  0  0  0  0  0  0  0
   16.3493  -17.5928    3.8605 N   0  0  0  0  0  0  0  0  0  0  0  0
   17.0125  -19.6044    5.0179 C   0  0  0  0  0  0  0  0  0  0  0  0
   18.1685  -19.0785    5.1710 O   0  0  0  0  0  0  0  0  0  0  0  0
   15.3587  -21.6296    2.2616 C   0  0  0  0  0  0  0  0  0  0  0  0
   15.1356  -23.0112    2.2222 C   0  0  0  0  0  0  0  0  0  0  0  0
   16.6348  -20.6308    5.8826 N   0  0  0  0  0  0  0  0  0  0  0  0
   15.4472  -21.4842    5.9263 C   0  0  0  0  0  0  0  0  0  0  0  0
   15.2729  -21.8682    7.3811 C   0  0  0  0  0  0  0  0  0  0  0  0
   16.3685  -21.1129    8.0882 C   0  0  0  0  0  0  0  0  0  0  0  0
   17.4470  -21.0701    7.0298 C   0  0  1  0  0  0  0  0  0  0  0  0
   17.9987  -22.3883    6.6912 C   0  0  0  0  0  0  0  0  0  0  0  0
   17.7701  -23.0841    5.5147 O   0  0  0  0  0  0  0  0  0  0  0  0
   18.7544  -22.9490    7.5458 O   0  0  0  0  0  0  0  0  0  0  0  0
  2  1  1  1
  3  2  1  0
  4  5  2  0
  4  3  1  0
  6  5  1  0
  7 12  2  0
  7  6  1  0
  8  7  1  0
  9 10  1  0
  9  8  2  0
 10 11  2  0
 11 12  1  0
 12  4  1  0
 13 14  2  0
 13  2  1  0
 16 17  2  0
 16 15  1  0
 18 17  1  0
 19 18  2  0
 20 19  1  0
 21 20  1  6
 21 22  1  0
 22 13  1  0
 23 24  2  0
 23 21  1  0
 25 19  1  0
 25 26  2  0
 26 16  1  0
 27 23  1  0
 28 29  1  0
 28 27  1  0
 30 31  1  0
 30 29  1  0
 31 27  1  0
 31 32  1  6
 32 33  1  0
 34 32  2  0
M  END
$$$$
