RML.pdb
     RDKit          3D

 28 27  0  0  1  0  0  0  0  0999 V2000
    7.5193  -15.1838   15.8748 N   0  0  0  0  0  0  0  0  0  0  0  0
    7.7746  -13.7925   15.8723 C   0  0  0  0  0  0  0  0  0  0  0  0
    7.8946  -13.1011   14.7979 N   0  0  0  0  0  0  0  0  0  0  0  0
    7.9058  -13.1228   17.1422 N   0  0  0  0  0  0  0  0  0  0  0  0
    7.5343  -13.7766   18.3654 C   0  0  0  0  0  0  0  0  0  0  0  0
    8.4175  -15.0187   18.4979 C   0  0  0  0  0  0  0  0  0  0  0  0
    9.6071  -14.7346   19.4163 C   0  0  0  0  0  0  0  0  0  0  0  0
    9.5850  -15.8213   20.4721 C   0  0  2  0  0  0  0  0  0  0  0  0
    8.3644  -16.5996   20.3955 N   0  0  0  0  0  0  0  0  0  0  0  0
    9.6398  -15.2338   21.8481 C   0  0  0  0  0  0  0  0  0  0  0  0
   10.5497  -14.4264   22.1866 O   0  0  0  0  0  0  0  0  0  0  0  0
    8.0378  -12.0830   14.8311 C   0  0  0  0  0  0  0  0  0  0  0  0
    6.0267  -11.3366   25.9959 S   0  0  0  0  0  0  0  0  0  0  0  0
    5.6224  -13.1053   26.1032 C   0  0  0  0  0  0  0  0  0  0  0  0
    7.1274  -14.0970   25.9694 C   0  0  0  0  0  0  0  0  0  0  0  0
    7.4063  -14.5344   24.5988 C   0  0  1  0  0  0  0  0  0  0  0  0
    8.7805  -14.9518   24.2059 N   0  0  0  0  0  0  0  0  0  0  0  0
    8.6725  -15.5583   22.8310 C   0  0  0  0  0  0  0  0  0  0  0  0
    9.4373  -15.9930   24.9967 O   0  0  0  0  0  0  0  0  0  0  0  0
    9.6396  -17.1753   24.5257 C   0  0  0  0  0  0  0  0  0  0  0  0
   11.2603  -15.1479   30.2885 C   0  0  2  0  0  0  0  0  0  0  0  0
   10.3945  -15.9987   29.3187 C   0  0  0  0  0  0  0  0  0  0  0  0
    9.4114  -15.0323   28.6508 C   0  0  0  0  0  0  0  0  0  0  0  0
   11.2966  -16.5739   28.2932 C   0  0  1  0  0  0  0  0  0  0  0  0
   10.6699  -16.9015   26.9627 N   0  0  0  0  0  0  0  0  0  0  0  0
    9.9371  -15.8478   26.3413 C   0  0  0  0  0  0  0  0  0  0  0  0
    9.8623  -18.1127   27.1679 O   0  0  0  0  0  0  0  0  0  0  0  0
   10.2680  -19.1766   27.6530 O   0  0  0  0  0  0  0  0  0  0  0  0
  1  2  1  0
  2  3  2  0
  4  2  1  0
  4  5  1  0
  6  5  1  0
  7  6  1  0
  8  7  1  0
  8  9  1  1
 10  8  1  0
 10 11  2  0
 12 13  1  0
 14 13  1  0
 15 14  1  0
 16 17  1  0
 16 15  1  6
 17 10  1  0
 18 16  1  0
 19 18  2  0
 21 20  1  1
 21 22  1  0
 23 21  1  0
 24 23  1  6
 24 25  1  0
 25 18  1  0
 26 24  1  0
 26 28  1  0
 27 26  2  0
M  END
$$$$
