RML.pdb
     RDKit          3D

 28 27  0  0  1  0  0  0  0  0999 V2000
    7.9038  -22.9977   22.6110 N   0  0  0  0  0  0  0  0  0  0  0  0
    6.7768  -23.5461   23.2665 C   0  0  0  0  0  0  0  0  0  0  0  0
    6.1464  -24.5783   22.8375 N   0  0  0  0  0  0  0  0  0  0  0  0
    6.3174  -22.9104   24.4762 N   0  0  0  0  0  0  0  0  0  0  0  0
    6.9153  -21.6919   24.9448 C   0  0  0  0  0  0  0  0  0  0  0  0
    6.7216  -20.6445   23.8466 C   0  0  0  0  0  0  0  0  0  0  0  0
    7.3017  -19.2980   24.2823 C   0  0  0  0  0  0  0  0  0  0  0  0
    7.0257  -18.3389   23.1422 C   0  0  2  0  0  0  0  0  0  0  0  0
    7.4876  -18.8811   21.8796 N   0  0  0  0  0  0  0  0  0  0  0  0
    7.7441  -17.0414   23.3466 C   0  0  0  0  0  0  0  0  0  0  0  0
    8.8252  -16.7828   22.7476 O   0  0  0  0  0  0  0  0  0  0  0  0
    5.2535  -24.8711   23.2563 C   0  0  0  0  0  0  0  0  0  0  0  0
    5.3952  -11.5284   26.8619 S   0  0  0  0  0  0  0  0  0  0  0  0
    6.5575  -11.1322   25.5222 C   0  0  0  0  0  0  0  0  0  0  0  0
    6.6409  -12.5014   24.3454 C   0  0  0  0  0  0  0  0  0  0  0  0
    6.9922  -13.7778   24.9741 C   0  0  2  0  0  0  0  0  0  0  0  0
    7.9377  -14.7128   24.3042 N   0  0  0  0  0  0  0  0  0  0  0  0
    7.2421  -16.0466   24.2214 C   0  0  0  0  0  0  0  0  0  0  0  0
    9.1996  -15.0179   24.9791 O   0  0  0  0  0  0  0  0  0  0  0  0
   10.2572  -14.3055   24.7927 C   0  0  0  0  0  0  0  0  0  0  0  0
    9.9085  -14.5777   30.0399 C   0  0  1  0  0  0  0  0  0  0  0  0
    9.9138  -14.6506   28.4880 C   0  0  0  0  0  0  0  0  0  0  0  0
   10.7316  -13.4514   27.9985 C   0  0  0  0  0  0  0  0  0  0  0  0
   10.5951  -15.9069   28.0964 C   0  0  2  0  0  0  0  0  0  0  0  0
   10.6568  -16.1992   26.6195 N   0  0  0  0  0  0  0  0  0  0  0  0
    9.4240  -16.0954   25.9105 C   0  0  0  0  0  0  0  0  0  0  0  0
   11.2839  -17.5216   26.4808 O   0  0  0  0  0  0  0  0  0  0  0  0
   12.4033  -17.8371   26.9042 O   0  0  0  0  0  0  0  0  0  0  0  0
  1  2  1  0
  2  3  2  0
  4  2  1  0
  4  5  1  0
  6  5  1  0
  7  6  1  0
  8  7  1  0
  8  9  1  6
 10  8  1  0
 10 11  2  0
 12 13  1  0
 14 13  1  0
 15 14  1  0
 16 17  1  0
 16 15  1  6
 17 10  1  0
 18 16  1  0
 19 18  2  0
 21 20  1  6
 21 22  1  0
 23 21  1  0
 24 23  1  6
 24 25  1  0
 25 18  1  0
 26 24  1  0
 26 28  1  0
 27 26  2  0
M  END
$$$$
