RML.pdb
     RDKit          3D

 28 27  0  0  1  0  0  0  0  0999 V2000
    8.4098  -12.8640   15.9866 N   0  0  0  0  0  0  0  0  0  0  0  0
    7.8188  -13.9322   15.2722 C   0  0  0  0  0  0  0  0  0  0  0  0
    8.0293  -14.1459   14.0244 N   0  0  0  0  0  0  0  0  0  0  0  0
    6.9370  -14.8221   15.9856 N   0  0  0  0  0  0  0  0  0  0  0  0
    6.9062  -14.8395   17.4210 C   0  0  0  0  0  0  0  0  0  0  0  0
    8.3058  -15.2342   17.8963 C   0  0  0  0  0  0  0  0  0  0  0  0
    8.6433  -14.5303   19.2115 C   0  0  0  0  0  0  0  0  0  0  0  0
    9.0467  -15.6263   20.1771 C   0  0  2  0  0  0  0  0  0  0  0  0
    8.0352  -16.6625   20.2437 N   0  0  0  0  0  0  0  0  0  0  0  0
    9.2078  -15.0868   21.5643 C   0  0  0  0  0  0  0  0  0  0  0  0
    9.9903  -14.1277   21.8141 O   0  0  0  0  0  0  0  0  0  0  0  0
    7.5427  -14.9004   13.5222 C   0  0  0  0  0  0  0  0  0  0  0  0
    5.8862  -11.5962   25.6843 S   0  0  0  0  0  0  0  0  0  0  0  0
    7.3961  -12.4706   26.1930 C   0  0  0  0  0  0  0  0  0  0  0  0
    7.1979  -14.2499   25.9458 C   0  0  0  0  0  0  0  0  0  0  0  0
    7.3666  -14.6575   24.5483 C   0  0  1  0  0  0  0  0  0  0  0  0
    8.7046  -15.0665   24.0388 N   0  0  0  0  0  0  0  0  0  0  0  0
    8.4888  -15.6290   22.6580 C   0  0  0  0  0  0  0  0  0  0  0  0
    9.4139  -16.1343   24.7444 O   0  0  0  0  0  0  0  0  0  0  0  0
    8.9135  -17.3158   24.8646 C   0  0  0  0  0  0  0  0  0  0  0  0
   11.9922  -14.9633   29.3958 C   0  0  2  0  0  0  0  0  0  0  0  0
   10.4946  -14.8674   28.9939 C   0  0  0  0  0  0  0  0  0  0  0  0
    9.9699  -13.5526   29.5792 C   0  0  0  0  0  0  0  0  0  0  0  0
   10.4257  -14.8127   27.5146 C   0  0  1  0  0  0  0  0  0  0  0  0
   10.8474  -16.0597   26.7814 N   0  0  0  0  0  0  0  0  0  0  0  0
   10.7120  -16.0254   25.3622 C   0  0  0  0  0  0  0  0  0  0  0  0
   10.1133  -17.1750   27.3967 O   0  0  0  0  0  0  0  0  0  0  0  0
    8.8838  -17.3167   27.3964 O   0  0  0  0  0  0  0  0  0  0  0  0
  1  2  1  0
  2  3  2  0
  4  2  1  0
  4  5  1  0
  6  5  1  0
  7  6  1  0
  8  7  1  0
  8  9  1  1
 10  8  1  0
 10 11  2  0
 12 13  1  0
 14 13  1  0
 15 14  1  0
 16 17  1  0
 16 15  1  6
 17 10  1  0
 18 16  1  0
 19 18  2  0
 21 20  1  1
 21 22  1  0
 23 21  1  0
 24 23  1  6
 24 25  1  0
 25 18  1  0
 26 24  1  0
 26 28  1  0
 27 26  2  0
M  END
$$$$
