RML.pdb
     RDKit          3D

 28 27  0  0  1  0  0  0  0  0999 V2000
   11.1885  -16.2173   15.4916 N   0  0  0  0  0  0  0  0  0  0  0  0
    9.8124  -15.9723   15.2739 C   0  0  0  0  0  0  0  0  0  0  0  0
    9.3595  -14.8641   14.8117 N   0  0  0  0  0  0  0  0  0  0  0  0
    8.8765  -17.0227   15.5885 N   0  0  0  0  0  0  0  0  0  0  0  0
    9.0926  -17.8955   16.7081 C   0  0  0  0  0  0  0  0  0  0  0  0
    8.9306  -17.0518   17.9740 C   0  0  0  0  0  0  0  0  0  0  0  0
   10.1410  -17.2262   18.8925 C   0  0  0  0  0  0  0  0  0  0  0  0
    9.6017  -17.8066   20.1841 C   0  0  2  0  0  0  0  0  0  0  0  0
    8.2869  -18.3850   19.9883 N   0  0  0  0  0  0  0  0  0  0  0  0
    9.4580  -16.7456   21.2304 C   0  0  0  0  0  0  0  0  0  0  0  0
    9.7805  -15.5459   21.0043 O   0  0  0  0  0  0  0  0  0  0  0  0
    8.3489  -14.7004   14.7115 C   0  0  0  0  0  0  0  0  0  0  0  0
    7.1194  -12.7224   22.7890 S   0  0  0  0  0  0  0  0  0  0  0  0
    6.8834  -13.0835   24.5544 C   0  0  0  0  0  0  0  0  0  0  0  0
    6.9020  -14.8693   24.8322 C   0  0  0  0  0  0  0  0  0  0  0  0
    7.3934  -15.6247   23.6766 C   0  0  1  0  0  0  0  0  0  0  0  0
    8.8424  -15.9407   23.5435 N   0  0  0  0  0  0  0  0  0  0  0  0
    8.9535  -17.0414   22.5208 C   0  0  0  0  0  0  0  0  0  0  0  0
    9.5409  -16.4772   24.7119 O   0  0  0  0  0  0  0  0  0  0  0  0
    9.6375  -17.7452   24.9205 C   0  0  0  0  0  0  0  0  0  0  0  0
    9.4009  -13.9045   29.6046 C   0  0  2  0  0  0  0  0  0  0  0  0
    9.8254  -14.3164   28.1680 C   0  0  0  0  0  0  0  0  0  0  0  0
   10.9880  -13.3986   27.7774 C   0  0  0  0  0  0  0  0  0  0  0  0
   10.2992  -15.7195   28.2210 C   0  0  2  0  0  0  0  0  0  0  0  0
   10.7099  -16.3342   26.9080 N   0  0  0  0  0  0  0  0  0  0  0  0
   10.1978  -15.7036   25.7360 C   0  0  0  0  0  0  0  0  0  0  0  0
   10.3605  -17.7600   26.9863 O   0  0  0  0  0  0  0  0  0  0  0  0
    9.5153  -18.3350   26.2886 O   0  0  0  0  0  0  0  0  0  0  0  0
  1  2  1  0
  2  3  2  0
  4  2  1  0
  4  5  1  0
  6  5  1  0
  7  6  1  0
  8  7  1  0
  8  9  1  6
 10  8  1  0
 10 11  2  0
 12 13  1  0
 14 13  1  0
 15 14  1  0
 16 17  1  0
 16 15  1  6
 17 10  1  0
 18 16  1  0
 19 18  2  0
 21 20  1  6
 21 22  1  0
 23 21  1  0
 24 23  1  6
 24 25  1  0
 25 18  1  0
 26 24  1  0
 26 28  1  0
 27 26  2  0
M  END
$$$$
