RML.pdb
     RDKit          3D

 28 27  0  0  1  0  0  0  0  0999 V2000
   13.1220  -18.3929   17.3007 N   0  0  0  0  0  0  0  0  0  0  0  0
   11.8106  -18.6452   17.7671 C   0  0  0  0  0  0  0  0  0  0  0  0
   11.2013  -19.7599   17.5853 N   0  0  0  0  0  0  0  0  0  0  0  0
   11.1289  -17.5947   18.4815 N   0  0  0  0  0  0  0  0  0  0  0  0
    9.7928  -17.7808   18.9735 C   0  0  0  0  0  0  0  0  0  0  0  0
    9.3643  -16.4626   19.6210 C   0  0  0  0  0  0  0  0  0  0  0  0
    7.9188  -16.5525   20.1128 C   0  0  0  0  0  0  0  0  0  0  0  0
    7.5005  -15.1317   20.4333 C   0  0  2  0  0  0  0  0  0  0  0  0
    7.9031  -14.2186   19.3818 N   0  0  0  0  0  0  0  0  0  0  0  0
    8.1482  -14.6534   21.6954 C   0  0  0  0  0  0  0  0  0  0  0  0
    9.1787  -13.9239   21.6745 O   0  0  0  0  0  0  0  0  0  0  0  0
   10.2473  -19.9111   17.9391 C   0  0  0  0  0  0  0  0  0  0  0  0
    5.2038  -10.5754   25.7012 S   0  0  0  0  0  0  0  0  0  0  0  0
    5.2785  -12.1944   26.5237 C   0  0  0  0  0  0  0  0  0  0  0  0
    6.8249  -13.0326   26.1085 C   0  0  0  0  0  0  0  0  0  0  0  0
    6.7916  -13.6803   24.7944 C   0  0  1  0  0  0  0  0  0  0  0  0
    8.0440  -14.1973   24.1770 N   0  0  0  0  0  0  0  0  0  0  0  0
    7.6329  -14.9985   22.9692 C   0  0  0  0  0  0  0  0  0  0  0  0
    8.8613  -15.1301   24.9536 O   0  0  0  0  0  0  0  0  0  0  0  0
    8.8655  -16.3949   24.7067 C   0  0  0  0  0  0  0  0  0  0  0  0
   12.2918  -15.7108   30.1645 C   0  0  2  0  0  0  0  0  0  0  0  0
   11.6056  -16.4016   28.9537 C   0  0  0  0  0  0  0  0  0  0  0  0
   10.4912  -17.2815   29.5284 C   0  0  0  0  0  0  0  0  0  0  0  0
   11.0113  -15.3418   28.1054 C   0  0  1  0  0  0  0  0  0  0  0  0
   10.3719  -15.7980   26.8195 N   0  0  0  0  0  0  0  0  0  0  0  0
    9.7422  -14.7828   26.0408 C   0  0  0  0  0  0  0  0  0  0  0  0
    9.4578  -16.8938   27.1728 O   0  0  0  0  0  0  0  0  0  0  0  0
    9.7890  -18.0643   27.4010 O   0  0  0  0  0  0  0  0  0  0  0  0
  1  2  1  0
  2  3  2  0
  4  2  1  0
  4  5  1  0
  6  5  1  0
  7  6  1  0
  8  7  1  0
  8  9  1  6
 10  8  1  0
 10 11  2  0
 12 13  1  0
 14 13  1  0
 15 14  1  0
 16 17  1  0
 16 15  1  6
 17 10  1  0
 18 16  1  0
 19 18  2  0
 21 20  1  1
 21 22  1  0
 23 21  1  0
 24 23  1  6
 24 25  1  0
 25 18  1  0
 26 24  1  0
 26 28  1  0
 27 26  2  0
M  END
$$$$
