RML.pdb
     RDKit          3D

 28 27  0  0  1  0  0  0  0  0999 V2000
    9.2717  -15.5860   15.5749 N   0  0  0  0  0  0  0  0  0  0  0  0
    8.6649  -14.3310   15.3345 C   0  0  0  0  0  0  0  0  0  0  0  0
    8.9285  -13.6071   14.3082 N   0  0  0  0  0  0  0  0  0  0  0  0
    7.7035  -13.8457   16.2929 N   0  0  0  0  0  0  0  0  0  0  0  0
    8.0884  -13.5567   17.6457 C   0  0  0  0  0  0  0  0  0  0  0  0
    8.3968  -14.8944   18.3211 C   0  0  0  0  0  0  0  0  0  0  0  0
    7.3155  -15.2385   19.3466 C   0  0  0  0  0  0  0  0  0  0  0  0
    7.6793  -16.6053   19.8904 C   0  0  2  0  0  0  0  0  0  0  0  0
    6.9846  -17.6554   19.1720 N   0  0  0  0  0  0  0  0  0  0  0  0
    7.2881  -16.7317   21.3299 C   0  0  0  0  0  0  0  0  0  0  0  0
    6.1085  -17.0260   21.6711 O   0  0  0  0  0  0  0  0  0  0  0  0
    8.4467  -12.7125   14.1477 C   0  0  0  0  0  0  0  0  0  0  0  0
    7.8617  -20.6896   25.3486 S   0  0  0  0  0  0  0  0  0  0  0  0
    6.3730  -20.3501   24.3629 C   0  0  0  0  0  0  0  0  0  0  0  0
    6.4454  -18.6774   23.6823 C   0  0  0  0  0  0  0  0  0  0  0  0
    7.5410  -17.8786   24.2384 C   0  0  2  0  0  0  0  0  0  0  0  0
    7.7449  -16.4704   23.7997 N   0  0  0  0  0  0  0  0  0  0  0  0
    8.2248  -16.5264   22.3727 C   0  0  0  0  0  0  0  0  0  0  0  0
    8.7680  -15.6773   24.4818 O   0  0  0  0  0  0  0  0  0  0  0  0
    9.9511  -16.1399   24.6986 C   0  0  0  0  0  0  0  0  0  0  0  0
    5.8602  -11.6020   26.9407 C   0  0  2  0  0  0  0  0  0  0  0  0
    6.8742  -12.4018   26.0770 C   0  0  0  0  0  0  0  0  0  0  0  0
    7.7251  -11.3669   25.3344 C   0  0  0  0  0  0  0  0  0  0  0  0
    7.7352  -13.1821   26.9966 C   0  0  2  0  0  0  0  0  0  0  0  0
    8.8002  -14.0314   26.3526 N   0  0  0  0  0  0  0  0  0  0  0  0
    8.6099  -14.3304   24.9714 C   0  0  0  0  0  0  0  0  0  0  0  0
    8.9326  -15.2371   27.1832 O   0  0  0  0  0  0  0  0  0  0  0  0
    8.1289  -16.1774   27.2230 O   0  0  0  0  0  0  0  0  0  0  0  0
  1  2  1  0
  2  3  2  0
  4  2  1  0
  4  5  1  0
  6  5  1  0
  7  6  1  0
  8  7  1  0
  8  9  1  6
 10  8  1  0
 10 11  2  0
 12 13  1  0
 14 13  1  0
 15 14  1  0
 16 17  1  0
 16 15  1  6
 17 10  1  0
 18 16  1  0
 19 18  2  0
 21 20  1  6
 21 22  1  0
 23 21  1  0
 24 23  1  6
 24 25  1  0
 25 18  1  0
 26 24  1  0
 26 28  1  0
 27 26  2  0
M  END
$$$$
