RML.pdb
     RDKit          3D

 28 27  0  0  1  0  0  0  0  0999 V2000
    7.1954  -15.0189   16.1035 N   0  0  0  0  0  0  0  0  0  0  0  0
    8.3471  -14.1977   16.0977 C   0  0  0  0  0  0  0  0  0  0  0  0
    9.1943  -14.1806   15.1340 N   0  0  0  0  0  0  0  0  0  0  0  0
    8.5762  -13.3394   17.2332 N   0  0  0  0  0  0  0  0  0  0  0  0
    7.6123  -13.2413   18.2929 C   0  0  0  0  0  0  0  0  0  0  0  0
    7.9541  -14.3282   19.3140 C   0  0  0  0  0  0  0  0  0  0  0  0
    9.4196  -14.2224   19.7385 C   0  0  0  0  0  0  0  0  0  0  0  0
    9.6463  -15.3452   20.7306 C   0  0  2  0  0  0  0  0  0  0  0  0
    8.6181  -16.3605   20.6148 N   0  0  0  0  0  0  0  0  0  0  0  0
    9.5973  -14.8360   22.1376 C   0  0  0  0  0  0  0  0  0  0  0  0
   10.3633  -13.9138   22.5342 O   0  0  0  0  0  0  0  0  0  0  0  0
   10.0012  -13.5425   15.1434 C   0  0  0  0  0  0  0  0  0  0  0  0
    6.6571  -12.5025   27.1003 S   0  0  0  0  0  0  0  0  0  0  0  0
    5.7076  -12.4465   25.5517 C   0  0  0  0  0  0  0  0  0  0  0  0
    6.5142  -13.4585   24.2902 C   0  0  0  0  0  0  0  0  0  0  0  0
    7.2511  -14.5945   24.8506 C   0  0  2  0  0  0  0  0  0  0  0  0
    8.6781  -14.8192   24.4896 N   0  0  0  0  0  0  0  0  0  0  0  0
    8.6888  -15.3670   23.0862 C   0  0  0  0  0  0  0  0  0  0  0  0
    9.4356  -15.8085   25.2568 O   0  0  0  0  0  0  0  0  0  0  0  0
    9.8231  -16.9203   24.7329 C   0  0  0  0  0  0  0  0  0  0  0  0
    9.9599  -14.2444   28.5756 C   0  0  2  0  0  0  0  0  0  0  0  0
   11.1138  -15.1198   29.1378 C   0  0  0  0  0  0  0  0  0  0  0  0
   11.0532  -14.9927   30.6632 C   0  0  0  0  0  0  0  0  0  0  0  0
   10.8476  -16.5243   28.7475 C   0  0  2  0  0  0  0  0  0  0  0  0
   10.4980  -16.7590   27.3007 N   0  0  0  0  0  0  0  0  0  0  0  0
    9.8461  -15.6808   26.6330 C   0  0  0  0  0  0  0  0  0  0  0  0
    9.7243  -18.0083   27.2549 O   0  0  0  0  0  0  0  0  0  0  0  0
    8.5594  -18.1209   26.8523 O   0  0  0  0  0  0  0  0  0  0  0  0
  1  2  1  0
  2  3  2  0
  4  2  1  0
  4  5  1  0
  6  5  1  0
  7  6  1  0
  8  7  1  0
  8  9  1  1
 10  8  1  0
 10 11  2  0
 12 13  1  0
 14 13  1  0
 15 14  1  0
 16 17  1  0
 16 15  1  6
 17 10  1  0
 18 16  1  0
 19 18  2  0
 21 20  1  6
 21 22  1  0
 23 21  1  0
 24 23  1  6
 24 25  1  0
 25 18  1  0
 26 24  1  0
 26 28  1  0
 27 26  2  0
M  END
$$$$
