RML.pdb
     RDKit          3D

 28 27  0  0  1  0  0  0  0  0999 V2000
    8.6347  -13.1686   14.3363 N   0  0  0  0  0  0  0  0  0  0  0  0
    9.0807  -14.4099   14.8473 C   0  0  0  0  0  0  0  0  0  0  0  0
    9.8001  -15.2310   14.1728 N   0  0  0  0  0  0  0  0  0  0  0  0
    8.7055  -14.7656   16.1931 N   0  0  0  0  0  0  0  0  0  0  0  0
    7.8753  -13.9004   16.9830 C   0  0  0  0  0  0  0  0  0  0  0  0
    7.5565  -14.6449   18.2810 C   0  0  0  0  0  0  0  0  0  0  0  0
    8.2728  -13.9908   19.4635 C   0  0  0  0  0  0  0  0  0  0  0  0
    8.8028  -15.1307   20.3096 C   0  0  2  0  0  0  0  0  0  0  0  0
    7.9028  -16.2667   20.2791 N   0  0  0  0  0  0  0  0  0  0  0  0
    8.9342  -14.7190   21.7430 C   0  0  0  0  0  0  0  0  0  0  0  0
    9.6649  -13.7487   22.0880 O   0  0  0  0  0  0  0  0  0  0  0  0
   10.0920  -16.1347   14.5681 C   0  0  0  0  0  0  0  0  0  0  0  0
    7.4062  -11.7858   26.8105 S   0  0  0  0  0  0  0  0  0  0  0  0
    6.0210  -12.7534   26.1410 C   0  0  0  0  0  0  0  0  0  0  0  0
    6.4828  -14.4962   26.0152 C   0  0  0  0  0  0  0  0  0  0  0  0
    6.8227  -14.9026   24.6488 C   0  0  1  0  0  0  0  0  0  0  0  0
    8.2287  -14.8198   24.1656 N   0  0  0  0  0  0  0  0  0  0  0  0
    8.2438  -15.4004   22.7755 C   0  0  0  0  0  0  0  0  0  0  0  0
    9.2486  -15.5904   24.8775 O   0  0  0  0  0  0  0  0  0  0  0  0
    9.6745  -16.7230   24.4341 C   0  0  0  0  0  0  0  0  0  0  0  0
   11.0222  -14.6415   30.2933 C   0  0  2  0  0  0  0  0  0  0  0  0
   10.4295  -14.7874   28.8645 C   0  0  0  0  0  0  0  0  0  0  0  0
   10.3921  -13.3793   28.2627 C   0  0  0  0  0  0  0  0  0  0  0  0
   11.3525  -15.6379   28.0765 C   0  0  2  0  0  0  0  0  0  0  0  0
   10.8728  -16.0533   26.7099 N   0  0  0  0  0  0  0  0  0  0  0  0
    9.8980  -15.2057   26.1060 C   0  0  0  0  0  0  0  0  0  0  0  0
   10.4190  -17.4464   26.8317 O   0  0  0  0  0  0  0  0  0  0  0  0
   11.1177  -18.4041   27.1873 O   0  0  0  0  0  0  0  0  0  0  0  0
  1  2  1  0
  2  3  2  0
  4  2  1  0
  4  5  1  0
  6  5  1  0
  7  6  1  0
  8  7  1  0
  8  9  1  1
 10  8  1  0
 10 11  2  0
 12 13  1  0
 14 13  1  0
 15 14  1  0
 16 17  1  0
 16 15  1  6
 17 10  1  0
 18 16  1  0
 19 18  2  0
 21 20  1  1
 21 22  1  0
 23 21  1  0
 24 23  1  6
 24 25  1  0
 25 18  1  0
 26 24  1  0
 26 28  1  0
 27 26  2  0
M  END
$$$$
