RML.pdb
     RDKit          3D

 28 27  0  0  1  0  0  0  0  0999 V2000
    8.5827  -12.8807   16.6163 N   0  0  0  0  0  0  0  0  0  0  0  0
    8.1762  -13.7839   15.6064 C   0  0  0  0  0  0  0  0  0  0  0  0
    8.6314  -13.7498   14.4071 N   0  0  0  0  0  0  0  0  0  0  0  0
    7.2019  -14.7907   15.9464 N   0  0  0  0  0  0  0  0  0  0  0  0
    6.7576  -14.9629   17.3009 C   0  0  0  0  0  0  0  0  0  0  0  0
    7.9690  -15.4179   18.1172 C   0  0  0  0  0  0  0  0  0  0  0  0
    7.5652  -15.6943   19.5663 C   0  0  0  0  0  0  0  0  0  0  0  0
    8.8230  -16.1713   20.2637 C   0  0  2  0  0  0  0  0  0  0  0  0
    8.7049  -17.5600   20.6625 N   0  0  0  0  0  0  0  0  0  0  0  0
    9.0780  -15.3817   21.5098 C   0  0  0  0  0  0  0  0  0  0  0  0
    9.6220  -14.2428   21.4713 O   0  0  0  0  0  0  0  0  0  0  0  0
    8.3373  -14.4411   13.7043 C   0  0  0  0  0  0  0  0  0  0  0  0
    5.8993  -11.6315   27.0771 S   0  0  0  0  0  0  0  0  0  0  0  0
    5.9356  -12.7183   25.6209 C   0  0  0  0  0  0  0  0  0  0  0  0
    7.4200  -13.7489   25.6504 C   0  0  0  0  0  0  0  0  0  0  0  0
    7.5740  -14.5679   24.4449 C   0  0  1  0  0  0  0  0  0  0  0  0
    8.9248  -15.0123   24.0032 N   0  0  0  0  0  0  0  0  0  0  0  0
    8.7198  -15.8781   22.7875 C   0  0  0  0  0  0  0  0  0  0  0  0
    9.7020  -15.8592   24.9086 O   0  0  0  0  0  0  0  0  0  0  0  0
   10.4901  -16.7783   24.4673 C   0  0  0  0  0  0  0  0  0  0  0  0
   10.7825  -14.0776   30.1907 C   0  0  2  0  0  0  0  0  0  0  0  0
   10.5119  -14.4369   28.7036 C   0  0  0  0  0  0  0  0  0  0  0  0
   11.3465  -13.4663   27.8622 C   0  0  0  0  0  0  0  0  0  0  0  0
   10.9882  -15.8220   28.4789 C   0  0  2  0  0  0  0  0  0  0  0  0
   10.7448  -16.3962   27.1072 N   0  0  0  0  0  0  0  0  0  0  0  0
    9.7060  -15.7811   26.3483 C   0  0  0  0  0  0  0  0  0  0  0  0
   10.5387  -17.8404   27.2890 O   0  0  0  0  0  0  0  0  0  0  0  0
   11.3277  -18.6178   27.8409 O   0  0  0  0  0  0  0  0  0  0  0  0
  1  2  1  0
  2  3  2  0
  4  2  1  0
  4  5  1  0
  6  5  1  0
  7  6  1  0
  8  7  1  0
  8  9  1  1
 10  8  1  0
 10 11  2  0
 12 13  1  0
 14 13  1  0
 15 14  1  0
 16 17  1  0
 16 15  1  6
 17 10  1  0
 18 16  1  0
 19 18  2  0
 21 20  1  6
 21 22  1  0
 23 21  1  0
 24 23  1  6
 24 25  1  0
 25 18  1  0
 26 24  1  0
 26 28  1  0
 27 26  2  0
M  END
$$$$
