RML.pdb
     RDKit          3D

 28 27  0  0  1  0  0  0  0  0999 V2000
    8.9102  -12.8885   17.0436 N   0  0  0  0  0  0  0  0  0  0  0  0
    7.8359  -13.2135   17.9045 C   0  0  0  0  0  0  0  0  0  0  0  0
    7.1761  -12.3358   18.5686 N   0  0  0  0  0  0  0  0  0  0  0  0
    7.4679  -14.6009   18.0390 N   0  0  0  0  0  0  0  0  0  0  0  0
    8.3753  -15.6472   17.6600 C   0  0  0  0  0  0  0  0  0  0  0  0
    9.1110  -16.0856   18.9277 C   0  0  0  0  0  0  0  0  0  0  0  0
    8.1245  -16.6482   19.9521 C   0  0  0  0  0  0  0  0  0  0  0  0
    8.9560  -17.0417   21.1562 C   0  0  2  0  0  0  0  0  0  0  0  0
    8.4221  -18.2286   21.7947 N   0  0  0  0  0  0  0  0  0  0  0  0
    8.9549  -15.9561   22.1871 C   0  0  0  0  0  0  0  0  0  0  0  0
    9.7149  -14.9523   22.0912 O   0  0  0  0  0  0  0  0  0  0  0  0
    6.4384  -12.6105   19.2309 C   0  0  0  0  0  0  0  0  0  0  0  0
    6.4120  -11.4033   25.9967 S   0  0  0  0  0  0  0  0  0  0  0  0
    7.6105  -12.6571   26.5396 C   0  0  0  0  0  0  0  0  0  0  0  0
    6.8705  -14.3037   26.4540 C   0  0  0  0  0  0  0  0  0  0  0  0
    6.9585  -14.9037   25.1198 C   0  0  1  0  0  0  0  0  0  0  0  0
    8.2697  -14.9971   24.4204 N   0  0  0  0  0  0  0  0  0  0  0  0
    8.1005  -16.0077   23.3160 C   0  0  0  0  0  0  0  0  0  0  0  0
    9.4200  -15.4941   25.1759 O   0  0  0  0  0  0  0  0  0  0  0  0
   10.5671  -14.9089   25.1267 C   0  0  0  0  0  0  0  0  0  0  0  0
    9.9178  -15.1448   30.0852 C   0  0  1  0  0  0  0  0  0  0  0  0
   10.0032  -15.2680   28.5388 C   0  0  0  0  0  0  0  0  0  0  0  0
   10.9122  -14.1314   28.0609 C   0  0  0  0  0  0  0  0  0  0  0  0
   10.6334  -16.5715   28.2229 C   0  0  2  0  0  0  0  0  0  0  0  0
   10.6041  -16.9927   26.7765 N   0  0  0  0  0  0  0  0  0  0  0  0
    9.4295  -16.6424   26.0478 C   0  0  0  0  0  0  0  0  0  0  0  0
   10.8774  -18.4371   26.7560 O   0  0  0  0  0  0  0  0  0  0  0  0
   10.1283  -19.3064   26.2923 O   0  0  0  0  0  0  0  0  0  0  0  0
  1  2  1  0
  2  3  2  0
  4  2  1  0
  4  5  1  0
  6  5  1  0
  7  6  1  0
  8  7  1  0
  8  9  1  1
 10  8  1  0
 10 11  2  0
 12 13  1  0
 14 13  1  0
 15 14  1  0
 16 17  1  0
 16 15  1  6
 17 10  1  0
 18 16  1  0
 19 18  2  0
 21 20  1  6
 21 22  1  0
 23 21  1  0
 24 23  1  6
 24 25  1  0
 25 18  1  0
 26 24  1  0
 26 28  1  0
 27 26  2  0
M  END
$$$$
