RML.pdb
     RDKit          3D

 28 27  0  0  1  0  0  0  0  0999 V2000
    8.4942  -20.0370   16.2566 N   0  0  0  0  0  0  0  0  0  0  0  0
    7.7146  -18.8719   16.0682 C   0  0  0  0  0  0  0  0  0  0  0  0
    6.7228  -18.8126   15.2560 N   0  0  0  0  0  0  0  0  0  0  0  0
    8.0553  -17.6952   16.8284 N   0  0  0  0  0  0  0  0  0  0  0  0
    9.2830  -17.6229   17.5694 C   0  0  0  0  0  0  0  0  0  0  0  0
    8.9236  -17.7607   19.0501 C   0  0  0  0  0  0  0  0  0  0  0  0
   10.1806  -17.6723   19.9170 C   0  0  0  0  0  0  0  0  0  0  0  0
    9.7043  -17.7839   21.3511 C   0  0  2  0  0  0  0  0  0  0  0  0
    8.2993  -18.1361   21.4093 N   0  0  0  0  0  0  0  0  0  0  0  0
    9.8551  -16.4792   22.0697 C   0  0  0  0  0  0  0  0  0  0  0  0
   10.9495  -15.8495   22.0743 O   0  0  0  0  0  0  0  0  0  0  0  0
    6.1861  -17.9440   15.1309 C   0  0  0  0  0  0  0  0  0  0  0  0
    7.2633  -12.7486   27.3173 S   0  0  0  0  0  0  0  0  0  0  0  0
    6.4076  -12.5444   25.7270 C   0  0  0  0  0  0  0  0  0  0  0  0
    7.5891  -12.6647   24.3646 C   0  0  0  0  0  0  0  0  0  0  0  0
    7.6842  -14.0159   23.8053 C   0  0  2  0  0  0  0  0  0  0  0  0
    9.0136  -14.6541   23.5987 N   0  0  0  0  0  0  0  0  0  0  0  0
    8.7757  -15.8938   22.7764 C   0  0  0  0  0  0  0  0  0  0  0  0
    9.7317  -15.1469   24.7745 O   0  0  0  0  0  0  0  0  0  0  0  0
   10.9196  -14.7392   25.0631 C   0  0  0  0  0  0  0  0  0  0  0  0
   10.4285  -14.0232   27.9335 C   0  0  2  0  0  0  0  0  0  0  0  0
    9.7627  -14.9874   28.9537 C   0  0  0  0  0  0  0  0  0  0  0  0
    8.5301  -14.2602   29.4999 C   0  0  0  0  0  0  0  0  0  0  0  0
    9.3356  -16.2005   28.2176 C   0  0  2  0  0  0  0  0  0  0  0  0
   10.0005  -16.4411   26.8870 N   0  0  0  0  0  0  0  0  0  0  0  0
    9.2329  -16.0998   25.7347 C   0  0  0  0  0  0  0  0  0  0  0  0
   10.4367  -17.8451   26.8853 O   0  0  0  0  0  0  0  0  0  0  0  0
   10.0487  -18.7200   26.1006 O   0  0  0  0  0  0  0  0  0  0  0  0
  1  2  1  0
  2  3  2  0
  4  2  1  0
  4  5  1  0
  6  5  1  0
  7  6  1  0
  8  7  1  0
  8  9  1  6
 10  8  1  0
 10 11  2  0
 12 13  1  0
 14 13  1  0
 15 14  1  0
 16 17  1  0
 16 15  1  6
 17 10  1  0
 18 16  1  0
 19 18  2  0
 21 20  1  1
 21 22  1  0
 23 21  1  0
 24 23  1  1
 24 25  1  0
 25 18  1  0
 26 24  1  0
 26 28  1  0
 27 26  2  0
M  END
$$$$
