RML.pdb
     RDKit          3D

 28 27  0  0  1  0  0  0  0  0999 V2000
    8.4461  -13.4666   16.0672 N   0  0  0  0  0  0  0  0  0  0  0  0
    8.8888  -13.1136   17.3635 C   0  0  0  0  0  0  0  0  0  0  0  0
    8.6549  -11.9717   17.9003 N   0  0  0  0  0  0  0  0  0  0  0  0
    9.6398  -14.0883   18.1147 N   0  0  0  0  0  0  0  0  0  0  0  0
    9.1253  -15.4110   18.3328 C   0  0  0  0  0  0  0  0  0  0  0  0
    7.7520  -15.2569   18.9893 C   0  0  0  0  0  0  0  0  0  0  0  0
    7.2501  -16.6067   19.5046 C   0  0  0  0  0  0  0  0  0  0  0  0
    8.2736  -17.0691   20.5218 C   0  0  2  0  0  0  0  0  0  0  0  0
    7.9215  -18.3662   21.0650 N   0  0  0  0  0  0  0  0  0  0  0  0
    8.3483  -16.1201   21.6773 C   0  0  0  0  0  0  0  0  0  0  0  0
    8.8010  -14.9490   21.5430 O   0  0  0  0  0  0  0  0  0  0  0  0
    9.0228  -11.7335   18.8309 C   0  0  0  0  0  0  0  0  0  0  0  0
    6.8073  -11.6361   25.6973 S   0  0  0  0  0  0  0  0  0  0  0  0
    5.6458  -13.0339   25.6903 C   0  0  0  0  0  0  0  0  0  0  0  0
    6.5370  -14.5849   25.9484 C   0  0  0  0  0  0  0  0  0  0  0  0
    6.7113  -15.3585   24.7160 C   0  0  1  0  0  0  0  0  0  0  0  0
    8.0634  -15.5233   24.1145 N   0  0  0  0  0  0  0  0  0  0  0  0
    7.9140  -16.4948   22.9728 C   0  0  0  0  0  0  0  0  0  0  0  0
    9.1177  -16.1132   24.9399 O   0  0  0  0  0  0  0  0  0  0  0  0
    9.7524  -17.1730   24.5729 C   0  0  0  0  0  0  0  0  0  0  0  0
   10.8504  -14.0015   30.0213 C   0  0  2  0  0  0  0  0  0  0  0  0
   10.3247  -14.4177   28.6198 C   0  0  0  0  0  0  0  0  0  0  0  0
   10.6083  -13.2409   27.6811 C   0  0  0  0  0  0  0  0  0  0  0  0
   11.1005  -15.6006   28.1785 C   0  0  2  0  0  0  0  0  0  0  0  0
   10.6321  -16.2704   26.9127 N   0  0  0  0  0  0  0  0  0  0  0  0
    9.5812  -15.6112   26.2095 C   0  0  0  0  0  0  0  0  0  0  0  0
   10.2951  -17.6554   27.2726 O   0  0  0  0  0  0  0  0  0  0  0  0
   11.0715  -18.4806   27.7706 O   0  0  0  0  0  0  0  0  0  0  0  0
  1  2  1  0
  2  3  2  0
  4  2  1  0
  4  5  1  0
  6  5  1  0
  7  6  1  0
  8  7  1  0
  8  9  1  1
 10  8  1  0
 10 11  2  0
 12 13  1  0
 14 13  1  0
 15 14  1  0
 16 17  1  0
 16 15  1  6
 17 10  1  0
 18 16  1  0
 19 18  2  0
 21 20  1  1
 21 22  1  0
 23 21  1  0
 24 23  1  6
 24 25  1  0
 25 18  1  0
 26 24  1  0
 26 28  1  0
 27 26  2  0
M  END
$$$$
