HLI.pdb
     RDKit          3D

 27 27  0  0  1  0  0  0  0  0999 V2000
   23.3717  -18.5385  -18.0790 N   0  0  0  0  0  0  0  0  0  0  0  0
   22.9206  -18.6139  -16.7110 C   0  0  1  0  0  0  0  0  0  0  0  0
   21.4221  -18.4994  -16.7387 C   0  0  0  0  0  0  0  0  0  0  0  0
   20.9617  -17.1612  -17.1543 C   0  0  0  0  0  0  0  0  0  0  0  0
   20.3344  -16.9121  -18.3564 C   0  0  0  0  0  0  0  0  0  0  0  0
   20.0493  -15.6051  -18.4128 N   0  0  0  0  0  0  0  0  0  0  0  0
   20.4874  -15.0259  -17.2646 C   0  0  0  0  0  0  0  0  0  0  0  0
   21.0348  -15.9862  -16.5206 N   0  0  0  0  0  0  0  0  0  0  0  0
   23.4475  -19.7890  -16.0192 C   0  0  0  0  0  0  0  0  0  0  0  0
   23.5466  -20.8745  -16.6816 O   0  0  0  0  0  0  0  0  0  0  0  0
   27.9675  -19.6440  -13.4299 C   0  0  0  0  0  0  0  0  0  0  0  0
   26.7304  -20.1106  -14.1743 C   0  0  1  0  0  0  0  0  0  0  0  0
   27.1908  -21.2569  -15.0862 C   0  0  0  0  0  0  0  0  0  0  0  0
   25.6548  -20.5815  -13.2510 C   0  0  0  0  0  0  0  0  0  0  0  0
   24.4227  -20.9621  -13.9875 C   0  0  2  0  0  0  0  0  0  0  0  0
   23.8502  -19.8007  -14.6828 N   0  0  0  0  0  0  0  0  0  0  0  0
   23.3947  -21.4633  -13.0502 C   0  0  0  0  0  0  0  0  0  0  0  0
   23.5447  -22.4362  -12.2616 O   0  0  0  0  0  0  0  0  0  0  0  0
   19.6139  -18.0613  -10.7539 C   0  0  0  0  0  0  0  0  0  0  0  0
   20.1084  -19.0938  -11.7393 C   0  0  0  0  0  0  0  0  0  0  0  0
   20.6080  -20.3434  -11.1014 C   0  0  2  0  0  0  0  0  0  0  0  0
   21.7414  -19.9705  -10.1691 C   0  0  0  0  0  0  0  0  0  0  0  0
   21.0440  -21.3951  -12.0952 C   0  0  2  0  0  0  0  0  0  0  0  0
   22.0846  -20.8564  -12.9573 N   0  0  0  0  0  0  0  0  0  0  0  0
   19.9377  -21.8565  -12.9617 C   0  0  0  0  0  0  0  0  0  0  0  0
   18.8651  -22.5740  -12.4528 O   0  0  0  0  0  0  0  0  0  0  0  0
   19.9128  -21.6211  -14.2072 O   0  0  0  0  0  0  0  0  0  0  0  0
  2  1  1  6
  3  2  1  0
  4  3  1  0
  4  8  1  0
  5  6  1  0
  5  4  2  0
  6  7  1  0
  7  8  2  0
  9  2  1  0
 10  9  2  0
 12 14  1  0
 12 11  1  1
 13 12  1  0
 15 14  1  1
 15 16  1  0
 16  9  1  0
 17 18  2  0
 17 15  1  0
 19 20  1  0
 20 21  1  0
 21 23  1  0
 21 22  1  1
 23 24  1  6
 24 17  1  0
 25 26  1  0
 25 23  1  0
 27 25  2  0
M  END
$$$$
