HLI.pdb
     RDKit          3D

 27 27  0  0  1  0  0  0  0  0999 V2000
   25.9174  -20.2429  -17.1695 N   0  0  0  0  0  0  0  0  0  0  0  0
   24.8735  -19.5711  -16.4348 C   0  0  1  0  0  0  0  0  0  0  0  0
   23.9686  -18.9304  -17.4497 C   0  0  0  0  0  0  0  0  0  0  0  0
   24.6522  -17.8954  -18.2478 C   0  0  0  0  0  0  0  0  0  0  0  0
   24.7518  -17.9371  -19.6222 C   0  0  0  0  0  0  0  0  0  0  0  0
   25.4255  -16.8516  -20.0228 N   0  0  0  0  0  0  0  0  0  0  0  0
   25.7525  -16.1256  -18.9219 C   0  0  0  0  0  0  0  0  0  0  0  0
   25.2746  -16.7766  -17.8621 N   0  0  0  0  0  0  0  0  0  0  0  0
   24.2143  -20.4566  -15.4766 C   0  0  0  0  0  0  0  0  0  0  0  0
   23.8542  -21.6107  -15.8833 O   0  0  0  0  0  0  0  0  0  0  0  0
   25.7268  -20.4391  -10.2383 C   0  0  0  0  0  0  0  0  0  0  0  0
   25.2582  -20.7860  -11.6391 C   0  0  1  0  0  0  0  0  0  0  0  0
   25.7180  -22.2283  -11.8956 C   0  0  0  0  0  0  0  0  0  0  0  0
   23.7754  -20.6798  -11.7855 C   0  0  0  0  0  0  0  0  0  0  0  0
   23.3310  -21.0181  -13.1615 C   0  0  2  0  0  0  0  0  0  0  0  0
   23.9542  -20.1229  -14.1464 N   0  0  0  0  0  0  0  0  0  0  0  0
   21.8666  -20.8561  -13.2858 C   0  0  0  0  0  0  0  0  0  0  0  0
   21.2496  -19.7582  -13.2153 O   0  0  0  0  0  0  0  0  0  0  0  0
   19.1020  -23.2600  -17.1620 C   0  0  0  0  0  0  0  0  0  0  0  0
   19.4951  -22.3011  -16.0630 C   0  0  0  0  0  0  0  0  0  0  0  0
   19.0093  -22.7013  -14.7132 C   0  0  2  0  0  0  0  0  0  0  0  0
   17.4954  -22.6847  -14.7382 C   0  0  0  0  0  0  0  0  0  0  0  0
   19.5450  -21.8337  -13.5979 C   0  0  2  0  0  0  0  0  0  0  0  0
   20.9890  -21.9850  -13.5067 N   0  0  0  0  0  0  0  0  0  0  0  0
   18.9733  -22.1807  -12.2786 C   0  0  0  0  0  0  0  0  0  0  0  0
   19.4249  -23.2743  -11.5543 O   0  0  0  0  0  0  0  0  0  0  0  0
   18.0464  -21.5002  -11.7446 O   0  0  0  0  0  0  0  0  0  0  0  0
  2  1  1  6
  3  2  1  0
  4  3  1  0
  4  8  1  0
  5  6  1  0
  5  4  2  0
  6  7  1  0
  7  8  2  0
  9  2  1  0
 10  9  2  0
 12 14  1  0
 12 11  1  1
 13 12  1  0
 15 14  1  1
 15 16  1  0
 16  9  1  0
 17 18  2  0
 17 15  1  0
 19 20  1  0
 20 21  1  0
 21 23  1  0
 21 22  1  6
 23 24  1  1
 24 17  1  0
 25 26  1  0
 25 23  1  0
 27 25  2  0
M  END
$$$$
