HLI.pdb
     RDKit          3D

 27 27  0  0  1  0  0  0  0  0999 V2000
   23.5954  -20.2447  -15.8666 N   0  0  0  0  0  0  0  0  0  0  0  0
   23.8605  -19.9741  -14.4748 C   0  0  1  0  0  0  0  0  0  0  0  0
   22.5363  -20.0062  -13.7642 C   0  0  0  0  0  0  0  0  0  0  0  0
   21.5948  -18.9898  -14.2700 C   0  0  0  0  0  0  0  0  0  0  0  0
   20.7666  -19.1923  -15.3533 C   0  0  0  0  0  0  0  0  0  0  0  0
   20.0465  -18.0790  -15.5393 N   0  0  0  0  0  0  0  0  0  0  0  0
   20.4079  -17.1770  -14.5897 C   0  0  0  0  0  0  0  0  0  0  0  0
   21.3445  -17.7504  -13.8352 N   0  0  0  0  0  0  0  0  0  0  0  0
   24.8886  -20.8566  -13.9262 C   0  0  0  0  0  0  0  0  0  0  0  0
   24.6993  -22.1151  -14.0107 O   0  0  0  0  0  0  0  0  0  0  0  0
   30.0430  -19.3746  -14.2364 C   0  0  0  0  0  0  0  0  0  0  0  0
   28.7585  -20.1805  -14.1865 C   0  0  1  0  0  0  0  0  0  0  0  0
   28.9762  -21.3844  -15.1142 C   0  0  0  0  0  0  0  0  0  0  0  0
   28.4302  -20.6425  -12.8044 C   0  0  0  0  0  0  0  0  0  0  0  0
   27.0942  -21.2877  -12.7409 C   0  0  2  0  0  0  0  0  0  0  0  0
   26.0638  -20.4127  -13.3175 N   0  0  0  0  0  0  0  0  0  0  0  0
   26.7128  -21.5485  -11.3363 C   0  0  0  0  0  0  0  0  0  0  0  0
   27.1749  -22.4782  -10.6198 O   0  0  0  0  0  0  0  0  0  0  0  0
   28.0557  -19.2382   -7.3317 C   0  0  0  0  0  0  0  0  0  0  0  0
   27.3919  -20.2703   -8.2124 C   0  0  0  0  0  0  0  0  0  0  0  0
   25.9121  -20.1253   -8.2989 C   0  0  2  0  0  0  0  0  0  0  0  0
   25.3401  -20.3444   -6.9141 C   0  0  0  0  0  0  0  0  0  0  0  0
   25.2730  -21.0539   -9.3053 C   0  0  2  0  0  0  0  0  0  0  0  0
   25.7430  -20.7287  -10.6430 N   0  0  0  0  0  0  0  0  0  0  0  0
   23.7970  -20.9601   -9.3131 C   0  0  0  0  0  0  0  0  0  0  0  0
   23.0270  -21.5125   -8.3000 O   0  0  0  0  0  0  0  0  0  0  0  0
   23.1629  -20.3730  -10.2408 O   0  0  0  0  0  0  0  0  0  0  0  0
  2  1  1  6
  3  2  1  0
  4  3  1  0
  4  8  1  0
  5  6  1  0
  5  4  2  0
  6  7  1  0
  7  8  2  0
  9  2  1  0
 10  9  2  0
 12 14  1  0
 12 11  1  1
 13 12  1  0
 15 14  1  1
 15 16  1  0
 16  9  1  0
 17 18  2  0
 17 15  1  0
 19 20  1  0
 20 21  1  0
 21 23  1  0
 21 22  1  1
 23 24  1  6
 24 17  1  0
 25 26  1  0
 25 23  1  0
 27 25  2  0
M  END
$$$$
