HLI.pdb
     RDKit          3D

 27 27  0  0  1  0  0  0  0  0999 V2000
   24.7581  -19.3395   -9.9715 N   0  0  0  0  0  0  0  0  0  0  0  0
   25.6202  -20.1449  -10.8014 C   0  0  1  0  0  0  0  0  0  0  0  0
   25.6316  -19.5104  -12.1640 C   0  0  0  0  0  0  0  0  0  0  0  0
   24.2918  -19.4601  -12.7788 C   0  0  0  0  0  0  0  0  0  0  0  0
   23.3761  -20.4871  -12.6923 C   0  0  0  0  0  0  0  0  0  0  0  0
   22.2721  -20.1156  -13.3525 N   0  0  0  0  0  0  0  0  0  0  0  0
   22.4775  -18.8699  -13.8544 C   0  0  0  0  0  0  0  0  0  0  0  0
   23.7045  -18.4955  -13.4946 N   0  0  0  0  0  0  0  0  0  0  0  0
   26.9340  -20.3532  -10.1952 C   0  0  0  0  0  0  0  0  0  0  0  0
   27.8256  -20.9390  -10.8942 O   0  0  0  0  0  0  0  0  0  0  0  0
   29.7244  -18.9997   -5.0581 C   0  0  0  0  0  0  0  0  0  0  0  0
   28.6284  -19.2164   -6.0848 C   0  0  1  0  0  0  0  0  0  0  0  0
   28.0157  -17.8338   -6.3499 C   0  0  0  0  0  0  0  0  0  0  0  0
   29.1475  -19.8066   -7.3550 C   0  0  0  0  0  0  0  0  0  0  0  0
   28.1522  -20.7049   -7.9934 C   0  0  2  0  0  0  0  0  0  0  0  0
   27.2770  -19.9520   -8.9029 N   0  0  0  0  0  0  0  0  0  0  0  0
   27.2878  -21.3291   -6.9690 C   0  0  0  0  0  0  0  0  0  0  0  0
   27.6678  -22.1825   -6.1212 O   0  0  0  0  0  0  0  0  0  0  0  0
   25.8339  -19.2745   -2.8850 C   0  0  0  0  0  0  0  0  0  0  0  0
   25.9991  -20.3992   -3.8796 C   0  0  0  0  0  0  0  0  0  0  0  0
   24.7901  -20.6477   -4.7132 C   0  0  2  0  0  0  0  0  0  0  0  0
   23.6864  -21.1381   -3.7998 C   0  0  0  0  0  0  0  0  0  0  0  0
   25.0288  -21.6167   -5.8479 C   0  0  2  0  0  0  0  0  0  0  0  0
   25.8839  -21.0002   -6.8503 N   0  0  0  0  0  0  0  0  0  0  0  0
   23.7774  -22.0309   -6.5189 C   0  0  0  0  0  0  0  0  0  0  0  0
   23.0309  -23.1089   -6.0662 O   0  0  0  0  0  0  0  0  0  0  0  0
   23.3250  -21.4252   -7.5367 O   0  0  0  0  0  0  0  0  0  0  0  0
  2  1  1  1
  3  2  1  0
  4  3  1  0
  4  8  1  0
  5  6  1  0
  5  4  2  0
  6  7  1  0
  7  8  2  0
  9  2  1  0
 10  9  2  0
 12 14  1  0
 12 11  1  1
 13 12  1  0
 15 14  1  1
 15 16  1  0
 16  9  1  0
 17 18  2  0
 17 15  1  0
 19 20  1  0
 20 21  1  0
 21 23  1  0
 21 22  1  1
 23 24  1  6
 24 17  1  0
 25 26  1  0
 25 23  1  0
 27 25  2  0
M  END
$$$$
