HLI.pdb
     RDKit          3D

 27 27  0  0  1  0  0  0  0  0999 V2000
   27.5754  -21.1432  -13.2904 N   0  0  0  0  0  0  0  0  0  0  0  0
   26.7717  -20.1749  -12.5852 C   0  0  1  0  0  0  0  0  0  0  0  0
   25.7957  -19.6109  -13.5795 C   0  0  0  0  0  0  0  0  0  0  0  0
   26.4516  -18.8020  -14.6240 C   0  0  0  0  0  0  0  0  0  0  0  0
   27.7849  -18.4534  -14.5908 C   0  0  0  0  0  0  0  0  0  0  0  0
   28.0515  -17.7271  -15.6835 N   0  0  0  0  0  0  0  0  0  0  0  0
   26.9065  -17.6123  -16.4058 C   0  0  0  0  0  0  0  0  0  0  0  0
   25.9542  -18.2698  -15.7453 N   0  0  0  0  0  0  0  0  0  0  0  0
   26.1791  -20.7290  -11.3692 C   0  0  0  0  0  0  0  0  0  0  0  0
   25.7022  -21.9107  -11.4249 O   0  0  0  0  0  0  0  0  0  0  0  0
   27.7873  -19.0681   -6.3189 C   0  0  0  0  0  0  0  0  0  0  0  0
   27.3197  -19.9575   -7.4558 C   0  0  1  0  0  0  0  0  0  0  0  0
   27.6174  -21.3986   -7.0175 C   0  0  0  0  0  0  0  0  0  0  0  0
   25.8635  -19.7929   -7.7448 C   0  0  0  0  0  0  0  0  0  0  0  0
   25.4472  -20.5674   -8.9415 C   0  0  2  0  0  0  0  0  0  0  0  0
   26.1022  -20.0508  -10.1516 N   0  0  0  0  0  0  0  0  0  0  0  0
   23.9878  -20.4524   -9.1493 C   0  0  0  0  0  0  0  0  0  0  0  0
   23.3828  -19.3952   -9.4773 O   0  0  0  0  0  0  0  0  0  0  0  0
   21.6481  -22.3324  -12.9707 C   0  0  0  0  0  0  0  0  0  0  0  0
   21.9400  -21.5830  -11.6922 C   0  0  0  0  0  0  0  0  0  0  0  0
   21.2869  -22.1690  -10.4887 C   0  0  2  0  0  0  0  0  0  0  0  0
   19.7889  -22.1331  -10.7068 C   0  0  0  0  0  0  0  0  0  0  0  0
   21.6663  -21.4775   -9.1998 C   0  0  2  0  0  0  0  0  0  0  0  0
   23.1015  -21.5844   -8.9876 N   0  0  0  0  0  0  0  0  0  0  0  0
   20.9934  -22.0603   -8.0186 C   0  0  0  0  0  0  0  0  0  0  0  0
   19.8326  -21.5089   -7.4962 O   0  0  0  0  0  0  0  0  0  0  0  0
   21.4402  -23.0882   -7.4262 O   0  0  0  0  0  0  0  0  0  0  0  0
  2  1  1  6
  3  2  1  0
  4  3  1  0
  4  8  1  0
  5  6  1  0
  5  4  2  0
  6  7  1  0
  7  8  2  0
  9  2  1  0
 10  9  2  0
 12 14  1  0
 12 11  1  1
 13 12  1  0
 15 14  1  1
 15 16  1  0
 16  9  1  0
 17 18  2  0
 17 15  1  0
 19 20  1  0
 20 21  1  0
 21 23  1  0
 21 22  1  6
 23 24  1  1
 24 17  1  0
 25 26  1  0
 25 23  1  0
 27 25  2  0
M  END
$$$$
