HLI.pdb
     RDKit          3D

 27 27  0  0  1  0  0  0  0  0999 V2000
   20.2771  -15.1350  -16.5543 N   0  0  0  0  0  0  0  0  0  0  0  0
   20.4114  -13.9043  -17.2946 C   0  0  1  0  0  0  0  0  0  0  0  0
   19.0293  -13.5028  -17.7281 C   0  0  0  0  0  0  0  0  0  0  0  0
   18.3893  -14.5114  -18.5932 C   0  0  0  0  0  0  0  0  0  0  0  0
   18.7681  -14.7448  -19.8981 C   0  0  0  0  0  0  0  0  0  0  0  0
   17.9908  -15.7185  -20.3883 N   0  0  0  0  0  0  0  0  0  0  0  0
   17.1272  -16.1030  -19.4124 C   0  0  0  0  0  0  0  0  0  0  0  0
   17.3875  -15.3593  -18.3379 N   0  0  0  0  0  0  0  0  0  0  0  0
   21.1550  -12.8897  -16.5499 C   0  0  0  0  0  0  0  0  0  0  0  0
   20.6274  -12.4279  -15.4845 O   0  0  0  0  0  0  0  0  0  0  0  0
   26.6835  -12.5541  -16.9245 C   0  0  0  0  0  0  0  0  0  0  0  0
   25.2776  -12.5393  -16.3540 C   0  0  1  0  0  0  0  0  0  0  0  0
   25.4340  -12.6988  -14.8350 C   0  0  0  0  0  0  0  0  0  0  0  0
   24.5484  -11.2748  -16.6711 C   0  0  0  0  0  0  0  0  0  0  0  0
   23.1326  -11.3277  -16.2261 C   0  0  2  0  0  0  0  0  0  0  0  0
   22.4043  -12.3945  -16.9273 N   0  0  0  0  0  0  0  0  0  0  0  0
   22.4470  -10.0538  -16.5321 C   0  0  0  0  0  0  0  0  0  0  0  0
   22.0353   -9.7074  -17.6730 O   0  0  0  0  0  0  0  0  0  0  0  0
   17.9095   -7.1856  -17.1238 C   0  0  0  0  0  0  0  0  0  0  0  0
   19.2631   -6.8990  -16.5180 C   0  0  0  0  0  0  0  0  0  0  0  0
   20.0718   -8.1201  -16.2473 C   0  0  2  0  0  0  0  0  0  0  0  0
   19.3372   -8.9462  -15.2125 C   0  0  0  0  0  0  0  0  0  0  0  0
   21.4847   -7.8213  -15.8025 C   0  0  2  0  0  0  0  0  0  0  0  0
   22.1823   -9.0640  -15.5106 N   0  0  0  0  0  0  0  0  0  0  0  0
   21.5357   -6.9817  -14.5858 C   0  0  0  0  0  0  0  0  0  0  0  0
   21.9378   -7.4969  -13.3621 O   0  0  0  0  0  0  0  0  0  0  0  0
   21.2165   -5.7548  -14.5986 O   0  0  0  0  0  0  0  0  0  0  0  0
  2  1  1  1
  3  2  1  0
  4  3  1  0
  4  8  1  0
  5  6  1  0
  5  4  2  0
  6  7  1  0
  7  8  2  0
  9  2  1  0
 10  9  2  0
 12 14  1  0
 12 11  1  6
 13 12  1  0
 15 14  1  6
 15 16  1  0
 16  9  1  0
 17 18  2  0
 17 15  1  0
 19 20  1  0
 20 21  1  0
 21 23  1  0
 21 22  1  1
 23 24  1  1
 24 17  1  0
 25 26  1  0
 25 23  1  0
 27 25  2  0
M  END
$$$$
