HLI.pdb
     RDKit          3D

 27 27  0  0  1  0  0  0  0  0999 V2000
   25.7297  -18.3247  -17.2012 N   0  0  0  0  0  0  0  0  0  0  0  0
   25.4567  -18.4345  -15.7891 C   0  0  1  0  0  0  0  0  0  0  0  0
   24.0261  -18.0194  -15.5877 C   0  0  0  0  0  0  0  0  0  0  0  0
   23.7899  -16.6057  -15.9357 C   0  0  0  0  0  0  0  0  0  0  0  0
   24.6245  -15.5781  -15.5511 C   0  0  0  0  0  0  0  0  0  0  0  0
   24.1234  -14.4338  -16.0331 N   0  0  0  0  0  0  0  0  0  0  0  0
   22.9853  -14.7240  -16.7159 C   0  0  0  0  0  0  0  0  0  0  0  0
   22.8049  -16.0421  -16.6427 N   0  0  0  0  0  0  0  0  0  0  0  0
   25.8089  -19.7504  -15.2588 C   0  0  0  0  0  0  0  0  0  0  0  0
   25.4524  -20.7762  -15.9277 O   0  0  0  0  0  0  0  0  0  0  0  0
   30.5366  -20.0402  -12.9960 C   0  0  0  0  0  0  0  0  0  0  0  0
   29.2128  -20.2597  -13.7043 C   0  0  1  0  0  0  0  0  0  0  0  0
   29.5569  -20.8880  -15.0623 C   0  0  0  0  0  0  0  0  0  0  0  0
   28.2976  -21.1550  -12.9348 C   0  0  0  0  0  0  0  0  0  0  0  0
   26.9643  -21.2665  -13.5789 C   0  0  2  0  0  0  0  0  0  0  0  0
   26.5104  -19.9577  -14.0699 N   0  0  0  0  0  0  0  0  0  0  0  0
   25.9585  -21.7430  -12.6054 C   0  0  0  0  0  0  0  0  0  0  0  0
   25.9356  -22.8944  -12.0907 O   0  0  0  0  0  0  0  0  0  0  0  0
   25.8377  -20.0058   -8.0732 C   0  0  0  0  0  0  0  0  0  0  0  0
   25.4823  -20.9116   -9.2285 C   0  0  0  0  0  0  0  0  0  0  0  0
   24.1613  -20.6089   -9.8461 C   0  0  2  0  0  0  0  0  0  0  0  0
   23.0861  -20.9327   -8.8303 C   0  0  0  0  0  0  0  0  0  0  0  0
   23.9211  -21.3417  -11.1457 C   0  0  2  0  0  0  0  0  0  0  0  0
   24.8787  -20.8966  -12.1463 N   0  0  0  0  0  0  0  0  0  0  0  0
   22.5648  -21.1123  -11.6893 C   0  0  0  0  0  0  0  0  0  0  0  0
   21.4737  -21.8542  -11.2609 O   0  0  0  0  0  0  0  0  0  0  0  0
   22.3308  -20.2307  -12.5698 O   0  0  0  0  0  0  0  0  0  0  0  0
  2  1  1  6
  3  2  1  0
  4  3  1  0
  4  8  1  0
  5  6  1  0
  5  4  2  0
  6  7  1  0
  7  8  2  0
  9  2  1  0
 10  9  2  0
 12 14  1  0
 12 11  1  1
 13 12  1  0
 15 14  1  1
 15 16  1  0
 16  9  1  0
 17 18  2  0
 17 15  1  0
 19 20  1  0
 20 21  1  0
 21 23  1  0
 21 22  1  1
 23 24  1  6
 24 17  1  0
 25 26  1  0
 25 23  1  0
 27 25  2  0
M  END
$$$$
