HLI.pdb
     RDKit          3D

 27 27  0  0  1  0  0  0  0  0999 V2000
   26.7114  -21.2416  -14.0384 N   0  0  0  0  0  0  0  0  0  0  0  0
   25.8696  -20.3360  -13.2955 C   0  0  1  0  0  0  0  0  0  0  0  0
   24.8658  -19.7784  -14.2655 C   0  0  0  0  0  0  0  0  0  0  0  0
   25.4807  -18.8989  -15.2774 C   0  0  0  0  0  0  0  0  0  0  0  0
   26.3632  -19.3454  -16.2378 C   0  0  0  0  0  0  0  0  0  0  0  0
   26.7237  -18.2977  -16.9895 N   0  0  0  0  0  0  0  0  0  0  0  0
   26.0820  -17.1970  -16.5178 C   0  0  0  0  0  0  0  0  0  0  0  0
   25.3373  -17.5857  -15.4836 N   0  0  0  0  0  0  0  0  0  0  0  0
   25.3069  -20.9598  -12.0993 C   0  0  0  0  0  0  0  0  0  0  0  0
   24.8097  -22.1286  -12.2159 O   0  0  0  0  0  0  0  0  0  0  0  0
   27.1278  -19.2559   -7.2842 C   0  0  0  0  0  0  0  0  0  0  0  0
   26.6284  -20.1097   -8.4347 C   0  0  1  0  0  0  0  0  0  0  0  0
   27.3287  -21.4685   -8.2903 C   0  0  0  0  0  0  0  0  0  0  0  0
   25.1451  -20.2848   -8.4111 C   0  0  0  0  0  0  0  0  0  0  0  0
   24.6473  -20.9429   -9.6457 C   0  0  2  0  0  0  0  0  0  0  0  0
   25.2792  -20.3615  -10.8385 N   0  0  0  0  0  0  0  0  0  0  0  0
   23.1880  -20.7476   -9.7827 C   0  0  0  0  0  0  0  0  0  0  0  0
   22.6272  -19.6594  -10.0869 O   0  0  0  0  0  0  0  0  0  0  0  0
   20.3700  -22.4169  -13.4176 C   0  0  0  0  0  0  0  0  0  0  0  0
   20.8087  -21.6925  -12.1669 C   0  0  0  0  0  0  0  0  0  0  0  0
   20.2779  -22.2879  -10.9092 C   0  0  2  0  0  0  0  0  0  0  0  0
   18.7662  -22.2173  -10.9613 C   0  0  0  0  0  0  0  0  0  0  0  0
   20.8110  -21.6289   -9.6582 C   0  0  2  0  0  0  0  0  0  0  0  0
   22.2494  -21.8281   -9.5714 N   0  0  0  0  0  0  0  0  0  0  0  0
   20.2072  -22.1741   -8.4229 C   0  0  0  0  0  0  0  0  0  0  0  0
   19.1182  -21.5664   -7.8153 O   0  0  0  0  0  0  0  0  0  0  0  0
   20.6512  -23.2192   -7.8591 O   0  0  0  0  0  0  0  0  0  0  0  0
  2  1  1  6
  3  2  1  0
  4  3  1  0
  4  8  1  0
  5  6  1  0
  5  4  2  0
  6  7  1  0
  7  8  2  0
  9  2  1  0
 10  9  2  0
 12 14  1  0
 12 11  1  1
 13 12  1  0
 15 14  1  1
 15 16  1  0
 16  9  1  0
 17 18  2  0
 17 15  1  0
 19 20  1  0
 20 21  1  0
 21 23  1  0
 21 22  1  6
 23 24  1  1
 24 17  1  0
 25 26  1  0
 25 23  1  0
 27 25  2  0
M  END
$$$$
