NYS.pdb
     RDKit          3D

 27 27  0  0  1  0  0  0  0  0999 V2000
   11.9090  -18.2695   17.3481 N   0  0  0  0  0  0  0  0  0  0  0  0
   10.9129  -17.3076   17.6532 C   0  0  0  0  0  0  0  0  0  0  0  0
    9.9781  -17.1809   16.8105 O   0  0  0  0  0  0  0  0  0  0  0  0
   10.9711  -16.4976   18.8956 C   0  0  0  0  0  0  0  0  0  0  0  0
   10.0018  -17.0736   19.8818 C   0  0  2  0  0  0  0  0  0  0  0  0
    8.7124  -17.1657   19.2425 N   0  0  0  0  0  0  0  0  0  0  0  0
    9.9537  -16.3382   21.1527 C   0  0  0  0  0  0  0  0  0  0  0  0
   11.0200  -16.1599   21.7917 O   0  0  0  0  0  0  0  0  0  0  0  0
    6.7931  -11.7655   28.0151 O   0  0  0  0  0  0  0  0  0  0  0  0
    6.9953  -12.3453   26.7585 C   0  0  0  0  0  0  0  0  0  0  0  0
    6.3126  -13.4888   26.4063 C   0  0  0  0  0  0  0  0  0  0  0  0
    6.4874  -14.0761   25.1926 C   0  0  0  0  0  0  0  0  0  0  0  0
    7.3680  -13.5408   24.2547 C   0  0  0  0  0  0  0  0  0  0  0  0
    7.5353  -14.2147   22.9478 C   0  0  0  0  0  0  0  0  0  0  0  0
    8.6518  -15.2101   22.9277 C   0  0  2  0  0  0  0  0  0  0  0  0
    8.7306  -15.8459   21.6380 N   0  0  0  0  0  0  0  0  0  0  0  0
    8.6290  -16.2179   24.0017 C   0  0  0  0  0  0  0  0  0  0  0  0
    7.6469  -16.9986   24.0662 O   0  0  0  0  0  0  0  0  0  0  0  0
    8.0515  -12.3968   24.6062 C   0  0  0  0  0  0  0  0  0  0  0  0
    7.8790  -11.7911   25.8426 C   0  0  0  0  0  0  0  0  0  0  0  0
   11.6047  -18.2087   24.9686 O   0  0  0  0  0  0  0  0  0  0  0  0
   10.4193  -18.5630   25.6121 C   0  0  0  0  0  0  0  0  0  0  0  0
    9.6477  -17.3375   26.0325 C   0  0  2  0  0  0  0  0  0  0  0  0
    9.6523  -16.3606   24.9706 N   0  0  0  0  0  0  0  0  0  0  0  0
   10.3234  -16.7877   27.2452 C   0  0  0  0  0  0  0  0  0  0  0  0
   10.7718  -15.6190   27.2990 O   0  0  0  0  0  0  0  0  0  0  0  0
   10.4381  -17.6400   28.3348 O   0  0  0  0  0  0  0  0  0  0  0  0
  2  3  2  0
  2  1  1  0
  4  2  1  0
  5  4  1  0
  5  7  1  0
  5  6  1  6
  7  8  2  0
  9 10  1  0
 10 11  2  0
 10 20  1  0
 11 12  1  0
 12 13  2  0
 13 14  1  0
 15 14  1  6
 16  7  1  0
 16 15  1  0
 17 15  1  0
 17 18  2  0
 19 13  1  0
 20 19  2  0
 21 22  1  0
 23 22  1  6
 23 24  1  0
 24 17  1  0
 25 23  1  0
 25 27  1  0
 26 25  2  0
M  END
$$$$
