NYS.pdb
     RDKit          3D

 27 27  0  0  1  0  0  0  0  0999 V2000
   10.1565  -20.4099   18.6925 N   0  0  0  0  0  0  0  0  0  0  0  0
    9.4731  -19.2467   19.1288 C   0  0  0  0  0  0  0  0  0  0  0  0
    8.6984  -18.7029   18.2895 O   0  0  0  0  0  0  0  0  0  0  0  0
    9.6616  -18.7031   20.4969 C   0  0  0  0  0  0  0  0  0  0  0  0
    9.9680  -17.2409   20.3870 C   0  0  2  0  0  0  0  0  0  0  0  0
   11.2748  -17.0994   19.7937 N   0  0  0  0  0  0  0  0  0  0  0  0
    9.8420  -16.5195   21.6606 C   0  0  0  0  0  0  0  0  0  0  0  0
   10.8176  -16.5084   22.4512 O   0  0  0  0  0  0  0  0  0  0  0  0
    6.3821  -11.5448   28.1025 O   0  0  0  0  0  0  0  0  0  0  0  0
    6.6094  -12.2190   26.8985 C   0  0  0  0  0  0  0  0  0  0  0  0
    7.5316  -11.7339   25.9974 C   0  0  0  0  0  0  0  0  0  0  0  0
    7.7749  -12.3664   24.8187 C   0  0  0  0  0  0  0  0  0  0  0  0
    7.0973  -13.5348   24.4761 C   0  0  0  0  0  0  0  0  0  0  0  0
    7.3858  -14.1885   23.1802 C   0  0  0  0  0  0  0  0  0  0  0  0
    8.4844  -15.2011   23.2534 C   0  0  2  0  0  0  0  0  0  0  0  0
    8.6460  -15.8555   21.9808 N   0  0  0  0  0  0  0  0  0  0  0  0
    8.3676  -16.1938   24.3354 C   0  0  0  0  0  0  0  0  0  0  0  0
    7.5170  -17.1103   24.2145 O   0  0  0  0  0  0  0  0  0  0  0  0
    6.1745  -14.0208   25.3770 C   0  0  0  0  0  0  0  0  0  0  0  0
    5.9201  -13.3816   26.5820 C   0  0  0  0  0  0  0  0  0  0  0  0
   10.1027  -19.5011   26.6847 O   0  0  0  0  0  0  0  0  0  0  0  0
    9.9369  -18.4517   25.7813 C   0  0  0  0  0  0  0  0  0  0  0  0
    9.2689  -17.2724   26.4425 C   0  0  2  0  0  0  0  0  0  0  0  0
    9.1601  -16.1773   25.5093 N   0  0  0  0  0  0  0  0  0  0  0  0
   10.1202  -16.8802   27.6047 C   0  0  0  0  0  0  0  0  0  0  0  0
   10.7029  -15.7731   27.6738 O   0  0  0  0  0  0  0  0  0  0  0  0
   10.2440  -17.8096   28.6282 O   0  0  0  0  0  0  0  0  0  0  0  0
  2  3  2  0
  2  1  1  0
  4  2  1  0
  5  4  1  0
  5  7  1  0
  5  6  1  1
  7  8  2  0
  9 10  1  0
 10 11  2  0
 10 20  1  0
 11 12  1  0
 12 13  2  0
 13 14  1  0
 15 14  1  6
 16  7  1  0
 16 15  1  0
 17 15  1  0
 17 18  2  0
 19 13  1  0
 20 19  2  0
 21 22  1  0
 23 22  1  6
 23 24  1  0
 24 17  1  0
 25 23  1  0
 25 27  1  0
 26 25  2  0
M  END
$$$$
