NYS.pdb
     RDKit          3D

 27 27  0  0  1  0  0  0  0  0999 V2000
    9.4003  -15.4061   18.1516 N   0  0  0  0  0  0  0  0  0  0  0  0
    8.4483  -14.6119   18.8397 C   0  0  0  0  0  0  0  0  0  0  0  0
    7.4935  -14.1546   18.1474 O   0  0  0  0  0  0  0  0  0  0  0  0
    8.5725  -14.3368   20.2929 C   0  0  0  0  0  0  0  0  0  0  0  0
    8.9920  -15.6004   20.9795 C   0  0  2  0  0  0  0  0  0  0  0  0
    7.9839  -16.6016   20.7324 N   0  0  0  0  0  0  0  0  0  0  0  0
    9.2762  -15.4224   22.4099 C   0  0  0  0  0  0  0  0  0  0  0  0
   10.2241  -14.6730   22.7519 O   0  0  0  0  0  0  0  0  0  0  0  0
    6.3999  -10.2823   26.8600 O   0  0  0  0  0  0  0  0  0  0  0  0
    6.6987  -11.6074   26.5269 C   0  0  0  0  0  0  0  0  0  0  0  0
    5.6944  -12.5482   26.4643 C   0  0  0  0  0  0  0  0  0  0  0  0
    5.9528  -13.8440   26.1435 C   0  0  0  0  0  0  0  0  0  0  0  0
    7.2496  -14.2710   25.8645 C   0  0  0  0  0  0  0  0  0  0  0  0
    7.4897  -15.6917   25.5268 C   0  0  0  0  0  0  0  0  0  0  0  0
    8.7643  -15.9204   24.7779 C   0  0  2  0  0  0  0  0  0  0  0  0
    8.4953  -16.0834   23.3727 N   0  0  0  0  0  0  0  0  0  0  0  0
    9.6091  -17.0200   25.2749 C   0  0  0  0  0  0  0  0  0  0  0  0
    9.7134  -17.1774   26.5169 O   0  0  0  0  0  0  0  0  0  0  0  0
    8.2549  -13.3304   25.9269 C   0  0  0  0  0  0  0  0  0  0  0  0
    7.9999  -12.0061   26.2535 C   0  0  0  0  0  0  0  0  0  0  0  0
   11.8448  -19.2554   22.6452 O   0  0  0  0  0  0  0  0  0  0  0  0
   11.3564  -19.9815   23.7311 C   0  0  0  0  0  0  0  0  0  0  0  0
   11.0457  -19.0707   24.8921 C   0  0  2  0  0  0  0  0  0  0  0  0
   10.3141  -17.9148   24.4331 N   0  0  0  0  0  0  0  0  0  0  0  0
   12.3511  -18.6554   25.4860 C   0  0  0  0  0  0  0  0  0  0  0  0
   12.7125  -17.4577   25.5558 O   0  0  0  0  0  0  0  0  0  0  0  0
   13.1669  -19.6694   25.9686 O   0  0  0  0  0  0  0  0  0  0  0  0
  2  3  2  0
  2  1  1  0
  4  2  1  0
  5  4  1  0
  5  7  1  0
  5  6  1  1
  7  8  2  0
  9 10  1  0
 10 11  2  0
 10 20  1  0
 11 12  1  0
 12 13  2  0
 13 14  1  0
 15 14  1  1
 16  7  1  0
 16 15  1  0
 17 15  1  0
 17 18  2  0
 19 13  1  0
 20 19  2  0
 21 22  1  0
 23 22  1  6
 23 24  1  0
 24 17  1  0
 25 23  1  0
 25 27  1  0
 26 25  2  0
M  END
$$$$
