NYS.pdb
     RDKit          3D

 27 27  0  0  1  0  0  0  0  0999 V2000
    8.8186  -27.6565   27.3994 N   0  0  0  0  0  0  0  0  0  0  0  0
    7.7145  -26.7671   27.4184 C   0  0  0  0  0  0  0  0  0  0  0  0
    6.9685  -26.7766   26.3967 O   0  0  0  0  0  0  0  0  0  0  0  0
    7.4549  -25.8768   28.5772 C   0  0  0  0  0  0  0  0  0  0  0  0
    8.5051  -26.1321   29.6145 C   0  0  2  0  0  0  0  0  0  0  0  0
    8.0121  -27.1475   30.5120 N   0  0  0  0  0  0  0  0  0  0  0  0
    8.9414  -24.9175   30.3166 C   0  0  0  0  0  0  0  0  0  0  0  0
    8.2145  -23.8945   30.2690 O   0  0  0  0  0  0  0  0  0  0  0  0
    6.1652  -26.0621   35.8087 O   0  0  0  0  0  0  0  0  0  0  0  0
    7.3183  -25.6063   35.1618 C   0  0  0  0  0  0  0  0  0  0  0  0
    7.5542  -24.2547   35.0389 C   0  0  0  0  0  0  0  0  0  0  0  0
    8.6656  -23.7804   34.4157 C   0  0  0  0  0  0  0  0  0  0  0  0
    9.6126  -24.6480   33.8751 C   0  0  0  0  0  0  0  0  0  0  0  0
   10.8049  -24.0915   33.1979 C   0  0  0  0  0  0  0  0  0  0  0  0
   10.5684  -23.7428   31.7626 C   0  0  2  0  0  0  0  0  0  0  0  0
   10.1533  -24.9093   31.0273 N   0  0  0  0  0  0  0  0  0  0  0  0
   11.6835  -23.0676   31.0767 C   0  0  0  0  0  0  0  0  0  0  0  0
   12.1652  -22.0316   31.5992 O   0  0  0  0  0  0  0  0  0  0  0  0
    9.3774  -26.0005   33.9976 C   0  0  0  0  0  0  0  0  0  0  0  0
    8.2459  -26.4929   34.6320 C   0  0  0  0  0  0  0  0  0  0  0  0
   13.7376  -24.8952   27.9743 O   0  0  0  0  0  0  0  0  0  0  0  0
   14.3431  -23.8715   28.7026 C   0  0  0  0  0  0  0  0  0  0  0  0
   13.3232  -22.8582   29.1576 C   0  0  2  0  0  0  0  0  0  0  0  0
   12.2479  -23.5178   29.8582 N   0  0  0  0  0  0  0  0  0  0  0  0
   12.8041  -22.1777   27.9342 C   0  0  0  0  0  0  0  0  0  0  0  0
   11.5942  -22.1997   27.6093 O   0  0  0  0  0  0  0  0  0  0  0  0
   13.7338  -21.5050   27.1534 O   0  0  0  0  0  0  0  0  0  0  0  0
  2  3  2  0
  2  1  1  0
  4  2  1  0
  5  4  1  0
  5  7  1  0
  5  6  1  1
  7  8  2  0
  9 10  1  0
 10 11  2  0
 10 20  1  0
 11 12  1  0
 12 13  2  0
 13 14  1  0
 15 14  1  1
 16  7  1  0
 16 15  1  0
 17 15  1  0
 17 18  2  0
 19 13  1  0
 20 19  2  0
 21 22  1  0
 23 22  1  6
 23 24  1  0
 24 17  1  0
 25 23  1  0
 25 27  1  0
 26 25  2  0
M  END
$$$$
