NYS.pdb
     RDKit          3D

 27 27  0  0  1  0  0  0  0  0999 V2000
    8.0821  -13.2271   15.8309 N   0  0  0  0  0  0  0  0  0  0  0  0
    7.5081  -14.2891   16.5746 C   0  0  0  0  0  0  0  0  0  0  0  0
    7.2125  -15.3336   15.9251 O   0  0  0  0  0  0  0  0  0  0  0  0
    7.2702  -14.1738   18.0351 C   0  0  0  0  0  0  0  0  0  0  0  0
    8.4805  -14.6865   18.7535 C   0  0  2  0  0  0  0  0  0  0  0  0
    8.5163  -16.1206   18.6058 N   0  0  0  0  0  0  0  0  0  0  0  0
    8.5526  -14.2588   20.1572 C   0  0  0  0  0  0  0  0  0  0  0  0
    8.5099  -13.0317   20.4209 O   0  0  0  0  0  0  0  0  0  0  0  0
    6.8835  -12.4556   28.2737 O   0  0  0  0  0  0  0  0  0  0  0  0
    7.0341  -12.8020   26.9272 C   0  0  0  0  0  0  0  0  0  0  0  0
    6.4191  -13.9301   26.4302 C   0  0  0  0  0  0  0  0  0  0  0  0
    6.5463  -14.2933   25.1261 C   0  0  0  0  0  0  0  0  0  0  0  0
    7.3072  -13.5345   24.2390 C   0  0  0  0  0  0  0  0  0  0  0  0
    7.4266  -13.9684   22.8292 C   0  0  0  0  0  0  0  0  0  0  0  0
    8.6296  -14.8175   22.5654 C   0  0  2  0  0  0  0  0  0  0  0  0
    8.6674  -15.2135   21.1814 N   0  0  0  0  0  0  0  0  0  0  0  0
    8.7903  -15.9887   23.4441 C   0  0  0  0  0  0  0  0  0  0  0  0
    7.8452  -16.2901   24.2150 O   0  0  0  0  0  0  0  0  0  0  0  0
    7.9227  -12.4058   24.7354 C   0  0  0  0  0  0  0  0  0  0  0  0
    7.7982  -12.0279   26.0647 C   0  0  0  0  0  0  0  0  0  0  0  0
   12.6686  -15.9135   24.0922 O   0  0  0  0  0  0  0  0  0  0  0  0
   11.6328  -16.0088   25.0212 C   0  0  0  0  0  0  0  0  0  0  0  0
   10.6919  -17.1323   24.6655 C   0  0  2  0  0  0  0  0  0  0  0  0
    9.9514  -16.7994   23.4726 N   0  0  0  0  0  0  0  0  0  0  0  0
    9.7621  -17.3087   25.8203 C   0  0  0  0  0  0  0  0  0  0  0  0
    9.9563  -18.1564   26.7223 O   0  0  0  0  0  0  0  0  0  0  0  0
    8.6497  -16.4793   25.8570 O   0  0  0  0  0  0  0  0  0  0  0  0
  2  3  2  0
  2  1  1  0
  4  2  1  0
  5  4  1  0
  5  7  1  0
  5  6  1  1
  7  8  2  0
  9 10  1  0
 10 11  2  0
 10 20  1  0
 11 12  1  0
 12 13  2  0
 13 14  1  0
 15 14  1  1
 16  7  1  0
 16 15  1  0
 17 15  1  0
 17 18  2  0
 19 13  1  0
 20 19  2  0
 21 22  1  0
 23 22  1  1
 23 24  1  0
 24 17  1  0
 25 23  1  0
 25 27  1  0
 26 25  2  0
M  END
$$$$
