NYS.pdb
     RDKit          3D

 27 27  0  0  1  0  0  0  0  0999 V2000
    6.0856  -17.2453   18.8096 N   0  0  0  0  0  0  0  0  0  0  0  0
    7.4047  -17.7594   18.7300 C   0  0  0  0  0  0  0  0  0  0  0  0
    7.6737  -18.4596   17.7114 O   0  0  0  0  0  0  0  0  0  0  0  0
    8.4091  -17.4864   19.7881 C   0  0  0  0  0  0  0  0  0  0  0  0
    8.2615  -16.0608   20.2240 C   0  0  2  0  0  0  0  0  0  0  0  0
    8.6431  -15.2126   19.1218 N   0  0  0  0  0  0  0  0  0  0  0  0
    8.9921  -15.7483   21.4597 C   0  0  0  0  0  0  0  0  0  0  0  0
   10.2420  -15.6363   21.4143 O   0  0  0  0  0  0  0  0  0  0  0  0
   10.3945  -14.4855   30.1245 O   0  0  0  0  0  0  0  0  0  0  0  0
    9.8208  -14.6113   28.8553 C   0  0  0  0  0  0  0  0  0  0  0  0
    9.6372  -13.4976   28.0656 C   0  0  0  0  0  0  0  0  0  0  0  0
    9.0825  -13.5873   26.8275 C   0  0  0  0  0  0  0  0  0  0  0  0
    8.6768  -14.8151   26.3083 C   0  0  0  0  0  0  0  0  0  0  0  0
    8.0704  -14.8689   24.9594 C   0  0  0  0  0  0  0  0  0  0  0  0
    9.0047  -15.3696   23.9040 C   0  0  2  0  0  0  0  0  0  0  0  0
    8.2958  -15.5791   22.6682 N   0  0  0  0  0  0  0  0  0  0  0  0
    9.7900  -16.5639   24.2598 C   0  0  0  0  0  0  0  0  0  0  0  0
    9.2308  -17.6869   24.1932 O   0  0  0  0  0  0  0  0  0  0  0  0
    8.8602  -15.9298   27.0977 C   0  0  0  0  0  0  0  0  0  0  0  0
    9.4254  -15.8472   28.3622 C   0  0  0  0  0  0  0  0  0  0  0  0
   13.2425  -17.2236   22.9921 O   0  0  0  0  0  0  0  0  0  0  0  0
   12.5468  -18.2206   23.6754 C   0  0  0  0  0  0  0  0  0  0  0  0
   11.9533  -17.6838   24.9536 C   0  0  2  0  0  0  0  0  0  0  0  0
   11.1437  -16.5224   24.6745 N   0  0  0  0  0  0  0  0  0  0  0  0
   13.0924  -17.3188   25.8472 C   0  0  0  0  0  0  0  0  0  0  0  0
   13.9714  -18.1416   26.1938 O   0  0  0  0  0  0  0  0  0  0  0  0
   13.1412  -16.0038   26.2891 O   0  0  0  0  0  0  0  0  0  0  0  0
  2  3  2  0
  2  1  1  0
  4  2  1  0
  5  4  1  0
  5  7  1  0
  5  6  1  6
  7  8  2  0
  9 10  1  0
 10 11  2  0
 10 20  1  0
 11 12  1  0
 12 13  2  0
 13 14  1  0
 15 14  1  1
 16  7  1  0
 16 15  1  0
 17 15  1  0
 17 18  2  0
 19 13  1  0
 20 19  2  0
 21 22  1  0
 23 22  1  6
 23 24  1  0
 24 17  1  0
 25 23  1  0
 25 27  1  0
 26 25  2  0
M  END
$$$$
