NYS.pdb
     RDKit          3D

 27 27  0  0  1  0  0  0  0  0999 V2000
   13.0401  -17.7356   17.9242 N   0  0  0  0  0  0  0  0  0  0  0  0
   11.6681  -17.4209   18.0949 C   0  0  0  0  0  0  0  0  0  0  0  0
   10.8554  -18.0234   17.3356 O   0  0  0  0  0  0  0  0  0  0  0  0
   11.2182  -16.4373   19.1113 C   0  0  0  0  0  0  0  0  0  0  0  0
   10.4659  -17.1708   20.1791 C   0  0  2  0  0  0  0  0  0  0  0  0
    9.2111  -17.6118   19.6217 N   0  0  0  0  0  0  0  0  0  0  0  0
   10.2962  -16.3935   21.4142 C   0  0  0  0  0  0  0  0  0  0  0  0
   11.3143  -16.0814   22.0799 O   0  0  0  0  0  0  0  0  0  0  0  0
    6.4774  -11.8215   27.9387 O   0  0  0  0  0  0  0  0  0  0  0  0
    6.7460  -12.4918   26.7410 C   0  0  0  0  0  0  0  0  0  0  0  0
    7.5517  -11.9089   25.7876 C   0  0  0  0  0  0  0  0  0  0  0  0
    7.8314  -12.5349   24.6136 C   0  0  0  0  0  0  0  0  0  0  0  0
    7.3111  -13.7959   24.3291 C   0  0  0  0  0  0  0  0  0  0  0  0
    7.6335  -14.4401   23.0363 C   0  0  0  0  0  0  0  0  0  0  0  0
    8.8193  -15.3496   23.1015 C   0  0  2  0  0  0  0  0  0  0  0  0
    9.0123  -16.0097   21.8363 N   0  0  0  0  0  0  0  0  0  0  0  0
    8.8139  -16.3291   24.2016 C   0  0  0  0  0  0  0  0  0  0  0  0
    7.9436  -17.2350   24.1891 O   0  0  0  0  0  0  0  0  0  0  0  0
    6.5050  -14.3798   25.2823 C   0  0  0  0  0  0  0  0  0  0  0  0
    6.2145  -13.7479   26.4830 C   0  0  0  0  0  0  0  0  0  0  0  0
   11.8629  -18.0356   25.4492 O   0  0  0  0  0  0  0  0  0  0  0  0
   10.6270  -18.4609   25.9357 C   0  0  0  0  0  0  0  0  0  0  0  0
    9.7743  -17.2852   26.3414 C   0  0  2  0  0  0  0  0  0  0  0  0
    9.7349  -16.3112   25.2776 N   0  0  0  0  0  0  0  0  0  0  0  0
   10.3955  -16.6931   27.5633 C   0  0  0  0  0  0  0  0  0  0  0  0
   10.8114  -15.5120   27.6066 O   0  0  0  0  0  0  0  0  0  0  0  0
   10.4968  -17.5196   28.6738 O   0  0  0  0  0  0  0  0  0  0  0  0
  2  3  2  0
  2  1  1  0
  4  2  1  0
  5  4  1  0
  5  7  1  0
  5  6  1  6
  7  8  2  0
  9 10  1  0
 10 11  2  0
 10 20  1  0
 11 12  1  0
 12 13  2  0
 13 14  1  0
 15 14  1  6
 16  7  1  0
 16 15  1  0
 17 15  1  0
 17 18  2  0
 19 13  1  0
 20 19  2  0
 21 22  1  0
 23 22  1  6
 23 24  1  0
 24 17  1  0
 25 23  1  0
 25 27  1  0
 26 25  2  0
M  END
$$$$
