NYS.pdb
     RDKit          3D

 27 27  0  0  1  0  0  0  0  0999 V2000
    8.4463  -16.1745   15.4384 N   0  0  0  0  0  0  0  0  0  0  0  0
    7.7860  -16.6918   16.5817 C   0  0  0  0  0  0  0  0  0  0  0  0
    7.1182  -17.7526   16.4122 O   0  0  0  0  0  0  0  0  0  0  0  0
    7.8784  -16.0195   17.9017 C   0  0  0  0  0  0  0  0  0  0  0  0
    8.6756  -16.8919   18.8223 C   0  0  2  0  0  0  0  0  0  0  0  0
    7.9946  -18.1573   18.9432 N   0  0  0  0  0  0  0  0  0  0  0  0
    8.9523  -16.2698   20.1241 C   0  0  0  0  0  0  0  0  0  0  0  0
   10.1425  -16.0184   20.4362 O   0  0  0  0  0  0  0  0  0  0  0  0
    7.4791  -12.3734   27.9254 O   0  0  0  0  0  0  0  0  0  0  0  0
    7.3704  -12.8751   26.6245 C   0  0  0  0  0  0  0  0  0  0  0  0
    6.7189  -14.0670   26.3949 C   0  0  0  0  0  0  0  0  0  0  0  0
    6.5966  -14.5807   25.1420 C   0  0  0  0  0  0  0  0  0  0  0  0
    7.1284  -13.9177   24.0377 C   0  0  0  0  0  0  0  0  0  0  0  0
    6.9804  -14.5144   22.6915 C   0  0  0  0  0  0  0  0  0  0  0  0
    8.1524  -15.3451   22.2742 C   0  0  2  0  0  0  0  0  0  0  0  0
    7.8968  -15.9645   20.9996 N   0  0  0  0  0  0  0  0  0  0  0  0
    8.6080  -16.3457   23.2545 C   0  0  0  0  0  0  0  0  0  0  0  0
    7.9244  -17.3892   23.4032 O   0  0  0  0  0  0  0  0  0  0  0  0
    7.7803  -12.7253   24.2665 C   0  0  0  0  0  0  0  0  0  0  0  0
    7.9095  -12.1939   25.5418 C   0  0  0  0  0  0  0  0  0  0  0  0
   12.3317  -17.0253   23.8238 O   0  0  0  0  0  0  0  0  0  0  0  0
   11.4419  -17.9118   24.4299 C   0  0  0  0  0  0  0  0  0  0  0  0
   10.2508  -17.1783   24.9933 C   0  0  2  0  0  0  0  0  0  0  0  0
    9.7756  -16.2017   24.0433 N   0  0  0  0  0  0  0  0  0  0  0  0
   10.7025  -16.5047   26.2469 C   0  0  0  0  0  0  0  0  0  0  0  0
   10.6383  -15.2639   26.4095 O   0  0  0  0  0  0  0  0  0  0  0  0
   11.2075  -17.3237   27.2473 O   0  0  0  0  0  0  0  0  0  0  0  0
  2  3  2  0
  2  1  1  0
  4  2  1  0
  5  4  1  0
  5  7  1  0
  5  6  1  1
  7  8  2  0
  9 10  1  0
 10 11  2  0
 10 20  1  0
 11 12  1  0
 12 13  2  0
 13 14  1  0
 15 14  1  1
 16  7  1  0
 16 15  1  0
 17 15  1  0
 17 18  2  0
 19 13  1  0
 20 19  2  0
 21 22  1  0
 23 22  1  6
 23 24  1  0
 24 17  1  0
 25 23  1  0
 25 27  1  0
 26 25  2  0
M  END
$$$$
