NYS.pdb
     RDKit          3D

 27 27  0  0  1  0  0  0  0  0999 V2000
    9.2955  -17.6509   18.4309 N   0  0  0  0  0  0  0  0  0  0  0  0
   10.0691  -16.4627   18.4178 C   0  0  0  0  0  0  0  0  0  0  0  0
   10.4414  -16.0478   17.2823 O   0  0  0  0  0  0  0  0  0  0  0  0
   10.4189  -15.7506   19.6722 C   0  0  0  0  0  0  0  0  0  0  0  0
    9.9948  -16.5989   20.8318 C   0  0  2  0  0  0  0  0  0  0  0  0
    8.5547  -16.6751   20.8292 N   0  0  0  0  0  0  0  0  0  0  0  0
   10.5365  -16.1430   22.1191 C   0  0  0  0  0  0  0  0  0  0  0  0
   11.7801  -16.0233   22.2463 O   0  0  0  0  0  0  0  0  0  0  0  0
   10.5811  -14.9940   30.9125 O   0  0  0  0  0  0  0  0  0  0  0  0
   10.2387  -15.0296   29.5570 C   0  0  0  0  0  0  0  0  0  0  0  0
   10.4194  -13.9147   28.7683 C   0  0  0  0  0  0  0  0  0  0  0  0
   10.0963  -13.9179   27.4476 C   0  0  0  0  0  0  0  0  0  0  0  0
    9.5675  -15.0545   26.8392 C   0  0  0  0  0  0  0  0  0  0  0  0
    9.2218  -15.0145   25.4009 C   0  0  0  0  0  0  0  0  0  0  0  0
   10.1576  -15.8018   24.5395 C   0  0  2  0  0  0  0  0  0  0  0  0
    9.6703  -15.8480   23.1852 N   0  0  0  0  0  0  0  0  0  0  0  0
   10.4822  -17.1559   25.0198 C   0  0  0  0  0  0  0  0  0  0  0  0
    9.5665  -18.0156   25.0437 O   0  0  0  0  0  0  0  0  0  0  0  0
    9.3863  -16.1703   27.6276 C   0  0  0  0  0  0  0  0  0  0  0  0
    9.7134  -16.1756   28.9760 C   0  0  0  0  0  0  0  0  0  0  0  0
   13.8222  -18.7720   24.2756 O   0  0  0  0  0  0  0  0  0  0  0  0
   12.8991  -19.6131   24.8963 C   0  0  0  0  0  0  0  0  0  0  0  0
   12.1074  -18.8667   25.9405 C   0  0  2  0  0  0  0  0  0  0  0  0
   11.7703  -17.5491   25.4585 N   0  0  0  0  0  0  0  0  0  0  0  0
   12.9675  -18.7691   27.1570 C   0  0  0  0  0  0  0  0  0  0  0  0
   13.3542  -17.6737   27.6265 O   0  0  0  0  0  0  0  0  0  0  0  0
   13.3302  -19.9649   27.7613 O   0  0  0  0  0  0  0  0  0  0  0  0
  2  3  2  0
  2  1  1  0
  4  2  1  0
  5  4  1  0
  5  7  1  0
  5  6  1  1
  7  8  2  0
  9 10  1  0
 10 11  2  0
 10 20  1  0
 11 12  1  0
 12 13  2  0
 13 14  1  0
 15 14  1  1
 16  7  1  0
 16 15  1  0
 17 15  1  0
 17 18  2  0
 19 13  1  0
 20 19  2  0
 21 22  1  0
 23 22  1  6
 23 24  1  0
 24 17  1  0
 25 23  1  0
 25 27  1  0
 26 25  2  0
M  END
$$$$
