NYS.pdb
     RDKit          3D

 27 27  0  0  1  0  0  0  0  0999 V2000
    7.5939  -13.7050   17.2906 N   0  0  0  0  0  0  0  0  0  0  0  0
    8.4684  -14.1175   18.3277 C   0  0  0  0  0  0  0  0  0  0  0  0
    9.6408  -14.4396   17.9784 O   0  0  0  0  0  0  0  0  0  0  0  0
    8.0248  -14.1663   19.7432 C   0  0  0  0  0  0  0  0  0  0  0  0
    8.3839  -15.5074   20.3057 C   0  0  2  0  0  0  0  0  0  0  0  0
    7.6109  -16.5071   19.6109 N   0  0  0  0  0  0  0  0  0  0  0  0
    8.2356  -15.5885   21.7651 C   0  0  0  0  0  0  0  0  0  0  0  0
    7.0851  -15.7149   22.2524 O   0  0  0  0  0  0  0  0  0  0  0  0
   10.3781  -15.9595   30.3319 O   0  0  0  0  0  0  0  0  0  0  0  0
   10.3952  -16.0127   28.9345 C   0  0  0  0  0  0  0  0  0  0  0  0
   10.9037  -14.9584   28.2082 C   0  0  0  0  0  0  0  0  0  0  0  0
   10.9342  -14.9802   26.8491 C   0  0  0  0  0  0  0  0  0  0  0  0
   10.4498  -16.0752   26.1362 C   0  0  0  0  0  0  0  0  0  0  0  0
   10.4942  -16.0564   24.6571 C   0  0  0  0  0  0  0  0  0  0  0  0
    9.2334  -15.5539   24.0281 C   0  0  2  0  0  0  0  0  0  0  0  0
    9.3677  -15.5250   22.5947 N   0  0  0  0  0  0  0  0  0  0  0  0
    8.7413  -14.2590   24.5288 C   0  0  0  0  0  0  0  0  0  0  0  0
    9.3803  -13.2207   24.2257 O   0  0  0  0  0  0  0  0  0  0  0  0
    9.9410  -17.1304   26.8621 C   0  0  0  0  0  0  0  0  0  0  0  0
    9.9061  -17.1163   28.2491 C   0  0  0  0  0  0  0  0  0  0  0  0
    5.3302  -14.0939   26.8843 O   0  0  0  0  0  0  0  0  0  0  0  0
    5.6034  -12.9654   26.1117 C   0  0  0  0  0  0  0  0  0  0  0  0
    7.0797  -12.8537   25.8248 C   0  0  2  0  0  0  0  0  0  0  0  0
    7.5859  -14.1130   25.3349 N   0  0  0  0  0  0  0  0  0  0  0  0
    7.7502  -12.4897   27.1082 C   0  0  0  0  0  0  0  0  0  0  0  0
    8.5941  -13.2300   27.6648 O   0  0  0  0  0  0  0  0  0  0  0  0
    7.3950  -11.2728   27.6736 O   0  0  0  0  0  0  0  0  0  0  0  0
  2  3  2  0
  2  1  1  0
  4  2  1  0
  5  4  1  0
  5  7  1  0
  5  6  1  6
  7  8  2  0
  9 10  1  0
 10 11  2  0
 10 20  1  0
 11 12  1  0
 12 13  2  0
 13 14  1  0
 15 14  1  1
 16  7  1  0
 16 15  1  0
 17 15  1  0
 17 18  2  0
 19 13  1  0
 20 19  2  0
 21 22  1  0
 23 22  1  1
 23 24  1  0
 24 17  1  0
 25 23  1  0
 25 27  1  0
 26 25  2  0
M  END
$$$$
