NYS.pdb
     RDKit          3D

 27 27  0  0  1  0  0  0  0  0999 V2000
   10.3856  -22.1761   26.5770 N   0  0  0  0  0  0  0  0  0  0  0  0
   10.0826  -21.3841   27.7134 C   0  0  0  0  0  0  0  0  0  0  0  0
    9.9612  -22.0008   28.8112 O   0  0  0  0  0  0  0  0  0  0  0  0
    9.9186  -19.9125   27.6122 C   0  0  0  0  0  0  0  0  0  0  0  0
   10.0161  -19.5236   26.1689 C   0  0  2  0  0  0  0  0  0  0  0  0
   11.3941  -19.6482   25.7625 N   0  0  0  0  0  0  0  0  0  0  0  0
    9.4577  -18.1954   25.8818 C   0  0  0  0  0  0  0  0  0  0  0  0
    8.2427  -17.9835   26.1180 O   0  0  0  0  0  0  0  0  0  0  0  0
   10.5618  -15.0615   31.2424 O   0  0  0  0  0  0  0  0  0  0  0  0
   10.5580  -15.0155   29.8446 C   0  0  0  0  0  0  0  0  0  0  0  0
    9.6993  -14.1657   29.1827 C   0  0  0  0  0  0  0  0  0  0  0  0
    9.6718  -14.0980   27.8250 C   0  0  0  0  0  0  0  0  0  0  0  0
   10.5154  -14.8895   27.0482 C   0  0  0  0  0  0  0  0  0  0  0  0
   10.4491  -14.7914   25.5731 C   0  0  0  0  0  0  0  0  0  0  0  0
    9.7161  -15.9265   24.9313 C   0  0  2  0  0  0  0  0  0  0  0  0
   10.2769  -17.1844   25.3519 N   0  0  0  0  0  0  0  0  0  0  0  0
    9.6111  -15.8709   23.4631 C   0  0  0  0  0  0  0  0  0  0  0  0
    9.1286  -14.8364   22.9385 O   0  0  0  0  0  0  0  0  0  0  0  0
   11.3749  -15.7400   27.7096 C   0  0  0  0  0  0  0  0  0  0  0  0
   11.4094  -15.8153   29.0947 C   0  0  0  0  0  0  0  0  0  0  0  0
   12.2325  -16.1569   20.9525 O   0  0  0  0  0  0  0  0  0  0  0  0
   10.9144  -15.8299   20.6355 C   0  0  0  0  0  0  0  0  0  0  0  0
    9.9595  -16.8714   21.1624 C   0  0  2  0  0  0  0  0  0  0  0  0
   10.0232  -16.9183   22.6032 N   0  0  0  0  0  0  0  0  0  0  0  0
   10.3759  -18.1826   20.5823 C   0  0  0  0  0  0  0  0  0  0  0  0
   10.4224  -18.3926   19.3479 O   0  0  0  0  0  0  0  0  0  0  0  0
   10.7171  -19.1822   21.4829 O   0  0  0  0  0  0  0  0  0  0  0  0
  2  3  2  0
  2  1  1  0
  4  2  1  0
  5  4  1  0
  5  7  1  0
  5  6  1  1
  7  8  2  0
  9 10  1  0
 10 11  2  0
 10 20  1  0
 11 12  1  0
 12 13  2  0
 13 14  1  0
 15 14  1  6
 16  7  1  0
 16 15  1  0
 17 15  1  0
 17 18  2  0
 19 13  1  0
 20 19  2  0
 21 22  1  0
 23 22  1  6
 23 24  1  0
 24 17  1  0
 25 23  1  0
 25 27  1  0
 26 25  2  0
M  END
$$$$
