NYS.pdb
     RDKit          3D

 27 27  0  0  1  0  0  0  0  0999 V2000
    7.7982  -14.8781   16.5454 N   0  0  0  0  0  0  0  0  0  0  0  0
    7.3396  -15.0986   17.8689 C   0  0  0  0  0  0  0  0  0  0  0  0
    6.0952  -15.2777   18.0092 O   0  0  0  0  0  0  0  0  0  0  0  0
    8.2747  -15.1169   19.0213 C   0  0  0  0  0  0  0  0  0  0  0  0
    7.8237  -14.0887   20.0129 C   0  0  2  0  0  0  0  0  0  0  0  0
    7.9021  -12.7935   19.3837 N   0  0  0  0  0  0  0  0  0  0  0  0
    8.5528  -14.1455   21.2871 C   0  0  0  0  0  0  0  0  0  0  0  0
    9.7760  -13.8613   21.2999 O   0  0  0  0  0  0  0  0  0  0  0  0
   10.1033  -14.9940   29.9354 O   0  0  0  0  0  0  0  0  0  0  0  0
    9.5196  -14.7664   28.6850 C   0  0  0  0  0  0  0  0  0  0  0  0
    8.9482  -15.8084   27.9882 C   0  0  0  0  0  0  0  0  0  0  0  0
    8.3731  -15.6192   26.7708 C   0  0  0  0  0  0  0  0  0  0  0  0
    8.3399  -14.3580   26.1792 C   0  0  0  0  0  0  0  0  0  0  0  0
    7.7112  -14.1956   24.8494 C   0  0  0  0  0  0  0  0  0  0  0  0
    8.5952  -14.6104   23.7161 C   0  0  2  0  0  0  0  0  0  0  0  0
    7.8848  -14.5126   22.4673 N   0  0  0  0  0  0  0  0  0  0  0  0
    9.2278  -15.9338   23.8502 C   0  0  0  0  0  0  0  0  0  0  0  0
    8.5107  -16.9550   23.7048 O   0  0  0  0  0  0  0  0  0  0  0  0
    8.9114  -13.3150   26.8756 C   0  0  0  0  0  0  0  0  0  0  0  0
    9.5003  -13.4993   28.1184 C   0  0  0  0  0  0  0  0  0  0  0  0
   12.5361  -16.7545   22.3011 O   0  0  0  0  0  0  0  0  0  0  0  0
   11.7959  -17.7972   22.8577 C   0  0  0  0  0  0  0  0  0  0  0  0
   11.2538  -17.4105   24.2107 C   0  0  2  0  0  0  0  0  0  0  0  0
   10.6021  -16.1254   24.1345 N   0  0  0  0  0  0  0  0  0  0  0  0
   12.4148  -17.3479   25.1475 C   0  0  0  0  0  0  0  0  0  0  0  0
   12.7098  -16.3146   25.7918 O   0  0  0  0  0  0  0  0  0  0  0  0
   13.1715  -18.5041   25.2802 O   0  0  0  0  0  0  0  0  0  0  0  0
  2  3  2  0
  2  1  1  0
  4  2  1  0
  5  4  1  0
  5  7  1  0
  5  6  1  6
  7  8  2  0
  9 10  1  0
 10 11  2  0
 10 20  1  0
 11 12  1  0
 12 13  2  0
 13 14  1  0
 15 14  1  1
 16  7  1  0
 16 15  1  0
 17 15  1  0
 17 18  2  0
 19 13  1  0
 20 19  2  0
 21 22  1  0
 23 22  1  6
 23 24  1  0
 24 17  1  0
 25 23  1  0
 25 27  1  0
 26 25  2  0
M  END
$$$$
