VMS.pdb
     RDKit          3D

 22 21  0  0  1  0  0  0  0  0999 V2000
   28.6416  -20.8676  -16.5754 C   0  0  0  0  0  0  0  0  0  0  0  0
   27.3074  -20.3239  -16.1745 C   0  0  2  0  0  0  0  0  0  0  0  0
   27.4661  -18.9513  -15.5946 C   0  0  0  0  0  0  0  0  0  0  0  0
   26.5805  -21.2046  -15.1849 C   0  0  2  0  0  0  0  0  0  0  0  0
   26.2788  -22.5063  -15.6885 N   0  0  0  0  0  0  0  0  0  0  0  0
   25.3413  -20.5428  -14.6762 C   0  0  0  0  0  0  0  0  0  0  0  0
   25.4560  -19.5027  -13.9891 O   0  0  0  0  0  0  0  0  0  0  0  0
   24.2187  -19.7721  -18.6534 C   0  0  0  0  0  0  0  0  0  0  0  0
   22.7117  -18.7970  -18.2827 S   0  0  0  0  0  0  0  0  0  0  0  0
   22.4916  -18.7012  -16.4674 C   0  0  0  0  0  0  0  0  0  0  0  0
   22.0772  -20.0410  -15.9805 C   0  0  0  0  0  0  0  0  0  0  0  0
   22.7913  -20.5057  -14.7190 C   0  0  2  0  0  0  0  0  0  0  0  0
   24.0836  -21.0973  -14.9770 N   0  0  0  0  0  0  0  0  0  0  0  0
   21.9158  -21.4840  -14.0519 C   0  0  0  0  0  0  0  0  0  0  0  0
   21.9876  -22.7214  -14.3582 O   0  0  0  0  0  0  0  0  0  0  0  0
   18.8920  -22.4233  -10.4332 O   0  0  0  0  0  0  0  0  0  0  0  0
   19.6005  -21.4695  -11.1528 C   0  0  0  0  0  0  0  0  0  0  0  0
   20.1464  -22.1127  -12.4329 C   0  0  2  0  0  0  0  0  0  0  0  0
   20.9725  -21.1040  -13.0592 N   0  0  0  0  0  0  0  0  0  0  0  0
   19.0655  -22.5252  -13.3357 C   0  0  0  0  0  0  0  0  0  0  0  0
   18.6487  -21.7106  -14.2008 O   0  0  0  0  0  0  0  0  0  0  0  0
   18.4880  -23.7969  -13.2603 O   0  0  0  0  0  0  0  0  0  0  0  0
  2  1  1  1
  2  3  1  0
  4  2  1  0
  4  6  1  0
  4  5  1  6
  6 13  1  0
  6  7  2  0
  8  9  1  0
  9 10  1  0
 10 11  1  0
 12 11  1  6
 12 14  1  0
 13 12  1  0
 14 15  2  0
 16 17  1  0
 18 17  1  1
 18 20  1  0
 19 14  1  0
 19 18  1  0
 20 22  1  0
 21 20  2  0
M  END
$$$$
