VMS.pdb
     RDKit          3D

 22 21  0  0  1  0  0  0  0  0999 V2000
   21.1785  -19.1815   -8.3047 C   0  0  0  0  0  0  0  0  0  0  0  0
   20.9772  -20.3728   -9.1860 C   0  0  2  0  0  0  0  0  0  0  0  0
   19.7408  -21.1125   -8.7742 C   0  0  0  0  0  0  0  0  0  0  0  0
   22.1535  -21.3212   -9.1801 C   0  0  2  0  0  0  0  0  0  0  0  0
   22.4036  -21.9177   -7.9070 N   0  0  0  0  0  0  0  0  0  0  0  0
   23.3889  -20.6581   -9.6963 C   0  0  0  0  0  0  0  0  0  0  0  0
   23.3176  -20.0031  -10.7606 O   0  0  0  0  0  0  0  0  0  0  0  0
   27.5507  -20.4125   -4.7005 C   0  0  0  0  0  0  0  0  0  0  0  0
   27.9182  -19.1179   -5.9448 S   0  0  0  0  0  0  0  0  0  0  0  0
   26.5847  -19.0973   -7.1996 C   0  0  0  0  0  0  0  0  0  0  0  0
   26.8623  -20.1704   -8.1871 C   0  0  0  0  0  0  0  0  0  0  0  0
   25.8796  -20.2330   -9.3480 C   0  0  2  0  0  0  0  0  0  0  0  0
   24.5949  -20.7830   -8.9823 N   0  0  0  0  0  0  0  0  0  0  0  0
   26.4956  -21.0554  -10.4030 C   0  0  0  0  0  0  0  0  0  0  0  0
   26.4510  -22.3293  -10.3300 O   0  0  0  0  0  0  0  0  0  0  0  0
   25.3236  -21.6379  -14.4046 O   0  0  0  0  0  0  0  0  0  0  0  0
   25.5211  -21.1104  -13.1349 C   0  0  0  0  0  0  0  0  0  0  0  0
   27.0225  -21.1012  -12.8252 C   0  0  2  0  0  0  0  0  0  0  0  0
   27.1528  -20.4816  -11.5247 N   0  0  0  0  0  0  0  0  0  0  0  0
   27.7788  -20.3475  -13.8318 C   0  0  0  0  0  0  0  0  0  0  0  0
   28.0083  -19.1252  -13.6339 O   0  0  0  0  0  0  0  0  0  0  0  0
   28.2505  -20.9504  -15.0024 O   0  0  0  0  0  0  0  0  0  0  0  0
  2  1  1  1
  2  3  1  0
  4  2  1  0
  4  6  1  0
  4  5  1  1
  6 13  1  0
  6  7  2  0
  8  9  1  0
  9 10  1  0
 10 11  1  0
 12 11  1  1
 12 14  1  0
 13 12  1  0
 14 15  2  0
 16 17  1  0
 18 17  1  6
 18 20  1  0
 19 14  1  0
 19 18  1  0
 20 22  1  0
 21 20  2  0
M  END
$$$$
