VMS.pdb
     RDKit          3D

 22 21  0  0  1  0  0  0  0  0999 V2000
   18.9078  -12.6648  -18.6761 C   0  0  0  0  0  0  0  0  0  0  0  0
   17.7718  -11.7014  -18.5415 C   0  0  2  0  0  0  0  0  0  0  0  0
   16.8205  -11.8668  -19.6873 C   0  0  0  0  0  0  0  0  0  0  0  0
   18.2210  -10.2606  -18.4674 C   0  0  2  0  0  0  0  0  0  0  0  0
   18.8609   -9.7969  -19.6567 N   0  0  0  0  0  0  0  0  0  0  0  0
   19.0956  -10.0244  -17.2793 C   0  0  0  0  0  0  0  0  0  0  0  0
   18.6343  -10.2578  -16.1393 O   0  0  0  0  0  0  0  0  0  0  0  0
   26.4800  -10.7384  -14.8413 C   0  0  0  0  0  0  0  0  0  0  0  0
   25.2825  -10.6972  -16.2283 S   0  0  0  0  0  0  0  0  0  0  0  0
   23.7569   -9.8474  -15.6776 C   0  0  0  0  0  0  0  0  0  0  0  0
   22.7505   -9.9535  -16.7638 C   0  0  0  0  0  0  0  0  0  0  0  0
   21.4014   -9.3265  -16.4413 C   0  0  2  0  0  0  0  0  0  0  0  0
   20.4068   -9.5488  -17.4651 N   0  0  0  0  0  0  0  0  0  0  0  0
   21.6193   -7.8815  -16.2587 C   0  0  0  0  0  0  0  0  0  0  0  0
   21.8969   -7.1437  -17.2630 O   0  0  0  0  0  0  0  0  0  0  0  0
   20.3954   -3.8482  -14.7486 O   0  0  0  0  0  0  0  0  0  0  0  0
   20.3098   -5.2184  -14.9604 C   0  0  0  0  0  0  0  0  0  0  0  0
   21.7147   -5.8261  -14.8755 C   0  0  2  0  0  0  0  0  0  0  0  0
   21.5324   -7.2568  -14.9852 N   0  0  0  0  0  0  0  0  0  0  0  0
   22.3761   -5.4877  -13.6100 C   0  0  0  0  0  0  0  0  0  0  0  0
   22.3891   -6.3385  -12.6816 O   0  0  0  0  0  0  0  0  0  0  0  0
   22.9912   -4.2477  -13.4090 O   0  0  0  0  0  0  0  0  0  0  0  0
  2  1  1  6
  2  3  1  0
  4  2  1  0
  4  6  1  0
  4  5  1  6
  6 13  1  0
  6  7  2  0
  8  9  1  0
  9 10  1  0
 10 11  1  0
 12 11  1  6
 12 14  1  0
 13 12  1  0
 14 15  2  0
 16 17  1  0
 18 17  1  1
 18 20  1  0
 19 14  1  0
 19 18  1  0
 20 22  1  0
 21 20  2  0
M  END
$$$$
