VMS.pdb
     RDKit          3D

 22 21  0  0  1  0  0  0  0  0999 V2000
   22.1511  -13.9455  -17.5890 C   0  0  0  0  0  0  0  0  0  0  0  0
   20.7001  -13.7649  -17.9029 C   0  0  2  0  0  0  0  0  0  0  0  0
   20.3260  -14.5934  -19.0941 C   0  0  0  0  0  0  0  0  0  0  0  0
   20.3225  -12.3239  -18.1565 C   0  0  2  0  0  0  0  0  0  0  0  0
   20.8710  -11.7905  -19.3622 N   0  0  0  0  0  0  0  0  0  0  0  0
   20.6785  -11.4560  -16.9936 C   0  0  0  0  0  0  0  0  0  0  0  0
   20.2656  -11.7780  -15.8566 O   0  0  0  0  0  0  0  0  0  0  0  0
   26.8701  -10.6097  -14.5382 C   0  0  0  0  0  0  0  0  0  0  0  0
   25.8396   -9.4134  -15.4690 S   0  0  0  0  0  0  0  0  0  0  0  0
   24.0993   -9.9828  -15.4537 C   0  0  0  0  0  0  0  0  0  0  0  0
   23.2752   -8.9702  -16.1604 C   0  0  0  0  0  0  0  0  0  0  0  0
   21.7890   -9.2934  -16.2217 C   0  0  2  0  0  0  0  0  0  0  0  0
   21.4625  -10.3058  -17.1990 N   0  0  0  0  0  0  0  0  0  0  0  0
   21.0786   -8.0429  -16.5383 C   0  0  0  0  0  0  0  0  0  0  0  0
   21.0425   -7.6134  -17.7401 O   0  0  0  0  0  0  0  0  0  0  0  0
   17.6180   -6.8825  -15.2392 O   0  0  0  0  0  0  0  0  0  0  0  0
   18.5645   -5.9094  -14.9446 C   0  0  0  0  0  0  0  0  0  0  0  0
   19.7436   -6.0490  -15.9144 C   0  0  2  0  0  0  0  0  0  0  0  0
   20.4161   -7.2746  -15.5431 N   0  0  0  0  0  0  0  0  0  0  0  0
   20.6625   -4.9089  -15.8180 C   0  0  0  0  0  0  0  0  0  0  0  0
   21.8038   -5.0857  -15.3162 O   0  0  0  0  0  0  0  0  0  0  0  0
   20.3041   -3.6341  -16.2684 O   0  0  0  0  0  0  0  0  0  0  0  0
  2  1  1  6
  2  3  1  0
  4  2  1  0
  4  6  1  0
  4  5  1  6
  6 13  1  0
  6  7  2  0
  8  9  1  0
  9 10  1  0
 10 11  1  0
 12 11  1  6
 12 14  1  0
 13 12  1  0
 14 15  2  0
 16 17  1  0
 18 17  1  1
 18 20  1  0
 19 14  1  0
 19 18  1  0
 20 22  1  0
 21 20  2  0
M  END
$$$$
