VMS.pdb
     RDKit          3D

 22 21  0  0  1  0  0  0  0  0999 V2000
   29.4612  -19.4718  -14.1922 C   0  0  0  0  0  0  0  0  0  0  0  0
   28.7208  -19.6375  -15.4809 C   0  0  2  0  0  0  0  0  0  0  0  0
   29.1371  -18.5750  -16.4520 C   0  0  0  0  0  0  0  0  0  0  0  0
   27.2196  -19.6013  -15.3120 C   0  0  2  0  0  0  0  0  0  0  0  0
   26.6957  -18.2877  -15.1148 N   0  0  0  0  0  0  0  0  0  0  0  0
   26.7742  -20.5102  -14.2130 C   0  0  0  0  0  0  0  0  0  0  0  0
   27.0264  -21.7327  -14.3068 O   0  0  0  0  0  0  0  0  0  0  0  0
   27.2486  -20.2712   -7.7909 C   0  0  0  0  0  0  0  0  0  0  0  0
   25.4275  -20.2370   -7.9956 S   0  0  0  0  0  0  0  0  0  0  0  0
   24.9910  -20.9966   -9.6035 C   0  0  0  0  0  0  0  0  0  0  0  0
   25.6148  -20.1884  -10.6813 C   0  0  0  0  0  0  0  0  0  0  0  0
   25.3780  -20.7182  -12.0886 C   0  0  2  0  0  0  0  0  0  0  0  0
   26.0870  -19.9780  -13.1065 N   0  0  0  0  0  0  0  0  0  0  0  0
   23.9287  -20.6597  -12.3435 C   0  0  0  0  0  0  0  0  0  0  0  0
   23.3389  -19.5307  -12.4311 O   0  0  0  0  0  0  0  0  0  0  0  0
   20.7201  -22.8488  -14.6364 O   0  0  0  0  0  0  0  0  0  0  0  0
   21.3133  -23.0599  -13.3982 C   0  0  0  0  0  0  0  0  0  0  0  0
   21.7304  -21.7085  -12.8068 C   0  0  2  0  0  0  0  0  0  0  0  0
   23.1387  -21.8305  -12.4999 N   0  0  0  0  0  0  0  0  0  0  0  0
   20.9663  -21.3878  -11.5957 C   0  0  0  0  0  0  0  0  0  0  0  0
   21.4923  -21.5928  -10.4701 O   0  0  0  0  0  0  0  0  0  0  0  0
   19.6721  -20.8612  -11.6594 O   0  0  0  0  0  0  0  0  0  0  0  0
  2  1  1  1
  2  3  1  0
  4  2  1  0
  4  6  1  0
  4  5  1  1
  6 13  1  0
  6  7  2  0
  8  9  1  0
  9 10  1  0
 10 11  1  0
 12 11  1  1
 12 14  1  0
 13 12  1  0
 14 15  2  0
 16 17  1  0
 18 17  1  1
 18 20  1  0
 19 14  1  0
 19 18  1  0
 20 22  1  0
 21 20  2  0
M  END
$$$$
