VMS.pdb
     RDKit          3D

 22 21  0  0  1  0  0  0  0  0999 V2000
   18.4373  -24.4176   -5.5267 C   0  0  0  0  0  0  0  0  0  0  0  0
   17.3563  -24.7172   -6.5157 C   0  0  2  0  0  0  0  0  0  0  0  0
   16.6491  -25.9822   -6.1350 C   0  0  0  0  0  0  0  0  0  0  0  0
   17.8650  -24.8351   -7.9336 C   0  0  2  0  0  0  0  0  0  0  0  0
   19.2793  -25.0105   -8.0234 N   0  0  0  0  0  0  0  0  0  0  0  0
   17.4305  -23.6724   -8.7653 C   0  0  0  0  0  0  0  0  0  0  0  0
   16.2277  -23.3274   -8.7315 O   0  0  0  0  0  0  0  0  0  0  0  0
   22.4526  -20.4254  -10.9786 C   0  0  0  0  0  0  0  0  0  0  0  0
   21.6764  -20.4850   -9.3193 S   0  0  0  0  0  0  0  0  0  0  0  0
   19.8729  -20.2190   -9.4915 C   0  0  0  0  0  0  0  0  0  0  0  0
   19.3963  -21.0168  -10.6492 C   0  0  0  0  0  0  0  0  0  0  0  0
   18.1383  -21.8314  -10.3826 C   0  0  2  0  0  0  0  0  0  0  0  0
   18.3733  -22.9965   -9.5617 N   0  0  0  0  0  0  0  0  0  0  0  0
   17.5924  -22.2393  -11.6881 C   0  0  0  0  0  0  0  0  0  0  0  0
   18.0484  -23.2761  -12.2773 O   0  0  0  0  0  0  0  0  0  0  0  0
   14.0154  -22.9151  -12.5598 O   0  0  0  0  0  0  0  0  0  0  0  0
   14.4643  -21.9010  -13.3963 C   0  0  0  0  0  0  0  0  0  0  0  0
   15.9833  -22.0255  -13.5622 C   0  0  2  0  0  0  0  0  0  0  0  0
   16.5567  -21.5139  -12.3367 N   0  0  0  0  0  0  0  0  0  0  0  0
   16.4672  -21.2582  -14.7157 C   0  0  0  0  0  0  0  0  0  0  0  0
   16.5183  -20.0025  -14.6354 O   0  0  0  0  0  0  0  0  0  0  0  0
   16.8724  -21.8842  -15.8990 O   0  0  0  0  0  0  0  0  0  0  0  0
  2  1  1  1
  2  3  1  0
  4  2  1  0
  4  6  1  0
  4  5  1  1
  6 13  1  0
  6  7  2  0
  8  9  1  0
  9 10  1  0
 10 11  1  0
 12 11  1  6
 12 14  1  0
 13 12  1  0
 14 15  2  0
 16 17  1  0
 18 17  1  1
 18 20  1  0
 19 14  1  0
 19 18  1  0
 20 22  1  0
 21 20  2  0
M  END
$$$$
