VMS.pdb
     RDKit          3D

 22 21  0  0  1  0  0  0  0  0999 V2000
   15.9353  -16.0451  -17.2157 C   0  0  0  0  0  0  0  0  0  0  0  0
   16.7988  -16.0055  -15.9954 C   0  0  2  0  0  0  0  0  0  0  0  0
   15.9542  -16.1389  -14.7648 C   0  0  0  0  0  0  0  0  0  0  0  0
   17.6311  -14.7481  -15.8976 C   0  0  2  0  0  0  0  0  0  0  0  0
   18.4498  -14.6910  -14.7291 N   0  0  0  0  0  0  0  0  0  0  0  0
   16.7803  -13.5240  -15.9979 C   0  0  0  0  0  0  0  0  0  0  0  0
   16.1542  -13.3145  -17.0614 O   0  0  0  0  0  0  0  0  0  0  0  0
   10.9146  -12.1657  -12.7773 C   0  0  0  0  0  0  0  0  0  0  0  0
   12.6346  -11.6356  -12.4306 S   0  0  0  0  0  0  0  0  0  0  0  0
   13.6355  -11.8162  -13.9533 C   0  0  0  0  0  0  0  0  0  0  0  0
   15.0058  -11.3218  -13.6673 C   0  0  0  0  0  0  0  0  0  0  0  0
   15.9662  -11.3990  -14.8458 C   0  0  2  0  0  0  0  0  0  0  0  0
   16.7018  -12.6408  -14.9054 N   0  0  0  0  0  0  0  0  0  0  0  0
   16.9011  -10.2672  -14.7273 C   0  0  0  0  0  0  0  0  0  0  0  0
   17.8613  -10.3149  -13.8871 O   0  0  0  0  0  0  0  0  0  0  0  0
   19.0416   -6.5291  -16.6504 O   0  0  0  0  0  0  0  0  0  0  0  0
   18.1771   -7.6121  -16.7463 C   0  0  0  0  0  0  0  0  0  0  0  0
   17.7102   -8.0052  -15.3400 C   0  0  2  0  0  0  0  0  0  0  0  0
   16.7798   -9.0972  -15.5246 N   0  0  0  0  0  0  0  0  0  0  0  0
   17.0580   -6.8848  -14.6525 C   0  0  0  0  0  0  0  0  0  0  0  0
   15.8211   -6.7084  -14.8106 O   0  0  0  0  0  0  0  0  0  0  0  0
   17.7729   -6.0100  -13.8279 O   0  0  0  0  0  0  0  0  0  0  0  0
  2  1  1  6
  2  3  1  0
  4  2  1  0
  4  6  1  0
  4  5  1  1
  6 13  1  0
  6  7  2  0
  8  9  1  0
  9 10  1  0
 10 11  1  0
 12 11  1  1
 12 14  1  0
 13 12  1  0
 14 15  2  0
 16 17  1  0
 18 17  1  6
 18 20  1  0
 19 14  1  0
 19 18  1  0
 20 22  1  0
 21 20  2  0
M  END
$$$$
