VMS.pdb
     RDKit          3D

 22 21  0  0  1  0  0  0  0  0999 V2000
   28.3520  -17.6684  -14.4398 C   0  0  0  0  0  0  0  0  0  0  0  0
   27.8865  -17.6708  -15.8610 C   0  0  2  0  0  0  0  0  0  0  0  0
   27.5585  -16.2748  -16.2957 C   0  0  0  0  0  0  0  0  0  0  0  0
   26.6880  -18.5617  -16.0916 C   0  0  2  0  0  0  0  0  0  0  0  0
   25.4462  -17.8574  -16.1206 N   0  0  0  0  0  0  0  0  0  0  0  0
   26.6347  -19.6706  -15.0917 C   0  0  0  0  0  0  0  0  0  0  0  0
   27.5740  -20.4975  -15.0628 O   0  0  0  0  0  0  0  0  0  0  0  0
   26.5295  -20.1519   -8.8565 C   0  0  0  0  0  0  0  0  0  0  0  0
   24.8834  -20.8715   -9.2196 S   0  0  0  0  0  0  0  0  0  0  0  0
   24.8910  -21.5583  -10.9171 C   0  0  0  0  0  0  0  0  0  0  0  0
   25.0920  -20.4368  -11.8688 C   0  0  0  0  0  0  0  0  0  0  0  0
   25.2297  -20.8583  -13.3250 C   0  0  2  0  0  0  0  0  0  0  0  0
   25.5402  -19.7614  -14.2122 N   0  0  0  0  0  0  0  0  0  0  0  0
   23.9576  -21.4828  -13.7253 C   0  0  0  0  0  0  0  0  0  0  0  0
   22.9028  -20.7722  -13.8381 O   0  0  0  0  0  0  0  0  0  0  0  0
   23.3198  -25.5145  -13.6694 O   0  0  0  0  0  0  0  0  0  0  0  0
   22.8842  -24.8817  -14.8267 C   0  0  0  0  0  0  0  0  0  0  0  0
   22.6076  -23.4062  -14.5160 C   0  0  2  0  0  0  0  0  0  0  0  0
   23.8485  -22.8732  -13.9980 N   0  0  0  0  0  0  0  0  0  0  0  0
   21.5310  -23.2524  -13.5307 C   0  0  0  0  0  0  0  0  0  0  0  0
   21.8124  -22.8208  -12.3816 O   0  0  0  0  0  0  0  0  0  0  0  0
   20.2036  -23.5719  -13.8344 O   0  0  0  0  0  0  0  0  0  0  0  0
  2  1  1  1
  2  3  1  0
  4  2  1  0
  4  6  1  0
  4  5  1  1
  6 13  1  0
  6  7  2  0
  8  9  1  0
  9 10  1  0
 10 11  1  0
 12 11  1  1
 12 14  1  0
 13 12  1  0
 14 15  2  0
 16 17  1  0
 18 17  1  1
 18 20  1  0
 19 14  1  0
 19 18  1  0
 20 22  1  0
 21 20  2  0
M  END
$$$$
