VMS.pdb
     RDKit          3D

 22 21  0  0  1  0  0  0  0  0999 V2000
   27.8687  -23.8003  -15.5339 C   0  0  0  0  0  0  0  0  0  0  0  0
   27.4465  -23.2426  -16.8558 C   0  0  2  0  0  0  0  0  0  0  0  0
   28.6413  -22.7324  -17.6024 C   0  0  0  0  0  0  0  0  0  0  0  0
   26.4226  -22.1380  -16.7344 C   0  0  2  0  0  0  0  0  0  0  0  0
   26.9920  -20.8519  -16.4884 N   0  0  0  0  0  0  0  0  0  0  0  0
   25.3959  -22.4601  -15.6978 C   0  0  0  0  0  0  0  0  0  0  0  0
   24.7460  -23.5243  -15.8080 O   0  0  0  0  0  0  0  0  0  0  0  0
   26.1868  -20.0950   -9.9786 C   0  0  0  0  0  0  0  0  0  0  0  0
   24.4685  -20.6139   -9.6075 S   0  0  0  0  0  0  0  0  0  0  0  0
   23.7038  -21.2863  -11.1293 C   0  0  0  0  0  0  0  0  0  0  0  0
   24.6891  -21.1675  -12.2334 C   0  0  0  0  0  0  0  0  0  0  0  0
   24.2043  -21.6979  -13.5754 C   0  0  2  0  0  0  0  0  0  0  0  0
   25.1830  -21.5690  -14.6299 N   0  0  0  0  0  0  0  0  0  0  0  0
   22.9844  -20.9526  -13.9291 C   0  0  0  0  0  0  0  0  0  0  0  0
   23.0635  -19.7334  -14.2996 O   0  0  0  0  0  0  0  0  0  0  0  0
   18.7679  -21.0752  -15.9230 O   0  0  0  0  0  0  0  0  0  0  0  0
   19.9426  -21.6687  -15.4789 C   0  0  0  0  0  0  0  0  0  0  0  0
   20.5480  -20.8072  -14.3647 C   0  0  2  0  0  0  0  0  0  0  0  0
   21.6929  -21.5433  -13.8755 N   0  0  0  0  0  0  0  0  0  0  0  0
   19.5878  -20.5701  -13.2806 C   0  0  0  0  0  0  0  0  0  0  0  0
   19.6459  -21.2863  -12.2464 O   0  0  0  0  0  0  0  0  0  0  0  0
   18.6123  -19.5714  -13.3661 O   0  0  0  0  0  0  0  0  0  0  0  0
  2  1  1  1
  2  3  1  0
  4  2  1  0
  4  6  1  0
  4  5  1  1
  6 13  1  0
  6  7  2  0
  8  9  1  0
  9 10  1  0
 10 11  1  0
 12 11  1  1
 12 14  1  0
 13 12  1  0
 14 15  2  0
 16 17  1  0
 18 17  1  6
 18 20  1  0
 19 14  1  0
 19 18  1  0
 20 22  1  0
 21 20  2  0
M  END
$$$$
