VMS.pdb
     RDKit          3D

 22 21  0  0  1  0  0  0  0  0999 V2000
   18.5754  -14.3200  -15.3511 C   0  0  0  0  0  0  0  0  0  0  0  0
   17.4994  -13.2949  -15.5179 C   0  0  2  0  0  0  0  0  0  0  0  0
   17.0166  -13.2841  -16.9363 C   0  0  0  0  0  0  0  0  0  0  0  0
   17.9400  -11.9030  -15.1281 C   0  0  2  0  0  0  0  0  0  0  0  0
   18.8314  -11.8742  -14.0130 N   0  0  0  0  0  0  0  0  0  0  0  0
   16.7672  -11.0111  -14.8806 C   0  0  0  0  0  0  0  0  0  0  0  0
   15.8998  -10.8988  -15.7762 O   0  0  0  0  0  0  0  0  0  0  0  0
   12.0203  -10.6334  -10.2485 C   0  0  0  0  0  0  0  0  0  0  0  0
   13.2326   -9.2936   -9.9409 S   0  0  0  0  0  0  0  0  0  0  0  0
   13.9232   -8.7315  -11.5410 C   0  0  0  0  0  0  0  0  0  0  0  0
   14.9861   -9.6852  -11.9466 C   0  0  0  0  0  0  0  0  0  0  0  0
   15.6435   -9.3707  -13.2830 C   0  0  2  0  0  0  0  0  0  0  0  0
   16.6635  -10.3224  -13.6580 N   0  0  0  0  0  0  0  0  0  0  0  0
   16.2281   -8.0230  -13.1803 C   0  0  0  0  0  0  0  0  0  0  0  0
   17.2495   -7.8225  -12.4408 O   0  0  0  0  0  0  0  0  0  0  0  0
   17.0611   -3.8503  -15.2022 O   0  0  0  0  0  0  0  0  0  0  0  0
   16.5481   -5.1409  -15.2229 C   0  0  0  0  0  0  0  0  0  0  0  0
   16.3422   -5.6203  -13.7814 C   0  0  2  0  0  0  0  0  0  0  0  0
   15.6943   -6.9095  -13.8836 N   0  0  0  0  0  0  0  0  0  0  0  0
   15.5108   -4.6866  -13.0132 C   0  0  0  0  0  0  0  0  0  0  0  0
   14.2751   -4.9086  -12.9149 O   0  0  0  0  0  0  0  0  0  0  0  0
   16.0541   -3.5592  -12.3886 O   0  0  0  0  0  0  0  0  0  0  0  0
  2  1  1  6
  2  3  1  0
  4  2  1  0
  4  6  1  0
  4  5  1  1
  6 13  1  0
  6  7  2  0
  8  9  1  0
  9 10  1  0
 10 11  1  0
 12 11  1  1
 12 14  1  0
 13 12  1  0
 14 15  2  0
 16 17  1  0
 18 17  1  6
 18 20  1  0
 19 14  1  0
 19 18  1  0
 20 22  1  0
 21 20  2  0
M  END
$$$$
