VMS.pdb
     RDKit          3D

 22 21  0  0  1  0  0  0  0  0999 V2000
   23.0209  -12.7647  -18.6167 C   0  0  0  0  0  0  0  0  0  0  0  0
   21.5489  -12.5262  -18.5034 C   0  0  2  0  0  0  0  0  0  0  0  0
   20.8224  -13.2859  -19.5712 C   0  0  0  0  0  0  0  0  0  0  0  0
   21.1762  -11.0642  -18.5874 C   0  0  2  0  0  0  0  0  0  0  0  0
   21.4592  -10.4716  -19.8554 N   0  0  0  0  0  0  0  0  0  0  0  0
   21.8151  -10.2766  -17.4902 C   0  0  0  0  0  0  0  0  0  0  0  0
   21.5895  -10.6082  -16.3044 O   0  0  0  0  0  0  0  0  0  0  0  0
   26.7819  -11.4082  -15.3113 C   0  0  0  0  0  0  0  0  0  0  0  0
   25.7374   -9.9100  -15.4653 S   0  0  0  0  0  0  0  0  0  0  0  0
   25.7134   -9.3737  -17.2160 C   0  0  0  0  0  0  0  0  0  0  0  0
   24.8540   -8.1675  -17.3184 C   0  0  0  0  0  0  0  0  0  0  0  0
   23.4099   -8.3797  -16.8865 C   0  0  2  0  0  0  0  0  0  0  0  0
   22.6485   -9.1889  -17.8097 N   0  0  0  0  0  0  0  0  0  0  0  0
   22.7894   -7.0507  -16.7546 C   0  0  0  0  0  0  0  0  0  0  0  0
   22.5379   -6.3552  -17.7953 O   0  0  0  0  0  0  0  0  0  0  0  0
   19.7038   -4.1645  -15.3952 O   0  0  0  0  0  0  0  0  0  0  0  0
   20.3423   -5.3958  -15.4692 C   0  0  0  0  0  0  0  0  0  0  0  0
   21.8589   -5.1761  -15.4254 C   0  0  2  0  0  0  0  0  0  0  0  0
   22.4501   -6.4945  -15.4917 N   0  0  0  0  0  0  0  0  0  0  0  0
   22.2716   -4.4888  -14.1963 C   0  0  0  0  0  0  0  0  0  0  0  0
   22.7884   -5.1611  -13.2652 O   0  0  0  0  0  0  0  0  0  0  0  0
   22.1064   -3.1095  -14.0327 O   0  0  0  0  0  0  0  0  0  0  0  0
  2  1  1  6
  2  3  1  0
  4  2  1  0
  4  6  1  0
  4  5  1  6
  6 13  1  0
  6  7  2  0
  8  9  1  0
  9 10  1  0
 10 11  1  0
 12 11  1  6
 12 14  1  0
 13 12  1  0
 14 15  2  0
 16 17  1  0
 18 17  1  1
 18 20  1  0
 19 14  1  0
 19 18  1  0
 20 22  1  0
 21 20  2  0
M  END
$$$$
