VMS.pdb
     RDKit          3D

 22 21  0  0  1  0  0  0  0  0999 V2000
   12.6877  -23.1246   -9.1950 C   0  0  0  0  0  0  0  0  0  0  0  0
   12.4373  -23.5310   -7.7777 C   0  0  2  0  0  0  0  0  0  0  0  0
   10.9797  -23.3995   -7.4563 C   0  0  0  0  0  0  0  0  0  0  0  0
   13.2441  -22.7331   -6.7799 C   0  0  2  0  0  0  0  0  0  0  0  0
   14.5230  -22.3278   -7.2688 N   0  0  0  0  0  0  0  0  0  0  0  0
   13.3896  -23.4678   -5.4871 C   0  0  0  0  0  0  0  0  0  0  0  0
   12.3990  -24.0838   -5.0327 O   0  0  0  0  0  0  0  0  0  0  0  0
   18.7756  -24.7695   -5.8409 C   0  0  0  0  0  0  0  0  0  0  0  0
   17.1438  -25.5664   -6.0888 S   0  0  0  0  0  0  0  0  0  0  0  0
   16.4467  -26.0240   -4.4586 C   0  0  0  0  0  0  0  0  0  0  0  0
   16.3469  -24.7921   -3.6361 C   0  0  0  0  0  0  0  0  0  0  0  0
   14.9612  -24.1631   -3.6022 C   0  0  2  0  0  0  0  0  0  0  0  0
   14.6250  -23.4518   -4.8137 N   0  0  0  0  0  0  0  0  0  0  0  0
   14.9227  -23.2431   -2.4530 C   0  0  0  0  0  0  0  0  0  0  0  0
   15.3325  -22.0407   -2.5811 O   0  0  0  0  0  0  0  0  0  0  0  0
   12.9276  -22.1666    1.7406 O   0  0  0  0  0  0  0  0  0  0  0  0
   13.1087  -23.0805    0.7104 C   0  0  0  0  0  0  0  0  0  0  0  0
   14.3333  -22.6680   -0.1144 C   0  0  2  0  0  0  0  0  0  0  0  0
   14.4386  -23.6425   -1.1780 N   0  0  0  0  0  0  0  0  0  0  0  0
   15.5557  -22.6591    0.6975 C   0  0  0  0  0  0  0  0  0  0  0  0
   16.2830  -23.6869    0.7168 O   0  0  0  0  0  0  0  0  0  0  0  0
   15.9329  -21.5410    1.4484 O   0  0  0  0  0  0  0  0  0  0  0  0
  2  1  1  6
  2  3  1  0
  4  2  1  0
  4  6  1  0
  4  5  1  6
  6 13  1  0
  6  7  2  0
  8  9  1  0
  9 10  1  0
 10 11  1  0
 12 11  1  6
 12 14  1  0
 13 12  1  0
 14 15  2  0
 16 17  1  0
 18 17  1  1
 18 20  1  0
 19 14  1  0
 19 18  1  0
 20 22  1  0
 21 20  2  0
M  END
$$$$
