VMS.pdb
     RDKit          3D

 22 21  0  0  1  0  0  0  0  0999 V2000
   19.3220  -14.6937  -20.5240 C   0  0  0  0  0  0  0  0  0  0  0  0
   19.6595  -13.7919  -19.3797 C   0  0  2  0  0  0  0  0  0  0  0  0
   19.7680  -12.3758  -19.8572 C   0  0  0  0  0  0  0  0  0  0  0  0
   20.9374  -14.1817  -18.6737 C   0  0  2  0  0  0  0  0  0  0  0  0
   20.9419  -15.5273  -18.1960 N   0  0  0  0  0  0  0  0  0  0  0  0
   21.2558  -13.2338  -17.5635 C   0  0  0  0  0  0  0  0  0  0  0  0
   20.4715  -13.1650  -16.5904 O   0  0  0  0  0  0  0  0  0  0  0  0
   26.4917  -14.4941  -14.9856 C   0  0  0  0  0  0  0  0  0  0  0  0
   25.4418  -13.6421  -16.2230 S   0  0  0  0  0  0  0  0  0  0  0  0
   25.2095  -11.8989  -15.7129 C   0  0  0  0  0  0  0  0  0  0  0  0
   24.3830  -11.2217  -16.7436 C   0  0  0  0  0  0  0  0  0  0  0  0
   22.8905  -11.5044  -16.6455 C   0  0  2  0  0  0  0  0  0  0  0  0
   22.4193  -12.4456  -17.6347 N   0  0  0  0  0  0  0  0  0  0  0  0
   22.1874  -10.2196  -16.8002 C   0  0  0  0  0  0  0  0  0  0  0  0
   22.1269   -9.6564  -17.9444 O   0  0  0  0  0  0  0  0  0  0  0  0
   20.0177   -8.6014  -13.7083 O   0  0  0  0  0  0  0  0  0  0  0  0
   19.5907   -8.4223  -15.0179 C   0  0  0  0  0  0  0  0  0  0  0  0
   20.8153   -8.3438  -15.9368 C   0  0  2  0  0  0  0  0  0  0  0  0
   21.5587   -9.5633  -15.7078 N   0  0  0  0  0  0  0  0  0  0  0  0
   21.6450   -7.1716  -15.6351 C   0  0  0  0  0  0  0  0  0  0  0  0
   21.1727   -6.0216  -15.8357 O   0  0  0  0  0  0  0  0  0  0  0  0
   22.9437   -7.2985  -15.1314 O   0  0  0  0  0  0  0  0  0  0  0  0
  2  1  1  6
  2  3  1  0
  4  2  1  0
  4  6  1  0
  4  5  1  1
  6 13  1  0
  6  7  2  0
  8  9  1  0
  9 10  1  0
 10 11  1  0
 12 11  1  6
 12 14  1  0
 13 12  1  0
 14 15  2  0
 16 17  1  0
 18 17  1  1
 18 20  1  0
 19 14  1  0
 19 18  1  0
 20 22  1  0
 21 20  2  0
M  END
$$$$
