VMS.pdb
     RDKit          3D

 22 21  0  0  1  0  0  0  0  0999 V2000
   25.1833  -23.5645  -12.6216 C   0  0  0  0  0  0  0  0  0  0  0  0
   24.7442  -22.3266  -13.3366 C   0  0  2  0  0  0  0  0  0  0  0  0
   25.1008  -22.4193  -14.7890 C   0  0  0  0  0  0  0  0  0  0  0  0
   25.3361  -21.0637  -12.7553 C   0  0  2  0  0  0  0  0  0  0  0  0
   25.0694  -20.8927  -11.3630 N   0  0  0  0  0  0  0  0  0  0  0  0
   24.9008  -19.8568  -13.5211 C   0  0  0  0  0  0  0  0  0  0  0  0
   23.7264  -19.4476  -13.3784 O   0  0  0  0  0  0  0  0  0  0  0  0
   26.8242  -15.0800  -14.0887 C   0  0  0  0  0  0  0  0  0  0  0  0
   26.0078  -14.9513  -15.7246 S   0  0  0  0  0  0  0  0  0  0  0  0
   26.5536  -16.3461  -16.7780 C   0  0  0  0  0  0  0  0  0  0  0  0
   26.7939  -17.5206  -15.9023 C   0  0  0  0  0  0  0  0  0  0  0  0
   25.5481  -18.0672  -15.2193 C   0  0  2  0  0  0  0  0  0  0  0  0
   25.8111  -19.2120  -14.3786 N   0  0  0  0  0  0  0  0  0  0  0  0
   24.5894  -18.4306  -16.2764 C   0  0  0  0  0  0  0  0  0  0  0  0
   24.8450  -19.3997  -17.0674 O   0  0  0  0  0  0  0  0  0  0  0  0
   20.1833  -17.7916  -18.1512 O   0  0  0  0  0  0  0  0  0  0  0  0
   21.1184  -17.4450  -17.1842 C   0  0  0  0  0  0  0  0  0  0  0  0
   22.4319  -18.1811  -17.4723 C   0  0  2  0  0  0  0  0  0  0  0  0
   23.3638  -17.7350  -16.4600 N   0  0  0  0  0  0  0  0  0  0  0  0
   22.9430  -17.8732  -18.8130 C   0  0  0  0  0  0  0  0  0  0  0  0
   23.6337  -16.8333  -18.9789 O   0  0  0  0  0  0  0  0  0  0  0  0
   22.6836  -18.7031  -19.9086 O   0  0  0  0  0  0  0  0  0  0  0  0
  2  1  1  1
  2  3  1  0
  4  2  1  0
  4  6  1  0
  4  5  1  1
  6 13  1  0
  6  7  2  0
  8  9  1  0
  9 10  1  0
 10 11  1  0
 12 11  1  6
 12 14  1  0
 13 12  1  0
 14 15  2  0
 16 17  1  0
 18 17  1  1
 18 20  1  0
 19 14  1  0
 19 18  1  0
 20 22  1  0
 21 20  2  0
M  END
$$$$
