VMS.pdb
     RDKit          3D

 22 21  0  0  1  0  0  0  0  0999 V2000
   20.6442  -13.7513  -17.1494 C   0  0  0  0  0  0  0  0  0  0  0  0
   19.2863  -13.1337  -17.2560 C   0  0  2  0  0  0  0  0  0  0  0  0
   18.5153  -13.7786  -18.3673 C   0  0  0  0  0  0  0  0  0  0  0  0
   19.3293  -11.6396  -17.4776 C   0  0  2  0  0  0  0  0  0  0  0  0
   19.8635  -11.2628  -18.7471 N   0  0  0  0  0  0  0  0  0  0  0  0
   20.0654  -10.9479  -16.3766 C   0  0  0  0  0  0  0  0  0  0  0  0
   19.6277  -11.0470  -15.2081 O   0  0  0  0  0  0  0  0  0  0  0  0
   26.7047  -10.5180  -14.6789 C   0  0  0  0  0  0  0  0  0  0  0  0
   25.8684  -11.1918  -16.1641 S   0  0  0  0  0  0  0  0  0  0  0  0
   24.0575  -11.1710  -15.8932 C   0  0  0  0  0  0  0  0  0  0  0  0
   23.5831   -9.7727  -16.0459 C   0  0  0  0  0  0  0  0  0  0  0  0
   22.1087   -9.5655  -15.7289 C   0  0  2  0  0  0  0  0  0  0  0  0
   21.2238  -10.2064  -16.6737 N   0  0  0  0  0  0  0  0  0  0  0  0
   21.8608   -8.1139  -15.7142 C   0  0  0  0  0  0  0  0  0  0  0  0
   21.9062   -7.4454  -16.8010 O   0  0  0  0  0  0  0  0  0  0  0  0
   19.4232   -4.5291  -14.1975 O   0  0  0  0  0  0  0  0  0  0  0  0
   19.7800   -5.8715  -14.1995 C   0  0  0  0  0  0  0  0  0  0  0  0
   21.2611   -5.9946  -14.5758 C   0  0  2  0  0  0  0  0  0  0  0  0
   21.5664   -7.4072  -14.5169 N   0  0  0  0  0  0  0  0  0  0  0  0
   22.1192   -5.2442  -13.6517 C   0  0  0  0  0  0  0  0  0  0  0  0
   22.6224   -5.8421  -12.6643 O   0  0  0  0  0  0  0  0  0  0  0  0
   22.3922   -3.8853  -13.8393 O   0  0  0  0  0  0  0  0  0  0  0  0
  2  1  1  6
  2  3  1  0
  4  2  1  0
  4  6  1  0
  4  5  1  6
  6 13  1  0
  6  7  2  0
  8  9  1  0
  9 10  1  0
 10 11  1  0
 12 11  1  6
 12 14  1  0
 13 12  1  0
 14 15  2  0
 16 17  1  0
 18 17  1  1
 18 20  1  0
 19 14  1  0
 19 18  1  0
 20 22  1  0
 21 20  2  0
M  END
$$$$
