VMS.pdb
     RDKit          3D

 22 21  0  0  1  0  0  0  0  0999 V2000
   19.9670  -21.9487  -15.2449 C   0  0  0  0  0  0  0  0  0  0  0  0
   21.1840  -21.2075  -14.7911 C   0  0  2  0  0  0  0  0  0  0  0  0
   22.4100  -21.8066  -15.4102 C   0  0  0  0  0  0  0  0  0  0  0  0
   21.3407  -21.1870  -13.2884 C   0  0  2  0  0  0  0  0  0  0  0  0
   20.2226  -20.6231  -12.6022 N   0  0  0  0  0  0  0  0  0  0  0  0
   22.6026  -20.4974  -12.8828 C   0  0  0  0  0  0  0  0  0  0  0  0
   22.7746  -19.3077  -13.2322 O   0  0  0  0  0  0  0  0  0  0  0  0
   27.8107  -19.5919   -7.4573 C   0  0  0  0  0  0  0  0  0  0  0  0
   26.3886  -20.5307   -8.1322 S   0  0  0  0  0  0  0  0  0  0  0  0
   26.6422  -20.7946   -9.9264 C   0  0  0  0  0  0  0  0  0  0  0  0
   25.4086  -21.4048  -10.4830 C   0  0  0  0  0  0  0  0  0  0  0  0
   24.8657  -20.7147  -11.7265 C   0  0  2  0  0  0  0  0  0  0  0  0
   23.5620  -21.1931  -12.1244 N   0  0  0  0  0  0  0  0  0  0  0  0
   25.8348  -20.9372  -12.8128 C   0  0  0  0  0  0  0  0  0  0  0  0
   25.9827  -22.1038  -13.3102 O   0  0  0  0  0  0  0  0  0  0  0  0
   28.5805  -18.8054  -16.1730 O   0  0  0  0  0  0  0  0  0  0  0  0
   27.8259  -18.6870  -15.0128 C   0  0  0  0  0  0  0  0  0  0  0  0
   27.3081  -20.0725  -14.6097 C   0  0  2  0  0  0  0  0  0  0  0  0
   26.6316  -19.8876  -13.3446 N   0  0  0  0  0  0  0  0  0  0  0  0
   28.4020  -21.0407  -14.4709 C   0  0  0  0  0  0  0  0  0  0  0  0
   28.9287  -21.2084  -13.3394 O   0  0  0  0  0  0  0  0  0  0  0  0
   28.8733  -21.7806  -15.5603 O   0  0  0  0  0  0  0  0  0  0  0  0
  2  1  1  1
  2  3  1  0
  4  2  1  0
  4  6  1  0
  4  5  1  1
  6 13  1  0
  6  7  2  0
  8  9  1  0
  9 10  1  0
 10 11  1  0
 12 11  1  1
 12 14  1  0
 13 12  1  0
 14 15  2  0
 16 17  1  0
 18 17  1  1
 18 20  1  0
 19 14  1  0
 19 18  1  0
 20 22  1  0
 21 20  2  0
M  END
$$$$
