VMS.pdb
     RDKit          3D

 22 21  0  0  1  0  0  0  0  0999 V2000
   25.3445  -12.0626  -19.3405 C   0  0  0  0  0  0  0  0  0  0  0  0
   24.7890  -12.7114  -18.1129 C   0  0  2  0  0  0  0  0  0  0  0  0
   23.4449  -13.3036  -18.4092 C   0  0  0  0  0  0  0  0  0  0  0  0
   24.6715  -11.7636  -16.9420 C   0  0  2  0  0  0  0  0  0  0  0  0
   24.3374  -12.4085  -15.7126 N   0  0  0  0  0  0  0  0  0  0  0  0
   23.7062  -10.6603  -17.2306 C   0  0  0  0  0  0  0  0  0  0  0  0
   23.9859   -9.8400  -18.1338 O   0  0  0  0  0  0  0  0  0  0  0  0
   16.9313  -10.4991  -17.0897 C   0  0  0  0  0  0  0  0  0  0  0  0
   18.0598  -11.8116  -17.6924 S   0  0  0  0  0  0  0  0  0  0  0  0
   19.7391  -11.1106  -17.8967 C   0  0  0  0  0  0  0  0  0  0  0  0
   20.0565  -10.3104  -16.6873 C   0  0  0  0  0  0  0  0  0  0  0  0
   21.4253   -9.6448  -16.7090 C   0  0  2  0  0  0  0  0  0  0  0  0
   22.5148  -10.5672  -16.4879 N   0  0  0  0  0  0  0  0  0  0  0  0
   21.4272   -8.6065  -15.6646 C   0  0  0  0  0  0  0  0  0  0  0  0
   21.9662   -8.8394  -14.5309 O   0  0  0  0  0  0  0  0  0  0  0  0
   22.7887   -5.0192  -13.9039 O   0  0  0  0  0  0  0  0  0  0  0  0
   22.5400   -6.0836  -14.7609 C   0  0  0  0  0  0  0  0  0  0  0  0
   21.0253   -6.2913  -14.8737 C   0  0  2  0  0  0  0  0  0  0  0  0
   20.8424   -7.3271  -15.8666 N   0  0  0  0  0  0  0  0  0  0  0  0
   20.3383   -5.0606  -15.2821 C   0  0  0  0  0  0  0  0  0  0  0  0
   19.8561   -4.3078  -14.3952 O   0  0  0  0  0  0  0  0  0  0  0  0
   20.2060   -4.7030  -16.6278 O   0  0  0  0  0  0  0  0  0  0  0  0
  2  1  1  6
  2  3  1  0
  4  2  1  0
  4  6  1  0
  4  5  1  1
  6 13  1  0
  6  7  2  0
  8  9  1  0
  9 10  1  0
 10 11  1  0
 12 11  1  1
 12 14  1  0
 13 12  1  0
 14 15  2  0
 16 17  1  0
 18 17  1  6
 18 20  1  0
 19 14  1  0
 19 18  1  0
 20 22  1  0
 21 20  2  0
M  END
$$$$
