MDR.pdb
     RDKit          3D

 28 27  0  0  1  0  0  0  0  0999 V2000
   28.1714  -20.5099  -10.3045 C   0  0  0  0  0  0  0  0  0  0  0  0
   28.8811  -20.6092  -11.9529 S   0  0  0  0  0  0  0  0  0  0  0  0
   27.5652  -21.0254  -13.1266 C   0  0  0  0  0  0  0  0  0  0  0  0
   26.2359  -20.8189  -12.4459 C   0  0  0  0  0  0  0  0  0  0  0  0
   25.1465  -21.7052  -12.9492 C   0  0  2  0  0  0  0  0  0  0  0  0
   25.2162  -21.8594  -14.4008 N   0  0  0  0  0  0  0  0  0  0  0  0
   23.7823  -21.2961  -12.5928 C   0  0  0  0  0  0  0  0  0  0  0  0
   23.5378  -21.0359  -11.3702 O   0  0  0  0  0  0  0  0  0  0  0  0
   22.7808  -21.1955  -13.5699 N   0  0  0  0  0  0  0  0  0  0  0  0
   21.4010  -20.8919  -13.2599 C   0  0  1  0  0  0  0  0  0  0  0  0
   20.6959  -20.1877  -14.3649 C   0  0  0  0  0  0  0  0  0  0  0  0
   19.9927  -19.0093  -13.8153 C   0  0  0  0  0  0  0  0  0  0  0  0
   20.0686  -18.7052  -12.5772 O   0  0  0  0  0  0  0  0  0  0  0  0
   20.7254  -22.1409  -12.8340 C   0  0  0  0  0  0  0  0  0  0  0  0
   20.8339  -23.2102  -13.4707 O   0  0  0  0  0  0  0  0  0  0  0  0
   19.2163  -18.1664  -14.5862 O   0  0  0  0  0  0  0  0  0  0  0  0
   16.5312  -24.3248   -5.2007 N   0  0  0  0  0  0  0  0  0  0  0  0
   16.9162  -25.5452   -5.8063 C   0  0  0  0  0  0  0  0  0  0  0  0
   16.7533  -26.6647   -5.1484 N   0  0  0  0  0  0  0  0  0  0  0  0
   17.4689  -25.5283   -7.1112 N   0  0  0  0  0  0  0  0  0  0  0  0
   17.7788  -24.2940   -7.7568 C   0  0  0  0  0  0  0  0  0  0  0  0
   18.3704  -24.4649   -9.1247 C   0  0  0  0  0  0  0  0  0  0  0  0
   18.7894  -23.1393   -9.7298 C   0  0  0  0  0  0  0  0  0  0  0  0
   19.3645  -23.3445  -11.1225 C   0  0  2  0  0  0  0  0  0  0  0  0
   19.9274  -22.1286  -11.6649 N   0  0  0  0  0  0  0  0  0  0  0  0
   18.3278  -23.8378  -12.0620 C   0  0  0  0  0  0  0  0  0  0  0  0
   18.3072  -25.1894  -12.3644 O   0  0  0  0  0  0  0  0  0  0  0  0
   17.4867  -23.0423  -12.5712 O   0  0  0  0  0  0  0  0  0  0  0  0
  2  1  1  0
  3  2  1  0
  4  5  1  0
  4  3  1  0
  5  6  1  6
  7  9  1  0
  7  5  1  0
  8  7  2  0
 10  9  1  0
 10 11  1  6
 12 16  1  0
 12 11  1  0
 13 12  2  0
 14 15  2  0
 14 10  1  0
 17 18  1  0
 18 19  2  0
 20 18  1  0
 20 21  1  0
 22 21  1  0
 22 23  1  0
 24 23  1  1
 24 25  1  0
 25 14  1  0
 26 24  1  0
 27 26  1  0
 28 26  2  0
M  END
$$$$
