MDR.pdb
     RDKit          3D

 28 27  0  0  1  0  0  0  0  0999 V2000
   37.1561  -19.8413  -19.1828 C   0  0  0  0  0  0  0  0  0  0  0  0
   35.8972  -20.3950  -20.3401 S   0  0  0  0  0  0  0  0  0  0  0  0
   34.4326  -20.9052  -19.4035 C   0  0  0  0  0  0  0  0  0  0  0  0
   33.4167  -21.4580  -20.3705 C   0  0  0  0  0  0  0  0  0  0  0  0
   32.0581  -20.8550  -20.2419 C   0  0  2  0  0  0  0  0  0  0  0  0
   31.8964  -20.1815  -18.9550 N   0  0  0  0  0  0  0  0  0  0  0  0
   30.9344  -21.7824  -20.4228 C   0  0  0  0  0  0  0  0  0  0  0  0
   29.8216  -21.4843  -19.8796 O   0  0  0  0  0  0  0  0  0  0  0  0
   31.0840  -22.9596  -21.1709 N   0  0  0  0  0  0  0  0  0  0  0  0
   29.9898  -23.8634  -21.4502 C   0  0  1  0  0  0  0  0  0  0  0  0
   29.3847  -23.6498  -22.7927 C   0  0  0  0  0  0  0  0  0  0  0  0
   28.2077  -24.5325  -22.9377 C   0  0  0  0  0  0  0  0  0  0  0  0
   28.0541  -25.2753  -23.9651 O   0  0  0  0  0  0  0  0  0  0  0  0
   30.4559  -25.2535  -21.2306 C   0  0  0  0  0  0  0  0  0  0  0  0
   31.5515  -25.6678  -21.6651 O   0  0  0  0  0  0  0  0  0  0  0  0
   27.2064  -24.6168  -21.9902 O   0  0  0  0  0  0  0  0  0  0  0  0
   29.3234  -31.6860  -16.5575 N   0  0  0  0  0  0  0  0  0  0  0  0
   30.5853  -31.9556  -17.1399 C   0  0  0  0  0  0  0  0  0  0  0  0
   31.0075  -33.1925  -17.2065 N   0  0  0  0  0  0  0  0  0  0  0  0
   31.3635  -30.8810  -17.6383 N   0  0  0  0  0  0  0  0  0  0  0  0
   30.7918  -29.5851  -17.8125 C   0  0  0  0  0  0  0  0  0  0  0  0
   29.6888  -29.5481  -18.8285 C   0  0  0  0  0  0  0  0  0  0  0  0
   29.2215  -28.1325  -19.1053 C   0  0  0  0  0  0  0  0  0  0  0  0
   30.0765  -27.4879  -20.1851 C   0  0  2  0  0  0  0  0  0  0  0  0
   29.6354  -26.1487  -20.5033 N   0  0  0  0  0  0  0  0  0  0  0  0
   30.0606  -28.2925  -21.4313 C   0  0  0  0  0  0  0  0  0  0  0  0
   31.1310  -29.1357  -21.6808 O   0  0  0  0  0  0  0  0  0  0  0  0
   29.0936  -28.2081  -22.2420 O   0  0  0  0  0  0  0  0  0  0  0  0
  2  1  1  0
  3  2  1  0
  4  5  1  0
  4  3  1  0
  5  6  1  1
  7  9  1  0
  7  5  1  0
  8  7  2  0
 10  9  1  0
 10 11  1  6
 12 16  1  0
 12 11  1  0
 13 12  2  0
 14 15  2  0
 14 10  1  0
 17 18  1  0
 18 19  2  0
 20 18  1  0
 20 21  1  0
 22 21  1  0
 22 23  1  0
 24 23  1  1
 24 25  1  0
 25 14  1  0
 26 24  1  0
 27 26  1  0
 28 26  2  0
M  END
$$$$
