MDR.pdb
     RDKit          3D

 28 27  0  0  1  0  0  0  0  0999 V2000
   29.8188  -20.3088  -18.8721 C   0  0  0  0  0  0  0  0  0  0  0  0
   29.0100  -18.7086  -18.9990 S   0  0  0  0  0  0  0  0  0  0  0  0
   28.7012  -18.0808  -17.3278 C   0  0  0  0  0  0  0  0  0  0  0  0
   28.2379  -19.2274  -16.4655 C   0  0  0  0  0  0  0  0  0  0  0  0
   26.7557  -19.3845  -16.4010 C   0  0  2  0  0  0  0  0  0  0  0  0
   26.1271  -18.2290  -15.7644 N   0  0  0  0  0  0  0  0  0  0  0  0
   26.2767  -20.5994  -15.7301 C   0  0  0  0  0  0  0  0  0  0  0  0
   27.0387  -21.6199  -15.7287 O   0  0  0  0  0  0  0  0  0  0  0  0
   25.0185  -20.6329  -15.1105 N   0  0  0  0  0  0  0  0  0  0  0  0
   24.7811  -21.2759  -13.8368 C   0  0  1  0  0  0  0  0  0  0  0  0
   25.7488  -20.8622  -12.7849 C   0  0  0  0  0  0  0  0  0  0  0  0
   25.4111  -21.5502  -11.5208 C   0  0  0  0  0  0  0  0  0  0  0  0
   25.0444  -22.7734  -11.5049 O   0  0  0  0  0  0  0  0  0  0  0  0
   23.3663  -21.0569  -13.4521 C   0  0  0  0  0  0  0  0  0  0  0  0
   23.0124  -20.1117  -12.7158 O   0  0  0  0  0  0  0  0  0  0  0  0
   25.4661  -20.9318  -10.2871 O   0  0  0  0  0  0  0  0  0  0  0  0
   18.9102  -24.1740   -8.4770 N   0  0  0  0  0  0  0  0  0  0  0  0
   17.7741  -24.0719   -9.3156 C   0  0  0  0  0  0  0  0  0  0  0  0
   16.5842  -24.0061   -8.7748 N   0  0  0  0  0  0  0  0  0  0  0  0
   17.9497  -24.0428  -10.7216 N   0  0  0  0  0  0  0  0  0  0  0  0
   19.2562  -23.9887  -11.2931 C   0  0  0  0  0  0  0  0  0  0  0  0
   19.9271  -22.6570  -11.1300 C   0  0  0  0  0  0  0  0  0  0  0  0
   21.2681  -22.6085  -11.8360 C   0  0  0  0  0  0  0  0  0  0  0  0
   21.1058  -22.0973  -13.2589 C   0  0  2  0  0  0  0  0  0  0  0  0
   22.3757  -21.9466  -13.9326 N   0  0  0  0  0  0  0  0  0  0  0  0
   20.4082  -20.7883  -13.2807 C   0  0  0  0  0  0  0  0  0  0  0  0
   19.2337  -20.6836  -14.0077 O   0  0  0  0  0  0  0  0  0  0  0  0
   20.8764  -19.7966  -12.6510 O   0  0  0  0  0  0  0  0  0  0  0  0
  2  1  1  0
  3  2  1  0
  4  5  1  0
  4  3  1  0
  5  6  1  1
  7  9  1  0
  7  5  1  0
  8  7  2  0
 10  9  1  0
 10 11  1  1
 12 16  1  0
 12 11  1  0
 13 12  2  0
 14 15  2  0
 14 10  1  0
 17 18  1  0
 18 19  2  0
 20 18  1  0
 20 21  1  0
 22 21  1  0
 22 23  1  0
 24 23  1  1
 24 25  1  0
 25 14  1  0
 26 24  1  0
 27 26  1  0
 28 26  2  0
M  END
$$$$
