MDR.pdb
     RDKit          3D

 28 27  0  0  1  0  0  0  0  0999 V2000
   17.5986  -17.2033  -12.7535 C   0  0  0  0  0  0  0  0  0  0  0  0
   17.3632  -15.4500  -13.0717 S   0  0  0  0  0  0  0  0  0  0  0  0
   18.4893  -14.9451  -14.3981 C   0  0  0  0  0  0  0  0  0  0  0  0
   18.3101  -13.4677  -14.6393 C   0  0  0  0  0  0  0  0  0  0  0  0
   16.9753  -13.0954  -15.1921 C   0  0  2  0  0  0  0  0  0  0  0  0
   16.7575  -13.6996  -16.5048 N   0  0  0  0  0  0  0  0  0  0  0  0
   16.7133  -11.6547  -15.2971 C   0  0  0  0  0  0  0  0  0  0  0  0
   17.0465  -11.0648  -16.3756 O   0  0  0  0  0  0  0  0  0  0  0  0
   16.1145  -10.9515  -14.2412 N   0  0  0  0  0  0  0  0  0  0  0  0
   15.9061   -9.5203  -14.2617 C   0  0  1  0  0  0  0  0  0  0  0  0
   14.7998   -9.0789  -13.3699 C   0  0  0  0  0  0  0  0  0  0  0  0
   13.5185   -9.5911  -13.9003 C   0  0  0  0  0  0  0  0  0  0  0  0
   13.3116   -9.6968  -15.1561 O   0  0  0  0  0  0  0  0  0  0  0  0
   17.1964   -8.8497  -13.9730 C   0  0  0  0  0  0  0  0  0  0  0  0
   17.9554   -9.2273  -13.0554 O   0  0  0  0  0  0  0  0  0  0  0  0
   12.4707   -9.9854  -13.0916 O   0  0  0  0  0  0  0  0  0  0  0  0
   24.6553  -10.5254  -15.4769 N   0  0  0  0  0  0  0  0  0  0  0  0
   24.8551   -9.1248  -15.4250 C   0  0  0  0  0  0  0  0  0  0  0  0
   26.0578   -8.6433  -15.6103 N   0  0  0  0  0  0  0  0  0  0  0  0
   23.7491   -8.2748  -15.1743 N   0  0  0  0  0  0  0  0  0  0  0  0
   22.4159   -8.7825  -15.2079 C   0  0  0  0  0  0  0  0  0  0  0  0
   21.3662   -7.7207  -15.0625 C   0  0  0  0  0  0  0  0  0  0  0  0
   19.9673   -8.3055  -15.0517 C   0  0  0  0  0  0  0  0  0  0  0  0
   18.9407   -7.2316  -14.7271 C   0  0  2  0  0  0  0  0  0  0  0  0
   17.5886   -7.7414  -14.7613 N   0  0  0  0  0  0  0  0  0  0  0  0
   19.0352   -6.0965  -15.6776 C   0  0  0  0  0  0  0  0  0  0  0  0
   20.0434   -5.1656  -15.4885 O   0  0  0  0  0  0  0  0  0  0  0  0
   18.2151   -5.9852  -16.6338 O   0  0  0  0  0  0  0  0  0  0  0  0
  2  1  1  0
  3  2  1  0
  4  5  1  0
  4  3  1  0
  5  6  1  6
  7  9  1  0
  7  5  1  0
  8  7  2  0
 10  9  1  0
 10 11  1  1
 12 16  1  0
 12 11  1  0
 13 12  2  0
 14 15  2  0
 14 10  1  0
 17 18  1  0
 18 19  2  0
 20 18  1  0
 20 21  1  0
 22 21  1  0
 22 23  1  0
 24 23  1  6
 24 25  1  0
 25 14  1  0
 26 24  1  0
 27 26  1  0
 28 26  2  0
M  END
$$$$
