MDR.pdb
     RDKit          3D

 28 27  0  0  1  0  0  0  0  0999 V2000
   22.8668  -15.2860  -22.4212 C   0  0  0  0  0  0  0  0  0  0  0  0
   24.2559  -14.8140  -21.3829 S   0  0  0  0  0  0  0  0  0  0  0  0
   24.3192  -15.9294  -19.9567 C   0  0  0  0  0  0  0  0  0  0  0  0
   23.0981  -16.8132  -19.9877 C   0  0  0  0  0  0  0  0  0  0  0  0
   22.0580  -16.4552  -18.9799 C   0  0  2  0  0  0  0  0  0  0  0  0
   22.6644  -16.0107  -17.7267 N   0  0  0  0  0  0  0  0  0  0  0  0
   21.0841  -17.5103  -18.6735 C   0  0  0  0  0  0  0  0  0  0  0  0
   20.4439  -18.0311  -19.6436 O   0  0  0  0  0  0  0  0  0  0  0  0
   20.8671  -17.9301  -17.3527 N   0  0  0  0  0  0  0  0  0  0  0  0
   19.8326  -18.8704  -16.9816 C   0  0  1  0  0  0  0  0  0  0  0  0
   20.3719  -20.1643  -16.4824 C   0  0  0  0  0  0  0  0  0  0  0  0
   19.2490  -21.0964  -16.2464 C   0  0  0  0  0  0  0  0  0  0  0  0
   18.4222  -20.9153  -15.2901 O   0  0  0  0  0  0  0  0  0  0  0  0
   18.9127  -18.2095  -16.0251 C   0  0  0  0  0  0  0  0  0  0  0  0
   19.3235  -17.6009  -15.0145 O   0  0  0  0  0  0  0  0  0  0  0  0
   19.0163  -22.2109  -17.0283 O   0  0  0  0  0  0  0  0  0  0  0  0
   12.7383  -12.3471  -16.5185 N   0  0  0  0  0  0  0  0  0  0  0  0
   12.6148  -12.7950  -15.1812 C   0  0  0  0  0  0  0  0  0  0  0  0
   11.8254  -12.1494  -14.3610 N   0  0  0  0  0  0  0  0  0  0  0  0
   13.3477  -13.9325  -14.7597 N   0  0  0  0  0  0  0  0  0  0  0  0
   14.1831  -14.6423  -15.6735 C   0  0  0  0  0  0  0  0  0  0  0  0
   14.9262  -15.7833  -15.0440 C   0  0  0  0  0  0  0  0  0  0  0  0
   15.8416  -16.4771  -16.0337 C   0  0  0  0  0  0  0  0  0  0  0  0
   16.5762  -17.6295  -15.3665 C   0  0  2  0  0  0  0  0  0  0  0  0
   17.5178  -18.2661  -16.2593 N   0  0  0  0  0  0  0  0  0  0  0  0
   15.6258  -18.6593  -14.8797 C   0  0  0  0  0  0  0  0  0  0  0  0
   15.5091  -19.8365  -15.6005 O   0  0  0  0  0  0  0  0  0  0  0  0
   14.9420  -18.4641  -13.8339 O   0  0  0  0  0  0  0  0  0  0  0  0
  2  1  1  0
  3  2  1  0
  4  5  1  0
  4  3  1  0
  5  6  1  1
  7  9  1  0
  7  5  1  0
  8  7  2  0
 10  9  1  0
 10 11  1  1
 12 16  1  0
 12 11  1  0
 13 12  2  0
 14 15  2  0
 14 10  1  0
 17 18  1  0
 18 19  2  0
 20 18  1  0
 20 21  1  0
 22 21  1  0
 22 23  1  0
 24 23  1  6
 24 25  1  0
 25 14  1  0
 26 24  1  0
 27 26  1  0
 28 26  2  0
M  END
$$$$
