MDR.pdb
     RDKit          3D

 28 27  0  0  1  0  0  0  0  0999 V2000
   28.7140  -18.5274   -6.3593 C   0  0  0  0  0  0  0  0  0  0  0  0
   29.7135  -19.9534   -5.9140 S   0  0  0  0  0  0  0  0  0  0  0  0
   29.6316  -21.1623   -7.2609 C   0  0  0  0  0  0  0  0  0  0  0  0
   28.8760  -20.5453   -8.4104 C   0  0  0  0  0  0  0  0  0  0  0  0
   28.8231  -21.3960   -9.6348 C   0  0  2  0  0  0  0  0  0  0  0  0
   30.1651  -21.7419  -10.0987 N   0  0  0  0  0  0  0  0  0  0  0  0
   28.0743  -20.8326  -10.7650 C   0  0  0  0  0  0  0  0  0  0  0  0
   28.6577  -19.9671  -11.4950 O   0  0  0  0  0  0  0  0  0  0  0  0
   26.7574  -21.2363  -11.0308 N   0  0  0  0  0  0  0  0  0  0  0  0
   26.0119  -20.7911  -12.1876 C   0  0  1  0  0  0  0  0  0  0  0  0
   26.7628  -20.9504  -13.4623 C   0  0  0  0  0  0  0  0  0  0  0  0
   25.9403  -20.4305  -14.5753 C   0  0  0  0  0  0  0  0  0  0  0  0
   26.0340  -20.9115  -15.7546 O   0  0  0  0  0  0  0  0  0  0  0  0
   24.6948  -21.4715  -12.1929 C   0  0  0  0  0  0  0  0  0  0  0  0
   24.5820  -22.7086  -12.3243 O   0  0  0  0  0  0  0  0  0  0  0  0
   25.0273  -19.4053  -14.4240 O   0  0  0  0  0  0  0  0  0  0  0  0
   17.5926  -23.4324   -9.5028 N   0  0  0  0  0  0  0  0  0  0  0  0
   18.4894  -23.3046   -8.4148 C   0  0  0  0  0  0  0  0  0  0  0  0
   18.4841  -24.2122   -7.4719 N   0  0  0  0  0  0  0  0  0  0  0  0
   19.3733  -22.1977   -8.3704 N   0  0  0  0  0  0  0  0  0  0  0  0
   19.3549  -21.2072   -9.3975 C   0  0  0  0  0  0  0  0  0  0  0  0
   20.1229  -21.6015  -10.6243 C   0  0  0  0  0  0  0  0  0  0  0  0
   21.4747  -20.9177  -10.6899 C   0  0  0  0  0  0  0  0  0  0  0  0
   22.2149  -21.3155  -11.9573 C   0  0  2  0  0  0  0  0  0  0  0  0
   23.5188  -20.6978  -12.0442 N   0  0  0  0  0  0  0  0  0  0  0  0
   21.4414  -20.9440  -13.1674 C   0  0  0  0  0  0  0  0  0  0  0  0
   21.8730  -19.8598  -13.9139 O   0  0  0  0  0  0  0  0  0  0  0  0
   20.4157  -21.6021  -13.5054 O   0  0  0  0  0  0  0  0  0  0  0  0
  2  1  1  0
  3  2  1  0
  4  5  1  0
  4  3  1  0
  5  6  1  6
  7  9  1  0
  7  5  1  0
  8  7  2  0
 10  9  1  0
 10 11  1  6
 12 16  1  0
 12 11  1  0
 13 12  2  0
 14 15  2  0
 14 10  1  0
 17 18  1  0
 18 19  2  0
 20 18  1  0
 20 21  1  0
 22 21  1  0
 22 23  1  0
 24 23  1  1
 24 25  1  0
 25 14  1  0
 26 24  1  0
 27 26  1  0
 28 26  2  0
M  END
$$$$
