MDR.pdb
     RDKit          3D

 28 27  0  0  1  0  0  0  0  0999 V2000
   19.9685  -24.6082    1.5674 C   0  0  0  0  0  0  0  0  0  0  0  0
   20.0642  -25.6931    2.9974 S   0  0  0  0  0  0  0  0  0  0  0  0
   19.3210  -27.2881    2.5659 C   0  0  0  0  0  0  0  0  0  0  0  0
   18.8399  -27.2196    1.1388 C   0  0  0  0  0  0  0  0  0  0  0  0
   18.1917  -28.4717    0.6508 C   0  0  2  0  0  0  0  0  0  0  0  0
   19.1848  -29.5016    0.3527 N   0  0  0  0  0  0  0  0  0  0  0  0
   17.3194  -28.3179   -0.5200 C   0  0  0  0  0  0  0  0  0  0  0  0
   17.7463  -28.7437   -1.6419 O   0  0  0  0  0  0  0  0  0  0  0  0
   16.0555  -27.7203   -0.4044 N   0  0  0  0  0  0  0  0  0  0  0  0
   15.1503  -27.5624   -1.5214 C   0  0  1  0  0  0  0  0  0  0  0  0
   13.7184  -27.5616   -1.1165 C   0  0  0  0  0  0  0  0  0  0  0  0
   12.8747  -27.4648   -2.3265 C   0  0  0  0  0  0  0  0  0  0  0  0
   13.1530  -28.1191   -3.3873 O   0  0  0  0  0  0  0  0  0  0  0  0
   15.5455  -26.3541   -2.2841 C   0  0  0  0  0  0  0  0  0  0  0  0
   15.8620  -25.2835   -1.7235 O   0  0  0  0  0  0  0  0  0  0  0  0
   11.7444  -26.6741   -2.3970 O   0  0  0  0  0  0  0  0  0  0  0  0
   19.4527  -25.6150   -9.8497 N   0  0  0  0  0  0  0  0  0  0  0  0
   18.2178  -26.2647   -9.6102 C   0  0  0  0  0  0  0  0  0  0  0  0
   17.8036  -27.1798  -10.4492 N   0  0  0  0  0  0  0  0  0  0  0  0
   17.4576  -25.9109   -8.4677 N   0  0  0  0  0  0  0  0  0  0  0  0
   17.6712  -24.6646   -7.8061 C   0  0  0  0  0  0  0  0  0  0  0  0
   16.6881  -24.3938   -6.7059 C   0  0  0  0  0  0  0  0  0  0  0  0
   16.4094  -25.6332   -5.8781 C   0  0  0  0  0  0  0  0  0  0  0  0
   15.9116  -25.2510   -4.4929 C   0  0  2  0  0  0  0  0  0  0  0  0
   15.5673  -26.4084   -3.6984 N   0  0  0  0  0  0  0  0  0  0  0  0
   14.7197  -24.3718   -4.5767 C   0  0  0  0  0  0  0  0  0  0  0  0
   14.9132  -23.0005   -4.5434 O   0  0  0  0  0  0  0  0  0  0  0  0
   13.5593  -24.8648   -4.6759 O   0  0  0  0  0  0  0  0  0  0  0  0
  2  1  1  0
  3  2  1  0
  4  5  1  0
  4  3  1  0
  5  6  1  6
  7  9  1  0
  7  5  1  0
  8  7  2  0
 10  9  1  0
 10 11  1  1
 12 16  1  0
 12 11  1  0
 13 12  2  0
 14 15  2  0
 14 10  1  0
 17 18  1  0
 18 19  2  0
 20 18  1  0
 20 21  1  0
 22 21  1  0
 22 23  1  0
 24 23  1  6
 24 25  1  0
 25 14  1  0
 26 24  1  0
 27 26  1  0
 28 26  2  0
M  END
$$$$
