MDR.pdb
     RDKit          3D

 28 27  0  0  1  0  0  0  0  0999 V2000
   27.9578   -0.9588  -25.5835 C   0  0  0  0  0  0  0  0  0  0  0  0
   27.8068   -2.5653  -24.7916 S   0  0  0  0  0  0  0  0  0  0  0  0
   29.3293   -2.9026  -23.8694 C   0  0  0  0  0  0  0  0  0  0  0  0
   29.2701   -4.3174  -23.3521 C   0  0  0  0  0  0  0  0  0  0  0  0
   30.4812   -4.7420  -22.5913 C   0  0  2  0  0  0  0  0  0  0  0  0
   31.6358   -4.8943  -23.4741 N   0  0  0  0  0  0  0  0  0  0  0  0
   30.3351   -5.9731  -21.8047 C   0  0  0  0  0  0  0  0  0  0  0  0
   30.5303   -7.0847  -22.3950 O   0  0  0  0  0  0  0  0  0  0  0  0
   29.9912   -5.9241  -20.4456 N   0  0  0  0  0  0  0  0  0  0  0  0
   29.7835   -7.1069  -19.6394 C   0  0  1  0  0  0  0  0  0  0  0  0
   30.4006   -7.0084  -18.2890 C   0  0  0  0  0  0  0  0  0  0  0  0
   30.2992   -8.3203  -17.6151 C   0  0  0  0  0  0  0  0  0  0  0  0
   30.7601   -8.5024  -16.4381 O   0  0  0  0  0  0  0  0  0  0  0  0
   28.3317   -7.4052  -19.6013 C   0  0  0  0  0  0  0  0  0  0  0  0
   27.4920   -6.5858  -19.1723 O   0  0  0  0  0  0  0  0  0  0  0  0
   29.7095   -9.4247  -18.1982 O   0  0  0  0  0  0  0  0  0  0  0  0
   22.1644   -9.2473  -23.5607 N   0  0  0  0  0  0  0  0  0  0  0  0
   21.6550   -9.9667  -22.4528 C   0  0  0  0  0  0  0  0  0  0  0  0
   20.3652  -10.1677  -22.3594 N   0  0  0  0  0  0  0  0  0  0  0  0
   22.5522  -10.4538  -21.4698 N   0  0  0  0  0  0  0  0  0  0  0  0
   23.9355  -10.1052  -21.5071 C   0  0  0  0  0  0  0  0  0  0  0  0
   24.7519  -10.7768  -20.4428 C   0  0  0  0  0  0  0  0  0  0  0  0
   26.2222  -10.4220  -20.5490 C   0  0  0  0  0  0  0  0  0  0  0  0
   26.4748   -9.0210  -20.0144 C   0  0  2  0  0  0  0  0  0  0  0  0
   27.8738   -8.6613  -20.0662 N   0  0  0  0  0  0  0  0  0  0  0  0
   26.0120   -8.8925  -18.6108 C   0  0  0  0  0  0  0  0  0  0  0  0
   26.7769   -9.4737  -17.6127 O   0  0  0  0  0  0  0  0  0  0  0  0
   24.9470   -8.2681  -18.3367 O   0  0  0  0  0  0  0  0  0  0  0  0
  2  1  1  0
  3  2  1  0
  4  5  1  0
  4  3  1  0
  5  6  1  6
  7  9  1  0
  7  5  1  0
  8  7  2  0
 10  9  1  0
 10 11  1  1
 12 16  1  0
 12 11  1  0
 13 12  2  0
 14 15  2  0
 14 10  1  0
 17 18  1  0
 18 19  2  0
 20 18  1  0
 20 21  1  0
 22 21  1  0
 22 23  1  0
 24 23  1  1
 24 25  1  0
 25 14  1  0
 26 24  1  0
 27 26  1  0
 28 26  2  0
M  END
$$$$
