MDR.pdb
     RDKit          3D

 28 27  0  0  1  0  0  0  0  0999 V2000
   14.8073   -6.9232   -5.4858 C   0  0  0  0  0  0  0  0  0  0  0  0
   13.5414   -6.4870   -6.6850 S   0  0  0  0  0  0  0  0  0  0  0  0
   13.6238   -7.6564   -8.0664 C   0  0  0  0  0  0  0  0  0  0  0  0
   14.8416   -7.3321   -8.8939 C   0  0  0  0  0  0  0  0  0  0  0  0
   15.0824   -8.2758  -10.0240 C   0  0  2  0  0  0  0  0  0  0  0  0
   15.3639   -9.6249   -9.5377 N   0  0  0  0  0  0  0  0  0  0  0  0
   16.1490   -7.8884  -10.9556 C   0  0  0  0  0  0  0  0  0  0  0  0
   16.4331   -6.6509  -11.0558 O   0  0  0  0  0  0  0  0  0  0  0  0
   16.8325   -8.8529  -11.7109 N   0  0  0  0  0  0  0  0  0  0  0  0
   17.7781   -8.5171  -12.7527 C   0  0  1  0  0  0  0  0  0  0  0  0
   18.3026   -9.7099  -13.4712 C   0  0  0  0  0  0  0  0  0  0  0  0
   19.3274   -9.2754  -14.4441 C   0  0  0  0  0  0  0  0  0  0  0  0
   19.3077   -9.6759  -15.6566 O   0  0  0  0  0  0  0  0  0  0  0  0
   17.1560   -7.5163  -13.6523 C   0  0  0  0  0  0  0  0  0  0  0  0
   16.0301   -7.6875  -14.1658 O   0  0  0  0  0  0  0  0  0  0  0  0
   20.3622   -8.4204  -14.1189 O   0  0  0  0  0  0  0  0  0  0  0  0
   12.8029   -0.6621  -13.2620 N   0  0  0  0  0  0  0  0  0  0  0  0
   13.2195   -0.5581  -14.6111 C   0  0  0  0  0  0  0  0  0  0  0  0
   12.6721    0.3474  -15.3812 N   0  0  0  0  0  0  0  0  0  0  0  0
   14.2200   -1.4359  -15.0981 N   0  0  0  0  0  0  0  0  0  0  0  0
   14.7485   -2.4713  -14.2704 C   0  0  0  0  0  0  0  0  0  0  0  0
   15.7676   -3.3289  -14.9605 C   0  0  0  0  0  0  0  0  0  0  0  0
   16.2729   -4.4411  -14.0624 C   0  0  0  0  0  0  0  0  0  0  0  0
   17.2890   -5.3021  -14.7964 C   0  0  2  0  0  0  0  0  0  0  0  0
   17.8572   -6.3218  -13.9441 N   0  0  0  0  0  0  0  0  0  0  0  0
   18.3965   -4.4774  -15.3387 C   0  0  0  0  0  0  0  0  0  0  0  0
   18.2171   -3.8663  -16.5688 O   0  0  0  0  0  0  0  0  0  0  0  0
   19.4744   -4.3383  -14.6920 O   0  0  0  0  0  0  0  0  0  0  0  0
  2  1  1  0
  3  2  1  0
  4  5  1  0
  4  3  1  0
  5  6  1  1
  7  9  1  0
  7  5  1  0
  8  7  2  0
 10  9  1  0
 10 11  1  6
 12 16  1  0
 12 11  1  0
 13 12  2  0
 14 15  2  0
 14 10  1  0
 17 18  1  0
 18 19  2  0
 20 18  1  0
 20 21  1  0
 22 21  1  0
 22 23  1  0
 24 23  1  1
 24 25  1  0
 25 14  1  0
 26 24  1  0
 27 26  1  0
 28 26  2  0
M  END
$$$$
