ECM.pdb
     RDKit          3D

 24 23  0  0  1  0  0  0  0  0999 V2000
   11.1626  -18.1887   18.8291 N   0  0  0  0  0  0  0  0  0  0  0  0
   11.1778  -19.0020   20.0559 C   0  0  1  0  0  0  0  0  0  0  0  0
   12.6085  -18.9993   20.5259 C   0  0  0  0  0  0  0  0  0  0  0  0
   13.6228  -18.6822   19.4906 C   0  0  0  0  0  0  0  0  0  0  0  0
   14.9048  -18.2798   20.1004 C   0  0  0  0  0  0  0  0  0  0  0  0
   15.9115  -18.0847   19.3928 O   0  0  0  0  0  0  0  0  0  0  0  0
   10.3857  -18.3333   21.1264 C   0  0  0  0  0  0  0  0  0  0  0  0
   10.3632  -17.0759   21.1444 O   0  0  0  0  0  0  0  0  0  0  0  0
   15.0001  -18.1128   21.4906 O   0  0  0  0  0  0  0  0  0  0  0  0
    9.6622  -19.0122   22.1169 N   0  0  0  0  0  0  0  0  0  0  0  0
    8.8696  -18.3090   23.1020 C   0  0  1  0  0  0  0  0  0  0  0  0
    7.6434  -19.1833   23.3871 C   0  0  0  0  0  0  0  0  0  0  0  0
    6.6501  -18.4566   24.7183 S   0  0  0  0  0  0  0  0  0  0  0  0
    9.6128  -18.0810   24.3612 C   0  0  0  0  0  0  0  0  0  0  0  0
   10.3242  -19.0107   24.8229 O   0  0  0  0  0  0  0  0  0  0  0  0
   10.1439  -12.5888   29.5989 C   0  0  0  0  0  0  0  0  0  0  0  0
   11.1251  -13.8072   28.6872 S   0  0  0  0  0  0  0  0  0  0  0  0
   10.1378  -15.2858   28.4705 C   0  0  0  0  0  0  0  0  0  0  0  0
    9.6819  -15.5056   27.0667 C   0  0  0  0  0  0  0  0  0  0  0  0
   10.2378  -16.7196   26.3970 C   0  0  2  0  0  0  0  0  0  0  0  0
    9.5831  -16.8702   25.1007 N   0  0  0  0  0  0  0  0  0  0  0  0
   10.1602  -17.9586   27.1941 C   0  0  0  0  0  0  0  0  0  0  0  0
   11.2037  -18.4389   27.7037 O   0  0  0  0  0  0  0  0  0  0  0  0
    8.9772  -18.6453   27.4230 O   0  0  0  0  0  0  0  0  0  0  0  0
  2  1  1  6
  3  2  1  0
  4  3  1  0
  5  6  2  0
  5  4  1  0
  7  8  2  0
  7  2  1  0
  9  5  1  0
 10  7  1  0
 11 10  1  0
 11 14  1  0
 11 12  1  1
 13 12  1  0
 14 21  1  0
 15 14  2  0
 17 16  1  0
 18 17  1  0
 20 19  1  1
 19 18  1  0
 20 22  1  0
 21 20  1  0
 22 23  2  0
 22 24  1  0
M  END
$$$$
