ECM.pdb
     RDKit          3D

 24 23  0  0  1  0  0  0  0  0999 V2000
   10.2914  -19.0347   19.1529 N   0  0  0  0  0  0  0  0  0  0  0  0
    9.9536  -18.9584   20.5835 C   0  0  1  0  0  0  0  0  0  0  0  0
   11.0904  -19.6334   21.3046 C   0  0  0  0  0  0  0  0  0  0  0  0
   10.8123  -21.0045   21.7986 C   0  0  0  0  0  0  0  0  0  0  0  0
   11.5804  -21.3000   23.0233 C   0  0  0  0  0  0  0  0  0  0  0  0
   12.3033  -22.3125   23.0912 O   0  0  0  0  0  0  0  0  0  0  0  0
    9.9554  -17.5392   21.0377 C   0  0  0  0  0  0  0  0  0  0  0  0
   11.0114  -16.8733   20.8854 O   0  0  0  0  0  0  0  0  0  0  0  0
   11.5020  -20.4373   24.1275 O   0  0  0  0  0  0  0  0  0  0  0  0
    8.8574  -16.8947   21.6246 N   0  0  0  0  0  0  0  0  0  0  0  0
    8.9140  -15.5082   22.0340 C   0  0  1  0  0  0  0  0  0  0  0  0
    7.4860  -14.9602   21.9340 C   0  0  0  0  0  0  0  0  0  0  0  0
    6.3709  -15.9165   22.9965 S   0  0  0  0  0  0  0  0  0  0  0  0
    9.4030  -15.3526   23.4220 C   0  0  0  0  0  0  0  0  0  0  0  0
    9.4989  -14.1947   23.9054 O   0  0  0  0  0  0  0  0  0  0  0  0
    9.9356  -13.2508   29.8222 C   0  0  0  0  0  0  0  0  0  0  0  0
   10.0684  -13.6806   28.0682 S   0  0  0  0  0  0  0  0  0  0  0  0
    9.2565  -15.2553   27.8052 C   0  0  0  0  0  0  0  0  0  0  0  0
    9.0157  -15.5766   26.3680 C   0  0  0  0  0  0  0  0  0  0  0  0
   10.1497  -16.2479   25.6646 C   0  0  2  0  0  0  0  0  0  0  0  0
    9.7787  -16.4310   24.2645 N   0  0  0  0  0  0  0  0  0  0  0  0
   10.6005  -17.5112   26.2789 C   0  0  0  0  0  0  0  0  0  0  0  0
   10.0804  -18.5984   25.9229 O   0  0  0  0  0  0  0  0  0  0  0  0
   11.5883  -17.5770   27.2502 O   0  0  0  0  0  0  0  0  0  0  0  0
  2  1  1  6
  3  2  1  0
  4  3  1  0
  5  6  2  0
  5  4  1  0
  7  8  2  0
  7  2  1  0
  9  5  1  0
 10  7  1  0
 11 10  1  0
 11 14  1  0
 11 12  1  1
 13 12  1  0
 14 21  1  0
 15 14  2  0
 17 16  1  0
 18 17  1  0
 20 19  1  1
 19 18  1  0
 20 22  1  0
 21 20  1  0
 22 23  2  0
 22 24  1  0
M  END
$$$$
