ECM.pdb
     RDKit          3D

 24 23  0  0  1  0  0  0  0  0999 V2000
    8.0146  -13.3416   18.4674 N   0  0  0  0  0  0  0  0  0  0  0  0
    8.0285  -14.4746   19.4069 C   0  0  1  0  0  0  0  0  0  0  0  0
    9.1932  -15.3329   18.9890 C   0  0  0  0  0  0  0  0  0  0  0  0
    8.8549  -16.5074   18.1480 C   0  0  0  0  0  0  0  0  0  0  0  0
   10.0705  -17.1953   17.6724 C   0  0  0  0  0  0  0  0  0  0  0  0
   11.2007  -16.7968   18.0132 O   0  0  0  0  0  0  0  0  0  0  0  0
    8.3353  -13.9969   20.7847 C   0  0  0  0  0  0  0  0  0  0  0  0
    9.0685  -12.9823   20.9067 O   0  0  0  0  0  0  0  0  0  0  0  0
    9.9619  -18.3107   16.8276 O   0  0  0  0  0  0  0  0  0  0  0  0
    7.8612  -14.6031   21.9565 N   0  0  0  0  0  0  0  0  0  0  0  0
    8.1401  -14.0566   23.2666 C   0  0  1  0  0  0  0  0  0  0  0  0
    6.7849  -13.7537   23.9157 C   0  0  0  0  0  0  0  0  0  0  0  0
    6.1211  -15.2435   24.7073 S   0  0  0  0  0  0  0  0  0  0  0  0
    8.8924  -15.0025   24.1206 C   0  0  0  0  0  0  0  0  0  0  0  0
    9.1204  -16.1618   23.6873 O   0  0  0  0  0  0  0  0  0  0  0  0
   11.9551  -14.0526   31.0938 C   0  0  0  0  0  0  0  0  0  0  0  0
   10.4752  -14.6499   30.2383 S   0  0  0  0  0  0  0  0  0  0  0  0
   10.9109  -15.0244   28.5419 C   0  0  0  0  0  0  0  0  0  0  0  0
    9.7424  -15.3769   27.6832 C   0  0  0  0  0  0  0  0  0  0  0  0
   10.0654  -15.6758   26.2558 C   0  0  2  0  0  0  0  0  0  0  0  0
    9.3852  -14.6947   25.4152 N   0  0  0  0  0  0  0  0  0  0  0  0
    9.7711  -17.0569   25.8288 C   0  0  0  0  0  0  0  0  0  0  0  0
   10.6785  -17.9258   25.8584 O   0  0  0  0  0  0  0  0  0  0  0  0
    8.5232  -17.4684   25.3849 O   0  0  0  0  0  0  0  0  0  0  0  0
  2  1  1  6
  3  2  1  0
  4  3  1  0
  5  6  2  0
  5  4  1  0
  7  8  2  0
  7  2  1  0
  9  5  1  0
 10  7  1  0
 11 10  1  0
 11 14  1  0
 11 12  1  1
 13 12  1  0
 14 21  1  0
 15 14  2  0
 17 16  1  0
 18 17  1  0
 20 19  1  1
 19 18  1  0
 20 22  1  0
 21 20  1  0
 22 23  2  0
 22 24  1  0
M  END
$$$$
