ECM.pdb
     RDKit          3D

 24 23  0  0  1  0  0  0  0  0999 V2000
    8.9271  -16.2549   18.2142 N   0  0  0  0  0  0  0  0  0  0  0  0
    8.9998  -17.0379   19.4586 C   0  0  1  0  0  0  0  0  0  0  0  0
   10.2921  -17.8067   19.3783 C   0  0  0  0  0  0  0  0  0  0  0  0
   10.1872  -19.2652   19.6293 C   0  0  0  0  0  0  0  0  0  0  0  0
   11.4882  -19.9366   19.4458 C   0  0  0  0  0  0  0  0  0  0  0  0
   12.0816  -19.8842   18.3516 O   0  0  0  0  0  0  0  0  0  0  0  0
    9.1274  -16.1284   20.6321 C   0  0  0  0  0  0  0  0  0  0  0  0
   10.1557  -15.4083   20.7102 O   0  0  0  0  0  0  0  0  0  0  0  0
   12.0705  -20.6435   20.5092 O   0  0  0  0  0  0  0  0  0  0  0  0
    8.1771  -16.0209   21.6572 N   0  0  0  0  0  0  0  0  0  0  0  0
    8.3453  -15.1024   22.7622 C   0  0  1  0  0  0  0  0  0  0  0  0
    6.9404  -14.7710   23.2777 C   0  0  0  0  0  0  0  0  0  0  0  0
    7.0450  -13.8191   24.8171 S   0  0  0  0  0  0  0  0  0  0  0  0
    9.1456  -15.6872   23.8610 C   0  0  0  0  0  0  0  0  0  0  0  0
    8.9111  -16.8706   24.2192 O   0  0  0  0  0  0  0  0  0  0  0  0
   10.9389  -13.9598   30.9614 C   0  0  0  0  0  0  0  0  0  0  0  0
    9.7577  -14.0856   29.5948 S   0  0  0  0  0  0  0  0  0  0  0  0
   10.4836  -15.0959   28.3064 C   0  0  0  0  0  0  0  0  0  0  0  0
   10.1089  -14.6725   26.9254 C   0  0  0  0  0  0  0  0  0  0  0  0
   10.7241  -15.4711   25.8231 C   0  0  2  0  0  0  0  0  0  0  0  0
   10.1766  -15.0012   24.5538 N   0  0  0  0  0  0  0  0  0  0  0  0
   10.5902  -16.9333   25.9666 C   0  0  0  0  0  0  0  0  0  0  0  0
   11.6195  -17.6472   26.0663 O   0  0  0  0  0  0  0  0  0  0  0  0
    9.3677  -17.5875   25.9994 O   0  0  0  0  0  0  0  0  0  0  0  0
  2  1  1  6
  3  2  1  0
  4  3  1  0
  5  6  2  0
  5  4  1  0
  7  8  2  0
  7  2  1  0
  9  5  1  0
 10  7  1  0
 11 10  1  0
 11 14  1  0
 11 12  1  1
 13 12  1  0
 14 21  1  0
 15 14  2  0
 17 16  1  0
 18 17  1  0
 20 19  1  1
 19 18  1  0
 20 22  1  0
 21 20  1  0
 22 23  2  0
 22 24  1  0
M  END
$$$$
