ECM.pdb
     RDKit          3D

 24 23  0  0  1  0  0  0  0  0999 V2000
    9.3185  -18.5203   18.7021 N   0  0  0  0  0  0  0  0  0  0  0  0
    9.8655  -18.9885   19.9859 C   0  0  1  0  0  0  0  0  0  0  0  0
   11.2827  -18.4813   20.0313 C   0  0  0  0  0  0  0  0  0  0  0  0
   11.5468  -17.2460   19.2533 C   0  0  0  0  0  0  0  0  0  0  0  0
   12.9579  -16.8303   19.3682 C   0  0  0  0  0  0  0  0  0  0  0  0
   13.3638  -16.2334   20.3836 O   0  0  0  0  0  0  0  0  0  0  0  0
    9.1517  -18.3344   21.1186 C   0  0  0  0  0  0  0  0  0  0  0  0
    8.5968  -17.2263   20.9039 O   0  0  0  0  0  0  0  0  0  0  0  0
   13.8588  -17.1062   18.3281 O   0  0  0  0  0  0  0  0  0  0  0  0
    9.0565  -18.8715   22.4101 N   0  0  0  0  0  0  0  0  0  0  0  0
    8.2061  -18.2833   23.4219 C   0  0  1  0  0  0  0  0  0  0  0  0
    7.9432  -19.3744   24.4658 C   0  0  0  0  0  0  0  0  0  0  0  0
    9.4874  -19.8322   25.2980 S   0  0  0  0  0  0  0  0  0  0  0  0
    8.8394  -17.1183   24.0791 C   0  0  0  0  0  0  0  0  0  0  0  0
   10.0788  -16.9458   23.9455 O   0  0  0  0  0  0  0  0  0  0  0  0
    5.4227  -12.1065   26.5789 C   0  0  0  0  0  0  0  0  0  0  0  0
    7.0797  -11.3887   26.4448 S   0  0  0  0  0  0  0  0  0  0  0  0
    8.2740  -12.7220   26.3834 C   0  0  0  0  0  0  0  0  0  0  0  0
    7.8047  -13.9170   25.6227 C   0  0  0  0  0  0  0  0  0  0  0  0
    8.8006  -15.0226   25.4914 C   0  0  2  0  0  0  0  0  0  0  0  0
    8.1411  -16.1635   24.8629 N   0  0  0  0  0  0  0  0  0  0  0  0
    9.4723  -15.4054   26.7479 C   0  0  0  0  0  0  0  0  0  0  0  0
    9.1208  -16.4511   27.3497 O   0  0  0  0  0  0  0  0  0  0  0  0
   10.4944  -14.6647   27.3225 O   0  0  0  0  0  0  0  0  0  0  0  0
  2  1  1  6
  3  2  1  0
  4  3  1  0
  5  6  2  0
  5  4  1  0
  7  8  2  0
  7  2  1  0
  9  5  1  0
 10  7  1  0
 11 10  1  0
 11 14  1  0
 11 12  1  1
 13 12  1  0
 14 21  1  0
 15 14  2  0
 17 16  1  0
 18 17  1  0
 20 19  1  1
 19 18  1  0
 20 22  1  0
 21 20  1  0
 22 23  2  0
 22 24  1  0
M  END
$$$$
