ECM.pdb
     RDKit          3D

 24 23  0  0  1  0  0  0  0  0999 V2000
    8.0901  -19.8401   20.0134 N   0  0  0  0  0  0  0  0  0  0  0  0
    7.6880  -18.4800   20.4076 C   0  0  1  0  0  0  0  0  0  0  0  0
    6.3425  -18.6307   21.0670 C   0  0  0  0  0  0  0  0  0  0  0  0
    5.7057  -19.9634   20.9274 C   0  0  0  0  0  0  0  0  0  0  0  0
    4.4720  -19.8873   20.1215 C   0  0  0  0  0  0  0  0  0  0  0  0
    4.4246  -20.3909   18.9829 O   0  0  0  0  0  0  0  0  0  0  0  0
    8.6091  -17.9542   21.4543 C   0  0  0  0  0  0  0  0  0  0  0  0
    8.8269  -18.6735   22.4627 O   0  0  0  0  0  0  0  0  0  0  0  0
    3.3358  -19.2432   20.6350 O   0  0  0  0  0  0  0  0  0  0  0  0
    9.2507  -16.7093   21.3909 N   0  0  0  0  0  0  0  0  0  0  0  0
   10.1288  -16.2474   22.4438 C   0  0  1  0  0  0  0  0  0  0  0  0
   11.0211  -15.1628   21.8298 C   0  0  0  0  0  0  0  0  0  0  0  0
   12.1822  -15.8998   20.6484 S   0  0  0  0  0  0  0  0  0  0  0  0
    9.3822  -15.6785   23.5878 C   0  0  0  0  0  0  0  0  0  0  0  0
    8.5205  -14.7881   23.3677 O   0  0  0  0  0  0  0  0  0  0  0  0
    6.7058  -11.6993   25.6861 C   0  0  0  0  0  0  0  0  0  0  0  0
    7.3815  -12.5283   27.1472 S   0  0  0  0  0  0  0  0  0  0  0  0
    7.0063  -14.2759   27.0344 C   0  0  0  0  0  0  0  0  0  0  0  0
    7.6667  -14.9612   25.8850 C   0  0  0  0  0  0  0  0  0  0  0  0
    9.1201  -15.2552   26.0658 C   0  0  2  0  0  0  0  0  0  0  0  0
    9.5683  -16.0688   24.9394 N   0  0  0  0  0  0  0  0  0  0  0  0
    9.4723  -15.8727   27.3585 C   0  0  0  0  0  0  0  0  0  0  0  0
    9.7467  -17.0980   27.4105 O   0  0  0  0  0  0  0  0  0  0  0  0
    9.5213  -15.1680   28.5521 O   0  0  0  0  0  0  0  0  0  0  0  0
  2  1  1  1
  3  2  1  0
  4  3  1  0
  5  6  2  0
  5  4  1  0
  7  8  2  0
  7  2  1  0
  9  5  1  0
 10  7  1  0
 11 10  1  0
 11 14  1  0
 11 12  1  6
 13 12  1  0
 14 21  1  0
 15 14  2  0
 17 16  1  0
 18 17  1  0
 20 19  1  1
 19 18  1  0
 20 22  1  0
 21 20  1  0
 22 23  2  0
 22 24  1  0
M  END
$$$$
