ECM.pdb
     RDKit          3D

 24 23  0  0  1  0  0  0  0  0999 V2000
    9.5712  -16.9228   19.1416 N   0  0  0  0  0  0  0  0  0  0  0  0
    8.8134  -17.2680   20.3555 C   0  0  1  0  0  0  0  0  0  0  0  0
    9.3016  -18.6331   20.7630 C   0  0  0  0  0  0  0  0  0  0  0  0
   10.5946  -19.0549   20.1703 C   0  0  0  0  0  0  0  0  0  0  0  0
   10.7449  -20.5225   20.1986 C   0  0  0  0  0  0  0  0  0  0  0  0
   10.8127  -21.1336   21.2822 O   0  0  0  0  0  0  0  0  0  0  0  0
    9.1762  -16.3457   21.4682 C   0  0  0  0  0  0  0  0  0  0  0  0
   10.3712  -15.9621   21.5497 O   0  0  0  0  0  0  0  0  0  0  0  0
   10.8128  -21.2454   18.9976 O   0  0  0  0  0  0  0  0  0  0  0  0
    8.2737  -15.8756   22.4326 N   0  0  0  0  0  0  0  0  0  0  0  0
    8.6848  -14.9808   23.4924 C   0  0  1  0  0  0  0  0  0  0  0  0
    7.4229  -14.2536   23.9700 C   0  0  0  0  0  0  0  0  0  0  0  0
    6.6706  -15.1467   25.3568 S   0  0  0  0  0  0  0  0  0  0  0  0
    9.2953  -15.7027   24.6309 C   0  0  0  0  0  0  0  0  0  0  0  0
    8.6624  -16.6560   25.1547 O   0  0  0  0  0  0  0  0  0  0  0  0
    8.6711  -11.4922   27.7096 C   0  0  0  0  0  0  0  0  0  0  0  0
    9.2619  -12.4029   29.1588 S   0  0  0  0  0  0  0  0  0  0  0  0
   10.1691  -13.8411   28.5962 C   0  0  0  0  0  0  0  0  0  0  0  0
   10.0552  -14.0895   27.1291 C   0  0  0  0  0  0  0  0  0  0  0  0
   10.7921  -15.2869   26.6247 C   0  0  2  0  0  0  0  0  0  0  0  0
   10.5643  -15.3950   25.1866 N   0  0  0  0  0  0  0  0  0  0  0  0
   10.4785  -16.5483   27.3226 C   0  0  0  0  0  0  0  0  0  0  0  0
    9.4733  -17.2189   26.9776 O   0  0  0  0  0  0  0  0  0  0  0  0
   11.2431  -17.0546   28.3630 O   0  0  0  0  0  0  0  0  0  0  0  0
  2  1  1  6
  3  2  1  0
  4  3  1  0
  5  6  2  0
  5  4  1  0
  7  8  2  0
  7  2  1  0
  9  5  1  0
 10  7  1  0
 11 10  1  0
 11 14  1  0
 11 12  1  1
 13 12  1  0
 14 21  1  0
 15 14  2  0
 17 16  1  0
 18 17  1  0
 20 19  1  1
 19 18  1  0
 20 22  1  0
 21 20  1  0
 22 23  2  0
 22 24  1  0
M  END
$$$$
