ECM.pdb
     RDKit          3D

 24 23  0  0  1  0  0  0  0  0999 V2000
    9.4263  -16.5043   19.1195 N   0  0  0  0  0  0  0  0  0  0  0  0
    9.3797  -17.9657   19.2890 C   0  0  1  0  0  0  0  0  0  0  0  0
   10.6936  -18.4769   18.7596 C   0  0  0  0  0  0  0  0  0  0  0  0
   11.8586  -17.5807   18.9619 C   0  0  0  0  0  0  0  0  0  0  0  0
   13.0931  -18.1725   18.4115 C   0  0  0  0  0  0  0  0  0  0  0  0
   13.3280  -19.3890   18.5426 O   0  0  0  0  0  0  0  0  0  0  0  0
    9.3490  -18.3150   20.7373 C   0  0  0  0  0  0  0  0  0  0  0  0
    9.0281  -19.4893   21.0534 O   0  0  0  0  0  0  0  0  0  0  0  0
   14.0175  -17.3643   17.7319 O   0  0  0  0  0  0  0  0  0  0  0  0
    9.6542  -17.4214   21.7736 N   0  0  0  0  0  0  0  0  0  0  0  0
    9.6552  -17.8314   23.1610 C   0  0  1  0  0  0  0  0  0  0  0  0
   10.5928  -19.0397   23.2631 C   0  0  0  0  0  0  0  0  0  0  0  0
   10.6376  -19.6572   24.9670 S   0  0  0  0  0  0  0  0  0  0  0  0
   10.1357  -16.7604   24.0621 C   0  0  0  0  0  0  0  0  0  0  0  0
   10.7786  -15.7966   23.5705 O   0  0  0  0  0  0  0  0  0  0  0  0
    6.6866  -11.3845   26.4091 C   0  0  0  0  0  0  0  0  0  0  0  0
    7.9329  -12.6386   26.0184 S   0  0  0  0  0  0  0  0  0  0  0  0
    7.1672  -14.2543   26.1247 C   0  0  0  0  0  0  0  0  0  0  0  0
    7.9736  -15.3454   25.5033 C   0  0  0  0  0  0  0  0  0  0  0  0
    9.2930  -15.6129   26.1505 C   0  0  2  0  0  0  0  0  0  0  0  0
    9.9219  -16.7380   25.4648 N   0  0  0  0  0  0  0  0  0  0  0  0
    9.2370  -15.8258   27.6092 C   0  0  0  0  0  0  0  0  0  0  0  0
    8.7783  -16.9033   28.0653 O   0  0  0  0  0  0  0  0  0  0  0  0
    9.6702  -14.8875   28.5341 O   0  0  0  0  0  0  0  0  0  0  0  0
  2  1  1  1
  3  2  1  0
  4  3  1  0
  5  6  2  0
  5  4  1  0
  7  8  2  0
  7  2  1  0
  9  5  1  0
 10  7  1  0
 11 10  1  0
 11 14  1  0
 11 12  1  6
 13 12  1  0
 14 21  1  0
 15 14  2  0
 17 16  1  0
 18 17  1  0
 20 19  1  6
 19 18  1  0
 20 22  1  0
 21 20  1  0
 22 23  2  0
 22 24  1  0
M  END
$$$$
