ECM.pdb
     RDKit          3D

 24 23  0  0  1  0  0  0  0  0999 V2000
    8.4425  -17.8197   20.4909 N   0  0  0  0  0  0  0  0  0  0  0  0
    7.4383  -16.7817   20.2065 C   0  0  1  0  0  0  0  0  0  0  0  0
    6.1258  -17.5102   20.0865 C   0  0  0  0  0  0  0  0  0  0  0  0
    6.0322  -18.7897   20.8316 C   0  0  0  0  0  0  0  0  0  0  0  0
    4.7206  -19.4345   20.6289 C   0  0  0  0  0  0  0  0  0  0  0  0
    3.8692  -18.9208   19.8782 O   0  0  0  0  0  0  0  0  0  0  0  0
    7.3015  -15.8647   21.3730 C   0  0  0  0  0  0  0  0  0  0  0  0
    6.2918  -15.1162   21.4187 O   0  0  0  0  0  0  0  0  0  0  0  0
    4.4206  -20.6386   21.2843 O   0  0  0  0  0  0  0  0  0  0  0  0
    8.2240  -15.7795   22.4252 N   0  0  0  0  0  0  0  0  0  0  0  0
    8.0667  -14.8294   23.5048 C   0  0  1  0  0  0  0  0  0  0  0  0
    6.7008  -15.1081   24.1420 C   0  0  0  0  0  0  0  0  0  0  0  0
    6.4161  -13.9823   25.5342 S   0  0  0  0  0  0  0  0  0  0  0  0
    9.1238  -14.9664   24.5312 C   0  0  0  0  0  0  0  0  0  0  0  0
    9.6616  -13.9257   24.9912 O   0  0  0  0  0  0  0  0  0  0  0  0
    9.8460  -12.9113   28.8805 C   0  0  0  0  0  0  0  0  0  0  0  0
   11.2177  -14.0530   29.1872 S   0  0  0  0  0  0  0  0  0  0  0  0
   10.7523  -15.6755   28.5882 C   0  0  0  0  0  0  0  0  0  0  0  0
    9.9205  -15.6450   27.3496 C   0  0  0  0  0  0  0  0  0  0  0  0
   10.5312  -16.2990   26.1535 C   0  0  2  0  0  0  0  0  0  0  0  0
    9.5851  -16.2060   25.0454 N   0  0  0  0  0  0  0  0  0  0  0  0
   10.9844  -17.6864   26.3684 C   0  0  0  0  0  0  0  0  0  0  0  0
   10.2272  -18.6436   26.0687 O   0  0  0  0  0  0  0  0  0  0  0  0
   12.2263  -18.0102   26.8940 O   0  0  0  0  0  0  0  0  0  0  0  0
  2  1  1  1
  3  2  1  0
  4  3  1  0
  5  6  2  0
  5  4  1  0
  7  8  2  0
  7  2  1  0
  9  5  1  0
 10  7  1  0
 11 10  1  0
 11 14  1  0
 11 12  1  1
 13 12  1  0
 14 21  1  0
 15 14  2  0
 17 16  1  0
 18 17  1  0
 20 19  1  1
 19 18  1  0
 20 22  1  0
 21 20  1  0
 22 23  2  0
 22 24  1  0
M  END
$$$$
