ECM.pdb
     RDKit          3D

 24 23  0  0  1  0  0  0  0  0999 V2000
    9.9361  -18.8321   19.0275 N   0  0  0  0  0  0  0  0  0  0  0  0
   10.1464  -18.7083   20.4791 C   0  0  1  0  0  0  0  0  0  0  0  0
   11.5537  -19.1837   20.7265 C   0  0  0  0  0  0  0  0  0  0  0  0
   11.9939  -20.3386   19.9057 C   0  0  0  0  0  0  0  0  0  0  0  0
   13.4610  -20.4925   19.9385 C   0  0  0  0  0  0  0  0  0  0  0  0
   14.1876  -19.8191   19.1831 O   0  0  0  0  0  0  0  0  0  0  0  0
   10.1132  -17.2744   20.8834 C   0  0  0  0  0  0  0  0  0  0  0  0
   11.0366  -16.5253   20.4736 O   0  0  0  0  0  0  0  0  0  0  0  0
   14.0524  -21.4042   20.8265 O   0  0  0  0  0  0  0  0  0  0  0  0
    9.1203  -16.7026   21.6913 N   0  0  0  0  0  0  0  0  0  0  0  0
    9.1339  -15.2990   22.0411 C   0  0  1  0  0  0  0  0  0  0  0  0
    7.7439  -14.7472   21.7050 C   0  0  0  0  0  0  0  0  0  0  0  0
    6.4675  -15.6753   22.5973 S   0  0  0  0  0  0  0  0  0  0  0  0
    9.4135  -15.0816   23.4780 C   0  0  0  0  0  0  0  0  0  0  0  0
    9.3858  -13.9078   23.9308 O   0  0  0  0  0  0  0  0  0  0  0  0
   11.0851  -13.4971   29.6308 C   0  0  0  0  0  0  0  0  0  0  0  0
   10.3643  -13.3377   27.9774 S   0  0  0  0  0  0  0  0  0  0  0  0
    9.0964  -14.5883   27.7864 C   0  0  0  0  0  0  0  0  0  0  0  0
    8.9000  -15.0370   26.3767 C   0  0  0  0  0  0  0  0  0  0  0  0
   10.0090  -15.8601   25.8077 C   0  0  2  0  0  0  0  0  0  0  0  0
    9.7160  -16.1165   24.4006 N   0  0  0  0  0  0  0  0  0  0  0  0
   10.2953  -17.1077   26.5411 C   0  0  0  0  0  0  0  0  0  0  0  0
    9.5103  -18.0840   26.4416 O   0  0  0  0  0  0  0  0  0  0  0  0
   11.4055  -17.2763   27.3550 O   0  0  0  0  0  0  0  0  0  0  0  0
  2  1  1  6
  3  2  1  0
  4  3  1  0
  5  6  2  0
  5  4  1  0
  7  8  2  0
  7  2  1  0
  9  5  1  0
 10  7  1  0
 11 10  1  0
 11 14  1  0
 11 12  1  1
 13 12  1  0
 14 21  1  0
 15 14  2  0
 17 16  1  0
 18 17  1  0
 20 19  1  1
 19 18  1  0
 20 22  1  0
 21 20  1  0
 22 23  2  0
 22 24  1  0
M  END
$$$$
