ECM.pdb
     RDKit          3D

 24 23  0  0  1  0  0  0  0  0999 V2000
    9.5396  -19.5680   19.9730 N   0  0  0  0  0  0  0  0  0  0  0  0
   10.5941  -18.5733   19.7176 C   0  0  1  0  0  0  0  0  0  0  0  0
   10.7713  -18.5458   18.2224 C   0  0  0  0  0  0  0  0  0  0  0  0
    9.6796  -17.8922   17.4593 C   0  0  0  0  0  0  0  0  0  0  0  0
   10.0140  -17.7884   16.0258 C   0  0  0  0  0  0  0  0  0  0  0  0
    9.8262  -18.7515   15.2582 O   0  0  0  0  0  0  0  0  0  0  0  0
   10.1243  -17.2139   20.1072 C   0  0  0  0  0  0  0  0  0  0  0  0
   10.8210  -16.2270   19.7569 O   0  0  0  0  0  0  0  0  0  0  0  0
   10.5492  -16.5965   15.5135 O   0  0  0  0  0  0  0  0  0  0  0  0
    8.9560  -16.9598   20.8393 N   0  0  0  0  0  0  0  0  0  0  0  0
    8.6793  -15.6598   21.4106 C   0  0  1  0  0  0  0  0  0  0  0  0
    7.3005  -15.2351   20.8930 C   0  0  0  0  0  0  0  0  0  0  0  0
    6.0320  -16.4013   21.4566 S   0  0  0  0  0  0  0  0  0  0  0  0
    8.6600  -15.6897   22.8900 C   0  0  0  0  0  0  0  0  0  0  0  0
    8.2127  -16.7127   23.4705 O   0  0  0  0  0  0  0  0  0  0  0  0
    6.9664  -10.6127   26.8320 C   0  0  0  0  0  0  0  0  0  0  0  0
    5.8244  -11.9926   26.5668 S   0  0  0  0  0  0  0  0  0  0  0  0
    6.7769  -13.5048   26.4480 C   0  0  0  0  0  0  0  0  0  0  0  0
    7.3814  -13.7322   25.1027 C   0  0  0  0  0  0  0  0  0  0  0  0
    8.6814  -14.4678   25.1024 C   0  0  2  0  0  0  0  0  0  0  0  0
    9.1166  -14.6319   23.7185 N   0  0  0  0  0  0  0  0  0  0  0  0
    8.6672  -15.7537   25.8255 C   0  0  0  0  0  0  0  0  0  0  0  0
    9.2285  -15.8454   26.9462 O   0  0  0  0  0  0  0  0  0  0  0  0
    8.0574  -16.8983   25.3340 O   0  0  0  0  0  0  0  0  0  0  0  0
  2  1  1  6
  3  2  1  0
  4  3  1  0
  5  6  2  0
  5  4  1  0
  7  8  2  0
  7  2  1  0
  9  5  1  0
 10  7  1  0
 11 10  1  0
 11 14  1  0
 11 12  1  6
 13 12  1  0
 14 21  1  0
 15 14  2  0
 17 16  1  0
 18 17  1  0
 20 19  1  6
 19 18  1  0
 20 22  1  0
 21 20  1  0
 22 23  2  0
 22 24  1  0
M  END
$$$$
