APP.pdb
     RDKit          3D

 20 21  0  0  1  0  0  0  0  0999 V2000
   25.2787  -19.3213  -11.4393 C   0  0  0  0  0  0  0  0  0  0  0  0
   25.7196  -20.7688  -11.3806 C   0  0  2  0  0  0  0  0  0  0  0  0
   24.6443  -21.6745  -11.6037 N   0  0  0  0  0  0  0  0  0  0  0  0
   26.5271  -21.0836  -10.2131 C   0  0  0  0  0  0  0  0  0  0  0  0
   25.8142  -21.3397   -9.1631 O   0  0  0  0  0  0  0  0  0  0  0  0
   27.9341  -21.1399  -10.0956 N   0  0  0  0  0  0  0  0  0  0  0  0
   28.9379  -20.9660  -11.1158 C   0  0  0  0  0  0  0  0  0  0  0  0
   30.1902  -21.6240  -10.5027 C   0  0  0  0  0  0  0  0  0  0  0  0
   30.0753  -21.1094   -9.0866 C   0  0  0  0  0  0  0  0  0  0  0  0
   28.5962  -21.4099   -8.8077 C   0  0  1  0  0  0  0  0  0  0  0  0
   28.1535  -20.3564   -7.8605 C   0  0  0  0  0  0  0  0  0  0  0  0
   27.4323  -19.4240   -8.3323 O   0  0  0  0  0  0  0  0  0  0  0  0
   28.4847  -20.3382   -6.4926 N   0  0  0  0  0  0  0  0  0  0  0  0
   29.1956  -21.4006   -5.8224 C   0  0  0  0  0  0  0  0  0  0  0  0
   28.2524  -21.6343   -4.6350 C   0  0  0  0  0  0  0  0  0  0  0  0
   27.9413  -20.2069   -4.2385 C   0  0  0  0  0  0  0  0  0  0  0  0
   28.2283  -19.3504   -5.4797 C   0  0  1  0  0  0  0  0  0  0  0  0
   29.4900  -18.5962   -5.1421 C   0  0  0  0  0  0  0  0  0  0  0  0
   29.3800  -17.5230   -4.2661 O   0  0  0  0  0  0  0  0  0  0  0  0
   30.6033  -18.8846   -5.6026 O   0  0  0  0  0  0  0  0  0  0  0  0
  2  1  1  1
  2  4  1  0
  3  2  1  0
  4  5  2  0
  6 10  1  0
  6  4  1  0
  7  6  1  0
  8  9  1  0
  8  7  1  0
  9 10  1  0
 10 11  1  1
 11 13  1  0
 11 12  2  0
 13 17  1  0
 14 13  1  0
 14 15  1  0
 15 16  1  0
 17 16  1  0
 18 19  1  0
 17 18  1  1
 20 18  2  0
M  END
$$$$
