APP.pdb
     RDKit          3D

 20 21  0  0  1  0  0  0  0  0999 V2000
   24.7957  -19.4066  -11.1617 C   0  0  0  0  0  0  0  0  0  0  0  0
   25.5752  -20.6876  -11.3722 C   0  0  2  0  0  0  0  0  0  0  0  0
   24.7671  -21.7365  -11.8948 N   0  0  0  0  0  0  0  0  0  0  0  0
   26.3789  -21.0744  -10.2238 C   0  0  0  0  0  0  0  0  0  0  0  0
   25.6633  -21.3678   -9.1855 O   0  0  0  0  0  0  0  0  0  0  0  0
   27.7848  -21.1633  -10.1134 N   0  0  0  0  0  0  0  0  0  0  0  0
   28.7873  -21.0103  -11.1381 C   0  0  0  0  0  0  0  0  0  0  0  0
   30.0272  -21.6982  -10.5325 C   0  0  0  0  0  0  0  0  0  0  0  0
   29.9310  -21.1842   -9.1148 C   0  0  0  0  0  0  0  0  0  0  0  0
   28.4467  -21.4513   -8.8293 C   0  0  1  0  0  0  0  0  0  0  0  0
   28.0329  -20.3900   -7.8777 C   0  0  0  0  0  0  0  0  0  0  0  0
   27.2914  -19.4654   -8.3332 O   0  0  0  0  0  0  0  0  0  0  0  0
   28.4120  -20.3564   -6.5226 N   0  0  0  0  0  0  0  0  0  0  0  0
   29.1912  -21.3869   -5.8790 C   0  0  0  0  0  0  0  0  0  0  0  0
   28.3022  -21.6596   -4.6587 C   0  0  0  0  0  0  0  0  0  0  0  0
   27.9449  -20.2464   -4.2504 C   0  0  0  0  0  0  0  0  0  0  0  0
   28.1503  -19.3796   -5.5006 C   0  0  1  0  0  0  0  0  0  0  0  0
   29.3900  -18.5719   -5.2080 C   0  0  0  0  0  0  0  0  0  0  0  0
   29.2678  -17.5088   -4.3214 O   0  0  0  0  0  0  0  0  0  0  0  0
   30.4958  -18.8086   -5.7139 O   0  0  0  0  0  0  0  0  0  0  0  0
  2  1  1  1
  2  4  1  0
  3  2  1  0
  4  5  2  0
  6 10  1  0
  6  4  1  0
  7  6  1  0
  8  9  1  0
  8  7  1  0
  9 10  1  0
 10 11  1  1
 11 13  1  0
 11 12  2  0
 13 17  1  0
 14 13  1  0
 14 15  1  0
 15 16  1  0
 17 16  1  0
 18 19  1  0
 17 18  1  1
 20 18  2  0
M  END
$$$$
