APP.pdb
     RDKit          3D

 20 21  0  0  1  0  0  0  0  0999 V2000
   23.5544  -20.3511  -17.8413 C   0  0  0  0  0  0  0  0  0  0  0  0
   25.0557  -20.2890  -18.0283 C   0  0  2  0  0  0  0  0  0  0  0  0
   25.5292  -21.2606  -18.9547 N   0  0  0  0  0  0  0  0  0  0  0  0
   25.7963  -20.2524  -16.7775 C   0  0  0  0  0  0  0  0  0  0  0  0
   26.0059  -21.4304  -16.2828 O   0  0  0  0  0  0  0  0  0  0  0  0
   26.2910  -19.1331  -16.0709 N   0  0  0  0  0  0  0  0  0  0  0  0
   26.2417  -17.7380  -16.4311 C   0  0  0  0  0  0  0  0  0  0  0  0
   27.3443  -17.1035  -15.5600 C   0  0  0  0  0  0  0  0  0  0  0  0
   27.0867  -17.8313  -14.2610 C   0  0  0  0  0  0  0  0  0  0  0  0
   26.9770  -19.2734  -14.7749 C   0  0  1  0  0  0  0  0  0  0  0  0
   26.0310  -19.9483  -13.8515 C   0  0  0  0  0  0  0  0  0  0  0  0
   24.8415  -20.1120  -14.2643 O   0  0  0  0  0  0  0  0  0  0  0  0
   26.3777  -20.4079  -12.5671 N   0  0  0  0  0  0  0  0  0  0  0  0
   27.6995  -20.2898  -11.9996 C   0  0  0  0  0  0  0  0  0  0  0  0
   27.9244  -21.7431  -11.5624 C   0  0  0  0  0  0  0  0  0  0  0  0
   26.5772  -22.0641  -10.9513 C   0  0  0  0  0  0  0  0  0  0  0  0
   25.5862  -21.0629  -11.5613 C   0  0  1  0  0  0  0  0  0  0  0  0
   25.2620  -20.1107  -10.4374 C   0  0  0  0  0  0  0  0  0  0  0  0
   24.2053  -20.4450   -9.5990 O   0  0  0  0  0  0  0  0  0  0  0  0
   25.8847  -19.0601  -10.2299 O   0  0  0  0  0  0  0  0  0  0  0  0
  2  1  1  1
  2  4  1  0
  3  2  1  0
  4  5  2  0
  6 10  1  0
  6  4  1  0
  7  6  1  0
  8  9  1  0
  8  7  1  0
  9 10  1  0
 10 11  1  1
 11 13  1  0
 11 12  2  0
 13 17  1  0
 14 13  1  0
 14 15  1  0
 15 16  1  0
 17 16  1  0
 18 19  1  0
 17 18  1  1
 20 18  2  0
M  END
$$$$
