APP.pdb
     RDKit          3D

 20 21  0  0  1  0  0  0  0  0999 V2000
   22.8322  -19.6620  -17.0545 C   0  0  0  0  0  0  0  0  0  0  0  0
   24.1471  -20.3036  -17.4450 C   0  0  2  0  0  0  0  0  0  0  0  0
   23.9693  -21.4487  -18.2717 N   0  0  0  0  0  0  0  0  0  0  0  0
   25.0459  -20.5170  -16.3221 C   0  0  0  0  0  0  0  0  0  0  0  0
   24.8287  -21.6372  -15.7103 O   0  0  0  0  0  0  0  0  0  0  0  0
   26.0809  -19.6832  -15.8422 N   0  0  0  0  0  0  0  0  0  0  0  0
   26.5909  -18.4561  -16.4014 C   0  0  0  0  0  0  0  0  0  0  0  0
   27.9785  -18.3122  -15.7450 C   0  0  0  0  0  0  0  0  0  0  0  0
   27.6309  -18.7225  -14.3328 C   0  0  0  0  0  0  0  0  0  0  0  0
   26.8259  -19.9994  -14.6114 C   0  0  1  0  0  0  0  0  0  0  0  0
   25.8336  -20.0858  -13.5110 C   0  0  0  0  0  0  0  0  0  0  0  0
   24.6465  -19.7219  -13.7763 O   0  0  0  0  0  0  0  0  0  0  0  0
   26.1345  -20.5420  -12.2139 N   0  0  0  0  0  0  0  0  0  0  0  0
   27.4280  -21.0449  -11.8175 C   0  0  0  0  0  0  0  0  0  0  0  0
   27.0043  -22.3740  -11.1786 C   0  0  0  0  0  0  0  0  0  0  0  0
   25.7952  -21.9303  -10.3833 C   0  0  0  0  0  0  0  0  0  0  0  0
   25.3131  -20.6276  -11.0369 C   0  0  1  0  0  0  0  0  0  0  0  0
   25.6811  -19.5455  -10.0528 C   0  0  0  0  0  0  0  0  0  0  0  0
   26.8941  -18.8940  -10.2408 O   0  0  0  0  0  0  0  0  0  0  0  0
   24.9630  -19.2154   -9.0989 O   0  0  0  0  0  0  0  0  0  0  0  0
  2  1  1  1
  2  4  1  0
  3  2  1  0
  4  5  2  0
  6 10  1  0
  6  4  1  0
  7  6  1  0
  8  9  1  0
  8  7  1  0
  9 10  1  0
 10 11  1  1
 11 13  1  0
 11 12  2  0
 13 17  1  0
 14 13  1  0
 14 15  1  0
 15 16  1  0
 17 16  1  0
 18 19  1  0
 17 18  1  1
 20 18  2  0
M  END
$$$$
