APP.pdb
     RDKit          3D

 20 21  0  0  1  0  0  0  0  0999 V2000
   26.4082  -22.6939  -18.2846 C   0  0  0  0  0  0  0  0  0  0  0  0
   27.7504  -22.4176  -17.6402 C   0  0  2  0  0  0  0  0  0  0  0  0
   28.6342  -23.5302  -17.7258 N   0  0  0  0  0  0  0  0  0  0  0  0
   27.6485  -21.8426  -16.3086 C   0  0  0  0  0  0  0  0  0  0  0  0
   27.6316  -22.7386  -15.3741 O   0  0  0  0  0  0  0  0  0  0  0  0
   27.5692  -20.4829  -15.9322 N   0  0  0  0  0  0  0  0  0  0  0  0
   27.6488  -19.3056  -16.7606 C   0  0  0  0  0  0  0  0  0  0  0  0
   27.9988  -18.1860  -15.7601 C   0  0  0  0  0  0  0  0  0  0  0  0
   27.0831  -18.5723  -14.6218 C   0  0  0  0  0  0  0  0  0  0  0  0
   27.3842  -20.0745  -14.5290 C   0  0  1  0  0  0  0  0  0  0  0  0
   26.1236  -20.6990  -14.0557 C   0  0  0  0  0  0  0  0  0  0  0  0
   25.4402  -21.3384  -14.9138 O   0  0  0  0  0  0  0  0  0  0  0  0
   25.6559  -20.6212  -12.7304 N   0  0  0  0  0  0  0  0  0  0  0  0
   26.3419  -19.9149  -11.6750 C   0  0  0  0  0  0  0  0  0  0  0  0
   26.3826  -21.0179  -10.6093 C   0  0  0  0  0  0  0  0  0  0  0  0
   24.9772  -21.5688  -10.7218 C   0  0  0  0  0  0  0  0  0  0  0  0
   24.4780  -21.1739  -12.1187 C   0  0  1  0  0  0  0  0  0  0  0  0
   23.4534  -20.0956  -11.8694 C   0  0  0  0  0  0  0  0  0  0  0  0
   23.8655  -18.7757  -12.0082 O   0  0  0  0  0  0  0  0  0  0  0  0
   22.2790  -20.3283  -11.5513 O   0  0  0  0  0  0  0  0  0  0  0  0
  2  1  1  1
  2  4  1  0
  3  2  1  0
  4  5  2  0
  6 10  1  0
  6  4  1  0
  7  6  1  0
  8  9  1  0
  8  7  1  0
  9 10  1  0
 10 11  1  6
 11 13  1  0
 11 12  2  0
 13 17  1  0
 14 13  1  0
 14 15  1  0
 15 16  1  0
 17 16  1  0
 18 19  1  0
 17 18  1  1
 20 18  2  0
M  END
$$$$
