APP.pdb
     RDKit          3D

 20 21  0  0  1  0  0  0  0  0999 V2000
   25.8803  -19.2505  -11.5589 C   0  0  0  0  0  0  0  0  0  0  0  0
   26.1262  -20.7296  -11.3470 C   0  0  2  0  0  0  0  0  0  0  0  0
   24.9504  -21.5092  -11.5367 N   0  0  0  0  0  0  0  0  0  0  0  0
   26.8444  -21.0294  -10.1188 C   0  0  0  0  0  0  0  0  0  0  0  0
   26.0673  -21.0939   -9.0851 O   0  0  0  0  0  0  0  0  0  0  0  0
   28.2275  -21.2482   -9.9297 N   0  0  0  0  0  0  0  0  0  0  0  0
   29.2840  -21.2794  -10.9103 C   0  0  0  0  0  0  0  0  0  0  0  0
   30.4189  -22.0355  -10.1910 C   0  0  0  0  0  0  0  0  0  0  0  0
   30.3148  -21.4009   -8.8236 C   0  0  0  0  0  0  0  0  0  0  0  0
   28.8000  -21.4951   -8.5951 C   0  0  1  0  0  0  0  0  0  0  0  0
   28.4569  -20.3241   -7.7500 C   0  0  0  0  0  0  0  0  0  0  0  0
   27.9781  -19.3077   -8.3415 O   0  0  0  0  0  0  0  0  0  0  0  0
   28.6310  -20.2829   -6.3539 N   0  0  0  0  0  0  0  0  0  0  0  0
   29.0553  -21.4126   -5.5621 C   0  0  0  0  0  0  0  0  0  0  0  0
   27.9586  -21.4032   -4.4891 C   0  0  0  0  0  0  0  0  0  0  0  0
   27.8726  -19.9221   -4.1887 C   0  0  0  0  0  0  0  0  0  0  0  0
   28.4488  -19.2064   -5.4185 C   0  0  1  0  0  0  0  0  0  0  0  0
   29.7818  -18.6696   -4.9605 C   0  0  0  0  0  0  0  0  0  0  0  0
   29.7808  -17.4815   -4.2397 O   0  0  0  0  0  0  0  0  0  0  0  0
   30.8616  -19.2304   -5.1934 O   0  0  0  0  0  0  0  0  0  0  0  0
  2  1  1  1
  2  4  1  0
  3  2  1  0
  4  5  2  0
  6 10  1  0
  6  4  1  0
  7  6  1  0
  8  9  1  0
  8  7  1  0
  9 10  1  0
 10 11  1  1
 11 13  1  0
 11 12  2  0
 13 17  1  0
 14 13  1  0
 14 15  1  0
 15 16  1  0
 17 16  1  0
 18 19  1  0
 17 18  1  1
 20 18  2  0
M  END
$$$$
