APP.pdb
     RDKit          3D

 20 21  0  0  1  0  0  0  0  0999 V2000
   29.1384  -32.5717  -14.8372 C   0  0  0  0  0  0  0  0  0  0  0  0
   28.1975  -32.8490  -15.9907 C   0  0  2  0  0  0  0  0  0  0  0  0
   26.8967  -33.2268  -15.5529 N   0  0  0  0  0  0  0  0  0  0  0  0
   28.7612  -33.7286  -17.0021 C   0  0  0  0  0  0  0  0  0  0  0  0
   28.3361  -34.9474  -16.9016 O   0  0  0  0  0  0  0  0  0  0  0  0
   29.6766  -33.4230  -18.0342 N   0  0  0  0  0  0  0  0  0  0  0  0
   30.2466  -32.1486  -18.3940 C   0  0  0  0  0  0  0  0  0  0  0  0
   30.7337  -32.3690  -19.8402 C   0  0  0  0  0  0  0  0  0  0  0  0
   31.3314  -33.7493  -19.6952 C   0  0  0  0  0  0  0  0  0  0  0  0
   30.1969  -34.4588  -18.9432 C   0  0  1  0  0  0  0  0  0  0  0  0
   30.8644  -35.4828  -18.1012 C   0  0  0  0  0  0  0  0  0  0  0  0
   31.0696  -35.1831  -16.8846 O   0  0  0  0  0  0  0  0  0  0  0  0
   31.2731  -36.7446  -18.5722 N   0  0  0  0  0  0  0  0  0  0  0  0
   31.1186  -37.1822  -19.9389 C   0  0  0  0  0  0  0  0  0  0  0  0
   30.4266  -38.5310  -19.7022 C   0  0  0  0  0  0  0  0  0  0  0  0
   31.2439  -39.0666  -18.5461 C   0  0  0  0  0  0  0  0  0  0  0  0
   31.8964  -37.8438  -17.8863 C   0  0  1  0  0  0  0  0  0  0  0  0
   33.3555  -37.9414  -18.2555 C   0  0  0  0  0  0  0  0  0  0  0  0
   33.7931  -37.1928  -19.3415 O   0  0  0  0  0  0  0  0  0  0  0  0
   34.1699  -38.6473  -17.6448 O   0  0  0  0  0  0  0  0  0  0  0  0
  2  1  1  1
  2  4  1  0
  3  2  1  0
  4  5  2  0
  6 10  1  0
  6  4  1  0
  7  6  1  0
  8  9  1  0
  8  7  1  0
  9 10  1  0
 10 11  1  1
 11 13  1  0
 11 12  2  0
 13 17  1  0
 14 13  1  0
 14 15  1  0
 15 16  1  0
 17 16  1  0
 18 19  1  0
 17 18  1  6
 20 18  2  0
M  END
$$$$
