APP.pdb
     RDKit          3D

 20 21  0  0  1  0  0  0  0  0999 V2000
   28.3069  -35.9165  -21.2131 C   0  0  0  0  0  0  0  0  0  0  0  0
   29.4516  -36.1618  -20.2527 C   0  0  2  0  0  0  0  0  0  0  0  0
   29.6609  -37.5466  -19.9981 N   0  0  0  0  0  0  0  0  0  0  0  0
   29.3905  -35.3413  -19.0538 C   0  0  0  0  0  0  0  0  0  0  0  0
   28.7074  -35.8924  -18.1019 O   0  0  0  0  0  0  0  0  0  0  0  0
   29.9628  -34.0713  -18.8168 N   0  0  0  0  0  0  0  0  0  0  0  0
   30.8443  -33.3015  -19.6588 C   0  0  0  0  0  0  0  0  0  0  0  0
   31.4954  -32.3043  -18.6796 C   0  0  0  0  0  0  0  0  0  0  0  0
   30.2820  -31.9294  -17.8606 C   0  0  0  0  0  0  0  0  0  0  0  0
   29.7068  -33.3233  -17.5739 C   0  0  1  0  0  0  0  0  0  0  0  0
   28.2386  -33.1295  -17.4759 C   0  0  0  0  0  0  0  0  0  0  0  0
   27.5540  -33.3815  -18.5152 O   0  0  0  0  0  0  0  0  0  0  0  0
   27.5784  -32.6900  -16.3132 N   0  0  0  0  0  0  0  0  0  0  0  0
   28.2463  -32.4162  -15.0633 C   0  0  0  0  0  0  0  0  0  0  0  0
   27.3767  -33.2532  -14.1162 C   0  0  0  0  0  0  0  0  0  0  0  0
   25.9941  -32.9123  -14.6297 C   0  0  0  0  0  0  0  0  0  0  0  0
   26.1871  -32.4203  -16.0710 C   0  0  1  0  0  0  0  0  0  0  0  0
   25.9378  -30.9343  -16.0058 C   0  0  0  0  0  0  0  0  0  0  0  0
   24.6168  -30.5041  -16.0391 O   0  0  0  0  0  0  0  0  0  0  0  0
   26.8424  -30.0918  -15.9251 O   0  0  0  0  0  0  0  0  0  0  0  0
  2  1  1  1
  2  4  1  0
  3  2  1  0
  4  5  2  0
  6 10  1  0
  6  4  1  0
  7  6  1  0
  8  9  1  0
  8  7  1  0
  9 10  1  0
 10 11  1  6
 11 13  1  0
 11 12  2  0
 13 17  1  0
 14 13  1  0
 14 15  1  0
 15 16  1  0
 17 16  1  0
 18 19  1  0
 17 18  1  1
 20 18  2  0
M  END
$$$$
