APP.pdb
     RDKit          3D

 20 21  0  0  1  0  0  0  0  0999 V2000
   22.4625  -10.6174  -20.0988 C   0  0  0  0  0  0  0  0  0  0  0  0
   21.9701  -11.5245  -18.9908 C   0  0  2  0  0  0  0  0  0  0  0  0
   20.8546  -12.3139  -19.3894 N   0  0  0  0  0  0  0  0  0  0  0  0
   21.7901  -10.8435  -17.7188 C   0  0  0  0  0  0  0  0  0  0  0  0
   20.6675  -10.2025  -17.6463 O   0  0  0  0  0  0  0  0  0  0  0  0
   22.6571  -10.8010  -16.6038 N   0  0  0  0  0  0  0  0  0  0  0  0
   23.9376  -11.4388  -16.4249 C   0  0  0  0  0  0  0  0  0  0  0  0
   24.1282  -11.4377  -14.8949 C   0  0  0  0  0  0  0  0  0  0  0  0
   23.6291  -10.0463  -14.5816 C   0  0  0  0  0  0  0  0  0  0  0  0
   22.3236  -10.0380  -15.3887 C   0  0  1  0  0  0  0  0  0  0  0  0
   22.1259   -8.6259  -15.8010 C   0  0  0  0  0  0  0  0  0  0  0  0
   22.6014   -8.2829  -16.9272 O   0  0  0  0  0  0  0  0  0  0  0  0
   21.4513   -7.6660  -15.0235 N   0  0  0  0  0  0  0  0  0  0  0  0
   20.7642   -7.9674  -13.7905 C   0  0  0  0  0  0  0  0  0  0  0  0
   19.4048   -7.3207  -14.0868 C   0  0  0  0  0  0  0  0  0  0  0  0
   19.8457   -6.0164  -14.7160 C   0  0  0  0  0  0  0  0  0  0  0  0
   21.2745   -6.2534  -15.2249 C   0  0  1  0  0  0  0  0  0  0  0  0
   22.1526   -5.4686  -14.2826 C   0  0  0  0  0  0  0  0  0  0  0  0
   22.4236   -4.1458  -14.6112 O   0  0  0  0  0  0  0  0  0  0  0  0
   22.6362   -5.9414  -13.2448 O   0  0  0  0  0  0  0  0  0  0  0  0
  2  1  1  6
  2  4  1  0
  3  2  1  0
  4  5  2  0
  6 10  1  0
  6  4  1  0
  7  6  1  0
  8  9  1  0
  8  7  1  0
  9 10  1  0
 10 11  1  6
 11 13  1  0
 11 12  2  0
 13 17  1  0
 14 13  1  0
 14 15  1  0
 15 16  1  0
 17 16  1  0
 18 19  1  0
 17 18  1  1
 20 18  2  0
M  END
$$$$
