APP.pdb
     RDKit          3D

 20 21  0  0  1  0  0  0  0  0999 V2000
   25.6340  -19.3177  -11.8483 C   0  0  0  0  0  0  0  0  0  0  0  0
   25.8317  -20.7995  -11.6072 C   0  0  2  0  0  0  0  0  0  0  0  0
   24.6343  -21.5458  -11.7959 N   0  0  0  0  0  0  0  0  0  0  0  0
   26.5273  -21.0988  -10.3659 C   0  0  0  0  0  0  0  0  0  0  0  0
   25.7363  -21.1298   -9.3414 O   0  0  0  0  0  0  0  0  0  0  0  0
   27.9023  -21.3480  -10.1564 N   0  0  0  0  0  0  0  0  0  0  0  0
   28.9706  -21.4127  -11.1224 C   0  0  0  0  0  0  0  0  0  0  0  0
   30.0779  -22.1885  -10.3813 C   0  0  0  0  0  0  0  0  0  0  0  0
   29.9707  -21.5392   -9.0210 C   0  0  0  0  0  0  0  0  0  0  0  0
   28.4511  -21.5960   -8.8120 C   0  0  1  0  0  0  0  0  0  0  0  0
   28.1244  -20.4097   -7.9820 C   0  0  0  0  0  0  0  0  0  0  0  0
   27.6755  -19.3885   -8.5886 O   0  0  0  0  0  0  0  0  0  0  0  0
   28.2828  -20.3592   -6.5844 N   0  0  0  0  0  0  0  0  0  0  0  0
   28.6287  -21.5008   -5.7718 C   0  0  0  0  0  0  0  0  0  0  0  0
   27.5210  -21.4108   -4.7140 C   0  0  0  0  0  0  0  0  0  0  0  0
   27.5199  -19.9231   -4.4347 C   0  0  0  0  0  0  0  0  0  0  0  0
   28.1535  -19.2605   -5.6660 C   0  0  1  0  0  0  0  0  0  0  0  0
   29.5103  -18.7978   -5.1972 C   0  0  0  0  0  0  0  0  0  0  0  0
   30.5996  -19.6114   -5.4852 O   0  0  0  0  0  0  0  0  0  0  0  0
   29.6962  -17.7420   -4.5765 O   0  0  0  0  0  0  0  0  0  0  0  0
  2  1  1  1
  2  4  1  0
  3  2  1  0
  4  5  2  0
  6 10  1  0
  6  4  1  0
  7  6  1  0
  8  9  1  0
  8  7  1  0
  9 10  1  0
 10 11  1  1
 11 13  1  0
 11 12  2  0
 13 17  1  0
 14 13  1  0
 14 15  1  0
 15 16  1  0
 17 16  1  0
 18 19  1  0
 17 18  1  1
 20 18  2  0
M  END
$$$$
