APP.pdb
     RDKit          3D

 20 21  0  0  1  0  0  0  0  0999 V2000
   25.4175  -19.1661  -11.4818 C   0  0  0  0  0  0  0  0  0  0  0  0
   25.6843  -20.6507  -11.3483 C   0  0  2  0  0  0  0  0  0  0  0  0
   24.5112  -21.4337  -11.5403 N   0  0  0  0  0  0  0  0  0  0  0  0
   26.4420  -21.0004  -10.1575 C   0  0  0  0  0  0  0  0  0  0  0  0
   25.6931  -21.1556   -9.1128 O   0  0  0  0  0  0  0  0  0  0  0  0
   27.8359  -21.1820  -10.0135 N   0  0  0  0  0  0  0  0  0  0  0  0
   28.8647  -21.1488  -11.0229 C   0  0  0  0  0  0  0  0  0  0  0  0
   30.0418  -21.8920  -10.3601 C   0  0  0  0  0  0  0  0  0  0  0  0
   29.9572  -21.3051   -8.9701 C   0  0  0  0  0  0  0  0  0  0  0  0
   28.4529  -21.4536   -8.7037 C   0  0  1  0  0  0  0  0  0  0  0  0
   28.0987  -20.3216   -7.8116 C   0  0  0  0  0  0  0  0  0  0  0  0
   27.4993  -19.3361   -8.3422 O   0  0  0  0  0  0  0  0  0  0  0  0
   28.3866  -20.2849   -6.4343 N   0  0  0  0  0  0  0  0  0  0  0  0
   28.8951  -21.4109   -5.6881 C   0  0  0  0  0  0  0  0  0  0  0  0
   27.8907  -21.4278   -4.5284 C   0  0  0  0  0  0  0  0  0  0  0  0
   27.8031  -19.9502   -4.2115 C   0  0  0  0  0  0  0  0  0  0  0  0
   28.2628  -19.2171   -5.4795 C   0  0  1  0  0  0  0  0  0  0  0  0
   29.6192  -18.6583   -5.1291 C   0  0  0  0  0  0  0  0  0  0  0  0
   29.6593  -17.5577   -4.2816 O   0  0  0  0  0  0  0  0  0  0  0  0
   30.6833  -19.1278   -5.5554 O   0  0  0  0  0  0  0  0  0  0  0  0
  2  1  1  1
  2  4  1  0
  3  2  1  0
  4  5  2  0
  6 10  1  0
  6  4  1  0
  7  6  1  0
  8  9  1  0
  8  7  1  0
  9 10  1  0
 10 11  1  1
 11 13  1  0
 11 12  2  0
 13 17  1  0
 14 13  1  0
 14 15  1  0
 15 16  1  0
 17 16  1  0
 18 19  1  0
 17 18  1  1
 20 18  2  0
M  END
$$$$
