APP.pdb
     RDKit          3D

 20 21  0  0  1  0  0  0  0  0999 V2000
   21.4652  -21.9760  -15.0332 C   0  0  0  0  0  0  0  0  0  0  0  0
   21.7601  -21.5757  -13.6029 C   0  0  2  0  0  0  0  0  0  0  0  0
   20.6117  -21.0683  -12.9321 N   0  0  0  0  0  0  0  0  0  0  0  0
   22.9437  -20.7424  -13.4647 C   0  0  0  0  0  0  0  0  0  0  0  0
   22.6978  -19.4851  -13.6521 O   0  0  0  0  0  0  0  0  0  0  0  0
   24.2699  -21.1265  -13.1639 N   0  0  0  0  0  0  0  0  0  0  0  0
   24.7661  -22.4052  -12.7201 C   0  0  0  0  0  0  0  0  0  0  0  0
   26.1354  -22.0630  -12.0997 C   0  0  0  0  0  0  0  0  0  0  0  0
   26.6363  -21.0757  -13.1281 C   0  0  0  0  0  0  0  0  0  0  0  0
   25.3960  -20.1833  -13.2744 C   0  0  1  0  0  0  0  0  0  0  0  0
   25.4238  -19.6996  -14.6774 C   0  0  0  0  0  0  0  0  0  0  0  0
   24.6535  -20.2813  -15.5023 O   0  0  0  0  0  0  0  0  0  0  0  0
   26.2433  -18.6494  -15.1318 N   0  0  0  0  0  0  0  0  0  0  0  0
   27.1754  -17.9350  -14.2927 C   0  0  0  0  0  0  0  0  0  0  0  0
   26.7514  -16.4936  -14.6034 C   0  0  0  0  0  0  0  0  0  0  0  0
   26.5822  -16.5686  -16.1058 C   0  0  0  0  0  0  0  0  0  0  0  0
   26.3651  -18.0523  -16.4341 C   0  0  1  0  0  0  0  0  0  0  0  0
   27.6454  -18.4892  -17.1008 C   0  0  0  0  0  0  0  0  0  0  0  0
   28.5250  -19.2637  -16.3539 O   0  0  0  0  0  0  0  0  0  0  0  0
   27.9451  -18.1941  -18.2660 O   0  0  0  0  0  0  0  0  0  0  0  0
  2  1  1  6
  2  4  1  0
  3  2  1  0
  4  5  2  0
  6 10  1  0
  6  4  1  0
  7  6  1  0
  8  9  1  0
  8  7  1  0
  9 10  1  0
 10 11  1  6
 11 13  1  0
 11 12  2  0
 13 17  1  0
 14 13  1  0
 14 15  1  0
 15 16  1  0
 17 16  1  0
 18 19  1  0
 17 18  1  1
 20 18  2  0
M  END
$$$$
