HIK.pdb
     RDKit          3D

 28 28  0  0  1  0  0  0  0  0999 V2000
    9.5230  -15.3761   20.1383 N   0  0  0  0  0  0  0  0  0  0  0  0
    8.5326  -15.7107   21.1369 C   0  0  1  0  0  0  0  0  0  0  0  0
    8.2062  -17.1892   21.1411 C   0  0  0  0  0  0  0  0  0  0  0  0
    7.6427  -17.6678   19.8715 C   0  0  0  0  0  0  0  0  0  0  0  0
    6.7060  -17.0109   19.1017 C   0  0  0  0  0  0  0  0  0  0  0  0
    6.4209  -17.7504   18.0028 N   0  0  0  0  0  0  0  0  0  0  0  0
    7.1813  -18.8483   18.1080 C   0  0  0  0  0  0  0  0  0  0  0  0
    7.9224  -18.8106   19.2302 N   0  0  0  0  0  0  0  0  0  0  0  0
    9.0176  -15.2525   22.4547 C   0  0  0  0  0  0  0  0  0  0  0  0
   10.2346  -15.3623   22.7314 O   0  0  0  0  0  0  0  0  0  0  0  0
    6.7684  -11.7944   26.9613 C   0  0  0  0  0  0  0  0  0  0  0  0
    7.9594  -12.6926   26.5963 C   0  0  0  0  0  0  0  0  0  0  0  0
    7.6555  -13.3125   25.2832 C   0  0  2  0  0  0  0  0  0  0  0  0
    6.2679  -13.8799   25.2510 C   0  0  0  0  0  0  0  0  0  0  0  0
    8.6857  -14.3171   24.7880 C   0  0  2  0  0  0  0  0  0  0  0  0
    8.1723  -14.6855   23.4431 N   0  0  0  0  0  0  0  0  0  0  0  0
    8.7085  -15.4713   25.6727 C   0  0  0  0  0  0  0  0  0  0  0  0
    7.7003  -16.2321   25.7186 O   0  0  0  0  0  0  0  0  0  0  0  0
    9.8066  -15.7759   26.4739 N   0  0  0  0  0  0  0  0  0  0  0  0
    9.9339  -17.0303   27.2190 C   0  0  1  0  0  0  0  0  0  0  0  0
   11.1786  -17.7173   26.6464 C   0  0  0  0  0  0  0  0  0  0  0  0
   11.3525  -19.0214   27.3900 C   0  0  0  0  0  0  0  0  0  0  0  0
   12.6318  -19.7194   26.9907 C   0  0  0  0  0  0  0  0  0  0  0  0
   12.8035  -21.0273   27.7066 C   0  0  0  0  0  0  0  0  0  0  0  0
   14.1213  -21.5484   27.3630 N   0  0  0  0  0  0  0  0  0  0  0  0
   10.1999  -16.7857   28.6459 C   0  0  0  0  0  0  0  0  0  0  0  0
   10.5453  -15.6942   29.1476 O   0  0  0  0  0  0  0  0  0  0  0  0
   10.0621  -17.8500   29.5432 O   0  0  0  0  0  0  0  0  0  0  0  0
  2  1  1  6
  3  2  1  0
  4  3  1  0
  4  5  2  0
  6  5  1  0
  7  8  2  0
  7  6  1  0
  8  4  1  0
  9  2  1  0
 10  9  2  0
 12 11  1  0
 13 15  1  0
 13 12  1  0
 13 14  1  1
 15 16  1  6
 16  9  1  0
 17 15  1  0
 18 17  2  0
 19 17  1  0
 20 26  1  0
 20 19  1  0
 21 22  1  0
 20 21  1  6
 23 24  1  0
 23 22  1  0
 24 25  1  0
 26 28  1  0
 27 26  2  0
M  END
$$$$
