HIK.pdb
     RDKit          3D

 28 28  0  0  1  0  0  0  0  0999 V2000
    9.9264  -13.5469   20.6059 N   0  0  0  0  0  0  0  0  0  0  0  0
    8.6565  -13.9398   21.1741 C   0  0  1  0  0  0  0  0  0  0  0  0
    8.0375  -15.1053   20.4317 C   0  0  0  0  0  0  0  0  0  0  0  0
    7.7211  -14.8043   19.0290 C   0  0  0  0  0  0  0  0  0  0  0  0
    7.9816  -13.6179   18.3761 C   0  0  0  0  0  0  0  0  0  0  0  0
    7.5515  -13.7006   17.0938 N   0  0  0  0  0  0  0  0  0  0  0  0
    7.0340  -14.9303   16.9727 C   0  0  0  0  0  0  0  0  0  0  0  0
    7.1302  -15.6056   18.1323 N   0  0  0  0  0  0  0  0  0  0  0  0
    8.8540  -14.2444   22.6059 C   0  0  0  0  0  0  0  0  0  0  0  0
    9.8288  -14.9509   22.9529 O   0  0  0  0  0  0  0  0  0  0  0  0
    5.8492  -11.2722   26.1786 C   0  0  0  0  0  0  0  0  0  0  0  0
    7.0715  -11.8363   25.4394 C   0  0  0  0  0  0  0  0  0  0  0  0
    7.1599  -13.2788   25.7745 C   0  0  2  0  0  0  0  0  0  0  0  0
    7.1979  -13.4974   27.2575 C   0  0  0  0  0  0  0  0  0  0  0  0
    8.2693  -14.0410   25.0648 C   0  0  2  0  0  0  0  0  0  0  0  0
    7.9904  -13.7762   23.6295 N   0  0  0  0  0  0  0  0  0  0  0  0
    8.1584  -15.4598   25.3654 C   0  0  0  0  0  0  0  0  0  0  0  0
    7.0912  -16.0699   25.0717 O   0  0  0  0  0  0  0  0  0  0  0  0
    9.1903  -16.1785   25.9647 N   0  0  0  0  0  0  0  0  0  0  0  0
    9.1116  -17.6137   26.2458 C   0  0  1  0  0  0  0  0  0  0  0  0
   10.1133  -18.2696   25.2890 C   0  0  0  0  0  0  0  0  0  0  0  0
   10.1524  -19.7431   25.6225 C   0  0  0  0  0  0  0  0  0  0  0  0
   11.1957  -20.4678   24.8042 C   0  0  0  0  0  0  0  0  0  0  0  0
   11.2607  -21.9279   25.1456 C   0  0  0  0  0  0  0  0  0  0  0  0
   12.3907  -22.4998   24.4230 N   0  0  0  0  0  0  0  0  0  0  0  0
    9.5628  -17.9213   27.6126 C   0  0  0  0  0  0  0  0  0  0  0  0
   10.3085  -17.2042   28.3141 O   0  0  0  0  0  0  0  0  0  0  0  0
    9.1355  -19.1146   28.2046 O   0  0  0  0  0  0  0  0  0  0  0  0
  2  1  1  6
  3  2  1  0
  4  3  1  0
  4  5  2  0
  6  5  1  0
  7  8  2  0
  7  6  1  0
  8  4  1  0
  9  2  1  0
 10  9  2  0
 12 11  1  0
 13 15  1  0
 13 12  1  0
 13 14  1  1
 15 16  1  6
 16  9  1  0
 17 15  1  0
 18 17  2  0
 19 17  1  0
 20 26  1  0
 20 19  1  0
 21 22  1  0
 20 21  1  6
 23 24  1  0
 23 22  1  0
 24 25  1  0
 26 28  1  0
 27 26  2  0
M  END
$$$$
