HIK.pdb
     RDKit          3D

 28 28  0  0  1  0  0  0  0  0999 V2000
    8.8860  -15.5173   20.6096 N   0  0  0  0  0  0  0  0  0  0  0  0
    8.0393  -15.8795   21.7239 C   0  0  1  0  0  0  0  0  0  0  0  0
    7.7917  -17.3719   21.7884 C   0  0  0  0  0  0  0  0  0  0  0  0
    7.0814  -17.8986   20.6153 C   0  0  0  0  0  0  0  0  0  0  0  0
    6.7458  -17.1858   19.4835 C   0  0  0  0  0  0  0  0  0  0  0  0
    6.0969  -17.9953   18.6120 N   0  0  0  0  0  0  0  0  0  0  0  0
    6.0409  -19.1908   19.2138 C   0  0  0  0  0  0  0  0  0  0  0  0
    6.6308  -19.1457   20.4221 N   0  0  0  0  0  0  0  0  0  0  0  0
    8.6528  -15.3713   22.9678 C   0  0  0  0  0  0  0  0  0  0  0  0
    9.8984  -15.4114   23.0970 O   0  0  0  0  0  0  0  0  0  0  0  0
    6.0142  -11.6796   25.9663 C   0  0  0  0  0  0  0  0  0  0  0  0
    7.1113  -12.4199   25.1872 C   0  0  0  0  0  0  0  0  0  0  0  0
    7.5177  -13.5889   26.0052 C   0  0  2  0  0  0  0  0  0  0  0  0
    7.9500  -13.1744   27.3799 C   0  0  0  0  0  0  0  0  0  0  0  0
    8.5332  -14.5145   25.3513 C   0  0  2  0  0  0  0  0  0  0  0  0
    7.9023  -14.8309   24.0437 N   0  0  0  0  0  0  0  0  0  0  0  0
    8.6931  -15.7140   26.1581 C   0  0  0  0  0  0  0  0  0  0  0  0
    7.6652  -16.3541   26.5202 O   0  0  0  0  0  0  0  0  0  0  0  0
    9.9429  -16.1909   26.5467 N   0  0  0  0  0  0  0  0  0  0  0  0
   10.1251  -17.3873   27.3715 C   0  0  1  0  0  0  0  0  0  0  0  0
   11.4063  -18.0476   26.8503 C   0  0  0  0  0  0  0  0  0  0  0  0
   11.1226  -18.5293   25.4461 C   0  0  0  0  0  0  0  0  0  0  0  0
   12.3375  -19.1832   24.8298 C   0  0  0  0  0  0  0  0  0  0  0  0
   12.0784  -19.6315   23.4211 C   0  0  0  0  0  0  0  0  0  0  0  0
   13.2993  -20.2559   22.9255 N   0  0  0  0  0  0  0  0  0  0  0  0
   10.3675  -17.0393   28.7810 C   0  0  0  0  0  0  0  0  0  0  0  0
   10.5523  -15.8863   29.2270 O   0  0  0  0  0  0  0  0  0  0  0  0
   10.3992  -18.0689   29.7275 O   0  0  0  0  0  0  0  0  0  0  0  0
  2  1  1  6
  3  2  1  0
  4  3  1  0
  4  5  2  0
  6  5  1  0
  7  8  2  0
  7  6  1  0
  8  4  1  0
  9  2  1  0
 10  9  2  0
 12 11  1  0
 13 15  1  0
 13 12  1  0
 13 14  1  1
 15 16  1  6
 16  9  1  0
 17 15  1  0
 18 17  2  0
 19 17  1  0
 20 26  1  0
 20 19  1  0
 21 22  1  0
 20 21  1  6
 23 24  1  0
 23 22  1  0
 24 25  1  0
 26 28  1  0
 27 26  2  0
M  END
$$$$
