HIK.pdb
     RDKit          3D

 28 28  0  0  1  0  0  0  0  0999 V2000
    8.3883  -14.8061   20.3899 N   0  0  0  0  0  0  0  0  0  0  0  0
    7.6780  -15.4710   21.4592 C   0  0  1  0  0  0  0  0  0  0  0  0
    7.5764  -16.9645   21.2319 C   0  0  0  0  0  0  0  0  0  0  0  0
    6.9946  -17.3203   19.9306 C   0  0  0  0  0  0  0  0  0  0  0  0
    5.6834  -17.1284   19.5494 C   0  0  0  0  0  0  0  0  0  0  0  0
    5.5075  -17.5772   18.2831 N   0  0  0  0  0  0  0  0  0  0  0  0
    6.7061  -18.0380   17.9013 C   0  0  0  0  0  0  0  0  0  0  0  0
    7.6111  -17.8888   18.8855 N   0  0  0  0  0  0  0  0  0  0  0  0
    8.3467  -15.1553   22.7379 C   0  0  0  0  0  0  0  0  0  0  0  0
    9.5948  -15.2352   22.8123 O   0  0  0  0  0  0  0  0  0  0  0  0
    5.8991  -11.7424   26.2163 C   0  0  0  0  0  0  0  0  0  0  0  0
    6.9990  -12.3744   25.3508 C   0  0  0  0  0  0  0  0  0  0  0  0
    7.3561  -13.6726   25.9739 C   0  0  2  0  0  0  0  0  0  0  0  0
    7.7777  -13.4992   27.4024 C   0  0  0  0  0  0  0  0  0  0  0  0
    8.3540  -14.5133   25.1909 C   0  0  2  0  0  0  0  0  0  0  0  0
    7.6473  -14.7599   23.9073 N   0  0  0  0  0  0  0  0  0  0  0  0
    8.6046  -15.7598   25.8971 C   0  0  0  0  0  0  0  0  0  0  0  0
    7.6285  -16.5038   26.1985 O   0  0  0  0  0  0  0  0  0  0  0  0
    9.8871  -16.1708   26.2535 N   0  0  0  0  0  0  0  0  0  0  0  0
   10.1722  -17.4677   26.8711 C   0  0  1  0  0  0  0  0  0  0  0  0
   11.4118  -17.9995   26.1433 C   0  0  0  0  0  0  0  0  0  0  0  0
   11.7697  -19.3239   26.7772 C   0  0  0  0  0  0  0  0  0  0  0  0
   12.9593  -19.9595   26.0960 C   0  0  0  0  0  0  0  0  0  0  0  0
   13.2880  -21.3024   26.6802 C   0  0  0  0  0  0  0  0  0  0  0  0
   14.4091  -21.8493   25.9250 N   0  0  0  0  0  0  0  0  0  0  0  0
   10.5399  -17.3211   28.2888 C   0  0  0  0  0  0  0  0  0  0  0  0
   10.9771  -16.2804   28.8258 O   0  0  0  0  0  0  0  0  0  0  0  0
   10.3980  -18.4269   29.1337 O   0  0  0  0  0  0  0  0  0  0  0  0
  2  1  1  6
  3  2  1  0
  4  3  1  0
  4  5  2  0
  6  5  1  0
  7  8  2  0
  7  6  1  0
  8  4  1  0
  9  2  1  0
 10  9  2  0
 12 11  1  0
 13 15  1  0
 13 12  1  0
 13 14  1  1
 15 16  1  6
 16  9  1  0
 17 15  1  0
 18 17  2  0
 19 17  1  0
 20 26  1  0
 20 19  1  0
 21 22  1  0
 20 21  1  6
 23 24  1  0
 23 22  1  0
 24 25  1  0
 26 28  1  0
 27 26  2  0
M  END
$$$$
