HIK.pdb
     RDKit          3D

 28 28  0  0  1  0  0  0  0  0999 V2000
    9.0593  -18.4238   17.3419 N   0  0  0  0  0  0  0  0  0  0  0  0
    8.1562  -18.2539   18.4579 C   0  0  1  0  0  0  0  0  0  0  0  0
    7.7154  -19.5804   19.0398 C   0  0  0  0  0  0  0  0  0  0  0  0
    6.8677  -20.3651   18.1320 C   0  0  0  0  0  0  0  0  0  0  0  0
    5.7688  -19.8977   17.4425 C   0  0  0  0  0  0  0  0  0  0  0  0
    5.2343  -20.9006   16.7048 N   0  0  0  0  0  0  0  0  0  0  0  0
    6.0062  -21.9684   16.9473 C   0  0  0  0  0  0  0  0  0  0  0  0
    6.9944  -21.6586   17.8061 N   0  0  0  0  0  0  0  0  0  0  0  0
    8.8121  -17.4018   19.4706 C   0  0  0  0  0  0  0  0  0  0  0  0
   10.0479  -17.5045   19.6496 O   0  0  0  0  0  0  0  0  0  0  0  0
    7.0331  -12.3612   20.3356 C   0  0  0  0  0  0  0  0  0  0  0  0
    7.9205  -13.5881   20.0787 C   0  0  0  0  0  0  0  0  0  0  0  0
    7.9663  -14.3683   21.3397 C   0  0  2  0  0  0  0  0  0  0  0  0
    8.3344  -13.5038   22.5082 C   0  0  0  0  0  0  0  0  0  0  0  0
    8.8108  -15.6331   21.2875 C   0  0  2  0  0  0  0  0  0  0  0  0
    8.1138  -16.4575   20.2664 N   0  0  0  0  0  0  0  0  0  0  0  0
    8.7942  -16.2868   22.5867 C   0  0  0  0  0  0  0  0  0  0  0  0
    7.6838  -16.5380   23.1356 O   0  0  0  0  0  0  0  0  0  0  0  0
    9.9616  -16.6532   23.2527 N   0  0  0  0  0  0  0  0  0  0  0  0
    9.9696  -17.2523   24.5890 C   0  0  1  0  0  0  0  0  0  0  0  0
   10.9672  -18.4130   24.5069 C   0  0  0  0  0  0  0  0  0  0  0  0
   10.3962  -19.4269   23.5425 C   0  0  0  0  0  0  0  0  0  0  0  0
   11.3541  -20.5730   23.3138 C   0  0  0  0  0  0  0  0  0  0  0  0
   10.8214  -21.5574   22.3139 C   0  0  0  0  0  0  0  0  0  0  0  0
   11.9527  -22.0574   21.5417 N   0  0  0  0  0  0  0  0  0  0  0  0
   10.4883  -16.3144   25.5978 C   0  0  0  0  0  0  0  0  0  0  0  0
   11.0215  -15.2089   25.3611 O   0  0  0  0  0  0  0  0  0  0  0  0
   10.3896  -16.6642   26.9487 O   0  0  0  0  0  0  0  0  0  0  0  0
  2  1  1  6
  3  2  1  0
  4  3  1  0
  4  5  2  0
  6  5  1  0
  7  8  2  0
  7  6  1  0
  8  4  1  0
  9  2  1  0
 10  9  2  0
 12 11  1  0
 13 15  1  0
 13 12  1  0
 13 14  1  1
 15 16  1  6
 16  9  1  0
 17 15  1  0
 18 17  2  0
 19 17  1  0
 20 26  1  0
 20 19  1  0
 21 22  1  0
 20 21  1  6
 23 24  1  0
 23 22  1  0
 24 25  1  0
 26 28  1  0
 27 26  2  0
M  END
$$$$
