HIK.pdb
     RDKit          3D

 28 28  0  0  1  0  0  0  0  0999 V2000
    7.0245  -15.2537   21.2882 N   0  0  0  0  0  0  0  0  0  0  0  0
    8.4655  -15.1372   21.2904 C   0  0  1  0  0  0  0  0  0  0  0  0
    8.9470  -14.0187   20.3907 C   0  0  0  0  0  0  0  0  0  0  0  0
    8.5254  -14.1702   18.9915 C   0  0  0  0  0  0  0  0  0  0  0  0
    8.7774  -15.2582   18.1825 C   0  0  0  0  0  0  0  0  0  0  0  0
    8.2394  -15.0478   16.9569 N   0  0  0  0  0  0  0  0  0  0  0  0
    7.6653  -13.8393   17.0250 C   0  0  0  0  0  0  0  0  0  0  0  0
    7.8307  -13.2999   18.2463 N   0  0  0  0  0  0  0  0  0  0  0  0
    8.9221  -14.9555   22.6834 C   0  0  0  0  0  0  0  0  0  0  0  0
   10.1483  -15.0014   22.9367 O   0  0  0  0  0  0  0  0  0  0  0  0
    6.0040  -11.7691   25.8216 C   0  0  0  0  0  0  0  0  0  0  0  0
    7.1594  -12.4517   25.0748 C   0  0  0  0  0  0  0  0  0  0  0  0
    7.4829  -13.6979   25.8119 C   0  0  2  0  0  0  0  0  0  0  0  0
    7.8023  -13.4188   27.2502 C   0  0  0  0  0  0  0  0  0  0  0  0
    8.5400  -14.5784   25.1615 C   0  0  2  0  0  0  0  0  0  0  0  0
    8.0394  -14.7280   23.7705 N   0  0  0  0  0  0  0  0  0  0  0  0
    8.5910  -15.8642   25.8395 C   0  0  0  0  0  0  0  0  0  0  0  0
    7.5175  -16.5045   26.0269 O   0  0  0  0  0  0  0  0  0  0  0  0
    9.7846  -16.4235   26.2899 N   0  0  0  0  0  0  0  0  0  0  0  0
    9.8545  -17.7019   27.0011 C   0  0  1  0  0  0  0  0  0  0  0  0
   10.9071  -18.5258   26.2512 C   0  0  0  0  0  0  0  0  0  0  0  0
   11.0569  -19.8373   26.9870 C   0  0  0  0  0  0  0  0  0  0  0  0
   12.1030  -20.7167   26.3424 C   0  0  0  0  0  0  0  0  0  0  0  0
   12.2031  -22.0542   27.0161 C   0  0  0  0  0  0  0  0  0  0  0  0
   13.1692  -22.8522   26.2704 N   0  0  0  0  0  0  0  0  0  0  0  0
   10.3492  -17.5279   28.3764 C   0  0  0  0  0  0  0  0  0  0  0  0
   11.0650  -16.5866   28.7813 O   0  0  0  0  0  0  0  0  0  0  0  0
   10.0037  -18.4847   29.3367 O   0  0  0  0  0  0  0  0  0  0  0  0
  2  1  1  1
  3  2  1  0
  4  3  1  0
  4  5  2  0
  6  5  1  0
  7  8  2  0
  7  6  1  0
  8  4  1  0
  9  2  1  0
 10  9  2  0
 12 11  1  0
 13 15  1  0
 13 12  1  0
 13 14  1  1
 15 16  1  6
 16  9  1  0
 17 15  1  0
 18 17  2  0
 19 17  1  0
 20 26  1  0
 20 19  1  0
 21 22  1  0
 20 21  1  6
 23 24  1  0
 23 22  1  0
 24 25  1  0
 26 28  1  0
 27 26  2  0
M  END
$$$$
