HIK.pdb
     RDKit          3D

 28 28  0  0  1  0  0  0  0  0999 V2000
    7.9710  -14.9869   20.2946 N   0  0  0  0  0  0  0  0  0  0  0  0
    7.3836  -15.6554   21.4339 C   0  0  1  0  0  0  0  0  0  0  0  0
    7.3200  -17.1560   21.2422 C   0  0  0  0  0  0  0  0  0  0  0  0
    6.5383  -17.5633   20.0668 C   0  0  0  0  0  0  0  0  0  0  0  0
    5.1796  -17.3967   19.8996 C   0  0  0  0  0  0  0  0  0  0  0  0
    4.8055  -17.8921   18.6953 N   0  0  0  0  0  0  0  0  0  0  0  0
    5.9321  -18.3555   18.1377 C   0  0  0  0  0  0  0  0  0  0  0  0
    6.9837  -18.1632   18.9545 N   0  0  0  0  0  0  0  0  0  0  0  0
    8.1496  -15.2892   22.6427 C   0  0  0  0  0  0  0  0  0  0  0  0
    9.3988  -15.3843   22.6283 O   0  0  0  0  0  0  0  0  0  0  0  0
    5.9431  -11.7440   26.1176 C   0  0  0  0  0  0  0  0  0  0  0  0
    6.9602  -12.4270   25.1914 C   0  0  0  0  0  0  0  0  0  0  0  0
    7.4216  -13.6583   25.8784 C   0  0  2  0  0  0  0  0  0  0  0  0
    7.9996  -13.3515   27.2275 C   0  0  0  0  0  0  0  0  0  0  0  0
    8.3454  -14.5483   25.0598 C   0  0  2  0  0  0  0  0  0  0  0  0
    7.5441  -14.8279   23.8400 N   0  0  0  0  0  0  0  0  0  0  0  0
    8.6233  -15.7726   25.7942 C   0  0  0  0  0  0  0  0  0  0  0  0
    7.6597  -16.5065   26.1549 O   0  0  0  0  0  0  0  0  0  0  0  0
    9.9185  -16.1729   26.1146 N   0  0  0  0  0  0  0  0  0  0  0  0
   10.2393  -17.4941   26.6590 C   0  0  1  0  0  0  0  0  0  0  0  0
   11.5263  -17.9244   25.9466 C   0  0  0  0  0  0  0  0  0  0  0  0
   11.9513  -19.2443   26.5478 C   0  0  0  0  0  0  0  0  0  0  0  0
   13.2977  -19.6838   26.0215 C   0  0  0  0  0  0  0  0  0  0  0  0
   13.7365  -20.9868   26.6233 C   0  0  0  0  0  0  0  0  0  0  0  0
   13.9374  -21.9315   25.5309 N   0  0  0  0  0  0  0  0  0  0  0  0
   10.5498  -17.4248   28.0961 C   0  0  0  0  0  0  0  0  0  0  0  0
   10.7981  -16.3825   28.7399 O   0  0  0  0  0  0  0  0  0  0  0  0
   10.5764  -18.6141   28.8321 O   0  0  0  0  0  0  0  0  0  0  0  0
  2  1  1  6
  3  2  1  0
  4  3  1  0
  4  5  2  0
  6  5  1  0
  7  8  2  0
  7  6  1  0
  8  4  1  0
  9  2  1  0
 10  9  2  0
 12 11  1  0
 13 15  1  0
 13 12  1  0
 13 14  1  1
 15 16  1  6
 16  9  1  0
 17 15  1  0
 18 17  2  0
 19 17  1  0
 20 26  1  0
 20 19  1  0
 21 22  1  0
 20 21  1  6
 23 24  1  0
 23 22  1  0
 24 25  1  0
 26 28  1  0
 27 26  2  0
M  END
$$$$
