HIK.pdb
     RDKit          3D

 28 28  0  0  1  0  0  0  0  0999 V2000
   11.0470  -16.0038   15.6250 N   0  0  0  0  0  0  0  0  0  0  0  0
   10.4681  -16.8150   16.6722 C   0  0  1  0  0  0  0  0  0  0  0  0
   11.0679  -18.2047   16.7125 C   0  0  0  0  0  0  0  0  0  0  0  0
   10.8713  -18.9633   15.4699 C   0  0  0  0  0  0  0  0  0  0  0  0
    9.6574  -19.3222   14.9229 C   0  0  0  0  0  0  0  0  0  0  0  0
    9.8620  -20.0149   13.7766 N   0  0  0  0  0  0  0  0  0  0  0  0
   11.1925  -20.0743   13.6316 C   0  0  0  0  0  0  0  0  0  0  0  0
   11.8123  -19.4441   14.6459 N   0  0  0  0  0  0  0  0  0  0  0  0
   10.6310  -16.1100   17.9600 C   0  0  0  0  0  0  0  0  0  0  0  0
   11.7832  -15.9300   18.4180 O   0  0  0  0  0  0  0  0  0  0  0  0
    6.8548  -12.4743   19.4668 C   0  0  0  0  0  0  0  0  0  0  0  0
    8.1986  -13.1406   19.1369 C   0  0  0  0  0  0  0  0  0  0  0  0
    8.4691  -14.1351   20.2040 C   0  0  2  0  0  0  0  0  0  0  0  0
    8.3857  -13.5155   21.5670 C   0  0  0  0  0  0  0  0  0  0  0  0
    9.7486  -14.9398   20.0292 C   0  0  2  0  0  0  0  0  0  0  0  0
    9.5413  -15.6160   18.7224 N   0  0  0  0  0  0  0  0  0  0  0  0
    9.8679  -15.9101   21.1062 C   0  0  0  0  0  0  0  0  0  0  0  0
    9.0497  -16.8717   21.1621 O   0  0  0  0  0  0  0  0  0  0  0  0
   10.8574  -15.8230   22.0829 N   0  0  0  0  0  0  0  0  0  0  0  0
   11.0776  -16.8560   23.0974 C   0  0  1  0  0  0  0  0  0  0  0  0
   12.5265  -16.6671   23.5602 C   0  0  0  0  0  0  0  0  0  0  0  0
   13.4203  -17.1788   22.4541 C   0  0  0  0  0  0  0  0  0  0  0  0
   14.8804  -17.0671   22.8268 C   0  0  0  0  0  0  0  0  0  0  0  0
   15.7767  -17.5984   21.7464 C   0  0  0  0  0  0  0  0  0  0  0  0
   17.1547  -17.3991   22.1791 N   0  0  0  0  0  0  0  0  0  0  0  0
   10.2222  -16.6454   24.2765 C   0  0  0  0  0  0  0  0  0  0  0  0
    9.5621  -15.6133   24.5247 O   0  0  0  0  0  0  0  0  0  0  0  0
   10.1194  -17.6735   25.2196 O   0  0  0  0  0  0  0  0  0  0  0  0
  2  1  1  6
  3  2  1  0
  4  3  1  0
  4  5  2  0
  6  5  1  0
  7  8  2  0
  7  6  1  0
  8  4  1  0
  9  2  1  0
 10  9  2  0
 12 11  1  0
 13 15  1  0
 13 12  1  0
 13 14  1  1
 15 16  1  6
 16  9  1  0
 17 15  1  0
 18 17  2  0
 19 17  1  0
 20 26  1  0
 20 19  1  0
 21 22  1  0
 20 21  1  1
 23 24  1  0
 23 22  1  0
 24 25  1  0
 26 28  1  0
 27 26  2  0
M  END
$$$$
