HIK.pdb
     RDKit          3D

 28 28  0  0  1  0  0  0  0  0999 V2000
    6.0664  -15.5930   25.8126 N   0  0  0  0  0  0  0  0  0  0  0  0
    6.6143  -14.6817   24.8332 C   0  0  1  0  0  0  0  0  0  0  0  0
    7.5400  -13.6612   25.4612 C   0  0  0  0  0  0  0  0  0  0  0  0
    6.8906  -12.8357   26.4884 C   0  0  0  0  0  0  0  0  0  0  0  0
    5.9718  -11.8330   26.2608 C   0  0  0  0  0  0  0  0  0  0  0  0
    5.5900  -11.2893   27.4417 N   0  0  0  0  0  0  0  0  0  0  0  0
    6.2746  -11.9600   28.3778 C   0  0  0  0  0  0  0  0  0  0  0  0
    7.0622  -12.8949   27.8160 N   0  0  0  0  0  0  0  0  0  0  0  0
    7.2960  -15.4687   23.7854 C   0  0  0  0  0  0  0  0  0  0  0  0
    7.6894  -16.6286   24.0493 O   0  0  0  0  0  0  0  0  0  0  0  0
    7.6878  -12.7728   19.1495 C   0  0  0  0  0  0  0  0  0  0  0  0
    7.3577  -13.8830   20.1580 C   0  0  0  0  0  0  0  0  0  0  0  0
    8.6124  -14.6329   20.4115 C   0  0  2  0  0  0  0  0  0  0  0  0
    9.1080  -15.3113   19.1694 C   0  0  0  0  0  0  0  0  0  0  0  0
    8.5670  -15.5887   21.5946 C   0  0  2  0  0  0  0  0  0  0  0  0
    7.5359  -14.9807   22.4750 N   0  0  0  0  0  0  0  0  0  0  0  0
    9.8643  -15.6165   22.2516 C   0  0  0  0  0  0  0  0  0  0  0  0
   10.0275  -14.9620   23.3204 O   0  0  0  0  0  0  0  0  0  0  0  0
   10.9403  -16.3442   21.7483 N   0  0  0  0  0  0  0  0  0  0  0  0
   11.8664  -17.0985   22.5957 C   0  0  1  0  0  0  0  0  0  0  0  0
   11.0154  -18.1895   23.2550 C   0  0  0  0  0  0  0  0  0  0  0  0
   11.9385  -19.0156   24.1209 C   0  0  0  0  0  0  0  0  0  0  0  0
   11.2046  -20.1646   24.7723 C   0  0  0  0  0  0  0  0  0  0  0  0
   12.1286  -21.0419   25.5655 C   0  0  0  0  0  0  0  0  0  0  0  0
   11.3081  -22.0053   26.2899 N   0  0  0  0  0  0  0  0  0  0  0  0
   12.8938  -17.7841   21.7952 C   0  0  0  0  0  0  0  0  0  0  0  0
   12.6915  -18.4223   20.7396 O   0  0  0  0  0  0  0  0  0  0  0  0
   14.2227  -17.7343   22.2295 O   0  0  0  0  0  0  0  0  0  0  0  0
  2  1  1  1
  3  2  1  0
  4  3  1  0
  4  5  2  0
  6  5  1  0
  7  8  2  0
  7  6  1  0
  8  4  1  0
  9  2  1  0
 10  9  2  0
 12 11  1  0
 13 15  1  0
 13 12  1  0
 13 14  1  6
 15 16  1  1
 16  9  1  0
 17 15  1  0
 18 17  2  0
 19 17  1  0
 20 26  1  0
 20 19  1  0
 21 22  1  0
 20 21  1  6
 23 24  1  0
 23 22  1  0
 24 25  1  0
 26 28  1  0
 27 26  2  0
M  END
$$$$
