HIK.pdb
     RDKit          3D

 28 28  0  0  1  0  0  0  0  0999 V2000
    6.9768  -15.0993   21.4070 N   0  0  0  0  0  0  0  0  0  0  0  0
    8.4219  -15.1367   21.4186 C   0  0  1  0  0  0  0  0  0  0  0  0
    9.0248  -14.1162   20.4764 C   0  0  0  0  0  0  0  0  0  0  0  0
    8.4149  -14.1214   19.1399 C   0  0  0  0  0  0  0  0  0  0  0  0
    7.3604  -13.3346   18.7271 C   0  0  0  0  0  0  0  0  0  0  0  0
    7.0659  -13.6106   17.4337 N   0  0  0  0  0  0  0  0  0  0  0  0
    7.9380  -14.5591   17.0669 C   0  0  0  0  0  0  0  0  0  0  0  0
    8.7566  -14.8758   18.0865 N   0  0  0  0  0  0  0  0  0  0  0  0
    8.8880  -14.9436   22.8070 C   0  0  0  0  0  0  0  0  0  0  0  0
   10.1129  -14.7995   23.0273 O   0  0  0  0  0  0  0  0  0  0  0  0
    6.0332  -12.1199   26.2566 C   0  0  0  0  0  0  0  0  0  0  0  0
    7.2183  -12.7155   25.4822 C   0  0  0  0  0  0  0  0  0  0  0  0
    7.4857  -14.0581   26.0537 C   0  0  2  0  0  0  0  0  0  0  0  0
    7.7724  -13.9829   27.5236 C   0  0  0  0  0  0  0  0  0  0  0  0
    8.5353  -14.8775   25.3171 C   0  0  2  0  0  0  0  0  0  0  0  0
    8.0157  -14.9110   23.9254 N   0  0  0  0  0  0  0  0  0  0  0  0
    8.5981  -16.2156   25.8835 C   0  0  0  0  0  0  0  0  0  0  0  0
    7.5240  -16.8512   26.0825 O   0  0  0  0  0  0  0  0  0  0  0  0
    9.8038  -16.8302   26.2141 N   0  0  0  0  0  0  0  0  0  0  0  0
    9.8857  -18.1367   26.8707 C   0  0  1  0  0  0  0  0  0  0  0  0
   11.0407  -18.8673   26.1769 C   0  0  0  0  0  0  0  0  0  0  0  0
   10.4372  -19.9905   25.3655 C   0  0  0  0  0  0  0  0  0  0  0  0
   11.4958  -20.7514   24.6015 C   0  0  0  0  0  0  0  0  0  0  0  0
   10.9012  -21.8307   23.7446 C   0  0  0  0  0  0  0  0  0  0  0  0
   11.9940  -22.4751   23.0258 N   0  0  0  0  0  0  0  0  0  0  0  0
   10.2549  -18.0054   28.2895 C   0  0  0  0  0  0  0  0  0  0  0  0
   10.0604  -18.8638   29.1771 O   0  0  0  0  0  0  0  0  0  0  0  0
   10.8800  -16.8270   28.7109 O   0  0  0  0  0  0  0  0  0  0  0  0
  2  1  1  1
  3  2  1  0
  4  3  1  0
  4  5  2  0
  6  5  1  0
  7  8  2  0
  7  6  1  0
  8  4  1  0
  9  2  1  0
 10  9  2  0
 12 11  1  0
 13 15  1  0
 13 12  1  0
 13 14  1  1
 15 16  1  6
 16  9  1  0
 17 15  1  0
 18 17  2  0
 19 17  1  0
 20 26  1  0
 20 19  1  0
 21 22  1  0
 20 21  1  6
 23 24  1  0
 23 22  1  0
 24 25  1  0
 26 28  1  0
 27 26  2  0
M  END
$$$$
