HIK.pdb
     RDKit          3D

 28 28  0  0  1  0  0  0  0  0999 V2000
    8.8498  -14.7410   20.4360 N   0  0  0  0  0  0  0  0  0  0  0  0
    8.1429  -15.5036   21.4403 C   0  0  1  0  0  0  0  0  0  0  0  0
    8.1838  -16.9907   21.1586 C   0  0  0  0  0  0  0  0  0  0  0  0
    7.6346  -17.3529   19.8450 C   0  0  0  0  0  0  0  0  0  0  0  0
    6.3238  -17.2006   19.4447 C   0  0  0  0  0  0  0  0  0  0  0  0
    6.1826  -17.6428   18.1718 N   0  0  0  0  0  0  0  0  0  0  0  0
    7.4017  -18.0600   17.8049 C   0  0  0  0  0  0  0  0  0  0  0  0
    8.2858  -17.8906   18.8047 N   0  0  0  0  0  0  0  0  0  0  0  0
    8.7112  -15.1807   22.7650 C   0  0  0  0  0  0  0  0  0  0  0  0
    9.9462  -15.2910   22.9449 O   0  0  0  0  0  0  0  0  0  0  0  0
    5.8776  -11.8281   25.9877 C   0  0  0  0  0  0  0  0  0  0  0  0
    7.0489  -12.4308   25.1983 C   0  0  0  0  0  0  0  0  0  0  0  0
    7.4642  -13.6674   25.9048 C   0  0  2  0  0  0  0  0  0  0  0  0
    7.8331  -13.3883   27.3311 C   0  0  0  0  0  0  0  0  0  0  0  0
    8.5324  -14.4888   25.1979 C   0  0  2  0  0  0  0  0  0  0  0  0
    7.9279  -14.7453   23.8649 N   0  0  0  0  0  0  0  0  0  0  0  0
    8.7519  -15.7321   25.9200 C   0  0  0  0  0  0  0  0  0  0  0  0
    7.7797  -16.5194   26.1001 O   0  0  0  0  0  0  0  0  0  0  0  0
   10.0004  -16.0938   26.4209 N   0  0  0  0  0  0  0  0  0  0  0  0
   10.2620  -17.3776   27.0753 C   0  0  1  0  0  0  0  0  0  0  0  0
   11.5364  -17.9163   26.4160 C   0  0  0  0  0  0  0  0  0  0  0  0
   11.8612  -19.2347   27.0797 C   0  0  0  0  0  0  0  0  0  0  0  0
   13.1512  -19.8171   26.5506 C   0  0  0  0  0  0  0  0  0  0  0  0
   13.4799  -21.1307   27.1981 C   0  0  0  0  0  0  0  0  0  0  0  0
   14.7155  -21.6207   26.5985 N   0  0  0  0  0  0  0  0  0  0  0  0
   10.5626  -17.2029   28.5056 C   0  0  0  0  0  0  0  0  0  0  0  0
   10.8507  -16.1226   29.0644 O   0  0  0  0  0  0  0  0  0  0  0  0
   10.5307  -18.3274   29.3372 O   0  0  0  0  0  0  0  0  0  0  0  0
  2  1  1  6
  3  2  1  0
  4  3  1  0
  4  5  2  0
  6  5  1  0
  7  8  2  0
  7  6  1  0
  8  4  1  0
  9  2  1  0
 10  9  2  0
 12 11  1  0
 13 15  1  0
 13 12  1  0
 13 14  1  1
 15 16  1  6
 16  9  1  0
 17 15  1  0
 18 17  2  0
 19 17  1  0
 20 26  1  0
 20 19  1  0
 21 22  1  0
 20 21  1  6
 23 24  1  0
 23 22  1  0
 24 25  1  0
 26 28  1  0
 27 26  2  0
M  END
$$$$
