HQN.pdb
     RDKit          3D

 28 28  0  0  1  0  0  0  0  0999 V2000
    9.3843  -15.8689   17.9328 N   0  0  0  0  0  0  0  0  0  0  0  0
   10.2779  -14.9824   18.5712 C   0  0  1  0  0  0  0  0  0  0  0  0
    9.6512  -14.5643   19.9020 C   0  0  0  0  0  0  0  0  0  0  0  0
    8.3753  -13.8715   19.5834 C   0  0  0  0  0  0  0  0  0  0  0  0
    7.1313  -14.1431   20.1603 C   0  0  0  0  0  0  0  0  0  0  0  0
    6.2406  -13.3075   19.6068 N   0  0  0  0  0  0  0  0  0  0  0  0
    6.8885  -12.5314   18.7107 C   0  0  0  0  0  0  0  0  0  0  0  0
    8.1713  -12.8787   18.7047 N   0  0  0  0  0  0  0  0  0  0  0  0
   11.5966  -15.6363   18.7781 C   0  0  0  0  0  0  0  0  0  0  0  0
   11.7022  -16.8775   18.9717 O   0  0  0  0  0  0  0  0  0  0  0  0
   17.0228  -12.5375   17.3634 N   0  0  0  0  0  0  0  0  0  0  0  0
   17.0981  -13.9301   17.1830 C   0  0  0  0  0  0  0  0  0  0  0  0
   17.6913  -14.4132   16.2104 O   0  0  0  0  0  0  0  0  0  0  0  0
   16.4538  -14.8159   18.1790 C   0  0  0  0  0  0  0  0  0  0  0  0
   14.9913  -14.6026   18.1070 C   0  0  0  0  0  0  0  0  0  0  0  0
   14.1199  -15.4289   18.9946 C   0  0  2  0  0  0  0  0  0  0  0  0
   12.7649  -14.8675   18.7607 N   0  0  0  0  0  0  0  0  0  0  0  0
   14.3703  -15.2916   20.4387 C   0  0  0  0  0  0  0  0  0  0  0  0
   14.1552  -14.1708   21.0196 O   0  0  0  0  0  0  0  0  0  0  0  0
   12.1751  -16.3818   24.0339 N   0  0  0  0  0  0  0  0  0  0  0  0
   12.9413  -17.2709   23.2346 C   0  0  0  0  0  0  0  0  0  0  0  0
   12.3655  -17.9935   22.3802 O   0  0  0  0  0  0  0  0  0  0  0  0
   14.4125  -17.3604   23.3916 C   0  0  0  0  0  0  0  0  0  0  0  0
   15.0323  -16.1661   22.7045 C   0  0  2  0  0  0  0  0  0  0  0  0
   14.8461  -16.3484   21.2609 N   0  0  0  0  0  0  0  0  0  0  0  0
   16.4866  -16.1651   22.9985 C   0  0  0  0  0  0  0  0  0  0  0  0
   16.9742  -15.9267   24.2651 O   0  0  0  0  0  0  0  0  0  0  0  0
   17.3454  -16.3837   22.0982 O   0  0  0  0  0  0  0  0  0  0  0  0
  2  1  1  1
  2  9  1  0
  3  4  1  0
  3  2  1  0
  4  8  1  0
  5  4  2  0
  5  6  1  0
  6  7  1  0
  8  7  2  0
  9 10  2  0
 12 11  1  0
 13 12  2  0
 14 12  1  0
 15 14  1  0
 16 15  1  6
 17  9  1  0
 17 16  1  0
 18 16  1  0
 18 19  2  0
 20 21  1  0
 21 22  2  0
 23 21  1  0
 24 23  1  1
 24 25  1  0
 25 18  1  0
 26 27  1  0
 26 24  1  0
 28 26  2  0
M  END
$$$$
