HQN.pdb
     RDKit          3D

 28 28  0  0  1  0  0  0  0  0999 V2000
   10.9130  -13.7980   20.0219 N   0  0  0  0  0  0  0  0  0  0  0  0
    9.6494  -14.0674   20.5898 C   0  0  1  0  0  0  0  0  0  0  0  0
    9.0309  -15.2362   19.8219 C   0  0  0  0  0  0  0  0  0  0  0  0
    8.5989  -14.7089   18.5010 C   0  0  0  0  0  0  0  0  0  0  0  0
    8.8424  -13.4209   18.0155 C   0  0  0  0  0  0  0  0  0  0  0  0
    8.2926  -13.3408   16.7951 N   0  0  0  0  0  0  0  0  0  0  0  0
    7.7195  -14.5305   16.5103 C   0  0  0  0  0  0  0  0  0  0  0  0
    7.9097  -15.3458   17.5425 N   0  0  0  0  0  0  0  0  0  0  0  0
    9.7884  -14.3852   22.0352 C   0  0  0  0  0  0  0  0  0  0  0  0
   10.8085  -14.9660   22.4949 O   0  0  0  0  0  0  0  0  0  0  0  0
    5.9036  -11.7408   25.7104 N   0  0  0  0  0  0  0  0  0  0  0  0
    6.4949  -12.4885   26.7443 C   0  0  0  0  0  0  0  0  0  0  0  0
    6.2137  -12.2672   27.9288 O   0  0  0  0  0  0  0  0  0  0  0  0
    7.4646  -13.5509   26.3937 C   0  0  0  0  0  0  0  0  0  0  0  0
    7.7400  -13.4623   24.9426 C   0  0  0  0  0  0  0  0  0  0  0  0
    8.8069  -14.3419   24.3786 C   0  0  2  0  0  0  0  0  0  0  0  0
    8.7675  -14.0370   22.9256 N   0  0  0  0  0  0  0  0  0  0  0  0
    8.5652  -15.7894   24.4944 C   0  0  0  0  0  0  0  0  0  0  0  0
    8.1830  -16.4562   23.4701 O   0  0  0  0  0  0  0  0  0  0  0  0
   10.9558  -19.0108   22.7814 N   0  0  0  0  0  0  0  0  0  0  0  0
   11.0637  -18.8209   24.1845 C   0  0  0  0  0  0  0  0  0  0  0  0
   11.4529  -19.7702   24.9133 O   0  0  0  0  0  0  0  0  0  0  0  0
   10.7244  -17.5181   24.8050 C   0  0  0  0  0  0  0  0  0  0  0  0
    9.5614  -17.7337   25.7450 C   0  0  2  0  0  0  0  0  0  0  0  0
    8.7337  -16.5234   25.6994 N   0  0  0  0  0  0  0  0  0  0  0  0
   10.0987  -17.8890   27.1193 C   0  0  0  0  0  0  0  0  0  0  0  0
   10.1226  -19.1093   27.7591 O   0  0  0  0  0  0  0  0  0  0  0  0
   10.5599  -16.9068   27.7660 O   0  0  0  0  0  0  0  0  0  0  0  0
  2  1  1  6
  2  9  1  0
  3  4  1  0
  3  2  1  0
  4  8  1  0
  5  4  2  0
  5  6  1  0
  6  7  1  0
  8  7  2  0
  9 10  2  0
 12 11  1  0
 13 12  2  0
 14 12  1  0
 15 14  1  0
 16 15  1  1
 17  9  1  0
 17 16  1  0
 18 16  1  0
 18 19  2  0
 20 21  1  0
 21 22  2  0
 23 21  1  0
 24 23  1  6
 24 25  1  0
 25 18  1  0
 26 27  1  0
 26 24  1  0
 28 26  2  0
M  END
$$$$
