HQN.pdb
     RDKit          3D

 28 28  0  0  1  0  0  0  0  0999 V2000
    8.1884  -12.7864   18.3198 N   0  0  0  0  0  0  0  0  0  0  0  0
    8.5878  -14.0651   18.7639 C   0  0  1  0  0  0  0  0  0  0  0  0
    9.5472  -14.6434   17.7229 C   0  0  0  0  0  0  0  0  0  0  0  0
    8.7374  -14.9739   16.5211 C   0  0  0  0  0  0  0  0  0  0  0  0
    7.3625  -14.7656   16.3790 C   0  0  0  0  0  0  0  0  0  0  0  0
    7.0151  -15.1947   15.1570 N   0  0  0  0  0  0  0  0  0  0  0  0
    8.1238  -15.6595   14.5408 C   0  0  0  0  0  0  0  0  0  0  0  0
    9.1536  -15.5220   15.3697 N   0  0  0  0  0  0  0  0  0  0  0  0
    9.2339  -13.9711   20.0992 C   0  0  0  0  0  0  0  0  0  0  0  0
   10.2521  -13.2549   20.2982 O   0  0  0  0  0  0  0  0  0  0  0  0
    5.8154  -15.1829   24.7359 N   0  0  0  0  0  0  0  0  0  0  0  0
    6.9391  -14.8952   25.5310 C   0  0  0  0  0  0  0  0  0  0  0  0
    6.8257  -14.7180   26.7504 O   0  0  0  0  0  0  0  0  0  0  0  0
    8.2682  -14.8066   24.8848 C   0  0  0  0  0  0  0  0  0  0  0  0
    8.0641  -14.7195   23.4219 C   0  0  0  0  0  0  0  0  0  0  0  0
    9.2743  -14.6380   22.5509 C   0  0  2  0  0  0  0  0  0  0  0  0
    8.7105  -14.6914   21.1778 N   0  0  0  0  0  0  0  0  0  0  0  0
   10.2066  -15.7730   22.6492 C   0  0  0  0  0  0  0  0  0  0  0  0
    9.8116  -16.9514   22.3408 O   0  0  0  0  0  0  0  0  0  0  0  0
   14.3428  -16.8144   20.9543 N   0  0  0  0  0  0  0  0  0  0  0  0
   14.2187  -15.9006   22.0341 C   0  0  0  0  0  0  0  0  0  0  0  0
   14.4455  -14.6774   21.8440 O   0  0  0  0  0  0  0  0  0  0  0  0
   13.8247  -16.3669   23.3849 C   0  0  0  0  0  0  0  0  0  0  0  0
   12.3888  -16.8326   23.3213 C   0  0  2  0  0  0  0  0  0  0  0  0
   11.5574  -15.6499   23.0727 N   0  0  0  0  0  0  0  0  0  0  0  0
   12.0257  -17.3978   24.6442 C   0  0  0  0  0  0  0  0  0  0  0  0
   12.4639  -18.6391   25.0519 O   0  0  0  0  0  0  0  0  0  0  0  0
   11.2966  -16.7644   25.4585 O   0  0  0  0  0  0  0  0  0  0  0  0
  2  1  1  6
  2  9  1  0
  3  4  1  0
  3  2  1  0
  4  8  1  0
  5  4  2  0
  5  6  1  0
  6  7  1  0
  8  7  2  0
  9 10  2  0
 12 11  1  0
 13 12  2  0
 14 12  1  0
 15 14  1  0
 16 15  1  1
 17  9  1  0
 17 16  1  0
 18 16  1  0
 18 19  2  0
 20 21  1  0
 21 22  2  0
 23 21  1  0
 24 23  1  1
 24 25  1  0
 25 18  1  0
 26 27  1  0
 26 24  1  0
 28 26  2  0
M  END
$$$$
