HQN.pdb
     RDKit          3D

 28 28  0  0  1  0  0  0  0  0999 V2000
   10.8465  -21.0754   15.0139 N   0  0  0  0  0  0  0  0  0  0  0  0
   11.0833  -19.6922   15.1635 C   0  0  1  0  0  0  0  0  0  0  0  0
    9.7679  -18.9605   14.8934 C   0  0  0  0  0  0  0  0  0  0  0  0
    9.4286  -19.1887   13.4643 C   0  0  0  0  0  0  0  0  0  0  0  0
    9.9987  -18.5270   12.3730 C   0  0  0  0  0  0  0  0  0  0  0  0
    9.4258  -19.0148   11.2631 N   0  0  0  0  0  0  0  0  0  0  0  0
    8.5243  -19.9519   11.6292 C   0  0  0  0  0  0  0  0  0  0  0  0
    8.5341  -20.0486   12.9547 N   0  0  0  0  0  0  0  0  0  0  0  0
   11.5931  -19.3987   16.5285 C   0  0  0  0  0  0  0  0  0  0  0  0
   11.8575  -18.2244   16.9032 O   0  0  0  0  0  0  0  0  0  0  0  0
   10.2256  -23.1913   20.8946 N   0  0  0  0  0  0  0  0  0  0  0  0
    9.4892  -21.9970   20.7998 C   0  0  0  0  0  0  0  0  0  0  0  0
    8.3575  -21.9081   21.2921 O   0  0  0  0  0  0  0  0  0  0  0  0
   10.0904  -20.8402   20.0983 C   0  0  0  0  0  0  0  0  0  0  0  0
   11.4229  -21.2463   19.5989 C   0  0  0  0  0  0  0  0  0  0  0  0
   12.2232  -20.2374   18.8429 C   0  0  2  0  0  0  0  0  0  0  0  0
   11.7912  -20.4436   17.4369 N   0  0  0  0  0  0  0  0  0  0  0  0
   13.6806  -20.4448   18.8522 C   0  0  0  0  0  0  0  0  0  0  0  0
   14.1915  -21.4118   18.1863 O   0  0  0  0  0  0  0  0  0  0  0  0
   19.0906  -17.7530   19.4417 N   0  0  0  0  0  0  0  0  0  0  0  0
   18.1557  -18.7605   19.0853 C   0  0  0  0  0  0  0  0  0  0  0  0
   18.5681  -19.8658   18.6470 O   0  0  0  0  0  0  0  0  0  0  0  0
   16.6979  -18.5295   19.2223 C   0  0  0  0  0  0  0  0  0  0  0  0
   16.0370  -19.8564   19.5141 C   0  0  2  0  0  0  0  0  0  0  0  0
   14.5901  -19.6204   19.5681 N   0  0  0  0  0  0  0  0  0  0  0  0
   16.4921  -20.3176   20.8489 C   0  0  0  0  0  0  0  0  0  0  0  0
   17.5970  -21.1266   21.0031 O   0  0  0  0  0  0  0  0  0  0  0  0
   15.8857  -19.9878   21.9068 O   0  0  0  0  0  0  0  0  0  0  0  0
  2  1  1  1
  2  9  1  0
  3  4  1  0
  3  2  1  0
  4  8  1  0
  5  4  2  0
  5  6  1  0
  6  7  1  0
  8  7  2  0
  9 10  2  0
 12 11  1  0
 13 12  2  0
 14 12  1  0
 15 14  1  0
 16 15  1  1
 17  9  1  0
 17 16  1  0
 18 16  1  0
 18 19  2  0
 20 21  1  0
 21 22  2  0
 23 21  1  0
 24 23  1  1
 24 25  1  0
 25 18  1  0
 26 27  1  0
 26 24  1  0
 28 26  2  0
M  END
$$$$
