HQN.pdb
     RDKit          3D

 28 28  0  0  1  0  0  0  0  0999 V2000
   10.0977  -18.4796   16.0185 N   0  0  0  0  0  0  0  0  0  0  0  0
    9.1492  -17.9357   16.9109 C   0  0  1  0  0  0  0  0  0  0  0  0
    8.2576  -19.0779   17.3994 C   0  0  0  0  0  0  0  0  0  0  0  0
    7.2634  -19.3431   16.3268 C   0  0  0  0  0  0  0  0  0  0  0  0
    7.2132  -18.7070   15.0830 C   0  0  0  0  0  0  0  0  0  0  0  0
    6.1764  -19.2246   14.4084 N   0  0  0  0  0  0  0  0  0  0  0  0
    5.5858  -20.1554   15.1893 C   0  0  0  0  0  0  0  0  0  0  0  0
    6.2473  -20.2187   16.3403 N   0  0  0  0  0  0  0  0  0  0  0  0
    9.8328  -17.2620   18.0459 C   0  0  0  0  0  0  0  0  0  0  0  0
   10.9889  -17.5966   18.4212 O   0  0  0  0  0  0  0  0  0  0  0  0
    7.1942  -12.3522   20.4111 N   0  0  0  0  0  0  0  0  0  0  0  0
    7.8633  -12.2936   19.1757 C   0  0  0  0  0  0  0  0  0  0  0  0
    7.6243  -11.3886   18.3664 O   0  0  0  0  0  0  0  0  0  0  0  0
    8.8641  -13.3363   18.8545 C   0  0  0  0  0  0  0  0  0  0  0  0
    8.9288  -14.2786   19.9935 C   0  0  0  0  0  0  0  0  0  0  0  0
    9.8048  -15.4804   19.8575 C   0  0  2  0  0  0  0  0  0  0  0  0
    9.1897  -16.2247   18.7289 N   0  0  0  0  0  0  0  0  0  0  0  0
    9.7984  -16.4053   21.0026 C   0  0  0  0  0  0  0  0  0  0  0  0
    8.7118  -16.9906   21.3439 O   0  0  0  0  0  0  0  0  0  0  0  0
    9.9061  -20.2865   21.9346 N   0  0  0  0  0  0  0  0  0  0  0  0
   11.1008  -19.5518   21.7127 C   0  0  0  0  0  0  0  0  0  0  0  0
   11.6523  -19.5865   20.5820 O   0  0  0  0  0  0  0  0  0  0  0  0
   11.7092  -18.7423   22.7953 C   0  0  0  0  0  0  0  0  0  0  0  0
   10.8543  -17.5137   23.0010 C   0  0  2  0  0  0  0  0  0  0  0  0
   10.9494  -16.7069   21.7795 N   0  0  0  0  0  0  0  0  0  0  0  0
   11.4243  -16.7358   24.1286 C   0  0  0  0  0  0  0  0  0  0  0  0
   11.3293  -17.1675   25.4338 O   0  0  0  0  0  0  0  0  0  0  0  0
   12.0242  -15.6398   23.9419 O   0  0  0  0  0  0  0  0  0  0  0  0
  2  1  1  6
  2  9  1  0
  3  4  1  0
  3  2  1  0
  4  8  1  0
  5  4  2  0
  5  6  1  0
  6  7  1  0
  8  7  2  0
  9 10  2  0
 12 11  1  0
 13 12  2  0
 14 12  1  0
 15 14  1  0
 16 15  1  1
 17  9  1  0
 17 16  1  0
 18 16  1  0
 18 19  2  0
 20 21  1  0
 21 22  2  0
 23 21  1  0
 24 23  1  6
 24 25  1  0
 25 18  1  0
 26 27  1  0
 26 24  1  0
 28 26  2  0
M  END
$$$$
