HQN.pdb
     RDKit          3D

 28 28  0  0  1  0  0  0  0  0999 V2000
    8.6282  -16.6501   19.1997 N   0  0  0  0  0  0  0  0  0  0  0  0
    9.1834  -16.2225   20.4247 C   0  0  1  0  0  0  0  0  0  0  0  0
    8.1699  -15.2981   21.1005 C   0  0  0  0  0  0  0  0  0  0  0  0
    8.1197  -14.0475   20.2987 C   0  0  0  0  0  0  0  0  0  0  0  0
    8.7728  -13.8294   19.0822 C   0  0  0  0  0  0  0  0  0  0  0  0
    8.4770  -12.5833   18.6850 N   0  0  0  0  0  0  0  0  0  0  0  0
    7.6665  -12.0253   19.6106 C   0  0  0  0  0  0  0  0  0  0  0  0
    7.4579  -12.9142   20.5764 N   0  0  0  0  0  0  0  0  0  0  0  0
    9.5034  -17.3921   21.2845 C   0  0  0  0  0  0  0  0  0  0  0  0
    8.7698  -18.4168   21.3160 O   0  0  0  0  0  0  0  0  0  0  0  0
   14.0361  -20.2412   21.4300 N   0  0  0  0  0  0  0  0  0  0  0  0
   13.8937  -20.4347   22.8156 C   0  0  0  0  0  0  0  0  0  0  0  0
   14.1498  -21.5288   23.3336 O   0  0  0  0  0  0  0  0  0  0  0  0
   13.4302  -19.3039   23.6513 C   0  0  0  0  0  0  0  0  0  0  0  0
   12.6168  -18.4063   22.8014 C   0  0  0  0  0  0  0  0  0  0  0  0
   11.1312  -18.5484   22.8561 C   0  0  2  0  0  0  0  0  0  0  0  0
   10.6478  -17.3725   22.0885 N   0  0  0  0  0  0  0  0  0  0  0  0
   10.5299  -18.4320   24.1947 C   0  0  0  0  0  0  0  0  0  0  0  0
   10.5519  -17.3084   24.8084 O   0  0  0  0  0  0  0  0  0  0  0  0
    6.6781  -19.6179   28.1307 N   0  0  0  0  0  0  0  0  0  0  0  0
    7.8432  -20.3694   27.8238 C   0  0  0  0  0  0  0  0  0  0  0  0
    8.4585  -20.9680   28.7441 O   0  0  0  0  0  0  0  0  0  0  0  0
    8.3465  -20.4600   26.4325 C   0  0  0  0  0  0  0  0  0  0  0  0
    9.3378  -19.3402   26.2173 C   0  0  2  0  0  0  0  0  0  0  0  0
    9.9043  -19.5114   24.8750 N   0  0  0  0  0  0  0  0  0  0  0  0
   10.4271  -19.4874   27.2139 C   0  0  0  0  0  0  0  0  0  0  0  0
   10.4428  -18.7670   28.3885 O   0  0  0  0  0  0  0  0  0  0  0  0
   11.3914  -20.2824   27.0297 O   0  0  0  0  0  0  0  0  0  0  0  0
  2  1  1  6
  2  9  1  0
  3  4  1  0
  3  2  1  0
  4  8  1  0
  5  4  2  0
  5  6  1  0
  6  7  1  0
  8  7  2  0
  9 10  2  0
 12 11  1  0
 13 12  2  0
 14 12  1  0
 15 14  1  0
 16 15  1  1
 17  9  1  0
 17 16  1  0
 18 16  1  0
 18 19  2  0
 20 21  1  0
 21 22  2  0
 23 21  1  0
 24 23  1  1
 24 25  1  0
 25 18  1  0
 26 27  1  0
 26 24  1  0
 28 26  2  0
M  END
$$$$
