HQN.pdb
     RDKit          3D

 28 28  0  0  1  0  0  0  0  0999 V2000
    5.7261  -15.6723   20.4534 N   0  0  0  0  0  0  0  0  0  0  0  0
    6.9275  -15.6068   21.1911 C   0  0  1  0  0  0  0  0  0  0  0  0
    7.5178  -14.2090   21.0006 C   0  0  0  0  0  0  0  0  0  0  0  0
    7.9298  -14.1011   19.5766 C   0  0  0  0  0  0  0  0  0  0  0  0
    7.8768  -15.1283   18.6300 C   0  0  0  0  0  0  0  0  0  0  0  0
    8.3345  -14.6315   17.4717 N   0  0  0  0  0  0  0  0  0  0  0  0
    8.6675  -13.3372   17.6686 C   0  0  0  0  0  0  0  0  0  0  0  0
    8.4201  -13.0286   18.9374 N   0  0  0  0  0  0  0  0  0  0  0  0
    6.6697  -15.8921   22.6269 C   0  0  0  0  0  0  0  0  0  0  0  0
    5.9041  -15.1718   23.3227 O   0  0  0  0  0  0  0  0  0  0  0  0
    6.6756  -21.4217   24.3158 N   0  0  0  0  0  0  0  0  0  0  0  0
    6.8292  -21.0009   25.6488 C   0  0  0  0  0  0  0  0  0  0  0  0
    6.8151  -21.8177   26.5782 O   0  0  0  0  0  0  0  0  0  0  0  0
    7.0091  -19.5579   25.9267 C   0  0  0  0  0  0  0  0  0  0  0  0
    6.9724  -18.8327   24.6374 C   0  0  0  0  0  0  0  0  0  0  0  0
    7.0917  -17.3445   24.6688 C   0  0  2  0  0  0  0  0  0  0  0  0
    7.2860  -16.9877   23.2402 N   0  0  0  0  0  0  0  0  0  0  0  0
    8.2665  -16.8153   25.3807 C   0  0  0  0  0  0  0  0  0  0  0  0
    9.4141  -16.8241   24.8125 O   0  0  0  0  0  0  0  0  0  0  0  0
   10.2561  -13.6721   30.1520 N   0  0  0  0  0  0  0  0  0  0  0  0
   10.3094  -14.0537   28.7853 C   0  0  0  0  0  0  0  0  0  0  0  0
   11.4018  -13.9918   28.1636 O   0  0  0  0  0  0  0  0  0  0  0  0
    9.0948  -14.5252   28.0783 C   0  0  0  0  0  0  0  0  0  0  0  0
    9.4313  -15.8213   27.3787 C   0  0  2  0  0  0  0  0  0  0  0  0
    8.2160  -16.2757   26.6943 N   0  0  0  0  0  0  0  0  0  0  0  0
    9.7974  -16.8233   28.4100 C   0  0  0  0  0  0  0  0  0  0  0  0
   11.0431  -16.8418   28.9987 O   0  0  0  0  0  0  0  0  0  0  0  0
    8.9808  -17.7066   28.7958 O   0  0  0  0  0  0  0  0  0  0  0  0
  2  1  1  6
  2  9  1  0
  3  4  1  0
  3  2  1  0
  4  8  1  0
  5  4  2  0
  5  6  1  0
  6  7  1  0
  8  7  2  0
  9 10  2  0
 12 11  1  0
 13 12  2  0
 14 12  1  0
 15 14  1  0
 16 15  1  6
 17  9  1  0
 17 16  1  0
 18 16  1  0
 18 19  2  0
 20 21  1  0
 21 22  2  0
 23 21  1  0
 24 23  1  1
 24 25  1  0
 25 18  1  0
 26 27  1  0
 26 24  1  0
 28 26  2  0
M  END
$$$$
