HQN.pdb
     RDKit          3D

 28 28  0  0  1  0  0  0  0  0999 V2000
    6.2733  -18.4868   16.5739 N   0  0  0  0  0  0  0  0  0  0  0  0
    7.3855  -18.9792   17.2897 C   0  0  1  0  0  0  0  0  0  0  0  0
    8.6019  -18.1379   16.9009 C   0  0  0  0  0  0  0  0  0  0  0  0
    8.9567  -18.5053   15.5050 C   0  0  0  0  0  0  0  0  0  0  0  0
    8.3886  -19.5454   14.7637 C   0  0  0  0  0  0  0  0  0  0  0  0
    8.9773  -19.5485   13.5589 N   0  0  0  0  0  0  0  0  0  0  0  0
    9.8866  -18.5498   13.5298 C   0  0  0  0  0  0  0  0  0  0  0  0
    9.8660  -17.9290   14.7048 N   0  0  0  0  0  0  0  0  0  0  0  0
    7.1301  -18.9139   18.7525 C   0  0  0  0  0  0  0  0  0  0  0  0
    6.8758  -17.8262   19.3369 O   0  0  0  0  0  0  0  0  0  0  0  0
    3.8292  -22.8928   20.9798 N   0  0  0  0  0  0  0  0  0  0  0  0
    4.1957  -22.4750   22.2716 C   0  0  0  0  0  0  0  0  0  0  0  0
    3.5855  -22.8826   23.2678 O   0  0  0  0  0  0  0  0  0  0  0  0
    5.3291  -21.5347   22.4240 C   0  0  0  0  0  0  0  0  0  0  0  0
    5.7657  -21.1170   21.0733 C   0  0  0  0  0  0  0  0  0  0  0  0
    6.8739  -20.1210   20.9738 C   0  0  2  0  0  0  0  0  0  0  0  0
    7.1689  -20.0834   19.5187 N   0  0  0  0  0  0  0  0  0  0  0  0
    8.1341  -20.5035   21.6317 C   0  0  0  0  0  0  0  0  0  0  0  0
    8.9680  -21.2600   21.0218 O   0  0  0  0  0  0  0  0  0  0  0  0
   12.1114  -19.5758   25.9841 N   0  0  0  0  0  0  0  0  0  0  0  0
   11.7849  -19.7783   24.6171 C   0  0  0  0  0  0  0  0  0  0  0  0
   12.6124  -20.3444   23.8564 O   0  0  0  0  0  0  0  0  0  0  0  0
   10.4809  -19.3322   24.0713 C   0  0  0  0  0  0  0  0  0  0  0  0
    9.7398  -20.5495   23.5698 C   0  0  2  0  0  0  0  0  0  0  0  0
    8.5041  -20.0773   22.9357 N   0  0  0  0  0  0  0  0  0  0  0  0
    9.3816  -21.3889   24.7397 C   0  0  0  0  0  0  0  0  0  0  0  0
   10.2563  -22.3125   25.2696 O   0  0  0  0  0  0  0  0  0  0  0  0
    8.2555  -21.2938   25.3041 O   0  0  0  0  0  0  0  0  0  0  0  0
  2  1  1  6
  2  9  1  0
  3  4  1  0
  3  2  1  0
  4  8  1  0
  5  4  2  0
  5  6  1  0
  6  7  1  0
  8  7  2  0
  9 10  2  0
 12 11  1  0
 13 12  2  0
 14 12  1  0
 15 14  1  0
 16 15  1  6
 17  9  1  0
 17 16  1  0
 18 16  1  0
 18 19  2  0
 20 21  1  0
 21 22  2  0
 23 21  1  0
 24 23  1  1
 24 25  1  0
 25 18  1  0
 26 27  1  0
 26 24  1  0
 28 26  2  0
M  END
$$$$
