HQN.pdb
     RDKit          3D

 28 28  0  0  1  0  0  0  0  0999 V2000
    8.5027  -15.7874   21.1680 N   0  0  0  0  0  0  0  0  0  0  0  0
    7.7241  -14.8839   21.9225 C   0  0  1  0  0  0  0  0  0  0  0  0
    6.4797  -14.5409   21.1026 C   0  0  0  0  0  0  0  0  0  0  0  0
    6.9487  -13.8872   19.8528 C   0  0  0  0  0  0  0  0  0  0  0  0
    8.2794  -13.7698   19.4412 C   0  0  0  0  0  0  0  0  0  0  0  0
    8.2816  -13.1192   18.2688 N   0  0  0  0  0  0  0  0  0  0  0  0
    7.0027  -12.8312   17.9423 C   0  0  0  0  0  0  0  0  0  0  0  0
    6.2096  -13.2976   18.9014 N   0  0  0  0  0  0  0  0  0  0  0  0
    7.3583  -15.4841   23.2322 C   0  0  0  0  0  0  0  0  0  0  0  0
    6.6792  -14.8546   24.0876 O   0  0  0  0  0  0  0  0  0  0  0  0
    6.8931  -21.2878   23.7151 N   0  0  0  0  0  0  0  0  0  0  0  0
    6.9822  -21.1433   25.1111 C   0  0  0  0  0  0  0  0  0  0  0  0
    6.8657  -22.1218   25.8595 O   0  0  0  0  0  0  0  0  0  0  0  0
    7.2190  -19.7957   25.6765 C   0  0  0  0  0  0  0  0  0  0  0  0
    7.2898  -18.8320   24.5558 C   0  0  0  0  0  0  0  0  0  0  0  0
    7.5917  -17.4056   24.8786 C   0  0  2  0  0  0  0  0  0  0  0  0
    7.7712  -16.7842   23.5416 N   0  0  0  0  0  0  0  0  0  0  0  0
    8.8499  -17.1703   25.6055 C   0  0  0  0  0  0  0  0  0  0  0  0
    9.7931  -16.5060   25.0499 O   0  0  0  0  0  0  0  0  0  0  0  0
   10.0783  -13.6519   29.5886 N   0  0  0  0  0  0  0  0  0  0  0  0
   10.4011  -14.6808   28.6648 C   0  0  0  0  0  0  0  0  0  0  0  0
   11.5920  -14.8248   28.2841 O   0  0  0  0  0  0  0  0  0  0  0  0
    9.3541  -15.5901   28.1411 C   0  0  0  0  0  0  0  0  0  0  0  0
    9.9990  -16.9208   27.8314 C   0  0  2  0  0  0  0  0  0  0  0  0
    9.0995  -17.6404   26.9231 N   0  0  0  0  0  0  0  0  0  0  0  0
   10.1089  -17.6884   29.0964 C   0  0  0  0  0  0  0  0  0  0  0  0
   11.2668  -17.7008   29.8434 O   0  0  0  0  0  0  0  0  0  0  0  0
    9.1429  -18.3666   29.5466 O   0  0  0  0  0  0  0  0  0  0  0  0
  2  1  1  6
  2  9  1  0
  3  4  1  0
  3  2  1  0
  4  8  1  0
  5  4  2  0
  5  6  1  0
  6  7  1  0
  8  7  2  0
  9 10  2  0
 12 11  1  0
 13 12  2  0
 14 12  1  0
 15 14  1  0
 16 15  1  6
 17  9  1  0
 17 16  1  0
 18 16  1  0
 18 19  2  0
 20 21  1  0
 21 22  2  0
 23 21  1  0
 24 23  1  1
 24 25  1  0
 25 18  1  0
 26 27  1  0
 26 24  1  0
 28 26  2  0
M  END
$$$$
