HQN.pdb
     RDKit          3D

 28 28  0  0  1  0  0  0  0  0999 V2000
   14.0331  -18.4953   16.3658 N   0  0  0  0  0  0  0  0  0  0  0  0
   14.4021  -19.2783   17.4805 C   0  0  1  0  0  0  0  0  0  0  0  0
   15.8815  -19.0176   17.7663 C   0  0  0  0  0  0  0  0  0  0  0  0
   16.6583  -19.7097   16.7047 C   0  0  0  0  0  0  0  0  0  0  0  0
   16.7538  -19.3093   15.3688 C   0  0  0  0  0  0  0  0  0  0  0  0
   17.5417  -20.1933   14.7397 N   0  0  0  0  0  0  0  0  0  0  0  0
   17.9354  -21.1230   15.6372 C   0  0  0  0  0  0  0  0  0  0  0  0
   17.3987  -20.8227   16.8154 N   0  0  0  0  0  0  0  0  0  0  0  0
   13.5577  -18.9373   18.6552 C   0  0  0  0  0  0  0  0  0  0  0  0
   13.1849  -17.7557   18.8878 O   0  0  0  0  0  0  0  0  0  0  0  0
    9.1049  -20.1605   20.2315 N   0  0  0  0  0  0  0  0  0  0  0  0
    9.2566  -20.6860   21.5270 C   0  0  0  0  0  0  0  0  0  0  0  0
    8.3010  -20.7255   22.3122 O   0  0  0  0  0  0  0  0  0  0  0  0
   10.5839  -21.1945   21.9413 C   0  0  0  0  0  0  0  0  0  0  0  0
   11.5173  -21.0235   20.8059 C   0  0  0  0  0  0  0  0  0  0  0  0
   12.2260  -19.7156   20.6746 C   0  0  2  0  0  0  0  0  0  0  0  0
   13.1556  -19.9441   19.5390 N   0  0  0  0  0  0  0  0  0  0  0  0
   13.0709  -19.3322   21.8174 C   0  0  0  0  0  0  0  0  0  0  0  0
   14.1502  -19.9780   22.0579 O   0  0  0  0  0  0  0  0  0  0  0  0
   13.9091  -15.2650   21.8288 N   0  0  0  0  0  0  0  0  0  0  0  0
   14.4914  -15.9090   22.9524 C   0  0  0  0  0  0  0  0  0  0  0  0
   15.7435  -16.0054   23.0354 O   0  0  0  0  0  0  0  0  0  0  0  0
   13.6446  -16.4704   24.0319 C   0  0  0  0  0  0  0  0  0  0  0  0
   13.6062  -17.9717   23.8667 C   0  0  2  0  0  0  0  0  0  0  0  0
   12.7660  -18.2606   22.6994 N   0  0  0  0  0  0  0  0  0  0  0  0
   12.9626  -18.5543   25.0700 C   0  0  0  0  0  0  0  0  0  0  0  0
   11.7145  -19.1363   25.0196 O   0  0  0  0  0  0  0  0  0  0  0  0
   13.5318  -18.5430   26.1976 O   0  0  0  0  0  0  0  0  0  0  0  0
  2  1  1  6
  2  9  1  0
  3  4  1  0
  3  2  1  0
  4  8  1  0
  5  4  2  0
  5  6  1  0
  6  7  1  0
  8  7  2  0
  9 10  2  0
 12 11  1  0
 13 12  2  0
 14 12  1  0
 15 14  1  0
 16 15  1  1
 17  9  1  0
 17 16  1  0
 18 16  1  0
 18 19  2  0
 20 21  1  0
 21 22  2  0
 23 21  1  0
 24 23  1  1
 24 25  1  0
 25 18  1  0
 26 27  1  0
 26 24  1  0
 28 26  2  0
M  END
$$$$
