HQN.pdb
     RDKit          3D

 28 28  0  0  1  0  0  0  0  0999 V2000
   14.7495  -13.2474   16.2843 N   0  0  0  0  0  0  0  0  0  0  0  0
   14.8044  -14.4596   17.0050 C   0  0  1  0  0  0  0  0  0  0  0  0
   15.9670  -15.2825   16.4486 C   0  0  0  0  0  0  0  0  0  0  0  0
   15.5407  -15.7951   15.1201 C   0  0  0  0  0  0  0  0  0  0  0  0
   14.2214  -16.0148   14.7135 C   0  0  0  0  0  0  0  0  0  0  0  0
   14.2604  -16.4777   13.4556 N   0  0  0  0  0  0  0  0  0  0  0  0
   15.5535  -16.5516   13.0718 C   0  0  0  0  0  0  0  0  0  0  0  0
   16.3148  -16.1387   14.0800 N   0  0  0  0  0  0  0  0  0  0  0  0
   14.9795  -14.1916   18.4565 C   0  0  0  0  0  0  0  0  0  0  0  0
   15.6679  -13.2229   18.8772 O   0  0  0  0  0  0  0  0  0  0  0  0
   11.1485  -16.8377   22.2470 N   0  0  0  0  0  0  0  0  0  0  0  0
   10.8964  -15.4727   22.0218 C   0  0  0  0  0  0  0  0  0  0  0  0
    9.7750  -14.9917   22.2274 O   0  0  0  0  0  0  0  0  0  0  0  0
   11.9982  -14.6136   21.5322 C   0  0  0  0  0  0  0  0  0  0  0  0
   13.2043  -15.4564   21.3750 C   0  0  0  0  0  0  0  0  0  0  0  0
   14.4485  -14.8078   20.8638 C   0  0  2  0  0  0  0  0  0  0  0  0
   14.3700  -15.0283   19.3972 N   0  0  0  0  0  0  0  0  0  0  0  0
   15.7123  -15.4252   21.2980 C   0  0  0  0  0  0  0  0  0  0  0  0
   16.0259  -16.5956   20.8839 O   0  0  0  0  0  0  0  0  0  0  0  0
   19.2580  -12.5851   20.9325 N   0  0  0  0  0  0  0  0  0  0  0  0
   19.2315  -13.9679   21.2542 C   0  0  0  0  0  0  0  0  0  0  0  0
   19.4393  -14.8211   20.3528 O   0  0  0  0  0  0  0  0  0  0  0  0
   18.9626  -14.4225   22.6393 C   0  0  0  0  0  0  0  0  0  0  0  0
   17.8737  -15.4686   22.5877 C   0  0  2  0  0  0  0  0  0  0  0  0
   16.6402  -14.7937   22.1696 N   0  0  0  0  0  0  0  0  0  0  0  0
   17.6801  -16.0042   23.9578 C   0  0  0  0  0  0  0  0  0  0  0  0
   16.4802  -15.8838   24.6248 O   0  0  0  0  0  0  0  0  0  0  0  0
   18.6091  -16.5965   24.5758 O   0  0  0  0  0  0  0  0  0  0  0  0
  2  1  1  6
  2  9  1  0
  3  4  1  0
  3  2  1  0
  4  8  1  0
  5  4  2  0
  5  6  1  0
  6  7  1  0
  8  7  2  0
  9 10  2  0
 12 11  1  0
 13 12  2  0
 14 12  1  0
 15 14  1  0
 16 15  1  1
 17  9  1  0
 17 16  1  0
 18 16  1  0
 18 19  2  0
 20 21  1  0
 21 22  2  0
 23 21  1  0
 24 23  1  1
 24 25  1  0
 25 18  1  0
 26 27  1  0
 26 24  1  0
 28 26  2  0
M  END
$$$$
