RHT.pdb
     RDKit          3D

 29 29  0  0  1  0  0  0  0  0999 V2000
   26.4454  -17.1515  -20.8939 N   0  0  0  0  0  0  0  0  0  0  0  0
   27.8137  -17.2300  -20.5275 C   0  0  0  0  0  0  0  0  0  0  0  0
   28.7051  -16.6120  -21.2294 N   0  0  0  0  0  0  0  0  0  0  0  0
   28.2535  -17.9746  -19.3987 N   0  0  0  0  0  0  0  0  0  0  0  0
   27.3636  -18.7580  -18.5954 C   0  0  0  0  0  0  0  0  0  0  0  0
   27.6977  -18.6894  -17.1211 C   0  0  0  0  0  0  0  0  0  0  0  0
   26.8323  -19.5402  -16.2649 C   0  0  0  0  0  0  0  0  0  0  0  0
   27.5497  -20.3254  -15.2030 C   0  0  2  0  0  0  0  0  0  0  0  0
   28.4088  -21.3406  -15.8235 N   0  0  0  0  0  0  0  0  0  0  0  0
   26.6691  -20.9439  -14.1954 C   0  0  0  0  0  0  0  0  0  0  0  0
   26.2332  -22.0923  -14.3690 O   0  0  0  0  0  0  0  0  0  0  0  0
   29.7018  -16.5587  -20.9816 N   0  0  0  0  0  0  0  0  0  0  0  0
   26.2730  -20.2863  -12.9956 C   0  0  2  0  0  0  0  0  0  0  0  0
   25.3696  -20.8712  -12.0329 C   0  0  0  0  0  0  0  0  0  0  0  0
   25.7470  -20.5338  -10.6136 C   0  0  0  0  0  0  0  0  0  0  0  0
   27.1477  -20.8740  -10.3152 C   0  0  0  0  0  0  0  0  0  0  0  0
   28.0370  -21.4471  -11.1866 N   0  0  0  0  0  0  0  0  0  0  0  0
   29.2129  -21.6156  -10.5845 C   0  0  0  0  0  0  0  0  0  0  0  0
   29.0573  -21.1459   -9.3331 N   0  0  0  0  0  0  0  0  0  0  0  0
   27.7853  -20.6858   -9.1572 C   0  0  0  0  0  0  0  0  0  0  0  0
   23.9820  -20.4351  -12.3588 O   0  0  0  0  0  0  0  0  0  0  0  0
   23.7975  -19.2353  -12.6699 C   0  0  0  0  0  0  0  0  0  0  0  0
   19.5472  -21.5450  -14.1314 C   0  0  2  0  0  0  0  0  0  0  0  0
   20.9292  -21.9850  -13.6894 O   0  0  0  0  0  0  0  0  0  0  0  0
   21.7391  -22.0097  -14.8255 C   0  0  1  0  0  0  0  0  0  0  0  0
   21.5390  -21.0335  -12.7197 N   0  0  0  0  0  0  0  0  0  0  0  0
   22.8833  -21.3142  -12.3299 C   0  0  0  0  0  0  0  0  0  0  0  0
   20.6188  -20.6807  -11.6046 O   0  0  0  0  0  0  0  0  0  0  0  0
   19.6433  -19.7360  -11.7939 O   0  0  0  0  0  0  0  0  0  0  0  0
  1  2  1  0
  2  4  1  0
  2  3  2  0
  4  5  1  0
  5  6  1  0
  7  6  1  0
  8  7  1  0
  8  9  1  6
 10  8  1  0
 10 11  2  0
 12 10  1  0
 13 12  1  0
 13 20  1  0
 13 14  1  6
 15 14  1  0
 15 19  1  0
 16 17  1  0
 16 15  2  0
 17 18  1  0
 18 19  2  0
 20 26  1  0
 21 20  2  0
 23 22  1  6
 23 24  1  0
 23 25  1  0
 25 27  1  0
 25 26  1  1
 27 29  2  0
 27 28  1  0
M  END
$$$$
