RHT.pdb
     RDKit          3D

 29 29  0  0  1  0  0  0  0  0999 V2000
   30.8438  -23.6220  -17.1769 N   0  0  0  0  0  0  0  0  0  0  0  0
   30.8912  -25.0378  -17.2539 C   0  0  0  0  0  0  0  0  0  0  0  0
   31.9396  -25.6223  -17.7316 N   0  0  0  0  0  0  0  0  0  0  0  0
   29.8125  -25.8560  -16.8191 N   0  0  0  0  0  0  0  0  0  0  0  0
   28.5952  -25.3147  -16.2937 C   0  0  0  0  0  0  0  0  0  0  0  0
   27.3978  -25.6200  -17.1672 C   0  0  0  0  0  0  0  0  0  0  0  0
   26.4493  -24.4862  -17.3107 C   0  0  0  0  0  0  0  0  0  0  0  0
   25.4622  -24.3265  -16.1888 C   0  0  2  0  0  0  0  0  0  0  0  0
   25.1293  -25.6388  -15.6223 N   0  0  0  0  0  0  0  0  0  0  0  0
   24.2335  -23.5964  -16.5502 C   0  0  0  0  0  0  0  0  0  0  0  0
   24.2797  -22.3813  -16.7957 O   0  0  0  0  0  0  0  0  0  0  0  0
   32.0444  -26.6416  -17.8191 N   0  0  0  0  0  0  0  0  0  0  0  0
   22.9542  -24.2165  -16.6382 C   0  0  1  0  0  0  0  0  0  0  0  0
   21.7510  -23.5029  -16.9963 C   0  0  0  0  0  0  0  0  0  0  0  0
   20.5965  -24.4298  -17.2768 C   0  0  0  0  0  0  0  0  0  0  0  0
   19.3841  -23.7003  -17.6825 C   0  0  0  0  0  0  0  0  0  0  0  0
   19.3327  -22.6676  -18.5821 N   0  0  0  0  0  0  0  0  0  0  0  0
   18.0769  -22.2428  -18.7093 C   0  0  0  0  0  0  0  0  0  0  0  0
   17.3418  -23.0130  -17.8863 N   0  0  0  0  0  0  0  0  0  0  0  0
   18.1402  -23.9160  -17.2478 C   0  0  0  0  0  0  0  0  0  0  0  0
   21.4346  -22.5320  -15.9105 O   0  0  0  0  0  0  0  0  0  0  0  0
   21.5748  -22.9074  -14.7231 C   0  0  0  0  0  0  0  0  0  0  0  0
   21.2707  -18.1396  -16.4683 C   0  0  2  0  0  0  0  0  0  0  0  0
   21.5314  -18.9941  -15.2433 O   0  0  0  0  0  0  0  0  0  0  0  0
   21.2131  -18.2227  -14.1248 C   0  0  1  0  0  0  0  0  0  0  0  0
   20.6728  -20.2104  -15.2130 N   0  0  0  0  0  0  0  0  0  0  0  0
   20.9887  -21.2225  -16.1690 C   0  0  0  0  0  0  0  0  0  0  0  0
   19.2250  -19.8891  -15.0889 O   0  0  0  0  0  0  0  0  0  0  0  0
   18.7102  -19.5023  -13.8783 O   0  0  0  0  0  0  0  0  0  0  0  0
  1  2  1  0
  2  4  1  0
  2  3  2  0
  4  5  1  0
  5  6  1  0
  7  6  1  0
  8  7  1  0
  8  9  1  6
 10  8  1  0
 10 11  2  0
 12 10  1  0
 13 12  1  0
 13 20  1  0
 13 14  1  6
 15 14  1  0
 15 19  1  0
 16 17  1  0
 16 15  2  0
 17 18  1  0
 18 19  2  0
 20 26  1  0
 21 20  2  0
 23 22  1  1
 23 24  1  0
 23 25  1  0
 25 27  1  0
 25 26  1  1
 27 29  2  0
 27 28  1  0
M  END
$$$$
