RHT.pdb
     RDKit          3D

 29 29  0  0  1  0  0  0  0  0999 V2000
   17.0735  -16.6345  -14.7249 N   0  0  0  0  0  0  0  0  0  0  0  0
   16.6554  -16.2142  -16.0138 C   0  0  0  0  0  0  0  0  0  0  0  0
   16.1972  -17.0797  -16.8565 N   0  0  0  0  0  0  0  0  0  0  0  0
   16.7207  -14.8545  -16.4248 N   0  0  0  0  0  0  0  0  0  0  0  0
   17.9574  -14.1944  -16.7178 C   0  0  0  0  0  0  0  0  0  0  0  0
   17.7670  -12.7393  -17.0872 C   0  0  0  0  0  0  0  0  0  0  0  0
   19.0329  -12.0184  -17.3764 C   0  0  0  0  0  0  0  0  0  0  0  0
   19.5908  -11.2140  -16.2361 C   0  0  2  0  0  0  0  0  0  0  0  0
   18.9386  -11.6035  -14.9804 N   0  0  0  0  0  0  0  0  0  0  0  0
   19.5182   -9.7532  -16.4208 C   0  0  0  0  0  0  0  0  0  0  0  0
   20.1004   -9.2157  -17.3754 O   0  0  0  0  0  0  0  0  0  0  0  0
   15.7586  -16.8368  -17.7544 N   0  0  0  0  0  0  0  0  0  0  0  0
   18.7993   -8.8902  -15.5448 C   0  0  1  0  0  0  0  0  0  0  0  0
   18.7433   -7.4573  -15.7143 C   0  0  0  0  0  0  0  0  0  0  0  0
   17.3489   -6.9133  -15.5405 C   0  0  0  0  0  0  0  0  0  0  0  0
   16.4930   -7.1959  -16.7043 C   0  0  0  0  0  0  0  0  0  0  0  0
   16.8901   -7.8164  -17.8600 N   0  0  0  0  0  0  0  0  0  0  0  0
   15.8603   -7.9068  -18.6998 C   0  0  0  0  0  0  0  0  0  0  0  0
   14.8168   -7.3408  -18.0660 N   0  0  0  0  0  0  0  0  0  0  0  0
   15.1976   -6.8988  -16.8330 C   0  0  0  0  0  0  0  0  0  0  0  0
   19.7080   -6.8297  -14.7671 O   0  0  0  0  0  0  0  0  0  0  0  0
   19.5510   -7.0358  -13.5410 C   0  0  0  0  0  0  0  0  0  0  0  0
   23.4086   -7.3481  -14.7112 C   0  0  2  0  0  0  0  0  0  0  0  0
   23.2048   -5.8463  -14.7539 O   0  0  0  0  0  0  0  0  0  0  0  0
   23.4329   -5.4346  -16.0676 C   0  0  2  0  0  0  0  0  0  0  0  0
   21.8134   -5.4571  -14.3931 N   0  0  0  0  0  0  0  0  0  0  0  0
   20.7779   -6.0225  -15.1968 C   0  0  0  0  0  0  0  0  0  0  0  0
   21.6766   -4.0006  -14.1198 O   0  0  0  0  0  0  0  0  0  0  0  0
   22.3405   -3.4367  -13.0611 O   0  0  0  0  0  0  0  0  0  0  0  0
  1  2  1  0
  2  4  1  0
  2  3  2  0
  4  5  1  0
  5  6  1  0
  7  6  1  0
  8  7  1  0
  8  9  1  1
 10  8  1  0
 10 11  2  0
 12 10  1  0
 13 12  1  0
 13 20  1  0
 13 14  1  6
 15 14  1  0
 15 19  1  0
 16 17  1  0
 16 15  2  0
 17 18  1  0
 18 19  2  0
 20 26  1  0
 21 20  2  0
 23 22  1  1
 23 24  1  0
 23 25  1  0
 25 27  1  0
 25 26  1  1
 27 29  2  0
 27 28  1  0
M  END
$$$$
