RHT.pdb
     RDKit          3D

 29 29  0  0  1  0  0  0  0  0999 V2000
   32.8234  -11.7792  -26.5629 N   0  0  0  0  0  0  0  0  0  0  0  0
   31.9858  -10.8661  -25.8721 C   0  0  0  0  0  0  0  0  0  0  0  0
   31.0054  -10.2962  -26.4909 N   0  0  0  0  0  0  0  0  0  0  0  0
   32.1840  -10.5458  -24.5009 N   0  0  0  0  0  0  0  0  0  0  0  0
   33.0080  -11.3341  -23.6345 C   0  0  0  0  0  0  0  0  0  0  0  0
   32.9335  -10.8836  -22.1918 C   0  0  0  0  0  0  0  0  0  0  0  0
   33.3873   -9.4869  -21.9704 C   0  0  0  0  0  0  0  0  0  0  0  0
   33.4848   -9.0618  -20.5322 C   0  0  2  0  0  0  0  0  0  0  0  0
   34.3532   -9.9858  -19.7933 N   0  0  0  0  0  0  0  0  0  0  0  0
   32.1887   -8.9150  -19.8453 C   0  0  0  0  0  0  0  0  0  0  0  0
   31.6973   -9.8732  -19.2294 O   0  0  0  0  0  0  0  0  0  0  0  0
   30.3322   -9.6590  -26.0454 N   0  0  0  0  0  0  0  0  0  0  0  0
   31.4389   -7.7039  -19.8434 C   0  0  2  0  0  0  0  0  0  0  0  0
   30.2429   -7.5139  -19.0569 C   0  0  0  0  0  0  0  0  0  0  0  0
   30.1934   -6.1551  -18.4075 C   0  0  0  0  0  0  0  0  0  0  0  0
   31.2197   -6.0003  -17.3637 C   0  0  0  0  0  0  0  0  0  0  0  0
   32.0801   -6.9767  -16.9339 N   0  0  0  0  0  0  0  0  0  0  0  0
   32.8720   -6.4913  -15.9794 C   0  0  0  0  0  0  0  0  0  0  0  0
   32.5048   -5.2074  -15.8130 N   0  0  0  0  0  0  0  0  0  0  0  0
   31.4851   -4.8949  -16.6633 C   0  0  0  0  0  0  0  0  0  0  0  0
   29.0585   -7.7581  -19.9284 O   0  0  0  0  0  0  0  0  0  0  0  0
   29.0168   -7.1858  -21.0425 C   0  0  0  0  0  0  0  0  0  0  0  0
   27.8889  -11.0437  -21.2427 C   0  0  2  0  0  0  0  0  0  0  0  0
   26.6772  -10.4214  -20.5769 O   0  0  0  0  0  0  0  0  0  0  0  0
   26.5184  -11.0459  -19.3391 C   0  0  2  0  0  0  0  0  0  0  0  0
   26.8582   -8.9644  -20.3285 N   0  0  0  0  0  0  0  0  0  0  0  0
   27.9968   -8.6001  -19.5482 C   0  0  0  0  0  0  0  0  0  0  0  0
   25.5899   -8.2838  -19.9506 O   0  0  0  0  0  0  0  0  0  0  0  0
   24.5283   -8.2817  -20.8183 O   0  0  0  0  0  0  0  0  0  0  0  0
  1  2  1  0
  2  4  1  0
  2  3  2  0
  4  5  1  0
  5  6  1  0
  7  6  1  0
  8  7  1  0
  8  9  1  1
 10  8  1  0
 10 11  2  0
 12 10  1  0
 13 12  1  0
 13 20  1  0
 13 14  1  6
 15 14  1  0
 15 19  1  0
 16 17  1  0
 16 15  2  0
 17 18  1  0
 18 19  2  0
 20 26  1  0
 21 20  2  0
 23 22  1  6
 23 24  1  0
 23 25  1  0
 25 27  1  0
 25 26  1  6
 27 29  2  0
 27 28  1  0
M  END
$$$$
