RHT.pdb
     RDKit          3D

 29 29  0  0  1  0  0  0  0  0999 V2000
   27.7917  -20.4365  -15.7364 N   0  0  0  0  0  0  0  0  0  0  0  0
   28.3458  -21.6089  -15.1609 C   0  0  0  0  0  0  0  0  0  0  0  0
   28.5670  -22.6461  -15.8987 N   0  0  0  0  0  0  0  0  0  0  0  0
   28.6743  -21.6917  -13.7799 N   0  0  0  0  0  0  0  0  0  0  0  0
   27.6886  -21.6049  -12.7447 C   0  0  0  0  0  0  0  0  0  0  0  0
   26.8116  -20.3789  -12.8775 C   0  0  0  0  0  0  0  0  0  0  0  0
   25.4054  -20.5921  -12.4496 C   0  0  0  0  0  0  0  0  0  0  0  0
   24.4896  -21.1503  -13.5024 C   0  0  2  0  0  0  0  0  0  0  0  0
   25.0853  -20.9723  -14.8317 N   0  0  0  0  0  0  0  0  0  0  0  0
   23.1196  -20.6066  -13.4765 C   0  0  0  0  0  0  0  0  0  0  0  0
   22.4685  -20.6069  -12.4205 O   0  0  0  0  0  0  0  0  0  0  0  0
   28.9405  -23.5374  -15.5468 N   0  0  0  0  0  0  0  0  0  0  0  0
   22.4734  -20.0633  -14.6237 C   0  0  2  0  0  0  0  0  0  0  0  0
   21.1047  -19.6032  -14.6184 C   0  0  0  0  0  0  0  0  0  0  0  0
   20.8785  -18.4652  -15.5799 C   0  0  0  0  0  0  0  0  0  0  0  0
   19.4961  -17.9621  -15.5301 C   0  0  0  0  0  0  0  0  0  0  0  0
   18.5217  -18.3789  -14.6610 N   0  0  0  0  0  0  0  0  0  0  0  0
   17.3925  -17.7134  -14.8971 C   0  0  0  0  0  0  0  0  0  0  0  0
   17.6629  -16.8783  -15.9171 N   0  0  0  0  0  0  0  0  0  0  0  0
   18.9594  -17.0246  -16.3149 C   0  0  0  0  0  0  0  0  0  0  0  0
   20.2136  -20.7624  -14.9080 O   0  0  0  0  0  0  0  0  0  0  0  0
   20.5098  -21.5094  -15.8696 C   0  0  0  0  0  0  0  0  0  0  0  0
   19.5432  -23.8370  -13.2387 C   0  0  2  0  0  0  0  0  0  0  0  0
   18.1685  -23.2065  -13.3460 O   0  0  0  0  0  0  0  0  0  0  0  0
   17.8675  -22.6546  -12.1001 C   0  0  2  0  0  0  0  0  0  0  0  0
   18.1310  -22.1065  -14.3490 N   0  0  0  0  0  0  0  0  0  0  0  0
   19.0636  -21.0447  -14.1474 C   0  0  0  0  0  0  0  0  0  0  0  0
   16.7450  -21.6756  -14.6778 O   0  0  0  0  0  0  0  0  0  0  0  0
   15.8682  -22.5629  -15.2468 O   0  0  0  0  0  0  0  0  0  0  0  0
  1  2  1  0
  2  4  1  0
  2  3  2  0
  4  5  1  0
  5  6  1  0
  7  6  1  0
  8  7  1  0
  8  9  1  6
 10  8  1  0
 10 11  2  0
 12 10  1  0
 13 12  1  0
 13 20  1  0
 13 14  1  1
 15 14  1  0
 15 19  1  0
 16 17  1  0
 16 15  2  0
 17 18  1  0
 18 19  2  0
 20 26  1  0
 21 20  2  0
 23 22  1  1
 23 24  1  0
 23 25  1  0
 25 27  1  0
 25 26  1  6
 27 29  2  0
 27 28  1  0
M  END
$$$$
