RHT.pdb
     RDKit          3D

 29 29  0  0  1  0  0  0  0  0999 V2000
   25.4365  -20.0197  -11.9456 N   0  0  0  0  0  0  0  0  0  0  0  0
   26.0904  -21.2484  -12.2201 C   0  0  0  0  0  0  0  0  0  0  0  0
   25.4913  -22.3661  -11.9734 N   0  0  0  0  0  0  0  0  0  0  0  0
   27.4024  -21.3023  -12.7656 N   0  0  0  0  0  0  0  0  0  0  0  0
   27.7301  -20.7504  -14.0458 C   0  0  0  0  0  0  0  0  0  0  0  0
   27.8543  -21.8080  -15.1210 C   0  0  0  0  0  0  0  0  0  0  0  0
   27.8230  -21.2699  -16.5049 C   0  0  0  0  0  0  0  0  0  0  0  0
   26.9815  -20.0398  -16.6986 C   0  0  2  0  0  0  0  0  0  0  0  0
   27.2766  -19.0591  -15.6475 N   0  0  0  0  0  0  0  0  0  0  0  0
   25.5311  -20.2925  -16.7726 C   0  0  0  0  0  0  0  0  0  0  0  0
   25.0853  -21.1404  -17.5609 O   0  0  0  0  0  0  0  0  0  0  0  0
   25.9222  -23.2922  -12.0929 N   0  0  0  0  0  0  0  0  0  0  0  0
   24.5765  -19.6030  -15.9712 C   0  0  1  0  0  0  0  0  0  0  0  0
   23.1686  -19.9238  -15.9642 C   0  0  0  0  0  0  0  0  0  0  0  0
   22.8185  -20.9452  -14.9131 C   0  0  0  0  0  0  0  0  0  0  0  0
   21.3770  -21.2419  -14.8849 C   0  0  0  0  0  0  0  0  0  0  0  0
   20.6753  -21.9039  -15.8585 N   0  0  0  0  0  0  0  0  0  0  0  0
   19.3939  -21.9953  -15.5072 C   0  0  0  0  0  0  0  0  0  0  0  0
   19.2954  -21.3884  -14.3102 N   0  0  0  0  0  0  0  0  0  0  0  0
   20.5148  -20.9199  -13.9176 C   0  0  0  0  0  0  0  0  0  0  0  0
   22.3953  -18.6611  -15.7931 O   0  0  0  0  0  0  0  0  0  0  0  0
   22.6360  -17.9525  -14.7879 C   0  0  0  0  0  0  0  0  0  0  0  0
   22.2016  -15.6128  -17.8771 C   0  0  2  0  0  0  0  0  0  0  0  0
   20.7681  -16.0880  -17.7427 O   0  0  0  0  0  0  0  0  0  0  0  0
   20.4319  -16.7324  -18.9339 C   0  0  2  0  0  0  0  0  0  0  0  0
   20.6024  -17.0695  -16.6352 N   0  0  0  0  0  0  0  0  0  0  0  0
   21.4150  -18.2408  -16.7112 C   0  0  0  0  0  0  0  0  0  0  0  0
   19.1750  -17.3125  -16.2913 O   0  0  0  0  0  0  0  0  0  0  0  0
   18.3697  -16.2641  -15.9277 O   0  0  0  0  0  0  0  0  0  0  0  0
  1  2  1  0
  2  4  1  0
  2  3  2  0
  4  5  1  0
  5  6  1  0
  7  6  1  0
  8  7  1  0
  8  9  1  1
 10  8  1  0
 10 11  2  0
 12 10  1  0
 13 12  1  0
 13 20  1  0
 13 14  1  6
 15 14  1  0
 15 19  1  0
 16 17  1  0
 16 15  2  0
 17 18  1  0
 18 19  2  0
 20 26  1  0
 21 20  2  0
 23 22  1  6
 23 24  1  0
 23 25  1  0
 25 27  1  0
 25 26  1  1
 27 29  2  0
 27 28  1  0
M  END
$$$$
