RHT.pdb
     RDKit          3D

 29 29  0  0  1  0  0  0  0  0999 V2000
   22.3808  -27.2430  -13.6423 N   0  0  0  0  0  0  0  0  0  0  0  0
   21.9795  -27.4059  -14.9932 C   0  0  0  0  0  0  0  0  0  0  0  0
   22.1628  -28.5381  -15.5877 N   0  0  0  0  0  0  0  0  0  0  0  0
   21.3724  -26.3551  -15.7345 N   0  0  0  0  0  0  0  0  0  0  0  0
   20.7087  -25.2513  -15.1084 C   0  0  0  0  0  0  0  0  0  0  0  0
   19.4911  -25.6772  -14.3172 C   0  0  0  0  0  0  0  0  0  0  0  0
   19.4701  -25.1715  -12.9209 C   0  0  0  0  0  0  0  0  0  0  0  0
   18.5881  -23.9785  -12.6814 C   0  0  2  0  0  0  0  0  0  0  0  0
   19.0117  -22.8616  -13.5340 N   0  0  0  0  0  0  0  0  0  0  0  0
   18.5056  -23.5476  -11.2740 C   0  0  0  0  0  0  0  0  0  0  0  0
   18.7955  -22.3829  -10.9604 O   0  0  0  0  0  0  0  0  0  0  0  0
   21.9587  -28.7099  -16.5809 N   0  0  0  0  0  0  0  0  0  0  0  0
   18.1014  -24.4110  -10.2156 C   0  0  2  0  0  0  0  0  0  0  0  0
   17.9967  -23.9831   -8.8405 C   0  0  0  0  0  0  0  0  0  0  0  0
   17.1066  -22.7778   -8.6811 C   0  0  0  0  0  0  0  0  0  0  0  0
   15.7774  -22.9856   -9.2782 C   0  0  0  0  0  0  0  0  0  0  0  0
   15.3781  -24.0924   -9.9812 N   0  0  0  0  0  0  0  0  0  0  0  0
   14.1150  -23.9438  -10.3764 C   0  0  0  0  0  0  0  0  0  0  0  0
   13.7244  -22.7402   -9.9185 N   0  0  0  0  0  0  0  0  0  0  0  0
   14.7441  -22.1408   -9.2392 C   0  0  0  0  0  0  0  0  0  0  0  0
   17.5263  -25.1351   -8.0199 O   0  0  0  0  0  0  0  0  0  0  0  0
   16.9541  -26.0834   -8.6061 C   0  0  0  0  0  0  0  0  0  0  0  0
   17.9160  -27.6111   -3.7209 C   0  0  2  0  0  0  0  0  0  0  0  0
   18.0306  -26.2720   -4.4228 O   0  0  0  0  0  0  0  0  0  0  0  0
   19.3889  -26.0264   -4.6273 C   0  0  1  0  0  0  0  0  0  0  0  0
   17.3662  -26.2768   -5.7555 N   0  0  0  0  0  0  0  0  0  0  0  0
   17.7007  -25.1949   -6.6246 C   0  0  0  0  0  0  0  0  0  0  0  0
   15.9147  -26.5948   -5.6729 O   0  0  0  0  0  0  0  0  0  0  0  0
   15.4905  -27.8941   -5.7817 O   0  0  0  0  0  0  0  0  0  0  0  0
  1  2  1  0
  2  4  1  0
  2  3  2  0
  4  5  1  0
  5  6  1  0
  7  6  1  0
  8  7  1  0
  8  9  1  6
 10  8  1  0
 10 11  2  0
 12 10  1  0
 13 12  1  0
 13 20  1  0
 13 14  1  6
 15 14  1  0
 15 19  1  0
 16 17  1  0
 16 15  2  0
 17 18  1  0
 18 19  2  0
 20 26  1  0
 21 20  2  0
 23 22  1  1
 23 24  1  0
 23 25  1  0
 25 27  1  0
 25 26  1  1
 27 29  2  0
 27 28  1  0
M  END
$$$$
