RHT.pdb
     RDKit          3D

 29 29  0  0  1  0  0  0  0  0999 V2000
   19.1958  -24.0049   -6.1990 N   0  0  0  0  0  0  0  0  0  0  0  0
   18.3748  -24.0647   -7.3545 C   0  0  0  0  0  0  0  0  0  0  0  0
   17.2995  -24.7807   -7.3443 N   0  0  0  0  0  0  0  0  0  0  0  0
   18.6919  -23.3562   -8.5459 N   0  0  0  0  0  0  0  0  0  0  0  0
   20.0210  -22.9230   -8.8567 C   0  0  0  0  0  0  0  0  0  0  0  0
   20.2193  -21.4409   -8.6245 C   0  0  0  0  0  0  0  0  0  0  0  0
   20.9555  -20.7513   -9.7146 C   0  0  0  0  0  0  0  0  0  0  0  0
   22.3856  -21.1767   -9.8952 C   0  0  2  0  0  0  0  0  0  0  0  0
   23.1530  -20.8871   -8.6783 N   0  0  0  0  0  0  0  0  0  0  0  0
   23.0548  -20.5981  -11.0744 C   0  0  0  0  0  0  0  0  0  0  0  0
   22.6887  -19.5012  -11.5235 O   0  0  0  0  0  0  0  0  0  0  0  0
   16.6914  -24.9231   -8.1614 N   0  0  0  0  0  0  0  0  0  0  0  0
   24.1302  -21.2385  -11.7543 C   0  0  2  0  0  0  0  0  0  0  0  0
   24.8383  -20.6375  -12.8599 C   0  0  0  0  0  0  0  0  0  0  0  0
   26.1868  -21.2697  -13.0890 C   0  0  0  0  0  0  0  0  0  0  0  0
   26.9251  -20.6222  -14.1855 C   0  0  0  0  0  0  0  0  0  0  0  0
   26.4835  -19.5620  -14.9334 N   0  0  0  0  0  0  0  0  0  0  0  0
   27.4044  -19.2339  -15.8379 C   0  0  0  0  0  0  0  0  0  0  0  0
   28.4244  -20.0921  -15.6539 N   0  0  0  0  0  0  0  0  0  0  0  0
   28.1377  -20.9534  -14.6358 C   0  0  0  0  0  0  0  0  0  0  0  0
   23.9750  -20.7121  -14.0728 O   0  0  0  0  0  0  0  0  0  0  0  0
   23.5780  -21.8404  -14.4467 C   0  0  0  0  0  0  0  0  0  0  0  0
   20.7369  -18.5756  -14.7960 C   0  0  2  0  0  0  0  0  0  0  0  0
   21.7148  -18.4399  -15.9467 O   0  0  0  0  0  0  0  0  0  0  0  0
   22.3823  -17.2255  -15.7820 C   0  0  2  0  0  0  0  0  0  0  0  0
   22.7378  -19.5220  -15.9461 N   0  0  0  0  0  0  0  0  0  0  0  0
   23.5939  -19.5722  -14.8048 C   0  0  0  0  0  0  0  0  0  0  0  0
   23.4258  -19.6632  -17.2581 O   0  0  0  0  0  0  0  0  0  0  0  0
   22.6950  -19.9057  -18.3926 O   0  0  0  0  0  0  0  0  0  0  0  0
  1  2  1  0
  2  4  1  0
  2  3  2  0
  4  5  1  0
  5  6  1  0
  7  6  1  0
  8  7  1  0
  8  9  1  1
 10  8  1  0
 10 11  2  0
 12 10  1  0
 13 12  1  0
 13 20  1  0
 13 14  1  1
 15 14  1  0
 15 19  1  0
 16 17  1  0
 16 15  2  0
 17 18  1  0
 18 19  2  0
 20 26  1  0
 21 20  2  0
 23 22  1  6
 23 24  1  0
 23 25  1  0
 25 27  1  0
 25 26  1  6
 27 29  2  0
 27 28  1  0
M  END
$$$$
