RHT.pdb
     RDKit          3D

 29 29  0  0  1  0  0  0  0  0999 V2000
   45.4637  -17.2452   -6.4525 N   0  0  0  0  0  0  0  0  0  0  0  0
   45.1575  -17.6448   -7.7789 C   0  0  0  0  0  0  0  0  0  0  0  0
   44.8103  -18.8656   -8.0200 N   0  0  0  0  0  0  0  0  0  0  0  0
   45.2180  -16.7408   -8.8749 N   0  0  0  0  0  0  0  0  0  0  0  0
   45.7548  -15.4183   -8.7569 C   0  0  0  0  0  0  0  0  0  0  0  0
   44.7724  -14.4442   -8.1436 C   0  0  0  0  0  0  0  0  0  0  0  0
   44.8978  -13.0559   -8.6561 C   0  0  0  0  0  0  0  0  0  0  0  0
   44.7745  -11.9737   -7.6207 C   0  0  2  0  0  0  0  0  0  0  0  0
   44.3162  -12.5453   -6.3490 N   0  0  0  0  0  0  0  0  0  0  0  0
   43.9160  -10.8416   -8.0139 C   0  0  0  0  0  0  0  0  0  0  0  0
   44.2772  -10.0684   -8.9142 O   0  0  0  0  0  0  0  0  0  0  0  0
   44.5699  -19.2252   -8.9530 N   0  0  0  0  0  0  0  0  0  0  0  0
   42.6568  -10.5688   -7.4064 C   0  0  1  0  0  0  0  0  0  0  0  0
   41.8155   -9.4600   -7.7908 C   0  0  0  0  0  0  0  0  0  0  0  0
   40.3559   -9.8329   -7.8265 C   0  0  0  0  0  0  0  0  0  0  0  0
   39.5095   -8.7213   -8.2899 C   0  0  0  0  0  0  0  0  0  0  0  0
   39.9452   -7.4634   -8.6157 N   0  0  0  0  0  0  0  0  0  0  0  0
   38.9121   -6.7124   -8.9933 C   0  0  0  0  0  0  0  0  0  0  0  0
   37.8279   -7.5044   -8.9030 N   0  0  0  0  0  0  0  0  0  0  0  0
   38.1867   -8.7468   -8.4694 C   0  0  0  0  0  0  0  0  0  0  0  0
   42.0771   -8.3225   -6.8637 O   0  0  0  0  0  0  0  0  0  0  0  0
   41.9210   -8.5138   -5.6351 C   0  0  0  0  0  0  0  0  0  0  0  0
   45.2054   -6.2918   -6.3282 C   0  0  2  0  0  0  0  0  0  0  0  0
   44.1080   -5.3013   -6.6649 O   0  0  0  0  0  0  0  0  0  0  0  0
   44.2736   -4.9383   -8.0021 C   0  0  2  0  0  0  0  0  0  0  0  0
   42.7503   -5.8962   -6.5225 N   0  0  0  0  0  0  0  0  0  0  0  0
   42.4893   -7.0547   -7.3148 C   0  0  0  0  0  0  0  0  0  0  0  0
   41.6706   -4.8719   -6.5268 O   0  0  0  0  0  0  0  0  0  0  0  0
   41.6205   -3.9249   -5.5365 O   0  0  0  0  0  0  0  0  0  0  0  0
  1  2  1  0
  2  4  1  0
  2  3  2  0
  4  5  1  0
  5  6  1  0
  7  6  1  0
  8  7  1  0
  8  9  1  1
 10  8  1  0
 10 11  2  0
 12 10  1  0
 13 12  1  0
 13 20  1  0
 13 14  1  6
 15 14  1  0
 15 19  1  0
 16 17  1  0
 16 15  2  0
 17 18  1  0
 18 19  2  0
 20 26  1  0
 21 20  2  0
 23 22  1  1
 23 24  1  0
 23 25  1  0
 25 27  1  0
 25 26  1  1
 27 29  2  0
 27 28  1  0
M  END
$$$$
