RHT.pdb
     RDKit          3D

 29 29  0  0  1  0  0  0  0  0999 V2000
   22.6152  -15.9085  -18.4575 N   0  0  0  0  0  0  0  0  0  0  0  0
   21.5476  -16.5898  -19.0969 C   0  0  0  0  0  0  0  0  0  0  0  0
   21.6112  -17.8685  -19.2698 N   0  0  0  0  0  0  0  0  0  0  0  0
   20.3886  -15.9114  -19.5642 N   0  0  0  0  0  0  0  0  0  0  0  0
   20.2456  -14.4881  -19.4945 C   0  0  0  0  0  0  0  0  0  0  0  0
   19.2039  -14.0566  -18.4853 C   0  0  0  0  0  0  0  0  0  0  0  0
   18.9543  -12.5928  -18.4622 C   0  0  0  0  0  0  0  0  0  0  0  0
   20.0225  -11.7679  -17.8008 C   0  0  2  0  0  0  0  0  0  0  0  0
   20.7435  -12.5788  -16.8129 N   0  0  0  0  0  0  0  0  0  0  0  0
   19.5411  -10.5174  -17.1860 C   0  0  0  0  0  0  0  0  0  0  0  0
   18.8854   -9.7052  -17.8562 O   0  0  0  0  0  0  0  0  0  0  0  0
   20.8628  -18.4330  -19.6928 N   0  0  0  0  0  0  0  0  0  0  0  0
   19.7888  -10.1698  -15.8270 C   0  0  1  0  0  0  0  0  0  0  0  0
   19.3245   -8.9416  -15.2263 C   0  0  0  0  0  0  0  0  0  0  0  0
   18.3796   -9.1861  -14.0782 C   0  0  0  0  0  0  0  0  0  0  0  0
   17.0136   -9.4863  -14.5370 C   0  0  0  0  0  0  0  0  0  0  0  0
   16.6004   -9.5438  -15.8425 N   0  0  0  0  0  0  0  0  0  0  0  0
   15.3026   -9.8388  -15.8920 C   0  0  0  0  0  0  0  0  0  0  0  0
   14.9043   -9.9659  -14.6129 N   0  0  0  0  0  0  0  0  0  0  0  0
   15.9537   -9.7500  -13.7688 C   0  0  0  0  0  0  0  0  0  0  0  0
   20.5098   -8.1391  -14.8108 O   0  0  0  0  0  0  0  0  0  0  0  0
   21.1881   -8.5469  -13.8391 C   0  0  0  0  0  0  0  0  0  0  0  0
   21.5612   -4.2346  -16.7426 C   0  0  2  0  0  0  0  0  0  0  0  0
   22.5384   -5.2898  -16.2624 O   0  0  0  0  0  0  0  0  0  0  0  0
   23.6689   -4.6225  -15.7890 C   0  0  1  0  0  0  0  0  0  0  0  0
   21.9869   -6.0979  -15.1398 N   0  0  0  0  0  0  0  0  0  0  0  0
   20.8903   -6.9522  -15.4645 C   0  0  0  0  0  0  0  0  0  0  0  0
   21.8232   -5.3080  -13.8892 O   0  0  0  0  0  0  0  0  0  0  0  0
   22.9086   -4.6937  -13.3196 O   0  0  0  0  0  0  0  0  0  0  0  0
  1  2  1  0
  2  4  1  0
  2  3  2  0
  4  5  1  0
  5  6  1  0
  7  6  1  0
  8  7  1  0
  8  9  1  1
 10  8  1  0
 10 11  2  0
 12 10  1  0
 13 12  1  0
 13 20  1  0
 13 14  1  6
 15 14  1  0
 15 19  1  0
 16 17  1  0
 16 15  2  0
 17 18  1  0
 18 19  2  0
 20 26  1  0
 21 20  2  0
 23 22  1  6
 23 24  1  0
 23 25  1  0
 25 27  1  0
 25 26  1  6
 27 29  2  0
 27 28  1  0
M  END
$$$$
