RHT.pdb
     RDKit          3D

 29 29  0  0  1  0  0  0  0  0999 V2000
   24.1688  -20.7530  -10.3936 N   0  0  0  0  0  0  0  0  0  0  0  0
   25.4385  -20.5405   -9.7975 C   0  0  0  0  0  0  0  0  0  0  0  0
   25.5160  -20.0578   -8.6016 N   0  0  0  0  0  0  0  0  0  0  0  0
   26.6523  -20.8420  -10.4740 N   0  0  0  0  0  0  0  0  0  0  0  0
   26.7057  -21.1227  -11.8773 C   0  0  0  0  0  0  0  0  0  0  0  0
   27.3862  -20.0243  -12.6649 C   0  0  0  0  0  0  0  0  0  0  0  0
   27.0301  -20.0045  -14.1066 C   0  0  0  0  0  0  0  0  0  0  0  0
   25.8313  -20.8281  -14.4851 C   0  0  2  0  0  0  0  0  0  0  0  0
   26.2616  -22.0764  -15.1254 N   0  0  0  0  0  0  0  0  0  0  0  0
   24.8477  -20.1290  -15.3320 C   0  0  0  0  0  0  0  0  0  0  0  0
   24.9653  -20.1444  -16.5668 O   0  0  0  0  0  0  0  0  0  0  0  0
   26.3962  -19.9302   -8.0852 N   0  0  0  0  0  0  0  0  0  0  0  0
   23.7342  -19.4127  -14.8065 C   0  0  2  0  0  0  0  0  0  0  0  0
   22.7515  -18.7564  -15.6364 C   0  0  0  0  0  0  0  0  0  0  0  0
   21.3470  -19.2060  -15.3267 C   0  0  0  0  0  0  0  0  0  0  0  0
   21.0813  -20.5710  -15.8093 C   0  0  0  0  0  0  0  0  0  0  0  0
   21.9584  -21.3600  -16.5069 N   0  0  0  0  0  0  0  0  0  0  0  0
   21.3887  -22.5315  -16.7837 C   0  0  0  0  0  0  0  0  0  0  0  0
   20.1517  -22.4737  -16.2569 N   0  0  0  0  0  0  0  0  0  0  0  0
   19.9526  -21.2670  -15.6532 C   0  0  0  0  0  0  0  0  0  0  0  0
   22.9106  -17.2822  -15.4841 O   0  0  0  0  0  0  0  0  0  0  0  0
   22.8651  -16.7994  -14.3286 C   0  0  0  0  0  0  0  0  0  0  0  0
   23.0012  -14.3988  -18.9656 C   0  0  2  0  0  0  0  0  0  0  0  0
   23.8903  -14.3812  -17.7376 O   0  0  0  0  0  0  0  0  0  0  0  0
   24.1441  -13.0441  -17.4291 C   0  0  1  0  0  0  0  0  0  0  0  0
   23.2291  -15.0004  -16.5556 N   0  0  0  0  0  0  0  0  0  0  0  0
   23.1084  -16.4226  -16.5807 C   0  0  0  0  0  0  0  0  0  0  0  0
   22.0026  -14.2700  -16.1350 O   0  0  0  0  0  0  0  0  0  0  0  0
   22.0935  -12.9750  -15.6939 O   0  0  0  0  0  0  0  0  0  0  0  0
  1  2  1  0
  2  4  1  0
  2  3  2  0
  4  5  1  0
  5  6  1  0
  7  6  1  0
  8  7  1  0
  8  9  1  6
 10  8  1  0
 10 11  2  0
 12 10  1  0
 13 12  1  0
 13 20  1  0
 13 14  1  6
 15 14  1  0
 15 19  1  0
 16 17  1  0
 16 15  2  0
 17 18  1  0
 18 19  2  0
 20 26  1  0
 21 20  2  0
 23 22  1  6
 23 24  1  0
 23 25  1  0
 25 27  1  0
 25 26  1  6
 27 29  2  0
 27 28  1  0
M  END
$$$$
