RHT.pdb
     RDKit          3D

 29 29  0  0  1  0  0  0  0  0999 V2000
   12.3438  -14.6045  -11.0449 N   0  0  0  0  0  0  0  0  0  0  0  0
   11.8920  -13.2783  -11.2679 C   0  0  0  0  0  0  0  0  0  0  0  0
   10.9652  -12.7789  -10.5191 N   0  0  0  0  0  0  0  0  0  0  0  0
   12.4267  -12.4601  -12.3008 N   0  0  0  0  0  0  0  0  0  0  0  0
   13.0398  -13.0018  -13.4763 C   0  0  0  0  0  0  0  0  0  0  0  0
   14.5303  -12.7455  -13.5258 C   0  0  0  0  0  0  0  0  0  0  0  0
   14.9141  -11.5655  -14.3420 C   0  0  0  0  0  0  0  0  0  0  0  0
   16.3917  -11.3198  -14.4637 C   0  0  2  0  0  0  0  0  0  0  0  0
   17.1144  -12.5970  -14.4692 N   0  0  0  0  0  0  0  0  0  0  0  0
   16.9511  -10.4175  -13.4408 C   0  0  0  0  0  0  0  0  0  0  0  0
   17.3645  -10.8753  -12.3645 O   0  0  0  0  0  0  0  0  0  0  0  0
   10.5739  -11.8349  -10.6348 N   0  0  0  0  0  0  0  0  0  0  0  0
   17.0507   -9.0072  -13.6140 C   0  0  1  0  0  0  0  0  0  0  0  0
   17.7119   -8.1378  -12.6695 C   0  0  0  0  0  0  0  0  0  0  0  0
   18.7776   -7.2921  -13.3172 C   0  0  0  0  0  0  0  0  0  0  0  0
   19.8720   -8.1056  -13.8716 C   0  0  0  0  0  0  0  0  0  0  0  0
   19.9596   -9.4725  -13.8225 N   0  0  0  0  0  0  0  0  0  0  0  0
   21.0801   -9.8740  -14.4198 C   0  0  0  0  0  0  0  0  0  0  0  0
   21.6941   -8.7540  -14.8434 N   0  0  0  0  0  0  0  0  0  0  0  0
   20.9558   -7.6568  -14.5095 C   0  0  0  0  0  0  0  0  0  0  0  0
   16.6798   -7.3067  -11.9870 O   0  0  0  0  0  0  0  0  0  0  0  0
   15.6710   -6.9599  -12.6447 C   0  0  0  0  0  0  0  0  0  0  0  0
   15.5717   -7.7127   -8.0227 C   0  0  2  0  0  0  0  0  0  0  0  0
   15.9021   -6.2878   -8.4218 O   0  0  0  0  0  0  0  0  0  0  0  0
   17.1983   -6.0232   -7.9776 C   0  0  2  0  0  0  0  0  0  0  0  0
   15.8826   -6.0984   -9.8987 N   0  0  0  0  0  0  0  0  0  0  0  0
   16.7970   -6.9023  -10.6441 C   0  0  0  0  0  0  0  0  0  0  0  0
   15.8356   -4.6644  -10.2937 O   0  0  0  0  0  0  0  0  0  0  0  0
   14.7869   -3.8772   -9.8931 O   0  0  0  0  0  0  0  0  0  0  0  0
  1  2  1  0
  2  4  1  0
  2  3  2  0
  4  5  1  0
  5  6  1  0
  7  6  1  0
  8  7  1  0
  8  9  1  1
 10  8  1  0
 10 11  2  0
 12 10  1  0
 13 12  1  0
 13 20  1  0
 13 14  1  1
 15 14  1  0
 15 19  1  0
 16 17  1  0
 16 15  2  0
 17 18  1  0
 18 19  2  0
 20 26  1  0
 21 20  2  0
 23 22  1  1
 23 24  1  0
 23 25  1  0
 25 27  1  0
 25 26  1  6
 27 29  2  0
 27 28  1  0
M  END
$$$$
