RHT.pdb
     RDKit          3D

 29 29  0  0  1  0  0  0  0  0999 V2000
   46.2670  -14.4135   -7.8628 N   0  0  0  0  0  0  0  0  0  0  0  0
   46.7979  -13.4980   -6.9180 C   0  0  0  0  0  0  0  0  0  0  0  0
   47.5267  -13.9291   -5.9423 N   0  0  0  0  0  0  0  0  0  0  0  0
   46.5567  -12.0991   -7.0014 N   0  0  0  0  0  0  0  0  0  0  0  0
   45.5516  -11.5378   -7.8532 C   0  0  0  0  0  0  0  0  0  0  0  0
   44.2988  -11.1503   -7.0979 C   0  0  0  0  0  0  0  0  0  0  0  0
   43.1965  -10.6622   -7.9654 C   0  0  0  0  0  0  0  0  0  0  0  0
   42.8991   -9.1926   -7.8631 C   0  0  2  0  0  0  0  0  0  0  0  0
   43.0363   -8.7482   -6.4712 N   0  0  0  0  0  0  0  0  0  0  0  0
   41.5873   -8.7918   -8.4032 C   0  0  0  0  0  0  0  0  0  0  0  0
   41.2744   -9.0895   -9.5662 O   0  0  0  0  0  0  0  0  0  0  0  0
   47.8242  -13.3532   -5.1439 N   0  0  0  0  0  0  0  0  0  0  0  0
   40.6239   -8.0601   -7.6513 C   0  0  1  0  0  0  0  0  0  0  0  0
   39.3162   -7.7179   -8.1592 C   0  0  0  0  0  0  0  0  0  0  0  0
   38.2330   -7.9088   -7.1293 C   0  0  0  0  0  0  0  0  0  0  0  0
   38.0266   -9.3277   -6.7964 C   0  0  0  0  0  0  0  0  0  0  0  0
   38.5961  -10.3941   -7.4422 N   0  0  0  0  0  0  0  0  0  0  0  0
   38.1899  -11.5309   -6.8796 C   0  0  0  0  0  0  0  0  0  0  0  0
   37.3641  -11.1729   -5.8792 N   0  0  0  0  0  0  0  0  0  0  0  0
   37.2569   -9.8144   -5.8199 C   0  0  0  0  0  0  0  0  0  0  0  0
   39.3576   -6.3185   -8.6710 O   0  0  0  0  0  0  0  0  0  0  0  0
   39.9544   -5.4561   -7.9852 C   0  0  0  0  0  0  0  0  0  0  0  0
   40.1179   -5.5115  -12.4140 C   0  0  2  0  0  0  0  0  0  0  0  0
   38.9699   -4.6255  -11.9714 O   0  0  0  0  0  0  0  0  0  0  0  0
   37.8074   -5.1319  -12.5540 C   0  0  2  0  0  0  0  0  0  0  0  0
   38.7813   -4.6453  -10.4944 N   0  0  0  0  0  0  0  0  0  0  0  0
   38.7566   -5.9359   -9.8847 C   0  0  0  0  0  0  0  0  0  0  0  0
   37.7164   -3.7111  -10.0384 O   0  0  0  0  0  0  0  0  0  0  0  0
   37.8485   -2.3635  -10.2541 O   0  0  0  0  0  0  0  0  0  0  0  0
  1  2  1  0
  2  4  1  0
  2  3  2  0
  4  5  1  0
  5  6  1  0
  7  6  1  0
  8  7  1  0
  8  9  1  1
 10  8  1  0
 10 11  2  0
 12 10  1  0
 13 12  1  0
 13 20  1  0
 13 14  1  6
 15 14  1  0
 15 19  1  0
 16 17  1  0
 16 15  2  0
 17 18  1  0
 18 19  2  0
 20 26  1  0
 21 20  2  0
 23 22  1  6
 23 24  1  0
 23 25  1  0
 25 27  1  0
 25 26  1  1
 27 29  2  0
 27 28  1  0
M  END
$$$$
