RHT.pdb
     RDKit          3D

 29 29  0  0  1  0  0  0  0  0999 V2000
   27.5277  -16.0263  -19.7418 N   0  0  0  0  0  0  0  0  0  0  0  0
   28.3583  -17.1474  -19.9988 C   0  0  0  0  0  0  0  0  0  0  0  0
   29.4884  -16.9868  -20.6038 N   0  0  0  0  0  0  0  0  0  0  0  0
   27.9920  -18.4655  -19.6108 N   0  0  0  0  0  0  0  0  0  0  0  0
   26.7496  -18.7635  -18.9639 C   0  0  0  0  0  0  0  0  0  0  0  0
   26.8585  -19.9268  -18.0022 C   0  0  0  0  0  0  0  0  0  0  0  0
   28.0316  -19.8528  -17.0943 C   0  0  0  0  0  0  0  0  0  0  0  0
   28.2181  -21.0352  -16.1856 C   0  0  2  0  0  0  0  0  0  0  0  0
   28.4428  -22.2485  -16.9801 N   0  0  0  0  0  0  0  0  0  0  0  0
   27.1235  -21.2482  -15.2213 C   0  0  0  0  0  0  0  0  0  0  0  0
   26.3721  -22.2284  -15.3375 O   0  0  0  0  0  0  0  0  0  0  0  0
   30.1169  -17.7563  -20.8695 N   0  0  0  0  0  0  0  0  0  0  0  0
   26.8640  -20.3719  -14.1288 C   0  0  2  0  0  0  0  0  0  0  0  0
   25.8450  -20.6227  -13.1370 C   0  0  0  0  0  0  0  0  0  0  0  0
   26.1205  -19.9093  -11.8385 C   0  0  0  0  0  0  0  0  0  0  0  0
   25.0811  -20.1705  -10.8295 C   0  0  0  0  0  0  0  0  0  0  0  0
   25.1292  -21.1386   -9.8606 N   0  0  0  0  0  0  0  0  0  0  0  0
   24.0214  -21.0930   -9.1227 C   0  0  0  0  0  0  0  0  0  0  0  0
   23.2793  -20.0930   -9.6327 N   0  0  0  0  0  0  0  0  0  0  0  0
   23.9253  -19.5172  -10.6870 C   0  0  0  0  0  0  0  0  0  0  0  0
   24.5220  -20.2445  -13.7102 O   0  0  0  0  0  0  0  0  0  0  0  0
   24.4278  -19.1446  -14.3033 C   0  0  0  0  0  0  0  0  0  0  0  0
   22.5094  -22.1682  -16.1953 C   0  0  2  0  0  0  0  0  0  0  0  0
   21.5480  -21.8566  -15.0651 O   0  0  0  0  0  0  0  0  0  0  0  0
   21.3751  -23.0317  -14.3325 C   0  0  2  0  0  0  0  0  0  0  0  0
   22.0849  -20.8213  -14.1392 N   0  0  0  0  0  0  0  0  0  0  0  0
   23.3871  -21.0707  -13.6101 C   0  0  0  0  0  0  0  0  0  0  0  0
   21.0772  -20.3606  -13.1456 O   0  0  0  0  0  0  0  0  0  0  0  0
   19.9146  -19.7716  -13.5714 O   0  0  0  0  0  0  0  0  0  0  0  0
  1  2  1  0
  2  4  1  0
  2  3  2  0
  4  5  1  0
  5  6  1  0
  7  6  1  0
  8  7  1  0
  8  9  1  6
 10  8  1  0
 10 11  2  0
 12 10  1  0
 13 12  1  0
 13 20  1  0
 13 14  1  1
 15 14  1  0
 15 19  1  0
 16 17  1  0
 16 15  2  0
 17 18  1  0
 18 19  2  0
 20 26  1  0
 21 20  2  0
 23 22  1  6
 23 24  1  0
 23 25  1  0
 25 27  1  0
 25 26  1  6
 27 29  2  0
 27 28  1  0
M  END
$$$$
