RHT.pdb
     RDKit          3D

 29 29  0  0  1  0  0  0  0  0999 V2000
   19.7368  -16.7173  -17.1349 N   0  0  0  0  0  0  0  0  0  0  0  0
   18.4553  -16.1729  -16.8629 C   0  0  0  0  0  0  0  0  0  0  0  0
   17.5137  -16.9349  -16.4137 N   0  0  0  0  0  0  0  0  0  0  0  0
   18.1581  -14.7975  -17.0679 N   0  0  0  0  0  0  0  0  0  0  0  0
   19.0723  -13.8956  -17.7018 C   0  0  0  0  0  0  0  0  0  0  0  0
   20.3140  -13.6478  -16.8732 C   0  0  0  0  0  0  0  0  0  0  0  0
   21.2587  -12.6732  -17.4763 C   0  0  0  0  0  0  0  0  0  0  0  0
   21.7508  -11.5963  -16.5507 C   0  0  2  0  0  0  0  0  0  0  0  0
   21.4910  -11.9748  -15.1568 N   0  0  0  0  0  0  0  0  0  0  0  0
   21.2097  -10.2532  -16.8275 C   0  0  0  0  0  0  0  0  0  0  0  0
   21.4223   -9.7086  -17.9216 O   0  0  0  0  0  0  0  0  0  0  0  0
   16.5783  -16.6020  -16.1457 N   0  0  0  0  0  0  0  0  0  0  0  0
   20.4329   -9.5157  -15.8885 C   0  0  1  0  0  0  0  0  0  0  0  0
   19.8226   -8.2426  -16.1917 C   0  0  0  0  0  0  0  0  0  0  0  0
   18.3174   -8.3145  -16.1952 C   0  0  0  0  0  0  0  0  0  0  0  0
   17.6998   -7.0174  -16.5158 C   0  0  0  0  0  0  0  0  0  0  0  0
   18.0120   -6.2239  -17.5888 N   0  0  0  0  0  0  0  0  0  0  0  0
   17.2610   -5.1241  -17.5696 C   0  0  0  0  0  0  0  0  0  0  0  0
   16.4773   -5.2317  -16.4810 N   0  0  0  0  0  0  0  0  0  0  0  0
   16.7409   -6.3974  -15.8238 C   0  0  0  0  0  0  0  0  0  0  0  0
   20.3295   -7.2307  -15.2217 O   0  0  0  0  0  0  0  0  0  0  0  0
   20.3689   -7.5431  -14.0087 C   0  0  0  0  0  0  0  0  0  0  0  0
   22.9727   -3.9571  -16.4454 C   0  0  2  0  0  0  0  0  0  0  0  0
   22.8117   -4.6626  -15.1130 O   0  0  0  0  0  0  0  0  0  0  0  0
   23.2907   -3.7994  -14.1267 C   0  0  1  0  0  0  0  0  0  0  0  0
   21.3858   -4.9582  -14.8018 N   0  0  0  0  0  0  0  0  0  0  0  0
   20.7611   -5.9505  -15.6160 C   0  0  0  0  0  0  0  0  0  0  0  0
   20.5798   -3.7277  -14.5760 O   0  0  0  0  0  0  0  0  0  0  0  0
   20.8911   -2.8849  -13.5402 O   0  0  0  0  0  0  0  0  0  0  0  0
  1  2  1  0
  2  4  1  0
  2  3  2  0
  4  5  1  0
  5  6  1  0
  7  6  1  0
  8  7  1  0
  8  9  1  1
 10  8  1  0
 10 11  2  0
 12 10  1  0
 13 12  1  0
 13 20  1  0
 13 14  1  6
 15 14  1  0
 15 19  1  0
 16 17  1  0
 16 15  2  0
 17 18  1  0
 18 19  2  0
 20 26  1  0
 21 20  2  0
 23 22  1  6
 23 24  1  0
 23 25  1  0
 25 27  1  0
 25 26  1  6
 27 29  2  0
 27 28  1  0
M  END
$$$$
