RHT.pdb
     RDKit          3D

 29 29  0  0  1  0  0  0  0  0999 V2000
   27.8554  -28.2044  -18.3644 N   0  0  0  0  0  0  0  0  0  0  0  0
   27.9246  -28.0188  -16.9596 C   0  0  0  0  0  0  0  0  0  0  0  0
   27.7578  -29.0258  -16.1677 N   0  0  0  0  0  0  0  0  0  0  0  0
   28.1745  -26.7466  -16.3755 N   0  0  0  0  0  0  0  0  0  0  0  0
   28.5130  -25.5925  -17.1530 C   0  0  0  0  0  0  0  0  0  0  0  0
   27.2984  -24.9184  -17.7532 C   0  0  0  0  0  0  0  0  0  0  0  0
   26.7876  -23.7732  -16.9573 C   0  0  0  0  0  0  0  0  0  0  0  0
   27.5806  -22.5020  -17.0759 C   0  0  2  0  0  0  0  0  0  0  0  0
   28.9215  -22.6922  -16.5107 N   0  0  0  0  0  0  0  0  0  0  0  0
   26.9357  -21.3174  -16.4809 C   0  0  0  0  0  0  0  0  0  0  0  0
   27.4678  -20.7316  -15.5256 O   0  0  0  0  0  0  0  0  0  0  0  0
   27.7757  -28.9639  -15.1413 N   0  0  0  0  0  0  0  0  0  0  0  0
   25.6998  -20.7844  -16.9472 C   0  0  1  0  0  0  0  0  0  0  0  0
   25.0420  -19.6553  -16.3328 C   0  0  0  0  0  0  0  0  0  0  0  0
   25.1832  -18.3960  -17.1481 C   0  0  0  0  0  0  0  0  0  0  0  0
   26.5788  -17.9333  -17.2189 C   0  0  0  0  0  0  0  0  0  0  0  0
   27.6556  -18.5393  -16.6258 N   0  0  0  0  0  0  0  0  0  0  0  0
   28.7643  -17.8523  -16.8955 C   0  0  0  0  0  0  0  0  0  0  0  0
   28.3782  -16.8141  -17.6597 N   0  0  0  0  0  0  0  0  0  0  0  0
   27.0304  -16.8555  -17.8648 C   0  0  0  0  0  0  0  0  0  0  0  0
   23.6133  -20.0092  -16.0976 O   0  0  0  0  0  0  0  0  0  0  0  0
   22.9562  -20.4810  -17.0548 C   0  0  0  0  0  0  0  0  0  0  0  0
   22.3414  -21.5868  -12.5984 C   0  0  2  0  0  0  0  0  0  0  0  0
   21.3875  -20.5150  -13.0886 O   0  0  0  0  0  0  0  0  0  0  0  0
   21.6121  -19.3754  -12.3151 C   0  0  2  0  0  0  0  0  0  0  0  0
   21.6332  -20.1515  -14.5116 N   0  0  0  0  0  0  0  0  0  0  0  0
   22.9829  -19.8342  -14.8516 C   0  0  0  0  0  0  0  0  0  0  0  0
   20.6095  -19.2155  -15.0507 O   0  0  0  0  0  0  0  0  0  0  0  0
   19.2915  -19.5912  -15.0923 O   0  0  0  0  0  0  0  0  0  0  0  0
  1  2  1  0
  2  4  1  0
  2  3  2  0
  4  5  1  0
  5  6  1  0
  7  6  1  0
  8  7  1  0
  8  9  1  1
 10  8  1  0
 10 11  2  0
 12 10  1  0
 13 12  1  0
 13 20  1  0
 13 14  1  1
 15 14  1  0
 15 19  1  0
 16 17  1  0
 16 15  2  0
 17 18  1  0
 18 19  2  0
 20 26  1  0
 21 20  2  0
 23 22  1  1
 23 24  1  0
 23 25  1  0
 25 27  1  0
 25 26  1  6
 27 29  2  0
 27 28  1  0
M  END
$$$$
