RHT.pdb
     RDKit          3D

 29 29  0  0  1  0  0  0  0  0999 V2000
   17.7367  -22.0845    4.1782 N   0  0  0  0  0  0  0  0  0  0  0  0
   17.2171  -22.1868    2.8620 C   0  0  0  0  0  0  0  0  0  0  0  0
   16.8295  -23.3332    2.4097 N   0  0  0  0  0  0  0  0  0  0  0  0
   17.1029  -21.0590    2.0035 N   0  0  0  0  0  0  0  0  0  0  0  0
   17.4222  -19.7291    2.4283 C   0  0  0  0  0  0  0  0  0  0  0  0
   16.2754  -19.0587    3.1531 C   0  0  0  0  0  0  0  0  0  0  0  0
   16.5701  -17.6733    3.6000 C   0  0  0  0  0  0  0  0  0  0  0  0
   15.4276  -16.9525    4.2588 C   0  0  2  0  0  0  0  0  0  0  0  0
   14.2499  -16.9721    3.3834 N   0  0  0  0  0  0  0  0  0  0  0  0
   15.7320  -15.5728    4.6794 C   0  0  0  0  0  0  0  0  0  0  0  0
   15.5201  -14.6246    3.9080 O   0  0  0  0  0  0  0  0  0  0  0  0
   16.4616  -23.4868    1.4618 N   0  0  0  0  0  0  0  0  0  0  0  0
   16.2720  -15.2470    5.9566 C   0  0  1  0  0  0  0  0  0  0  0  0
   16.5222  -13.8922    6.3887 C   0  0  0  0  0  0  0  0  0  0  0  0
   15.6267  -13.4789    7.5280 C   0  0  0  0  0  0  0  0  0  0  0  0
   14.2492  -13.2116    7.0834 C   0  0  0  0  0  0  0  0  0  0  0  0
   13.8822  -12.7348    5.8519 N   0  0  0  0  0  0  0  0  0  0  0  0
   12.5575  -12.6109    5.7931 C   0  0  0  0  0  0  0  0  0  0  0  0
   12.0959  -13.0119    6.9919 N   0  0  0  0  0  0  0  0  0  0  0  0
   13.1331  -13.3847    7.7955 C   0  0  0  0  0  0  0  0  0  0  0  0
   17.9652  -13.7654    6.7404 O   0  0  0  0  0  0  0  0  0  0  0  0
   18.5322  -14.7485    7.2718 C   0  0  0  0  0  0  0  0  0  0  0  0
   22.1762  -11.1099    6.3260 C   0  0  2  0  0  0  0  0  0  0  0  0
   20.6606  -11.0931    6.2880 O   0  0  0  0  0  0  0  0  0  0  0  0
   20.2809  -10.9962    4.9487 C   0  0  1  0  0  0  0  0  0  0  0  0
   20.0703  -12.3456    6.8359 N   0  0  0  0  0  0  0  0  0  0  0  0
   18.7054  -12.5931    6.4988 C   0  0  0  0  0  0  0  0  0  0  0  0
   20.4176  -12.5670    8.2660 O   0  0  0  0  0  0  0  0  0  0  0  0
   19.6161  -12.0541    9.2532 O   0  0  0  0  0  0  0  0  0  0  0  0
  1  2  1  0
  2  4  1  0
  2  3  2  0
  4  5  1  0
  5  6  1  0
  7  6  1  0
  8  7  1  0
  8  9  1  6
 10  8  1  0
 10 11  2  0
 12 10  1  0
 13 12  1  0
 13 20  1  0
 13 14  1  6
 15 14  1  0
 15 19  1  0
 16 17  1  0
 16 15  2  0
 17 18  1  0
 18 19  2  0
 20 26  1  0
 21 20  2  0
 23 22  1  1
 23 24  1  0
 23 25  1  0
 25 27  1  0
 25 26  1  1
 27 29  2  0
 27 28  1  0
M  END
$$$$
