SER.pdb
     RDKit          3D

 27 26  0  0  1  0  0  0  0  0999 V2000
   13.0920  -14.1542   19.3677 O   0  0  0  0  0  0  0  0  0  0  0  0
   14.1083  -15.0425   19.0359 C   0  0  0  0  0  0  0  0  0  0  0  0
   13.5501  -16.4344   18.8143 C   0  0  2  0  0  0  0  0  0  0  0  0
   12.5667  -16.3700   17.7568 N   0  0  0  0  0  0  0  0  0  0  0  0
   12.8939  -16.9703   20.0450 C   0  0  0  0  0  0  0  0  0  0  0  0
   11.6438  -17.0920   20.1280 O   0  0  0  0  0  0  0  0  0  0  0  0
   13.6444  -17.3697   21.1837 N   0  0  0  0  0  0  0  0  0  0  0  0
   13.0076  -17.9991   22.3422 C   0  0  1  0  0  0  0  0  0  0  0  0
   14.1112  -18.4830   23.2310 C   0  0  0  0  0  0  0  0  0  0  0  0
   13.6539  -19.1316   24.4817 C   0  0  0  0  0  0  0  0  0  0  0  0
   14.7168  -19.6562   25.3256 C   0  0  0  0  0  0  0  0  0  0  0  0
   14.3876  -20.1612   26.4468 O   0  0  0  0  0  0  0  0  0  0  0  0
   12.1036  -17.0448   23.0291 C   0  0  0  0  0  0  0  0  0  0  0  0
   12.5782  -15.9171   23.3224 O   0  0  0  0  0  0  0  0  0  0  0  0
   16.0536  -19.6487   25.0025 O   0  0  0  0  0  0  0  0  0  0  0  0
    8.8981  -11.7250   18.5151 N   0  0  0  0  0  0  0  0  0  0  0  0
    8.3085  -12.8266   19.2245 C   0  0  0  0  0  0  0  0  0  0  0  0
    7.2205  -13.3652   18.8019 N   0  0  0  0  0  0  0  0  0  0  0  0
    8.9012  -13.3496   20.4009 N   0  0  0  0  0  0  0  0  0  0  0  0
    8.3639  -14.4720   21.1387 C   0  0  0  0  0  0  0  0  0  0  0  0
    9.2357  -14.6511   22.3787 C   0  0  0  0  0  0  0  0  0  0  0  0
    8.8665  -15.8770   23.1444 C   0  0  0  0  0  0  0  0  0  0  0  0
    9.9112  -16.3719   24.0992 C   0  0  2  0  0  0  0  0  0  0  0  0
   10.7735  -17.3129   23.3686 N   0  0  0  0  0  0  0  0  0  0  0  0
    9.3923  -16.9696   25.3325 C   0  0  0  0  0  0  0  0  0  0  0  0
    9.7034  -18.2712   25.7129 O   0  0  0  0  0  0  0  0  0  0  0  0
    8.6395  -16.3270   26.1031 O   0  0  0  0  0  0  0  0  0  0  0  0
  2  1  1  0
  3  2  1  0
  3  4  1  6
  5  3  1  0
  5  6  2  0
  7  5  1  0
  8  7  1  0
  8  9  1  1
 10  9  1  0
 11 10  1  0
 12 11  2  0
 13  8  1  0
 14 13  2  0
 15 11  1  0
 16 17  1  0
 17 19  1  0
 17 18  2  0
 19 20  1  0
 20 21  1  0
 21 22  1  0
 23 24  1  0
 23 22  1  6
 24 13  1  0
 25 23  1  0
 26 25  1  0
 27 25  2  0
M  END
$$$$
