SER.pdb
     RDKit          3D

 27 26  0  0  1  0  0  0  0  0999 V2000
   11.5504  -16.6846   17.1839 O   0  0  0  0  0  0  0  0  0  0  0  0
   10.1874  -16.9433   17.2683 C   0  0  0  0  0  0  0  0  0  0  0  0
    9.4976  -15.9000   18.1251 C   0  0  2  0  0  0  0  0  0  0  0  0
    9.5890  -14.6232   17.4535 N   0  0  0  0  0  0  0  0  0  0  0  0
   10.1354  -15.7788   19.4708 C   0  0  0  0  0  0  0  0  0  0  0  0
   10.9434  -14.8515   19.7383 O   0  0  0  0  0  0  0  0  0  0  0  0
    9.8642  -16.7017   20.5169 N   0  0  0  0  0  0  0  0  0  0  0  0
   10.5377  -16.6132   21.8140 C   0  0  1  0  0  0  0  0  0  0  0  0
   10.0052  -17.7329   22.6535 C   0  0  0  0  0  0  0  0  0  0  0  0
   10.6119  -17.8333   24.0011 C   0  0  0  0  0  0  0  0  0  0  0  0
   10.1245  -18.9378   24.8133 C   0  0  0  0  0  0  0  0  0  0  0  0
   10.9880  -19.7000   25.3554 O   0  0  0  0  0  0  0  0  0  0  0  0
   12.0100  -16.6796   21.6482 C   0  0  0  0  0  0  0  0  0  0  0  0
   12.4548  -17.5060   20.8102 O   0  0  0  0  0  0  0  0  0  0  0  0
    8.7981  -19.2209   25.0412 O   0  0  0  0  0  0  0  0  0  0  0  0
   16.6456  -11.6314   17.4183 N   0  0  0  0  0  0  0  0  0  0  0  0
   16.3814  -12.9890   17.0288 C   0  0  0  0  0  0  0  0  0  0  0  0
   16.5346  -13.3569   15.8066 N   0  0  0  0  0  0  0  0  0  0  0  0
   15.9482  -13.9563   17.9697 N   0  0  0  0  0  0  0  0  0  0  0  0
   15.7430  -13.6737   19.3735 C   0  0  0  0  0  0  0  0  0  0  0  0
   15.2202  -14.9555   20.0163 C   0  0  0  0  0  0  0  0  0  0  0  0
   14.8176  -14.7400   21.4365 C   0  0  0  0  0  0  0  0  0  0  0  0
   14.3832  -15.9730   22.1708 C   0  0  2  0  0  0  0  0  0  0  0  0
   12.9263  -15.8931   22.3541 N   0  0  0  0  0  0  0  0  0  0  0  0
   15.0697  -16.2122   23.4433 C   0  0  0  0  0  0  0  0  0  0  0  0
   16.4407  -16.4376   23.5145 O   0  0  0  0  0  0  0  0  0  0  0  0
   14.4442  -16.2238   24.5306 O   0  0  0  0  0  0  0  0  0  0  0  0
  2  1  1  0
  3  2  1  0
  3  4  1  6
  5  3  1  0
  5  6  2  0
  7  5  1  0
  8  7  1  0
  8  9  1  1
 10  9  1  0
 11 10  1  0
 12 11  2  0
 13  8  1  0
 14 13  2  0
 15 11  1  0
 16 17  1  0
 17 19  1  0
 17 18  2  0
 19 20  1  0
 20 21  1  0
 21 22  1  0
 23 24  1  0
 23 22  1  1
 24 13  1  0
 25 23  1  0
 26 25  1  0
 27 25  2  0
M  END
$$$$
