SER.pdb
     RDKit          3D

 27 26  0  0  1  0  0  0  0  0999 V2000
    5.6049  -18.6907   18.9180 O   0  0  0  0  0  0  0  0  0  0  0  0
    6.6887  -18.6651   19.7879 C   0  0  0  0  0  0  0  0  0  0  0  0
    7.9929  -18.6332   19.0158 C   0  0  2  0  0  0  0  0  0  0  0  0
    8.1856  -19.9217   18.3896 N   0  0  0  0  0  0  0  0  0  0  0  0
    9.1585  -18.3569   19.9088 C   0  0  0  0  0  0  0  0  0  0  0  0
    9.4999  -19.1584   20.8172 O   0  0  0  0  0  0  0  0  0  0  0  0
    9.9409  -17.1776   19.7801 N   0  0  0  0  0  0  0  0  0  0  0  0
   11.0466  -16.8849   20.6942 C   0  0  1  0  0  0  0  0  0  0  0  0
   11.9738  -15.9606   19.9675 C   0  0  0  0  0  0  0  0  0  0  0  0
   13.1446  -15.5168   20.7589 C   0  0  0  0  0  0  0  0  0  0  0  0
   14.0918  -14.6800   20.0378 C   0  0  0  0  0  0  0  0  0  0  0  0
   13.6454  -13.9726   19.0783 O   0  0  0  0  0  0  0  0  0  0  0  0
   10.5419  -16.3011   21.9608 C   0  0  0  0  0  0  0  0  0  0  0  0
   10.0043  -15.1656   21.8932 O   0  0  0  0  0  0  0  0  0  0  0  0
   15.4360  -14.5945   20.3156 O   0  0  0  0  0  0  0  0  0  0  0  0
    6.0354  -21.3766   25.7984 N   0  0  0  0  0  0  0  0  0  0  0  0
    7.2153  -21.3565   24.9786 C   0  0  0  0  0  0  0  0  0  0  0  0
    7.7632  -22.4559   24.5996 N   0  0  0  0  0  0  0  0  0  0  0  0
    7.8070  -20.1367   24.5656 N   0  0  0  0  0  0  0  0  0  0  0  0
    7.2422  -18.8353   24.8487 C   0  0  0  0  0  0  0  0  0  0  0  0
    8.1309  -17.8025   24.1609 C   0  0  0  0  0  0  0  0  0  0  0  0
    9.1668  -17.2576   25.0860 C   0  0  0  0  0  0  0  0  0  0  0  0
   10.1464  -16.3105   24.4604 C   0  0  2  0  0  0  0  0  0  0  0  0
   10.6234  -16.9226   23.2112 N   0  0  0  0  0  0  0  0  0  0  0  0
   11.2636  -15.9139   25.3218 C   0  0  0  0  0  0  0  0  0  0  0  0
   12.5803  -16.2580   25.0329 O   0  0  0  0  0  0  0  0  0  0  0  0
   11.0776  -15.2417   26.3645 O   0  0  0  0  0  0  0  0  0  0  0  0
  2  1  1  0
  3  2  1  0
  3  4  1  1
  5  3  1  0
  5  6  2  0
  7  5  1  0
  8  7  1  0
  8  9  1  6
 10  9  1  0
 11 10  1  0
 12 11  2  0
 13  8  1  0
 14 13  2  0
 15 11  1  0
 16 17  1  0
 17 19  1  0
 17 18  2  0
 19 20  1  0
 20 21  1  0
 21 22  1  0
 23 24  1  0
 23 22  1  1
 24 13  1  0
 25 23  1  0
 26 25  1  0
 27 25  2  0
M  END
$$$$
