SER.pdb
     RDKit          3D

 27 26  0  0  1  0  0  0  0  0999 V2000
    7.2474  -12.1401   19.1795 O   0  0  0  0  0  0  0  0  0  0  0  0
    8.2027  -13.1171   19.4339 C   0  0  0  0  0  0  0  0  0  0  0  0
    9.0081  -13.4150   18.1847 C   0  0  2  0  0  0  0  0  0  0  0  0
    8.1191  -13.9684   17.1882 N   0  0  0  0  0  0  0  0  0  0  0  0
   10.0994  -14.4001   18.4512 C   0  0  0  0  0  0  0  0  0  0  0  0
    9.9323  -15.6353   18.2761 O   0  0  0  0  0  0  0  0  0  0  0  0
   11.3803  -13.9956   18.9153 N   0  0  0  0  0  0  0  0  0  0  0  0
   12.4495  -14.9646   19.1635 C   0  0  1  0  0  0  0  0  0  0  0  0
   13.7060  -14.3729   18.6040 C   0  0  0  0  0  0  0  0  0  0  0  0
   13.9927  -14.7522   17.2011 C   0  0  0  0  0  0  0  0  0  0  0  0
   15.4025  -14.9341   16.8900 C   0  0  0  0  0  0  0  0  0  0  0  0
   16.0905  -13.8946   16.6321 O   0  0  0  0  0  0  0  0  0  0  0  0
   12.5608  -15.2664   20.6114 C   0  0  0  0  0  0  0  0  0  0  0  0
   12.9280  -14.3281   21.3648 O   0  0  0  0  0  0  0  0  0  0  0  0
   16.0499  -16.1470   16.8545 O   0  0  0  0  0  0  0  0  0  0  0  0
   15.0506  -20.0871   25.6840 N   0  0  0  0  0  0  0  0  0  0  0  0
   13.7324  -20.2068   26.2432 C   0  0  0  0  0  0  0  0  0  0  0  0
   13.4846  -19.7671   27.4254 N   0  0  0  0  0  0  0  0  0  0  0  0
   12.6738  -20.8073   25.5169 N   0  0  0  0  0  0  0  0  0  0  0  0
   12.2289  -20.3464   24.2198 C   0  0  0  0  0  0  0  0  0  0  0  0
   12.6366  -18.8802   24.1018 C   0  0  0  0  0  0  0  0  0  0  0  0
   12.2491  -18.3008   22.7828 C   0  0  0  0  0  0  0  0  0  0  0  0
   12.7175  -16.8973   22.5401 C   0  0  2  0  0  0  0  0  0  0  0  0
   12.2876  -16.5112   21.1877 N   0  0  0  0  0  0  0  0  0  0  0  0
   14.1549  -16.6814   22.7260 C   0  0  0  0  0  0  0  0  0  0  0  0
   15.0783  -16.9296   21.7153 O   0  0  0  0  0  0  0  0  0  0  0  0
   14.6167  -16.2600   23.8136 O   0  0  0  0  0  0  0  0  0  0  0  0
  2  1  1  0
  3  2  1  0
  3  4  1  6
  5  3  1  0
  5  6  2  0
  7  5  1  0
  8  7  1  0
  8  9  1  1
 10  9  1  0
 11 10  1  0
 12 11  2  0
 13  8  1  0
 14 13  2  0
 15 11  1  0
 16 17  1  0
 17 19  1  0
 17 18  2  0
 19 20  1  0
 20 21  1  0
 21 22  1  0
 23 24  1  0
 23 22  1  6
 24 13  1  0
 25 23  1  0
 26 25  1  0
 27 25  2  0
M  END
$$$$
