SER.pdb
     RDKit          3D

 27 26  0  0  1  0  0  0  0  0999 V2000
    8.2510  -12.4446   20.1523 O   0  0  0  0  0  0  0  0  0  0  0  0
    8.7936  -12.5807   18.8798 C   0  0  0  0  0  0  0  0  0  0  0  0
    8.6081  -13.9956   18.3684 C   0  0  2  0  0  0  0  0  0  0  0  0
    7.2086  -14.1924   18.0644 N   0  0  0  0  0  0  0  0  0  0  0  0
    9.0238  -15.0103   19.3833 C   0  0  0  0  0  0  0  0  0  0  0  0
    8.1945  -15.5358   20.1709 O   0  0  0  0  0  0  0  0  0  0  0  0
   10.3740  -15.4343   19.5126 N   0  0  0  0  0  0  0  0  0  0  0  0
   10.7704  -16.4511   20.4887 C   0  0  1  0  0  0  0  0  0  0  0  0
   12.1662  -16.8644   20.1382 C   0  0  0  0  0  0  0  0  0  0  0  0
   12.7355  -17.9136   21.0154 C   0  0  0  0  0  0  0  0  0  0  0  0
   14.0831  -18.3391   20.6689 C   0  0  0  0  0  0  0  0  0  0  0  0
   14.2107  -19.4152   20.0010 O   0  0  0  0  0  0  0  0  0  0  0  0
   10.6657  -15.9232   21.8708 C   0  0  0  0  0  0  0  0  0  0  0  0
   11.1499  -14.7820   22.0856 O   0  0  0  0  0  0  0  0  0  0  0  0
   15.2325  -17.6644   21.0082 O   0  0  0  0  0  0  0  0  0  0  0  0
    6.4599  -11.6626   27.8462 N   0  0  0  0  0  0  0  0  0  0  0  0
    6.5202  -12.2275   26.5263 C   0  0  0  0  0  0  0  0  0  0  0  0
    7.0788  -11.5803   25.5664 N   0  0  0  0  0  0  0  0  0  0  0  0
    5.9715  -13.5033   26.2432 N   0  0  0  0  0  0  0  0  0  0  0  0
    6.3335  -14.2929   25.0864 C   0  0  0  0  0  0  0  0  0  0  0  0
    7.7847  -14.7260   25.2765 C   0  0  0  0  0  0  0  0  0  0  0  0
    8.2888  -15.5056   24.1087 C   0  0  0  0  0  0  0  0  0  0  0  0
    9.7120  -15.9651   24.2146 C   0  0  2  0  0  0  0  0  0  0  0  0
   10.0710  -16.6028   22.9390 N   0  0  0  0  0  0  0  0  0  0  0  0
    9.9976  -16.8450   25.3511 C   0  0  0  0  0  0  0  0  0  0  0  0
    9.9338  -16.3993   26.6675 O   0  0  0  0  0  0  0  0  0  0  0  0
   10.3142  -18.0471   25.1829 O   0  0  0  0  0  0  0  0  0  0  0  0
  2  1  1  0
  3  2  1  0
  3  4  1  1
  5  3  1  0
  5  6  2  0
  7  5  1  0
  8  7  1  0
  8  9  1  6
 10  9  1  0
 11 10  1  0
 12 11  2  0
 13  8  1  0
 14 13  2  0
 15 11  1  0
 16 17  1  0
 17 19  1  0
 17 18  2  0
 19 20  1  0
 20 21  1  0
 21 22  1  0
 23 24  1  0
 23 22  1  6
 24 13  1  0
 25 23  1  0
 26 25  1  0
 27 25  2  0
M  END
$$$$
