SER.pdb
     RDKit          3D

 27 26  0  0  1  0  0  0  0  0999 V2000
   14.8362  -23.2487   14.8390 O   0  0  0  0  0  0  0  0  0  0  0  0
   14.9341  -21.8622   14.8323 C   0  0  0  0  0  0  0  0  0  0  0  0
   13.5888  -21.2301   15.1300 C   0  0  2  0  0  0  0  0  0  0  0  0
   13.1982  -20.4283   13.9923 N   0  0  0  0  0  0  0  0  0  0  0  0
   13.6447  -20.3514   16.3371 C   0  0  0  0  0  0  0  0  0  0  0  0
   14.1098  -19.1830   16.2833 O   0  0  0  0  0  0  0  0  0  0  0  0
   13.1772  -20.7873   17.6063 N   0  0  0  0  0  0  0  0  0  0  0  0
   13.3220  -19.9590   18.8050 C   0  0  1  0  0  0  0  0  0  0  0  0
   11.9647  -19.8641   19.4301 C   0  0  0  0  0  0  0  0  0  0  0  0
   11.9171  -19.0691   20.6791 C   0  0  0  0  0  0  0  0  0  0  0  0
   10.5872  -18.8864   21.2405 C   0  0  0  0  0  0  0  0  0  0  0  0
    9.6071  -19.4163   20.6249 O   0  0  0  0  0  0  0  0  0  0  0  0
   14.3309  -20.5372   19.7256 C   0  0  0  0  0  0  0  0  0  0  0  0
   14.2219  -21.7606   19.9985 O   0  0  0  0  0  0  0  0  0  0  0  0
   10.3083  -18.1838   22.3893 O   0  0  0  0  0  0  0  0  0  0  0  0
   20.0943  -15.8556   18.7750 N   0  0  0  0  0  0  0  0  0  0  0  0
   20.1789  -17.0330   17.9558 C   0  0  0  0  0  0  0  0  0  0  0  0
   20.5994  -16.9536   16.7437 N   0  0  0  0  0  0  0  0  0  0  0  0
   19.8054  -18.3068   18.4526 N   0  0  0  0  0  0  0  0  0  0  0  0
   19.4344  -18.5533   19.8290 C   0  0  0  0  0  0  0  0  0  0  0  0
   18.1272  -19.3409   19.8059 C   0  0  0  0  0  0  0  0  0  0  0  0
   17.6027  -19.5864   21.1808 C   0  0  0  0  0  0  0  0  0  0  0  0
   16.3477  -20.4039   21.2485 C   0  0  2  0  0  0  0  0  0  0  0  0
   15.3835  -19.8202   20.3038 N   0  0  0  0  0  0  0  0  0  0  0  0
   15.7678  -20.5417   22.5873 C   0  0  0  0  0  0  0  0  0  0  0  0
   16.2902  -21.4166   23.5345 O   0  0  0  0  0  0  0  0  0  0  0  0
   14.7677  -19.8706   22.9380 O   0  0  0  0  0  0  0  0  0  0  0  0
  2  1  1  0
  3  2  1  0
  3  4  1  6
  5  3  1  0
  5  6  2  0
  7  5  1  0
  8  7  1  0
  8  9  1  1
 10  9  1  0
 11 10  1  0
 12 11  2  0
 13  8  1  0
 14 13  2  0
 15 11  1  0
 16 17  1  0
 17 19  1  0
 17 18  2  0
 19 20  1  0
 20 21  1  0
 21 22  1  0
 23 24  1  0
 23 22  1  1
 24 13  1  0
 25 23  1  0
 26 25  1  0
 27 25  2  0
M  END
$$$$
