SER.pdb
     RDKit          3D

 27 26  0  0  1  0  0  0  0  0999 V2000
    6.3740  -19.4387   20.7194 O   0  0  0  0  0  0  0  0  0  0  0  0
    5.8156  -20.6821   20.9919 C   0  0  0  0  0  0  0  0  0  0  0  0
    4.7681  -20.5701   22.0820 C   0  0  2  0  0  0  0  0  0  0  0  0
    3.5963  -19.9314   21.5266 N   0  0  0  0  0  0  0  0  0  0  0  0
    5.2547  -19.7554   23.2360 C   0  0  0  0  0  0  0  0  0  0  0  0
    4.8695  -18.5710   23.4181 O   0  0  0  0  0  0  0  0  0  0  0  0
    6.1758  -20.2732   24.1863 N   0  0  0  0  0  0  0  0  0  0  0  0
    6.6792  -19.4572   25.2928 C   0  0  1  0  0  0  0  0  0  0  0  0
    7.4054  -20.3848   26.2170 C   0  0  0  0  0  0  0  0  0  0  0  0
    6.8330  -20.4667   27.5808 C   0  0  0  0  0  0  0  0  0  0  0  0
    7.5243  -21.3749   28.4834 C   0  0  0  0  0  0  0  0  0  0  0  0
    8.5696  -21.9580   28.0501 O   0  0  0  0  0  0  0  0  0  0  0  0
    7.5468  -18.3648   24.7890 C   0  0  0  0  0  0  0  0  0  0  0  0
    8.2708  -18.6224   23.7928 O   0  0  0  0  0  0  0  0  0  0  0  0
    7.1336  -21.6508   29.7728 O   0  0  0  0  0  0  0  0  0  0  0  0
    7.1636  -11.7314   19.8212 N   0  0  0  0  0  0  0  0  0  0  0  0
    7.9926  -12.8678   19.5281 C   0  0  0  0  0  0  0  0  0  0  0  0
    8.5049  -13.0153   18.3585 N   0  0  0  0  0  0  0  0  0  0  0  0
    8.2694  -13.8527   20.5091 N   0  0  0  0  0  0  0  0  0  0  0  0
    7.7488  -13.8090   21.8581 C   0  0  0  0  0  0  0  0  0  0  0  0
    8.3131  -15.0209   22.5949 C   0  0  0  0  0  0  0  0  0  0  0  0
    7.8006  -15.1085   23.9932 C   0  0  0  0  0  0  0  0  0  0  0  0
    8.5525  -16.0448   24.8910 C   0  0  2  0  0  0  0  0  0  0  0  0
    7.6124  -17.0818   25.3421 N   0  0  0  0  0  0  0  0  0  0  0  0
    9.2304  -15.4086   26.0238 C   0  0  0  0  0  0  0  0  0  0  0  0
    9.0680  -15.8565   27.3309 O   0  0  0  0  0  0  0  0  0  0  0  0
    9.9920  -14.4252   25.8606 O   0  0  0  0  0  0  0  0  0  0  0  0
  2  1  1  0
  3  2  1  0
  3  4  1  6
  5  3  1  0
  5  6  2  0
  7  5  1  0
  8  7  1  0
  8  9  1  1
 10  9  1  0
 11 10  1  0
 12 11  2  0
 13  8  1  0
 14 13  2  0
 15 11  1  0
 16 17  1  0
 17 19  1  0
 17 18  2  0
 19 20  1  0
 20 21  1  0
 21 22  1  0
 23 24  1  0
 23 22  1  1
 24 13  1  0
 25 23  1  0
 26 25  1  0
 27 25  2  0
M  END
$$$$
