SER.pdb
     RDKit          3D

 27 26  0  0  1  0  0  0  0  0999 V2000
   10.7539  -13.0421   19.4287 O   0  0  0  0  0  0  0  0  0  0  0  0
   10.4038  -13.6219   18.2148 C   0  0  0  0  0  0  0  0  0  0  0  0
    8.8967  -13.7208   18.0849 C   0  0  2  0  0  0  0  0  0  0  0  0
    8.3560  -12.3828   17.9996 N   0  0  0  0  0  0  0  0  0  0  0  0
    8.2835  -14.4098   19.2604 C   0  0  0  0  0  0  0  0  0  0  0  0
    7.9267  -13.7747   20.2868 O   0  0  0  0  0  0  0  0  0  0  0  0
    8.0716  -15.8148   19.2815 N   0  0  0  0  0  0  0  0  0  0  0  0
    7.6328  -16.5081   20.4942 C   0  0  1  0  0  0  0  0  0  0  0  0
    7.4007  -17.9376   20.1137 C   0  0  0  0  0  0  0  0  0  0  0  0
    7.0916  -18.8343   21.2515 C   0  0  0  0  0  0  0  0  0  0  0  0
    6.9192  -20.2357   20.8997 C   0  0  0  0  0  0  0  0  0  0  0  0
    7.9607  -20.9658   20.8500 O   0  0  0  0  0  0  0  0  0  0  0  0
    8.6383  -16.3653   21.5752 C   0  0  0  0  0  0  0  0  0  0  0  0
    9.8493  -16.4533   21.2455 O   0  0  0  0  0  0  0  0  0  0  0  0
    5.7130  -20.8329   20.6170 O   0  0  0  0  0  0  0  0  0  0  0  0
   10.2583  -16.4950   28.9564 N   0  0  0  0  0  0  0  0  0  0  0  0
   10.1263  -15.1317   29.3909 C   0  0  0  0  0  0  0  0  0  0  0  0
   10.2561  -14.8293   30.6335 N   0  0  0  0  0  0  0  0  0  0  0  0
    9.8517  -14.0873   28.4730 N   0  0  0  0  0  0  0  0  0  0  0  0
    8.9190  -14.2103   27.3741 C   0  0  0  0  0  0  0  0  0  0  0  0
    9.6041  -15.0472   26.2971 C   0  0  0  0  0  0  0  0  0  0  0  0
    8.7620  -15.1724   25.0721 C   0  0  0  0  0  0  0  0  0  0  0  0
    9.3459  -16.0176   23.9799 C   0  0  2  0  0  0  0  0  0  0  0  0
    8.3324  -16.1418   22.9216 N   0  0  0  0  0  0  0  0  0  0  0  0
    9.8372  -17.3308   24.4063 C   0  0  0  0  0  0  0  0  0  0  0  0
   11.1083  -17.5076   24.9435 O   0  0  0  0  0  0  0  0  0  0  0  0
    9.1259  -18.3590   24.3038 O   0  0  0  0  0  0  0  0  0  0  0  0
  2  1  1  0
  3  2  1  0
  3  4  1  1
  5  3  1  0
  5  6  2  0
  7  5  1  0
  8  7  1  0
  8  9  1  6
 10  9  1  0
 11 10  1  0
 12 11  2  0
 13  8  1  0
 14 13  2  0
 15 11  1  0
 16 17  1  0
 17 19  1  0
 17 18  2  0
 19 20  1  0
 20 21  1  0
 21 22  1  0
 23 24  1  0
 23 22  1  1
 24 13  1  0
 25 23  1  0
 26 25  1  0
 27 25  2  0
M  END
$$$$
