SER.pdb
     RDKit          3D

 27 26  0  0  1  0  0  0  0  0999 V2000
    8.1785  -15.8480   17.7845 O   0  0  0  0  0  0  0  0  0  0  0  0
    9.1298  -16.2092   16.8376 C   0  0  0  0  0  0  0  0  0  0  0  0
    9.5127  -17.6675   16.9943 C   0  0  2  0  0  0  0  0  0  0  0  0
    8.3484  -18.4785   16.7181 N   0  0  0  0  0  0  0  0  0  0  0  0
    9.9881  -17.9697   18.3781 C   0  0  0  0  0  0  0  0  0  0  0  0
    9.2604  -18.5712   19.2106 O   0  0  0  0  0  0  0  0  0  0  0  0
   11.2835  -17.5949   18.8264 N   0  0  0  0  0  0  0  0  0  0  0  0
   11.7339  -17.8696   20.1922 C   0  0  1  0  0  0  0  0  0  0  0  0
   13.2292  -17.7945   20.1765 C   0  0  0  0  0  0  0  0  0  0  0  0
   13.9088  -19.1011   20.0181 C   0  0  0  0  0  0  0  0  0  0  0  0
   15.3624  -19.0381   19.9922 C   0  0  0  0  0  0  0  0  0  0  0  0
   15.9924  -19.4921   21.0008 O   0  0  0  0  0  0  0  0  0  0  0  0
   11.1282  -16.9116   21.1489 C   0  0  0  0  0  0  0  0  0  0  0  0
   11.0482  -15.7106   20.7826 O   0  0  0  0  0  0  0  0  0  0  0  0
   16.1090  -18.5250   18.9575 O   0  0  0  0  0  0  0  0  0  0  0  0
    8.6309  -13.5671   18.0829 N   0  0  0  0  0  0  0  0  0  0  0  0
    8.2084  -13.1202   19.3816 C   0  0  0  0  0  0  0  0  0  0  0  0
    8.4763  -11.9272   19.7782 N   0  0  0  0  0  0  0  0  0  0  0  0
    7.4901  -13.9715   20.2580 N   0  0  0  0  0  0  0  0  0  0  0  0
    8.0274  -15.1994   20.8022 C   0  0  0  0  0  0  0  0  0  0  0  0
    8.0427  -15.0468   22.3209 C   0  0  0  0  0  0  0  0  0  0  0  0
    8.5305  -16.2833   22.9981 C   0  0  0  0  0  0  0  0  0  0  0  0
    9.9935  -16.2967   23.3258 C   0  0  2  0  0  0  0  0  0  0  0  0
   10.6456  -17.2514   22.4170 N   0  0  0  0  0  0  0  0  0  0  0  0
   10.3137  -16.5875   24.7259 C   0  0  0  0  0  0  0  0  0  0  0  0
   10.1833  -15.6327   25.7295 O   0  0  0  0  0  0  0  0  0  0  0  0
   10.7221  -17.7192   25.0810 O   0  0  0  0  0  0  0  0  0  0  0  0
  2  1  1  0
  3  2  1  0
  3  4  1  1
  5  3  1  0
  5  6  2  0
  7  5  1  0
  8  7  1  0
  8  9  1  6
 10  9  1  0
 11 10  1  0
 12 11  2  0
 13  8  1  0
 14 13  2  0
 15 11  1  0
 16 17  1  0
 17 19  1  0
 17 18  2  0
 19 20  1  0
 20 21  1  0
 21 22  1  0
 23 24  1  0
 23 22  1  1
 24 13  1  0
 25 23  1  0
 26 25  1  0
 27 25  2  0
M  END
$$$$
