SER.pdb
     RDKit          3D

 27 26  0  0  1  0  0  0  0  0999 V2000
    8.3097  -15.6712   15.9596 O   0  0  0  0  0  0  0  0  0  0  0  0
    8.4338  -16.0772   17.2831 C   0  0  0  0  0  0  0  0  0  0  0  0
    8.5596  -17.5855   17.3697 C   0  0  2  0  0  0  0  0  0  0  0  0
    7.2946  -18.1727   16.9895 N   0  0  0  0  0  0  0  0  0  0  0  0
    8.8978  -18.0344   18.7541 C   0  0  0  0  0  0  0  0  0  0  0  0
    8.0101  -18.1983   19.6313 O   0  0  0  0  0  0  0  0  0  0  0  0
   10.2359  -18.2992   19.1524 N   0  0  0  0  0  0  0  0  0  0  0  0
   10.5641  -18.7127   20.5182 C   0  0  1  0  0  0  0  0  0  0  0  0
   11.6237  -19.7648   20.4074 C   0  0  0  0  0  0  0  0  0  0  0  0
   11.1322  -21.0874   19.9566 C   0  0  0  0  0  0  0  0  0  0  0  0
   11.7356  -22.2284   20.6285 C   0  0  0  0  0  0  0  0  0  0  0  0
   11.6414  -22.2862   21.8967 O   0  0  0  0  0  0  0  0  0  0  0  0
   11.0017  -17.5505   21.3292 C   0  0  0  0  0  0  0  0  0  0  0  0
   11.7549  -16.7128   20.7688 O   0  0  0  0  0  0  0  0  0  0  0  0
   12.4008  -23.2522   19.9956 O   0  0  0  0  0  0  0  0  0  0  0  0
   10.3783  -13.3032   29.3703 N   0  0  0  0  0  0  0  0  0  0  0  0
   10.4096  -14.7356   29.2620 C   0  0  0  0  0  0  0  0  0  0  0  0
   10.3665  -15.4691   30.3168 N   0  0  0  0  0  0  0  0  0  0  0  0
   10.4882  -15.3794   28.0018 N   0  0  0  0  0  0  0  0  0  0  0  0
    9.6746  -15.0141   26.8628 C   0  0  0  0  0  0  0  0  0  0  0  0
   10.5892  -15.0154   25.6407 C   0  0  0  0  0  0  0  0  0  0  0  0
   10.2513  -16.1193   24.6958 C   0  0  0  0  0  0  0  0  0  0  0  0
   11.0746  -16.1616   23.4434 C   0  0  2  0  0  0  0  0  0  0  0  0
   10.6366  -17.3270   22.6607 N   0  0  0  0  0  0  0  0  0  0  0  0
   12.5248  -16.1733   23.6536 C   0  0  0  0  0  0  0  0  0  0  0  0
   13.2900  -15.0124   23.6046 O   0  0  0  0  0  0  0  0  0  0  0  0
   13.1420  -17.2398   23.8886 O   0  0  0  0  0  0  0  0  0  0  0  0
  2  1  1  0
  3  2  1  0
  3  4  1  1
  5  3  1  0
  5  6  2  0
  7  5  1  0
  8  7  1  0
  8  9  1  6
 10  9  1  0
 11 10  1  0
 12 11  2  0
 13  8  1  0
 14 13  2  0
 15 11  1  0
 16 17  1  0
 17 19  1  0
 17 18  2  0
 19 20  1  0
 20 21  1  0
 21 22  1  0
 23 24  1  0
 23 22  1  1
 24 13  1  0
 25 23  1  0
 26 25  1  0
 27 25  2  0
M  END
$$$$
