SER.pdb
     RDKit          3D

 27 26  0  0  1  0  0  0  0  0999 V2000
    8.2710  -19.7024   19.3972 O   0  0  0  0  0  0  0  0  0  0  0  0
    9.3065  -20.3931   20.0156 C   0  0  0  0  0  0  0  0  0  0  0  0
    9.8482  -19.6037   21.1910 C   0  0  2  0  0  0  0  0  0  0  0  0
   10.2947  -18.3157   20.7102 N   0  0  0  0  0  0  0  0  0  0  0  0
   11.0016  -20.2976   21.8396 C   0  0  0  0  0  0  0  0  0  0  0  0
   10.8855  -21.4468   22.3396 O   0  0  0  0  0  0  0  0  0  0  0  0
   12.2872  -19.6981   21.9260 N   0  0  0  0  0  0  0  0  0  0  0  0
   13.4269  -20.4044   22.5143 C   0  0  1  0  0  0  0  0  0  0  0  0
   14.6428  -19.9654   21.7587 C   0  0  0  0  0  0  0  0  0  0  0  0
   15.1920  -20.9829   20.8328 C   0  0  0  0  0  0  0  0  0  0  0  0
   16.3429  -20.5484   20.0556 C   0  0  0  0  0  0  0  0  0  0  0  0
   16.1220  -19.8897   18.9890 O   0  0  0  0  0  0  0  0  0  0  0  0
   13.5290  -20.1213   23.9666 C   0  0  0  0  0  0  0  0  0  0  0  0
   13.3512  -18.9303   24.3313 O   0  0  0  0  0  0  0  0  0  0  0  0
   17.6545  -20.7953   20.3874 O   0  0  0  0  0  0  0  0  0  0  0  0
   10.3429  -21.1651   30.8256 N   0  0  0  0  0  0  0  0  0  0  0  0
   11.5162  -21.6791   31.4767 C   0  0  0  0  0  0  0  0  0  0  0  0
   11.7049  -21.4774   32.7321 N   0  0  0  0  0  0  0  0  0  0  0  0
   12.4932  -22.4174   30.7631 N   0  0  0  0  0  0  0  0  0  0  0  0
   12.4120  -22.6939   29.3455 C   0  0  0  0  0  0  0  0  0  0  0  0
   13.2681  -21.6483   28.6359 C   0  0  0  0  0  0  0  0  0  0  0  0
   13.2510  -21.8289   27.1551 C   0  0  0  0  0  0  0  0  0  0  0  0
   13.9653  -20.7667   26.3744 C   0  0  2  0  0  0  0  0  0  0  0  0
   13.8069  -21.0801   24.9463 N   0  0  0  0  0  0  0  0  0  0  0  0
   15.3752  -20.5789   26.7272 C   0  0  0  0  0  0  0  0  0  0  0  0
   15.7679  -19.8714   27.8589 O   0  0  0  0  0  0  0  0  0  0  0  0
   16.2947  -21.0526   26.0174 O   0  0  0  0  0  0  0  0  0  0  0  0
  2  1  1  0
  3  2  1  0
  3  4  1  6
  5  3  1  0
  5  6  2  0
  7  5  1  0
  8  7  1  0
  8  9  1  6
 10  9  1  0
 11 10  1  0
 12 11  2  0
 13  8  1  0
 14 13  2  0
 15 11  1  0
 16 17  1  0
 17 19  1  0
 17 18  2  0
 19 20  1  0
 20 21  1  0
 21 22  1  0
 23 24  1  0
 23 22  1  1
 24 13  1  0
 25 23  1  0
 26 25  1  0
 27 25  2  0
M  END
$$$$
