YPM.pdb
     RDKit          3D

 28 29  0  0  1  0  0  0  0  0999 V2000
    0.1328  -20.4448   20.0545 O   0  0  0  0  0  0  0  0  0  0  0  0
    1.3001  -19.7677   20.4214 C   0  0  0  0  0  0  0  0  0  0  0  0
    1.8365  -18.8233   19.6061 C   0  0  0  0  0  0  0  0  0  0  0  0
    2.9992  -18.1589   19.9824 C   0  0  0  0  0  0  0  0  0  0  0  0
    3.6390  -18.4276   21.1738 C   0  0  0  0  0  0  0  0  0  0  0  0
    4.8656  -17.7336   21.5880 C   0  0  0  0  0  0  0  0  0  0  0  0
    6.0041  -17.9441   20.6019 C   0  0  2  0  0  0  0  0  0  0  0  0
    6.2264  -19.3189   20.2917 N   0  0  0  0  0  0  0  0  0  0  0  0
    7.2206  -17.1835   20.9724 C   0  0  0  0  0  0  0  0  0  0  0  0
    8.2285  -17.8890   21.3314 O   0  0  0  0  0  0  0  0  0  0  0  0
    3.0719  -19.3924   21.9827 C   0  0  0  0  0  0  0  0  0  0  0  0
    1.9150  -20.0601   21.6186 C   0  0  0  0  0  0  0  0  0  0  0  0
    7.2959  -15.7620   20.9428 N   0  0  0  0  0  0  0  0  0  0  0  0
    6.2718  -14.9103   20.4624 C   0  0  0  0  0  0  0  0  0  0  0  0
    6.7972  -13.5065   20.6711 C   0  0  0  0  0  0  0  0  0  0  0  0
    8.3275  -13.7100   20.6633 C   0  0  0  0  0  0  0  0  0  0  0  0
    8.4038  -15.0064   21.4020 C   0  0  1  0  0  0  0  0  0  0  0  0
    8.4221  -14.8159   22.8772 C   0  0  0  0  0  0  0  0  0  0  0  0
    7.3149  -14.7645   23.4582 O   0  0  0  0  0  0  0  0  0  0  0  0
    6.7661  -11.1084   27.1889 C   0  0  0  0  0  0  0  0  0  0  0  0
    6.7454  -12.8748   27.5897 S   0  0  0  0  0  0  0  0  0  0  0  0
    8.2335  -13.6985   27.0259 C   0  0  0  0  0  0  0  0  0  0  0  0
    8.4234  -13.8196   25.5621 C   0  0  0  0  0  0  0  0  0  0  0  0
    9.6231  -14.5463   25.1093 C   0  0  2  0  0  0  0  0  0  0  0  0
    9.5971  -14.6935   23.6344 N   0  0  0  0  0  0  0  0  0  0  0  0
    9.9982  -15.8039   25.7314 C   0  0  0  0  0  0  0  0  0  0  0  0
    9.4787  -17.0054   25.2001 O   0  0  0  0  0  0  0  0  0  0  0  0
   10.7408  -15.9402   26.6986 O   0  0  0  0  0  0  0  0  0  0  0  0
  2  1  1  0
  3  2  2  0
  4  3  1  0
  5 11  1  0
  5  4  2  0
  6  7  1  0
  6  5  1  0
  7  8  1  1
  7  9  1  0
  9 10  2  0
 11 12  2  0
 12  2  1  0
 13  9  1  0
 13 14  1  0
 15 14  1  0
 16 15  1  0
 17 16  1  0
 17 13  1  0
 17 18  1  1
 18 19  2  0
 20 21  1  0
 22 23  1  0
 22 21  1  0
 24 23  1  1
 24 26  1  0
 24 25  1  0
 25 18  1  0
 26 27  1  0
 28 26  2  0
M  END
$$$$
