YPM.pdb
     RDKit          3D

 28 29  0  0  1  0  0  0  0  0999 V2000
    5.5469  -10.3965   26.1812 O   0  0  0  0  0  0  0  0  0  0  0  0
    5.9195  -11.7443   26.1860 C   0  0  0  0  0  0  0  0  0  0  0  0
    7.1820  -12.1135   25.8482 C   0  0  0  0  0  0  0  0  0  0  0  0
    7.5386  -13.4580   25.8551 C   0  0  0  0  0  0  0  0  0  0  0  0
    6.6425  -14.4479   26.1988 C   0  0  0  0  0  0  0  0  0  0  0  0
    7.0031  -15.8719   26.2143 C   0  0  0  0  0  0  0  0  0  0  0  0
    6.5952  -16.5804   24.9319 C   0  0  2  0  0  0  0  0  0  0  0  0
    5.8959  -17.8015   25.1674 N   0  0  0  0  0  0  0  0  0  0  0  0
    7.7100  -16.6772   23.9606 C   0  0  0  0  0  0  0  0  0  0  0  0
    8.3480  -17.7887   23.9569 O   0  0  0  0  0  0  0  0  0  0  0  0
    5.3663  -14.0440   26.5374 C   0  0  0  0  0  0  0  0  0  0  0  0
    4.9999  -12.7088   26.5340 C   0  0  0  0  0  0  0  0  0  0  0  0
    8.0738  -15.6219   23.0767 N   0  0  0  0  0  0  0  0  0  0  0  0
    7.4759  -14.3384   23.0644 C   0  0  0  0  0  0  0  0  0  0  0  0
    8.2173  -13.5691   21.9927 C   0  0  0  0  0  0  0  0  0  0  0  0
    8.7367  -14.6891   21.0659 C   0  0  0  0  0  0  0  0  0  0  0  0
    9.0934  -15.7108   22.0960 C   0  0  1  0  0  0  0  0  0  0  0  0
   10.4621  -15.5083   22.6425 C   0  0  0  0  0  0  0  0  0  0  0  0
   10.9223  -14.3451   22.6080 O   0  0  0  0  0  0  0  0  0  0  0  0
    9.7299  -15.1114   28.2809 C   0  0  0  0  0  0  0  0  0  0  0  0
   11.4141  -14.5184   27.9762 S   0  0  0  0  0  0  0  0  0  0  0  0
   12.2206  -15.4549   26.6787 C   0  0  0  0  0  0  0  0  0  0  0  0
   11.5088  -15.5643   25.3845 C   0  0  0  0  0  0  0  0  0  0  0  0
   12.1654  -16.3639   24.3348 C   0  0  2  0  0  0  0  0  0  0  0  0
   11.2469  -16.5376   23.1842 N   0  0  0  0  0  0  0  0  0  0  0  0
   12.8003  -17.6279   24.6639 C   0  0  0  0  0  0  0  0  0  0  0  0
   14.0854  -17.6096   25.2505 O   0  0  0  0  0  0  0  0  0  0  0  0
   12.3266  -18.7451   24.4821 O   0  0  0  0  0  0  0  0  0  0  0  0
  2  1  1  0
  3  2  2  0
  4  3  1  0
  5 11  1  0
  5  4  2  0
  6  7  1  0
  6  5  1  0
  7  8  1  1
  7  9  1  0
  9 10  2  0
 11 12  2  0
 12  2  1  0
 13  9  1  0
 13 14  1  0
 15 14  1  0
 16 15  1  0
 17 16  1  0
 17 13  1  0
 17 18  1  1
 18 19  2  0
 20 21  1  0
 22 23  1  0
 22 21  1  0
 24 23  1  1
 24 26  1  0
 24 25  1  0
 25 18  1  0
 26 27  1  0
 28 26  2  0
M  END
$$$$
