YPM.pdb
     RDKit          3D

 28 29  0  0  1  0  0  0  0  0999 V2000
    7.4174  -11.3987   27.8570 O   0  0  0  0  0  0  0  0  0  0  0  0
    6.9882  -12.3145   26.8914 C   0  0  0  0  0  0  0  0  0  0  0  0
    7.6975  -12.4962   25.7476 C   0  0  0  0  0  0  0  0  0  0  0  0
    7.2580  -13.4090   24.7944 C   0  0  0  0  0  0  0  0  0  0  0  0
    6.1088  -14.1502   24.9706 C   0  0  0  0  0  0  0  0  0  0  0  0
    5.6320  -15.1203   23.9759 C   0  0  0  0  0  0  0  0  0  0  0  0
    6.1538  -16.5227   24.2471 C   0  0  2  0  0  0  0  0  0  0  0  0
    6.0881  -16.8856   25.6254 N   0  0  0  0  0  0  0  0  0  0  0  0
    7.4615  -16.7747   23.5973 C   0  0  0  0  0  0  0  0  0  0  0  0
    8.1133  -17.7872   24.0359 O   0  0  0  0  0  0  0  0  0  0  0  0
    5.4075  -13.9449   26.1421 C   0  0  0  0  0  0  0  0  0  0  0  0
    5.8353  -13.0391   27.0980 C   0  0  0  0  0  0  0  0  0  0  0  0
    7.9873  -15.9628   22.5525 N   0  0  0  0  0  0  0  0  0  0  0  0
    7.3560  -14.8055   22.0355 C   0  0  0  0  0  0  0  0  0  0  0  0
    8.3062  -14.2755   20.9837 C   0  0  0  0  0  0  0  0  0  0  0  0
    9.0877  -15.5382   20.5621 C   0  0  0  0  0  0  0  0  0  0  0  0
    9.2214  -16.1978   21.8960 C   0  0  1  0  0  0  0  0  0  0  0  0
   10.4013  -15.7033   22.6551 C   0  0  0  0  0  0  0  0  0  0  0  0
   10.5423  -14.4630   22.7434 O   0  0  0  0  0  0  0  0  0  0  0  0
   10.7517  -13.1209   27.4577 C   0  0  0  0  0  0  0  0  0  0  0  0
   10.3913  -14.8695   27.7640 S   0  0  0  0  0  0  0  0  0  0  0  0
   11.0013  -15.9124   26.4407 C   0  0  0  0  0  0  0  0  0  0  0  0
   11.6256  -15.2342   25.2815 C   0  0  0  0  0  0  0  0  0  0  0  0
   12.3081  -16.0966   24.3003 C   0  0  2  0  0  0  0  0  0  0  0  0
   11.3453  -16.5433   23.2653 N   0  0  0  0  0  0  0  0  0  0  0  0
   13.1195  -17.2159   24.7455 C   0  0  0  0  0  0  0  0  0  0  0  0
   14.3316  -16.9493   25.4205 O   0  0  0  0  0  0  0  0  0  0  0  0
   12.8581  -18.4051   24.5944 O   0  0  0  0  0  0  0  0  0  0  0  0
  2  1  1  0
  3  2  2  0
  4  3  1  0
  5 11  1  0
  5  4  2  0
  6  7  1  0
  6  5  1  0
  7  8  1  1
  7  9  1  0
  9 10  2  0
 11 12  2  0
 12  2  1  0
 13  9  1  0
 13 14  1  0
 15 14  1  0
 16 15  1  0
 17 16  1  0
 17 13  1  0
 17 18  1  1
 18 19  2  0
 20 21  1  0
 22 23  1  0
 22 21  1  0
 24 23  1  1
 24 26  1  0
 24 25  1  0
 25 18  1  0
 26 27  1  0
 28 26  2  0
M  END
$$$$
