YPM.pdb
     RDKit          3D

 28 29  0  0  1  0  0  0  0  0999 V2000
    8.0936  -13.0056   17.1208 O   0  0  0  0  0  0  0  0  0  0  0  0
    8.1584  -13.4509   18.4448 C   0  0  0  0  0  0  0  0  0  0  0  0
    8.5734  -14.7121   18.7303 C   0  0  0  0  0  0  0  0  0  0  0  0
    8.6311  -15.1428   20.0517 C   0  0  0  0  0  0  0  0  0  0  0  0
    8.2769  -14.3223   21.1017 C   0  0  0  0  0  0  0  0  0  0  0  0
    8.3346  -14.7599   22.5028 C   0  0  0  0  0  0  0  0  0  0  0  0
    7.4718  -15.9863   22.7563 C   0  0  2  0  0  0  0  0  0  0  0  0
    6.0803  -15.6821   22.8388 N   0  0  0  0  0  0  0  0  0  0  0  0
    7.9934  -16.8259   23.8602 C   0  0  0  0  0  0  0  0  0  0  0  0
    7.3305  -16.7765   24.9559 O   0  0  0  0  0  0  0  0  0  0  0  0
    7.8585  -13.0458   20.7823 C   0  0  0  0  0  0  0  0  0  0  0  0
    7.7970  -12.6061   19.4709 C   0  0  0  0  0  0  0  0  0  0  0  0
    9.1529  -17.6438   23.7429 N   0  0  0  0  0  0  0  0  0  0  0  0
    9.8553  -17.8782   22.5359 C   0  0  0  0  0  0  0  0  0  0  0  0
   11.0184  -18.7654   22.9233 C   0  0  0  0  0  0  0  0  0  0  0  0
   10.5030  -19.4665   24.1985 C   0  0  0  0  0  0  0  0  0  0  0  0
    9.7680  -18.3255   24.8228 C   0  0  1  0  0  0  0  0  0  0  0  0
   10.6587  -17.4596   25.6412 C   0  0  0  0  0  0  0  0  0  0  0  0
   11.3607  -16.6245   25.0282 O   0  0  0  0  0  0  0  0  0  0  0  0
    7.7710  -12.5248   26.8750 C   0  0  0  0  0  0  0  0  0  0  0  0
    9.4864  -12.9331   27.2892 S   0  0  0  0  0  0  0  0  0  0  0  0
    9.7629  -14.7036   27.2914 C   0  0  0  0  0  0  0  0  0  0  0  0
   11.1695  -15.1660   27.3254 C   0  0  0  0  0  0  0  0  0  0  0  0
   11.4104  -16.5086   27.8836 C   0  0  2  0  0  0  0  0  0  0  0  0
   10.7484  -17.5321   27.0397 N   0  0  0  0  0  0  0  0  0  0  0  0
   11.1554  -16.7766   29.2880 C   0  0  0  0  0  0  0  0  0  0  0  0
   10.1778  -17.7379   29.6289 O   0  0  0  0  0  0  0  0  0  0  0  0
   11.7145  -16.2419   30.2403 O   0  0  0  0  0  0  0  0  0  0  0  0
  2  1  1  0
  3  2  2  0
  4  3  1  0
  5 11  1  0
  5  4  2  0
  6  7  1  0
  6  5  1  0
  7  8  1  1
  7  9  1  0
  9 10  2  0
 11 12  2  0
 12  2  1  0
 13  9  1  0
 13 14  1  0
 15 14  1  0
 16 15  1  0
 17 16  1  0
 17 13  1  0
 17 18  1  6
 18 19  2  0
 20 21  1  0
 22 23  1  0
 22 21  1  0
 24 23  1  6
 24 26  1  0
 24 25  1  0
 25 18  1  0
 26 27  1  0
 28 26  2  0
M  END
$$$$
