YPM.pdb
     RDKit          3D

 28 29  0  0  1  0  0  0  0  0999 V2000
    7.8454  -12.8796   17.3872 O   0  0  0  0  0  0  0  0  0  0  0  0
    7.8591  -13.4087   18.6816 C   0  0  0  0  0  0  0  0  0  0  0  0
    7.1971  -12.7851   19.6901 C   0  0  0  0  0  0  0  0  0  0  0  0
    7.2207  -13.3213   20.9734 C   0  0  0  0  0  0  0  0  0  0  0  0
    7.9027  -14.4835   21.2652 C   0  0  0  0  0  0  0  0  0  0  0  0
    7.9356  -15.0649   22.6138 C   0  0  0  0  0  0  0  0  0  0  0  0
    7.5879  -16.5454   22.6083 C   0  0  2  0  0  0  0  0  0  0  0  0
    6.1836  -16.7890   22.6730 N   0  0  0  0  0  0  0  0  0  0  0  0
    8.4007  -17.3204   23.5749 C   0  0  0  0  0  0  0  0  0  0  0  0
    7.8242  -17.6031   24.6840 O   0  0  0  0  0  0  0  0  0  0  0  0
    8.5669  -15.0959   20.2211 C   0  0  0  0  0  0  0  0  0  0  0  0
    8.5505  -14.5715   18.9398 C   0  0  0  0  0  0  0  0  0  0  0  0
    9.7377  -17.7377   23.3182 N   0  0  0  0  0  0  0  0  0  0  0  0
   10.4107  -17.5725   22.0833 C   0  0  0  0  0  0  0  0  0  0  0  0
   11.7984  -18.1304   22.3137 C   0  0  0  0  0  0  0  0  0  0  0  0
   11.5758  -19.1351   23.4646 C   0  0  0  0  0  0  0  0  0  0  0  0
   10.5802  -18.3653   24.2697 C   0  0  1  0  0  0  0  0  0  0  0  0
   11.2292  -17.4113   25.2087 C   0  0  0  0  0  0  0  0  0  0  0  0
   11.5754  -16.3021   24.7441 O   0  0  0  0  0  0  0  0  0  0  0  0
    9.3754  -12.4584   26.7830 C   0  0  0  0  0  0  0  0  0  0  0  0
    8.6699  -13.5604   28.0356 S   0  0  0  0  0  0  0  0  0  0  0  0
    9.8076  -14.8719   28.4792 C   0  0  0  0  0  0  0  0  0  0  0  0
   10.1331  -15.8652   27.4300 C   0  0  0  0  0  0  0  0  0  0  0  0
   11.3335  -16.6911   27.6516 C   0  0  2  0  0  0  0  0  0  0  0  0
   11.4674  -17.6889   26.5634 N   0  0  0  0  0  0  0  0  0  0  0  0
   11.5636  -17.3213   28.9397 C   0  0  0  0  0  0  0  0  0  0  0  0
   11.1131  -18.6457   29.1374 O   0  0  0  0  0  0  0  0  0  0  0  0
   12.1244  -16.8123   29.9050 O   0  0  0  0  0  0  0  0  0  0  0  0
  2  1  1  0
  3  2  2  0
  4  3  1  0
  5 11  1  0
  5  4  2  0
  6  7  1  0
  6  5  1  0
  7  8  1  1
  7  9  1  0
  9 10  2  0
 11 12  2  0
 12  2  1  0
 13  9  1  0
 13 14  1  0
 15 14  1  0
 16 15  1  0
 17 16  1  0
 17 13  1  0
 17 18  1  6
 18 19  2  0
 20 21  1  0
 22 23  1  0
 22 21  1  0
 24 23  1  1
 24 26  1  0
 24 25  1  0
 25 18  1  0
 26 27  1  0
 28 26  2  0
M  END
$$$$
