YPM.pdb
     RDKit          3D

 28 29  0  0  1  0  0  0  0  0999 V2000
    7.1712  -21.0948   25.0434 O   0  0  0  0  0  0  0  0  0  0  0  0
    7.0283  -20.4405   23.8158 C   0  0  0  0  0  0  0  0  0  0  0  0
    7.3582  -21.0664   22.6566 C   0  0  0  0  0  0  0  0  0  0  0  0
    7.2131  -20.4031   21.4426 C   0  0  0  0  0  0  0  0  0  0  0  0
    6.7378  -19.1109   21.3705 C   0  0  0  0  0  0  0  0  0  0  0  0
    6.5755  -18.3968   20.0970 C   0  0  0  0  0  0  0  0  0  0  0  0
    7.9119  -18.0698   19.4489 C   0  0  2  0  0  0  0  0  0  0  0  0
    8.6833  -19.2309   19.1447 N   0  0  0  0  0  0  0  0  0  0  0  0
    8.6457  -17.0054   20.1728 C   0  0  0  0  0  0  0  0  0  0  0  0
    9.7835  -17.3450   20.6550 O   0  0  0  0  0  0  0  0  0  0  0  0
    6.4106  -18.4990   22.5642 C   0  0  0  0  0  0  0  0  0  0  0  0
    6.5508  -19.1492   23.7785 C   0  0  0  0  0  0  0  0  0  0  0  0
    8.1458  -15.6827   20.3396 N   0  0  0  0  0  0  0  0  0  0  0  0
    6.9512  -15.1931   19.7581 C   0  0  0  0  0  0  0  0  0  0  0  0
    6.8286  -13.7678   20.2516 C   0  0  0  0  0  0  0  0  0  0  0  0
    8.2931  -13.3836   20.5530 C   0  0  0  0  0  0  0  0  0  0  0  0
    8.7721  -14.6797   21.1213 C   0  0  1  0  0  0  0  0  0  0  0  0
    8.4882  -14.7977   22.5768 C   0  0  0  0  0  0  0  0  0  0  0  0
    7.3561  -15.2192   22.9035 O   0  0  0  0  0  0  0  0  0  0  0  0
    5.8063  -11.0705   28.1490 C   0  0  0  0  0  0  0  0  0  0  0  0
    6.2688  -11.4690   26.4436 S   0  0  0  0  0  0  0  0  0  0  0  0
    7.5177  -12.7524   26.3796 C   0  0  0  0  0  0  0  0  0  0  0  0
    8.1006  -13.0599   25.0533 C   0  0  0  0  0  0  0  0  0  0  0  0
    9.0396  -14.1943   24.9912 C   0  0  2  0  0  0  0  0  0  0  0  0
    9.4098  -14.4661   23.5816 N   0  0  0  0  0  0  0  0  0  0  0  0
    8.7357  -15.4375   25.6776 C   0  0  0  0  0  0  0  0  0  0  0  0
    9.2065  -15.6167   26.9975 O   0  0  0  0  0  0  0  0  0  0  0  0
    8.0941  -16.3785   25.2212 O   0  0  0  0  0  0  0  0  0  0  0  0
  2  1  1  0
  3  2  2  0
  4  3  1  0
  5 11  1  0
  5  4  2  0
  6  7  1  0
  6  5  1  0
  7  8  1  1
  7  9  1  0
  9 10  2  0
 11 12  2  0
 12  2  1  0
 13  9  1  0
 13 14  1  0
 15 14  1  0
 16 15  1  0
 17 16  1  0
 17 13  1  0
 17 18  1  1
 18 19  2  0
 20 21  1  0
 22 23  1  0
 22 21  1  0
 24 23  1  6
 24 26  1  0
 24 25  1  0
 25 18  1  0
 26 27  1  0
 28 26  2  0
M  END
$$$$
