YPM.pdb
     RDKit          3D

 28 29  0  0  1  0  0  0  0  0999 V2000
    8.4678  -13.3769   16.2735 O   0  0  0  0  0  0  0  0  0  0  0  0
    8.4195  -13.7346   17.6245 C   0  0  0  0  0  0  0  0  0  0  0  0
    7.7747  -12.9485   18.5248 C   0  0  0  0  0  0  0  0  0  0  0  0
    7.7361  -13.3151   19.8661 C   0  0  0  0  0  0  0  0  0  0  0  0
    8.3382  -14.4678   20.3241 C   0  0  0  0  0  0  0  0  0  0  0  0
    8.3045  -14.8715   21.7361 C   0  0  0  0  0  0  0  0  0  0  0  0
    7.0794  -15.7110   22.0632 C   0  0  2  0  0  0  0  0  0  0  0  0
    5.8521  -15.0252   21.8203 N   0  0  0  0  0  0  0  0  0  0  0  0
    7.1783  -16.3618   23.3908 C   0  0  0  0  0  0  0  0  0  0  0  0
    6.8737  -15.6250   24.3942 O   0  0  0  0  0  0  0  0  0  0  0  0
    8.9867  -15.2476   19.3871 C   0  0  0  0  0  0  0  0  0  0  0  0
    9.0317  -14.8928   18.0495 C   0  0  0  0  0  0  0  0  0  0  0  0
    7.5829  -17.7148   23.5726 N   0  0  0  0  0  0  0  0  0  0  0  0
    7.7281  -18.6601   22.5284 C   0  0  0  0  0  0  0  0  0  0  0  0
    8.2071  -19.9252   23.2066 C   0  0  0  0  0  0  0  0  0  0  0  0
    7.6787  -19.7611   24.6479 C   0  0  0  0  0  0  0  0  0  0  0  0
    7.9066  -18.2952   24.8246 C   0  0  1  0  0  0  0  0  0  0  0  0
    9.2890  -17.9893   25.2812 C   0  0  0  0  0  0  0  0  0  0  0  0
   10.1248  -17.6847   24.4009 O   0  0  0  0  0  0  0  0  0  0  0  0
    9.3987  -12.9410   29.5866 C   0  0  0  0  0  0  0  0  0  0  0  0
   10.3955  -13.6221   28.2362 S   0  0  0  0  0  0  0  0  0  0  0  0
   10.3098  -15.4113   28.1880 C   0  0  0  0  0  0  0  0  0  0  0  0
   11.0678  -16.0937   27.1141 C   0  0  0  0  0  0  0  0  0  0  0  0
   11.0193  -17.5667   27.1046 C   0  0  2  0  0  0  0  0  0  0  0  0
    9.6937  -18.0249   26.6243 N   0  0  0  0  0  0  0  0  0  0  0  0
   11.4140  -18.3220   28.2806 C   0  0  0  0  0  0  0  0  0  0  0  0
   12.7780  -18.3419   28.6482 O   0  0  0  0  0  0  0  0  0  0  0  0
   10.6679  -18.9647   29.0125 O   0  0  0  0  0  0  0  0  0  0  0  0
  2  1  1  0
  3  2  2  0
  4  3  1  0
  5 11  1  0
  5  4  2  0
  6  7  1  0
  6  5  1  0
  7  8  1  1
  7  9  1  0
  9 10  2  0
 11 12  2  0
 12  2  1  0
 13  9  1  0
 13 14  1  0
 15 14  1  0
 16 15  1  0
 17 16  1  0
 17 13  1  0
 17 18  1  6
 18 19  2  0
 20 21  1  0
 22 23  1  0
 22 21  1  0
 24 23  1  1
 24 26  1  0
 24 25  1  0
 25 18  1  0
 26 27  1  0
 28 26  2  0
M  END
$$$$
