YPM.pdb
     RDKit          3D

 28 29  0  0  1  0  0  0  0  0999 V2000
    8.0611  -19.7937   27.7168 O   0  0  0  0  0  0  0  0  0  0  0  0
    7.4382  -19.5891   26.4816 C   0  0  0  0  0  0  0  0  0  0  0  0
    6.9063  -18.3795   26.1678 C   0  0  0  0  0  0  0  0  0  0  0  0
    6.2876  -18.1903   24.9364 C   0  0  0  0  0  0  0  0  0  0  0  0
    6.1929  -19.2028   24.0053 C   0  0  0  0  0  0  0  0  0  0  0  0
    5.5458  -19.0194   22.6993 C   0  0  0  0  0  0  0  0  0  0  0  0
    6.5334  -19.1366   21.5488 C   0  0  2  0  0  0  0  0  0  0  0  0
    7.0282  -20.4630   21.3711 N   0  0  0  0  0  0  0  0  0  0  0  0
    7.5742  -18.0826   21.5878 C   0  0  0  0  0  0  0  0  0  0  0  0
    8.7831  -18.4991   21.6743 O   0  0  0  0  0  0  0  0  0  0  0  0
    6.7419  -20.4216   24.3510 C   0  0  0  0  0  0  0  0  0  0  0  0
    7.3600  -20.6217   25.5736 C   0  0  0  0  0  0  0  0  0  0  0  0
    7.2822  -16.6900   21.5353 N   0  0  0  0  0  0  0  0  0  0  0  0
    6.0462  -16.1407   21.1162 C   0  0  0  0  0  0  0  0  0  0  0  0
    6.2081  -14.6440   21.2705 C   0  0  0  0  0  0  0  0  0  0  0  0
    7.7359  -14.4526   21.1596 C   0  0  0  0  0  0  0  0  0  0  0  0
    8.1874  -15.6647   21.9074 C   0  0  1  0  0  0  0  0  0  0  0  0
    8.2503  -15.4321   23.3754 C   0  0  0  0  0  0  0  0  0  0  0  0
    7.2827  -15.8374   24.0578 O   0  0  0  0  0  0  0  0  0  0  0  0
    6.3462  -10.8177   27.8921 C   0  0  0  0  0  0  0  0  0  0  0  0
    6.4251  -12.5639   27.4172 S   0  0  0  0  0  0  0  0  0  0  0  0
    8.0065  -12.9793   26.6838 C   0  0  0  0  0  0  0  0  0  0  0  0
    8.1356  -14.3242   26.0774 C   0  0  0  0  0  0  0  0  0  0  0  0
    9.4451  -14.6617   25.4911 C   0  0  2  0  0  0  0  0  0  0  0  0
    9.3205  -14.7929   24.0197 N   0  0  0  0  0  0  0  0  0  0  0  0
   10.2281  -15.7612   26.0272 C   0  0  0  0  0  0  0  0  0  0  0  0
   11.2855  -15.4703   26.9179 O   0  0  0  0  0  0  0  0  0  0  0  0
   10.0657  -16.9525   25.7828 O   0  0  0  0  0  0  0  0  0  0  0  0
  2  1  1  0
  3  2  2  0
  4  3  1  0
  5 11  1  0
  5  4  2  0
  6  7  1  0
  6  5  1  0
  7  8  1  1
  7  9  1  0
  9 10  2  0
 11 12  2  0
 12  2  1  0
 13  9  1  0
 13 14  1  0
 15 14  1  0
 16 15  1  0
 17 16  1  0
 17 13  1  0
 17 18  1  1
 18 19  2  0
 20 21  1  0
 22 23  1  0
 22 21  1  0
 24 23  1  1
 24 26  1  0
 24 25  1  0
 25 18  1  0
 26 27  1  0
 28 26  2  0
M  END
$$$$
