YPM.pdb
     RDKit          3D

 28 29  0  0  1  0  0  0  0  0999 V2000
    0.0340  -20.2835   20.5444 O   0  0  0  0  0  0  0  0  0  0  0  0
    1.2370  -19.6829   20.9288 C   0  0  0  0  0  0  0  0  0  0  0  0
    1.8133  -18.7304   20.1512 C   0  0  0  0  0  0  0  0  0  0  0  0
    3.0111  -18.1426   20.5445 C   0  0  0  0  0  0  0  0  0  0  0  0
    3.6465  -18.4968   21.7157 C   0  0  0  0  0  0  0  0  0  0  0  0
    4.9100  -17.8843   22.1476 C   0  0  0  0  0  0  0  0  0  0  0  0
    6.0088  -18.0435   21.1083 C   0  0  2  0  0  0  0  0  0  0  0  0
    6.2190  -19.4009   20.7221 N   0  0  0  0  0  0  0  0  0  0  0  0
    7.2387  -17.2995   21.4677 C   0  0  0  0  0  0  0  0  0  0  0  0
    8.2346  -18.0178   21.8348 O   0  0  0  0  0  0  0  0  0  0  0  0
    3.0384  -19.4678   22.4864 C   0  0  0  0  0  0  0  0  0  0  0  0
    1.8463  -20.0598   22.1051 C   0  0  0  0  0  0  0  0  0  0  0  0
    7.3388  -15.8800   21.4198 N   0  0  0  0  0  0  0  0  0  0  0  0
    6.3005  -15.0124   21.0024 C   0  0  0  0  0  0  0  0  0  0  0  0
    6.8654  -13.6175   21.1615 C   0  0  0  0  0  0  0  0  0  0  0  0
    8.3875  -13.8509   21.0511 C   0  0  0  0  0  0  0  0  0  0  0  0
    8.4896  -15.1425   21.7951 C   0  0  1  0  0  0  0  0  0  0  0  0
    8.6124  -14.9405   23.2637 C   0  0  0  0  0  0  0  0  0  0  0  0
    8.1526  -13.8750   23.7321 O   0  0  0  0  0  0  0  0  0  0  0  0
   10.2804  -13.9747   30.1835 C   0  0  0  0  0  0  0  0  0  0  0  0
   10.8100  -13.8119   28.4589 S   0  0  0  0  0  0  0  0  0  0  0  0
    9.6066  -14.5086   27.3288 C   0  0  0  0  0  0  0  0  0  0  0  0
    9.8572  -14.3257   25.8806 C   0  0  0  0  0  0  0  0  0  0  0  0
   10.2560  -15.5250   25.1224 C   0  0  2  0  0  0  0  0  0  0  0  0
    9.2070  -15.8682   24.1326 N   0  0  0  0  0  0  0  0  0  0  0  0
   10.6977  -16.7206   25.8186 C   0  0  0  0  0  0  0  0  0  0  0  0
   11.9439  -16.6973   26.4837 O   0  0  0  0  0  0  0  0  0  0  0  0
   10.0867  -17.7819   25.8942 O   0  0  0  0  0  0  0  0  0  0  0  0
  2  1  1  0
  3  2  2  0
  4  3  1  0
  5 11  1  0
  5  4  2  0
  6  7  1  0
  6  5  1  0
  7  8  1  1
  7  9  1  0
  9 10  2  0
 11 12  2  0
 12  2  1  0
 13  9  1  0
 13 14  1  0
 15 14  1  0
 16 15  1  0
 17 16  1  0
 17 13  1  0
 17 18  1  1
 18 19  2  0
 20 21  1  0
 22 23  1  0
 22 21  1  0
 24 23  1  1
 24 26  1  0
 24 25  1  0
 25 18  1  0
 26 27  1  0
 28 26  2  0
M  END
$$$$
