YPM.pdb
     RDKit          3D

 28 29  0  0  1  0  0  0  0  0999 V2000
    0.2873  -20.5206   20.3130 O   0  0  0  0  0  0  0  0  0  0  0  0
    1.4436  -19.8423   20.7108 C   0  0  0  0  0  0  0  0  0  0  0  0
    2.0824  -20.1807   21.8605 C   0  0  0  0  0  0  0  0  0  0  0  0
    3.2305  -19.4962   22.2454 C   0  0  0  0  0  0  0  0  0  0  0  0
    3.7544  -18.4689   21.4896 C   0  0  0  0  0  0  0  0  0  0  0  0
    4.9673  -17.7377   21.8796 C   0  0  0  0  0  0  0  0  0  0  0  0
    6.1189  -17.9832   20.9172 C   0  0  2  0  0  0  0  0  0  0  0  0
    6.3851  -19.3691   20.7076 N   0  0  0  0  0  0  0  0  0  0  0  0
    7.3090  -17.1610   21.2385 C   0  0  0  0  0  0  0  0  0  0  0  0
    8.3298  -17.8060   21.6678 O   0  0  0  0  0  0  0  0  0  0  0  0
    3.0845  -18.1460   20.3262 C   0  0  0  0  0  0  0  0  0  0  0  0
    1.9409  -18.8202   19.9330 C   0  0  0  0  0  0  0  0  0  0  0  0
    7.3469  -15.7452   21.0916 N   0  0  0  0  0  0  0  0  0  0  0  0
    6.2664  -14.9531   20.6334 C   0  0  0  0  0  0  0  0  0  0  0  0
    6.7726  -13.5280   20.6869 C   0  0  0  0  0  0  0  0  0  0  0  0
    8.3016  -13.7041   20.5670 C   0  0  0  0  0  0  0  0  0  0  0  0
    8.4699  -14.9356   21.3959 C   0  0  1  0  0  0  0  0  0  0  0  0
    8.6044  -14.6274   22.8450 C   0  0  0  0  0  0  0  0  0  0  0  0
    7.8193  -13.7773   23.3213 O   0  0  0  0  0  0  0  0  0  0  0  0
    6.9594  -10.6829   27.0861 C   0  0  0  0  0  0  0  0  0  0  0  0
    6.9757  -12.4923   27.0019 S   0  0  0  0  0  0  0  0  0  0  0  0
    8.1735  -13.0883   25.8099 C   0  0  0  0  0  0  0  0  0  0  0  0
    8.2691  -14.5547   25.6261 C   0  0  0  0  0  0  0  0  0  0  0  0
    9.5659  -15.0794   25.1621 C   0  0  2  0  0  0  0  0  0  0  0  0
    9.5501  -15.2316   23.6874 N   0  0  0  0  0  0  0  0  0  0  0  0
   10.1446  -16.2590   25.7808 C   0  0  0  0  0  0  0  0  0  0  0  0
   10.0790  -17.4894   25.0895 O   0  0  0  0  0  0  0  0  0  0  0  0
   10.7018  -16.3042   26.8730 O   0  0  0  0  0  0  0  0  0  0  0  0
  2  1  1  0
  3  2  2  0
  4  3  1  0
  5 11  1  0
  5  4  2  0
  6  7  1  0
  6  5  1  0
  7  8  1  1
  7  9  1  0
  9 10  2  0
 11 12  2  0
 12  2  1  0
 13  9  1  0
 13 14  1  0
 15 14  1  0
 16 15  1  0
 17 16  1  0
 17 13  1  0
 17 18  1  1
 18 19  2  0
 20 21  1  0
 22 23  1  0
 22 21  1  0
 24 23  1  1
 24 26  1  0
 24 25  1  0
 25 18  1  0
 26 27  1  0
 28 26  2  0
M  END
$$$$
