YPM.pdb
     RDKit          3D

 28 29  0  0  1  0  0  0  0  0999 V2000
   13.6778  -18.2344   14.2228 O   0  0  0  0  0  0  0  0  0  0  0  0
   12.9526  -17.8748   15.3631 C   0  0  0  0  0  0  0  0  0  0  0  0
   13.4139  -16.9095   16.1996 C   0  0  0  0  0  0  0  0  0  0  0  0
   12.6835  -16.5631   17.3315 C   0  0  0  0  0  0  0  0  0  0  0  0
   11.4868  -17.1736   17.6417 C   0  0  0  0  0  0  0  0  0  0  0  0
   10.7014  -16.8180   18.8310 C   0  0  0  0  0  0  0  0  0  0  0  0
    9.2095  -16.7702   18.5395 C   0  0  2  0  0  0  0  0  0  0  0  0
    8.8755  -15.8666   17.4870 N   0  0  0  0  0  0  0  0  0  0  0  0
    8.3977  -16.6220   19.7701 C   0  0  0  0  0  0  0  0  0  0  0  0
    7.9872  -15.4350   20.0247 O   0  0  0  0  0  0  0  0  0  0  0  0
   11.0421  -18.1514   16.7741 C   0  0  0  0  0  0  0  0  0  0  0  0
   11.7605  -18.5046   15.6445 C   0  0  0  0  0  0  0  0  0  0  0  0
    8.0782  -17.7076   20.6342 N   0  0  0  0  0  0  0  0  0  0  0  0
    8.5756  -19.0256   20.4906 C   0  0  0  0  0  0  0  0  0  0  0  0
    7.9906  -19.7961   21.6542 C   0  0  0  0  0  0  0  0  0  0  0  0
    6.7117  -18.9970   21.9844 C   0  0  0  0  0  0  0  0  0  0  0  0
    7.2269  -17.6121   21.7635 C   0  0  1  0  0  0  0  0  0  0  0  0
    7.9004  -17.0606   22.9698 C   0  0  0  0  0  0  0  0  0  0  0  0
    9.1475  -17.1524   23.0173 O   0  0  0  0  0  0  0  0  0  0  0  0
    6.8790  -10.7635   26.3141 C   0  0  0  0  0  0  0  0  0  0  0  0
    6.3030  -12.3131   27.0544 S   0  0  0  0  0  0  0  0  0  0  0  0
    7.3678  -13.6882   26.6229 C   0  0  0  0  0  0  0  0  0  0  0  0
    6.8937  -14.5984   25.5551 C   0  0  0  0  0  0  0  0  0  0  0  0
    7.8653  -15.5832   25.0467 C   0  0  2  0  0  0  0  0  0  0  0  0
    7.2190  -16.4543   24.0361 N   0  0  0  0  0  0  0  0  0  0  0  0
    8.6501  -16.3843   25.9695 C   0  0  0  0  0  0  0  0  0  0  0  0
    9.8720  -15.8633   26.4507 O   0  0  0  0  0  0  0  0  0  0  0  0
    8.3578  -17.4993   26.3898 O   0  0  0  0  0  0  0  0  0  0  0  0
  2  1  1  0
  3  2  2  0
  4  3  1  0
  5 11  1  0
  5  4  2  0
  6  7  1  0
  6  5  1  0
  7  8  1  6
  7  9  1  0
  9 10  2  0
 11 12  2  0
 12  2  1  0
 13  9  1  0
 13 14  1  0
 15 14  1  0
 16 15  1  0
 17 16  1  0
 17 13  1  0
 17 18  1  1
 18 19  2  0
 20 21  1  0
 22 23  1  0
 22 21  1  0
 24 23  1  1
 24 26  1  0
 24 25  1  0
 25 18  1  0
 26 27  1  0
 28 26  2  0
M  END
$$$$
