YPM.pdb
     RDKit          3D

 28 29  0  0  1  0  0  0  0  0999 V2000
   11.7827  -24.3036   18.8418 O   0  0  0  0  0  0  0  0  0  0  0  0
   11.1895  -23.0923   19.2108 C   0  0  0  0  0  0  0  0  0  0  0  0
   11.2553  -22.0123   18.3901 C   0  0  0  0  0  0  0  0  0  0  0  0
   10.6626  -20.8127   18.7705 C   0  0  0  0  0  0  0  0  0  0  0  0
    9.9982  -20.6766   19.9709 C   0  0  0  0  0  0  0  0  0  0  0  0
    9.3643  -19.4184   20.3869 C   0  0  0  0  0  0  0  0  0  0  0  0
    9.7875  -18.2474   19.5137 C   0  0  2  0  0  0  0  0  0  0  0  0
   11.0123  -18.4822   18.8206 N   0  0  0  0  0  0  0  0  0  0  0  0
    9.7147  -16.9526   20.2306 C   0  0  0  0  0  0  0  0  0  0  0  0
   10.8408  -16.4330   20.5538 O   0  0  0  0  0  0  0  0  0  0  0  0
    9.9472  -21.7904   20.7855 C   0  0  0  0  0  0  0  0  0  0  0  0
   10.5334  -22.9895   20.4174 C   0  0  0  0  0  0  0  0  0  0  0  0
    8.4896  -16.3035   20.5546 N   0  0  0  0  0  0  0  0  0  0  0  0
    7.2054  -16.7794   20.1949 C   0  0  0  0  0  0  0  0  0  0  0  0
    6.2352  -15.7819   20.7896 C   0  0  0  0  0  0  0  0  0  0  0  0
    7.0839  -14.4960   20.8865 C   0  0  0  0  0  0  0  0  0  0  0  0
    8.3901  -15.0972   21.2923 C   0  0  1  0  0  0  0  0  0  0  0  0
    8.4899  -15.2912   22.7638 C   0  0  0  0  0  0  0  0  0  0  0  0
    8.8720  -16.4132   23.1653 O   0  0  0  0  0  0  0  0  0  0  0  0
    6.4069  -10.7624   27.1216 C   0  0  0  0  0  0  0  0  0  0  0  0
    7.2572  -11.9074   28.2384 S   0  0  0  0  0  0  0  0  0  0  0  0
    7.9453  -13.3057   27.3539 C   0  0  0  0  0  0  0  0  0  0  0  0
    7.8617  -13.2753   25.8756 C   0  0  0  0  0  0  0  0  0  0  0  0
    8.4641  -14.4119   25.1563 C   0  0  2  0  0  0  0  0  0  0  0  0
    8.1825  -14.2971   23.7053 N   0  0  0  0  0  0  0  0  0  0  0  0
    8.2292  -15.7729   25.6056 C   0  0  0  0  0  0  0  0  0  0  0  0
    9.3061  -16.4997   26.1606 O   0  0  0  0  0  0  0  0  0  0  0  0
    7.1635  -16.3788   25.5539 O   0  0  0  0  0  0  0  0  0  0  0  0
  2  1  1  0
  3  2  2  0
  4  3  1  0
  5 11  1  0
  5  4  2  0
  6  7  1  0
  6  5  1  0
  7  8  1  1
  7  9  1  0
  9 10  2  0
 11 12  2  0
 12  2  1  0
 13  9  1  0
 13 14  1  0
 15 14  1  0
 16 15  1  0
 17 16  1  0
 17 13  1  0
 17 18  1  1
 18 19  2  0
 20 21  1  0
 22 23  1  0
 22 21  1  0
 24 23  1  1
 24 26  1  0
 24 25  1  0
 25 18  1  0
 26 27  1  0
 28 26  2  0
M  END
$$$$
