YPM.pdb
     RDKit          3D

 28 29  0  0  1  0  0  0  0  0999 V2000
    0.2725  -20.7437   20.2395 O   0  0  0  0  0  0  0  0  0  0  0  0
    1.4145  -20.0016   20.5569 C   0  0  0  0  0  0  0  0  0  0  0  0
    1.8687  -19.0381   19.7144 C   0  0  0  0  0  0  0  0  0  0  0  0
    3.0071  -18.3088   20.0415 C   0  0  0  0  0  0  0  0  0  0  0  0
    3.7041  -18.5309   21.2103 C   0  0  0  0  0  0  0  0  0  0  0  0
    4.9061  -17.7681   21.5725 C   0  0  0  0  0  0  0  0  0  0  0  0
    6.0035  -17.8973   20.5277 C   0  0  2  0  0  0  0  0  0  0  0  0
    6.2633  -19.2501   20.1559 N   0  0  0  0  0  0  0  0  0  0  0  0
    7.2062  -17.1025   20.8700 C   0  0  0  0  0  0  0  0  0  0  0  0
    8.2589  -17.7793   21.1458 O   0  0  0  0  0  0  0  0  0  0  0  0
    3.2200  -19.5163   22.0476 C   0  0  0  0  0  0  0  0  0  0  0  0
    2.0880  -20.2486   21.7325 C   0  0  0  0  0  0  0  0  0  0  0  0
    7.2229  -15.6790   20.9002 N   0  0  0  0  0  0  0  0  0  0  0  0
    6.1842  -14.8501   20.4115 C   0  0  0  0  0  0  0  0  0  0  0  0
    6.6413  -13.4362   20.6977 C   0  0  0  0  0  0  0  0  0  0  0  0
    8.1778  -13.5773   20.7461 C   0  0  0  0  0  0  0  0  0  0  0  0
    8.2787  -14.8991   21.4352 C   0  0  1  0  0  0  0  0  0  0  0  0
    8.2294  -14.7694   22.9163 C   0  0  0  0  0  0  0  0  0  0  0  0
    7.0989  -14.7936   23.4525 O   0  0  0  0  0  0  0  0  0  0  0  0
    6.8331  -10.5454   27.0357 C   0  0  0  0  0  0  0  0  0  0  0  0
    7.6360  -12.1597   27.2100 S   0  0  0  0  0  0  0  0  0  0  0  0
    7.5847  -13.0926   25.6809 C   0  0  0  0  0  0  0  0  0  0  0  0
    8.0268  -14.5049   25.7380 C   0  0  0  0  0  0  0  0  0  0  0  0
    9.3658  -14.8006   25.1978 C   0  0  2  0  0  0  0  0  0  0  0  0
    9.3663  -14.6241   23.7258 N   0  0  0  0  0  0  0  0  0  0  0  0
   10.0457  -16.0334   25.5543 C   0  0  0  0  0  0  0  0  0  0  0  0
   10.5642  -16.1689   26.8615 O   0  0  0  0  0  0  0  0  0  0  0  0
   10.2240  -17.0003   24.8204 O   0  0  0  0  0  0  0  0  0  0  0  0
  2  1  1  0
  3  2  2  0
  4  3  1  0
  5 11  1  0
  5  4  2  0
  6  7  1  0
  6  5  1  0
  7  8  1  1
  7  9  1  0
  9 10  2  0
 11 12  2  0
 12  2  1  0
 13  9  1  0
 13 14  1  0
 15 14  1  0
 16 15  1  0
 17 16  1  0
 17 13  1  0
 17 18  1  1
 18 19  2  0
 20 21  1  0
 22 23  1  0
 22 21  1  0
 24 23  1  6
 24 26  1  0
 24 25  1  0
 25 18  1  0
 26 27  1  0
 28 26  2  0
M  END
$$$$
