YPM.pdb
     RDKit          3D

 28 29  0  0  1  0  0  0  0  0999 V2000
   10.0964  -23.5174   17.0773 O   0  0  0  0  0  0  0  0  0  0  0  0
   10.1706  -22.4355   17.9602 C   0  0  0  0  0  0  0  0  0  0  0  0
   11.3382  -22.1307   18.5831 C   0  0  0  0  0  0  0  0  0  0  0  0
   11.3975  -21.0530   19.4605 C   0  0  0  0  0  0  0  0  0  0  0  0
   10.2955  -20.2679   19.7260 C   0  0  0  0  0  0  0  0  0  0  0  0
   10.3412  -19.1247   20.6473 C   0  0  0  0  0  0  0  0  0  0  0  0
   10.3979  -17.7960   19.9095 C   0  0  2  0  0  0  0  0  0  0  0  0
   11.5854  -17.6384   19.1345 N   0  0  0  0  0  0  0  0  0  0  0  0
   10.0685  -16.6481   20.7867 C   0  0  0  0  0  0  0  0  0  0  0  0
   11.0709  -15.9959   21.2473 O   0  0  0  0  0  0  0  0  0  0  0  0
    9.1220  -20.6009   19.0792 C   0  0  0  0  0  0  0  0  0  0  0  0
    9.0510  -21.6713   18.2039 C   0  0  0  0  0  0  0  0  0  0  0  0
    8.7359  -16.2697   21.1157 N   0  0  0  0  0  0  0  0  0  0  0  0
    7.5714  -16.8713   20.5798 C   0  0  0  0  0  0  0  0  0  0  0  0
    6.4165  -16.1626   21.2535 C   0  0  0  0  0  0  0  0  0  0  0  0
    7.0282  -14.7965   21.6318 C   0  0  0  0  0  0  0  0  0  0  0  0
    8.3950  -15.2456   22.0345 C   0  0  1  0  0  0  0  0  0  0  0  0
    8.4509  -15.6807   23.4560 C   0  0  0  0  0  0  0  0  0  0  0  0
    8.6656  -16.8945   23.6717 O   0  0  0  0  0  0  0  0  0  0  0  0
    5.8463  -10.5188   26.5802 C   0  0  0  0  0  0  0  0  0  0  0  0
    6.8962  -11.7417   27.4067 S   0  0  0  0  0  0  0  0  0  0  0  0
    7.7189  -12.8118   26.2281 C   0  0  0  0  0  0  0  0  0  0  0  0
    8.5384  -13.9160   26.7780 C   0  0  0  0  0  0  0  0  0  0  0  0
    9.0415  -14.9097   25.8127 C   0  0  2  0  0  0  0  0  0  0  0  0
    8.2781  -14.8134   24.5455 N   0  0  0  0  0  0  0  0  0  0  0  0
    9.1920  -16.3007   26.2020 C   0  0  0  0  0  0  0  0  0  0  0  0
    8.1052  -17.1819   26.0057 O   0  0  0  0  0  0  0  0  0  0  0  0
   10.1920  -16.8096   26.6985 O   0  0  0  0  0  0  0  0  0  0  0  0
  2  1  1  0
  3  2  2  0
  4  3  1  0
  5 11  1  0
  5  4  2  0
  6  7  1  0
  6  5  1  0
  7  8  1  1
  7  9  1  0
  9 10  2  0
 11 12  2  0
 12  2  1  0
 13  9  1  0
 13 14  1  0
 15 14  1  0
 16 15  1  0
 17 16  1  0
 17 13  1  0
 17 18  1  1
 18 19  2  0
 20 21  1  0
 22 23  1  0
 22 21  1  0
 24 23  1  1
 24 26  1  0
 24 25  1  0
 25 18  1  0
 26 27  1  0
 28 26  2  0
M  END
$$$$
