TEF.pdb
     RDKit          3D

 28 28  0  0  1  0  0  0  0  0999 V2000
   12.7420  -12.9928  -14.1446 C   0  0  0  0  0  0  0  0  0  0  0  0
   14.1376  -12.6312  -14.5684 C   0  0  1  0  0  0  0  0  0  0  0  0
   14.1787  -12.4710  -15.9494 O   0  0  0  0  0  0  0  0  0  0  0  0
   14.4944  -11.2925  -13.9476 C   0  0  2  0  0  0  0  0  0  0  0  0
   13.6243  -10.2459  -14.3998 N   0  0  0  0  0  0  0  0  0  0  0  0
   15.9340  -10.9576  -14.1980 C   0  0  0  0  0  0  0  0  0  0  0  0
   16.8623  -11.7136  -13.8086 O   0  0  0  0  0  0  0  0  0  0  0  0
   16.3120   -9.7732  -14.8853 N   0  0  0  0  0  0  0  0  0  0  0  0
   17.7161   -9.5148  -15.1852 C   0  0  1  0  0  0  0  0  0  0  0  0
   17.9488   -9.2417  -16.6295 C   0  0  0  0  0  0  0  0  0  0  0  0
   17.6071  -10.3972  -17.5267 C   0  0  0  0  0  0  0  0  0  0  0  0
   17.7931  -10.1329  -18.9611 C   0  0  0  0  0  0  0  0  0  0  0  0
   18.7983  -10.4578  -19.6314 O   0  0  0  0  0  0  0  0  0  0  0  0
   18.1484   -8.2734  -14.4435 C   0  0  0  0  0  0  0  0  0  0  0  0
   17.3370   -7.3458  -14.2606 O   0  0  0  0  0  0  0  0  0  0  0  0
   16.7895   -9.4676  -19.6697 O   0  0  0  0  0  0  0  0  0  0  0  0
   19.4566   -8.1256  -13.9439 N   0  0  0  0  0  0  0  0  0  0  0  0
   19.9543   -6.9404  -13.2597 C   0  0  1  0  0  0  0  0  0  0  0  0
   21.3173   -7.1249  -12.7211 C   0  0  0  0  0  0  0  0  0  0  0  0
   22.3313   -6.9460  -13.7870 C   0  0  0  0  0  0  0  0  0  0  0  0
   22.8385   -8.0675  -14.4398 C   0  0  0  0  0  0  0  0  0  0  0  0
   23.7596   -7.9686  -15.4488 C   0  0  0  0  0  0  0  0  0  0  0  0
   24.2005   -6.7225  -15.8327 C   0  0  0  0  0  0  0  0  0  0  0  0
   23.7090   -5.6078  -15.1979 C   0  0  0  0  0  0  0  0  0  0  0  0
   22.7868   -5.7172  -14.1888 C   0  0  0  0  0  0  0  0  0  0  0  0
   19.8357   -5.8072  -14.1649 C   0  0  0  0  0  0  0  0  0  0  0  0
   19.6843   -4.5026  -13.7395 O   0  0  0  0  0  0  0  0  0  0  0  0
   19.8629   -5.9562  -15.4339 O   0  0  0  0  0  0  0  0  0  0  0  0
  2  4  1  0
  2  1  1  1
  2  3  1  0
  4  5  1  6
  6  4  1  0
  6  8  1  0
  7  6  2  0
  9  8  1  0
  9 10  1  6
 11 10  1  0
 12 11  1  0
 13 12  2  0
 14  9  1  0
 15 14  2  0
 16 12  1  0
 17 14  1  0
 18 17  1  0
 18 26  1  0
 19 20  1  0
 18 19  1  6
 20 25  2  0
 21 22  2  0
 21 20  1  0
 22 23  1  0
 23 24  2  0
 25 24  1  0
 26 27  1  0
 28 26  2  0
M  END
$$$$
