TEF.pdb
     RDKit          3D

 28 28  0  0  1  0  0  0  0  0999 V2000
   15.9026   -5.4971  -10.4556 C   0  0  0  0  0  0  0  0  0  0  0  0
   15.6549   -6.4988   -9.3632 C   0  0  1  0  0  0  0  0  0  0  0  0
   14.5781   -6.0849   -8.5864 O   0  0  0  0  0  0  0  0  0  0  0  0
   15.2682   -7.8197  -10.0040 C   0  0  2  0  0  0  0  0  0  0  0  0
   14.9236   -8.8078   -9.0232 N   0  0  0  0  0  0  0  0  0  0  0  0
   16.3540   -8.3056  -10.9163 C   0  0  0  0  0  0  0  0  0  0  0  0
   17.3870   -8.8681  -10.4678 O   0  0  0  0  0  0  0  0  0  0  0  0
   16.2635   -8.1519  -12.3257 N   0  0  0  0  0  0  0  0  0  0  0  0
   17.3567   -8.5948  -13.1842 C   0  0  1  0  0  0  0  0  0  0  0  0
   16.8778   -9.1097  -14.4958 C   0  0  0  0  0  0  0  0  0  0  0  0
   17.9591   -9.7302  -15.3339 C   0  0  0  0  0  0  0  0  0  0  0  0
   17.4862  -10.3499  -16.5806 C   0  0  0  0  0  0  0  0  0  0  0  0
   16.3495  -10.8420  -16.7571 O   0  0  0  0  0  0  0  0  0  0  0  0
   18.2411   -7.4108  -13.4904 C   0  0  0  0  0  0  0  0  0  0  0  0
   17.7328   -6.2892  -13.6800 O   0  0  0  0  0  0  0  0  0  0  0  0
   18.3449  -10.4144  -17.6808 O   0  0  0  0  0  0  0  0  0  0  0  0
   19.6417   -7.5321  -13.5701 N   0  0  0  0  0  0  0  0  0  0  0  0
   20.5581   -6.4253  -13.8066 C   0  0  1  0  0  0  0  0  0  0  0  0
   21.4894   -6.2076  -12.6808 C   0  0  0  0  0  0  0  0  0  0  0  0
   20.7693   -5.6768  -11.4994 C   0  0  0  0  0  0  0  0  0  0  0  0
   20.3684   -4.3426  -11.4887 C   0  0  0  0  0  0  0  0  0  0  0  0
   19.6794   -3.7973  -10.4379 C   0  0  0  0  0  0  0  0  0  0  0  0
   19.3715   -4.5903   -9.3559 C   0  0  0  0  0  0  0  0  0  0  0  0
   19.7604   -5.9079   -9.3526 C   0  0  0  0  0  0  0  0  0  0  0  0
   20.4499   -6.4445  -10.4096 C   0  0  0  0  0  0  0  0  0  0  0  0
   21.2273   -6.6507  -15.0790 C   0  0  0  0  0  0  0  0  0  0  0  0
   21.9663   -5.6862  -15.7344 O   0  0  0  0  0  0  0  0  0  0  0  0
   21.1672   -7.7777  -15.6785 O   0  0  0  0  0  0  0  0  0  0  0  0
  2  4  1  0
  2  1  1  6
  2  3  1  0
  4  5  1  1
  6  4  1  0
  6  8  1  0
  7  6  2  0
  9  8  1  0
  9 10  1  6
 11 10  1  0
 12 11  1  0
 13 12  2  0
 14  9  1  0
 15 14  2  0
 16 12  1  0
 17 14  1  0
 18 17  1  0
 18 26  1  0
 19 20  1  0
 18 19  1  1
 20 25  2  0
 21 22  2  0
 21 20  1  0
 22 23  1  0
 23 24  2  0
 25 24  1  0
 26 27  1  0
 28 26  2  0
M  END
$$$$
