TEF.pdb
     RDKit          3D

 28 28  0  0  1  0  0  0  0  0999 V2000
   25.6341  -15.0794  -18.0653 C   0  0  0  0  0  0  0  0  0  0  0  0
   26.3191  -16.0635  -18.9712 C   0  0  1  0  0  0  0  0  0  0  0  0
   27.6251  -15.6480  -19.2084 O   0  0  0  0  0  0  0  0  0  0  0  0
   26.3933  -17.4006  -18.2560 C   0  0  2  0  0  0  0  0  0  0  0  0
   27.2011  -18.3446  -18.9724 N   0  0  0  0  0  0  0  0  0  0  0  0
   25.0193  -17.9397  -17.9936 C   0  0  0  0  0  0  0  0  0  0  0  0
   24.3204  -18.4357  -18.9158 O   0  0  0  0  0  0  0  0  0  0  0  0
   24.4475  -17.9139  -16.6934 N   0  0  0  0  0  0  0  0  0  0  0  0
   23.1113  -18.4542  -16.4682 C   0  0  1  0  0  0  0  0  0  0  0  0
   22.9637  -19.0638  -15.1186 C   0  0  0  0  0  0  0  0  0  0  0  0
   21.5884  -19.6026  -14.8449 C   0  0  0  0  0  0  0  0  0  0  0  0
   21.4359  -20.2513  -13.5342 C   0  0  0  0  0  0  0  0  0  0  0  0
   20.3695  -20.7236  -13.0813 O   0  0  0  0  0  0  0  0  0  0  0  0
   22.1148  -17.3226  -16.5341 C   0  0  0  0  0  0  0  0  0  0  0  0
   22.3427  -16.2590  -15.9264 O   0  0  0  0  0  0  0  0  0  0  0  0
   22.5477  -20.3699  -12.6963 O   0  0  0  0  0  0  0  0  0  0  0  0
   20.9189  -17.4292  -17.2697 N   0  0  0  0  0  0  0  0  0  0  0  0
   19.9339  -16.3658  -17.4105 C   0  0  1  0  0  0  0  0  0  0  0  0
   19.9946  -15.7055  -18.7305 C   0  0  0  0  0  0  0  0  0  0  0  0
   19.6878  -16.6692  -19.8137 C   0  0  0  0  0  0  0  0  0  0  0  0
   18.3596  -16.8953  -20.1683 C   0  0  0  0  0  0  0  0  0  0  0  0
   18.0108  -17.7553  -21.1758 C   0  0  0  0  0  0  0  0  0  0  0  0
   19.0021  -18.4191  -21.8622 C   0  0  0  0  0  0  0  0  0  0  0  0
   20.3162  -18.2058  -21.5236 C   0  0  0  0  0  0  0  0  0  0  0  0
   20.6553  -17.3427  -20.5132 C   0  0  0  0  0  0  0  0  0  0  0  0
   18.6231  -16.9129  -17.0943 C   0  0  0  0  0  0  0  0  0  0  0  0
   17.4731  -16.1519  -17.0309 O   0  0  0  0  0  0  0  0  0  0  0  0
   18.4560  -18.1560  -16.8491 O   0  0  0  0  0  0  0  0  0  0  0  0
  2  4  1  0
  2  1  1  1
  2  3  1  0
  4  5  1  6
  6  4  1  0
  6  8  1  0
  7  6  2  0
  9  8  1  0
  9 10  1  1
 11 10  1  0
 12 11  1  0
 13 12  2  0
 14  9  1  0
 15 14  2  0
 16 12  1  0
 17 14  1  0
 18 17  1  0
 18 26  1  0
 19 20  1  0
 18 19  1  6
 20 25  2  0
 21 22  2  0
 21 20  1  0
 22 23  1  0
 23 24  2  0
 25 24  1  0
 26 27  1  0
 28 26  2  0
M  END
$$$$
