TEF.pdb
     RDKit          3D

 28 28  0  0  1  0  0  0  0  0999 V2000
   18.1854  -12.5185  -22.2367 C   0  0  0  0  0  0  0  0  0  0  0  0
   18.2332  -11.7817  -20.9278 C   0  0  1  0  0  0  0  0  0  0  0  0
   19.5577  -11.5690  -20.5606 O   0  0  0  0  0  0  0  0  0  0  0  0
   17.5941  -10.4185  -21.1227 C   0  0  2  0  0  0  0  0  0  0  0  0
   18.1780   -9.7079  -22.2232 N   0  0  0  0  0  0  0  0  0  0  0  0
   17.6543   -9.6177  -19.8568 C   0  0  0  0  0  0  0  0  0  0  0  0
   17.9722   -8.3996  -19.8638 O   0  0  0  0  0  0  0  0  0  0  0  0
   17.3553  -10.1991  -18.5956 N   0  0  0  0  0  0  0  0  0  0  0  0
   17.3192   -9.3707  -17.3953 C   0  0  1  0  0  0  0  0  0  0  0  0
   16.1707   -9.7025  -16.5090 C   0  0  0  0  0  0  0  0  0  0  0  0
   16.0457   -8.7981  -15.3160 C   0  0  0  0  0  0  0  0  0  0  0  0
   14.8448   -9.0267  -14.4990 C   0  0  0  0  0  0  0  0  0  0  0  0
   13.7077   -9.2974  -14.9454 O   0  0  0  0  0  0  0  0  0  0  0  0
   18.5675   -9.6336  -16.5888 C   0  0  0  0  0  0  0  0  0  0  0  0
   18.9762  -10.8012  -16.4408 O   0  0  0  0  0  0  0  0  0  0  0  0
   14.9385   -8.9443  -13.1074 O   0  0  0  0  0  0  0  0  0  0  0  0
   19.2968   -8.5889  -15.9890 N   0  0  0  0  0  0  0  0  0  0  0  0
   20.6277   -8.7295  -15.4149 C   0  0  1  0  0  0  0  0  0  0  0  0
   21.6803   -8.8562  -16.4434 C   0  0  0  0  0  0  0  0  0  0  0  0
   23.0111   -9.0261  -15.8139 C   0  0  0  0  0  0  0  0  0  0  0  0
   23.4057  -10.2918  -15.3860 C   0  0  0  0  0  0  0  0  0  0  0  0
   24.6313  -10.5196  -14.8183 C   0  0  0  0  0  0  0  0  0  0  0  0
   25.5036   -9.4663  -14.6640 C   0  0  0  0  0  0  0  0  0  0  0  0
   25.1281   -8.2125  -15.0814 C   0  0  0  0  0  0  0  0  0  0  0  0
   23.8987   -7.9946  -15.6488 C   0  0  0  0  0  0  0  0  0  0  0  0
   20.8460   -7.6250  -14.4930 C   0  0  0  0  0  0  0  0  0  0  0  0
   20.5132   -6.3157  -14.7774 O   0  0  0  0  0  0  0  0  0  0  0  0
   21.3720   -7.8052  -13.3423 O   0  0  0  0  0  0  0  0  0  0  0  0
  2  4  1  0
  2  1  1  6
  2  3  1  0
  4  5  1  6
  6  4  1  0
  6  8  1  0
  7  6  2  0
  9  8  1  0
  9 10  1  1
 11 10  1  0
 12 11  1  0
 13 12  2  0
 14  9  1  0
 15 14  2  0
 16 12  1  0
 17 14  1  0
 18 17  1  0
 18 26  1  0
 19 20  1  0
 18 19  1  6
 20 25  2  0
 21 22  2  0
 21 20  1  0
 22 23  1  0
 23 24  2  0
 25 24  1  0
 26 27  1  0
 28 26  2  0
M  END
$$$$
