TEF.pdb
     RDKit          3D

 28 28  0  0  1  0  0  0  0  0999 V2000
   28.8988  -21.1450  -13.3899 C   0  0  0  0  0  0  0  0  0  0  0  0
   28.8796  -19.8528  -14.1569 C   0  0  1  0  0  0  0  0  0  0  0  0
   29.5797  -20.0076  -15.3487 O   0  0  0  0  0  0  0  0  0  0  0  0
   27.4402  -19.5316  -14.5170 C   0  0  2  0  0  0  0  0  0  0  0  0
   27.3462  -18.3719  -15.3556 N   0  0  0  0  0  0  0  0  0  0  0  0
   26.6032  -19.3866  -13.2818 C   0  0  0  0  0  0  0  0  0  0  0  0
   26.3514  -18.2566  -12.7871 O   0  0  0  0  0  0  0  0  0  0  0  0
   26.0587  -20.5178  -12.6169 N   0  0  0  0  0  0  0  0  0  0  0  0
   25.1801  -20.3404  -11.4660 C   0  0  1  0  0  0  0  0  0  0  0  0
   23.8543  -20.9888  -11.6566 C   0  0  0  0  0  0  0  0  0  0  0  0
   22.8330  -20.0989  -12.3060 C   0  0  0  0  0  0  0  0  0  0  0  0
   21.5022  -20.7055  -12.4579 C   0  0  0  0  0  0  0  0  0  0  0  0
   20.4848  -20.1176  -12.8877 O   0  0  0  0  0  0  0  0  0  0  0  0
   25.8111  -21.0083  -10.2686 C   0  0  0  0  0  0  0  0  0  0  0  0
   26.6535  -21.9111  -10.4340 O   0  0  0  0  0  0  0  0  0  0  0  0
   21.3166  -22.0445  -12.1051 O   0  0  0  0  0  0  0  0  0  0  0  0
   25.4752  -20.6404   -8.9515 N   0  0  0  0  0  0  0  0  0  0  0  0
   26.3429  -20.8140   -7.7949 C   0  0  1  0  0  0  0  0  0  0  0  0
   27.3315  -19.7251   -7.6570 C   0  0  0  0  0  0  0  0  0  0  0  0
   28.1116  -19.8800   -6.4066 C   0  0  0  0  0  0  0  0  0  0  0  0
   29.1830  -20.7701   -6.3780 C   0  0  0  0  0  0  0  0  0  0  0  0
   29.9576  -20.9420   -5.2614 C   0  0  0  0  0  0  0  0  0  0  0  0
   29.6710  -20.2134   -4.1294 C   0  0  0  0  0  0  0  0  0  0  0  0
   28.6176  -19.3318   -4.1431 C   0  0  0  0  0  0  0  0  0  0  0  0
   27.8479  -19.1667   -5.2661 C   0  0  0  0  0  0  0  0  0  0  0  0
   25.5052  -20.9906   -6.6182 C   0  0  0  0  0  0  0  0  0  0  0  0
   25.9228  -21.6407   -5.4742 O   0  0  0  0  0  0  0  0  0  0  0  0
   24.3074  -20.5471   -6.5744 O   0  0  0  0  0  0  0  0  0  0  0  0
  2  4  1  0
  2  1  1  6
  2  3  1  0
  4  5  1  1
  6  4  1  0
  6  8  1  0
  7  6  2  0
  9  8  1  0
  9 10  1  6
 11 10  1  0
 12 11  1  0
 13 12  2  0
 14  9  1  0
 15 14  2  0
 16 12  1  0
 17 14  1  0
 18 17  1  0
 18 26  1  0
 19 20  1  0
 18 19  1  1
 20 25  2  0
 21 22  2  0
 21 20  1  0
 22 23  1  0
 23 24  2  0
 25 24  1  0
 26 27  1  0
 28 26  2  0
M  END
$$$$
