TEF.pdb
     RDKit          3D

 28 28  0  0  1  0  0  0  0  0999 V2000
   15.5432  -12.6851  -16.4183 C   0  0  0  0  0  0  0  0  0  0  0  0
   16.5608  -11.5977  -16.6197 C   0  0  1  0  0  0  0  0  0  0  0  0
   16.1818  -10.7974  -17.6922 O   0  0  0  0  0  0  0  0  0  0  0  0
   16.5727  -10.7185  -15.3821 C   0  0  2  0  0  0  0  0  0  0  0  0
   15.2967  -10.1059  -15.1506 N   0  0  0  0  0  0  0  0  0  0  0  0
   17.6663   -9.6966  -15.4670 C   0  0  0  0  0  0  0  0  0  0  0  0
   18.8597   -9.9862  -15.1903 O   0  0  0  0  0  0  0  0  0  0  0  0
   17.4024   -8.3581  -15.8631 N   0  0  0  0  0  0  0  0  0  0  0  0
   18.4690   -7.3630  -15.8441 C   0  0  1  0  0  0  0  0  0  0  0  0
   18.1114   -6.1308  -16.5982 C   0  0  0  0  0  0  0  0  0  0  0  0
   19.1772   -5.0725  -16.5688 C   0  0  0  0  0  0  0  0  0  0  0  0
   18.8674   -3.8712  -17.3580 C   0  0  0  0  0  0  0  0  0  0  0  0
   18.2689   -3.8628  -18.4567 O   0  0  0  0  0  0  0  0  0  0  0  0
   18.7042   -6.9337  -14.4165 C   0  0  0  0  0  0  0  0  0  0  0  0
   17.8713   -7.2230  -13.5363 O   0  0  0  0  0  0  0  0  0  0  0  0
   19.2555   -2.6182  -16.8772 O   0  0  0  0  0  0  0  0  0  0  0  0
   19.8498   -6.2067  -14.0397 N   0  0  0  0  0  0  0  0  0  0  0  0
   20.5621   -6.3749  -12.7807 C   0  0  1  0  0  0  0  0  0  0  0  0
   20.7008   -7.7928  -12.3907 C   0  0  0  0  0  0  0  0  0  0  0  0
   21.3047   -7.9095  -11.0424 C   0  0  0  0  0  0  0  0  0  0  0  0
   22.3608   -8.7960  -10.8435 C   0  0  0  0  0  0  0  0  0  0  0  0
   22.9773   -8.9336   -9.6280 C   0  0  0  0  0  0  0  0  0  0  0  0
   22.5419   -8.1729   -8.5668 C   0  0  0  0  0  0  0  0  0  0  0  0
   21.5015   -7.2944   -8.7483 C   0  0  0  0  0  0  0  0  0  0  0  0
   20.8908   -7.1638   -9.9693 C   0  0  0  0  0  0  0  0  0  0  0  0
   21.8327   -5.6721  -12.8777 C   0  0  0  0  0  0  0  0  0  0  0  0
   22.3420   -5.1750  -14.0607 O   0  0  0  0  0  0  0  0  0  0  0  0
   22.5686   -5.4713  -11.8524 O   0  0  0  0  0  0  0  0  0  0  0  0
  2  4  1  0
  2  1  1  1
  2  3  1  0
  4  5  1  6
  6  4  1  0
  6  8  1  0
  7  6  2  0
  9  8  1  0
  9 10  1  6
 11 10  1  0
 12 11  1  0
 13 12  2  0
 14  9  1  0
 15 14  2  0
 16 12  1  0
 17 14  1  0
 18 17  1  0
 18 26  1  0
 19 20  1  0
 18 19  1  6
 20 25  2  0
 21 22  2  0
 21 20  1  0
 22 23  1  0
 23 24  2  0
 25 24  1  0
 26 27  1  0
 28 26  2  0
M  END
$$$$
