TEF.pdb
     RDKit          3D

 28 28  0  0  1  0  0  0  0  0999 V2000
   26.2202   -9.7885  -15.2699 C   0  0  0  0  0  0  0  0  0  0  0  0
   25.9249  -11.0264  -16.0692 C   0  0  1  0  0  0  0  0  0  0  0  0
   26.8252  -12.0292  -15.7253 O   0  0  0  0  0  0  0  0  0  0  0  0
   24.5377  -11.5173  -15.6958 C   0  0  2  0  0  0  0  0  0  0  0  0
   24.2785  -12.8291  -16.2144 N   0  0  0  0  0  0  0  0  0  0  0  0
   23.4916  -10.5365  -16.1330 C   0  0  0  0  0  0  0  0  0  0  0  0
   23.1694  -10.4147  -17.3438 O   0  0  0  0  0  0  0  0  0  0  0  0
   22.8193   -9.7028  -15.1996 N   0  0  0  0  0  0  0  0  0  0  0  0
   21.7474   -8.8187  -15.6439 C   0  0  1  0  0  0  0  0  0  0  0  0
   20.4955   -9.0037  -14.8608 C   0  0  0  0  0  0  0  0  0  0  0  0
   19.3418   -8.1816  -15.3606 C   0  0  0  0  0  0  0  0  0  0  0  0
   18.1109   -8.3096  -14.5665 C   0  0  0  0  0  0  0  0  0  0  0  0
   17.6129   -7.4089  -13.8550 O   0  0  0  0  0  0  0  0  0  0  0  0
   22.1778   -7.3889  -15.4246 C   0  0  0  0  0  0  0  0  0  0  0  0
   22.7634   -7.0717  -14.3716 O   0  0  0  0  0  0  0  0  0  0  0  0
   17.4107   -9.5185  -14.5804 O   0  0  0  0  0  0  0  0  0  0  0  0
   21.9366   -6.3862  -16.3835 N   0  0  0  0  0  0  0  0  0  0  0  0
   22.3480   -4.9956  -16.2511 C   0  0  1  0  0  0  0  0  0  0  0  0
   22.0741   -4.2032  -17.4672 C   0  0  0  0  0  0  0  0  0  0  0  0
   22.5951   -2.8234  -17.3229 C   0  0  0  0  0  0  0  0  0  0  0  0
   23.8958   -2.5399  -17.7336 C   0  0  0  0  0  0  0  0  0  0  0  0
   24.4285   -1.2808  -17.6486 C   0  0  0  0  0  0  0  0  0  0  0  0
   23.6566   -0.2604  -17.1414 C   0  0  0  0  0  0  0  0  0  0  0  0
   22.3721   -0.5252  -16.7326 C   0  0  0  0  0  0  0  0  0  0  0  0
   21.8477   -1.7893  -16.8218 C   0  0  0  0  0  0  0  0  0  0  0  0
   21.7321   -4.4497  -15.0510 C   0  0  0  0  0  0  0  0  0  0  0  0
   20.3816   -4.5374  -14.7782 O   0  0  0  0  0  0  0  0  0  0  0  0
   22.4190   -3.8420  -14.1611 O   0  0  0  0  0  0  0  0  0  0  0  0
  2  4  1  0
  2  1  1  1
  2  3  1  0
  4  5  1  6
  6  4  1  0
  6  8  1  0
  7  6  2  0
  9  8  1  0
  9 10  1  1
 11 10  1  0
 12 11  1  0
 13 12  2  0
 14  9  1  0
 15 14  2  0
 16 12  1  0
 17 14  1  0
 18 17  1  0
 18 26  1  0
 19 20  1  0
 18 19  1  6
 20 25  2  0
 21 22  2  0
 21 20  1  0
 22 23  1  0
 23 24  2  0
 25 24  1  0
 26 27  1  0
 28 26  2  0
M  END
$$$$
