TEF.pdb
     RDKit          3D

 28 28  0  0  1  0  0  0  0  0999 V2000
   29.7933  -18.1316  -18.9855 C   0  0  0  0  0  0  0  0  0  0  0  0
   28.3356  -17.9157  -18.6908 C   0  0  1  0  0  0  0  0  0  0  0  0
   27.6164  -17.9017  -19.8811 O   0  0  0  0  0  0  0  0  0  0  0  0
   27.8334  -19.0924  -17.8735 C   0  0  2  0  0  0  0  0  0  0  0  0
   27.9609  -20.3303  -18.5865 N   0  0  0  0  0  0  0  0  0  0  0  0
   26.4232  -18.8613  -17.4204 C   0  0  0  0  0  0  0  0  0  0  0  0
   26.0988  -17.8251  -16.7834 O   0  0  0  0  0  0  0  0  0  0  0  0
   25.3932  -19.8015  -17.6905 N   0  0  0  0  0  0  0  0  0  0  0  0
   24.0616  -19.6145  -17.1246 C   0  0  1  0  0  0  0  0  0  0  0  0
   22.9841  -20.0836  -18.0376 C   0  0  0  0  0  0  0  0  0  0  0  0
   21.5985  -19.7626  -17.5540 C   0  0  0  0  0  0  0  0  0  0  0  0
   21.1203  -18.4204  -17.9169 C   0  0  0  0  0  0  0  0  0  0  0  0
   21.4096  -17.8104  -18.9704 O   0  0  0  0  0  0  0  0  0  0  0  0
   23.9479  -20.4469  -15.8708 C   0  0  0  0  0  0  0  0  0  0  0  0
   24.4177  -21.6005  -15.8471 O   0  0  0  0  0  0  0  0  0  0  0  0
   20.2722  -17.7368  -17.0420 O   0  0  0  0  0  0  0  0  0  0  0  0
   23.3196  -19.9569  -14.7097 N   0  0  0  0  0  0  0  0  0  0  0  0
   23.2996  -20.6426  -13.4251 C   0  0  1  0  0  0  0  0  0  0  0  0
   24.0174  -19.8970  -12.3712 C   0  0  0  0  0  0  0  0  0  0  0  0
   25.4821  -20.0795  -12.5042 C   0  0  0  0  0  0  0  0  0  0  0  0
   26.2085  -19.1990  -13.3030 C   0  0  0  0  0  0  0  0  0  0  0  0
   27.5668  -19.2993  -13.4488 C   0  0  0  0  0  0  0  0  0  0  0  0
   28.2389  -20.3012  -12.7862 C   0  0  0  0  0  0  0  0  0  0  0  0
   27.5356  -21.1767  -11.9950 C   0  0  0  0  0  0  0  0  0  0  0  0
   26.1756  -21.0679  -11.8554 C   0  0  0  0  0  0  0  0  0  0  0  0
   21.9155  -20.9387  -13.0873 C   0  0  0  0  0  0  0  0  0  0  0  0
   21.5435  -21.7575  -12.0398 O   0  0  0  0  0  0  0  0  0  0  0  0
   20.9422  -20.4499  -13.7557 O   0  0  0  0  0  0  0  0  0  0  0  0
  2  4  1  0
  2  1  1  6
  2  3  1  0
  4  5  1  6
  6  4  1  0
  6  8  1  0
  7  6  2  0
  9  8  1  0
  9 10  1  6
 11 10  1  0
 12 11  1  0
 13 12  2  0
 14  9  1  0
 15 14  2  0
 16 12  1  0
 17 14  1  0
 18 17  1  0
 18 26  1  0
 19 20  1  0
 18 19  1  1
 20 25  2  0
 21 22  2  0
 21 20  1  0
 22 23  1  0
 23 24  2  0
 25 24  1  0
 26 27  1  0
 28 26  2  0
M  END
$$$$
