TEF.pdb
     RDKit          3D

 28 28  0  0  1  0  0  0  0  0999 V2000
   25.8452  -14.0166  -17.1374 C   0  0  0  0  0  0  0  0  0  0  0  0
   24.8839  -12.9025  -16.8325 C   0  0  1  0  0  0  0  0  0  0  0  0
   25.5094  -11.9534  -16.0310 O   0  0  0  0  0  0  0  0  0  0  0  0
   24.5143  -12.2192  -18.1369 C   0  0  2  0  0  0  0  0  0  0  0  0
   25.6661  -11.6871  -18.8055 N   0  0  0  0  0  0  0  0  0  0  0  0
   23.4747  -11.1637  -17.9077 C   0  0  0  0  0  0  0  0  0  0  0  0
   23.7655   -9.9390  -17.9281 O   0  0  0  0  0  0  0  0  0  0  0  0
   22.1174  -11.5004  -17.6577 N   0  0  0  0  0  0  0  0  0  0  0  0
   21.1129  -10.4507  -17.5258 C   0  0  1  0  0  0  0  0  0  0  0  0
   19.7527  -10.9124  -17.9148 C   0  0  0  0  0  0  0  0  0  0  0  0
   18.7067   -9.8360  -17.8505 C   0  0  0  0  0  0  0  0  0  0  0  0
   17.3562  -10.2726  -18.2344 C   0  0  0  0  0  0  0  0  0  0  0  0
   17.0821  -10.9909  -19.2215 O   0  0  0  0  0  0  0  0  0  0  0  0
   21.0248  -10.0455  -16.0746 C   0  0  0  0  0  0  0  0  0  0  0  0
   21.1307  -10.9082  -15.1820 O   0  0  0  0  0  0  0  0  0  0  0  0
   16.2631   -9.8749  -17.4604 O   0  0  0  0  0  0  0  0  0  0  0  0
   20.8240   -8.7061  -15.6894 N   0  0  0  0  0  0  0  0  0  0  0  0
   20.7266   -8.2448  -14.3115 C   0  0  1  0  0  0  0  0  0  0  0  0
   22.0339   -7.8460  -13.7515 C   0  0  0  0  0  0  0  0  0  0  0  0
   21.8779   -7.3301  -12.3710 C   0  0  0  0  0  0  0  0  0  0  0  0
   21.9582   -8.2168  -11.2994 C   0  0  0  0  0  0  0  0  0  0  0  0
   21.8459   -7.8002   -9.9993 C   0  0  0  0  0  0  0  0  0  0  0  0
   21.6473   -6.4633   -9.7397 C   0  0  0  0  0  0  0  0  0  0  0  0
   21.5661   -5.5774  -10.7865 C   0  0  0  0  0  0  0  0  0  0  0  0
   21.6799   -6.0043  -12.0848 C   0  0  0  0  0  0  0  0  0  0  0  0
   19.7236   -7.1922  -14.2524 C   0  0  0  0  0  0  0  0  0  0  0  0
   18.9213   -6.9627  -13.1526 O   0  0  0  0  0  0  0  0  0  0  0  0
   19.5203   -6.4028  -15.2367 O   0  0  0  0  0  0  0  0  0  0  0  0
  2  4  1  0
  2  1  1  6
  2  3  1  0
  4  5  1  1
  6  4  1  0
  6  8  1  0
  7  6  2  0
  9  8  1  0
  9 10  1  1
 11 10  1  0
 12 11  1  0
 13 12  2  0
 14  9  1  0
 15 14  2  0
 16 12  1  0
 17 14  1  0
 18 17  1  0
 18 26  1  0
 19 20  1  0
 18 19  1  6
 20 25  2  0
 21 22  2  0
 21 20  1  0
 22 23  1  0
 23 24  2  0
 25 24  1  0
 26 27  1  0
 28 26  2  0
M  END
$$$$
