TEF.pdb
     RDKit          3D

 28 28  0  0  1  0  0  0  0  0999 V2000
   20.3689  -13.9388  -16.6552 C   0  0  0  0  0  0  0  0  0  0  0  0
   20.5806  -12.4544  -16.5541 C   0  0  1  0  0  0  0  0  0  0  0  0
   21.5077  -12.1827  -15.5536 O   0  0  0  0  0  0  0  0  0  0  0  0
   21.1730  -11.9654  -17.8637 C   0  0  2  0  0  0  0  0  0  0  0  0
   22.4288  -12.5963  -18.1496 N   0  0  0  0  0  0  0  0  0  0  0  0
   21.2947  -10.4713  -17.8666 C   0  0  0  0  0  0  0  0  0  0  0  0
   22.3851   -9.9010  -18.1325 O   0  0  0  0  0  0  0  0  0  0  0  0
   20.1852   -9.6354  -17.5694 N   0  0  0  0  0  0  0  0  0  0  0  0
   20.2783   -8.1932  -17.7686 C   0  0  1  0  0  0  0  0  0  0  0  0
   19.0662   -7.6295  -18.4226 C   0  0  0  0  0  0  0  0  0  0  0  0
   19.2067   -6.1866  -18.8165 C   0  0  0  0  0  0  0  0  0  0  0  0
   18.0204   -5.6130  -19.4691 C   0  0  0  0  0  0  0  0  0  0  0  0
   17.9783   -5.1839  -20.6436 O   0  0  0  0  0  0  0  0  0  0  0  0
   20.3824   -7.5247  -16.4195 C   0  0  0  0  0  0  0  0  0  0  0  0
   19.6913   -7.9361  -15.4681 O   0  0  0  0  0  0  0  0  0  0  0  0
   16.8235   -5.5219  -18.7542 O   0  0  0  0  0  0  0  0  0  0  0  0
   21.2469   -6.4357  -16.1961 N   0  0  0  0  0  0  0  0  0  0  0  0
   21.4703   -5.8058  -14.9023 C   0  0  1  0  0  0  0  0  0  0  0  0
   22.8812   -5.8776  -14.4709 C   0  0  0  0  0  0  0  0  0  0  0  0
   23.3680   -7.2770  -14.4994 C   0  0  0  0  0  0  0  0  0  0  0  0
   22.8731   -8.1895  -13.5702 C   0  0  0  0  0  0  0  0  0  0  0  0
   23.2648   -9.5020  -13.5583 C   0  0  0  0  0  0  0  0  0  0  0  0
   24.1766   -9.9369  -14.4931 C   0  0  0  0  0  0  0  0  0  0  0  0
   24.6731   -9.0482  -15.4156 C   0  0  0  0  0  0  0  0  0  0  0  0
   24.2747   -7.7360  -15.4194 C   0  0  0  0  0  0  0  0  0  0  0  0
   20.9485   -4.4486  -14.9592 C   0  0  0  0  0  0  0  0  0  0  0  0
   20.4312   -3.8768  -16.1043 O   0  0  0  0  0  0  0  0  0  0  0  0
   20.9401   -3.6891  -13.9314 O   0  0  0  0  0  0  0  0  0  0  0  0
  2  4  1  0
  2  1  1  6
  2  3  1  0
  4  5  1  1
  6  4  1  0
  6  8  1  0
  7  6  2  0
  9  8  1  0
  9 10  1  1
 11 10  1  0
 12 11  1  0
 13 12  2  0
 14  9  1  0
 15 14  2  0
 16 12  1  0
 17 14  1  0
 18 17  1  0
 18 26  1  0
 19 20  1  0
 18 19  1  6
 20 25  2  0
 21 22  2  0
 21 20  1  0
 22 23  1  0
 23 24  2  0
 25 24  1  0
 26 27  1  0
 28 26  2  0
M  END
$$$$
