NCW.pdb
     RDKit          3D

 29 30  0  0  1  0  0  0  0  0999 V2000
   11.1556  -17.3096   15.8142 N   0  0  0  0  0  0  0  0  0  0  0  0
    9.7427  -17.2966   15.9748 C   0  0  0  0  0  0  0  0  0  0  0  0
    9.0452  -17.2980   14.9290 O   0  0  0  0  0  0  0  0  0  0  0  0
    9.0544  -17.2818   17.2694 C   0  0  0  0  0  0  0  0  0  0  0  0
   10.0101  -17.2764   18.4411 C   0  0  2  0  0  0  0  0  0  0  0  0
   10.5995  -18.6012   18.5732 N   0  0  0  0  0  0  0  0  0  0  0  0
    9.1741  -17.0474   19.6627 C   0  0  0  0  0  0  0  0  0  0  0  0
    8.3972  -16.0514   19.7681 O   0  0  0  0  0  0  0  0  0  0  0  0
    9.2080  -17.9376   20.7711 N   0  0  0  0  0  0  0  0  0  0  0  0
    8.4001  -17.6673   21.9798 C   0  0  1  0  0  0  0  0  0  0  0  0
    7.5451  -18.8860   22.2775 C   0  0  0  0  0  0  0  0  0  0  0  0
    8.5221  -20.2958   22.7837 S   0  0  0  0  0  0  0  0  0  0  0  0
    9.2926  -17.2755   23.0698 C   0  0  0  0  0  0  0  0  0  0  0  0
   10.5092  -17.6819   23.0404 O   0  0  0  0  0  0  0  0  0  0  0  0
    8.9547  -16.4824   24.1705 N   0  0  0  0  0  0  0  0  0  0  0  0
    9.9002  -16.2232   25.2752 C   0  0  1  0  0  0  0  0  0  0  0  0
    9.5820  -14.8855   25.8459 C   0  0  0  0  0  0  0  0  0  0  0  0
    8.1558  -14.5500   25.9433 C   0  0  0  0  0  0  0  0  0  0  0  0
    7.1332  -15.5044   25.9569 C   0  0  0  0  0  0  0  0  0  0  0  0
    5.9616  -14.8718   26.0840 N   0  0  0  0  0  0  0  0  0  0  0  0
    6.1523  -13.5516   26.1545 C   0  0  0  0  0  0  0  0  0  0  0  0
    5.2597  -12.5211   26.2796 C   0  0  0  0  0  0  0  0  0  0  0  0
    5.7487  -11.2359   26.3177 C   0  0  0  0  0  0  0  0  0  0  0  0
    7.1003  -11.0197   26.2302 C   0  0  0  0  0  0  0  0  0  0  0  0
    8.0062  -12.0471   26.1045 C   0  0  0  0  0  0  0  0  0  0  0  0
    7.5177  -13.3478   26.0666 C   0  0  0  0  0  0  0  0  0  0  0  0
   10.0020  -17.3475   26.1970 C   0  0  0  0  0  0  0  0  0  0  0  0
   11.0109  -17.5484   27.1190 O   0  0  0  0  0  0  0  0  0  0  0  0
    9.0892  -18.2357   26.1597 O   0  0  0  0  0  0  0  0  0  0  0  0
  1  2  1  0
  2  4  1  0
  3  2  2  0
  4  5  1  0
  5  6  1  1
  7  8  2  0
  7  5  1  0
  9  7  1  0
 10 11  1  1
 10  9  1  0
 11 12  1  0
 13 10  1  0
 14 13  2  0
 15 13  1  0
 16 15  1  0
 16 17  1  1
 18 17  1  0
 19 18  2  0
 20 19  1  0
 21 20  1  0
 21 26  2  0
 22 23  2  0
 22 21  1  0
 23 24  1  0
 24 25  2  0
 26 25  1  0
 26 18  1  0
 27 16  1  0
 27 28  1  0
 29 27  2  0
M  END
$$$$
