NCW.pdb
     RDKit          3D

 29 30  0  0  1  0  0  0  0  0999 V2000
    7.9268  -12.4047   16.1877 N   0  0  0  0  0  0  0  0  0  0  0  0
    7.9899  -13.7838   16.5284 C   0  0  0  0  0  0  0  0  0  0  0  0
    8.3291  -14.5851   15.6211 O   0  0  0  0  0  0  0  0  0  0  0  0
    7.6877  -14.3256   17.8570 C   0  0  0  0  0  0  0  0  0  0  0  0
    8.9296  -14.5931   18.6769 C   0  0  2  0  0  0  0  0  0  0  0  0
    9.6834  -15.6701   18.0511 N   0  0  0  0  0  0  0  0  0  0  0  0
    8.4546  -15.1060   20.0018 C   0  0  0  0  0  0  0  0  0  0  0  0
    7.6885  -14.4273   20.7494 O   0  0  0  0  0  0  0  0  0  0  0  0
    8.8390  -16.3846   20.4913 N   0  0  0  0  0  0  0  0  0  0  0  0
    8.3833  -16.8516   21.8183 C   0  0  1  0  0  0  0  0  0  0  0  0
    8.0815  -18.3372   21.7355 C   0  0  0  0  0  0  0  0  0  0  0  0
    8.3622  -19.1766   23.2894 S   0  0  0  0  0  0  0  0  0  0  0  0
    9.3891  -16.4951   22.8183 C   0  0  0  0  0  0  0  0  0  0  0  0
   10.5828  -16.9418   22.6715 O   0  0  0  0  0  0  0  0  0  0  0  0
    9.1852  -15.6965   23.9476 N   0  0  0  0  0  0  0  0  0  0  0  0
   10.0461  -15.7890   25.1443 C   0  0  1  0  0  0  0  0  0  0  0  0
    9.1705  -15.7078   26.3456 C   0  0  0  0  0  0  0  0  0  0  0  0
    7.9496  -14.9055   26.1992 C   0  0  0  0  0  0  0  0  0  0  0  0
    6.6670  -15.4551   26.1005 C   0  0  0  0  0  0  0  0  0  0  0  0
    5.7816  -14.4569   26.0082 N   0  0  0  0  0  0  0  0  0  0  0  0
    6.4073  -13.2772   26.0396 C   0  0  0  0  0  0  0  0  0  0  0  0
    5.9192  -12.0001   25.9689 C   0  0  0  0  0  0  0  0  0  0  0  0
    6.8141  -10.9564   26.0172 C   0  0  0  0  0  0  0  0  0  0  0  0
    8.1559  -11.2160   26.1332 C   0  0  0  0  0  0  0  0  0  0  0  0
    8.6575  -12.4947   26.2053 C   0  0  0  0  0  0  0  0  0  0  0  0
    7.7576  -13.5530   26.1580 C   0  0  0  0  0  0  0  0  0  0  0  0
   10.9910  -16.8960   25.0667 C   0  0  0  0  0  0  0  0  0  0  0  0
   10.9002  -17.9782   24.2131 O   0  0  0  0  0  0  0  0  0  0  0  0
   11.9941  -16.8818   25.8523 O   0  0  0  0  0  0  0  0  0  0  0  0
  1  2  1  0
  2  4  1  0
  3  2  2  0
  4  5  1  0
  5  6  1  6
  7  8  2  0
  7  5  1  0
  9  7  1  0
 10 11  1  6
 10  9  1  0
 11 12  1  0
 13 10  1  0
 14 13  2  0
 15 13  1  0
 16 15  1  0
 16 17  1  1
 18 17  1  0
 19 18  2  0
 20 19  1  0
 21 20  1  0
 21 26  2  0
 22 23  2  0
 22 21  1  0
 23 24  1  0
 24 25  2  0
 26 25  1  0
 26 18  1  0
 27 16  1  0
 27 28  1  0
 29 27  2  0
M  END
$$$$
