NCW.pdb
     RDKit          3D

 29 30  0  0  1  0  0  0  0  0999 V2000
    8.2821  -11.7954   17.6002 N   0  0  0  0  0  0  0  0  0  0  0  0
    8.6388  -13.1611   17.7725 C   0  0  0  0  0  0  0  0  0  0  0  0
    9.5474  -13.6158   17.0322 O   0  0  0  0  0  0  0  0  0  0  0  0
    8.0206  -14.0640   18.7486 C   0  0  0  0  0  0  0  0  0  0  0  0
    8.6193  -15.4521   18.7239 C   0  0  2  0  0  0  0  0  0  0  0  0
    8.0688  -16.1816   17.5904 N   0  0  0  0  0  0  0  0  0  0  0  0
    8.1335  -16.1401   19.9626 C   0  0  0  0  0  0  0  0  0  0  0  0
    7.0455  -16.7899   19.9874 O   0  0  0  0  0  0  0  0  0  0  0  0
    8.8694  -16.1004   21.1788 N   0  0  0  0  0  0  0  0  0  0  0  0
    8.4999  -16.9756   22.3121 C   0  0  1  0  0  0  0  0  0  0  0  0
    8.4893  -18.4161   21.8326 C   0  0  0  0  0  0  0  0  0  0  0  0
    8.3521  -19.5817   23.1819 S   0  0  0  0  0  0  0  0  0  0  0  0
    9.4096  -16.7177   23.4276 C   0  0  0  0  0  0  0  0  0  0  0  0
   10.6718  -16.7080   23.1979 O   0  0  0  0  0  0  0  0  0  0  0  0
    9.0423  -16.4720   24.7540 N   0  0  0  0  0  0  0  0  0  0  0  0
   10.0405  -16.2638   25.8226 C   0  0  1  0  0  0  0  0  0  0  0  0
    9.5346  -15.1876   26.7184 C   0  0  0  0  0  0  0  0  0  0  0  0
    8.1484  -14.7601   26.4916 C   0  0  0  0  0  0  0  0  0  0  0  0
    7.0728  -15.6463   26.3704 C   0  0  0  0  0  0  0  0  0  0  0  0
    5.9522  -14.9359   26.2012 N   0  0  0  0  0  0  0  0  0  0  0  0
    6.2268  -13.6287   26.2031 C   0  0  0  0  0  0  0  0  0  0  0  0
    5.4100  -12.5397   26.0576 C   0  0  0  0  0  0  0  0  0  0  0  0
    5.9797  -11.2881   26.0922 C   0  0  0  0  0  0  0  0  0  0  0  0
    7.3340  -11.1619   26.2688 C   0  0  0  0  0  0  0  0  0  0  0  0
    8.1642  -12.2487   26.4163 C   0  0  0  0  0  0  0  0  0  0  0  0
    7.5937  -13.5158   26.3831 C   0  0  0  0  0  0  0  0  0  0  0  0
   10.4673  -17.5141   26.4379 C   0  0  0  0  0  0  0  0  0  0  0  0
   11.5683  -17.6783   27.2558 O   0  0  0  0  0  0  0  0  0  0  0  0
    9.7764  -18.5598   26.2080 O   0  0  0  0  0  0  0  0  0  0  0  0
  1  2  1  0
  2  4  1  0
  3  2  2  0
  4  5  1  0
  5  6  1  6
  7  8  2  0
  7  5  1  0
  9  7  1  0
 10 11  1  6
 10  9  1  0
 11 12  1  0
 13 10  1  0
 14 13  2  0
 15 13  1  0
 16 15  1  0
 16 17  1  1
 18 17  1  0
 19 18  2  0
 20 19  1  0
 21 20  1  0
 21 26  2  0
 22 23  2  0
 22 21  1  0
 23 24  1  0
 24 25  2  0
 26 25  1  0
 26 18  1  0
 27 16  1  0
 27 28  1  0
 29 27  2  0
M  END
$$$$
