NCW.pdb
     RDKit          3D

 29 30  0  0  1  0  0  0  0  0999 V2000
    6.9700  -13.1005   17.4037 N   0  0  0  0  0  0  0  0  0  0  0  0
    8.2549  -13.6154   17.7291 C   0  0  0  0  0  0  0  0  0  0  0  0
    9.1996  -13.3400   16.9467 O   0  0  0  0  0  0  0  0  0  0  0  0
    8.5455  -14.4389   18.9070 C   0  0  0  0  0  0  0  0  0  0  0  0
    8.8731  -15.8720   18.5535 C   0  0  2  0  0  0  0  0  0  0  0  0
    7.6958  -16.4914   17.9617 N   0  0  0  0  0  0  0  0  0  0  0  0
    9.1301  -16.5753   19.8509 C   0  0  0  0  0  0  0  0  0  0  0  0
    8.1865  -16.9849   20.5914 O   0  0  0  0  0  0  0  0  0  0  0  0
   10.4495  -16.8212   20.3209 N   0  0  0  0  0  0  0  0  0  0  0  0
   10.6743  -17.4633   21.6339 C   0  0  1  0  0  0  0  0  0  0  0  0
   11.8617  -18.4025   21.5206 C   0  0  0  0  0  0  0  0  0  0  0  0
   11.9269  -19.2295   19.9363 S   0  0  0  0  0  0  0  0  0  0  0  0
   10.8221  -16.4238   22.6518 C   0  0  0  0  0  0  0  0  0  0  0  0
   10.9885  -15.2110   22.2678 O   0  0  0  0  0  0  0  0  0  0  0  0
   10.7996  -16.6138   24.0367 N   0  0  0  0  0  0  0  0  0  0  0  0
    9.8645  -15.8844   24.9172 C   0  0  1  0  0  0  0  0  0  0  0  0
    8.5998  -15.6673   24.1623 C   0  0  0  0  0  0  0  0  0  0  0  0
    7.5332  -14.9608   24.8828 C   0  0  0  0  0  0  0  0  0  0  0  0
    6.3066  -15.5429   25.2192 C   0  0  0  0  0  0  0  0  0  0  0  0
    5.5790  -14.6448   25.8922 N   0  0  0  0  0  0  0  0  0  0  0  0
    6.2560  -13.5004   26.0192 C   0  0  0  0  0  0  0  0  0  0  0  0
    5.9146  -12.3170   26.6170 C   0  0  0  0  0  0  0  0  0  0  0  0
    6.8235  -11.2849   26.5861 C   0  0  0  0  0  0  0  0  0  0  0  0
    8.0337  -11.4627   25.9656 C   0  0  0  0  0  0  0  0  0  0  0  0
    8.3875  -12.6470   25.3621 C   0  0  0  0  0  0  0  0  0  0  0  0
    7.4733  -13.6936   25.3912 C   0  0  0  0  0  0  0  0  0  0  0  0
    9.7691  -16.4799   26.2440 C   0  0  0  0  0  0  0  0  0  0  0  0
    9.8608  -17.8274   26.5340 O   0  0  0  0  0  0  0  0  0  0  0  0
    9.5805  -15.7027   27.2359 O   0  0  0  0  0  0  0  0  0  0  0  0
  1  2  1  0
  2  4  1  0
  3  2  2  0
  4  5  1  0
  5  6  1  1
  7  8  2  0
  7  5  1  0
  9  7  1  0
 10 11  1  6
 10  9  1  0
 11 12  1  0
 13 10  1  0
 14 13  2  0
 15 13  1  0
 16 15  1  0
 16 17  1  6
 18 17  1  0
 19 18  2  0
 20 19  1  0
 21 20  1  0
 21 26  2  0
 22 23  2  0
 22 21  1  0
 23 24  1  0
 24 25  2  0
 26 25  1  0
 26 18  1  0
 27 16  1  0
 27 28  1  0
 29 27  2  0
M  END
$$$$
