NCW.pdb
     RDKit          3D

 29 30  0  0  1  0  0  0  0  0999 V2000
    9.3407  -17.1404   14.8061 N   0  0  0  0  0  0  0  0  0  0  0  0
    8.6520  -16.2067   15.6282 C   0  0  0  0  0  0  0  0  0  0  0  0
    8.4466  -15.0622   15.1506 O   0  0  0  0  0  0  0  0  0  0  0  0
    8.1709  -16.4908   16.9839 C   0  0  0  0  0  0  0  0  0  0  0  0
    8.4361  -17.9162   17.4130 C   0  0  2  0  0  0  0  0  0  0  0  0
    7.5026  -18.7960   16.7242 N   0  0  0  0  0  0  0  0  0  0  0  0
    8.1029  -17.9834   18.8719 C   0  0  0  0  0  0  0  0  0  0  0  0
    6.9071  -17.9465   19.2904 O   0  0  0  0  0  0  0  0  0  0  0  0
    9.1134  -18.0925   19.8665 N   0  0  0  0  0  0  0  0  0  0  0  0
    8.7578  -18.3709   21.2747 C   0  0  1  0  0  0  0  0  0  0  0  0
    9.0941  -19.8184   21.5857 C   0  0  0  0  0  0  0  0  0  0  0  0
   10.7627  -20.2477   21.1064 S   0  0  0  0  0  0  0  0  0  0  0  0
    9.4285  -17.3972   22.1352 C   0  0  0  0  0  0  0  0  0  0  0  0
   10.4815  -16.8128   21.6928 O   0  0  0  0  0  0  0  0  0  0  0  0
    9.0345  -17.0227   23.4233 N   0  0  0  0  0  0  0  0  0  0  0  0
    9.8507  -16.1271   24.2681 C   0  0  1  0  0  0  0  0  0  0  0  0
    9.2896  -14.7529   24.1538 C   0  0  0  0  0  0  0  0  0  0  0  0
    8.1203  -14.4632   24.9933 C   0  0  0  0  0  0  0  0  0  0  0  0
    7.1777  -15.4257   25.3699 C   0  0  0  0  0  0  0  0  0  0  0  0
    6.2631  -14.8430   26.1528 N   0  0  0  0  0  0  0  0  0  0  0  0
    6.5479  -13.5480   26.3145 C   0  0  0  0  0  0  0  0  0  0  0  0
    5.9003  -12.5673   27.0166 C   0  0  0  0  0  0  0  0  0  0  0  0
    6.4260  -11.2963   26.9977 C   0  0  0  0  0  0  0  0  0  0  0  0
    7.5708  -11.0444   26.2855 C   0  0  0  0  0  0  0  0  0  0  0  0
    8.2300  -12.0218   25.5768 C   0  0  0  0  0  0  0  0  0  0  0  0
    7.7037  -13.3081   25.5933 C   0  0  0  0  0  0  0  0  0  0  0  0
   10.0636  -16.6641   25.6061 C   0  0  0  0  0  0  0  0  0  0  0  0
   10.9672  -16.1857   26.5350 O   0  0  0  0  0  0  0  0  0  0  0  0
    9.3649  -17.6670   25.9659 O   0  0  0  0  0  0  0  0  0  0  0  0
  1  2  1  0
  2  4  1  0
  3  2  2  0
  4  5  1  0
  5  6  1  6
  7  8  2  0
  7  5  1  0
  9  7  1  0
 10 11  1  1
 10  9  1  0
 11 12  1  0
 13 10  1  0
 14 13  2  0
 15 13  1  0
 16 15  1  0
 16 17  1  1
 18 17  1  0
 19 18  2  0
 20 19  1  0
 21 20  1  0
 21 26  2  0
 22 23  2  0
 22 21  1  0
 23 24  1  0
 24 25  2  0
 26 25  1  0
 26 18  1  0
 27 16  1  0
 27 28  1  0
 29 27  2  0
M  END
$$$$
