NCW.pdb
     RDKit          3D

 29 30  0  0  1  0  0  0  0  0999 V2000
   10.4285  -20.8998   18.3249 N   0  0  0  0  0  0  0  0  0  0  0  0
   11.3261  -20.2777   19.2356 C   0  0  0  0  0  0  0  0  0  0  0  0
   12.3067  -20.9576   19.6311 O   0  0  0  0  0  0  0  0  0  0  0  0
   11.1825  -18.9076   19.7377 C   0  0  0  0  0  0  0  0  0  0  0  0
    9.9116  -18.2400   19.2633 C   0  0  2  0  0  0  0  0  0  0  0  0
   10.0662  -17.8763   17.8620 N   0  0  0  0  0  0  0  0  0  0  0  0
    9.7965  -16.9614   20.0354 C   0  0  0  0  0  0  0  0  0  0  0  0
   10.7787  -16.1736   20.1806 O   0  0  0  0  0  0  0  0  0  0  0  0
    8.5761  -16.5634   20.6472 N   0  0  0  0  0  0  0  0  0  0  0  0
    8.4845  -15.2843   21.3836 C   0  0  1  0  0  0  0  0  0  0  0  0
    7.3308  -14.4766   20.8166 C   0  0  0  0  0  0  0  0  0  0  0  0
    5.7840  -15.3730   20.8642 S   0  0  0  0  0  0  0  0  0  0  0  0
    8.3776  -15.5667   22.8145 C   0  0  0  0  0  0  0  0  0  0  0  0
    7.4431  -14.9953   23.4826 O   0  0  0  0  0  0  0  0  0  0  0  0
    9.2058  -16.4168   23.5535 N   0  0  0  0  0  0  0  0  0  0  0  0
    9.9525  -15.9535   24.7407 C   0  0  1  0  0  0  0  0  0  0  0  0
    9.0552  -16.0756   25.9223 C   0  0  0  0  0  0  0  0  0  0  0  0
    7.8471  -15.2415   25.9020 C   0  0  0  0  0  0  0  0  0  0  0  0
    6.5701  -15.7321   25.6098 C   0  0  0  0  0  0  0  0  0  0  0  0
    5.6946  -14.7254   25.7055 N   0  0  0  0  0  0  0  0  0  0  0  0
    6.3216  -13.5957   26.0444 C   0  0  0  0  0  0  0  0  0  0  0  0
    5.8427  -12.3294   26.2474 C   0  0  0  0  0  0  0  0  0  0  0  0
    6.7370  -11.3404   26.5852 C   0  0  0  0  0  0  0  0  0  0  0  0
    8.0694  -11.6416   26.7089 C   0  0  0  0  0  0  0  0  0  0  0  0
    8.5618  -12.9101   26.5076 C   0  0  0  0  0  0  0  0  0  0  0  0
    7.6623  -13.9136   26.1670 C   0  0  0  0  0  0  0  0  0  0  0  0
   11.2796  -16.5492   24.8318 C   0  0  0  0  0  0  0  0  0  0  0  0
   12.2385  -16.2464   25.7788 O   0  0  0  0  0  0  0  0  0  0  0  0
   11.6016  -17.4268   23.9660 O   0  0  0  0  0  0  0  0  0  0  0  0
  1  2  1  0
  2  4  1  0
  3  2  2  0
  4  5  1  0
  5  6  1  6
  7  8  2  0
  7  5  1  0
  9  7  1  0
 10 11  1  6
 10  9  1  0
 11 12  1  0
 13 10  1  0
 14 13  2  0
 15 13  1  0
 16 15  1  0
 16 17  1  1
 18 17  1  0
 19 18  2  0
 20 19  1  0
 21 20  1  0
 21 26  2  0
 22 23  2  0
 22 21  1  0
 23 24  1  0
 24 25  2  0
 26 25  1  0
 26 18  1  0
 27 16  1  0
 27 28  1  0
 29 27  2  0
M  END
$$$$
