NCW.pdb
     RDKit          3D

 29 30  0  0  1  0  0  0  0  0999 V2000
    9.9321  -16.5568   14.7890 N   0  0  0  0  0  0  0  0  0  0  0  0
    8.6084  -16.2061   15.1724 C   0  0  0  0  0  0  0  0  0  0  0  0
    7.8248  -15.8367   14.2614 O   0  0  0  0  0  0  0  0  0  0  0  0
    8.1042  -16.2472   16.5487 C   0  0  0  0  0  0  0  0  0  0  0  0
    9.1387  -16.7356   17.5373 C   0  0  2  0  0  0  0  0  0  0  0  0
    9.3465  -18.1623   17.3342 N   0  0  0  0  0  0  0  0  0  0  0  0
    8.5294  -16.5729   18.8961 C   0  0  0  0  0  0  0  0  0  0  0  0
    8.2145  -15.4358   19.3593 O   0  0  0  0  0  0  0  0  0  0  0  0
    8.2714  -17.6882   19.7396 N   0  0  0  0  0  0  0  0  0  0  0  0
    7.6433  -17.5012   21.0652 C   0  0  1  0  0  0  0  0  0  0  0  0
    6.7892  -18.7173   21.3762 C   0  0  0  0  0  0  0  0  0  0  0  0
    7.4573  -19.6933   22.7176 S   0  0  0  0  0  0  0  0  0  0  0  0
    8.6880  -17.2293   22.0516 C   0  0  0  0  0  0  0  0  0  0  0  0
    9.8673  -17.6857   21.8352 O   0  0  0  0  0  0  0  0  0  0  0  0
    8.5368  -16.5042   23.2374 N   0  0  0  0  0  0  0  0  0  0  0  0
    9.6771  -16.1985   24.1251 C   0  0  1  0  0  0  0  0  0  0  0  0
    9.5147  -14.8019   24.6145 C   0  0  0  0  0  0  0  0  0  0  0  0
    8.2395  -14.4954   25.2748 C   0  0  0  0  0  0  0  0  0  0  0  0
    7.3398  -15.4713   25.7162 C   0  0  0  0  0  0  0  0  0  0  0  0
    6.3001  -14.8615   26.2958 N   0  0  0  0  0  0  0  0  0  0  0  0
    6.4616  -13.5360   26.2618 C   0  0  0  0  0  0  0  0  0  0  0  0
    5.6638  -12.5225   26.7205 C   0  0  0  0  0  0  0  0  0  0  0  0
    6.0859  -11.2262   26.5367 C   0  0  0  0  0  0  0  0  0  0  0  0
    7.2797  -10.9827   25.9068 C   0  0  0  0  0  0  0  0  0  0  0  0
    8.0895  -11.9929   25.4422 C   0  0  0  0  0  0  0  0  0  0  0  0
    7.6682  -13.3046   25.6261 C   0  0  0  0  0  0  0  0  0  0  0  0
    9.9076  -17.2423   25.1158 C   0  0  0  0  0  0  0  0  0  0  0  0
   11.0599  -17.4120   25.8584 O   0  0  0  0  0  0  0  0  0  0  0  0
    8.9743  -18.0841   25.3253 O   0  0  0  0  0  0  0  0  0  0  0  0
  1  2  1  0
  2  4  1  0
  3  2  2  0
  4  5  1  0
  5  6  1  6
  7  8  2  0
  7  5  1  0
  9  7  1  0
 10 11  1  1
 10  9  1  0
 11 12  1  0
 13 10  1  0
 14 13  2  0
 15 13  1  0
 16 15  1  0
 16 17  1  1
 18 17  1  0
 19 18  2  0
 20 19  1  0
 21 20  1  0
 21 26  2  0
 22 23  2  0
 22 21  1  0
 23 24  1  0
 24 25  2  0
 26 25  1  0
 26 18  1  0
 27 16  1  0
 27 28  1  0
 29 27  2  0
M  END
$$$$
