NCW.pdb
     RDKit          3D

 29 30  0  0  1  0  0  0  0  0999 V2000
    8.1374  -12.3854   16.1098 N   0  0  0  0  0  0  0  0  0  0  0  0
    8.1515  -13.7979   15.9466 C   0  0  0  0  0  0  0  0  0  0  0  0
    8.5311  -14.2444   14.8344 O   0  0  0  0  0  0  0  0  0  0  0  0
    7.7554  -14.7575   16.9822 C   0  0  0  0  0  0  0  0  0  0  0  0
    8.8999  -15.1436   17.8917 C   0  0  2  0  0  0  0  0  0  0  0  0
    9.6245  -16.2539   17.2902 N   0  0  0  0  0  0  0  0  0  0  0  0
    8.2773  -15.6610   19.1521 C   0  0  0  0  0  0  0  0  0  0  0  0
    7.1475  -16.2356   19.1565 O   0  0  0  0  0  0  0  0  0  0  0  0
    8.9228  -15.5346   20.4128 N   0  0  0  0  0  0  0  0  0  0  0  0
    8.5056  -16.3692   21.5600 C   0  0  1  0  0  0  0  0  0  0  0  0
    8.4257  -17.8161   21.1071 C   0  0  0  0  0  0  0  0  0  0  0  0
    8.0982  -18.9364   22.4620 S   0  0  0  0  0  0  0  0  0  0  0  0
    9.4223  -16.1358   22.6753 C   0  0  0  0  0  0  0  0  0  0  0  0
   10.6660  -16.4050   22.5114 O   0  0  0  0  0  0  0  0  0  0  0  0
    9.0807  -15.6357   23.9354 N   0  0  0  0  0  0  0  0  0  0  0  0
    9.9657  -15.7839   25.1086 C   0  0  1  0  0  0  0  0  0  0  0  0
    9.1098  -15.8192   26.3262 C   0  0  0  0  0  0  0  0  0  0  0  0
    7.8627  -15.0472   26.2589 C   0  0  0  0  0  0  0  0  0  0  0  0
    6.6021  -15.6238   26.0712 C   0  0  0  0  0  0  0  0  0  0  0  0
    5.6825  -14.6528   26.0875 N   0  0  0  0  0  0  0  0  0  0  0  0
    6.2648  -13.4653   26.2750 C   0  0  0  0  0  0  0  0  0  0  0  0
    5.7320  -12.2068   26.3540 C   0  0  0  0  0  0  0  0  0  0  0  0
    6.5879  -11.1472   26.5461 C   0  0  0  0  0  0  0  0  0  0  0  0
    7.9367  -11.3730   26.6522 C   0  0  0  0  0  0  0  0  0  0  0  0
    8.4831  -12.6330   26.5746 C   0  0  0  0  0  0  0  0  0  0  0  0
    7.6226  -13.7074   26.3816 C   0  0  0  0  0  0  0  0  0  0  0  0
   10.9454  -16.8492   24.9366 C   0  0  0  0  0  0  0  0  0  0  0  0
   10.6941  -18.1016   24.4107 O   0  0  0  0  0  0  0  0  0  0  0  0
   12.1448  -16.6231   25.3025 O   0  0  0  0  0  0  0  0  0  0  0  0
  1  2  1  0
  2  4  1  0
  3  2  2  0
  4  5  1  0
  5  6  1  6
  7  8  2  0
  7  5  1  0
  9  7  1  0
 10 11  1  6
 10  9  1  0
 11 12  1  0
 13 10  1  0
 14 13  2  0
 15 13  1  0
 16 15  1  0
 16 17  1  1
 18 17  1  0
 19 18  2  0
 20 19  1  0
 21 20  1  0
 21 26  2  0
 22 23  2  0
 22 21  1  0
 23 24  1  0
 24 25  2  0
 26 25  1  0
 26 18  1  0
 27 16  1  0
 27 28  1  0
 29 27  2  0
M  END
$$$$
