NCW.pdb
     RDKit          3D

 29 30  0  0  1  0  0  0  0  0999 V2000
    8.0824  -12.9235   17.3749 N   0  0  0  0  0  0  0  0  0  0  0  0
    8.0182  -14.0001   16.4482 C   0  0  0  0  0  0  0  0  0  0  0  0
    7.1974  -13.8958   15.5017 O   0  0  0  0  0  0  0  0  0  0  0  0
    8.8400  -15.2121   16.5251 C   0  0  0  0  0  0  0  0  0  0  0  0
    9.7568  -15.2229   17.7275 C   0  0  2  0  0  0  0  0  0  0  0  0
   10.5988  -16.4091   17.6662 N   0  0  0  0  0  0  0  0  0  0  0  0
    8.8728  -15.3772   18.9270 C   0  0  0  0  0  0  0  0  0  0  0  0
    7.6318  -15.1232   18.8840 O   0  0  0  0  0  0  0  0  0  0  0  0
    9.3809  -15.8180   20.1799 N   0  0  0  0  0  0  0  0  0  0  0  0
    8.4847  -15.9645   21.3470 C   0  0  1  0  0  0  0  0  0  0  0  0
    7.4305  -17.0083   21.0244 C   0  0  0  0  0  0  0  0  0  0  0  0
    8.0453  -18.6772   21.2112 S   0  0  0  0  0  0  0  0  0  0  0  0
    9.2905  -16.2661   22.5295 C   0  0  0  0  0  0  0  0  0  0  0  0
   10.3617  -16.9561   22.3800 O   0  0  0  0  0  0  0  0  0  0  0  0
    9.0127  -15.8715   23.8417 N   0  0  0  0  0  0  0  0  0  0  0  0
    9.9631  -16.0956   24.9500 C   0  0  1  0  0  0  0  0  0  0  0  0
    9.6837  -15.0826   26.0045 C   0  0  0  0  0  0  0  0  0  0  0  0
    8.2953  -14.6133   26.0947 C   0  0  0  0  0  0  0  0  0  0  0  0
    7.1895  -15.4680   26.1535 C   0  0  0  0  0  0  0  0  0  0  0  0
    6.0821  -14.7254   26.2595 N   0  0  0  0  0  0  0  0  0  0  0  0
    6.3939  -13.4266   26.2734 C   0  0  0  0  0  0  0  0  0  0  0  0
    5.6009  -12.3140   26.3594 C   0  0  0  0  0  0  0  0  0  0  0  0
    6.2061  -11.0789   26.3408 C   0  0  0  0  0  0  0  0  0  0  0  0
    7.5711  -10.9919   26.2377 C   0  0  0  0  0  0  0  0  0  0  0  0
    8.3777  -12.1027   26.1510 C   0  0  0  0  0  0  0  0  0  0  0  0
    7.7714  -13.3534   26.1704 C   0  0  0  0  0  0  0  0  0  0  0  0
   10.0290  -17.4946   25.3532 C   0  0  0  0  0  0  0  0  0  0  0  0
    9.1352  -18.4835   24.9908 O   0  0  0  0  0  0  0  0  0  0  0  0
   10.9884  -17.8537   26.1110 O   0  0  0  0  0  0  0  0  0  0  0  0
  1  2  1  0
  2  4  1  0
  3  2  2  0
  4  5  1  0
  5  6  1  6
  7  8  2  0
  7  5  1  0
  9  7  1  0
 10 11  1  6
 10  9  1  0
 11 12  1  0
 13 10  1  0
 14 13  2  0
 15 13  1  0
 16 15  1  0
 16 17  1  1
 18 17  1  0
 19 18  2  0
 20 19  1  0
 21 20  1  0
 21 26  2  0
 22 23  2  0
 22 21  1  0
 23 24  1  0
 24 25  2  0
 26 25  1  0
 26 18  1  0
 27 16  1  0
 27 28  1  0
 29 27  2  0
M  END
$$$$
