NCW.pdb
     RDKit          3D

 29 30  0  0  1  0  0  0  0  0999 V2000
   14.2086  -19.5886   17.6778 N   0  0  0  0  0  0  0  0  0  0  0  0
   13.6600  -18.2981   17.4415 C   0  0  0  0  0  0  0  0  0  0  0  0
   14.1099  -17.6529   16.4609 O   0  0  0  0  0  0  0  0  0  0  0  0
   12.6137  -17.6780   18.2605 C   0  0  0  0  0  0  0  0  0  0  0  0
   11.2905  -18.4038   18.1684 C   0  0  2  0  0  0  0  0  0  0  0  0
   10.7006  -18.1424   16.8632 N   0  0  0  0  0  0  0  0  0  0  0  0
   10.3933  -17.7703   19.1870 C   0  0  0  0  0  0  0  0  0  0  0  0
    9.8548  -16.6387   18.9970 O   0  0  0  0  0  0  0  0  0  0  0  0
   10.0977  -18.4068   20.4238 N   0  0  0  0  0  0  0  0  0  0  0  0
    9.1074  -17.8231   21.3540 C   0  0  1  0  0  0  0  0  0  0  0  0
    7.9931  -18.8303   21.5751 C   0  0  0  0  0  0  0  0  0  0  0  0
    7.3082  -19.4362   20.0382 S   0  0  0  0  0  0  0  0  0  0  0  0
    9.7930  -17.4038   22.5757 C   0  0  0  0  0  0  0  0  0  0  0  0
   10.8585  -18.0278   22.9241 O   0  0  0  0  0  0  0  0  0  0  0  0
    9.4029  -16.3665   23.4280 N   0  0  0  0  0  0  0  0  0  0  0  0
   10.1067  -16.0803   24.6947 C   0  0  1  0  0  0  0  0  0  0  0  0
    9.7676  -14.6893   25.1027 C   0  0  0  0  0  0  0  0  0  0  0  0
    8.3754  -14.4587   25.5083 C   0  0  0  0  0  0  0  0  0  0  0  0
    7.4309  -15.4799   25.6563 C   0  0  0  0  0  0  0  0  0  0  0  0
    6.2773  -14.9379   26.0617 N   0  0  0  0  0  0  0  0  0  0  0  0
    6.4059  -13.6145   26.1895 C   0  0  0  0  0  0  0  0  0  0  0  0
    5.5028  -12.6571   26.5664 C   0  0  0  0  0  0  0  0  0  0  0  0
    5.9182  -11.3462   26.6001 C   0  0  0  0  0  0  0  0  0  0  0  0
    7.2095  -11.0330   26.2598 C   0  0  0  0  0  0  0  0  0  0  0  0
    8.1254  -11.9864   25.8800 C   0  0  0  0  0  0  0  0  0  0  0  0
    7.7112  -13.3128   25.8451 C   0  0  0  0  0  0  0  0  0  0  0  0
    9.9314  -17.1387   25.6811 C   0  0  0  0  0  0  0  0  0  0  0  0
    8.9990  -18.1560   25.6184 O   0  0  0  0  0  0  0  0  0  0  0  0
   10.6956  -17.1383   26.7007 O   0  0  0  0  0  0  0  0  0  0  0  0
  1  2  1  0
  2  4  1  0
  3  2  2  0
  4  5  1  0
  5  6  1  6
  7  8  2  0
  7  5  1  0
  9  7  1  0
 10 11  1  1
 10  9  1  0
 11 12  1  0
 13 10  1  0
 14 13  2  0
 15 13  1  0
 16 15  1  0
 16 17  1  1
 18 17  1  0
 19 18  2  0
 20 19  1  0
 21 20  1  0
 21 26  2  0
 22 23  2  0
 22 21  1  0
 23 24  1  0
 24 25  2  0
 26 25  1  0
 26 18  1  0
 27 16  1  0
 27 28  1  0
 29 27  2  0
M  END
$$$$
