NCW.pdb
     RDKit          3D

 29 30  0  0  1  0  0  0  0  0999 V2000
   14.2108  -17.1029   18.0203 N   0  0  0  0  0  0  0  0  0  0  0  0
   13.0199  -16.8048   17.3029 C   0  0  0  0  0  0  0  0  0  0  0  0
   13.0929  -16.7909   16.0480 O   0  0  0  0  0  0  0  0  0  0  0  0
   11.7250  -16.5154   17.9270 C   0  0  0  0  0  0  0  0  0  0  0  0
   10.9743  -17.7658   18.3257 C   0  0  2  0  0  0  0  0  0  0  0  0
   10.2578  -18.2745   17.1648 N   0  0  0  0  0  0  0  0  0  0  0  0
    9.9413  -17.3349   19.3212 C   0  0  0  0  0  0  0  0  0  0  0  0
    8.7525  -17.0587   18.9790 O   0  0  0  0  0  0  0  0  0  0  0  0
   10.2407  -17.2129   20.7060 N   0  0  0  0  0  0  0  0  0  0  0  0
    9.1748  -17.3468   21.7221 C   0  0  1  0  0  0  0  0  0  0  0  0
    8.4112  -18.6329   21.4616 C   0  0  0  0  0  0  0  0  0  0  0  0
    7.4148  -19.1286   22.8615 S   0  0  0  0  0  0  0  0  0  0  0  0
    9.7741  -17.2600   23.0533 C   0  0  0  0  0  0  0  0  0  0  0  0
   10.8321  -17.9447   23.2936 O   0  0  0  0  0  0  0  0  0  0  0  0
    9.3065  -16.4888   24.1216 N   0  0  0  0  0  0  0  0  0  0  0  0
   10.0419  -16.3825   25.3982 C   0  0  1  0  0  0  0  0  0  0  0  0
    9.7562  -15.0427   25.9810 C   0  0  0  0  0  0  0  0  0  0  0  0
    8.3415  -14.6538   26.0378 C   0  0  0  0  0  0  0  0  0  0  0  0
    7.2859  -15.5705   26.0851 C   0  0  0  0  0  0  0  0  0  0  0  0
    6.1356  -14.8923   26.1600 N   0  0  0  0  0  0  0  0  0  0  0  0
    6.3714  -13.5776   26.1642 C   0  0  0  0  0  0  0  0  0  0  0  0
    5.5138  -12.5119   26.2207 C   0  0  0  0  0  0  0  0  0  0  0  0
    6.0469  -11.2440   26.1990 C   0  0  0  0  0  0  0  0  0  0  0  0
    7.4064  -11.0792   26.1220 C   0  0  0  0  0  0  0  0  0  0  0  0
    8.2775  -12.1422   26.0650 C   0  0  0  0  0  0  0  0  0  0  0  0
    7.7442  -13.4256   26.0876 C   0  0  0  0  0  0  0  0  0  0  0  0
    9.8493  -17.5486   26.2510 C   0  0  0  0  0  0  0  0  0  0  0  0
   10.6264  -17.8907   27.3406 O   0  0  0  0  0  0  0  0  0  0  0  0
    8.8848  -18.3355   25.9788 O   0  0  0  0  0  0  0  0  0  0  0  0
  1  2  1  0
  2  4  1  0
  3  2  2  0
  4  5  1  0
  5  6  1  6
  7  8  2  0
  7  5  1  0
  9  7  1  0
 10 11  1  1
 10  9  1  0
 11 12  1  0
 13 10  1  0
 14 13  2  0
 15 13  1  0
 16 15  1  0
 16 17  1  1
 18 17  1  0
 19 18  2  0
 20 19  1  0
 21 20  1  0
 21 26  2  0
 22 23  2  0
 22 21  1  0
 23 24  1  0
 24 25  2  0
 26 25  1  0
 26 18  1  0
 27 16  1  0
 27 28  1  0
 29 27  2  0
M  END
$$$$
