HIF.pdb
     RDKit          3D

 30 31  0  0  1  0  0  0  0  0999 V2000
    8.2498  -17.2481   20.3265 N   0  0  0  0  0  0  0  0  0  0  0  0
    8.7477  -16.2130   21.2058 C   0  0  1  0  0  0  0  0  0  0  0  0
    7.7089  -15.1178   21.3201 C   0  0  0  0  0  0  0  0  0  0  0  0
    7.8593  -14.1871   20.1825 C   0  0  0  0  0  0  0  0  0  0  0  0
    8.7418  -14.2285   19.1102 C   0  0  0  0  0  0  0  0  0  0  0  0
    8.4734  -13.1479   18.3477 N   0  0  0  0  0  0  0  0  0  0  0  0
    7.4741  -12.4491   18.8976 C   0  0  0  0  0  0  0  0  0  0  0  0
    7.0944  -13.0765   20.0167 N   0  0  0  0  0  0  0  0  0  0  0  0
    9.0137  -16.8390   22.5272 C   0  0  0  0  0  0  0  0  0  0  0  0
    8.1637  -17.6726   22.9885 O   0  0  0  0  0  0  0  0  0  0  0  0
   13.1782  -19.6351   23.0124 C   0  0  0  0  0  0  0  0  0  0  0  0
   11.8018  -19.0262   23.2172 C   0  0  0  0  0  0  0  0  0  0  0  0
   11.8085  -18.0019   24.3185 C   0  0  2  0  0  0  0  0  0  0  0  0
   12.4482  -18.5326   25.5807 C   0  0  0  0  0  0  0  0  0  0  0  0
   10.5174  -17.2878   24.5269 C   0  0  2  0  0  0  0  0  0  0  0  0
   10.1694  -16.5424   23.2838 N   0  0  0  0  0  0  0  0  0  0  0  0
   10.4990  -16.3041   25.6358 C   0  0  0  0  0  0  0  0  0  0  0  0
   11.2455  -15.2598   25.5676 O   0  0  0  0  0  0  0  0  0  0  0  0
    9.7215  -16.3861   26.8026 N   0  0  0  0  0  0  0  0  0  0  0  0
    9.8785  -15.4303   27.9186 C   0  0  1  0  0  0  0  0  0  0  0  0
    8.5651  -14.7478   28.1990 C   0  0  0  0  0  0  0  0  0  0  0  0
    8.0886  -13.8696   27.1413 C   0  0  0  0  0  0  0  0  0  0  0  0
    7.0698  -14.2468   26.2873 C   0  0  0  0  0  0  0  0  0  0  0  0
    6.6125  -13.4086   25.2877 C   0  0  0  0  0  0  0  0  0  0  0  0
    7.1822  -12.1664   25.1343 C   0  0  0  0  0  0  0  0  0  0  0  0
    8.2010  -11.7570   25.9686 C   0  0  0  0  0  0  0  0  0  0  0  0
    8.6386  -12.6225   26.9642 C   0  0  0  0  0  0  0  0  0  0  0  0
   10.4558  -16.1062   29.0957 C   0  0  0  0  0  0  0  0  0  0  0  0
   10.6070  -17.4723   29.0875 O   0  0  0  0  0  0  0  0  0  0  0  0
   10.8032  -15.4459   30.0883 O   0  0  0  0  0  0  0  0  0  0  0  0
  2  3  1  0
  2  1  1  6
  3  4  1  0
  4  8  1  0
  4  5  2  0
  5  6  1  0
  7  6  1  0
  8  7  2  0
  9  2  1  0
 10  9  2  0
 12 13  1  0
 12 11  1  0
 13 14  1  1
 13 15  1  0
 15 16  1  6
 16  9  1  0
 17 15  1  0
 17 18  2  0
 19 17  1  0
 20 19  1  0
 20 21  1  1
 22 21  1  0
 22 27  1  0
 23 22  2  0
 24 23  1  0
 24 25  2  0
 25 26  1  0
 26 27  2  0
 28 20  1  0
 29 28  1  0
 30 28  2  0
M  END
$$$$
