HIF.pdb
     RDKit          3D

 30 31  0  0  1  0  0  0  0  0999 V2000
    6.5281  -18.5953   18.9912 N   0  0  0  0  0  0  0  0  0  0  0  0
    6.1362  -17.9140   20.2055 C   0  0  1  0  0  0  0  0  0  0  0  0
    5.8133  -18.9422   21.2686 C   0  0  0  0  0  0  0  0  0  0  0  0
    4.5588  -19.6342   20.9078 C   0  0  0  0  0  0  0  0  0  0  0  0
    3.4406  -19.1558   20.2362 C   0  0  0  0  0  0  0  0  0  0  0  0
    2.5683  -20.1826   20.1590 N   0  0  0  0  0  0  0  0  0  0  0  0
    3.0946  -21.2623   20.7477 C   0  0  0  0  0  0  0  0  0  0  0  0
    4.3082  -20.9357   21.2067 N   0  0  0  0  0  0  0  0  0  0  0  0
    7.2734  -17.0524   20.6215 C   0  0  0  0  0  0  0  0  0  0  0  0
    8.4617  -17.4863   20.4479 O   0  0  0  0  0  0  0  0  0  0  0  0
    7.7133  -12.0970   19.0772 C   0  0  0  0  0  0  0  0  0  0  0  0
    8.0724  -13.4874   19.5719 C   0  0  0  0  0  0  0  0  0  0  0  0
    8.0601  -13.5603   21.0741 C   0  0  2  0  0  0  0  0  0  0  0  0
    8.9442  -12.5057   21.6988 C   0  0  0  0  0  0  0  0  0  0  0  0
    8.2239  -14.9277   21.6431 C   0  0  2  0  0  0  0  0  0  0  0  0
    7.0824  -15.7774   21.1993 N   0  0  0  0  0  0  0  0  0  0  0  0
    8.2673  -15.0069   23.1227 C   0  0  0  0  0  0  0  0  0  0  0  0
    7.6505  -14.1221   23.8220 O   0  0  0  0  0  0  0  0  0  0  0  0
    8.9329  -15.9843   23.8804 N   0  0  0  0  0  0  0  0  0  0  0  0
    8.9696  -15.9418   25.3572 C   0  0  1  0  0  0  0  0  0  0  0  0
    7.5825  -15.7146   25.8991 C   0  0  0  0  0  0  0  0  0  0  0  0
    7.3095  -14.3566   26.3446 C   0  0  0  0  0  0  0  0  0  0  0  0
    6.0268  -13.9295   26.6305 C   0  0  0  0  0  0  0  0  0  0  0  0
    5.7695  -12.6414   27.0612 C   0  0  0  0  0  0  0  0  0  0  0  0
    6.8127  -11.7580   27.2109 C   0  0  0  0  0  0  0  0  0  0  0  0
    8.1056  -12.1500   26.9347 C   0  0  0  0  0  0  0  0  0  0  0  0
    8.3319  -13.4518   26.5035 C   0  0  0  0  0  0  0  0  0  0  0  0
    9.6202  -17.1539   25.8895 C   0  0  0  0  0  0  0  0  0  0  0  0
    9.9395  -18.1831   25.0361 O   0  0  0  0  0  0  0  0  0  0  0  0
    9.8782  -17.2446   27.1007 O   0  0  0  0  0  0  0  0  0  0  0  0
  2  3  1  0
  2  1  1  6
  3  4  1  0
  4  8  1  0
  4  5  2  0
  5  6  1  0
  7  6  1  0
  8  7  2  0
  9  2  1  0
 10  9  2  0
 12 13  1  0
 12 11  1  0
 13 14  1  1
 13 15  1  0
 15 16  1  1
 16  9  1  0
 17 15  1  0
 17 18  2  0
 19 17  1  0
 20 19  1  0
 20 21  1  1
 22 21  1  0
 22 27  1  0
 23 22  2  0
 24 23  1  0
 24 25  2  0
 25 26  1  0
 26 27  2  0
 28 20  1  0
 29 28  1  0
 30 28  2  0
M  END
$$$$
