HIF.pdb
     RDKit          3D

 30 31  0  0  1  0  0  0  0  0999 V2000
   12.0268  -16.5676   18.2469 N   0  0  0  0  0  0  0  0  0  0  0  0
   11.3113  -17.3304   19.2462 C   0  0  1  0  0  0  0  0  0  0  0  0
   12.2172  -18.4189   19.7812 C   0  0  0  0  0  0  0  0  0  0  0  0
   12.3298  -19.4938   18.7739 C   0  0  0  0  0  0  0  0  0  0  0  0
   11.5267  -20.6090   18.5696 C   0  0  0  0  0  0  0  0  0  0  0  0
   12.0545  -21.2780   17.5233 N   0  0  0  0  0  0  0  0  0  0  0  0
   13.1371  -20.6307   17.0781 C   0  0  0  0  0  0  0  0  0  0  0  0
   13.3113  -19.5417   17.8356 N   0  0  0  0  0  0  0  0  0  0  0  0
   10.9103  -16.3893   20.3243 C   0  0  0  0  0  0  0  0  0  0  0  0
   11.8098  -15.6599   20.8620 O   0  0  0  0  0  0  0  0  0  0  0  0
    7.1617  -13.0270   19.2014 C   0  0  0  0  0  0  0  0  0  0  0  0
    8.3771  -13.6944   19.8214 C   0  0  0  0  0  0  0  0  0  0  0  0
    8.0179  -14.4415   21.0763 C   0  0  2  0  0  0  0  0  0  0  0  0
    7.2186  -13.5878   22.0336 C   0  0  0  0  0  0  0  0  0  0  0  0
    9.1361  -15.2009   21.7032 C   0  0  2  0  0  0  0  0  0  0  0  0
    9.5743  -16.2775   20.7701 N   0  0  0  0  0  0  0  0  0  0  0  0
    8.8231  -15.8553   22.9960 C   0  0  0  0  0  0  0  0  0  0  0  0
    8.4317  -17.0797   23.0068 O   0  0  0  0  0  0  0  0  0  0  0  0
    8.9128  -15.2639   24.2667 N   0  0  0  0  0  0  0  0  0  0  0  0
    8.7265  -16.0420   25.5091 C   0  0  1  0  0  0  0  0  0  0  0  0
    8.7908  -15.1260   26.7034 C   0  0  0  0  0  0  0  0  0  0  0  0
    7.8948  -13.9809   26.6509 C   0  0  0  0  0  0  0  0  0  0  0  0
    8.3694  -12.6840   26.6976 C   0  0  0  0  0  0  0  0  0  0  0  0
    7.5179  -11.5965   26.6398 C   0  0  0  0  0  0  0  0  0  0  0  0
    6.1627  -11.8046   26.5330 C   0  0  0  0  0  0  0  0  0  0  0  0
    5.6541  -13.0854   26.4838 C   0  0  0  0  0  0  0  0  0  0  0  0
    6.5360  -14.1579   26.5440 C   0  0  0  0  0  0  0  0  0  0  0  0
    7.4835  -16.8329   25.4379 C   0  0  0  0  0  0  0  0  0  0  0  0
    7.3311  -17.9321   26.2491 O   0  0  0  0  0  0  0  0  0  0  0  0
    6.5801  -16.5085   24.6502 O   0  0  0  0  0  0  0  0  0  0  0  0
  2  3  1  0
  2  1  1  6
  3  4  1  0
  4  8  1  0
  4  5  2  0
  5  6  1  0
  7  6  1  0
  8  7  2  0
  9  2  1  0
 10  9  2  0
 12 13  1  0
 12 11  1  0
 13 14  1  1
 13 15  1  0
 15 16  1  6
 16  9  1  0
 17 15  1  0
 17 18  2  0
 19 17  1  0
 20 19  1  0
 20 21  1  1
 22 21  1  0
 22 27  1  0
 23 22  2  0
 24 23  1  0
 24 25  2  0
 25 26  1  0
 26 27  2  0
 28 20  1  0
 29 28  1  0
 30 28  2  0
M  END
$$$$
