HIF.pdb
     RDKit          3D

 30 31  0  0  1  0  0  0  0  0999 V2000
   11.5450  -15.3931   14.6549 N   0  0  0  0  0  0  0  0  0  0  0  0
   10.6682  -16.0916   15.5692 C   0  0  1  0  0  0  0  0  0  0  0  0
   11.0753  -17.5484   15.6307 C   0  0  0  0  0  0  0  0  0  0  0  0
   10.3341  -18.3023   14.5988 C   0  0  0  0  0  0  0  0  0  0  0  0
   10.8009  -18.9398   13.4559 C   0  0  0  0  0  0  0  0  0  0  0  0
    9.7241  -19.4819   12.8496 N   0  0  0  0  0  0  0  0  0  0  0  0
    8.6249  -19.2093   13.5614 C   0  0  0  0  0  0  0  0  0  0  0  0
    8.9889  -18.4904   14.6296 N   0  0  0  0  0  0  0  0  0  0  0  0
   10.8003  -15.4419   16.8992 C   0  0  0  0  0  0  0  0  0  0  0  0
   11.9601  -15.0713   17.2837 O   0  0  0  0  0  0  0  0  0  0  0  0
    6.4446  -12.7313   18.8873 C   0  0  0  0  0  0  0  0  0  0  0  0
    7.8870  -13.0410   18.5259 C   0  0  0  0  0  0  0  0  0  0  0  0
    8.4988  -14.0238   19.4861 C   0  0  2  0  0  0  0  0  0  0  0  0
    8.4283  -13.5371   20.9152 C   0  0  0  0  0  0  0  0  0  0  0  0
    9.8249  -14.5666   19.0773 C   0  0  2  0  0  0  0  0  0  0  0  0
    9.6905  -15.2232   17.7458 N   0  0  0  0  0  0  0  0  0  0  0  0
   10.4179  -15.5708   19.9925 C   0  0  0  0  0  0  0  0  0  0  0  0
   10.2883  -16.8222   19.7282 O   0  0  0  0  0  0  0  0  0  0  0  0
   11.1399  -15.2977   21.1657 N   0  0  0  0  0  0  0  0  0  0  0  0
   11.8956  -16.3452   21.8837 C   0  0  1  0  0  0  0  0  0  0  0  0
   12.8787  -17.0010   20.9493 C   0  0  0  0  0  0  0  0  0  0  0  0
   13.8889  -16.1127   20.3950 C   0  0  0  0  0  0  0  0  0  0  0  0
   14.9202  -15.6130   21.1672 C   0  0  0  0  0  0  0  0  0  0  0  0
   15.8839  -14.7754   20.6377 C   0  0  0  0  0  0  0  0  0  0  0  0
   15.8199  -14.4268   19.3089 C   0  0  0  0  0  0  0  0  0  0  0  0
   14.8048  -14.9069   18.5087 C   0  0  0  0  0  0  0  0  0  0  0  0
   13.8509  -15.7472   19.0705 C   0  0  0  0  0  0  0  0  0  0  0  0
   12.5180  -15.7873   23.0990 C   0  0  0  0  0  0  0  0  0  0  0  0
   12.3970  -14.4448   23.3682 O   0  0  0  0  0  0  0  0  0  0  0  0
   13.1476  -16.5250   23.8744 O   0  0  0  0  0  0  0  0  0  0  0  0
  2  3  1  0
  2  1  1  6
  3  4  1  0
  4  8  1  0
  4  5  2  0
  5  6  1  0
  7  6  1  0
  8  7  2  0
  9  2  1  0
 10  9  2  0
 12 13  1  0
 12 11  1  0
 13 14  1  1
 13 15  1  0
 15 16  1  6
 16  9  1  0
 17 15  1  0
 17 18  2  0
 19 17  1  0
 20 19  1  0
 20 21  1  6
 22 21  1  0
 22 27  1  0
 23 22  2  0
 24 23  1  0
 24 25  2  0
 25 26  1  0
 26 27  2  0
 28 20  1  0
 29 28  1  0
 30 28  2  0
M  END
$$$$
