HIF.pdb
     RDKit          3D

 30 31  0  0  1  0  0  0  0  0999 V2000
    6.8847  -16.5962   19.4781 N   0  0  0  0  0  0  0  0  0  0  0  0
    7.4337  -15.6548   20.4293 C   0  0  1  0  0  0  0  0  0  0  0  0
    6.9439  -14.2635   20.0887 C   0  0  0  0  0  0  0  0  0  0  0  0
    7.5297  -13.8463   18.7981 C   0  0  0  0  0  0  0  0  0  0  0  0
    8.5600  -12.9514   18.5369 C   0  0  0  0  0  0  0  0  0  0  0  0
    8.7149  -12.9221   17.1966 N   0  0  0  0  0  0  0  0  0  0  0  0
    7.8341  -13.7514   16.6259 C   0  0  0  0  0  0  0  0  0  0  0  0
    7.1079  -14.3186   17.5960 N   0  0  0  0  0  0  0  0  0  0  0  0
    6.9761  -16.0676   21.7816 C   0  0  0  0  0  0  0  0  0  0  0  0
    5.8747  -15.5955   22.2225 O   0  0  0  0  0  0  0  0  0  0  0  0
    5.7827  -20.2090   23.3388 C   0  0  0  0  0  0  0  0  0  0  0  0
    5.7486  -18.7624   23.8006 C   0  0  0  0  0  0  0  0  0  0  0  0
    7.0426  -18.3595   24.4528 C   0  0  2  0  0  0  0  0  0  0  0  0
    7.0363  -18.6339   25.9391 C   0  0  0  0  0  0  0  0  0  0  0  0
    7.5523  -17.0128   24.0699 C   0  0  2  0  0  0  0  0  0  0  0  0
    7.7165  -16.9595   22.5893 N   0  0  0  0  0  0  0  0  0  0  0  0
    8.8566  -16.6277   24.6599 C   0  0  0  0  0  0  0  0  0  0  0  0
    9.6085  -15.7893   24.0401 O   0  0  0  0  0  0  0  0  0  0  0  0
    9.3858  -17.0935   25.8746 N   0  0  0  0  0  0  0  0  0  0  0  0
   10.6957  -16.6385   26.3855 C   0  0  1  0  0  0  0  0  0  0  0  0
   10.7535  -15.1331   26.3824 C   0  0  0  0  0  0  0  0  0  0  0  0
    9.7963  -14.4777   27.2606 C   0  0  0  0  0  0  0  0  0  0  0  0
    9.9778  -14.4336   28.6297 C   0  0  0  0  0  0  0  0  0  0  0  0
    9.0718  -13.8039   29.4625 C   0  0  0  0  0  0  0  0  0  0  0  0
    7.9593  -13.2043   28.9202 C   0  0  0  0  0  0  0  0  0  0  0  0
    7.7462  -13.2289   27.5580 C   0  0  0  0  0  0  0  0  0  0  0  0
    8.6755  -13.8698   26.7473 C   0  0  0  0  0  0  0  0  0  0  0  0
   10.9676  -17.2371   27.7058 C   0  0  0  0  0  0  0  0  0  0  0  0
   10.0377  -18.0733   28.2763 O   0  0  0  0  0  0  0  0  0  0  0  0
   12.0297  -16.9877   28.2989 O   0  0  0  0  0  0  0  0  0  0  0  0
  2  3  1  0
  2  1  1  6
  3  4  1  0
  4  8  1  0
  4  5  2  0
  5  6  1  0
  7  6  1  0
  8  7  2  0
  9  2  1  0
 10  9  2  0
 12 13  1  0
 12 11  1  0
 13 14  1  1
 13 15  1  0
 15 16  1  6
 16  9  1  0
 17 15  1  0
 17 18  2  0
 19 17  1  0
 20 19  1  0
 20 21  1  1
 22 21  1  0
 22 27  1  0
 23 22  2  0
 24 23  1  0
 24 25  2  0
 25 26  1  0
 26 27  2  0
 28 20  1  0
 29 28  1  0
 30 28  2  0
M  END
$$$$
