HIF.pdb
     RDKit          3D

 30 31  0  0  1  0  0  0  0  0999 V2000
    9.0837  -15.3776   20.5973 N   0  0  0  0  0  0  0  0  0  0  0  0
    8.3034  -15.9123   21.6916 C   0  0  1  0  0  0  0  0  0  0  0  0
    8.4789  -17.4152   21.7375 C   0  0  0  0  0  0  0  0  0  0  0  0
    7.7481  -18.0229   20.6064 C   0  0  0  0  0  0  0  0  0  0  0  0
    6.9490  -17.4250   19.6397 C   0  0  0  0  0  0  0  0  0  0  0  0
    6.5148  -18.4149   18.8319 N   0  0  0  0  0  0  0  0  0  0  0  0
    7.0062  -19.5852   19.2540 C   0  0  0  0  0  0  0  0  0  0  0  0
    7.7592  -19.3543   20.3356 N   0  0  0  0  0  0  0  0  0  0  0  0
    8.7940  -15.2773   22.9424 C   0  0  0  0  0  0  0  0  0  0  0  0
   10.0129  -14.9013   22.9972 O   0  0  0  0  0  0  0  0  0  0  0  0
    5.7220  -11.7983   25.5654 C   0  0  0  0  0  0  0  0  0  0  0  0
    6.8971  -12.5502   24.9647 C   0  0  0  0  0  0  0  0  0  0  0  0
    7.4269  -13.5940   25.9091 C   0  0  2  0  0  0  0  0  0  0  0  0
    7.7661  -13.0124   27.2622 C   0  0  0  0  0  0  0  0  0  0  0  0
    8.4685  -14.4938   25.3386 C   0  0  2  0  0  0  0  0  0  0  0  0
    7.9598  -15.0783   24.0652 N   0  0  0  0  0  0  0  0  0  0  0  0
    8.8771  -15.6301   26.1987 C   0  0  0  0  0  0  0  0  0  0  0  0
    8.0096  -16.5213   26.5236 O   0  0  0  0  0  0  0  0  0  0  0  0
   10.1621  -15.8546   26.7190 N   0  0  0  0  0  0  0  0  0  0  0  0
   10.4708  -17.0224   27.5703 C   0  0  1  0  0  0  0  0  0  0  0  0
   11.6661  -17.7567   27.0213 C   0  0  0  0  0  0  0  0  0  0  0  0
   11.5977  -18.0719   25.6025 C   0  0  0  0  0  0  0  0  0  0  0  0
   12.2373  -17.2967   24.6541 C   0  0  0  0  0  0  0  0  0  0  0  0
   12.1782  -17.6015   23.3070 C   0  0  0  0  0  0  0  0  0  0  0  0
   11.4661  -18.7032   22.8943 C   0  0  0  0  0  0  0  0  0  0  0  0
   10.8154  -19.4992   23.8132 C   0  0  0  0  0  0  0  0  0  0  0  0
   10.8938  -19.1665   25.1604 C   0  0  0  0  0  0  0  0  0  0  0  0
   10.6286  -16.6052   28.9763 C   0  0  0  0  0  0  0  0  0  0  0  0
   10.5605  -15.2710   29.2999 O   0  0  0  0  0  0  0  0  0  0  0  0
   10.8220  -17.4532   29.8625 O   0  0  0  0  0  0  0  0  0  0  0  0
  2  3  1  0
  2  1  1  6
  3  4  1  0
  4  8  1  0
  4  5  2  0
  5  6  1  0
  7  6  1  0
  8  7  2  0
  9  2  1  0
 10  9  2  0
 12 13  1  0
 12 11  1  0
 13 14  1  1
 13 15  1  0
 15 16  1  6
 16  9  1  0
 17 15  1  0
 17 18  2  0
 19 17  1  0
 20 19  1  0
 20 21  1  6
 22 21  1  0
 22 27  1  0
 23 22  2  0
 24 23  1  0
 24 25  2  0
 25 26  1  0
 26 27  2  0
 28 20  1  0
 29 28  1  0
 30 28  2  0
M  END
$$$$
