HIF.pdb
     RDKit          3D

 30 31  0  0  1  0  0  0  0  0999 V2000
   10.2454  -18.2459   18.4499 N   0  0  0  0  0  0  0  0  0  0  0  0
    9.1836  -18.1628   19.4287 C   0  0  1  0  0  0  0  0  0  0  0  0
    9.1742  -19.4290   20.2584 C   0  0  0  0  0  0  0  0  0  0  0  0
    8.6987  -20.5514   19.4237 C   0  0  0  0  0  0  0  0  0  0  0  0
    8.4000  -20.5868   18.0673 C   0  0  0  0  0  0  0  0  0  0  0  0
    8.0075  -21.8481   17.7915 N   0  0  0  0  0  0  0  0  0  0  0  0
    8.0507  -22.5845   18.9073 C   0  0  0  0  0  0  0  0  0  0  0  0
    8.4713  -21.8008   19.9068 N   0  0  0  0  0  0  0  0  0  0  0  0
    9.4481  -16.9700   20.2748 C   0  0  0  0  0  0  0  0  0  0  0  0
   10.6577  -16.5955   20.4387 O   0  0  0  0  0  0  0  0  0  0  0  0
    7.1384  -12.3851   19.5163 C   0  0  0  0  0  0  0  0  0  0  0  0
    8.1086  -13.4768   19.9336 C   0  0  0  0  0  0  0  0  0  0  0  0
    7.8648  -13.9216   21.3495 C   0  0  2  0  0  0  0  0  0  0  0  0
    7.8417  -12.7568   22.3122 C   0  0  0  0  0  0  0  0  0  0  0  0
    8.6818  -15.0843   21.7975 C   0  0  2  0  0  0  0  0  0  0  0  0
    8.4103  -16.2426   20.8993 N   0  0  0  0  0  0  0  0  0  0  0  0
    8.4328  -15.5489   23.1831 C   0  0  0  0  0  0  0  0  0  0  0  0
    7.3315  -16.1514   23.4600 O   0  0  0  0  0  0  0  0  0  0  0  0
    9.3037  -15.4015   24.2750 N   0  0  0  0  0  0  0  0  0  0  0  0
    8.9826  -15.9405   25.6130 C   0  0  1  0  0  0  0  0  0  0  0  0
    7.5503  -15.6299   25.9616 C   0  0  0  0  0  0  0  0  0  0  0  0
    7.2696  -14.2260   26.2213 C   0  0  0  0  0  0  0  0  0  0  0  0
    8.2301  -13.3757   26.7349 C   0  0  0  0  0  0  0  0  0  0  0  0
    7.9648  -12.0402   26.9739 C   0  0  0  0  0  0  0  0  0  0  0  0
    6.7147  -11.5395   26.6954 C   0  0  0  0  0  0  0  0  0  0  0  0
    5.7319  -12.3593   26.1820 C   0  0  0  0  0  0  0  0  0  0  0  0
    6.0297  -13.6974   25.9527 C   0  0  0  0  0  0  0  0  0  0  0  0
    9.3080  -17.3777   25.6789 C   0  0  0  0  0  0  0  0  0  0  0  0
    9.2582  -18.0300   26.8877 O   0  0  0  0  0  0  0  0  0  0  0  0
    9.6250  -17.9951   24.6492 O   0  0  0  0  0  0  0  0  0  0  0  0
  2  3  1  0
  2  1  1  6
  3  4  1  0
  4  8  1  0
  4  5  2  0
  5  6  1  0
  7  6  1  0
  8  7  2  0
  9  2  1  0
 10  9  2  0
 12 13  1  0
 12 11  1  0
 13 14  1  1
 13 15  1  0
 15 16  1  6
 16  9  1  0
 17 15  1  0
 17 18  2  0
 19 17  1  0
 20 19  1  0
 20 21  1  6
 22 21  1  0
 22 27  1  0
 23 22  2  0
 24 23  1  0
 24 25  2  0
 25 26  1  0
 26 27  2  0
 28 20  1  0
 29 28  1  0
 30 28  2  0
M  END
$$$$
