HIF.pdb
     RDKit          3D

 30 31  0  0  1  0  0  0  0  0999 V2000
    9.3932  -17.5057   18.0179 N   0  0  0  0  0  0  0  0  0  0  0  0
   10.0604  -17.7889   19.2697 C   0  0  1  0  0  0  0  0  0  0  0  0
   11.4223  -17.1279   19.2661 C   0  0  0  0  0  0  0  0  0  0  0  0
   12.4176  -18.0726   18.7187 C   0  0  0  0  0  0  0  0  0  0  0  0
   12.2887  -19.4216   18.4119 C   0  0  0  0  0  0  0  0  0  0  0  0
   13.4866  -19.8261   17.9404 N   0  0  0  0  0  0  0  0  0  0  0  0
   14.3399  -18.7960   17.9432 C   0  0  0  0  0  0  0  0  0  0  0  0
   13.6953  -17.7233   18.4164 N   0  0  0  0  0  0  0  0  0  0  0  0
    9.2074  -17.2523   20.3620 C   0  0  0  0  0  0  0  0  0  0  0  0
    8.7385  -16.0706   20.2441 O   0  0  0  0  0  0  0  0  0  0  0  0
    5.1628  -20.0385   22.0130 C   0  0  0  0  0  0  0  0  0  0  0  0
    6.0516  -18.8456   21.7058 C   0  0  0  0  0  0  0  0  0  0  0  0
    6.9483  -18.5109   22.8659 C   0  0  2  0  0  0  0  0  0  0  0  0
    6.1652  -18.2797   24.1377 C   0  0  0  0  0  0  0  0  0  0  0  0
    7.9941  -17.4878   22.5833 C   0  0  2  0  0  0  0  0  0  0  0  0
    8.9016  -18.0033   21.5190 N   0  0  0  0  0  0  0  0  0  0  0  0
    8.8517  -17.1111   23.7323 C   0  0  0  0  0  0  0  0  0  0  0  0
    9.8425  -17.8636   24.0556 O   0  0  0  0  0  0  0  0  0  0  0  0
    8.6992  -15.9734   24.5414 N   0  0  0  0  0  0  0  0  0  0  0  0
    9.6899  -15.6073   25.5750 C   0  0  1  0  0  0  0  0  0  0  0  0
    9.7214  -14.1113   25.7494 C   0  0  0  0  0  0  0  0  0  0  0  0
    8.4423  -13.5023   26.0813 C   0  0  0  0  0  0  0  0  0  0  0  0
    7.4092  -13.4367   25.1658 C   0  0  0  0  0  0  0  0  0  0  0  0
    6.1917  -12.8650   25.4846 C   0  0  0  0  0  0  0  0  0  0  0  0
    5.9977  -12.3464   26.7435 C   0  0  0  0  0  0  0  0  0  0  0  0
    7.0067  -12.3947   27.6822 C   0  0  0  0  0  0  0  0  0  0  0  0
    8.2193  -12.9761   27.3313 C   0  0  0  0  0  0  0  0  0  0  0  0
    9.4221  -16.3420   26.8257 C   0  0  0  0  0  0  0  0  0  0  0  0
    8.2731  -17.0875   26.9420 O   0  0  0  0  0  0  0  0  0  0  0  0
   10.2290  -16.2878   27.7680 O   0  0  0  0  0  0  0  0  0  0  0  0
  2  3  1  0
  2  1  1  6
  3  4  1  0
  4  8  1  0
  4  5  2  0
  5  6  1  0
  7  6  1  0
  8  7  2  0
  9  2  1  0
 10  9  2  0
 12 13  1  0
 12 11  1  0
 13 14  1  1
 13 15  1  0
 15 16  1  6
 16  9  1  0
 17 15  1  0
 17 18  2  0
 19 17  1  0
 20 19  1  0
 20 21  1  1
 22 21  1  0
 22 27  1  0
 23 22  2  0
 24 23  1  0
 24 25  2  0
 25 26  1  0
 26 27  2  0
 28 20  1  0
 29 28  1  0
 30 28  2  0
M  END
$$$$
