HIF.pdb
     RDKit          3D

 30 31  0  0  1  0  0  0  0  0999 V2000
   10.3348  -19.0913   18.7804 N   0  0  0  0  0  0  0  0  0  0  0  0
    9.3770  -18.9313   19.8525 C   0  0  1  0  0  0  0  0  0  0  0  0
    9.5786  -20.0372   20.8663 C   0  0  0  0  0  0  0  0  0  0  0  0
    8.9291  -21.2696   20.3742 C   0  0  0  0  0  0  0  0  0  0  0  0
    8.2371  -21.4988   19.1914 C   0  0  0  0  0  0  0  0  0  0  0  0
    7.8422  -22.7889   19.2193 N   0  0  0  0  0  0  0  0  0  0  0  0
    8.2563  -23.3594   20.3561 C   0  0  0  0  0  0  0  0  0  0  0  0
    8.9198  -22.4392   21.0655 N   0  0  0  0  0  0  0  0  0  0  0  0
    9.6086  -17.5962   20.4630 C   0  0  0  0  0  0  0  0  0  0  0  0
   10.8098  -17.1791   20.5781 O   0  0  0  0  0  0  0  0  0  0  0  0
    7.1931  -12.0492   20.8988 C   0  0  0  0  0  0  0  0  0  0  0  0
    8.1637  -13.0409   21.5167 C   0  0  0  0  0  0  0  0  0  0  0  0
    7.9256  -14.4368   21.0100 C   0  0  2  0  0  0  0  0  0  0  0  0
    6.4538  -14.7766   20.9591 C   0  0  0  0  0  0  0  0  0  0  0  0
    8.7871  -15.4878   21.6211 C   0  0  2  0  0  0  0  0  0  0  0  0
    8.5486  -16.7799   20.9171 N   0  0  0  0  0  0  0  0  0  0  0  0
    8.5669  -15.7395   23.0653 C   0  0  0  0  0  0  0  0  0  0  0  0
    7.5205  -16.3838   23.4428 O   0  0  0  0  0  0  0  0  0  0  0  0
    9.4109  -15.3387   24.1138 N   0  0  0  0  0  0  0  0  0  0  0  0
    9.0758  -15.5911   25.5308 C   0  0  1  0  0  0  0  0  0  0  0  0
    7.6967  -15.0661   25.8338 C   0  0  0  0  0  0  0  0  0  0  0  0
    7.6198  -13.6312   26.0627 C   0  0  0  0  0  0  0  0  0  0  0  0
    6.4082  -12.9805   26.1969 C   0  0  0  0  0  0  0  0  0  0  0  0
    6.3365  -11.6185   26.4221 C   0  0  0  0  0  0  0  0  0  0  0  0
    7.4973  -10.8872   26.5159 C   0  0  0  0  0  0  0  0  0  0  0  0
    8.7240  -11.5037   26.3870 C   0  0  0  0  0  0  0  0  0  0  0  0
    8.7630  -12.8745   26.1612 C   0  0  0  0  0  0  0  0  0  0  0  0
    9.2472  -17.0205   25.8520 C   0  0  0  0  0  0  0  0  0  0  0  0
    9.5582  -17.3946   27.1376 O   0  0  0  0  0  0  0  0  0  0  0  0
    9.1116  -17.8810   24.9671 O   0  0  0  0  0  0  0  0  0  0  0  0
  2  3  1  0
  2  1  1  6
  3  4  1  0
  4  8  1  0
  4  5  2  0
  5  6  1  0
  7  6  1  0
  8  7  2  0
  9  2  1  0
 10  9  2  0
 12 13  1  0
 12 11  1  0
 13 14  1  1
 13 15  1  0
 15 16  1  6
 16  9  1  0
 17 15  1  0
 17 18  2  0
 19 17  1  0
 20 19  1  0
 20 21  1  6
 22 21  1  0
 22 27  1  0
 23 22  2  0
 24 23  1  0
 24 25  2  0
 25 26  1  0
 26 27  2  0
 28 20  1  0
 29 28  1  0
 30 28  2  0
M  END
$$$$
