HIF.pdb
     RDKit          3D

 30 31  0  0  1  0  0  0  0  0999 V2000
   10.9711  -17.9961   19.3277 N   0  0  0  0  0  0  0  0  0  0  0  0
   11.9383  -17.3680   20.2008 C   0  0  1  0  0  0  0  0  0  0  0  0
   12.9662  -16.6410   19.3602 C   0  0  0  0  0  0  0  0  0  0  0  0
   14.0227  -17.5919   18.9577 C   0  0  0  0  0  0  0  0  0  0  0  0
   14.4395  -18.7687   19.5674 C   0  0  0  0  0  0  0  0  0  0  0  0
   15.4354  -19.2666   18.8049 N   0  0  0  0  0  0  0  0  0  0  0  0
   15.6487  -18.4563   17.7622 C   0  0  0  0  0  0  0  0  0  0  0  0
   14.7911  -17.4329   17.8485 N   0  0  0  0  0  0  0  0  0  0  0  0
   11.2001  -16.4237   21.0795 C   0  0  0  0  0  0  0  0  0  0  0  0
   11.8597  -15.7523   21.9423 O   0  0  0  0  0  0  0  0  0  0  0  0
    6.9119  -13.6509   19.1297 C   0  0  0  0  0  0  0  0  0  0  0  0
    8.1743  -13.9773   19.9088 C   0  0  0  0  0  0  0  0  0  0  0  0
    7.8706  -14.7851   21.1406 C   0  0  2  0  0  0  0  0  0  0  0  0
    6.8329  -14.1173   22.0133 C   0  0  0  0  0  0  0  0  0  0  0  0
    9.0635  -15.2974   21.8718 C   0  0  2  0  0  0  0  0  0  0  0  0
    9.8012  -16.2471   20.9910 N   0  0  0  0  0  0  0  0  0  0  0  0
    8.7816  -16.0170   23.1369 C   0  0  0  0  0  0  0  0  0  0  0  0
    8.7383  -17.3018   23.1377 O   0  0  0  0  0  0  0  0  0  0  0  0
    8.5493  -15.4281   24.3905 N   0  0  0  0  0  0  0  0  0  0  0  0
    8.3927  -16.2343   25.6191 C   0  0  1  0  0  0  0  0  0  0  0  0
    8.5818  -15.3625   26.8331 C   0  0  0  0  0  0  0  0  0  0  0  0
    7.8995  -14.0785   26.7823 C   0  0  0  0  0  0  0  0  0  0  0  0
    6.5600  -13.9796   26.4576 C   0  0  0  0  0  0  0  0  0  0  0  0
    5.9107  -12.7598   26.4172 C   0  0  0  0  0  0  0  0  0  0  0  0
    6.6106  -11.6120   26.7066 C   0  0  0  0  0  0  0  0  0  0  0  0
    7.9486  -11.6733   27.0347 C   0  0  0  0  0  0  0  0  0  0  0  0
    8.5730  -12.9146   27.0668 C   0  0  0  0  0  0  0  0  0  0  0  0
    7.1035  -16.9508   25.6018 C   0  0  0  0  0  0  0  0  0  0  0  0
    6.9021  -18.0061   26.4592 O   0  0  0  0  0  0  0  0  0  0  0  0
    6.2053  -16.6035   24.8178 O   0  0  0  0  0  0  0  0  0  0  0  0
  2  3  1  0
  2  1  1  6
  3  4  1  0
  4  8  1  0
  4  5  2  0
  5  6  1  0
  7  6  1  0
  8  7  2  0
  9  2  1  0
 10  9  2  0
 12 13  1  0
 12 11  1  0
 13 14  1  1
 13 15  1  0
 15 16  1  6
 16  9  1  0
 17 15  1  0
 17 18  2  0
 19 17  1  0
 20 19  1  0
 20 21  1  1
 22 21  1  0
 22 27  1  0
 23 22  2  0
 24 23  1  0
 24 25  2  0
 25 26  1  0
 26 27  2  0
 28 20  1  0
 29 28  1  0
 30 28  2  0
M  END
$$$$
