HIF.pdb
     RDKit          3D

 30 31  0  0  1  0  0  0  0  0999 V2000
   13.3371  -16.2446   20.4323 N   0  0  0  0  0  0  0  0  0  0  0  0
   12.1180  -16.9820   20.6823 C   0  0  1  0  0  0  0  0  0  0  0  0
   12.4683  -18.3408   21.2502 C   0  0  0  0  0  0  0  0  0  0  0  0
   12.4497  -19.3399   20.1620 C   0  0  0  0  0  0  0  0  0  0  0  0
   11.4695  -19.6034   19.2132 C   0  0  0  0  0  0  0  0  0  0  0  0
   11.9366  -20.6101   18.4453 N   0  0  0  0  0  0  0  0  0  0  0  0
   13.1497  -20.9750   18.8749 C   0  0  0  0  0  0  0  0  0  0  0  0
   13.4694  -20.2050   19.9214 N   0  0  0  0  0  0  0  0  0  0  0  0
   11.3073  -16.1919   21.6452 C   0  0  0  0  0  0  0  0  0  0  0  0
   11.9145  -15.5184   22.5440 O   0  0  0  0  0  0  0  0  0  0  0  0
    7.3176  -13.0543   19.9737 C   0  0  0  0  0  0  0  0  0  0  0  0
    8.4805  -13.6732   20.7299 C   0  0  0  0  0  0  0  0  0  0  0  0
    8.0063  -14.6504   21.7702 C   0  0  2  0  0  0  0  0  0  0  0  0
    6.8949  -14.0775   22.6194 C   0  0  0  0  0  0  0  0  0  0  0  0
    9.0863  -15.3341   22.5358 C   0  0  2  0  0  0  0  0  0  0  0  0
    9.8955  -16.1630   21.5976 N   0  0  0  0  0  0  0  0  0  0  0  0
    8.6325  -16.2355   23.6217 C   0  0  0  0  0  0  0  0  0  0  0  0
    8.5049  -17.4931   23.3880 O   0  0  0  0  0  0  0  0  0  0  0  0
    8.3151  -15.8546   24.9357 N   0  0  0  0  0  0  0  0  0  0  0  0
    7.9887  -16.8453   25.9825 C   0  0  1  0  0  0  0  0  0  0  0  0
    7.7677  -16.1474   27.2992 C   0  0  0  0  0  0  0  0  0  0  0  0
    8.7647  -15.1440   27.6400 C   0  0  0  0  0  0  0  0  0  0  0  0
    8.5962  -13.8118   27.3139 C   0  0  0  0  0  0  0  0  0  0  0  0
    9.5404  -12.8580   27.6450 C   0  0  0  0  0  0  0  0  0  0  0  0
   10.6787  -13.2388   28.3161 C   0  0  0  0  0  0  0  0  0  0  0  0
   10.8799  -14.5596   28.6575 C   0  0  0  0  0  0  0  0  0  0  0  0
    9.9120  -15.4948   28.3107 C   0  0  0  0  0  0  0  0  0  0  0  0
    6.8503  -17.6825   25.5597 C   0  0  0  0  0  0  0  0  0  0  0  0
    6.6744  -18.9237   26.1235 O   0  0  0  0  0  0  0  0  0  0  0  0
    6.0555  -17.2695   24.6997 O   0  0  0  0  0  0  0  0  0  0  0  0
  2  3  1  0
  2  1  1  1
  3  4  1  0
  4  8  1  0
  4  5  2  0
  5  6  1  0
  7  6  1  0
  8  7  2  0
  9  2  1  0
 10  9  2  0
 12 13  1  0
 12 11  1  0
 13 14  1  1
 13 15  1  0
 15 16  1  6
 16  9  1  0
 17 15  1  0
 17 18  2  0
 19 17  1  0
 20 19  1  0
 20 21  1  1
 22 21  1  0
 22 27  1  0
 23 22  2  0
 24 23  1  0
 24 25  2  0
 25 26  1  0
 26 27  2  0
 28 20  1  0
 29 28  1  0
 30 28  2  0
M  END
$$$$
