HIF.pdb
     RDKit          3D

 30 31  0  0  1  0  0  0  0  0999 V2000
    6.1077  -17.0928   19.7506 N   0  0  0  0  0  0  0  0  0  0  0  0
    5.8689  -16.6091   21.0928 C   0  0  1  0  0  0  0  0  0  0  0  0
    5.3505  -17.7477   21.9451 C   0  0  0  0  0  0  0  0  0  0  0  0
    4.0720  -18.2299   21.3832 C   0  0  0  0  0  0  0  0  0  0  0  0
    3.4274  -17.8733   20.2052 C   0  0  0  0  0  0  0  0  0  0  0  0
    2.2920  -18.6007   20.1512 N   0  0  0  0  0  0  0  0  0  0  0  0
    2.2092  -19.3822   21.2336 C   0  0  0  0  0  0  0  0  0  0  0  0
    3.2910  -19.1618   21.9895 N   0  0  0  0  0  0  0  0  0  0  0  0
    7.1596  -16.0918   21.6176 C   0  0  0  0  0  0  0  0  0  0  0  0
    7.8636  -15.3364   20.8667 O   0  0  0  0  0  0  0  0  0  0  0  0
    7.5427  -13.0484   25.8371 C   0  0  0  0  0  0  0  0  0  0  0  0
    6.9929  -13.8501   24.6700 C   0  0  0  0  0  0  0  0  0  0  0  0
    8.0560  -14.1345   23.6448 C   0  0  2  0  0  0  0  0  0  0  0  0
    7.6826  -13.6027   22.2803 C   0  0  0  0  0  0  0  0  0  0  0  0
    8.5817  -15.5287   23.6478 C   0  0  2  0  0  0  0  0  0  0  0  0
    7.6288  -16.4078   22.9122 N   0  0  0  0  0  0  0  0  0  0  0  0
    8.7815  -16.1372   24.9848 C   0  0  0  0  0  0  0  0  0  0  0  0
    7.8769  -16.9118   25.4689 O   0  0  0  0  0  0  0  0  0  0  0  0
    9.8978  -15.9578   25.8178 N   0  0  0  0  0  0  0  0  0  0  0  0
   10.8271  -17.0628   26.1330 C   0  0  1  0  0  0  0  0  0  0  0  0
   11.9239  -16.5687   27.0399 C   0  0  0  0  0  0  0  0  0  0  0  0
   11.4753  -15.7766   28.1749 C   0  0  0  0  0  0  0  0  0  0  0  0
   11.3642  -16.3187   29.4411 C   0  0  0  0  0  0  0  0  0  0  0  0
   10.9454  -15.5632   30.5203 C   0  0  0  0  0  0  0  0  0  0  0  0
   10.6297  -14.2376   30.3352 C   0  0  0  0  0  0  0  0  0  0  0  0
   10.7289  -13.6636   29.0853 C   0  0  0  0  0  0  0  0  0  0  0  0
   11.1531  -14.4494   28.0203 C   0  0  0  0  0  0  0  0  0  0  0  0
   10.0866  -18.2168   26.6766 C   0  0  0  0  0  0  0  0  0  0  0  0
    8.7517  -18.0860   26.9773 O   0  0  0  0  0  0  0  0  0  0  0  0
   10.6647  -19.3001   26.8618 O   0  0  0  0  0  0  0  0  0  0  0  0
  2  3  1  0
  2  1  1  6
  3  4  1  0
  4  8  1  0
  4  5  2  0
  5  6  1  0
  7  6  1  0
  8  7  2  0
  9  2  1  0
 10  9  2  0
 12 13  1  0
 12 11  1  0
 13 14  1  6
 13 15  1  0
 15 16  1  6
 16  9  1  0
 17 15  1  0
 17 18  2  0
 19 17  1  0
 20 19  1  0
 20 21  1  1
 22 21  1  0
 22 27  1  0
 23 22  2  0
 24 23  1  0
 24 25  2  0
 25 26  1  0
 26 27  2  0
 28 20  1  0
 29 28  1  0
 30 28  2  0
M  END
$$$$
