HIF.pdb
     RDKit          3D

 30 31  0  0  1  0  0  0  0  0999 V2000
   12.9431  -16.1893   20.0483 N   0  0  0  0  0  0  0  0  0  0  0  0
   12.2060  -17.1609   20.8261 C   0  0  1  0  0  0  0  0  0  0  0  0
   13.1841  -18.0736   21.5346 C   0  0  0  0  0  0  0  0  0  0  0  0
   13.6691  -19.0951   20.5837 C   0  0  0  0  0  0  0  0  0  0  0  0
   13.3529  -20.4449   20.4906 C   0  0  0  0  0  0  0  0  0  0  0  0
   14.0624  -20.9366   19.4533 N   0  0  0  0  0  0  0  0  0  0  0  0
   14.7948  -19.9589   18.9083 C   0  0  0  0  0  0  0  0  0  0  0  0
   14.5602  -18.8330   19.5922 N   0  0  0  0  0  0  0  0  0  0  0  0
   11.3701  -16.4121   21.8004 C   0  0  0  0  0  0  0  0  0  0  0  0
   11.9304  -15.5262   22.5295 O   0  0  0  0  0  0  0  0  0  0  0  0
    7.0075  -14.1557   20.1476 C   0  0  0  0  0  0  0  0  0  0  0  0
    8.2569  -14.4698   20.9523 C   0  0  0  0  0  0  0  0  0  0  0  0
    7.9471  -15.3448   22.1357 C   0  0  2  0  0  0  0  0  0  0  0  0
    6.8639  -14.7534   23.0082 C   0  0  0  0  0  0  0  0  0  0  0  0
    9.1362  -15.8523   22.8764 C   0  0  2  0  0  0  0  0  0  0  0  0
    9.9846  -16.6483   21.9444 N   0  0  0  0  0  0  0  0  0  0  0  0
    8.8447  -16.7231   24.0402 C   0  0  0  0  0  0  0  0  0  0  0  0
    9.0402  -17.9902   23.9470 O   0  0  0  0  0  0  0  0  0  0  0  0
    8.3607  -16.3013   25.2894 N   0  0  0  0  0  0  0  0  0  0  0  0
    8.2719  -17.2167   26.4461 C   0  0  1  0  0  0  0  0  0  0  0  0
    7.9968  -16.4319   27.7023 C   0  0  0  0  0  0  0  0  0  0  0  0
    8.8875  -15.3047   27.9323 C   0  0  0  0  0  0  0  0  0  0  0  0
    8.5293  -14.0141   27.5923 C   0  0  0  0  0  0  0  0  0  0  0  0
    9.3731  -12.9428   27.8184 C   0  0  0  0  0  0  0  0  0  0  0  0
   10.6019  -13.1608   28.3963 C   0  0  0  0  0  0  0  0  0  0  0  0
   10.9922  -14.4356   28.7484 C   0  0  0  0  0  0  0  0  0  0  0  0
   10.1214  -15.4919   28.5083 C   0  0  0  0  0  0  0  0  0  0  0  0
    7.2824  -18.2790   26.1850 C   0  0  0  0  0  0  0  0  0  0  0  0
    7.3879  -19.4813   26.8428 O   0  0  0  0  0  0  0  0  0  0  0  0
    6.3597  -18.0892   25.3760 O   0  0  0  0  0  0  0  0  0  0  0  0
  2  3  1  0
  2  1  1  1
  3  4  1  0
  4  8  1  0
  4  5  2  0
  5  6  1  0
  7  6  1  0
  8  7  2  0
  9  2  1  0
 10  9  2  0
 12 13  1  0
 12 11  1  0
 13 14  1  1
 13 15  1  0
 15 16  1  6
 16  9  1  0
 17 15  1  0
 17 18  2  0
 19 17  1  0
 20 19  1  0
 20 21  1  1
 22 21  1  0
 22 27  1  0
 23 22  2  0
 24 23  1  0
 24 25  2  0
 25 26  1  0
 26 27  2  0
 28 20  1  0
 29 28  1  0
 30 28  2  0
M  END
$$$$
