HIF.pdb
     RDKit          3D

 30 31  0  0  1  0  0  0  0  0999 V2000
   11.7788  -17.2932   18.1024 N   0  0  0  0  0  0  0  0  0  0  0  0
   10.7321  -17.7873   18.9699 C   0  0  1  0  0  0  0  0  0  0  0  0
   11.0985  -19.1763   19.4474 C   0  0  0  0  0  0  0  0  0  0  0  0
   10.8127  -20.1489   18.3727 C   0  0  0  0  0  0  0  0  0  0  0  0
    9.5941  -20.5668   17.8522 C   0  0  0  0  0  0  0  0  0  0  0  0
    9.8752  -21.4665   16.8865 N   0  0  0  0  0  0  0  0  0  0  0  0
   11.2005  -21.6201   16.7898 C   0  0  0  0  0  0  0  0  0  0  0  0
   11.7789  -20.8199   17.6928 N   0  0  0  0  0  0  0  0  0  0  0  0
   10.6142  -16.8423   20.1109 C   0  0  0  0  0  0  0  0  0  0  0  0
   11.6825  -16.3473   20.6047 O   0  0  0  0  0  0  0  0  0  0  0  0
    6.7750  -13.0446   20.1558 C   0  0  0  0  0  0  0  0  0  0  0  0
    8.0858  -13.7849   20.3580 C   0  0  0  0  0  0  0  0  0  0  0  0
    8.0430  -14.6616   21.5793 C   0  0  2  0  0  0  0  0  0  0  0  0
    7.5794  -13.9050   22.8027 C   0  0  0  0  0  0  0  0  0  0  0  0
    9.2487  -15.5110   21.7915 C   0  0  2  0  0  0  0  0  0  0  0  0
    9.3658  -16.4774   20.6627 N   0  0  0  0  0  0  0  0  0  0  0  0
    9.2611  -16.3082   23.0413 C   0  0  0  0  0  0  0  0  0  0  0  0
    8.6407  -17.4335   23.0801 O   0  0  0  0  0  0  0  0  0  0  0  0
    9.9051  -15.9594   24.2396 N   0  0  0  0  0  0  0  0  0  0  0  0
   10.1828  -16.9519   25.2988 C   0  0  1  0  0  0  0  0  0  0  0  0
   11.1132  -16.3607   26.3255 C   0  0  0  0  0  0  0  0  0  0  0  0
   10.4925  -15.4319   27.2577 C   0  0  0  0  0  0  0  0  0  0  0  0
   10.4971  -15.6584   28.6208 C   0  0  0  0  0  0  0  0  0  0  0  0
    9.9138  -14.7715   29.5063 C   0  0  0  0  0  0  0  0  0  0  0  0
    9.3121  -13.6328   29.0241 C   0  0  0  0  0  0  0  0  0  0  0  0
    9.2888  -13.3747   27.6698 C   0  0  0  0  0  0  0  0  0  0  0  0
    9.8839  -14.2856   26.8051 C   0  0  0  0  0  0  0  0  0  0  0  0
    8.9210  -17.4606   25.8688 C   0  0  0  0  0  0  0  0  0  0  0  0
    8.9479  -18.5356   26.7249 O   0  0  0  0  0  0  0  0  0  0  0  0
    7.8409  -16.9217   25.5776 O   0  0  0  0  0  0  0  0  0  0  0  0
  2  3  1  0
  2  1  1  6
  3  4  1  0
  4  8  1  0
  4  5  2  0
  5  6  1  0
  7  6  1  0
  8  7  2  0
  9  2  1  0
 10  9  2  0
 12 13  1  0
 12 11  1  0
 13 14  1  1
 13 15  1  0
 15 16  1  6
 16  9  1  0
 17 15  1  0
 17 18  2  0
 19 17  1  0
 20 19  1  0
 20 21  1  1
 22 21  1  0
 22 27  1  0
 23 22  2  0
 24 23  1  0
 24 25  2  0
 25 26  1  0
 26 27  2  0
 28 20  1  0
 29 28  1  0
 30 28  2  0
M  END
$$$$
