HIF.pdb
     RDKit          3D

 30 31  0  0  1  0  0  0  0  0999 V2000
    9.4228  -17.3729   17.1153 N   0  0  0  0  0  0  0  0  0  0  0  0
    8.7888  -17.6447   18.3867 C   0  0  1  0  0  0  0  0  0  0  0  0
    8.9506  -19.1131   18.7173 C   0  0  0  0  0  0  0  0  0  0  0  0
    7.9797  -19.8973   17.9267 C   0  0  0  0  0  0  0  0  0  0  0  0
    6.6054  -19.7401   17.7965 C   0  0  0  0  0  0  0  0  0  0  0  0
    6.1835  -20.7114   16.9601 N   0  0  0  0  0  0  0  0  0  0  0  0
    7.2270  -21.4533   16.5729 C   0  0  0  0  0  0  0  0  0  0  0  0
    8.3258  -20.9629   17.1581 N   0  0  0  0  0  0  0  0  0  0  0  0
    9.4496  -16.7900   19.4073 C   0  0  0  0  0  0  0  0  0  0  0  0
   10.6710  -16.4633   19.2299 O   0  0  0  0  0  0  0  0  0  0  0  0
    6.5859  -13.1140   22.7258 C   0  0  0  0  0  0  0  0  0  0  0  0
    7.2903  -14.4314   22.4510 C   0  0  0  0  0  0  0  0  0  0  0  0
    8.6012  -14.2207   21.7445 C   0  0  2  0  0  0  0  0  0  0  0  0
    8.4439  -13.3770   20.5004 C   0  0  0  0  0  0  0  0  0  0  0  0
    9.4283  -15.4470   21.5654 C   0  0  2  0  0  0  0  0  0  0  0  0
    8.7733  -16.3310   20.5597 N   0  0  0  0  0  0  0  0  0  0  0  0
    9.6368  -16.2650   22.7840 C   0  0  0  0  0  0  0  0  0  0  0  0
    9.2025  -17.4745   22.8160 O   0  0  0  0  0  0  0  0  0  0  0  0
   10.2865  -15.8509   23.9582 N   0  0  0  0  0  0  0  0  0  0  0  0
   10.5382  -16.7754   25.0833 C   0  0  1  0  0  0  0  0  0  0  0  0
   11.3647  -16.0874   26.1384 C   0  0  0  0  0  0  0  0  0  0  0  0
   10.6584  -15.0797   26.9148 C   0  0  0  0  0  0  0  0  0  0  0  0
    9.9549  -14.0565   26.3087 C   0  0  0  0  0  0  0  0  0  0  0  0
    9.2777  -13.1040   27.0471 C   0  0  0  0  0  0  0  0  0  0  0  0
    9.3013  -13.1715   28.4205 C   0  0  0  0  0  0  0  0  0  0  0  0
    9.9933  -14.1790   29.0588 C   0  0  0  0  0  0  0  0  0  0  0  0
   10.6640  -15.1216   28.2885 C   0  0  0  0  0  0  0  0  0  0  0  0
    9.2665  -17.3218   25.5929 C   0  0  0  0  0  0  0  0  0  0  0  0
    9.2833  -18.4106   26.4318 O   0  0  0  0  0  0  0  0  0  0  0  0
    8.1869  -16.8022   25.2664 O   0  0  0  0  0  0  0  0  0  0  0  0
  2  3  1  0
  2  1  1  6
  3  4  1  0
  4  8  1  0
  4  5  2  0
  5  6  1  0
  7  6  1  0
  8  7  2  0
  9  2  1  0
 10  9  2  0
 12 13  1  0
 12 11  1  0
 13 14  1  6
 13 15  1  0
 15 16  1  6
 16  9  1  0
 17 15  1  0
 17 18  2  0
 19 17  1  0
 20 19  1  0
 20 21  1  1
 22 21  1  0
 22 27  1  0
 23 22  2  0
 24 23  1  0
 24 25  2  0
 25 26  1  0
 26 27  2  0
 28 20  1  0
 29 28  1  0
 30 28  2  0
M  END
$$$$
