WFK.pdb
     RDKit          3D

 35 37  0  0  1  0  0  0  0  0999 V2000
    6.0902  -20.1258   22.7882 N   0  0  0  0  0  0  0  0  0  0  0  0
    6.5420  -19.5388   24.0203 C   0  0  1  0  0  0  0  0  0  0  0  0
    7.6334  -20.3313   24.6914 C   0  0  0  0  0  0  0  0  0  0  0  0
    7.3282  -20.5421   26.1137 C   0  0  0  0  0  0  0  0  0  0  0  0
    6.4843  -21.5118   26.6290 C   0  0  0  0  0  0  0  0  0  0  0  0
    6.4622  -21.4410   27.9612 N   0  0  0  0  0  0  0  0  0  0  0  0
    7.2775  -20.4416   28.3130 C   0  0  0  0  0  0  0  0  0  0  0  0
    7.6153  -19.9387   29.5462 C   0  0  0  0  0  0  0  0  0  0  0  0
    8.4855  -18.8774   29.6920 C   0  0  0  0  0  0  0  0  0  0  0  0
    9.0360  -18.2994   28.5682 C   0  0  0  0  0  0  0  0  0  0  0  0
    8.6987  -18.8038   27.3142 C   0  0  0  0  0  0  0  0  0  0  0  0
    7.8402  -19.8516   27.1833 C   0  0  0  0  0  0  0  0  0  0  0  0
    6.9451  -18.1239   23.7980 C   0  0  0  0  0  0  0  0  0  0  0  0
    7.4376  -17.7624   22.6918 O   0  0  0  0  0  0  0  0  0  0  0  0
    6.7925  -17.1522   24.8027 N   0  0  0  0  0  0  0  0  0  0  0  0
    7.1358  -15.7220   24.5642 C   0  0  1  0  0  0  0  0  0  0  0  0
    6.3743  -14.9756   25.5939 C   0  0  0  0  0  0  0  0  0  0  0  0
    6.6533  -13.5421   25.7338 C   0  0  0  0  0  0  0  0  0  0  0  0
    6.7891  -12.9263   26.9844 C   0  0  0  0  0  0  0  0  0  0  0  0
    7.0786  -11.5869   27.1264 C   0  0  0  0  0  0  0  0  0  0  0  0
    7.2468  -10.7963   26.0020 C   0  0  0  0  0  0  0  0  0  0  0  0
    7.1190  -11.3742   24.7563 C   0  0  0  0  0  0  0  0  0  0  0  0
    6.8301  -12.7114   24.6550 C   0  0  0  0  0  0  0  0  0  0  0  0
    8.5992  -15.6619   24.6819 C   0  0  0  0  0  0  0  0  0  0  0  0
    9.2356  -14.5735   24.4507 O   0  0  0  0  0  0  0  0  0  0  0  0
    9.4206  -16.7546   25.0546 N   0  0  0  0  0  0  0  0  0  0  0  0
   10.8819  -16.6541   25.0971 C   0  0  1  0  0  0  0  0  0  0  0  0
   11.4673  -17.9854   25.5405 C   0  0  0  0  0  0  0  0  0  0  0  0
   12.9464  -17.9808   25.7130 C   0  0  0  0  0  0  0  0  0  0  0  0
   13.3544  -19.4139   26.1037 C   0  0  0  0  0  0  0  0  0  0  0  0
   14.8487  -19.4818   26.3374 C   0  0  0  0  0  0  0  0  0  0  0  0
   15.3269  -20.7989   26.6200 N   0  0  0  0  0  0  0  0  0  0  0  0
   11.4853  -16.0996   23.8965 C   0  0  0  0  0  0  0  0  0  0  0  0
   11.0741  -16.4474   22.6034 O   0  0  0  0  0  0  0  0  0  0  0  0
   12.4361  -15.2522   23.9073 O   0  0  0  0  0  0  0  0  0  0  0  0
  2  1  1  6
  3  2  1  0
  4  3  1  0
  4  5  2  0
  6  5  1  0
  7  6  1  0
  8  7  2  0
  9  8  1  0
 10  9  2  0
 10 11  1  0
 11 12  2  0
 12  7  1  0
 12  4  1  0
 13 14  2  0
 13  2  1  0
 15 13  1  0
 16 17  1  1
 16 15  1  0
 18 17  1  0
 18 23  1  0
 19 18  2  0
 20 19  1  0
 20 21  2  0
 21 22  1  0
 22 23  2  0
 24 16  1  0
 25 24  2  0
 26 24  1  0
 27 26  1  0
 28 29  1  0
 27 28  1  6
 30 29  1  0
 31 30  1  0
 32 31  1  0
 33 34  1  0
 33 27  1  0
 35 33  2  0
M  END
$$$$
