WFK.pdb
     RDKit          3D

 35 37  0  0  1  0  0  0  0  0999 V2000
    7.0135  -19.1282   21.2169 N   0  0  0  0  0  0  0  0  0  0  0  0
    6.2769  -18.3948   22.2101 C   0  0  1  0  0  0  0  0  0  0  0  0
    5.6344  -19.2789   23.2470 C   0  0  0  0  0  0  0  0  0  0  0  0
    4.5677  -20.0954   22.6503 C   0  0  0  0  0  0  0  0  0  0  0  0
    4.2721  -21.4092   22.9740 C   0  0  0  0  0  0  0  0  0  0  0  0
    3.2240  -21.8325   22.2649 N   0  0  0  0  0  0  0  0  0  0  0  0
    2.8396  -20.8136   21.4896 C   0  0  0  0  0  0  0  0  0  0  0  0
    1.8254  -20.7078   20.5687 C   0  0  0  0  0  0  0  0  0  0  0  0
    1.5996  -19.5472   19.8566 C   0  0  0  0  0  0  0  0  0  0  0  0
    2.4148  -18.4566   20.0716 C   0  0  0  0  0  0  0  0  0  0  0  0
    3.4451  -18.5559   21.0039 C   0  0  0  0  0  0  0  0  0  0  0  0
    3.6570  -19.7054   21.7008 C   0  0  0  0  0  0  0  0  0  0  0  0
    7.1441  -17.3573   22.8309 C   0  0  0  0  0  0  0  0  0  0  0  0
    8.3662  -17.2721   22.5210 O   0  0  0  0  0  0  0  0  0  0  0  0
    6.6361  -16.4466   23.7741 N   0  0  0  0  0  0  0  0  0  0  0  0
    7.5082  -15.4281   24.4240 C   0  0  1  0  0  0  0  0  0  0  0  0
    6.5716  -14.3896   24.9156 C   0  0  0  0  0  0  0  0  0  0  0  0
    7.1127  -13.3607   25.8104 C   0  0  0  0  0  0  0  0  0  0  0  0
    6.4441  -12.9547   26.9722 C   0  0  0  0  0  0  0  0  0  0  0  0
    6.9568  -12.0096   27.8336 C   0  0  0  0  0  0  0  0  0  0  0  0
    8.1812  -11.4229   27.5616 C   0  0  0  0  0  0  0  0  0  0  0  0
    8.8636  -11.8021   26.4246 C   0  0  0  0  0  0  0  0  0  0  0  0
    8.3209  -12.7465   25.5908 C   0  0  0  0  0  0  0  0  0  0  0  0
    8.2435  -16.1679   25.4589 C   0  0  0  0  0  0  0  0  0  0  0  0
    9.2367  -15.6360   26.0703 O   0  0  0  0  0  0  0  0  0  0  0  0
    7.9372  -17.4877   25.8735 N   0  0  0  0  0  0  0  0  0  0  0  0
    8.7086  -18.1795   26.9096 C   0  0  1  0  0  0  0  0  0  0  0  0
    9.3207  -19.4427   26.3250 C   0  0  0  0  0  0  0  0  0  0  0  0
   10.4754  -19.2034   25.4157 C   0  0  0  0  0  0  0  0  0  0  0  0
   11.0081  -20.5871   24.9978 C   0  0  0  0  0  0  0  0  0  0  0  0
   10.7761  -20.8062   23.5178 C   0  0  0  0  0  0  0  0  0  0  0  0
   11.3097  -22.0390   23.0288 N   0  0  0  0  0  0  0  0  0  0  0  0
    9.6445  -17.3343   27.6326 C   0  0  0  0  0  0  0  0  0  0  0  0
   10.0485  -17.5924   28.9487 O   0  0  0  0  0  0  0  0  0  0  0  0
   10.1807  -16.2886   27.1415 O   0  0  0  0  0  0  0  0  0  0  0  0
  2  1  1  6
  3  2  1  0
  4  3  1  0
  4  5  2  0
  6  5  1  0
  7  6  1  0
  8  7  2  0
  9  8  1  0
 10  9  2  0
 10 11  1  0
 11 12  2  0
 12  7  1  0
 12  4  1  0
 13 14  2  0
 13  2  1  0
 15 13  1  0
 16 17  1  1
 16 15  1  0
 18 17  1  0
 18 23  1  0
 19 18  2  0
 20 19  1  0
 20 21  2  0
 21 22  1  0
 22 23  2  0
 24 16  1  0
 25 24  2  0
 26 24  1  0
 27 26  1  0
 28 29  1  0
 27 28  1  6
 30 29  1  0
 31 30  1  0
 32 31  1  0
 33 34  1  0
 33 27  1  0
 35 33  2  0
M  END
$$$$
