WFK.pdb
     RDKit          3D

 35 37  0  0  1  0  0  0  0  0999 V2000
   11.5910  -17.8559   20.4318 N   0  0  0  0  0  0  0  0  0  0  0  0
   10.7580  -16.8571   21.0443 C   0  0  1  0  0  0  0  0  0  0  0  0
    9.2871  -17.0854   20.8118 C   0  0  0  0  0  0  0  0  0  0  0  0
    8.6320  -15.8518   20.3537 C   0  0  0  0  0  0  0  0  0  0  0  0
    8.3493  -15.5216   19.0387 C   0  0  0  0  0  0  0  0  0  0  0  0
    7.7215  -14.3455   18.9851 N   0  0  0  0  0  0  0  0  0  0  0  0
    7.5953  -13.9121   20.2435 C   0  0  0  0  0  0  0  0  0  0  0  0
    7.0369  -12.7660   20.7558 C   0  0  0  0  0  0  0  0  0  0  0  0
    7.0167  -12.5023   22.1104 C   0  0  0  0  0  0  0  0  0  0  0  0
    7.5734  -13.4139   22.9817 C   0  0  0  0  0  0  0  0  0  0  0  0
    8.1413  -14.5785   22.4700 C   0  0  0  0  0  0  0  0  0  0  0  0
    8.1540  -14.8280   21.1323 C   0  0  0  0  0  0  0  0  0  0  0  0
   11.0756  -16.7411   22.4933 C   0  0  0  0  0  0  0  0  0  0  0  0
   12.1466  -17.2259   22.9570 O   0  0  0  0  0  0  0  0  0  0  0  0
   10.2021  -16.0944   23.3853 N   0  0  0  0  0  0  0  0  0  0  0  0
   10.6024  -15.7914   24.7882 C   0  0  1  0  0  0  0  0  0  0  0  0
    9.5981  -14.8097   25.2623 C   0  0  0  0  0  0  0  0  0  0  0  0
    9.6603  -14.4062   26.6714 C   0  0  0  0  0  0  0  0  0  0  0  0
   10.8730  -14.2942   27.3632 C   0  0  0  0  0  0  0  0  0  0  0  0
   10.9443  -13.8893   28.6782 C   0  0  0  0  0  0  0  0  0  0  0  0
    9.7839  -13.5748   29.3652 C   0  0  0  0  0  0  0  0  0  0  0  0
    8.5742  -13.6756   28.7106 C   0  0  0  0  0  0  0  0  0  0  0  0
    8.5432  -14.0823   27.4009 C   0  0  0  0  0  0  0  0  0  0  0  0
   10.5963  -17.0929   25.4703 C   0  0  0  0  0  0  0  0  0  0  0  0
   11.0671  -17.2187   26.6559 O   0  0  0  0  0  0  0  0  0  0  0  0
   10.0840  -18.2901   24.9118 N   0  0  0  0  0  0  0  0  0  0  0  0
   10.0879  -19.5583   25.6458 C   0  0  1  0  0  0  0  0  0  0  0  0
   10.2125  -20.7111   24.6623 C   0  0  0  0  0  0  0  0  0  0  0  0
   10.1415  -22.0620   25.2848 C   0  0  0  0  0  0  0  0  0  0  0  0
   10.1965  -23.0861   24.1355 C   0  0  0  0  0  0  0  0  0  0  0  0
   10.1338  -24.4929   24.6916 C   0  0  0  0  0  0  0  0  0  0  0  0
    8.8283  -24.8817   25.1254 N   0  0  0  0  0  0  0  0  0  0  0  0
   11.0223  -19.6104   26.7582 C   0  0  0  0  0  0  0  0  0  0  0  0
   12.3548  -19.1906   26.6579 O   0  0  0  0  0  0  0  0  0  0  0  0
   10.7196  -20.0389   27.9188 O   0  0  0  0  0  0  0  0  0  0  0  0
  2  1  1  1
  3  2  1  0
  4  3  1  0
  4  5  2  0
  6  5  1  0
  7  6  1  0
  8  7  2  0
  9  8  1  0
 10  9  2  0
 10 11  1  0
 11 12  2  0
 12  7  1  0
 12  4  1  0
 13 14  2  0
 13  2  1  0
 15 13  1  0
 16 17  1  1
 16 15  1  0
 18 17  1  0
 18 23  1  0
 19 18  2  0
 20 19  1  0
 20 21  2  0
 21 22  1  0
 22 23  2  0
 24 16  1  0
 25 24  2  0
 26 24  1  0
 27 26  1  0
 28 29  1  0
 27 28  1  6
 30 29  1  0
 31 30  1  0
 32 31  1  0
 33 34  1  0
 33 27  1  0
 35 33  2  0
M  END
$$$$
