WFK.pdb
     RDKit          3D

 35 37  0  0  1  0  0  0  0  0999 V2000
   10.7019  -17.1938   19.8634 N   0  0  0  0  0  0  0  0  0  0  0  0
    9.7086  -17.4834   20.8614 C   0  0  1  0  0  0  0  0  0  0  0  0
    9.7290  -18.9177   21.3220 C   0  0  0  0  0  0  0  0  0  0  0  0
    9.4065  -19.8279   20.2138 C   0  0  0  0  0  0  0  0  0  0  0  0
   10.3054  -20.6359   19.5376 C   0  0  0  0  0  0  0  0  0  0  0  0
    9.6695  -21.3569   18.6124 N   0  0  0  0  0  0  0  0  0  0  0  0
    8.3758  -21.0268   18.6809 C   0  0  0  0  0  0  0  0  0  0  0  0
    7.2903  -21.4599   17.9584 C   0  0  0  0  0  0  0  0  0  0  0  0
    6.0177  -20.9770   18.1866 C   0  0  0  0  0  0  0  0  0  0  0  0
    5.8235  -20.0297   19.1689 C   0  0  0  0  0  0  0  0  0  0  0  0
    6.9190  -19.5857   19.9060 C   0  0  0  0  0  0  0  0  0  0  0  0
    8.1691  -20.0703   19.6725 C   0  0  0  0  0  0  0  0  0  0  0  0
    9.8346  -16.5362   22.0019 C   0  0  0  0  0  0  0  0  0  0  0  0
   10.9722  -16.2237   22.4547 O   0  0  0  0  0  0  0  0  0  0  0  0
    8.7020  -15.9637   22.6073 N   0  0  0  0  0  0  0  0  0  0  0  0
    8.8192  -15.0666   23.7912 C   0  0  1  0  0  0  0  0  0  0  0  0
    7.5119  -14.3720   23.8677 C   0  0  0  0  0  0  0  0  0  0  0  0
    7.2568  -13.5402   25.0489 C   0  0  0  0  0  0  0  0  0  0  0  0
    7.9843  -12.3724   25.3112 C   0  0  0  0  0  0  0  0  0  0  0  0
    7.7338  -11.5696   26.4025 C   0  0  0  0  0  0  0  0  0  0  0  0
    6.7273  -11.9098   27.2905 C   0  0  0  0  0  0  0  0  0  0  0  0
    5.9935  -13.0543   27.0589 C   0  0  0  0  0  0  0  0  0  0  0  0
    6.2722  -13.8286   25.9613 C   0  0  0  0  0  0  0  0  0  0  0  0
    9.1340  -15.9627   24.9123 C   0  0  0  0  0  0  0  0  0  0  0  0
    8.4461  -17.0237   25.1222 O   0  0  0  0  0  0  0  0  0  0  0  0
   10.1912  -15.7565   25.8329 N   0  0  0  0  0  0  0  0  0  0  0  0
   10.4679  -16.6920   26.9264 C   0  0  1  0  0  0  0  0  0  0  0  0
   11.6906  -17.5267   26.5801 C   0  0  0  0  0  0  0  0  0  0  0  0
   12.0500  -18.5465   27.6040 C   0  0  0  0  0  0  0  0  0  0  0  0
   13.3111  -19.2676   27.0916 C   0  0  0  0  0  0  0  0  0  0  0  0
   13.7712  -20.2916   28.1075 C   0  0  0  0  0  0  0  0  0  0  0  0
   15.0140  -20.9140   27.7737 N   0  0  0  0  0  0  0  0  0  0  0  0
   10.5058  -16.0850   28.2467 C   0  0  0  0  0  0  0  0  0  0  0  0
   10.9995  -14.7953   28.4814 O   0  0  0  0  0  0  0  0  0  0  0  0
   10.0970  -16.6637   29.3051 O   0  0  0  0  0  0  0  0  0  0  0  0
  2  1  1  6
  3  2  1  0
  4  3  1  0
  4  5  2  0
  6  5  1  0
  7  6  1  0
  8  7  2  0
  9  8  1  0
 10  9  2  0
 10 11  1  0
 11 12  2  0
 12  7  1  0
 12  4  1  0
 13 14  2  0
 13  2  1  0
 15 13  1  0
 16 17  1  1
 16 15  1  0
 18 17  1  0
 18 23  1  0
 19 18  2  0
 20 19  1  0
 20 21  2  0
 21 22  1  0
 22 23  2  0
 24 16  1  0
 25 24  2  0
 26 24  1  0
 27 26  1  0
 28 29  1  0
 27 28  1  6
 30 29  1  0
 31 30  1  0
 32 31  1  0
 33 34  1  0
 33 27  1  0
 35 33  2  0
M  END
$$$$
