WFK.pdb
     RDKit          3D

 35 37  0  0  1  0  0  0  0  0999 V2000
   11.6365  -17.6134   20.7496 N   0  0  0  0  0  0  0  0  0  0  0  0
   10.5222  -16.7523   21.0388 C   0  0  1  0  0  0  0  0  0  0  0  0
    9.2630  -17.1445   20.3105 C   0  0  0  0  0  0  0  0  0  0  0  0
    8.7820  -16.0419   19.4658 C   0  0  0  0  0  0  0  0  0  0  0  0
    8.7467  -16.0343   18.0813 C   0  0  0  0  0  0  0  0  0  0  0  0
    8.2210  -14.8896   17.6413 N   0  0  0  0  0  0  0  0  0  0  0  0
    7.9172  -14.1593   18.7191 C   0  0  0  0  0  0  0  0  0  0  0  0
    7.3631  -12.9078   18.8393 C   0  0  0  0  0  0  0  0  0  0  0  0
    7.1357  -12.3215   20.0679 C   0  0  0  0  0  0  0  0  0  0  0  0
    7.4736  -13.0085   21.2142 C   0  0  0  0  0  0  0  0  0  0  0  0
    8.0356  -14.2781   21.1007 C   0  0  0  0  0  0  0  0  0  0  0  0
    8.2539  -14.8463   19.8835 C   0  0  0  0  0  0  0  0  0  0  0  0
   10.3056  -16.6683   22.5084 C   0  0  0  0  0  0  0  0  0  0  0  0
   11.1669  -17.1260   23.3119 O   0  0  0  0  0  0  0  0  0  0  0  0
    9.1459  -16.0822   23.0457 N   0  0  0  0  0  0  0  0  0  0  0  0
    9.1971  -15.2227   24.2618 C   0  0  1  0  0  0  0  0  0  0  0  0
    7.9524  -14.4196   24.2075 C   0  0  0  0  0  0  0  0  0  0  0  0
    7.6504  -13.5626   25.3592 C   0  0  0  0  0  0  0  0  0  0  0  0
    8.5274  -12.5614   25.7954 C   0  0  0  0  0  0  0  0  0  0  0  0
    8.2408  -11.7330   26.8583 C   0  0  0  0  0  0  0  0  0  0  0  0
    7.0436  -11.8763   27.5390 C   0  0  0  0  0  0  0  0  0  0  0  0
    6.1593  -12.8537   27.1330 C   0  0  0  0  0  0  0  0  0  0  0  0
    6.4798  -13.6596   26.0701 C   0  0  0  0  0  0  0  0  0  0  0  0
    9.3019  -16.1651   25.3842 C   0  0  0  0  0  0  0  0  0  0  0  0
    9.4508  -15.7457   26.5863 O   0  0  0  0  0  0  0  0  0  0  0  0
    9.2443  -17.5752   25.2572 N   0  0  0  0  0  0  0  0  0  0  0  0
    9.4635  -18.4713   26.3957 C   0  0  1  0  0  0  0  0  0  0  0  0
    9.7386  -19.8773   25.8864 C   0  0  0  0  0  0  0  0  0  0  0  0
   10.0355  -20.8718   26.9543 C   0  0  0  0  0  0  0  0  0  0  0  0
   10.2945  -22.2176   26.2508 C   0  0  0  0  0  0  0  0  0  0  0  0
   10.7034  -23.2630   27.2668 C   0  0  0  0  0  0  0  0  0  0  0  0
   10.7873  -24.5849   26.7291 N   0  0  0  0  0  0  0  0  0  0  0  0
   10.4239  -17.9846   27.3724 C   0  0  0  0  0  0  0  0  0  0  0  0
   10.1323  -17.8642   28.7371 O   0  0  0  0  0  0  0  0  0  0  0  0
   11.6107  -17.6253   27.0815 O   0  0  0  0  0  0  0  0  0  0  0  0
  2  1  1  1
  3  2  1  0
  4  3  1  0
  4  5  2  0
  6  5  1  0
  7  6  1  0
  8  7  2  0
  9  8  1  0
 10  9  2  0
 10 11  1  0
 11 12  2  0
 12  7  1  0
 12  4  1  0
 13 14  2  0
 13  2  1  0
 15 13  1  0
 16 17  1  1
 16 15  1  0
 18 17  1  0
 18 23  1  0
 19 18  2  0
 20 19  1  0
 20 21  2  0
 21 22  1  0
 22 23  2  0
 24 16  1  0
 25 24  2  0
 26 24  1  0
 27 26  1  0
 28 29  1  0
 27 28  1  6
 30 29  1  0
 31 30  1  0
 32 31  1  0
 33 34  1  0
 33 27  1  0
 35 33  2  0
M  END
$$$$
