WFK.pdb
     RDKit          3D

 35 37  0  0  1  0  0  0  0  0999 V2000
   11.4183  -17.5645   21.4659 N   0  0  0  0  0  0  0  0  0  0  0  0
   10.1933  -16.8148   21.5271 C   0  0  1  0  0  0  0  0  0  0  0  0
    8.9986  -17.5860   21.0294 C   0  0  0  0  0  0  0  0  0  0  0  0
    7.9743  -16.6770   20.4954 C   0  0  0  0  0  0  0  0  0  0  0  0
    6.6981  -17.0360   20.0947 C   0  0  0  0  0  0  0  0  0  0  0  0
    6.0220  -15.9578   19.6938 N   0  0  0  0  0  0  0  0  0  0  0  0
    6.8414  -14.9101   19.8290 C   0  0  0  0  0  0  0  0  0  0  0  0
    6.6585  -13.5755   19.5586 C   0  0  0  0  0  0  0  0  0  0  0  0
    7.6539  -12.6422   19.7658 C   0  0  0  0  0  0  0  0  0  0  0  0
    8.8726  -13.0565   20.2590 C   0  0  0  0  0  0  0  0  0  0  0  0
    9.0658  -14.4081   20.5359 C   0  0  0  0  0  0  0  0  0  0  0  0
    8.0760  -15.3188   20.3286 C   0  0  0  0  0  0  0  0  0  0  0  0
    9.9782  -16.2933   22.9040 C   0  0  0  0  0  0  0  0  0  0  0  0
   10.7405  -16.6424   23.8495 O   0  0  0  0  0  0  0  0  0  0  0  0
    8.9291  -15.4035   23.1948 N   0  0  0  0  0  0  0  0  0  0  0  0
    8.7815  -14.7842   24.5419 C   0  0  1  0  0  0  0  0  0  0  0  0
    7.7978  -13.6924   24.3483 C   0  0  0  0  0  0  0  0  0  0  0  0
    7.3726  -12.9471   25.5383 C   0  0  0  0  0  0  0  0  0  0  0  0
    6.0332  -12.8884   25.9436 C   0  0  0  0  0  0  0  0  0  0  0  0
    5.6273  -12.2147   27.0747 C   0  0  0  0  0  0  0  0  0  0  0  0
    6.5627  -11.5612   27.8592 C   0  0  0  0  0  0  0  0  0  0  0  0
    7.8897  -11.6009   27.4857 C   0  0  0  0  0  0  0  0  0  0  0  0
    8.2556  -12.2820   26.3526 C   0  0  0  0  0  0  0  0  0  0  0  0
    8.3524  -15.8842   25.4165 C   0  0  0  0  0  0  0  0  0  0  0  0
    8.0351  -15.6693   26.6397 O   0  0  0  0  0  0  0  0  0  0  0  0
    8.2438  -17.2374   25.0106 N   0  0  0  0  0  0  0  0  0  0  0  0
    7.8669  -18.3041   25.9420 C   0  0  1  0  0  0  0  0  0  0  0  0
    7.2673  -19.4651   25.1647 C   0  0  0  0  0  0  0  0  0  0  0  0
    6.0388  -19.1224   24.3960 C   0  0  0  0  0  0  0  0  0  0  0  0
    5.6278  -20.3903   23.6236 C   0  0  0  0  0  0  0  0  0  0  0  0
    6.7875  -21.3619   23.5682 C   0  0  0  0  0  0  0  0  0  0  0  0
    6.5195  -22.5329   22.7932 N   0  0  0  0  0  0  0  0  0  0  0  0
    8.9086  -18.6817   26.8829 C   0  0  0  0  0  0  0  0  0  0  0  0
   10.1825  -18.0992   26.8875 O   0  0  0  0  0  0  0  0  0  0  0  0
    8.7622  -19.5699   27.7839 O   0  0  0  0  0  0  0  0  0  0  0  0
  2  1  1  1
  3  2  1  0
  4  3  1  0
  4  5  2  0
  6  5  1  0
  7  6  1  0
  8  7  2  0
  9  8  1  0
 10  9  2  0
 10 11  1  0
 11 12  2  0
 12  7  1  0
 12  4  1  0
 13 14  2  0
 13  2  1  0
 15 13  1  0
 16 17  1  6
 16 15  1  0
 18 17  1  0
 18 23  1  0
 19 18  2  0
 20 19  1  0
 20 21  2  0
 21 22  1  0
 22 23  2  0
 24 16  1  0
 25 24  2  0
 26 24  1  0
 27 26  1  0
 28 29  1  0
 27 28  1  6
 30 29  1  0
 31 30  1  0
 32 31  1  0
 33 34  1  0
 33 27  1  0
 35 33  2  0
M  END
$$$$
