WFK.pdb
     RDKit          3D

 35 37  0  0  1  0  0  0  0  0999 V2000
    7.7508  -18.7248   20.2429 N   0  0  0  0  0  0  0  0  0  0  0  0
    7.6156  -18.8006   21.6722 C   0  0  1  0  0  0  0  0  0  0  0  0
    8.2631  -20.0243   22.2665 C   0  0  0  0  0  0  0  0  0  0  0  0
    7.4738  -21.2290   21.9726 C   0  0  0  0  0  0  0  0  0  0  0  0
    7.8691  -22.2830   21.1657 C   0  0  0  0  0  0  0  0  0  0  0  0
    6.9243  -23.2248   21.1443 N   0  0  0  0  0  0  0  0  0  0  0  0
    5.9266  -22.7952   21.9237 C   0  0  0  0  0  0  0  0  0  0  0  0
    4.7185  -23.3648   22.2460 C   0  0  0  0  0  0  0  0  0  0  0  0
    3.8116  -22.7395   23.0775 C   0  0  0  0  0  0  0  0  0  0  0  0
    4.1221  -21.5039   23.6039 C   0  0  0  0  0  0  0  0  0  0  0  0
    5.3453  -20.9199   23.2820 C   0  0  0  0  0  0  0  0  0  0  0  0
    6.2319  -21.5470   22.4618 C   0  0  0  0  0  0  0  0  0  0  0  0
    8.1174  -17.5500   22.3029 C   0  0  0  0  0  0  0  0  0  0  0  0
    9.1466  -16.9714   21.8524 O   0  0  0  0  0  0  0  0  0  0  0  0
    7.4685  -16.9768   23.4108 N   0  0  0  0  0  0  0  0  0  0  0  0
    7.9674  -15.7247   24.0460 C   0  0  1  0  0  0  0  0  0  0  0  0
    6.7857  -15.1571   24.7379 C   0  0  0  0  0  0  0  0  0  0  0  0
    7.0154  -14.0425   25.6636 C   0  0  0  0  0  0  0  0  0  0  0  0
    7.2527  -14.2428   27.0293 C   0  0  0  0  0  0  0  0  0  0  0  0
    7.4972  -13.2049   27.9017 C   0  0  0  0  0  0  0  0  0  0  0  0
    7.5141  -11.9019   27.4334 C   0  0  0  0  0  0  0  0  0  0  0  0
    7.2836  -11.6728   26.0931 C   0  0  0  0  0  0  0  0  0  0  0  0
    7.0438  -12.7320   25.2551 C   0  0  0  0  0  0  0  0  0  0  0  0
    9.0706  -16.1575   24.9147 C   0  0  0  0  0  0  0  0  0  0  0  0
    8.9789  -17.2280   25.6137 O   0  0  0  0  0  0  0  0  0  0  0  0
   10.2997  -15.4671   25.0563 N   0  0  0  0  0  0  0  0  0  0  0  0
   11.4706  -16.0792   25.6901 C   0  0  1  0  0  0  0  0  0  0  0  0
   12.7031  -15.8100   24.8414 C   0  0  0  0  0  0  0  0  0  0  0  0
   13.9505  -16.4464   25.3480 C   0  0  0  0  0  0  0  0  0  0  0  0
   15.0841  -16.0290   24.3921 C   0  0  0  0  0  0  0  0  0  0  0  0
   16.3940  -16.6386   24.8445 C   0  0  0  0  0  0  0  0  0  0  0  0
   17.4965  -16.3327   23.9874 N   0  0  0  0  0  0  0  0  0  0  0  0
   11.6286  -15.7647   27.1005 C   0  0  0  0  0  0  0  0  0  0  0  0
   10.7810  -14.8865   27.7877 O   0  0  0  0  0  0  0  0  0  0  0  0
   12.5446  -16.2542   27.8377 O   0  0  0  0  0  0  0  0  0  0  0  0
  2  1  1  6
  3  2  1  0
  4  3  1  0
  4  5  2  0
  6  5  1  0
  7  6  1  0
  8  7  2  0
  9  8  1  0
 10  9  2  0
 10 11  1  0
 11 12  2  0
 12  7  1  0
 12  4  1  0
 13 14  2  0
 13  2  1  0
 15 13  1  0
 16 17  1  1
 16 15  1  0
 18 17  1  0
 18 23  1  0
 19 18  2  0
 20 19  1  0
 20 21  2  0
 21 22  1  0
 22 23  2  0
 24 16  1  0
 25 24  2  0
 26 24  1  0
 27 26  1  0
 28 29  1  0
 27 28  1  6
 30 29  1  0
 31 30  1  0
 32 31  1  0
 33 34  1  0
 33 27  1  0
 35 33  2  0
M  END
$$$$
