WFK.pdb
     RDKit          3D

 35 37  0  0  1  0  0  0  0  0999 V2000
    7.8728  -18.4243   21.5316 N   0  0  0  0  0  0  0  0  0  0  0  0
    9.0973  -17.6787   21.4254 C   0  0  1  0  0  0  0  0  0  0  0  0
    9.1064  -16.7119   20.2700 C   0  0  0  0  0  0  0  0  0  0  0  0
    7.9968  -15.7542   20.3802 C   0  0  0  0  0  0  0  0  0  0  0  0
    6.6563  -16.0752   20.5150 C   0  0  0  0  0  0  0  0  0  0  0  0
    5.9260  -14.9636   20.6208 N   0  0  0  0  0  0  0  0  0  0  0  0
    6.7734  -13.9316   20.5561 C   0  0  0  0  0  0  0  0  0  0  0  0
    6.5563  -12.5758   20.6071 C   0  0  0  0  0  0  0  0  0  0  0  0
    7.5880  -11.6640   20.5123 C   0  0  0  0  0  0  0  0  0  0  0  0
    8.8793  -12.1222   20.3613 C   0  0  0  0  0  0  0  0  0  0  0  0
    9.1076  -13.4954   20.3090 C   0  0  0  0  0  0  0  0  0  0  0  0
    8.0820  -14.3849   20.4048 C   0  0  0  0  0  0  0  0  0  0  0  0
    9.3991  -16.9999   22.7146 C   0  0  0  0  0  0  0  0  0  0  0  0
   10.4654  -16.3367   22.8572 O   0  0  0  0  0  0  0  0  0  0  0  0
    8.5157  -17.0739   23.8059 N   0  0  0  0  0  0  0  0  0  0  0  0
    8.8553  -16.4749   25.1272 C   0  0  1  0  0  0  0  0  0  0  0  0
    7.5568  -16.0208   25.6793 C   0  0  0  0  0  0  0  0  0  0  0  0
    7.3442  -14.5746   25.8042 C   0  0  0  0  0  0  0  0  0  0  0  0
    6.1434  -13.9609   25.4257 C   0  0  0  0  0  0  0  0  0  0  0  0
    5.9236  -12.6079   25.5648 C   0  0  0  0  0  0  0  0  0  0  0  0
    6.9147  -11.8010   26.0978 C   0  0  0  0  0  0  0  0  0  0  0  0
    8.1084  -12.3765   26.4798 C   0  0  0  0  0  0  0  0  0  0  0  0
    8.2904  -13.7274   26.3258 C   0  0  0  0  0  0  0  0  0  0  0  0
    9.5235  -17.5534   25.8684 C   0  0  0  0  0  0  0  0  0  0  0  0
    9.0340  -18.7378   25.8944 O   0  0  0  0  0  0  0  0  0  0  0  0
   10.7310  -17.4010   26.5940 N   0  0  0  0  0  0  0  0  0  0  0  0
   11.3479  -18.5109   27.3253 C   0  0  1  0  0  0  0  0  0  0  0  0
   12.7022  -18.8294   26.7119 C   0  0  0  0  0  0  0  0  0  0  0  0
   13.4081  -19.9795   27.3415 C   0  0  0  0  0  0  0  0  0  0  0  0
   14.7522  -20.1351   26.6052 C   0  0  0  0  0  0  0  0  0  0  0  0
   15.5197  -21.3112   27.1708 C   0  0  0  0  0  0  0  0  0  0  0  0
   16.8293  -21.4622   26.6179 N   0  0  0  0  0  0  0  0  0  0  0  0
   11.3626  -18.3496   28.7698 C   0  0  0  0  0  0  0  0  0  0  0  0
   11.6069  -19.4073   29.6549 O   0  0  0  0  0  0  0  0  0  0  0  0
   11.1567  -17.2406   29.3615 O   0  0  0  0  0  0  0  0  0  0  0  0
  2  1  1  1
  3  2  1  0
  4  3  1  0
  4  5  2  0
  6  5  1  0
  7  6  1  0
  8  7  2  0
  9  8  1  0
 10  9  2  0
 10 11  1  0
 11 12  2  0
 12  7  1  0
 12  4  1  0
 13 14  2  0
 13  2  1  0
 15 13  1  0
 16 17  1  1
 16 15  1  0
 18 17  1  0
 18 23  1  0
 19 18  2  0
 20 19  1  0
 20 21  2  0
 21 22  1  0
 22 23  2  0
 24 16  1  0
 25 24  2  0
 26 24  1  0
 27 26  1  0
 28 29  1  0
 27 28  1  6
 30 29  1  0
 31 30  1  0
 32 31  1  0
 33 34  1  0
 33 27  1  0
 35 33  2  0
M  END
$$$$
