WFK.pdb
     RDKit          3D

 35 37  0  0  1  0  0  0  0  0999 V2000
    6.5091  -18.8017   25.1856 N   0  0  0  0  0  0  0  0  0  0  0  0
    7.0114  -17.5916   24.5938 C   0  0  1  0  0  0  0  0  0  0  0  0
    7.7747  -16.7277   25.5637 C   0  0  0  0  0  0  0  0  0  0  0  0
    7.0677  -15.4619   25.8056 C   0  0  0  0  0  0  0  0  0  0  0  0
    5.6971  -15.3074   25.9308 C   0  0  0  0  0  0  0  0  0  0  0  0
    5.3993  -14.0305   26.1780 N   0  0  0  0  0  0  0  0  0  0  0  0
    6.5550  -13.3595   26.2139 C   0  0  0  0  0  0  0  0  0  0  0  0
    6.8244  -12.0287   26.4238 C   0  0  0  0  0  0  0  0  0  0  0  0
    8.1114  -11.5304   26.4123 C   0  0  0  0  0  0  0  0  0  0  0  0
    9.1640  -12.3905   26.1831 C   0  0  0  0  0  0  0  0  0  0  0  0
    8.8990  -13.7414   25.9697 C   0  0  0  0  0  0  0  0  0  0  0  0
    7.6256  -14.2211   25.9845 C   0  0  0  0  0  0  0  0  0  0  0  0
    7.8180  -17.9075   23.3840 C   0  0  0  0  0  0  0  0  0  0  0  0
    8.4339  -19.0070   23.2917 O   0  0  0  0  0  0  0  0  0  0  0  0
    7.9200  -17.0007   22.3143 N   0  0  0  0  0  0  0  0  0  0  0  0
    8.7317  -17.3098   21.1036 C   0  0  1  0  0  0  0  0  0  0  0  0
    8.1175  -16.5026   20.0227 C   0  0  0  0  0  0  0  0  0  0  0  0
    7.8757  -15.0815   20.2947 C   0  0  0  0  0  0  0  0  0  0  0  0
    6.8636  -14.6486   21.1607 C   0  0  0  0  0  0  0  0  0  0  0  0
    6.6463  -13.3180   21.4445 C   0  0  0  0  0  0  0  0  0  0  0  0
    7.4478  -12.3505   20.8623 C   0  0  0  0  0  0  0  0  0  0  0  0
    8.4529  -12.7459   20.0047 C   0  0  0  0  0  0  0  0  0  0  0  0
    8.6387  -14.0803   19.7465 C   0  0  0  0  0  0  0  0  0  0  0  0
   10.1074  -16.9465   21.4705 C   0  0  0  0  0  0  0  0  0  0  0  0
   11.0694  -17.0751   20.6331 O   0  0  0  0  0  0  0  0  0  0  0  0
   10.4927  -16.4317   22.7331 N   0  0  0  0  0  0  0  0  0  0  0  0
   11.8760  -16.0520   23.0324 C   0  0  1  0  0  0  0  0  0  0  0  0
   12.3310  -16.7585   24.2995 C   0  0  0  0  0  0  0  0  0  0  0  0
   11.3662  -16.6761   25.4308 C   0  0  0  0  0  0  0  0  0  0  0  0
   11.9422  -17.5361   26.5717 C   0  0  0  0  0  0  0  0  0  0  0  0
   10.9354  -17.6453   27.6972 C   0  0  0  0  0  0  0  0  0  0  0  0
   11.3232  -18.5557   28.7288 N   0  0  0  0  0  0  0  0  0  0  0  0
   12.7929  -16.1740   21.9110 C   0  0  0  0  0  0  0  0  0  0  0  0
   13.2161  -17.4076   21.4001 O   0  0  0  0  0  0  0  0  0  0  0  0
   13.2930  -15.1791   21.2927 O   0  0  0  0  0  0  0  0  0  0  0  0
  2  1  1  1
  3  2  1  0
  4  3  1  0
  4  5  2  0
  6  5  1  0
  7  6  1  0
  8  7  2  0
  9  8  1  0
 10  9  2  0
 10 11  1  0
 11 12  2  0
 12  7  1  0
 12  4  1  0
 13 14  2  0
 13  2  1  0
 15 13  1  0
 16 17  1  6
 16 15  1  0
 18 17  1  0
 18 23  1  0
 19 18  2  0
 20 19  1  0
 20 21  2  0
 21 22  1  0
 22 23  2  0
 24 16  1  0
 25 24  2  0
 26 24  1  0
 27 26  1  0
 28 29  1  0
 27 28  1  1
 30 29  1  0
 31 30  1  0
 32 31  1  0
 33 34  1  0
 33 27  1  0
 35 33  2  0
M  END
$$$$
