WFK.pdb
     RDKit          3D

 35 37  0  0  1  0  0  0  0  0999 V2000
    8.0004  -17.3146   19.4900 N   0  0  0  0  0  0  0  0  0  0  0  0
    7.2603  -17.3289   20.7224 C   0  0  1  0  0  0  0  0  0  0  0  0
    6.9954  -18.7184   21.2409 C   0  0  0  0  0  0  0  0  0  0  0  0
    5.9508  -19.3825   20.4481 C   0  0  0  0  0  0  0  0  0  0  0  0
    6.1590  -20.1846   19.3384 C   0  0  0  0  0  0  0  0  0  0  0  0
    4.9945  -20.6508   18.8834 N   0  0  0  0  0  0  0  0  0  0  0  0
    4.0395  -20.1623   19.6812 C   0  0  0  0  0  0  0  0  0  0  0  0
    2.6746  -20.3187   19.6620 C   0  0  0  0  0  0  0  0  0  0  0  0
    1.8536  -19.7099   20.5895 C   0  0  0  0  0  0  0  0  0  0  0  0
    2.4153  -18.9182   21.5683 C   0  0  0  0  0  0  0  0  0  0  0  0
    3.7985  -18.7549   21.5946 C   0  0  0  0  0  0  0  0  0  0  0  0
    4.5977  -19.3614   20.6752 C   0  0  0  0  0  0  0  0  0  0  0  0
    7.9391  -16.4811   21.7394 C   0  0  0  0  0  0  0  0  0  0  0  0
    9.2005  -16.4223   21.7883 O   0  0  0  0  0  0  0  0  0  0  0  0
    7.2055  -15.7250   22.6706 N   0  0  0  0  0  0  0  0  0  0  0  0
    7.8603  -15.0871   23.8472 C   0  0  1  0  0  0  0  0  0  0  0  0
    7.0348  -13.8896   24.1338 C   0  0  0  0  0  0  0  0  0  0  0  0
    7.2758  -13.1902   25.4006 C   0  0  0  0  0  0  0  0  0  0  0  0
    8.5108  -12.6049   25.7074 C   0  0  0  0  0  0  0  0  0  0  0  0
    8.7388  -11.9219   26.8819 C   0  0  0  0  0  0  0  0  0  0  0  0
    7.7216  -11.7953   27.8129 C   0  0  0  0  0  0  0  0  0  0  0  0
    6.4940  -12.3612   27.5392 C   0  0  0  0  0  0  0  0  0  0  0  0
    6.3049  -13.0338   26.3587 C   0  0  0  0  0  0  0  0  0  0  0  0
    7.8620  -16.1264   24.8859 C   0  0  0  0  0  0  0  0  0  0  0  0
    7.0620  -17.1259   24.8205 O   0  0  0  0  0  0  0  0  0  0  0  0
    8.7179  -16.1321   26.0150 N   0  0  0  0  0  0  0  0  0  0  0  0
    9.6319  -17.2425   26.2963 C   0  0  1  0  0  0  0  0  0  0  0  0
   10.3302  -17.6600   25.0119 C   0  0  0  0  0  0  0  0  0  0  0  0
    9.9704  -19.0224   24.5303 C   0  0  0  0  0  0  0  0  0  0  0  0
   10.9888  -19.3916   23.4351 C   0  0  0  0  0  0  0  0  0  0  0  0
   10.7801  -20.8253   22.9956 C   0  0  0  0  0  0  0  0  0  0  0  0
   11.6351  -21.2278   21.9230 N   0  0  0  0  0  0  0  0  0  0  0  0
   10.5230  -17.0217   27.4234 C   0  0  0  0  0  0  0  0  0  0  0  0
   10.7843  -17.9971   28.3941 O   0  0  0  0  0  0  0  0  0  0  0  0
   11.1449  -15.9299   27.6322 O   0  0  0  0  0  0  0  0  0  0  0  0
  2  1  1  6
  3  2  1  0
  4  3  1  0
  4  5  2  0
  6  5  1  0
  7  6  1  0
  8  7  2  0
  9  8  1  0
 10  9  2  0
 10 11  1  0
 11 12  2  0
 12  7  1  0
 12  4  1  0
 13 14  2  0
 13  2  1  0
 15 13  1  0
 16 17  1  1
 16 15  1  0
 18 17  1  0
 18 23  1  0
 19 18  2  0
 20 19  1  0
 20 21  2  0
 21 22  1  0
 22 23  2  0
 24 16  1  0
 25 24  2  0
 26 24  1  0
 27 26  1  0
 28 29  1  0
 27 28  1  6
 30 29  1  0
 31 30  1  0
 32 31  1  0
 33 34  1  0
 33 27  1  0
 35 33  2  0
M  END
$$$$
