WFK.pdb
     RDKit          3D

 35 37  0  0  1  0  0  0  0  0999 V2000
    7.2550  -18.7617   21.8258 N   0  0  0  0  0  0  0  0  0  0  0  0
    7.7390  -17.4502   21.4906 C   0  0  1  0  0  0  0  0  0  0  0  0
    6.7206  -16.6074   20.7678 C   0  0  0  0  0  0  0  0  0  0  0  0
    7.3591  -15.4466   20.1309 C   0  0  0  0  0  0  0  0  0  0  0  0
    7.9434  -15.4274   18.8754 C   0  0  0  0  0  0  0  0  0  0  0  0
    8.3965  -14.2035   18.5980 N   0  0  0  0  0  0  0  0  0  0  0  0
    8.1143  -13.4337   19.6540 C   0  0  0  0  0  0  0  0  0  0  0  0
    8.3617  -12.1046   19.8988 C   0  0  0  0  0  0  0  0  0  0  0  0
    7.9880  -11.4944   21.0790 C   0  0  0  0  0  0  0  0  0  0  0  0
    7.3463  -12.2372   22.0468 C   0  0  0  0  0  0  0  0  0  0  0  0
    7.0917  -13.5855   21.8060 C   0  0  0  0  0  0  0  0  0  0  0  0
    7.4639  -14.1757   20.6376 C   0  0  0  0  0  0  0  0  0  0  0  0
    8.2567  -16.7670   22.7068 C   0  0  0  0  0  0  0  0  0  0  0  0
    9.2332  -15.9687   22.6286 O   0  0  0  0  0  0  0  0  0  0  0  0
    7.6813  -16.9859   23.9709 N   0  0  0  0  0  0  0  0  0  0  0  0
    8.2349  -16.3527   25.2008 C   0  0  1  0  0  0  0  0  0  0  0  0
    7.0688  -15.7064   25.8488 C   0  0  0  0  0  0  0  0  0  0  0  0
    7.1317  -14.2562   26.0612 C   0  0  0  0  0  0  0  0  0  0  0  0
    8.3299  -13.5969   26.3635 C   0  0  0  0  0  0  0  0  0  0  0  0
    8.4045  -12.2323   26.5373 C   0  0  0  0  0  0  0  0  0  0  0  0
    7.2623  -11.4594   26.4133 C   0  0  0  0  0  0  0  0  0  0  0  0
    6.0671  -12.0800   26.1163 C   0  0  0  0  0  0  0  0  0  0  0  0
    6.0322  -13.4413   25.9504 C   0  0  0  0  0  0  0  0  0  0  0  0
    8.8508  -17.4578   25.9481 C   0  0  0  0  0  0  0  0  0  0  0  0
    8.1402  -18.4209   26.4069 O   0  0  0  0  0  0  0  0  0  0  0  0
   10.2369  -17.5695   26.2198 N   0  0  0  0  0  0  0  0  0  0  0  0
   10.7960  -18.6923   26.9775 C   0  0  1  0  0  0  0  0  0  0  0  0
   11.9014  -19.3490   26.1660 C   0  0  0  0  0  0  0  0  0  0  0  0
   12.4591  -20.5883   26.7748 C   0  0  0  0  0  0  0  0  0  0  0  0
   13.6419  -21.0264   25.8906 C   0  0  0  0  0  0  0  0  0  0  0  0
   14.1861  -22.3540   26.3737 C   0  0  0  0  0  0  0  0  0  0  0  0
   15.3068  -22.8240   25.6207 N   0  0  0  0  0  0  0  0  0  0  0  0
   11.1610  -18.3749   28.3484 C   0  0  0  0  0  0  0  0  0  0  0  0
   11.3227  -17.0633   28.8125 O   0  0  0  0  0  0  0  0  0  0  0  0
   11.3660  -19.2522   29.2487 O   0  0  0  0  0  0  0  0  0  0  0  0
  2  1  1  1
  3  2  1  0
  4  3  1  0
  4  5  2  0
  6  5  1  0
  7  6  1  0
  8  7  2  0
  9  8  1  0
 10  9  2  0
 10 11  1  0
 11 12  2  0
 12  7  1  0
 12  4  1  0
 13 14  2  0
 13  2  1  0
 15 13  1  0
 16 17  1  1
 16 15  1  0
 18 17  1  0
 18 23  1  0
 19 18  2  0
 20 19  1  0
 20 21  2  0
 21 22  1  0
 22 23  2  0
 24 16  1  0
 25 24  2  0
 26 24  1  0
 27 26  1  0
 28 29  1  0
 27 28  1  6
 30 29  1  0
 31 30  1  0
 32 31  1  0
 33 34  1  0
 33 27  1  0
 35 33  2  0
M  END
$$$$
