WFK.pdb
     RDKit          3D

 35 37  0  0  1  0  0  0  0  0999 V2000
    7.9653  -17.6901   22.1446 N   0  0  0  0  0  0  0  0  0  0  0  0
    8.3570  -16.3169   21.9783 C   0  0  1  0  0  0  0  0  0  0  0  0
    7.1967  -15.3574   22.0296 C   0  0  0  0  0  0  0  0  0  0  0  0
    6.8062  -15.0821   23.4197 C   0  0  0  0  0  0  0  0  0  0  0  0
    6.4216  -16.0254   24.3580 C   0  0  0  0  0  0  0  0  0  0  0  0
    6.1673  -15.4339   25.5267 N   0  0  0  0  0  0  0  0  0  0  0  0
    6.3811  -14.1252   25.3570 C   0  0  0  0  0  0  0  0  0  0  0  0
    6.2640  -13.0675   26.2260 C   0  0  0  0  0  0  0  0  0  0  0  0
    6.5297  -11.7691   25.8407 C   0  0  0  0  0  0  0  0  0  0  0  0
    6.9252  -11.5195   24.5440 C   0  0  0  0  0  0  0  0  0  0  0  0
    7.0465  -12.5868   23.6570 C   0  0  0  0  0  0  0  0  0  0  0  0
    6.7829  -13.8630   24.0490 C   0  0  0  0  0  0  0  0  0  0  0  0
    9.4115  -15.9601   22.9655 C   0  0  0  0  0  0  0  0  0  0  0  0
   10.1298  -14.9344   22.7957 O   0  0  0  0  0  0  0  0  0  0  0  0
    9.6407  -16.7458   24.1088 N   0  0  0  0  0  0  0  0  0  0  0  0
   10.4833  -16.2565   25.2361 C   0  0  1  0  0  0  0  0  0  0  0  0
    9.5730  -16.2382   26.4058 C   0  0  0  0  0  0  0  0  0  0  0  0
   10.0875  -15.6633   27.6536 C   0  0  0  0  0  0  0  0  0  0  0  0
   10.0102  -14.2928   27.9321 C   0  0  0  0  0  0  0  0  0  0  0  0
   10.4650  -13.7469   29.1124 C   0  0  0  0  0  0  0  0  0  0  0  0
   11.0254  -14.5657   30.0783 C   0  0  0  0  0  0  0  0  0  0  0  0
   11.1155  -15.9199   29.8329 C   0  0  0  0  0  0  0  0  0  0  0  0
   10.6517  -16.4267   28.6455 C   0  0  0  0  0  0  0  0  0  0  0  0
   11.6011  -17.2073   25.3103 C   0  0  0  0  0  0  0  0  0  0  0  0
   12.3259  -17.2927   26.3640 O   0  0  0  0  0  0  0  0  0  0  0  0
   11.9712  -18.0946   24.2694 N   0  0  0  0  0  0  0  0  0  0  0  0
   13.0826  -19.0397   24.4074 C   0  0  1  0  0  0  0  0  0  0  0  0
   13.0005  -20.0811   23.3026 C   0  0  0  0  0  0  0  0  0  0  0  0
   11.6170  -20.5253   22.9769 C   0  0  0  0  0  0  0  0  0  0  0  0
   11.7219  -21.4440   21.7449 C   0  0  0  0  0  0  0  0  0  0  0  0
   10.3485  -21.9491   21.3567 C   0  0  0  0  0  0  0  0  0  0  0  0
    9.7058  -22.7114   22.3811 N   0  0  0  0  0  0  0  0  0  0  0  0
   14.3889  -18.4196   24.5563 C   0  0  0  0  0  0  0  0  0  0  0  0
   14.5931  -17.0366   24.4705 O   0  0  0  0  0  0  0  0  0  0  0  0
   15.4614  -19.0702   24.7770 O   0  0  0  0  0  0  0  0  0  0  0  0
  2  1  1  1
  3  2  1  0
  4  3  1  0
  4  5  2  0
  6  5  1  0
  7  6  1  0
  8  7  2  0
  9  8  1  0
 10  9  2  0
 10 11  1  0
 11 12  2  0
 12  7  1  0
 12  4  1  0
 13 14  2  0
 13  2  1  0
 15 13  1  0
 16 17  1  1
 16 15  1  0
 18 17  1  0
 18 23  1  0
 19 18  2  0
 20 19  1  0
 20 21  2  0
 21 22  1  0
 22 23  2  0
 24 16  1  0
 25 24  2  0
 26 24  1  0
 27 26  1  0
 28 29  1  0
 27 28  1  6
 30 29  1  0
 31 30  1  0
 32 31  1  0
 33 34  1  0
 33 27  1  0
 35 33  2  0
M  END
$$$$
