WFK.pdb
     RDKit          3D

 35 37  0  0  1  0  0  0  0  0999 V2000
    5.0234  -20.3323   22.6463 N   0  0  0  0  0  0  0  0  0  0  0  0
    5.7547  -19.9086   23.8092 C   0  0  1  0  0  0  0  0  0  0  0  0
    6.8274  -20.8817   24.2242 C   0  0  0  0  0  0  0  0  0  0  0  0
    6.3296  -21.7994   25.2590 C   0  0  0  0  0  0  0  0  0  0  0  0
    5.7175  -23.0215   25.0355 C   0  0  0  0  0  0  0  0  0  0  0  0
    5.4219  -23.6067   26.1975 N   0  0  0  0  0  0  0  0  0  0  0  0
    5.8330  -22.7821   27.1661 C   0  0  0  0  0  0  0  0  0  0  0  0
    5.7701  -22.8884   28.5345 C   0  0  0  0  0  0  0  0  0  0  0  0
    6.2543  -21.9021   29.3697 C   0  0  0  0  0  0  0  0  0  0  0  0
    6.8198  -20.7719   28.8191 C   0  0  0  0  0  0  0  0  0  0  0  0
    6.8875  -20.6567   27.4325 C   0  0  0  0  0  0  0  0  0  0  0  0
    6.4077  -21.6367   26.6193 C   0  0  0  0  0  0  0  0  0  0  0  0
    6.3016  -18.5405   23.6021 C   0  0  0  0  0  0  0  0  0  0  0  0
    6.7389  -18.1880   22.4701 O   0  0  0  0  0  0  0  0  0  0  0  0
    6.3492  -17.6042   24.6500 N   0  0  0  0  0  0  0  0  0  0  0  0
    6.9201  -16.2418   24.4542 C   0  0  1  0  0  0  0  0  0  0  0  0
    6.2907  -15.4147   25.5111 C   0  0  0  0  0  0  0  0  0  0  0  0
    6.7851  -14.0439   25.6804 C   0  0  0  0  0  0  0  0  0  0  0  0
    7.1867  -13.5433   26.9254 C   0  0  0  0  0  0  0  0  0  0  0  0
    7.6785  -12.2670   27.0902 C   0  0  0  0  0  0  0  0  0  0  0  0
    7.7898  -11.4258   25.9959 C   0  0  0  0  0  0  0  0  0  0  0  0
    7.4020  -11.8903   24.7566 C   0  0  0  0  0  0  0  0  0  0  0  0
    6.9171  -13.1675   24.6318 C   0  0  0  0  0  0  0  0  0  0  0  0
    8.3739  -16.4239   24.5652 C   0  0  0  0  0  0  0  0  0  0  0  0
    8.8760  -17.1966   25.4562 O   0  0  0  0  0  0  0  0  0  0  0  0
    9.3285  -15.7946   23.7282 N   0  0  0  0  0  0  0  0  0  0  0  0
   10.7259  -16.2319   23.6714 C   0  0  1  0  0  0  0  0  0  0  0  0
   11.3366  -15.8015   22.3472 C   0  0  0  0  0  0  0  0  0  0  0  0
   12.7748  -16.1539   22.1889 C   0  0  0  0  0  0  0  0  0  0  0  0
   13.2216  -15.6011   20.8223 C   0  0  0  0  0  0  0  0  0  0  0  0
   14.6531  -16.0070   20.5422 C   0  0  0  0  0  0  0  0  0  0  0  0
   15.1284  -15.5895   19.2602 N   0  0  0  0  0  0  0  0  0  0  0  0
   11.5162  -15.8855   24.8413 C   0  0  0  0  0  0  0  0  0  0  0  0
   11.2323  -14.7824   25.6565 O   0  0  0  0  0  0  0  0  0  0  0  0
   12.5321  -16.5470   25.2318 O   0  0  0  0  0  0  0  0  0  0  0  0
  2  1  1  6
  3  2  1  0
  4  3  1  0
  4  5  2  0
  6  5  1  0
  7  6  1  0
  8  7  2  0
  9  8  1  0
 10  9  2  0
 10 11  1  0
 11 12  2  0
 12  7  1  0
 12  4  1  0
 13 14  2  0
 13  2  1  0
 15 13  1  0
 16 17  1  1
 16 15  1  0
 18 17  1  0
 18 23  1  0
 19 18  2  0
 20 19  1  0
 20 21  2  0
 21 22  1  0
 22 23  2  0
 24 16  1  0
 25 24  2  0
 26 24  1  0
 27 26  1  0
 28 29  1  0
 27 28  1  6
 30 29  1  0
 31 30  1  0
 32 31  1  0
 33 34  1  0
 33 27  1  0
 35 33  2  0
M  END
$$$$
