RLY.pdb
     RDKit          3D

 32 32  0  0  1  0  0  0  0  0999 V2000
   16.3425  -14.8998  -13.7684 N   0  0  0  0  0  0  0  0  0  0  0  0
   15.0761  -14.3500  -14.1238 C   0  0  0  0  0  0  0  0  0  0  0  0
   14.0389  -15.1236  -14.3094 N   0  0  0  0  0  0  0  0  0  0  0  0
   14.8636  -12.9636  -14.2937 N   0  0  0  0  0  0  0  0  0  0  0  0
   15.9460  -12.0230  -14.1321 C   0  0  0  0  0  0  0  0  0  0  0  0
   16.1044  -11.7183  -12.6777 C   0  0  0  0  0  0  0  0  0  0  0  0
   15.8900  -10.2900  -12.3139 C   0  0  0  0  0  0  0  0  0  0  0  0
   14.7598  -10.0847  -11.3381 C   0  0  2  0  0  0  0  0  0  0  0  0
   13.4759  -10.4688  -11.8611 N   0  0  0  0  0  0  0  0  0  0  0  0
   14.6706   -8.6735  -10.8860 C   0  0  0  0  0  0  0  0  0  0  0  0
   14.1215   -7.7901  -11.5911 O   0  0  0  0  0  0  0  0  0  0  0  0
   13.1314  -14.6731  -14.5713 C   0  0  0  0  0  0  0  0  0  0  0  0
   13.2431   -6.2145   -5.9886 C   0  0  1  0  0  0  0  0  0  0  0  0
   13.4159   -6.5017   -7.4876 C   0  0  0  0  0  0  0  0  0  0  0  0
   12.7240   -5.4455   -8.2778 C   0  0  0  0  0  0  0  0  0  0  0  0
   14.8725   -6.6333   -7.8148 C   0  0  2  0  0  0  0  0  0  0  0  0
   15.2058   -6.8663   -9.2335 N   0  0  0  0  0  0  0  0  0  0  0  0
   15.2041   -8.2477   -9.6284 C   0  0  0  0  0  0  0  0  0  0  0  0
   16.4963   -6.1977   -9.6318 O   0  0  0  0  0  0  0  0  0  0  0  0
   17.5975   -6.6473   -9.2234 O   0  0  0  0  0  0  0  0  0  0  0  0
   22.9798   -3.9029  -14.6147 C   0  0  0  0  0  0  0  0  0  0  0  0
   21.8414   -4.3219  -13.9425 C   0  0  0  0  0  0  0  0  0  0  0  0
   22.0117   -5.0039  -12.7417 C   0  0  0  0  0  0  0  0  0  0  0  0
   20.8852   -5.4105  -12.0900 C   0  0  0  0  0  0  0  0  0  0  0  0
   19.6081   -5.1695  -12.5784 C   0  0  0  0  0  0  0  0  0  0  0  0
   18.4380   -5.6482  -11.8122 C   0  0  1  0  0  0  0  0  0  0  0  0
   17.7625   -4.5688  -11.0351 N   0  0  0  0  0  0  0  0  0  0  0  0
   16.5128   -5.0565  -10.4668 C   0  0  0  0  0  0  0  0  0  0  0  0
   17.5152   -3.3313  -11.8220 O   0  0  0  0  0  0  0  0  0  0  0  0
   18.4026   -2.2886  -11.9302 C   0  0  0  0  0  0  0  0  0  0  0  0
   19.4496   -4.4979  -13.7602 C   0  0  0  0  0  0  0  0  0  0  0  0
   20.5871   -4.0776  -14.4352 O   0  0  0  0  0  0  0  0  0  0  0  0
  2  3  2  0
  2  1  1  0
  4  2  1  0
  5  4  1  0
  6  5  1  0
  7  6  1  0
  8  9  1  6
  8  7  1  0
 10 11  2  0
 10  8  1  0
 13 12  1  1
 13 15  1  0
 14 13  1  0
 16 15  1  6
 16 17  1  0
 16 18  1  0
 17 10  1  0
 18 19  2  0
 21 22  2  0
 21 20  1  0
 23 22  1  0
 24 23  2  0
 25 24  1  0
 26 25  1  1
 27 18  1  0
 27 26  1  0
 28 29  1  0
 28 26  1  0
 30 24  1  0
 30 31  2  0
 31 21  1  0
 32 28  2  0
M  END
$$$$
