RLY.pdb
     RDKit          3D

 32 32  0  0  1  0  0  0  0  0999 V2000
   23.5833  -16.9386  -17.1109 N   0  0  0  0  0  0  0  0  0  0  0  0
   23.9331  -16.6999  -18.4721 C   0  0  0  0  0  0  0  0  0  0  0  0
   24.5106  -15.5827  -18.8287 N   0  0  0  0  0  0  0  0  0  0  0  0
   23.6851  -17.6349  -19.5018 N   0  0  0  0  0  0  0  0  0  0  0  0
   23.1959  -18.9582  -19.1988 C   0  0  0  0  0  0  0  0  0  0  0  0
   24.0012  -19.9555  -19.9669 C   0  0  0  0  0  0  0  0  0  0  0  0
   24.6953  -20.9730  -19.1294 C   0  0  0  0  0  0  0  0  0  0  0  0
   25.9664  -20.4633  -18.5001 C   0  0  2  0  0  0  0  0  0  0  0  0
   27.1369  -20.7021  -19.3015 N   0  0  0  0  0  0  0  0  0  0  0  0
   26.1956  -21.0582  -17.1595 C   0  0  0  0  0  0  0  0  0  0  0  0
   26.2448  -22.3026  -16.9915 O   0  0  0  0  0  0  0  0  0  0  0  0
   24.6599  -15.4118  -19.8503 C   0  0  0  0  0  0  0  0  0  0  0  0
   28.7810  -19.7960  -11.7167 C   0  0  2  0  0  0  0  0  0  0  0  0
   27.7259  -20.6348  -12.4532 C   0  0  0  0  0  0  0  0  0  0  0  0
   26.4894  -20.7133  -11.6264 C   0  0  0  0  0  0  0  0  0  0  0  0
   27.4932  -20.0703  -13.8218 C   0  0  1  0  0  0  0  0  0  0  0  0
   26.5699  -20.8242  -14.6921 N   0  0  0  0  0  0  0  0  0  0  0  0
   26.3711  -20.2481  -15.9931 C   0  0  0  0  0  0  0  0  0  0  0  0
   25.2488  -21.0958  -14.0198 O   0  0  0  0  0  0  0  0  0  0  0  0
   25.2135  -21.5928  -12.8651 O   0  0  0  0  0  0  0  0  0  0  0  0
   17.8464  -19.7176  -10.0845 C   0  0  0  0  0  0  0  0  0  0  0  0
   19.0750  -19.8024  -10.7223 C   0  0  0  0  0  0  0  0  0  0  0  0
   19.3041  -18.9564  -11.8030 C   0  0  0  0  0  0  0  0  0  0  0  0
   20.5155  -19.0487  -12.4217 C   0  0  0  0  0  0  0  0  0  0  0  0
   21.4995  -19.9396  -12.0145 C   0  0  0  0  0  0  0  0  0  0  0  0
   22.7854  -19.9802  -12.7427 C   0  0  1  0  0  0  0  0  0  0  0  0
   22.7638  -20.8923  -13.9230 N   0  0  0  0  0  0  0  0  0  0  0  0
   24.0198  -20.8056  -14.6563 C   0  0  0  0  0  0  0  0  0  0  0  0
   21.6198  -20.6525  -14.8426 O   0  0  0  0  0  0  0  0  0  0  0  0
   20.3754  -21.2154  -14.6984 C   0  0  0  0  0  0  0  0  0  0  0  0
   21.2658  -20.7681  -10.9506 C   0  0  0  0  0  0  0  0  0  0  0  0
   20.0372  -20.6856  -10.3105 O   0  0  0  0  0  0  0  0  0  0  0  0
  2  3  2  0
  2  1  1  0
  4  2  1  0
  5  4  1  0
  6  5  1  0
  7  6  1  0
  8  9  1  6
  8  7  1  0
 10 11  2  0
 10  8  1  0
 13 12  1  1
 13 15  1  0
 14 13  1  0
 16 15  1  6
 16 17  1  0
 16 18  1  0
 17 10  1  0
 18 19  2  0
 21 22  2  0
 21 20  1  0
 23 22  1  0
 24 23  2  0
 25 24  1  0
 26 25  1  1
 27 18  1  0
 27 26  1  0
 28 29  1  0
 28 26  1  0
 30 24  1  0
 30 31  2  0
 31 21  1  0
 32 28  2  0
M  END
$$$$
