RLY.pdb
     RDKit          3D

 32 32  0  0  1  0  0  0  0  0999 V2000
   21.8538  -18.2816  -13.5407 N   0  0  0  0  0  0  0  0  0  0  0  0
   21.6529  -17.9462  -14.9117 C   0  0  0  0  0  0  0  0  0  0  0  0
   20.8873  -16.9421  -15.2498 N   0  0  0  0  0  0  0  0  0  0  0  0
   22.2557  -18.6606  -15.9711 N   0  0  0  0  0  0  0  0  0  0  0  0
   23.2239  -19.6980  -15.7085 C   0  0  0  0  0  0  0  0  0  0  0  0
   24.3341  -19.1227  -14.8901 C   0  0  0  0  0  0  0  0  0  0  0  0
   24.9353  -20.0655  -13.9062 C   0  0  0  0  0  0  0  0  0  0  0  0
   26.4289  -20.2076  -14.0499 C   0  0  2  0  0  0  0  0  0  0  0  0
   26.8368  -20.6728  -15.3485 N   0  0  0  0  0  0  0  0  0  0  0  0
   26.9964  -21.1264  -13.0312 C   0  0  0  0  0  0  0  0  0  0  0  0
   26.7436  -22.3573  -13.0417 O   0  0  0  0  0  0  0  0  0  0  0  0
   20.7902  -16.7203  -16.2679 C   0  0  0  0  0  0  0  0  0  0  0  0
   30.5470  -21.3684  -12.8587 C   0  0  2  0  0  0  0  0  0  0  0  0
   30.6663  -22.0219  -11.4738 C   0  0  0  0  0  0  0  0  0  0  0  0
   32.0773  -21.9350  -11.0045 C   0  0  0  0  0  0  0  0  0  0  0  0
   29.6845  -21.3956  -10.5306 C   0  0  2  0  0  0  0  0  0  0  0  0
   28.2600  -21.5068  -10.9001 N   0  0  0  0  0  0  0  0  0  0  0  0
   27.8571  -20.6592  -11.9880 C   0  0  0  0  0  0  0  0  0  0  0  0
   27.3487  -21.3241   -9.7139 O   0  0  0  0  0  0  0  0  0  0  0  0
   27.8286  -21.1489   -8.5647 O   0  0  0  0  0  0  0  0  0  0  0  0
   28.7128  -19.8634   -3.6836 C   0  0  0  0  0  0  0  0  0  0  0  0
   27.8965  -19.7832   -4.8019 C   0  0  0  0  0  0  0  0  0  0  0  0
   27.2876  -20.9532   -5.2452 C   0  0  0  0  0  0  0  0  0  0  0  0
   26.4873  -20.8618   -6.3453 C   0  0  0  0  0  0  0  0  0  0  0  0
   26.2697  -19.6663   -7.0170 C   0  0  0  0  0  0  0  0  0  0  0  0
   25.3906  -19.6535   -8.2055 C   0  0  2  0  0  0  0  0  0  0  0  0
   25.0799  -21.0183   -8.7215 N   0  0  0  0  0  0  0  0  0  0  0  0
   25.9413  -21.3440   -9.8504 C   0  0  0  0  0  0  0  0  0  0  0  0
   23.6534  -21.2037   -9.0994 O   0  0  0  0  0  0  0  0  0  0  0  0
   23.2129  -21.4437  -10.3778 C   0  0  0  0  0  0  0  0  0  0  0  0
   26.8725  -18.5202   -6.5741 C   0  0  0  0  0  0  0  0  0  0  0  0
   27.6900  -18.5975   -5.4553 O   0  0  0  0  0  0  0  0  0  0  0  0
  2  3  2  0
  2  1  1  0
  4  2  1  0
  5  4  1  0
  6  5  1  0
  7  6  1  0
  8  9  1  6
  8  7  1  0
 10 11  2  0
 10  8  1  0
 13 12  1  6
 13 15  1  0
 14 13  1  0
 16 15  1  6
 16 17  1  0
 16 18  1  0
 17 10  1  0
 18 19  2  0
 21 22  2  0
 21 20  1  0
 23 22  1  0
 24 23  2  0
 25 24  1  0
 26 25  1  1
 27 18  1  0
 27 26  1  0
 28 29  1  0
 28 26  1  0
 30 24  1  0
 30 31  2  0
 31 21  1  0
 32 28  2  0
M  END
$$$$
