RLY.pdb
     RDKit          3D

 32 32  0  0  1  0  0  0  0  0999 V2000
   29.9452  -23.7194  -18.1683 N   0  0  0  0  0  0  0  0  0  0  0  0
   29.6156  -22.5082  -18.8442 C   0  0  0  0  0  0  0  0  0  0  0  0
   29.5716  -22.4611  -20.1498 N   0  0  0  0  0  0  0  0  0  0  0  0
   29.3205  -21.3066  -18.1623 N   0  0  0  0  0  0  0  0  0  0  0  0
   28.9836  -21.3146  -16.7592 C   0  0  0  0  0  0  0  0  0  0  0  0
   27.8433  -22.2564  -16.5445 C   0  0  0  0  0  0  0  0  0  0  0  0
   27.3180  -22.2907  -15.1512 C   0  0  0  0  0  0  0  0  0  0  0  0
   26.4053  -21.1356  -14.8277 C   0  0  2  0  0  0  0  0  0  0  0  0
   27.1073  -19.9530  -14.4059 N   0  0  0  0  0  0  0  0  0  0  0  0
   25.4207  -21.4885  -13.7743 C   0  0  0  0  0  0  0  0  0  0  0  0
   24.6552  -22.4778  -13.8939 O   0  0  0  0  0  0  0  0  0  0  0  0
   29.3760  -21.5374  -20.6011 C   0  0  0  0  0  0  0  0  0  0  0  0
   26.3062  -19.8939   -8.5554 C   0  0  1  0  0  0  0  0  0  0  0  0
   26.0585  -20.6847   -9.8487 C   0  0  0  0  0  0  0  0  0  0  0  0
   26.5522  -22.0797   -9.6791 C   0  0  0  0  0  0  0  0  0  0  0  0
   24.6092  -20.6063  -10.2220 C   0  0  2  0  0  0  0  0  0  0  0  0
   24.2676  -20.9965  -11.6038 N   0  0  0  0  0  0  0  0  0  0  0  0
   25.2926  -20.7225  -12.5725 C   0  0  0  0  0  0  0  0  0  0  0  0
   22.9461  -20.4230  -12.0465 O   0  0  0  0  0  0  0  0  0  0  0  0
   22.8673  -19.2263  -12.4249 O   0  0  0  0  0  0  0  0  0  0  0  0
   16.5036  -19.0666  -17.3483 C   0  0  0  0  0  0  0  0  0  0  0  0
   17.6034  -19.3870  -16.5666 C   0  0  0  0  0  0  0  0  0  0  0  0
   17.9934  -20.7215  -16.5121 C   0  0  0  0  0  0  0  0  0  0  0  0
   19.0761  -21.0240  -15.7406 C   0  0  0  0  0  0  0  0  0  0  0  0
   19.7805  -20.0635  -15.0273 C   0  0  0  0  0  0  0  0  0  0  0  0
   20.9414  -20.4755  -14.2100 C   0  0  1  0  0  0  0  0  0  0  0  0
   20.5882  -20.7616  -12.7892 N   0  0  0  0  0  0  0  0  0  0  0  0
   21.7649  -21.2006  -12.0507 C   0  0  0  0  0  0  0  0  0  0  0  0
   19.4907  -21.7533  -12.6343 O   0  0  0  0  0  0  0  0  0  0  0  0
   18.1725  -21.4279  -12.4281 C   0  0  0  0  0  0  0  0  0  0  0  0
   19.3901  -18.7531  -15.0865 C   0  0  0  0  0  0  0  0  0  0  0  0
   18.2897  -18.4297  -15.8679 O   0  0  0  0  0  0  0  0  0  0  0  0
  2  3  2  0
  2  1  1  0
  4  2  1  0
  5  4  1  0
  6  5  1  0
  7  6  1  0
  8  9  1  1
  8  7  1  0
 10 11  2  0
 10  8  1  0
 13 12  1  6
 13 15  1  0
 14 13  1  0
 16 15  1  1
 16 17  1  0
 16 18  1  0
 17 10  1  0
 18 19  2  0
 21 22  2  0
 21 20  1  0
 23 22  1  0
 24 23  2  0
 25 24  1  0
 26 25  1  1
 27 18  1  0
 27 26  1  0
 28 29  1  0
 28 26  1  0
 30 24  1  0
 30 31  2  0
 31 21  1  0
 32 28  2  0
M  END
$$$$
