RLY.pdb
     RDKit          3D

 32 32  0  0  1  0  0  0  0  0999 V2000
   30.0261  -22.3048  -18.0450 N   0  0  0  0  0  0  0  0  0  0  0  0
   30.0608  -21.1008  -18.8077 C   0  0  0  0  0  0  0  0  0  0  0  0
   30.2344  -21.1338  -20.1029 N   0  0  0  0  0  0  0  0  0  0  0  0
   29.9119  -19.8217  -18.2266 N   0  0  0  0  0  0  0  0  0  0  0  0
   28.9997  -19.6083  -17.1290 C   0  0  0  0  0  0  0  0  0  0  0  0
   27.6104  -19.5119  -17.6710 C   0  0  0  0  0  0  0  0  0  0  0  0
   26.6167  -20.3936  -16.9975 C   0  0  0  0  0  0  0  0  0  0  0  0
   26.9944  -20.7480  -15.5820 C   0  0  2  0  0  0  0  0  0  0  0  0
   27.9490  -21.8206  -15.4964 N   0  0  0  0  0  0  0  0  0  0  0  0
   25.8079  -21.1201  -14.7710 C   0  0  0  0  0  0  0  0  0  0  0  0
   24.9611  -21.9505  -15.1864 O   0  0  0  0  0  0  0  0  0  0  0  0
   30.1689  -20.2320  -20.6298 C   0  0  0  0  0  0  0  0  0  0  0  0
   25.8734  -20.5134   -9.1032 C   0  0  1  0  0  0  0  0  0  0  0  0
   25.8488  -21.0624  -10.5375 C   0  0  0  0  0  0  0  0  0  0  0  0
   26.0140  -22.5424  -10.5049 C   0  0  0  0  0  0  0  0  0  0  0  0
   24.5965  -20.6174  -11.2300 C   0  0  2  0  0  0  0  0  0  0  0  0
   24.4718  -20.9822  -12.6547 N   0  0  0  0  0  0  0  0  0  0  0  0
   25.5678  -20.5539  -13.4791 C   0  0  0  0  0  0  0  0  0  0  0  0
   23.1562  -20.5402  -13.2420 O   0  0  0  0  0  0  0  0  0  0  0  0
   22.9832  -19.3425  -13.5841 O   0  0  0  0  0  0  0  0  0  0  0  0
   15.2182  -20.4947  -16.9193 C   0  0  0  0  0  0  0  0  0  0  0  0
   16.5070  -20.7808  -16.4944 C   0  0  0  0  0  0  0  0  0  0  0  0
   16.6827  -21.8673  -15.6431 C   0  0  0  0  0  0  0  0  0  0  0  0
   17.9542  -22.1388  -15.2324 C   0  0  0  0  0  0  0  0  0  0  0  0
   19.0481  -21.3814  -15.6290 C   0  0  0  0  0  0  0  0  0  0  0  0
   20.3943  -21.7400  -15.1344 C   0  0  1  0  0  0  0  0  0  0  0  0
   20.7940  -20.9801  -13.9145 N   0  0  0  0  0  0  0  0  0  0  0  0
   22.0851  -21.4452  -13.4252 C   0  0  0  0  0  0  0  0  0  0  0  0
   19.7867  -21.0319  -12.8215 O   0  0  0  0  0  0  0  0  0  0  0  0
   18.7792  -20.1146  -12.6488 C   0  0  0  0  0  0  0  0  0  0  0  0
   18.8663  -20.3144  -16.4665 C   0  0  0  0  0  0  0  0  0  0  0  0
   17.5777  -20.0256  -16.8932 O   0  0  0  0  0  0  0  0  0  0  0  0
  2  3  2  0
  2  1  1  0
  4  2  1  0
  5  4  1  0
  6  5  1  0
  7  6  1  0
  8  9  1  6
  8  7  1  0
 10 11  2  0
 10  8  1  0
 13 12  1  6
 13 15  1  0
 14 13  1  0
 16 15  1  1
 16 17  1  0
 16 18  1  0
 17 10  1  0
 18 19  2  0
 21 22  2  0
 21 20  1  0
 23 22  1  0
 24 23  2  0
 25 24  1  0
 26 25  1  6
 27 18  1  0
 27 26  1  0
 28 29  1  0
 28 26  1  0
 30 24  1  0
 30 31  2  0
 31 21  1  0
 32 28  2  0
M  END
$$$$
