RLY.pdb
     RDKit          3D

 32 32  0  0  1  0  0  0  0  0999 V2000
   21.9816  -26.4171  -15.9695 N   0  0  0  0  0  0  0  0  0  0  0  0
   23.3787  -26.2567  -16.2037 C   0  0  0  0  0  0  0  0  0  0  0  0
   24.2327  -27.1617  -15.8031 N   0  0  0  0  0  0  0  0  0  0  0  0
   23.9196  -25.1346  -16.8704 N   0  0  0  0  0  0  0  0  0  0  0  0
   23.1602  -24.4349  -17.8784 C   0  0  0  0  0  0  0  0  0  0  0  0
   24.1057  -23.8878  -18.8982 C   0  0  0  0  0  0  0  0  0  0  0  0
   25.2301  -23.0871  -18.3386 C   0  0  0  0  0  0  0  0  0  0  0  0
   24.8338  -21.6832  -17.9595 C   0  0  2  0  0  0  0  0  0  0  0  0
   24.9494  -20.7441  -19.0430 N   0  0  0  0  0  0  0  0  0  0  0  0
   25.6348  -21.1727  -16.8187 C   0  0  0  0  0  0  0  0  0  0  0  0
   26.0553  -21.9382  -15.9151 O   0  0  0  0  0  0  0  0  0  0  0  0
   25.2507  -26.9818  -15.9658 C   0  0  0  0  0  0  0  0  0  0  0  0
   28.8285  -16.4407  -17.0622 C   0  0  2  0  0  0  0  0  0  0  0  0
   28.2644  -17.8663  -16.9685 C   0  0  0  0  0  0  0  0  0  0  0  0
   29.3884  -18.8431  -16.9354 C   0  0  0  0  0  0  0  0  0  0  0  0
   27.3470  -17.9727  -15.7884 C   0  0  2  0  0  0  0  0  0  0  0  0
   26.7147  -19.2880  -15.5679 N   0  0  0  0  0  0  0  0  0  0  0  0
   25.9679  -19.7872  -16.6891 C   0  0  0  0  0  0  0  0  0  0  0  0
   25.8789  -19.3142  -14.3142 O   0  0  0  0  0  0  0  0  0  0  0  0
   24.7741  -18.7146  -14.2740 O   0  0  0  0  0  0  0  0  0  0  0  0
   20.6097  -20.5334   -7.9077 C   0  0  0  0  0  0  0  0  0  0  0  0
   21.4600  -20.5127   -9.0032 C   0  0  0  0  0  0  0  0  0  0  0  0
   22.3509  -21.5710   -9.1523 C   0  0  0  0  0  0  0  0  0  0  0  0
   23.1815  -21.5395  -10.2332 C   0  0  0  0  0  0  0  0  0  0  0  0
   23.1634  -20.5087  -11.1630 C   0  0  0  0  0  0  0  0  0  0  0  0
   24.1010  -20.5479  -12.3053 C   0  0  2  0  0  0  0  0  0  0  0  0
   25.4636  -20.0452  -11.9648 N   0  0  0  0  0  0  0  0  0  0  0  0
   26.3031  -20.0042  -13.1549 C   0  0  0  0  0  0  0  0  0  0  0  0
   26.1377  -20.8253  -10.8930 O   0  0  0  0  0  0  0  0  0  0  0  0
   26.8475  -21.9822  -11.1027 C   0  0  0  0  0  0  0  0  0  0  0  0
   22.2839  -19.4716  -11.0087 C   0  0  0  0  0  0  0  0  0  0  0  0
   21.4319  -19.4897   -9.9133 O   0  0  0  0  0  0  0  0  0  0  0  0
  2  3  2  0
  2  1  1  0
  4  2  1  0
  5  4  1  0
  6  5  1  0
  7  6  1  0
  8  9  1  6
  8  7  1  0
 10 11  2  0
 10  8  1  0
 13 12  1  6
 13 15  1  0
 14 13  1  0
 16 15  1  6
 16 17  1  0
 16 18  1  0
 17 10  1  0
 18 19  2  0
 21 22  2  0
 21 20  1  0
 23 22  1  0
 24 23  2  0
 25 24  1  0
 26 25  1  6
 27 18  1  0
 27 26  1  0
 28 29  1  0
 28 26  1  0
 30 24  1  0
 30 31  2  0
 31 21  1  0
 32 28  2  0
M  END
$$$$
