RLY.pdb
     RDKit          3D

 32 32  0  0  1  0  0  0  0  0999 V2000
   24.5521  -23.6692  -18.4119 N   0  0  0  0  0  0  0  0  0  0  0  0
   25.1478  -22.8438  -19.4100 C   0  0  0  0  0  0  0  0  0  0  0  0
   24.5042  -22.5539  -20.5103 N   0  0  0  0  0  0  0  0  0  0  0  0
   26.4435  -22.2964  -19.2778 N   0  0  0  0  0  0  0  0  0  0  0  0
   27.0371  -22.1038  -17.9766 C   0  0  0  0  0  0  0  0  0  0  0  0
   26.6606  -20.7482  -17.4729 C   0  0  0  0  0  0  0  0  0  0  0  0
   26.0415  -20.7371  -16.1183 C   0  0  0  0  0  0  0  0  0  0  0  0
   26.6032  -21.7882  -15.1955 C   0  0  2  0  0  0  0  0  0  0  0  0
   26.6160  -23.1065  -15.7710 N   0  0  0  0  0  0  0  0  0  0  0  0
   25.8585  -21.8515  -13.9129 C   0  0  0  0  0  0  0  0  0  0  0  0
   24.7846  -22.4954  -13.8067 O   0  0  0  0  0  0  0  0  0  0  0  0
   24.9899  -21.9579  -21.2202 C   0  0  0  0  0  0  0  0  0  0  0  0
   24.8836  -21.7610   -8.5807 C   0  0  2  0  0  0  0  0  0  0  0  0
   25.4202  -20.4245   -9.1148 C   0  0  0  0  0  0  0  0  0  0  0  0
   26.1589  -19.7182   -8.0312 C   0  0  0  0  0  0  0  0  0  0  0  0
   26.2463  -20.6630  -10.3422 C   0  0  1  0  0  0  0  0  0  0  0  0
   25.5129  -21.0782  -11.5538 N   0  0  0  0  0  0  0  0  0  0  0  0
   26.3231  -21.1842  -12.7355 C   0  0  0  0  0  0  0  0  0  0  0  0
   24.3036  -20.2162  -11.8100 O   0  0  0  0  0  0  0  0  0  0  0  0
   24.4379  -19.0526  -12.2677 O   0  0  0  0  0  0  0  0  0  0  0  0
   17.7673  -18.2795  -16.7540 C   0  0  0  0  0  0  0  0  0  0  0  0
   18.8259  -18.7953  -16.0214 C   0  0  0  0  0  0  0  0  0  0  0  0
   19.5585  -17.9140  -15.2323 C   0  0  0  0  0  0  0  0  0  0  0  0
   20.5966  -18.4328  -14.5166 C   0  0  0  0  0  0  0  0  0  0  0  0
   20.9335  -19.7792  -14.5528 C   0  0  0  0  0  0  0  0  0  0  0  0
   22.0774  -20.2609  -13.7497 C   0  0  1  0  0  0  0  0  0  0  0  0
   21.8540  -20.1439  -12.2794 N   0  0  0  0  0  0  0  0  0  0  0  0
   22.9937  -20.6800  -11.5471 C   0  0  0  0  0  0  0  0  0  0  0  0
   20.5989  -20.7907  -11.8124 O   0  0  0  0  0  0  0  0  0  0  0  0
   20.4305  -22.1459  -11.6663 C   0  0  0  0  0  0  0  0  0  0  0  0
   20.2076  -20.6391  -15.3316 C   0  0  0  0  0  0  0  0  0  0  0  0
   19.1478  -20.1257  -16.0660 O   0  0  0  0  0  0  0  0  0  0  0  0
  2  3  2  0
  2  1  1  0
  4  2  1  0
  5  4  1  0
  6  5  1  0
  7  6  1  0
  8  9  1  6
  8  7  1  0
 10 11  2  0
 10  8  1  0
 13 12  1  1
 13 15  1  0
 14 13  1  0
 16 15  1  1
 16 17  1  0
 16 18  1  0
 17 10  1  0
 18 19  2  0
 21 22  2  0
 21 20  1  0
 23 22  1  0
 24 23  2  0
 25 24  1  0
 26 25  1  6
 27 18  1  0
 27 26  1  0
 28 29  1  0
 28 26  1  0
 30 24  1  0
 30 31  2  0
 31 21  1  0
 32 28  2  0
M  END
$$$$
