RLY.pdb
     RDKit          3D

 32 32  0  0  1  0  0  0  0  0999 V2000
   16.3526   -9.6545  -17.3028 N   0  0  0  0  0  0  0  0  0  0  0  0
   17.1434   -8.4847  -17.4990 C   0  0  0  0  0  0  0  0  0  0  0  0
   16.6396   -7.2950  -17.2998 N   0  0  0  0  0  0  0  0  0  0  0  0
   18.4938   -8.5335  -17.9114 N   0  0  0  0  0  0  0  0  0  0  0  0
   19.1570   -9.7967  -18.1281 C   0  0  0  0  0  0  0  0  0  0  0  0
   20.5387   -9.5333  -18.6329 C   0  0  0  0  0  0  0  0  0  0  0  0
   21.3638  -10.7534  -18.8541 C   0  0  0  0  0  0  0  0  0  0  0  0
   22.8191  -10.4534  -19.1069 C   0  0  2  0  0  0  0  0  0  0  0  0
   23.0676   -9.8773  -20.4014 N   0  0  0  0  0  0  0  0  0  0  0  0
   23.6642  -11.6662  -18.9713 C   0  0  0  0  0  0  0  0  0  0  0  0
   23.9668  -12.3720  -19.9661 O   0  0  0  0  0  0  0  0  0  0  0  0
   17.2570   -6.4666  -17.4661 C   0  0  0  0  0  0  0  0  0  0  0  0
   27.5356  -11.6196  -17.5166 C   0  0  2  0  0  0  0  0  0  0  0  0
   27.3981  -12.9176  -16.7070 C   0  0  0  0  0  0  0  0  0  0  0  0
   28.2419  -12.8301  -15.4827 C   0  0  0  0  0  0  0  0  0  0  0  0
   25.9522  -13.1843  -16.4169 C   0  0  2  0  0  0  0  0  0  0  0  0
   25.0484  -13.2280  -17.5828 N   0  0  0  0  0  0  0  0  0  0  0  0
   24.1757  -12.0933  -17.7050 C   0  0  0  0  0  0  0  0  0  0  0  0
   24.2656  -14.5142  -17.6477 O   0  0  0  0  0  0  0  0  0  0  0  0
   24.8407  -15.5944  -17.9374 O   0  0  0  0  0  0  0  0  0  0  0  0
   26.2549  -19.3273  -14.1114 C   0  0  0  0  0  0  0  0  0  0  0  0
   25.1929  -18.5626  -14.5706 C   0  0  0  0  0  0  0  0  0  0  0  0
   24.3138  -19.1507  -15.4747 C   0  0  0  0  0  0  0  0  0  0  0  0
   23.2736  -18.3891  -15.9186 C   0  0  0  0  0  0  0  0  0  0  0  0
   23.0734  -17.0790  -15.5050 C   0  0  0  0  0  0  0  0  0  0  0  0
   21.9224  -16.3197  -16.0381 C   0  0  2  0  0  0  0  0  0  0  0  0
   22.1450  -15.8097  -17.4222 N   0  0  0  0  0  0  0  0  0  0  0  0
   22.8757  -14.5497  -17.3891 C   0  0  0  0  0  0  0  0  0  0  0  0
   20.8930  -15.6517  -18.2093 O   0  0  0  0  0  0  0  0  0  0  0  0
   20.4943  -14.4823  -18.8090 C   0  0  0  0  0  0  0  0  0  0  0  0
   23.9429  -16.5083  -14.6155 C   0  0  0  0  0  0  0  0  0  0  0  0
   25.0066  -17.2711  -14.1545 O   0  0  0  0  0  0  0  0  0  0  0  0
  2  3  2  0
  2  1  1  0
  4  2  1  0
  5  4  1  0
  6  5  1  0
  7  6  1  0
  8  9  1  6
  8  7  1  0
 10 11  2  0
 10  8  1  0
 13 12  1  6
 13 15  1  0
 14 13  1  0
 16 15  1  6
 16 17  1  0
 16 18  1  0
 17 10  1  0
 18 19  2  0
 21 22  2  0
 21 20  1  0
 23 22  1  0
 24 23  2  0
 25 24  1  0
 26 25  1  6
 27 18  1  0
 27 26  1  0
 28 29  1  0
 28 26  1  0
 30 24  1  0
 30 31  2  0
 31 21  1  0
 32 28  2  0
M  END
$$$$
