RLY.pdb
     RDKit          3D

 32 32  0  0  1  0  0  0  0  0999 V2000
   15.8719  -21.6242  -16.0716 N   0  0  0  0  0  0  0  0  0  0  0  0
   16.8820  -20.6234  -16.1740 C   0  0  0  0  0  0  0  0  0  0  0  0
   16.5719  -19.3539  -16.1437 N   0  0  0  0  0  0  0  0  0  0  0  0
   18.2541  -20.9314  -16.3108 N   0  0  0  0  0  0  0  0  0  0  0  0
   18.6888  -22.2864  -16.5505 C   0  0  0  0  0  0  0  0  0  0  0  0
   19.5111  -22.7396  -15.3879 C   0  0  0  0  0  0  0  0  0  0  0  0
   20.5396  -21.7624  -14.9342 C   0  0  0  0  0  0  0  0  0  0  0  0
   20.7024  -21.7178  -13.4364 C   0  0  2  0  0  0  0  0  0  0  0  0
   19.5665  -21.1579  -12.7542 N   0  0  0  0  0  0  0  0  0  0  0  0
   21.9071  -20.9489  -13.0350 C   0  0  0  0  0  0  0  0  0  0  0  0
   21.8582  -19.7106  -12.8269 O   0  0  0  0  0  0  0  0  0  0  0  0
   17.3519  -18.6573  -16.1800 C   0  0  0  0  0  0  0  0  0  0  0  0
   26.5554  -19.6272  -10.8759 C   0  0  2  0  0  0  0  0  0  0  0  0
   26.7616  -20.8448  -11.7892 C   0  0  0  0  0  0  0  0  0  0  0  0
   27.8476  -21.7012  -11.2361 C   0  0  0  0  0  0  0  0  0  0  0  0
   25.4628  -21.5706  -11.9688 C   0  0  1  0  0  0  0  0  0  0  0  0
   24.3755  -20.8145  -12.6202 N   0  0  0  0  0  0  0  0  0  0  0  0
   23.1821  -21.5759  -12.8654 C   0  0  0  0  0  0  0  0  0  0  0  0
   24.8371  -20.1237  -13.8775 O   0  0  0  0  0  0  0  0  0  0  0  0
   24.9664  -20.7714  -14.9477 O   0  0  0  0  0  0  0  0  0  0  0  0
   27.3891  -13.9463  -19.5713 C   0  0  0  0  0  0  0  0  0  0  0  0
   26.9750  -14.6022  -18.4216 C   0  0  0  0  0  0  0  0  0  0  0  0
   25.6963  -15.1507  -18.4131 C   0  0  0  0  0  0  0  0  0  0  0  0
   25.3006  -15.7932  -17.2775 C   0  0  0  0  0  0  0  0  0  0  0  0
   26.1161  -15.9116  -16.1601 C   0  0  0  0  0  0  0  0  0  0  0  0
   25.6092  -16.6206  -14.9660 C   0  0  1  0  0  0  0  0  0  0  0  0
   25.6333  -18.1052  -15.1094 N   0  0  0  0  0  0  0  0  0  0  0  0
   25.1375  -18.7419  -13.8964 C   0  0  0  0  0  0  0  0  0  0  0  0
   26.9721  -18.6500  -15.4597 O   0  0  0  0  0  0  0  0  0  0  0  0
   27.3222  -19.1109  -16.7052 C   0  0  0  0  0  0  0  0  0  0  0  0
   27.3725  -15.3692  -16.1770 C   0  0  0  0  0  0  0  0  0  0  0  0
   27.7894  -14.7121  -17.3261 O   0  0  0  0  0  0  0  0  0  0  0  0
  2  3  2  0
  2  1  1  0
  4  2  1  0
  5  4  1  0
  6  5  1  0
  7  6  1  0
  8  9  1  1
  8  7  1  0
 10 11  2  0
 10  8  1  0
 13 12  1  6
 13 15  1  0
 14 13  1  0
 16 15  1  1
 16 17  1  0
 16 18  1  0
 17 10  1  0
 18 19  2  0
 21 22  2  0
 21 20  1  0
 23 22  1  0
 24 23  2  0
 25 24  1  0
 26 25  1  6
 27 18  1  0
 27 26  1  0
 28 29  1  0
 28 26  1  0
 30 24  1  0
 30 31  2  0
 31 21  1  0
 32 28  2  0
M  END
$$$$
