RLY.pdb
     RDKit          3D

 32 32  0  0  1  0  0  0  0  0999 V2000
   29.2182  -26.8368  -16.5309 N   0  0  0  0  0  0  0  0  0  0  0  0
   28.0506  -26.0195  -16.4979 C   0  0  0  0  0  0  0  0  0  0  0  0
   26.9720  -26.4180  -15.8761 N   0  0  0  0  0  0  0  0  0  0  0  0
   27.9846  -24.7529  -17.1204 N   0  0  0  0  0  0  0  0  0  0  0  0
   29.1358  -24.1947  -17.7879 C   0  0  0  0  0  0  0  0  0  0  0  0
   28.7854  -22.8317  -18.2905 C   0  0  0  0  0  0  0  0  0  0  0  0
   28.9636  -21.7367  -17.2967 C   0  0  0  0  0  0  0  0  0  0  0  0
   28.5870  -20.3782  -17.8297 C   0  0  2  0  0  0  0  0  0  0  0  0
   29.7221  -19.5636  -18.1724 N   0  0  0  0  0  0  0  0  0  0  0  0
   27.7489  -19.6204  -16.8668 C   0  0  0  0  0  0  0  0  0  0  0  0
   28.0217  -19.5878  -15.6406 O   0  0  0  0  0  0  0  0  0  0  0  0
   26.1368  -25.7877  -15.8895 C   0  0  0  0  0  0  0  0  0  0  0  0
   26.9698  -16.1521  -14.8221 C   0  0  2  0  0  0  0  0  0  0  0  0
   25.6693  -15.8195  -15.5686 C   0  0  0  0  0  0  0  0  0  0  0  0
   25.7183  -14.4093  -16.0458 C   0  0  0  0  0  0  0  0  0  0  0  0
   25.4463  -16.8135  -16.6677 C   0  0  2  0  0  0  0  0  0  0  0  0
   25.7345  -18.2240  -16.3424 N   0  0  0  0  0  0  0  0  0  0  0  0
   26.5906  -18.8911  -17.2838 C   0  0  0  0  0  0  0  0  0  0  0  0
   24.4778  -19.0209  -16.1041 O   0  0  0  0  0  0  0  0  0  0  0  0
   23.8659  -19.5465  -17.0690 O   0  0  0  0  0  0  0  0  0  0  0  0
   17.9506  -23.3580  -12.1491 C   0  0  0  0  0  0  0  0  0  0  0  0
   19.0879  -22.6033  -12.3948 C   0  0  0  0  0  0  0  0  0  0  0  0
   20.1911  -23.2521  -12.9406 C   0  0  0  0  0  0  0  0  0  0  0  0
   21.3031  -22.4997  -13.1779 C   0  0  0  0  0  0  0  0  0  0  0  0
   21.3632  -21.1413  -12.8972 C   0  0  0  0  0  0  0  0  0  0  0  0
   22.6094  -20.3982  -13.1804 C   0  0  1  0  0  0  0  0  0  0  0  0
   22.7185  -19.9526  -14.5999 N   0  0  0  0  0  0  0  0  0  0  0  0
   23.9503  -19.2020  -14.8046 C   0  0  0  0  0  0  0  0  0  0  0  0
   21.5530  -19.1557  -15.0672 O   0  0  0  0  0  0  0  0  0  0  0  0
   20.4563  -19.6825  -15.7043 C   0  0  0  0  0  0  0  0  0  0  0  0
   20.2735  -20.5109  -12.3605 C   0  0  0  0  0  0  0  0  0  0  0  0
   19.1341  -21.2637  -12.1133 O   0  0  0  0  0  0  0  0  0  0  0  0
  2  3  2  0
  2  1  1  0
  4  2  1  0
  5  4  1  0
  6  5  1  0
  7  6  1  0
  8  9  1  1
  8  7  1  0
 10 11  2  0
 10  8  1  0
 13 12  1  1
 13 15  1  0
 14 13  1  0
 16 15  1  1
 16 17  1  0
 16 18  1  0
 17 10  1  0
 18 19  2  0
 21 22  2  0
 21 20  1  0
 23 22  1  0
 24 23  2  0
 25 24  1  0
 26 25  1  6
 27 18  1  0
 27 26  1  0
 28 29  1  0
 28 26  1  0
 30 24  1  0
 30 31  2  0
 31 21  1  0
 32 28  2  0
M  END
$$$$
