RLY.pdb
     RDKit          3D

 32 32  0  0  1  0  0  0  0  0999 V2000
   28.3675  -18.2326  -17.9231 N   0  0  0  0  0  0  0  0  0  0  0  0
   27.5606  -17.1015  -17.6040 C   0  0  0  0  0  0  0  0  0  0  0  0
   27.1799  -16.2668  -18.5353 N   0  0  0  0  0  0  0  0  0  0  0  0
   27.1281  -16.8156  -16.2897 N   0  0  0  0  0  0  0  0  0  0  0  0
   27.3512  -17.7535  -15.2160 C   0  0  0  0  0  0  0  0  0  0  0  0
   27.1409  -19.1384  -15.7366 C   0  0  0  0  0  0  0  0  0  0  0  0
   26.3383  -20.0228  -14.8466 C   0  0  0  0  0  0  0  0  0  0  0  0
   27.1070  -20.5240  -13.6509 C   0  0  2  0  0  0  0  0  0  0  0  0
   28.0267  -21.5844  -13.9658 N   0  0  0  0  0  0  0  0  0  0  0  0
   26.2031  -21.0015  -12.5744 C   0  0  0  0  0  0  0  0  0  0  0  0
   25.3076  -21.8544  -12.7971 O   0  0  0  0  0  0  0  0  0  0  0  0
   26.5522  -15.4764  -18.2589 C   0  0  0  0  0  0  0  0  0  0  0  0
   27.6226  -19.9738   -7.2552 C   0  0  1  0  0  0  0  0  0  0  0  0
   27.3081  -20.6165   -8.6144 C   0  0  0  0  0  0  0  0  0  0  0  0
   27.9427  -21.9622   -8.6852 C   0  0  0  0  0  0  0  0  0  0  0  0
   25.8256  -20.6441   -8.8321 C   0  0  2  0  0  0  0  0  0  0  0  0
   25.3718  -20.9075  -10.2115 N   0  0  0  0  0  0  0  0  0  0  0  0
   26.3043  -20.5162  -11.2321 C   0  0  0  0  0  0  0  0  0  0  0  0
   24.0078  -20.3268  -10.4821 O   0  0  0  0  0  0  0  0  0  0  0  0
   23.7938  -19.0996  -10.3099 O   0  0  0  0  0  0  0  0  0  0  0  0
   18.7731  -18.0814  -16.7051 C   0  0  0  0  0  0  0  0  0  0  0  0
   19.7285  -18.5262  -15.8036 C   0  0  0  0  0  0  0  0  0  0  0  0
   19.4643  -19.7005  -15.1057 C   0  0  0  0  0  0  0  0  0  0  0  0
   20.4110  -20.1278  -14.2224 C   0  0  0  0  0  0  0  0  0  0  0  0
   21.5986  -19.4419  -14.0061 C   0  0  0  0  0  0  0  0  0  0  0  0
   22.5716  -19.9705  -13.0266 C   0  0  1  0  0  0  0  0  0  0  0  0
   21.9264  -20.5902  -11.8329 N   0  0  0  0  0  0  0  0  0  0  0  0
   22.9356  -21.1317  -10.9324 C   0  0  0  0  0  0  0  0  0  0  0  0
   20.9292  -21.6407  -12.1706 O   0  0  0  0  0  0  0  0  0  0  0  0
   21.2478  -22.9029  -12.6083 C   0  0  0  0  0  0  0  0  0  0  0  0
   21.8505  -18.2876  -14.6968 C   0  0  0  0  0  0  0  0  0  0  0  0
   20.8961  -17.8400  -15.5995 O   0  0  0  0  0  0  0  0  0  0  0  0
  2  3  2  0
  2  1  1  0
  4  2  1  0
  5  4  1  0
  6  5  1  0
  7  6  1  0
  8  9  1  6
  8  7  1  0
 10 11  2  0
 10  8  1  0
 13 12  1  6
 13 15  1  0
 14 13  1  0
 16 15  1  1
 16 17  1  0
 16 18  1  0
 17 10  1  0
 18 19  2  0
 21 22  2  0
 21 20  1  0
 23 22  1  0
 24 23  2  0
 25 24  1  0
 26 25  1  1
 27 18  1  0
 27 26  1  0
 28 29  1  0
 28 26  1  0
 30 24  1  0
 30 31  2  0
 31 21  1  0
 32 28  2  0
M  END
$$$$
