RLY.pdb
     RDKit          3D

 32 32  0  0  1  0  0  0  0  0999 V2000
   26.6800  -19.8202  -20.4556 N   0  0  0  0  0  0  0  0  0  0  0  0
   27.2458  -18.5204  -20.6068 C   0  0  0  0  0  0  0  0  0  0  0  0
   27.0560  -17.8310  -21.7011 N   0  0  0  0  0  0  0  0  0  0  0  0
   28.0302  -17.9055  -19.6055 N   0  0  0  0  0  0  0  0  0  0  0  0
   28.3104  -18.5840  -18.3631 C   0  0  0  0  0  0  0  0  0  0  0  0
   27.1187  -19.4015  -17.9829 C   0  0  0  0  0  0  0  0  0  0  0  0
   26.5913  -19.1350  -16.6157 C   0  0  0  0  0  0  0  0  0  0  0  0
   27.0308  -20.1543  -15.5961 C   0  0  2  0  0  0  0  0  0  0  0  0
   27.6735  -21.3030  -16.1763 N   0  0  0  0  0  0  0  0  0  0  0  0
   25.8952  -20.6304  -14.7668 C   0  0  0  0  0  0  0  0  0  0  0  0
   25.0722  -21.4750  -15.2008 O   0  0  0  0  0  0  0  0  0  0  0  0
   27.4471  -16.8613  -21.7441 C   0  0  0  0  0  0  0  0  0  0  0  0
   25.9426  -20.4394   -9.0511 C   0  0  1  0  0  0  0  0  0  0  0  0
   25.9570  -20.8076  -10.5422 C   0  0  0  0  0  0  0  0  0  0  0  0
   26.1775  -22.2734  -10.6889 C   0  0  0  0  0  0  0  0  0  0  0  0
   24.6979  -20.3256  -11.1965 C   0  0  2  0  0  0  0  0  0  0  0  0
   24.5668  -20.5956  -12.6415 N   0  0  0  0  0  0  0  0  0  0  0  0
   25.6796  -20.1531  -13.4352 C   0  0  0  0  0  0  0  0  0  0  0  0
   23.2689  -20.0738  -13.2021 O   0  0  0  0  0  0  0  0  0  0  0  0
   23.2072  -18.9167  -13.6910 O   0  0  0  0  0  0  0  0  0  0  0  0
   16.8376  -18.5245  -18.4259 C   0  0  0  0  0  0  0  0  0  0  0  0
   17.9199  -18.9548  -17.6730 C   0  0  0  0  0  0  0  0  0  0  0  0
   18.7038  -17.9870  -17.0525 C   0  0  0  0  0  0  0  0  0  0  0  0
   19.7647  -18.4223  -16.3149 C   0  0  0  0  0  0  0  0  0  0  0  0
   20.0759  -19.7676  -16.1703 C   0  0  0  0  0  0  0  0  0  0  0  0
   21.2472  -20.1561  -15.3564 C   0  0  1  0  0  0  0  0  0  0  0  0
   20.9078  -20.4251  -13.9289 N   0  0  0  0  0  0  0  0  0  0  0  0
   22.0913  -20.8569  -13.1969 C   0  0  0  0  0  0  0  0  0  0  0  0
   19.8108  -21.4135  -13.7515 O   0  0  0  0  0  0  0  0  0  0  0  0
   19.9797  -22.7761  -13.7822 C   0  0  0  0  0  0  0  0  0  0  0  0
   19.2996  -20.7129  -16.7840 C   0  0  0  0  0  0  0  0  0  0  0  0
   18.2160  -20.2852  -17.5383 O   0  0  0  0  0  0  0  0  0  0  0  0
  2  3  2  0
  2  1  1  0
  4  2  1  0
  5  4  1  0
  6  5  1  0
  7  6  1  0
  8  9  1  6
  8  7  1  0
 10 11  2  0
 10  8  1  0
 13 12  1  6
 13 15  1  0
 14 13  1  0
 16 15  1  1
 16 17  1  0
 16 18  1  0
 17 10  1  0
 18 19  2  0
 21 22  2  0
 21 20  1  0
 23 22  1  0
 24 23  2  0
 25 24  1  0
 26 25  1  1
 27 18  1  0
 27 26  1  0
 28 29  1  0
 28 26  1  0
 30 24  1  0
 30 31  2  0
 31 21  1  0
 32 28  2  0
M  END
$$$$
