RLY.pdb
     RDKit          3D

 32 32  0  0  1  0  0  0  0  0999 V2000
   24.7400  -22.4538  -14.1068 N   0  0  0  0  0  0  0  0  0  0  0  0
   24.4302  -23.4971  -15.0276 C   0  0  0  0  0  0  0  0  0  0  0  0
   24.7391  -24.7389  -14.7606 N   0  0  0  0  0  0  0  0  0  0  0  0
   23.7823  -23.2626  -16.2610 N   0  0  0  0  0  0  0  0  0  0  0  0
   23.2757  -21.9532  -16.5944 C   0  0  0  0  0  0  0  0  0  0  0  0
   21.8205  -21.9014  -16.2581 C   0  0  0  0  0  0  0  0  0  0  0  0
   21.3273  -20.5620  -15.8322 C   0  0  0  0  0  0  0  0  0  0  0  0
   21.9628  -19.4229  -16.5874 C   0  0  2  0  0  0  0  0  0  0  0  0
   23.3514  -19.2281  -16.2663 N   0  0  0  0  0  0  0  0  0  0  0  0
   21.2509  -18.1412  -16.3545 C   0  0  0  0  0  0  0  0  0  0  0  0
   21.3671  -17.5110  -15.2735 O   0  0  0  0  0  0  0  0  0  0  0  0
   24.5626  -25.4582  -15.5000 C   0  0  0  0  0  0  0  0  0  0  0  0
   20.7981  -13.7426  -19.6853 C   0  0  1  0  0  0  0  0  0  0  0  0
   20.9430  -14.6511  -18.4553 C   0  0  0  0  0  0  0  0  0  0  0  0
   21.3846  -13.8384  -17.2878 C   0  0  0  0  0  0  0  0  0  0  0  0
   19.6616  -15.3906  -18.2166 C   0  0  2  0  0  0  0  0  0  0  0  0
   19.6600  -16.3521  -17.0968 N   0  0  0  0  0  0  0  0  0  0  0  0
   20.3980  -17.5595  -17.3452 C   0  0  0  0  0  0  0  0  0  0  0  0
   18.2658  -16.6661  -16.6188 O   0  0  0  0  0  0  0  0  0  0  0  0
   17.4856  -15.7393  -16.2814 O   0  0  0  0  0  0  0  0  0  0  0  0
   17.4277  -24.1437  -18.2184 C   0  0  0  0  0  0  0  0  0  0  0  0
   16.9636  -22.8794  -17.8875 C   0  0  0  0  0  0  0  0  0  0  0  0
   17.4725  -21.7959  -18.5968 C   0  0  0  0  0  0  0  0  0  0  0  0
   17.0085  -20.5581  -18.2627 C   0  0  0  0  0  0  0  0  0  0  0  0
   16.0684  -20.3548  -17.2614 C   0  0  0  0  0  0  0  0  0  0  0  0
   15.6206  -18.9791  -16.9575 C   0  0  1  0  0  0  0  0  0  0  0  0
   16.4862  -18.2862  -15.9596 N   0  0  0  0  0  0  0  0  0  0  0  0
   17.7935  -17.9964  -16.5337 C   0  0  0  0  0  0  0  0  0  0  0  0
   16.6448  -19.0348  -14.6842 O   0  0  0  0  0  0  0  0  0  0  0  0
   15.6073  -19.3923  -13.8586 C   0  0  0  0  0  0  0  0  0  0  0  0
   15.5731  -21.4262  -16.5687 C   0  0  0  0  0  0  0  0  0  0  0  0
   16.0359  -22.6926  -16.8975 O   0  0  0  0  0  0  0  0  0  0  0  0
  2  3  2  0
  2  1  1  0
  4  2  1  0
  5  4  1  0
  6  5  1  0
  7  6  1  0
  8  9  1  1
  8  7  1  0
 10 11  2  0
 10  8  1  0
 13 12  1  6
 13 15  1  0
 14 13  1  0
 16 15  1  1
 16 17  1  0
 16 18  1  0
 17 10  1  0
 18 19  2  0
 21 22  2  0
 21 20  1  0
 23 22  1  0
 24 23  2  0
 25 24  1  0
 26 25  1  6
 27 18  1  0
 27 26  1  0
 28 29  1  0
 28 26  1  0
 30 24  1  0
 30 31  2  0
 31 21  1  0
 32 28  2  0
M  END
$$$$
