DNM.pdb
     RDKit          3D

 25 24  0  0  1  0  0  0  0  0999 V2000
   27.4774  -20.6032  -19.0799 N   0  0  0  0  0  0  0  0  0  0  0  0
   28.1669  -19.8605  -18.0605 C   0  0  1  0  0  0  0  0  0  0  0  0
   28.7198  -18.5963  -18.6821 C   0  0  0  0  0  0  0  0  0  0  0  0
   29.9091  -18.8655  -19.5100 C   0  0  0  0  0  0  0  0  0  0  0  0
   29.8886  -19.6824  -20.4617 O   0  0  0  0  0  0  0  0  0  0  0  0
   27.2722  -19.4678  -16.9445 C   0  0  0  0  0  0  0  0  0  0  0  0
   27.7270  -18.8390  -15.9549 O   0  0  0  0  0  0  0  0  0  0  0  0
   31.0915  -18.2022  -19.2388 O   0  0  0  0  0  0  0  0  0  0  0  0
   23.0041  -18.6287  -13.7808 N   0  0  0  0  0  0  0  0  0  0  0  0
   22.7001  -18.9085  -15.1180 C   0  0  0  0  0  0  0  0  0  0  0  0
   21.4759  -18.8277  -15.4487 O   0  0  0  0  0  0  0  0  0  0  0  0
   23.6316  -19.2838  -16.1792 C   0  0  0  0  0  0  0  0  0  0  0  0
   25.0456  -19.4878  -15.7671 C   0  0  2  0  0  0  0  0  0  0  0  0
   25.8731  -19.7658  -16.9138 N   0  0  0  0  0  0  0  0  0  0  0  0
   25.2400  -20.4475  -14.6736 C   0  0  0  0  0  0  0  0  0  0  0  0
   26.0533  -21.3889  -14.8476 O   0  0  0  0  0  0  0  0  0  0  0  0
   29.4910  -20.3030  -12.1176 C   0  0  0  0  0  0  0  0  0  0  0  0
   28.7356  -20.9008  -10.5831 S   0  0  0  0  0  0  0  0  0  0  0  0
   27.0112  -21.3358  -10.8263 C   0  0  0  0  0  0  0  0  0  0  0  0
   26.4079  -20.6983  -12.0433 C   0  0  0  0  0  0  0  0  0  0  0  0
   24.9533  -21.0302  -12.2367 C   0  0  2  0  0  0  0  0  0  0  0  0
   24.5353  -20.3219  -13.4569 N   0  0  0  0  0  0  0  0  0  0  0  0
   24.1041  -20.6417  -11.0911 C   0  0  0  0  0  0  0  0  0  0  0  0
   23.4516  -19.5720  -11.1319 O   0  0  0  0  0  0  0  0  0  0  0  0
   23.9981  -21.4259   -9.9534 O   0  0  0  0  0  0  0  0  0  0  0  0
  2  3  1  0
  2  1  1  6
  3  4  1  0
  4  8  1  0
  4  5  2  0
  6  2  1  0
  6  7  2  0
  9 10  1  0
 10 12  1  0
 10 11  2  0
 13 12  1  6
 13 14  1  0
 13 15  1  0
 14  6  1  0
 15 22  1  0
 16 15  2  0
 18 19  1  0
 18 17  1  0
 20 19  1  0
 21 20  1  1
 21 23  1  0
 22 21  1  0
 23 24  2  0
 23 25  1  0
M  END
$$$$
