DNM.pdb
     RDKit          3D

 25 24  0  0  1  0  0  0  0  0999 V2000
   16.8178  -18.9986  -16.9769 N   0  0  0  0  0  0  0  0  0  0  0  0
   17.9857  -18.5493  -16.2693 C   0  0  1  0  0  0  0  0  0  0  0  0
   18.6739  -19.7559  -15.6689 C   0  0  0  0  0  0  0  0  0  0  0  0
   17.8158  -20.4479  -14.6906 C   0  0  0  0  0  0  0  0  0  0  0  0
   16.6181  -20.1235  -14.5064 O   0  0  0  0  0  0  0  0  0  0  0  0
   18.9562  -17.8645  -17.1578 C   0  0  0  0  0  0  0  0  0  0  0  0
   19.0851  -18.2230  -18.3563 O   0  0  0  0  0  0  0  0  0  0  0  0
   18.3362  -21.4900  -13.9458 O   0  0  0  0  0  0  0  0  0  0  0  0
   20.0321  -13.6145  -20.4412 N   0  0  0  0  0  0  0  0  0  0  0  0
   20.4988  -14.7742  -19.8119 C   0  0  0  0  0  0  0  0  0  0  0  0
   21.6627  -15.1657  -20.1386 O   0  0  0  0  0  0  0  0  0  0  0  0
   19.7991  -15.5878  -18.8204 C   0  0  0  0  0  0  0  0  0  0  0  0
   20.6002  -16.0193  -17.6445 C   0  0  2  0  0  0  0  0  0  0  0  0
   19.7887  -16.7822  -16.7301 N   0  0  0  0  0  0  0  0  0  0  0  0
   21.3567  -14.9489  -16.9837 C   0  0  0  0  0  0  0  0  0  0  0  0
   20.7151  -14.0608  -16.3693 O   0  0  0  0  0  0  0  0  0  0  0  0
   28.7028  -12.8428  -14.7685 C   0  0  0  0  0  0  0  0  0  0  0  0
   27.6236  -13.9335  -15.7320 S   0  0  0  0  0  0  0  0  0  0  0  0
   25.9084  -13.4134  -15.6342 C   0  0  0  0  0  0  0  0  0  0  0  0
   24.9688  -14.3423  -16.3454 C   0  0  0  0  0  0  0  0  0  0  0  0
   23.5443  -13.8586  -16.3624 C   0  0  2  0  0  0  0  0  0  0  0  0
   22.7670  -14.9126  -17.0335 N   0  0  0  0  0  0  0  0  0  0  0  0
   23.3713  -12.5631  -17.0525 C   0  0  0  0  0  0  0  0  0  0  0  0
   23.3042  -11.5041  -16.3849 O   0  0  0  0  0  0  0  0  0  0  0  0
   23.2785  -12.4700  -18.4320 O   0  0  0  0  0  0  0  0  0  0  0  0
  2  3  1  0
  2  1  1  6
  3  4  1  0
  4  8  1  0
  4  5  2  0
  6  2  1  0
  6  7  2  0
  9 10  1  0
 10 12  1  0
 10 11  2  0
 13 12  1  6
 13 14  1  0
 13 15  1  0
 14  6  1  0
 15 22  1  0
 16 15  2  0
 18 19  1  0
 18 17  1  0
 20 19  1  0
 21 20  1  6
 21 23  1  0
 22 21  1  0
 23 24  2  0
 23 25  1  0
M  END
$$$$
