DNM.pdb
     RDKit          3D

 25 24  0  0  1  0  0  0  0  0999 V2000
   18.4717  -11.5919  -17.5936 N   0  0  0  0  0  0  0  0  0  0  0  0
   17.8875  -10.9481  -16.4488 C   0  0  1  0  0  0  0  0  0  0  0  0
   18.3494  -11.6752  -15.2045 C   0  0  0  0  0  0  0  0  0  0  0  0
   17.8053  -13.0431  -15.1333 C   0  0  0  0  0  0  0  0  0  0  0  0
   16.9235  -13.4526  -15.9260 O   0  0  0  0  0  0  0  0  0  0  0  0
   18.2988   -9.5282  -16.3277 C   0  0  0  0  0  0  0  0  0  0  0  0
   19.2754   -9.0897  -16.9876 O   0  0  0  0  0  0  0  0  0  0  0  0
   18.2740  -13.9126  -14.1659 O   0  0  0  0  0  0  0  0  0  0  0  0
   16.3711   -3.8452  -15.5036 N   0  0  0  0  0  0  0  0  0  0  0  0
   17.1311   -4.9049  -14.9956 C   0  0  0  0  0  0  0  0  0  0  0  0
   18.1771   -4.5905  -14.3462 O   0  0  0  0  0  0  0  0  0  0  0  0
   16.8586   -6.3343  -15.1271 C   0  0  0  0  0  0  0  0  0  0  0  0
   18.0350   -7.2030  -15.3959 C   0  0  2  0  0  0  0  0  0  0  0  0
   17.6364   -8.5853  -15.4795 N   0  0  0  0  0  0  0  0  0  0  0  0
   19.1799   -6.9895  -14.5024 C   0  0  0  0  0  0  0  0  0  0  0  0
   19.1909   -7.5884  -13.3983 O   0  0  0  0  0  0  0  0  0  0  0  0
   24.4707  -10.5800  -14.4786 C   0  0  0  0  0  0  0  0  0  0  0  0
   24.2041   -8.9059  -15.1180 S   0  0  0  0  0  0  0  0  0  0  0  0
   22.9243   -8.0476  -14.1975 C   0  0  0  0  0  0  0  0  0  0  0  0
   22.5426   -6.7303  -14.8061 C   0  0  0  0  0  0  0  0  0  0  0  0
   21.4595   -6.0104  -14.0496 C   0  0  2  0  0  0  0  0  0  0  0  0
   20.2428   -6.1354  -14.8677 N   0  0  0  0  0  0  0  0  0  0  0  0
   21.7693   -4.5890  -13.7889 C   0  0  0  0  0  0  0  0  0  0  0  0
   21.2262   -3.6947  -14.4795 O   0  0  0  0  0  0  0  0  0  0  0  0
   22.6516   -4.1978  -12.7944 O   0  0  0  0  0  0  0  0  0  0  0  0
  2  3  1  0
  2  1  1  6
  3  4  1  0
  4  8  1  0
  4  5  2  0
  6  2  1  0
  6  7  2  0
  9 10  1  0
 10 12  1  0
 10 11  2  0
 13 12  1  1
 13 14  1  0
 13 15  1  0
 14  6  1  0
 15 22  1  0
 16 15  2  0
 18 19  1  0
 18 17  1  0
 20 19  1  0
 21 20  1  6
 21 23  1  0
 22 21  1  0
 23 24  2  0
 23 25  1  0
M  END
$$$$
