DNM.pdb
     RDKit          3D

 25 24  0  0  1  0  0  0  0  0999 V2000
   22.5182  -18.5457  -17.0671 N   0  0  0  0  0  0  0  0  0  0  0  0
   23.0603  -18.3137  -15.7561 C   0  0  1  0  0  0  0  0  0  0  0  0
   21.9156  -18.2661  -14.7675 C   0  0  0  0  0  0  0  0  0  0  0  0
   20.9824  -17.1633  -15.0597 C   0  0  0  0  0  0  0  0  0  0  0  0
   19.8754  -17.3560  -15.6172 O   0  0  0  0  0  0  0  0  0  0  0  0
   23.9882  -19.3896  -15.3297 C   0  0  0  0  0  0  0  0  0  0  0  0
   23.6113  -20.5893  -15.3217 O   0  0  0  0  0  0  0  0  0  0  0  0
   21.3271  -15.8701  -14.7127 O   0  0  0  0  0  0  0  0  0  0  0  0
   28.3379  -22.1666  -13.7991 N   0  0  0  0  0  0  0  0  0  0  0  0
   28.5449  -21.0591  -14.6293 C   0  0  0  0  0  0  0  0  0  0  0  0
   29.7093  -20.9310  -15.1219 O   0  0  0  0  0  0  0  0  0  0  0  0
   27.5732  -20.0311  -14.9950 C   0  0  0  0  0  0  0  0  0  0  0  0
   26.2024  -20.2008  -14.4446 C   0  0  2  0  0  0  0  0  0  0  0  0
   25.3348  -19.1486  -14.9105 N   0  0  0  0  0  0  0  0  0  0  0  0
   26.1381  -20.3955  -12.9911 C   0  0  0  0  0  0  0  0  0  0  0  0
   27.0080  -19.8361  -12.2782 O   0  0  0  0  0  0  0  0  0  0  0  0
   29.1253  -20.4251   -8.6345 C   0  0  0  0  0  0  0  0  0  0  0  0
   27.5518  -19.6632   -8.1589 S   0  0  0  0  0  0  0  0  0  0  0  0
   26.1556  -20.5513   -8.8544 C   0  0  0  0  0  0  0  0  0  0  0  0
   26.1814  -20.6103  -10.3535 C   0  0  0  0  0  0  0  0  0  0  0  0
   25.0129  -21.3500  -10.9458 C   0  0  2  0  0  0  0  0  0  0  0  0
   25.1287  -21.1887  -12.4038 N   0  0  0  0  0  0  0  0  0  0  0  0
   23.7030  -20.8588  -10.4689 C   0  0  0  0  0  0  0  0  0  0  0  0
   23.0313  -20.0777  -11.1833 O   0  0  0  0  0  0  0  0  0  0  0  0
   23.1780  -21.2334   -9.2423 O   0  0  0  0  0  0  0  0  0  0  0  0
  2  3  1  0
  2  1  1  6
  3  4  1  0
  4  8  1  0
  4  5  2  0
  6  2  1  0
  6  7  2  0
  9 10  1  0
 10 12  1  0
 10 11  2  0
 13 12  1  1
 13 14  1  0
 13 15  1  0
 14  6  1  0
 15 22  1  0
 16 15  2  0
 18 19  1  0
 18 17  1  0
 20 19  1  0
 21 20  1  1
 21 23  1  0
 22 21  1  0
 23 24  2  0
 23 25  1  0
M  END
$$$$
