DNM.pdb
     RDKit          3D

 25 24  0  0  1  0  0  0  0  0999 V2000
   27.5683  -21.4686  -16.1247 N   0  0  0  0  0  0  0  0  0  0  0  0
   27.8067  -20.1687  -15.5591 C   0  0  1  0  0  0  0  0  0  0  0  0
   27.5862  -19.1307  -16.6380 C   0  0  0  0  0  0  0  0  0  0  0  0
   28.3625  -19.4293  -17.8548 C   0  0  0  0  0  0  0  0  0  0  0  0
   27.8366  -19.9382  -18.8736 O   0  0  0  0  0  0  0  0  0  0  0  0
   26.8866  -19.8636  -14.4363 C   0  0  0  0  0  0  0  0  0  0  0  0
   26.9321  -18.7459  -13.8616 O   0  0  0  0  0  0  0  0  0  0  0  0
   29.7148  -19.1436  -17.8866 O   0  0  0  0  0  0  0  0  0  0  0  0
   21.5642  -21.3583  -11.8751 N   0  0  0  0  0  0  0  0  0  0  0  0
   22.5741  -20.4750  -12.2733 C   0  0  0  0  0  0  0  0  0  0  0  0
   22.6077  -19.3507  -11.6820 O   0  0  0  0  0  0  0  0  0  0  0  0
   23.5960  -20.6984  -13.2933 C   0  0  0  0  0  0  0  0  0  0  0  0
   25.0024  -20.4588  -12.8744 C   0  0  2  0  0  0  0  0  0  0  0  0
   25.9128  -20.7879  -13.9419 N   0  0  0  0  0  0  0  0  0  0  0  0
   25.3789  -21.0659  -11.5921 C   0  0  0  0  0  0  0  0  0  0  0  0
   25.4542  -22.3182  -11.5276 O   0  0  0  0  0  0  0  0  0  0  0  0
   29.5891  -19.2615   -6.7557 C   0  0  0  0  0  0  0  0  0  0  0  0
   27.9453  -19.2478   -5.9940 S   0  0  0  0  0  0  0  0  0  0  0  0
   26.7988  -20.3009   -6.8877 C   0  0  0  0  0  0  0  0  0  0  0  0
   26.6519  -19.9210   -8.3319 C   0  0  0  0  0  0  0  0  0  0  0  0
   25.7540  -20.8457   -9.1079 C   0  0  2  0  0  0  0  0  0  0  0  0
   25.6501  -20.2700  -10.4582 N   0  0  0  0  0  0  0  0  0  0  0  0
   24.4143  -21.0076   -8.5051 C   0  0  0  0  0  0  0  0  0  0  0  0
   23.4367  -20.3819   -8.9790 O   0  0  0  0  0  0  0  0  0  0  0  0
   24.1911  -21.8375   -7.4181 O   0  0  0  0  0  0  0  0  0  0  0  0
  2  3  1  0
  2  1  1  6
  3  4  1  0
  4  8  1  0
  4  5  2  0
  6  2  1  0
  6  7  2  0
  9 10  1  0
 10 12  1  0
 10 11  2  0
 13 12  1  6
 13 14  1  0
 13 15  1  0
 14  6  1  0
 15 22  1  0
 16 15  2  0
 18 19  1  0
 18 17  1  0
 20 19  1  0
 21 20  1  1
 21 23  1  0
 22 21  1  0
 23 24  2  0
 23 25  1  0
M  END
$$$$
