DNM.pdb
     RDKit          3D

 25 24  0  0  1  0  0  0  0  0999 V2000
   18.5818  -13.3699  -18.4314 N   0  0  0  0  0  0  0  0  0  0  0  0
   18.2417  -11.9733  -18.4502 C   0  0  1  0  0  0  0  0  0  0  0  0
   17.5716  -11.6272  -17.1382 C   0  0  0  0  0  0  0  0  0  0  0  0
   16.3157  -12.3749  -16.9484 C   0  0  0  0  0  0  0  0  0  0  0  0
   15.5805  -12.6998  -17.9116 O   0  0  0  0  0  0  0  0  0  0  0  0
   19.4339  -11.1032  -18.5981 C   0  0  0  0  0  0  0  0  0  0  0  0
   20.5800  -11.5413  -18.3223 O   0  0  0  0  0  0  0  0  0  0  0  0
   15.9244  -12.7356  -15.6724 O   0  0  0  0  0  0  0  0  0  0  0  0
   22.7279   -7.1883  -20.2728 N   0  0  0  0  0  0  0  0  0  0  0  0
   21.3887   -7.0287  -20.6467 C   0  0  0  0  0  0  0  0  0  0  0  0
   21.1333   -6.0699  -21.4405 O   0  0  0  0  0  0  0  0  0  0  0  0
   20.2484   -7.8402  -20.2274 C   0  0  0  0  0  0  0  0  0  0  0  0
   20.5463   -8.9499  -19.2837 C   0  0  2  0  0  0  0  0  0  0  0  0
   19.3688   -9.7473  -19.0502 N   0  0  0  0  0  0  0  0  0  0  0  0
   21.2196   -8.5449  -18.0438 C   0  0  0  0  0  0  0  0  0  0  0  0
   20.5081   -8.2123  -17.0634 O   0  0  0  0  0  0  0  0  0  0  0  0
   26.1835  -11.8482  -15.5737 C   0  0  0  0  0  0  0  0  0  0  0  0
   26.7674  -10.1419  -15.4001 S   0  0  0  0  0  0  0  0  0  0  0  0
   25.4076   -8.9723  -15.4696 C   0  0  0  0  0  0  0  0  0  0  0  0
   24.5287   -9.1601  -16.6712 C   0  0  0  0  0  0  0  0  0  0  0  0
   23.3209   -8.2631  -16.6780 C   0  0  2  0  0  0  0  0  0  0  0  0
   22.6279   -8.5271  -17.9490 N   0  0  0  0  0  0  0  0  0  0  0  0
   23.6530   -6.8284  -16.5530 C   0  0  0  0  0  0  0  0  0  0  0  0
   23.7786   -6.1245  -17.5828 O   0  0  0  0  0  0  0  0  0  0  0  0
   23.8345   -6.2189  -15.3217 O   0  0  0  0  0  0  0  0  0  0  0  0
  2  3  1  0
  2  1  1  1
  3  4  1  0
  4  8  1  0
  4  5  2  0
  6  2  1  0
  6  7  2  0
  9 10  1  0
 10 12  1  0
 10 11  2  0
 13 12  1  1
 13 14  1  0
 13 15  1  0
 14  6  1  0
 15 22  1  0
 16 15  2  0
 18 19  1  0
 18 17  1  0
 20 19  1  0
 21 20  1  6
 21 23  1  0
 22 21  1  0
 23 24  2  0
 23 25  1  0
M  END
$$$$
