DNM.pdb
     RDKit          3D

 25 24  0  0  1  0  0  0  0  0999 V2000
   15.9699  -13.1644  -17.7570 N   0  0  0  0  0  0  0  0  0  0  0  0
   16.2447  -12.3441  -16.6090 C   0  0  1  0  0  0  0  0  0  0  0  0
   16.8481  -13.2181  -15.5309 C   0  0  0  0  0  0  0  0  0  0  0  0
   15.8812  -14.2056  -15.0188 C   0  0  0  0  0  0  0  0  0  0  0  0
   14.6599  -13.9445  -14.9006 O   0  0  0  0  0  0  0  0  0  0  0  0
   17.2083  -11.2570  -16.9087 C   0  0  0  0  0  0  0  0  0  0  0  0
   18.0218  -11.3718  -17.8608 O   0  0  0  0  0  0  0  0  0  0  0  0
   16.3224  -15.4640  -14.6536 O   0  0  0  0  0  0  0  0  0  0  0  0
   18.3533   -5.8823  -18.1969 N   0  0  0  0  0  0  0  0  0  0  0  0
   18.1789   -6.4888  -16.9477 C   0  0  0  0  0  0  0  0  0  0  0  0
   18.7692   -5.9402  -15.9651 O   0  0  0  0  0  0  0  0  0  0  0  0
   17.3942   -7.6831  -16.6437 C   0  0  0  0  0  0  0  0  0  0  0  0
   18.1559   -8.9547  -16.5268 C   0  0  2  0  0  0  0  0  0  0  0  0
   17.2800  -10.0390  -16.1611 N   0  0  0  0  0  0  0  0  0  0  0  0
   19.3587   -8.8816  -15.6884 C   0  0  0  0  0  0  0  0  0  0  0  0
   19.2367   -9.0912  -14.4559 O   0  0  0  0  0  0  0  0  0  0  0  0
   26.8979  -10.4923  -14.9984 C   0  0  0  0  0  0  0  0  0  0  0  0
   25.3601  -10.5078  -15.9563 S   0  0  0  0  0  0  0  0  0  0  0  0
   24.1927   -9.2897  -15.3435 C   0  0  0  0  0  0  0  0  0  0  0  0
   22.8507   -9.3712  -16.0098 C   0  0  0  0  0  0  0  0  0  0  0  0
   21.8271   -8.4433  -15.4144 C   0  0  2  0  0  0  0  0  0  0  0  0
   20.6211   -8.5841  -16.2457 N   0  0  0  0  0  0  0  0  0  0  0  0
   22.2675   -7.0332  -15.3685 C   0  0  0  0  0  0  0  0  0  0  0  0
   22.7579   -6.5662  -14.3134 O   0  0  0  0  0  0  0  0  0  0  0  0
   22.1583   -6.1914  -16.4638 O   0  0  0  0  0  0  0  0  0  0  0  0
  2  3  1  0
  2  1  1  6
  3  4  1  0
  4  8  1  0
  4  5  2  0
  6  2  1  0
  6  7  2  0
  9 10  1  0
 10 12  1  0
 10 11  2  0
 13 12  1  1
 13 14  1  0
 13 15  1  0
 14  6  1  0
 15 22  1  0
 16 15  2  0
 18 19  1  0
 18 17  1  0
 20 19  1  0
 21 20  1  6
 21 23  1  0
 22 21  1  0
 23 24  2  0
 23 25  1  0
M  END
$$$$
