DNM.pdb
     RDKit          3D

 25 24  0  0  1  0  0  0  0  0999 V2000
   15.8314  -10.9088  -15.9587 N   0  0  0  0  0  0  0  0  0  0  0  0
   17.1864  -11.2607  -15.6324 C   0  0  1  0  0  0  0  0  0  0  0  0
   17.5015  -12.5942  -16.2748 C   0  0  0  0  0  0  0  0  0  0  0  0
   16.6840  -13.6830  -15.7103 C   0  0  0  0  0  0  0  0  0  0  0  0
   15.8090  -13.4759  -14.8357 O   0  0  0  0  0  0  0  0  0  0  0  0
   18.1655  -10.2674  -16.1373 C   0  0  0  0  0  0  0  0  0  0  0  0
   19.2979  -10.6374  -16.5400 O   0  0  0  0  0  0  0  0  0  0  0  0
   16.8785  -14.9789  -16.1511 O   0  0  0  0  0  0  0  0  0  0  0  0
   16.2978   -5.7118  -18.6081 N   0  0  0  0  0  0  0  0  0  0  0  0
   17.2679   -6.6598  -18.2631 C   0  0  0  0  0  0  0  0  0  0  0  0
   17.3979   -7.6486  -19.0507 O   0  0  0  0  0  0  0  0  0  0  0  0
   18.1499   -6.6425  -17.0985 C   0  0  0  0  0  0  0  0  0  0  0  0
   18.8318   -7.9234  -16.7746 C   0  0  2  0  0  0  0  0  0  0  0  0
   17.9014   -8.8625  -16.2009 N   0  0  0  0  0  0  0  0  0  0  0  0
   20.0658   -7.7875  -15.9912 C   0  0  0  0  0  0  0  0  0  0  0  0
   19.9658   -7.6255  -14.7496 O   0  0  0  0  0  0  0  0  0  0  0  0
   27.2850  -10.2775  -14.8026 C   0  0  0  0  0  0  0  0  0  0  0  0
   25.6872  -10.3586  -15.6528 S   0  0  0  0  0  0  0  0  0  0  0  0
   24.7478   -8.8452  -15.4307 C   0  0  0  0  0  0  0  0  0  0  0  0
   23.3815   -8.9028  -16.0483 C   0  0  0  0  0  0  0  0  0  0  0  0
   22.5798   -7.6450  -15.8514 C   0  0  2  0  0  0  0  0  0  0  0  0
   21.3336   -7.8366  -16.6101 N   0  0  0  0  0  0  0  0  0  0  0  0
   23.2814   -6.4241  -16.3002 C   0  0  0  0  0  0  0  0  0  0  0  0
   23.1547   -6.0304  -17.4837 O   0  0  0  0  0  0  0  0  0  0  0  0
   24.0881   -5.6837  -15.4507 O   0  0  0  0  0  0  0  0  0  0  0  0
  2  3  1  0
  2  1  1  6
  3  4  1  0
  4  8  1  0
  4  5  2  0
  6  2  1  0
  6  7  2  0
  9 10  1  0
 10 12  1  0
 10 11  2  0
 13 12  1  1
 13 14  1  0
 13 15  1  0
 14  6  1  0
 15 22  1  0
 16 15  2  0
 18 19  1  0
 18 17  1  0
 20 19  1  0
 21 20  1  6
 21 23  1  0
 22 21  1  0
 23 24  2  0
 23 25  1  0
M  END
$$$$
