DNM.pdb
     RDKit          3D

 25 24  0  0  1  0  0  0  0  0999 V2000
   16.2005   -9.1812  -15.7633 N   0  0  0  0  0  0  0  0  0  0  0  0
   16.6281   -8.1449  -16.6630 C   0  0  1  0  0  0  0  0  0  0  0  0
   16.6291   -6.8310  -15.9123 C   0  0  0  0  0  0  0  0  0  0  0  0
   15.2867   -6.4818  -15.4138 C   0  0  0  0  0  0  0  0  0  0  0  0
   14.2778   -6.4800  -16.1592 O   0  0  0  0  0  0  0  0  0  0  0  0
   17.9986   -8.3763  -17.1812 C   0  0  0  0  0  0  0  0  0  0  0  0
   18.4361   -9.5466  -17.3242 O   0  0  0  0  0  0  0  0  0  0  0  0
   15.1214   -6.1435  -14.0835 O   0  0  0  0  0  0  0  0  0  0  0  0
   21.8385   -6.3394  -21.4200 N   0  0  0  0  0  0  0  0  0  0  0  0
   21.5033   -6.9443  -20.2033 C   0  0  0  0  0  0  0  0  0  0  0  0
   22.3432   -7.7742  -19.7337 O   0  0  0  0  0  0  0  0  0  0  0  0
   20.2955   -6.7299  -19.4096 C   0  0  0  0  0  0  0  0  0  0  0  0
   20.1605   -7.5623  -18.1850 C   0  0  2  0  0  0  0  0  0  0  0  0
   18.8928   -7.3199  -17.5440 N   0  0  0  0  0  0  0  0  0  0  0  0
   21.2956   -7.4880  -17.2572 C   0  0  0  0  0  0  0  0  0  0  0  0
   21.3912   -6.4784  -16.5159 O   0  0  0  0  0  0  0  0  0  0  0  0
   27.9598  -11.3123  -15.1152 C   0  0  0  0  0  0  0  0  0  0  0  0
   26.5273  -11.1737  -16.2158 S   0  0  0  0  0  0  0  0  0  0  0  0
   25.5187   -9.7471  -15.8041 C   0  0  0  0  0  0  0  0  0  0  0  0
   24.2610   -9.6591  -16.6177 C   0  0  0  0  0  0  0  0  0  0  0  0
   23.4502   -8.4229  -16.3386 C   0  0  2  0  0  0  0  0  0  0  0  0
   22.2574   -8.5194  -17.1949 N   0  0  0  0  0  0  0  0  0  0  0  0
   24.1827   -7.1669  -16.6038 C   0  0  0  0  0  0  0  0  0  0  0  0
   24.6165   -6.4831  -15.6467 O   0  0  0  0  0  0  0  0  0  0  0  0
   24.4134   -6.7062  -17.8902 O   0  0  0  0  0  0  0  0  0  0  0  0
  2  3  1  0
  2  1  1  1
  3  4  1  0
  4  8  1  0
  4  5  2  0
  6  2  1  0
  6  7  2  0
  9 10  1  0
 10 12  1  0
 10 11  2  0
 13 12  1  6
 13 14  1  0
 13 15  1  0
 14  6  1  0
 15 22  1  0
 16 15  2  0
 18 19  1  0
 18 17  1  0
 20 19  1  0
 21 20  1  6
 21 23  1  0
 22 21  1  0
 23 24  2  0
 23 25  1  0
M  END
$$$$
