DNM.pdb
     RDKit          3D

 25 24  0  0  1  0  0  0  0  0999 V2000
   18.6926  -14.6617  -18.3624 N   0  0  0  0  0  0  0  0  0  0  0  0
   18.0877  -13.6126  -17.5879 C   0  0  1  0  0  0  0  0  0  0  0  0
   18.1123  -14.0198  -16.1306 C   0  0  0  0  0  0  0  0  0  0  0  0
   17.2044  -15.1490  -15.8600 C   0  0  0  0  0  0  0  0  0  0  0  0
   16.0852  -15.2535  -16.4168 O   0  0  0  0  0  0  0  0  0  0  0  0
   18.8139  -12.3255  -17.7152 C   0  0  0  0  0  0  0  0  0  0  0  0
   20.0322  -12.3099  -18.0266 O   0  0  0  0  0  0  0  0  0  0  0  0
   17.5875  -16.1311  -14.9655 O   0  0  0  0  0  0  0  0  0  0  0  0
   19.9406   -7.0479  -18.0654 N   0  0  0  0  0  0  0  0  0  0  0  0
   18.5803   -7.3739  -18.1115 C   0  0  0  0  0  0  0  0  0  0  0  0
   17.7785   -6.4209  -18.3635 O   0  0  0  0  0  0  0  0  0  0  0  0
   17.9758   -8.6874  -17.9023 C   0  0  0  0  0  0  0  0  0  0  0  0
   18.9186   -9.8097  -17.6522 C   0  0  2  0  0  0  0  0  0  0  0  0
   18.2015  -11.0503  -17.5000 N   0  0  0  0  0  0  0  0  0  0  0  0
   19.8912   -9.5741  -16.5783 C   0  0  0  0  0  0  0  0  0  0  0  0
   19.4961   -9.6646  -15.3893 O   0  0  0  0  0  0  0  0  0  0  0  0
   27.1938  -10.9589  -14.6407 C   0  0  0  0  0  0  0  0  0  0  0  0
   26.1640  -10.3474  -16.0001 S   0  0  0  0  0  0  0  0  0  0  0  0
   24.6701   -9.5613  -15.3898 C   0  0  0  0  0  0  0  0  0  0  0  0
   23.5031   -9.7086  -16.3213 C   0  0  0  0  0  0  0  0  0  0  0  0
   22.2396   -9.0747  -15.8063 C   0  0  2  0  0  0  0  0  0  0  0  0
   21.2355   -9.2539  -16.8669 N   0  0  0  0  0  0  0  0  0  0  0  0
   22.3942   -7.6438  -15.4704 C   0  0  0  0  0  0  0  0  0  0  0  0
   22.4115   -6.7861  -16.3846 O   0  0  0  0  0  0  0  0  0  0  0  0
   22.5231   -7.2039  -14.1626 O   0  0  0  0  0  0  0  0  0  0  0  0
  2  3  1  0
  2  1  1  6
  3  4  1  0
  4  8  1  0
  4  5  2  0
  6  2  1  0
  6  7  2  0
  9 10  1  0
 10 12  1  0
 10 11  2  0
 13 12  1  1
 13 14  1  0
 13 15  1  0
 14  6  1  0
 15 22  1  0
 16 15  2  0
 18 19  1  0
 18 17  1  0
 20 19  1  0
 21 20  1  6
 21 23  1  0
 22 21  1  0
 23 24  2  0
 23 25  1  0
M  END
$$$$
