DNM.pdb
     RDKit          3D

 25 24  0  0  1  0  0  0  0  0999 V2000
   25.3018  -19.8869  -19.2196 N   0  0  0  0  0  0  0  0  0  0  0  0
   24.5507  -21.0809  -18.9426 C   0  0  1  0  0  0  0  0  0  0  0  0
   25.3754  -22.2745  -19.3731 C   0  0  0  0  0  0  0  0  0  0  0  0
   25.5819  -22.3024  -20.8323 C   0  0  0  0  0  0  0  0  0  0  0  0
   26.6505  -22.7103  -21.3472 O   0  0  0  0  0  0  0  0  0  0  0  0
   24.2443  -21.2336  -17.4994 C   0  0  0  0  0  0  0  0  0  0  0  0
   24.2847  -22.3672  -16.9564 O   0  0  0  0  0  0  0  0  0  0  0  0
   24.5724  -21.8676  -21.6710 O   0  0  0  0  0  0  0  0  0  0  0  0
   26.7153  -18.4660  -15.3848 N   0  0  0  0  0  0  0  0  0  0  0  0
   25.9135  -19.3347  -14.6356 C   0  0  0  0  0  0  0  0  0  0  0  0
   26.5133  -20.2761  -14.0284 O   0  0  0  0  0  0  0  0  0  0  0  0
   24.4626  -19.2826  -14.4716 C   0  0  0  0  0  0  0  0  0  0  0  0
   23.6812  -20.2942  -15.2312 C   0  0  2  0  0  0  0  0  0  0  0  0
   23.8920  -20.1387  -16.6482 N   0  0  0  0  0  0  0  0  0  0  0  0
   22.2614  -20.3802  -14.8688 C   0  0  0  0  0  0  0  0  0  0  0  0
   21.4509  -19.6246  -15.4606 O   0  0  0  0  0  0  0  0  0  0  0  0
   20.0363  -25.6078  -11.7371 C   0  0  0  0  0  0  0  0  0  0  0  0
   18.7253  -24.4406  -11.2882 S   0  0  0  0  0  0  0  0  0  0  0  0
   18.8737  -22.9031  -12.2025 C   0  0  0  0  0  0  0  0  0  0  0  0
   20.2759  -22.6186  -12.6548 C   0  0  0  0  0  0  0  0  0  0  0  0
   20.3956  -21.3766  -13.4953 C   0  0  2  0  0  0  0  0  0  0  0  0
   21.8122  -21.2851  -13.8828 N   0  0  0  0  0  0  0  0  0  0  0  0
   19.9660  -20.1484  -12.7944 C   0  0  0  0  0  0  0  0  0  0  0  0
   20.7733  -19.5358  -12.0563 O   0  0  0  0  0  0  0  0  0  0  0  0
   18.6842  -19.6374  -12.9221 O   0  0  0  0  0  0  0  0  0  0  0  0
  2  3  1  0
  2  1  1  1
  3  4  1  0
  4  8  1  0
  4  5  2  0
  6  2  1  0
  6  7  2  0
  9 10  1  0
 10 12  1  0
 10 11  2  0
 13 12  1  1
 13 14  1  0
 13 15  1  0
 14  6  1  0
 15 22  1  0
 16 15  2  0
 18 19  1  0
 18 17  1  0
 20 19  1  0
 21 20  1  1
 21 23  1  0
 22 21  1  0
 23 24  2  0
 23 25  1  0
M  END
$$$$
