DNM.pdb
     RDKit          3D

 25 24  0  0  1  0  0  0  0  0999 V2000
   17.4847  -10.2624  -16.0445 N   0  0  0  0  0  0  0  0  0  0  0  0
   18.5012  -10.1486  -15.0345 C   0  0  1  0  0  0  0  0  0  0  0  0
   19.8534  -10.2824  -15.7007 C   0  0  0  0  0  0  0  0  0  0  0  0
   20.0768  -11.6426  -16.2225 C   0  0  0  0  0  0  0  0  0  0  0  0
   19.2571  -12.5730  -16.0329 O   0  0  0  0  0  0  0  0  0  0  0  0
   18.4622   -8.8393  -14.3384 C   0  0  0  0  0  0  0  0  0  0  0  0
   18.0088   -7.8215  -14.9214 O   0  0  0  0  0  0  0  0  0  0  0  0
   21.2232  -11.9143  -16.9460 O   0  0  0  0  0  0  0  0  0  0  0  0
   19.0551   -4.9765  -10.5705 N   0  0  0  0  0  0  0  0  0  0  0  0
   18.6723   -6.2484  -10.1296 C   0  0  0  0  0  0  0  0  0  0  0  0
   18.2964   -6.3381   -8.9190 O   0  0  0  0  0  0  0  0  0  0  0  0
   18.6555   -7.4874  -10.9038 C   0  0  0  0  0  0  0  0  0  0  0  0
   18.9304   -7.3538  -12.3589 C   0  0  2  0  0  0  0  0  0  0  0  0
   18.9222   -8.6457  -12.9974 N   0  0  0  0  0  0  0  0  0  0  0  0
   20.1156   -6.5557  -12.6949 C   0  0  0  0  0  0  0  0  0  0  0  0
   21.2478   -7.0664  -12.5072 O   0  0  0  0  0  0  0  0  0  0  0  0
   24.5588   -4.8778  -18.0810 C   0  0  0  0  0  0  0  0  0  0  0  0
   23.1668   -5.6490  -17.2148 S   0  0  0  0  0  0  0  0  0  0  0  0
   22.6597   -4.6786  -15.7924 C   0  0  0  0  0  0  0  0  0  0  0  0
   21.5037   -5.2808  -15.0492 C   0  0  0  0  0  0  0  0  0  0  0  0
   21.1385   -4.5310  -13.7970 C   0  0  2  0  0  0  0  0  0  0  0  0
   19.9935   -5.2490  -13.2148 N   0  0  0  0  0  0  0  0  0  0  0  0
   20.7974   -3.1134  -14.0387 C   0  0  0  0  0  0  0  0  0  0  0  0
   19.6105   -2.7890  -14.2792 O   0  0  0  0  0  0  0  0  0  0  0  0
   21.7532   -2.1105  -14.0097 O   0  0  0  0  0  0  0  0  0  0  0  0
  2  3  1  0
  2  1  1  6
  3  4  1  0
  4  8  1  0
  4  5  2  0
  6  2  1  0
  6  7  2  0
  9 10  1  0
 10 12  1  0
 10 11  2  0
 13 12  1  1
 13 14  1  0
 13 15  1  0
 14  6  1  0
 15 22  1  0
 16 15  2  0
 18 19  1  0
 18 17  1  0
 20 19  1  0
 21 20  1  6
 21 23  1  0
 22 21  1  0
 23 24  2  0
 23 25  1  0
M  END
$$$$
