DNM.pdb
     RDKit          3D

 25 24  0  0  1  0  0  0  0  0999 V2000
   18.1283  -11.8829  -14.5138 N   0  0  0  0  0  0  0  0  0  0  0  0
   17.0610  -10.9271  -14.3966 C   0  0  1  0  0  0  0  0  0  0  0  0
   15.8098  -11.6592  -13.9621 C   0  0  0  0  0  0  0  0  0  0  0  0
   15.1278  -12.3041  -15.0985 C   0  0  0  0  0  0  0  0  0  0  0  0
   15.7178  -12.5522  -16.1773 O   0  0  0  0  0  0  0  0  0  0  0  0
   17.3500   -9.8780  -13.3886 C   0  0  0  0  0  0  0  0  0  0  0  0
   17.0371  -10.0501  -12.1828 O   0  0  0  0  0  0  0  0  0  0  0  0
   13.7945  -12.6516  -14.9839 O   0  0  0  0  0  0  0  0  0  0  0  0
   21.4057   -7.7161  -14.6500 N   0  0  0  0  0  0  0  0  0  0  0  0
   20.7567   -7.5546  -13.4206 C   0  0  0  0  0  0  0  0  0  0  0  0
   21.3189   -8.0823  -12.4105 O   0  0  0  0  0  0  0  0  0  0  0  0
   19.5041   -6.8471  -13.1654 C   0  0  0  0  0  0  0  0  0  0  0  0
   18.3660   -7.6801  -12.6948 C   0  0  2  0  0  0  0  0  0  0  0  0
   17.9846   -8.6351  -13.7044 N   0  0  0  0  0  0  0  0  0  0  0  0
   17.2262   -6.9260  -12.1592 C   0  0  0  0  0  0  0  0  0  0  0  0
   16.4045   -6.4348  -12.9725 O   0  0  0  0  0  0  0  0  0  0  0  0
   14.3474   -8.8515   -6.9599 C   0  0  0  0  0  0  0  0  0  0  0  0
   13.8108   -7.1267   -6.8198 S   0  0  0  0  0  0  0  0  0  0  0  0
   14.3700   -6.1495   -8.2178 C   0  0  0  0  0  0  0  0  0  0  0  0
   15.4851   -6.7991   -8.9833 C   0  0  0  0  0  0  0  0  0  0  0  0
   15.8969   -6.0330  -10.2108 C   0  0  2  0  0  0  0  0  0  0  0  0
   17.0522   -6.7535  -10.7689 N   0  0  0  0  0  0  0  0  0  0  0  0
   16.2447   -4.6232   -9.9352 C   0  0  0  0  0  0  0  0  0  0  0  0
   17.4441   -4.2961   -9.7734 O   0  0  0  0  0  0  0  0  0  0  0  0
   15.2817   -3.6307   -9.8466 O   0  0  0  0  0  0  0  0  0  0  0  0
  2  3  1  0
  2  1  1  1
  3  4  1  0
  4  8  1  0
  4  5  2  0
  6  2  1  0
  6  7  2  0
  9 10  1  0
 10 12  1  0
 10 11  2  0
 13 12  1  6
 13 14  1  0
 13 15  1  0
 14  6  1  0
 15 22  1  0
 16 15  2  0
 18 19  1  0
 18 17  1  0
 20 19  1  0
 21 20  1  1
 21 23  1  0
 22 21  1  0
 23 24  2  0
 23 25  1  0
M  END
$$$$
