ITD.pdb
     RDKit          3D

 24 23  0  0  1  0  0  0  0  0999 V2000
   16.6167  -15.2949  -17.7084 C   0  0  0  0  0  0  0  0  0  0  0  0
   18.0671  -15.0302  -17.4736 C   0  0  0  0  0  0  0  0  0  0  0  0
   18.3176  -13.6769  -16.8176 C   0  0  2  0  0  0  0  0  0  0  0  0
   17.8100  -12.5487  -17.6620 C   0  0  0  0  0  0  0  0  0  0  0  0
   19.8176  -13.5819  -16.5903 C   0  0  2  0  0  0  0  0  0  0  0  0
   20.2831  -14.7843  -15.9292 N   0  0  0  0  0  0  0  0  0  0  0  0
   20.1980  -12.3648  -15.8353 C   0  0  0  0  0  0  0  0  0  0  0  0
   19.7708  -12.1520  -14.6733 O   0  0  0  0  0  0  0  0  0  0  0  0
   23.4008  -11.1644  -14.4418 C   0  0  0  0  0  0  0  0  0  0  0  0
   22.9280  -10.1297  -15.4069 C   0  0  1  0  0  0  0  0  0  0  0  0
   23.6312  -10.1341  -16.6153 O   0  0  0  0  0  0  0  0  0  0  0  0
   21.4731  -10.1934  -15.7271 C   0  0  2  0  0  0  0  0  0  0  0  0
   21.0656  -11.3893  -16.4036 N   0  0  0  0  0  0  0  0  0  0  0  0
   20.9706   -8.9605  -16.4117 C   0  0  0  0  0  0  0  0  0  0  0  0
   20.7841   -8.9842  -17.6543 O   0  0  0  0  0  0  0  0  0  0  0  0
   20.6923   -7.7584  -15.7279 N   0  0  0  0  0  0  0  0  0  0  0  0
   20.2515   -6.5384  -16.3927 C   0  0  1  0  0  0  0  0  0  0  0  0
   18.7477   -6.4281  -16.1478 C   0  0  0  0  0  0  0  0  0  0  0  0
   18.1980   -5.1792  -16.6949 C   0  0  0  0  0  0  0  0  0  0  0  0
   18.5279   -4.7460  -17.8381 O   0  0  0  0  0  0  0  0  0  0  0  0
   20.9477   -5.3475  -15.8548 C   0  0  0  0  0  0  0  0  0  0  0  0
   20.7643   -4.1264  -16.4818 O   0  0  0  0  0  0  0  0  0  0  0  0
   17.2854   -4.4134  -15.9770 O   0  0  0  0  0  0  0  0  0  0  0  0
   21.7017   -5.3779  -14.8548 O   0  0  0  0  0  0  0  0  0  0  0  0
  2  1  1  0
  3  2  1  0
  3  5  1  0
  3  4  1  6
  5  7  1  0
  5  6  1  1
  7  8  2  0
 10 12  1  0
 10 11  1  0
 10  9  1  1
 12 13  1  6
 13  7  1  0
 14 12  1  0
 14 15  2  0
 16 14  1  0
 17 16  1  0
 17 21  1  0
 17 18  1  1
 19 23  1  0
 19 18  1  0
 20 19  2  0
 21 22  1  0
 24 21  2  0
M  END
$$$$
