ITD.pdb
     RDKit          3D

 24 23  0  0  1  0  0  0  0  0999 V2000
   29.1719  -14.6075  -17.1127 C   0  0  0  0  0  0  0  0  0  0  0  0
   28.0174  -13.8552  -16.5383 C   0  0  0  0  0  0  0  0  0  0  0  0
   28.0911  -12.3595  -16.8247 C   0  0  2  0  0  0  0  0  0  0  0  0
   29.3561  -11.7555  -16.2973 C   0  0  0  0  0  0  0  0  0  0  0  0
   26.8594  -11.7395  -16.1850 C   0  0  2  0  0  0  0  0  0  0  0  0
   25.7088  -12.5844  -16.4335 N   0  0  0  0  0  0  0  0  0  0  0  0
   26.6231  -10.3508  -16.6450 C   0  0  0  0  0  0  0  0  0  0  0  0
   27.4635   -9.4394  -16.4425 O   0  0  0  0  0  0  0  0  0  0  0  0
   26.1636   -9.0113  -20.1258 C   0  0  0  0  0  0  0  0  0  0  0  0
   24.9664   -8.6260  -19.3234 C   0  0  1  0  0  0  0  0  0  0  0  0
   23.8249   -9.3703  -19.6360 O   0  0  0  0  0  0  0  0  0  0  0  0
   25.1590   -8.6874  -17.8461 C   0  0  2  0  0  0  0  0  0  0  0  0
   25.4290   -9.9994  -17.3364 N   0  0  0  0  0  0  0  0  0  0  0  0
   24.0673   -8.0016  -17.0852 C   0  0  0  0  0  0  0  0  0  0  0  0
   23.3283   -8.6818  -16.3298 O   0  0  0  0  0  0  0  0  0  0  0  0
   23.8207   -6.6154  -17.1722 N   0  0  0  0  0  0  0  0  0  0  0  0
   22.7469   -5.9427  -16.4518 C   0  0  1  0  0  0  0  0  0  0  0  0
   23.0394   -6.1265  -14.9637 C   0  0  0  0  0  0  0  0  0  0  0  0
   22.0601   -5.4192  -14.1258 C   0  0  0  0  0  0  0  0  0  0  0  0
   21.0024   -4.9182  -14.6093 O   0  0  0  0  0  0  0  0  0  0  0  0
   22.6886   -4.5022  -16.7892 C   0  0  0  0  0  0  0  0  0  0  0  0
   23.6425   -3.9773  -17.6449 O   0  0  0  0  0  0  0  0  0  0  0  0
   22.2527   -5.2681  -12.7567 O   0  0  0  0  0  0  0  0  0  0  0  0
   21.8181   -3.7201  -16.3421 O   0  0  0  0  0  0  0  0  0  0  0  0
  2  1  1  0
  3  2  1  0
  3  5  1  0
  3  4  1  1
  5  7  1  0
  5  6  1  6
  7  8  2  0
 10 12  1  0
 10 11  1  0
 10  9  1  6
 12 13  1  1
 13  7  1  0
 14 12  1  0
 14 15  2  0
 16 14  1  0
 17 16  1  0
 17 21  1  0
 17 18  1  1
 19 23  1  0
 19 18  1  0
 20 19  2  0
 21 22  1  0
 24 21  2  0
M  END
$$$$
