ITD.pdb
     RDKit          3D

 24 23  0  0  1  0  0  0  0  0999 V2000
   28.4848  -13.7291  -15.3363 C   0  0  0  0  0  0  0  0  0  0  0  0
   27.7070  -13.1548  -16.4738 C   0  0  0  0  0  0  0  0  0  0  0  0
   27.5484  -11.6419  -16.3713 C   0  0  2  0  0  0  0  0  0  0  0  0
   26.6632  -11.2533  -15.2272 C   0  0  0  0  0  0  0  0  0  0  0  0
   26.9841  -11.1789  -17.7047 C   0  0  2  0  0  0  0  0  0  0  0  0
   27.7375  -11.7842  -18.7844 N   0  0  0  0  0  0  0  0  0  0  0  0
   26.9561   -9.7020  -17.8233 C   0  0  0  0  0  0  0  0  0  0  0  0
   27.9167   -9.0644  -18.3220 O   0  0  0  0  0  0  0  0  0  0  0  0
   27.2166   -7.4235  -19.5841 C   0  0  0  0  0  0  0  0  0  0  0  0
   25.8625   -7.1325  -19.0300 C   0  0  1  0  0  0  0  0  0  0  0  0
   24.8229   -7.6859  -19.7835 O   0  0  0  0  0  0  0  0  0  0  0  0
   25.6664   -7.5469  -17.6111 C   0  0  2  0  0  0  0  0  0  0  0  0
   25.8334   -8.9504  -17.3739 N   0  0  0  0  0  0  0  0  0  0  0  0
   24.3947   -7.0235  -17.0196 C   0  0  0  0  0  0  0  0  0  0  0  0
   23.5919   -7.8294  -16.4853 O   0  0  0  0  0  0  0  0  0  0  0  0
   24.0449   -5.6569  -17.0304 N   0  0  0  0  0  0  0  0  0  0  0  0
   22.8812   -5.1190  -16.3369 C   0  0  1  0  0  0  0  0  0  0  0  0
   23.1006   -5.3838  -14.8484 C   0  0  0  0  0  0  0  0  0  0  0  0
   22.0370   -4.7869  -14.0276 C   0  0  0  0  0  0  0  0  0  0  0  0
   20.8188   -5.0967  -14.1806 O   0  0  0  0  0  0  0  0  0  0  0  0
   22.7282   -3.6670  -16.5827 C   0  0  0  0  0  0  0  0  0  0  0  0
   21.4803   -3.0894  -16.4187 O   0  0  0  0  0  0  0  0  0  0  0  0
   22.3231   -3.8499  -13.0403 O   0  0  0  0  0  0  0  0  0  0  0  0
   23.6706   -2.9202  -16.9343 O   0  0  0  0  0  0  0  0  0  0  0  0
  2  1  1  0
  3  2  1  0
  3  5  1  0
  3  4  1  1
  5  7  1  0
  5  6  1  6
  7  8  2  0
 10 12  1  0
 10 11  1  0
 10  9  1  6
 12 13  1  6
 13  7  1  0
 14 12  1  0
 14 15  2  0
 16 14  1  0
 17 16  1  0
 17 21  1  0
 17 18  1  1
 19 23  1  0
 19 18  1  0
 20 19  2  0
 21 22  1  0
 24 21  2  0
M  END
$$$$
