ITD.pdb
     RDKit          3D

 24 23  0  0  1  0  0  0  0  0999 V2000
   26.8689  -16.1254  -17.5418 C   0  0  0  0  0  0  0  0  0  0  0  0
   26.6695  -14.8556  -16.7824 C   0  0  0  0  0  0  0  0  0  0  0  0
   25.6777  -13.9165  -17.4599 C   0  0  2  0  0  0  0  0  0  0  0  0
   26.0753  -13.6150  -18.8722 C   0  0  0  0  0  0  0  0  0  0  0  0
   25.6265  -12.6594  -16.6068 C   0  0  2  0  0  0  0  0  0  0  0  0
   25.4483  -13.0261  -15.2164 N   0  0  0  0  0  0  0  0  0  0  0  0
   24.5785  -11.7137  -17.0578 C   0  0  0  0  0  0  0  0  0  0  0  0
   24.6347  -11.1584  -18.1832 O   0  0  0  0  0  0  0  0  0  0  0  0
   21.1043  -12.1447  -18.0056 C   0  0  0  0  0  0  0  0  0  0  0  0
   21.1008  -11.1817  -16.8663 C   0  0  1  0  0  0  0  0  0  0  0  0
   20.6690  -11.7466  -15.6625 O   0  0  0  0  0  0  0  0  0  0  0  0
   22.4085  -10.5120  -16.6112 C   0  0  2  0  0  0  0  0  0  0  0  0
   23.4656  -11.4001  -16.2269 N   0  0  0  0  0  0  0  0  0  0  0  0
   22.2944   -9.3397  -15.6872 C   0  0  0  0  0  0  0  0  0  0  0  0
   23.1147   -9.2242  -14.7421 O   0  0  0  0  0  0  0  0  0  0  0  0
   21.3027   -8.3455  -15.8224 N   0  0  0  0  0  0  0  0  0  0  0  0
   21.2219   -7.1685  -14.9664 C   0  0  1  0  0  0  0  0  0  0  0  0
   22.5541   -6.4346  -15.1086 C   0  0  0  0  0  0  0  0  0  0  0  0
   22.5696   -5.1821  -14.3389 C   0  0  0  0  0  0  0  0  0  0  0  0
   21.8076   -4.9972  -13.3446 O   0  0  0  0  0  0  0  0  0  0  0  0
   20.1037   -6.2843  -15.3666 C   0  0  0  0  0  0  0  0  0  0  0  0
   19.3246   -5.7042  -14.3796 O   0  0  0  0  0  0  0  0  0  0  0  0
   23.4270   -4.1383  -14.6705 O   0  0  0  0  0  0  0  0  0  0  0  0
   19.8163   -6.0261  -16.5583 O   0  0  0  0  0  0  0  0  0  0  0  0
  2  1  1  0
  3  2  1  0
  3  5  1  0
  3  4  1  6
  5  7  1  0
  5  6  1  1
  7  8  2  0
 10 12  1  0
 10 11  1  0
 10  9  1  6
 12 13  1  1
 13  7  1  0
 14 12  1  0
 14 15  2  0
 16 14  1  0
 17 16  1  0
 17 21  1  0
 17 18  1  6
 19 23  1  0
 19 18  1  0
 20 19  2  0
 21 22  1  0
 24 21  2  0
M  END
$$$$
