ITD.pdb
     RDKit          3D

 24 23  0  0  1  0  0  0  0  0999 V2000
   21.7163  -15.4111  -17.6677 C   0  0  0  0  0  0  0  0  0  0  0  0
   21.0609  -14.0748  -17.5521 C   0  0  0  0  0  0  0  0  0  0  0  0
   19.8031  -14.1109  -16.6911 C   0  0  2  0  0  0  0  0  0  0  0  0
   18.7519  -14.9992  -17.2819 C   0  0  0  0  0  0  0  0  0  0  0  0
   19.3250  -12.6730  -16.5703 C   0  0  2  0  0  0  0  0  0  0  0  0
   19.1752  -12.1010  -17.8932 N   0  0  0  0  0  0  0  0  0  0  0  0
   20.2186  -11.8507  -15.7209 C   0  0  0  0  0  0  0  0  0  0  0  0
   20.5015  -12.1888  -14.5446 O   0  0  0  0  0  0  0  0  0  0  0  0
   23.5302  -11.4007  -15.0352 C   0  0  0  0  0  0  0  0  0  0  0  0
   23.0993  -10.0795  -15.5774 C   0  0  1  0  0  0  0  0  0  0  0  0
   23.4422   -9.8910  -16.9197 O   0  0  0  0  0  0  0  0  0  0  0  0
   21.6432   -9.7912  -15.4351 C   0  0  2  0  0  0  0  0  0  0  0  0
   20.7907  -10.6425  -16.2112 N   0  0  0  0  0  0  0  0  0  0  0  0
   21.3130   -8.3430  -15.6215 C   0  0  0  0  0  0  0  0  0  0  0  0
   20.5793   -8.0022  -16.5832 O   0  0  0  0  0  0  0  0  0  0  0  0
   21.7879   -7.3278  -14.7647 N   0  0  0  0  0  0  0  0  0  0  0  0
   21.4630   -5.9168  -14.9323 C   0  0  1  0  0  0  0  0  0  0  0  0
   19.9504   -5.7946  -14.7571 C   0  0  0  0  0  0  0  0  0  0  0  0
   19.5078   -4.3938  -14.8152 C   0  0  0  0  0  0  0  0  0  0  0  0
   20.1465   -3.5159  -15.4669 O   0  0  0  0  0  0  0  0  0  0  0  0
   22.1646   -5.0779  -13.9343 C   0  0  0  0  0  0  0  0  0  0  0  0
   22.1379   -3.7012  -14.0815 O   0  0  0  0  0  0  0  0  0  0  0  0
   18.3610   -3.9681  -14.1534 O   0  0  0  0  0  0  0  0  0  0  0  0
   22.7885   -5.5437  -12.9528 O   0  0  0  0  0  0  0  0  0  0  0  0
  2  1  1  0
  3  2  1  0
  3  5  1  0
  3  4  1  6
  5  7  1  0
  5  6  1  6
  7  8  2  0
 10 12  1  0
 10 11  1  0
 10  9  1  6
 12 13  1  6
 13  7  1  0
 14 12  1  0
 14 15  2  0
 16 14  1  0
 17 16  1  0
 17 21  1  0
 17 18  1  1
 19 23  1  0
 19 18  1  0
 20 19  2  0
 21 22  1  0
 24 21  2  0
M  END
$$$$
