ITD.pdb
     RDKit          3D

 24 23  0  0  1  0  0  0  0  0999 V2000
   30.5809  -21.5585  -10.2367 C   0  0  0  0  0  0  0  0  0  0  0  0
   29.1169  -21.2755  -10.1639 C   0  0  0  0  0  0  0  0  0  0  0  0
   28.4293  -21.3898  -11.5199 C   0  0  2  0  0  0  0  0  0  0  0  0
   29.0143  -20.4407  -12.5202 C   0  0  0  0  0  0  0  0  0  0  0  0
   26.9540  -21.1157  -11.2767 C   0  0  2  0  0  0  0  0  0  0  0  0
   26.5144  -21.8435  -10.1034 N   0  0  0  0  0  0  0  0  0  0  0  0
   26.1185  -21.4346  -12.4584 C   0  0  0  0  0  0  0  0  0  0  0  0
   26.1528  -22.5669  -13.0012 O   0  0  0  0  0  0  0  0  0  0  0  0
   24.4929  -23.2198  -13.9253 C   0  0  0  0  0  0  0  0  0  0  0  0
   23.6344  -22.0073  -14.0603 C   0  0  1  0  0  0  0  0  0  0  0  0
   22.6805  -21.8860  -13.0453 O   0  0  0  0  0  0  0  0  0  0  0  0
   24.3814  -20.7192  -14.1387 C   0  0  2  0  0  0  0  0  0  0  0  0
   25.2432  -20.4636  -13.0225 N   0  0  0  0  0  0  0  0  0  0  0  0
   23.4995  -19.5498  -14.4483 C   0  0  0  0  0  0  0  0  0  0  0  0
   23.1168  -18.8073  -13.5093 O   0  0  0  0  0  0  0  0  0  0  0  0
   23.0695  -19.2333  -15.7540 N   0  0  0  0  0  0  0  0  0  0  0  0
   22.2012  -18.1040  -16.0632 C   0  0  1  0  0  0  0  0  0  0  0  0
   22.6396  -17.5792  -17.4293 C   0  0  0  0  0  0  0  0  0  0  0  0
   22.2679  -16.1689  -17.6146 C   0  0  0  0  0  0  0  0  0  0  0  0
   21.6356  -15.5207  -16.7295 O   0  0  0  0  0  0  0  0  0  0  0  0
   20.7781  -18.5106  -16.1023 C   0  0  0  0  0  0  0  0  0  0  0  0
   19.8500  -17.7627  -15.3973 O   0  0  0  0  0  0  0  0  0  0  0  0
   22.5962  -15.4797  -18.7773 O   0  0  0  0  0  0  0  0  0  0  0  0
   20.3576  -19.5022  -16.7421 O   0  0  0  0  0  0  0  0  0  0  0  0
  2  1  1  0
  3  2  1  0
  3  5  1  0
  3  4  1  6
  5  7  1  0
  5  6  1  1
  7  8  2  0
 10 12  1  0
 10 11  1  0
 10  9  1  1
 12 13  1  1
 13  7  1  0
 14 12  1  0
 14 15  2  0
 16 14  1  0
 17 16  1  0
 17 21  1  0
 17 18  1  6
 19 23  1  0
 19 18  1  0
 20 19  2  0
 21 22  1  0
 24 21  2  0
M  END
$$$$
