ITD.pdb
     RDKit          3D

 24 23  0  0  1  0  0  0  0  0999 V2000
   15.0195  -11.4799  -15.4390 C   0  0  0  0  0  0  0  0  0  0  0  0
   15.5792  -11.2049  -14.0826 C   0  0  0  0  0  0  0  0  0  0  0  0
   14.8883  -10.0362  -13.3889 C   0  0  2  0  0  0  0  0  0  0  0  0
   15.0063   -8.7716  -14.1828 C   0  0  0  0  0  0  0  0  0  0  0  0
   15.5365   -9.9064  -12.0201 C   0  0  2  0  0  0  0  0  0  0  0  0
   15.4409  -11.1706  -11.3185 N   0  0  0  0  0  0  0  0  0  0  0  0
   14.9576   -8.7984  -11.2243 C   0  0  0  0  0  0  0  0  0  0  0  0
   13.7876   -8.8565  -10.7707 O   0  0  0  0  0  0  0  0  0  0  0  0
   15.2020   -7.9273   -7.9521 C   0  0  0  0  0  0  0  0  0  0  0  0
   15.7200   -6.7192   -8.6575 C   0  0  1  0  0  0  0  0  0  0  0  0
   17.1148   -6.6247   -8.6468 O   0  0  0  0  0  0  0  0  0  0  0  0
   15.2654   -6.5787  -10.0707 C   0  0  2  0  0  0  0  0  0  0  0  0
   15.7114   -7.6233  -10.9446 N   0  0  0  0  0  0  0  0  0  0  0  0
   15.5306   -5.2188  -10.6376 C   0  0  0  0  0  0  0  0  0  0  0  0
   16.1823   -5.1191  -11.7076 O   0  0  0  0  0  0  0  0  0  0  0  0
   15.0828   -4.0285  -10.0271 N   0  0  0  0  0  0  0  0  0  0  0  0
   15.2578   -2.7070  -10.6167 C   0  0  1  0  0  0  0  0  0  0  0  0
   14.6357   -2.7664  -12.0107 C   0  0  0  0  0  0  0  0  0  0  0  0
   15.3889   -1.9540  -12.9771 C   0  0  0  0  0  0  0  0  0  0  0  0
   16.2554   -2.4622  -13.7482 O   0  0  0  0  0  0  0  0  0  0  0  0
   14.5973   -1.6603   -9.8041 C   0  0  0  0  0  0  0  0  0  0  0  0
   15.0183   -0.3476   -9.9355 O   0  0  0  0  0  0  0  0  0  0  0  0
   15.1820   -0.5832  -13.0885 O   0  0  0  0  0  0  0  0  0  0  0  0
   13.6694   -1.8930   -8.9953 O   0  0  0  0  0  0  0  0  0  0  0  0
  2  1  1  0
  3  2  1  0
  3  5  1  0
  3  4  1  6
  5  7  1  0
  5  6  1  1
  7  8  2  0
 10 12  1  0
 10 11  1  0
 10  9  1  6
 12 13  1  6
 13  7  1  0
 14 12  1  0
 14 15  2  0
 16 14  1  0
 17 16  1  0
 17 21  1  0
 17 18  1  6
 19 23  1  0
 19 18  1  0
 20 19  2  0
 21 22  1  0
 24 21  2  0
M  END
$$$$
