ITD.pdb
     RDKit          3D

 24 23  0  0  1  0  0  0  0  0999 V2000
   27.8478  -19.0111   -6.1458 C   0  0  0  0  0  0  0  0  0  0  0  0
   26.6319  -19.5628   -6.8136 C   0  0  0  0  0  0  0  0  0  0  0  0
   26.7924  -19.6732   -8.3258 C   0  0  2  0  0  0  0  0  0  0  0  0
   26.9985  -18.3325   -8.9610 C   0  0  0  0  0  0  0  0  0  0  0  0
   25.5357  -20.3554   -8.8415 C   0  0  2  0  0  0  0  0  0  0  0  0
   25.2555  -21.5257   -8.0343 N   0  0  0  0  0  0  0  0  0  0  0  0
   25.6293  -20.6977  -10.2803 C   0  0  0  0  0  0  0  0  0  0  0  0
   26.5039  -21.4893  -10.7119 O   0  0  0  0  0  0  0  0  0  0  0  0
   25.2864  -22.9744  -11.8730 C   0  0  0  0  0  0  0  0  0  0  0  0
   24.2518  -22.1495  -12.5618 C   0  0  1  0  0  0  0  0  0  0  0  0
   22.9571  -22.3664  -12.0805 O   0  0  0  0  0  0  0  0  0  0  0  0
   24.5063  -20.6805  -12.5366 C   0  0  2  0  0  0  0  0  0  0  0  0
   24.7263  -20.1383  -11.2284 N   0  0  0  0  0  0  0  0  0  0  0  0
   23.4887  -19.8976  -13.3066 C   0  0  0  0  0  0  0  0  0  0  0  0
   22.7711  -19.0638  -12.6990 O   0  0  0  0  0  0  0  0  0  0  0  0
   23.2898  -20.0481  -14.6951 N   0  0  0  0  0  0  0  0  0  0  0  0
   22.5983  -19.0650  -15.5197 C   0  0  1  0  0  0  0  0  0  0  0  0
   23.6281  -17.9946  -15.8767 C   0  0  0  0  0  0  0  0  0  0  0  0
   23.0508  -16.9494  -16.7343 C   0  0  0  0  0  0  0  0  0  0  0  0
   21.8002  -16.7755  -16.8291 O   0  0  0  0  0  0  0  0  0  0  0  0
   22.0502  -19.6803  -16.7498 C   0  0  0  0  0  0  0  0  0  0  0  0
   22.9166  -20.3216  -17.6192 O   0  0  0  0  0  0  0  0  0  0  0  0
   23.8574  -16.0997  -17.4839 O   0  0  0  0  0  0  0  0  0  0  0  0
   20.8356  -19.6556  -17.0555 O   0  0  0  0  0  0  0  0  0  0  0  0
  2  1  1  0
  3  2  1  0
  3  5  1  0
  3  4  1  6
  5  7  1  0
  5  6  1  1
  7  8  2  0
 10 12  1  0
 10 11  1  0
 10  9  1  1
 12 13  1  1
 13  7  1  0
 14 12  1  0
 14 15  2  0
 16 14  1  0
 17 16  1  0
 17 21  1  0
 17 18  1  6
 19 23  1  0
 19 18  1  0
 20 19  2  0
 21 22  1  0
 24 21  2  0
M  END
$$$$
