ITD.pdb
     RDKit          3D

 24 23  0  0  1  0  0  0  0  0999 V2000
   16.1918  -13.6386  -16.1912 C   0  0  0  0  0  0  0  0  0  0  0  0
   17.4976  -13.0593  -16.6247 C   0  0  0  0  0  0  0  0  0  0  0  0
   17.8930  -11.8312  -15.8123 C   0  0  2  0  0  0  0  0  0  0  0  0
   16.8834  -10.7324  -15.9413 C   0  0  0  0  0  0  0  0  0  0  0  0
   19.2608  -11.4040  -16.3196 C   0  0  2  0  0  0  0  0  0  0  0  0
   20.1566  -12.5429  -16.3109 N   0  0  0  0  0  0  0  0  0  0  0  0
   19.8190  -10.2680  -15.5488 C   0  0  0  0  0  0  0  0  0  0  0  0
   19.9548  -10.3240  -14.3012 O   0  0  0  0  0  0  0  0  0  0  0  0
   23.0147   -8.9380  -15.0010 C   0  0  0  0  0  0  0  0  0  0  0  0
   22.2523   -7.8093  -15.6096 C   0  0  1  0  0  0  0  0  0  0  0  0
   22.5746   -7.5800  -16.9506 O   0  0  0  0  0  0  0  0  0  0  0  0
   20.7695   -7.9339  -15.5131 C   0  0  2  0  0  0  0  0  0  0  0  0
   20.2229   -9.0674  -16.1989 N   0  0  0  0  0  0  0  0  0  0  0  0
   20.0525   -6.6664  -15.8601 C   0  0  0  0  0  0  0  0  0  0  0  0
   19.0796   -6.7123  -16.6544 O   0  0  0  0  0  0  0  0  0  0  0  0
   20.4154   -5.4076  -15.3369 N   0  0  0  0  0  0  0  0  0  0  0  0
   19.7419   -4.1646  -15.6917 C   0  0  1  0  0  0  0  0  0  0  0  0
   18.3011   -4.2947  -15.2008 C   0  0  0  0  0  0  0  0  0  0  0  0
   17.5405   -3.0547  -15.4129 C   0  0  0  0  0  0  0  0  0  0  0  0
   17.4933   -2.4823  -16.5414 O   0  0  0  0  0  0  0  0  0  0  0  0
   20.3956   -2.9958  -15.0603 C   0  0  0  0  0  0  0  0  0  0  0  0
   19.9923   -1.7238  -15.4308 O   0  0  0  0  0  0  0  0  0  0  0  0
   16.8344   -2.4515  -14.3775 O   0  0  0  0  0  0  0  0  0  0  0  0
   21.3023   -3.0889  -14.2009 O   0  0  0  0  0  0  0  0  0  0  0  0
  2  1  1  0
  3  2  1  0
  3  5  1  0
  3  4  1  6
  5  7  1  0
  5  6  1  1
  7  8  2  0
 10 12  1  0
 10 11  1  0
 10  9  1  6
 12 13  1  6
 13  7  1  0
 14 12  1  0
 14 15  2  0
 16 14  1  0
 17 16  1  0
 17 21  1  0
 17 18  1  1
 19 23  1  0
 19 18  1  0
 20 19  2  0
 21 22  1  0
 24 21  2  0
M  END
$$$$
