ITD.pdb
     RDKit          3D

 24 23  0  0  1  0  0  0  0  0999 V2000
   25.6894  -34.0066  -12.2905 C   0  0  0  0  0  0  0  0  0  0  0  0
   24.9065  -33.5705  -11.0965 C   0  0  0  0  0  0  0  0  0  0  0  0
   25.7749  -33.4044   -9.8544 C   0  0  2  0  0  0  0  0  0  0  0  0
   26.4280  -34.6927   -9.4580 C   0  0  0  0  0  0  0  0  0  0  0  0
   24.8618  -32.8740   -8.7609 C   0  0  2  0  0  0  0  0  0  0  0  0
   24.2552  -31.6328   -9.1980 N   0  0  0  0  0  0  0  0  0  0  0  0
   25.5670  -32.7082   -7.4681 C   0  0  0  0  0  0  0  0  0  0  0  0
   26.2774  -31.6996   -7.2316 O   0  0  0  0  0  0  0  0  0  0  0  0
   24.8254  -31.5446   -4.3829 C   0  0  0  0  0  0  0  0  0  0  0  0
   25.2277  -32.9547   -4.1090 C   0  0  1  0  0  0  0  0  0  0  0  0
   24.1432  -33.8089   -3.8871 O   0  0  0  0  0  0  0  0  0  0  0  0
   26.0869  -33.5738   -5.1587 C   0  0  2  0  0  0  0  0  0  0  0  0
   25.4630  -33.6915   -6.4435 N   0  0  0  0  0  0  0  0  0  0  0  0
   26.7139  -34.8596   -4.7176 C   0  0  0  0  0  0  0  0  0  0  0  0
   26.5159  -35.9000   -5.3942 O   0  0  0  0  0  0  0  0  0  0  0  0
   27.5251  -34.9670   -3.5684 N   0  0  0  0  0  0  0  0  0  0  0  0
   28.0996  -36.2236   -3.1041 C   0  0  1  0  0  0  0  0  0  0  0  0
   29.6122  -36.0168   -3.0492 C   0  0  0  0  0  0  0  0  0  0  0  0
   30.3078  -37.2178   -2.5644 C   0  0  0  0  0  0  0  0  0  0  0  0
   29.6822  -38.2710   -2.2439 O   0  0  0  0  0  0  0  0  0  0  0  0
   27.5833  -36.5928   -1.7664 C   0  0  0  0  0  0  0  0  0  0  0  0
   27.3969  -35.5957   -0.8236 O   0  0  0  0  0  0  0  0  0  0  0  0
   31.6923  -37.2509   -2.4355 O   0  0  0  0  0  0  0  0  0  0  0  0
   27.3015  -37.7667   -1.4317 O   0  0  0  0  0  0  0  0  0  0  0  0
  2  1  1  0
  3  2  1  0
  3  5  1  0
  3  4  1  1
  5  7  1  0
  5  6  1  6
  7  8  2  0
 10 12  1  0
 10 11  1  0
 10  9  1  6
 12 13  1  6
 13  7  1  0
 14 12  1  0
 14 15  2  0
 16 14  1  0
 17 16  1  0
 17 21  1  0
 17 18  1  1
 19 23  1  0
 19 18  1  0
 20 19  2  0
 21 22  1  0
 24 21  2  0
M  END
$$$$
