ITD.pdb
     RDKit          3D

 24 23  0  0  1  0  0  0  0  0999 V2000
   24.3484  -13.8805  -17.0808 C   0  0  0  0  0  0  0  0  0  0  0  0
   23.5042  -12.7473  -16.5992 C   0  0  0  0  0  0  0  0  0  0  0  0
   24.3000  -11.4598  -16.4153 C   0  0  2  0  0  0  0  0  0  0  0  0
   25.3808  -11.6175  -15.3904 C   0  0  0  0  0  0  0  0  0  0  0  0
   23.2968  -10.3890  -16.0183 C   0  0  2  0  0  0  0  0  0  0  0  0
   22.0830  -10.5534  -16.7924 N   0  0  0  0  0  0  0  0  0  0  0  0
   23.8480   -9.0204  -16.1565 C   0  0  0  0  0  0  0  0  0  0  0  0
   24.8453   -8.6434  -15.4921 O   0  0  0  0  0  0  0  0  0  0  0  0
   25.4739   -7.2122  -18.9751 C   0  0  0  0  0  0  0  0  0  0  0  0
   24.2610   -6.4362  -18.5850 C   0  0  1  0  0  0  0  0  0  0  0  0
   23.2016   -6.5701  -19.4875 O   0  0  0  0  0  0  0  0  0  0  0  0
   23.7382   -6.7387  -17.2217 C   0  0  2  0  0  0  0  0  0  0  0  0
   23.2635   -8.0802  -17.0519 N   0  0  0  0  0  0  0  0  0  0  0  0
   22.7482   -5.7257  -16.7371 C   0  0  0  0  0  0  0  0  0  0  0  0
   23.1065   -4.5265  -16.6238 O   0  0  0  0  0  0  0  0  0  0  0  0
   21.4182   -6.0497  -16.3965 N   0  0  0  0  0  0  0  0  0  0  0  0
   20.4741   -5.0893  -15.8387 C   0  0  1  0  0  0  0  0  0  0  0  0
   19.7168   -4.4867  -17.0207 C   0  0  0  0  0  0  0  0  0  0  0  0
   18.7010   -3.5199  -16.5795 C   0  0  0  0  0  0  0  0  0  0  0  0
   17.4618   -3.7374  -16.7231 O   0  0  0  0  0  0  0  0  0  0  0  0
   19.5298   -5.7404  -14.9024 C   0  0  0  0  0  0  0  0  0  0  0  0
   19.7097   -7.0786  -14.5950 O   0  0  0  0  0  0  0  0  0  0  0  0
   19.0578   -2.3162  -15.9808 O   0  0  0  0  0  0  0  0  0  0  0  0
   18.5663   -5.1468  -14.3650 O   0  0  0  0  0  0  0  0  0  0  0  0
  2  1  1  0
  3  2  1  0
  3  5  1  0
  3  4  1  1
  5  7  1  0
  5  6  1  6
  7  8  2  0
 10 12  1  0
 10 11  1  0
 10  9  1  6
 12 13  1  6
 13  7  1  0
 14 12  1  0
 14 15  2  0
 16 14  1  0
 17 16  1  0
 17 21  1  0
 17 18  1  6
 19 23  1  0
 19 18  1  0
 20 19  2  0
 21 22  1  0
 24 21  2  0
M  END
$$$$
