ITD.pdb
     RDKit          3D

 24 23  0  0  1  0  0  0  0  0999 V2000
   19.6831  -17.9314  -15.0018 C   0  0  0  0  0  0  0  0  0  0  0  0
   20.1241  -17.3982  -16.3247 C   0  0  0  0  0  0  0  0  0  0  0  0
   20.6894  -15.9854  -16.2288 C   0  0  2  0  0  0  0  0  0  0  0  0
   19.7058  -15.0347  -15.6189 C   0  0  0  0  0  0  0  0  0  0  0  0
   21.0663  -15.5777  -17.6439 C   0  0  2  0  0  0  0  0  0  0  0  0
   21.8507  -16.6304  -18.2572 N   0  0  0  0  0  0  0  0  0  0  0  0
   21.7751  -14.2770  -17.6865 C   0  0  0  0  0  0  0  0  0  0  0  0
   22.9764  -14.1714  -17.3350 O   0  0  0  0  0  0  0  0  0  0  0  0
   22.7528  -12.1414  -20.5074 C   0  0  0  0  0  0  0  0  0  0  0  0
   21.8988  -11.3013  -19.6184 C   0  0  1  0  0  0  0  0  0  0  0  0
   20.6161  -11.0789  -20.1283 O   0  0  0  0  0  0  0  0  0  0  0  0
   21.7521  -11.8152  -18.2263 C   0  0  2  0  0  0  0  0  0  0  0  0
   21.1156  -13.0955  -18.1299 N   0  0  0  0  0  0  0  0  0  0  0  0
   21.1451  -10.8132  -17.2942 C   0  0  0  0  0  0  0  0  0  0  0  0
   20.2306  -11.1797  -16.5140 O   0  0  0  0  0  0  0  0  0  0  0  0
   21.5498   -9.4627  -17.2447 N   0  0  0  0  0  0  0  0  0  0  0  0
   21.0284   -8.5017  -16.2807 C   0  0  1  0  0  0  0  0  0  0  0  0
   21.4272   -9.0126  -14.8974 C   0  0  0  0  0  0  0  0  0  0  0  0
   21.0808   -8.0499  -13.8417 C   0  0  0  0  0  0  0  0  0  0  0  0
   19.9340   -7.5178  -13.7701 O   0  0  0  0  0  0  0  0  0  0  0  0
   21.5866   -7.1494  -16.5089 C   0  0  0  0  0  0  0  0  0  0  0  0
   22.5166   -6.9723  -17.5196 O   0  0  0  0  0  0  0  0  0  0  0  0
   22.0027   -7.6787  -12.8686 O   0  0  0  0  0  0  0  0  0  0  0  0
   21.2647   -6.1437  -15.8349 O   0  0  0  0  0  0  0  0  0  0  0  0
  2  1  1  0
  3  2  1  0
  3  5  1  0
  3  4  1  6
  5  7  1  0
  5  6  1  1
  7  8  2  0
 10 12  1  0
 10 11  1  0
 10  9  1  6
 12 13  1  6
 13  7  1  0
 14 12  1  0
 14 15  2  0
 16 14  1  0
 17 16  1  0
 17 21  1  0
 17 18  1  1
 19 23  1  0
 19 18  1  0
 20 19  2  0
 21 22  1  0
 24 21  2  0
M  END
$$$$
