ITD.pdb
     RDKit          3D

 24 23  0  0  1  0  0  0  0  0999 V2000
   15.4869  -14.0120  -17.3331 C   0  0  0  0  0  0  0  0  0  0  0  0
   16.7715  -13.3622  -16.9376 C   0  0  0  0  0  0  0  0  0  0  0  0
   16.5790  -11.9300  -16.4514 C   0  0  2  0  0  0  0  0  0  0  0  0
   15.8978  -11.0817  -17.4808 C   0  0  0  0  0  0  0  0  0  0  0  0
   17.9638  -11.4031  -16.1116 C   0  0  2  0  0  0  0  0  0  0  0  0
   18.6310  -12.3348  -15.2248 N   0  0  0  0  0  0  0  0  0  0  0  0
   17.9225  -10.0387  -15.5347 C   0  0  0  0  0  0  0  0  0  0  0  0
   17.3688   -9.0864  -16.1384 O   0  0  0  0  0  0  0  0  0  0  0  0
   16.5048   -9.1004  -12.1529 C   0  0  0  0  0  0  0  0  0  0  0  0
   17.8729   -8.5131  -12.2469 C   0  0  1  0  0  0  0  0  0  0  0  0
   18.8045   -9.1382  -11.4126 O   0  0  0  0  0  0  0  0  0  0  0  0
   18.4449   -8.4807  -13.6236 C   0  0  2  0  0  0  0  0  0  0  0  0
   18.5118   -9.7584  -14.2692 N   0  0  0  0  0  0  0  0  0  0  0  0
   19.7454   -7.7431  -13.6990 C   0  0  0  0  0  0  0  0  0  0  0  0
   20.8000   -8.3857  -13.9321 O   0  0  0  0  0  0  0  0  0  0  0  0
   19.8517   -6.3479  -13.5198 N   0  0  0  0  0  0  0  0  0  0  0  0
   21.1017   -5.6117  -13.6612 C   0  0  1  0  0  0  0  0  0  0  0  0
   21.6095   -5.8838  -15.0760 C   0  0  0  0  0  0  0  0  0  0  0  0
   22.8196   -5.1055  -15.3783 C   0  0  0  0  0  0  0  0  0  0  0  0
   23.6818   -4.8357  -14.4910 O   0  0  0  0  0  0  0  0  0  0  0  0
   20.8998   -4.1589  -13.4589 C   0  0  0  0  0  0  0  0  0  0  0  0
   21.9668   -3.3901  -13.0251 O   0  0  0  0  0  0  0  0  0  0  0  0
   23.0729   -4.6282  -16.6599 O   0  0  0  0  0  0  0  0  0  0  0  0
   19.8091   -3.5760  -13.6589 O   0  0  0  0  0  0  0  0  0  0  0  0
  2  1  1  0
  3  2  1  0
  3  5  1  0
  3  4  1  6
  5  7  1  0
  5  6  1  1
  7  8  2  0
 10 12  1  0
 10 11  1  0
 10  9  1  6
 12 13  1  1
 13  7  1  0
 14 12  1  0
 14 15  2  0
 16 14  1  0
 17 16  1  0
 17 21  1  0
 17 18  1  6
 19 23  1  0
 19 18  1  0
 20 19  2  0
 21 22  1  0
 24 21  2  0
M  END
$$$$
