HTD.pdb
     RDKit          3D

 26 26  0  0  1  0  0  0  0  0999 V2000
   23.6704  -13.4633  -17.6829 N   0  0  0  0  0  0  0  0  0  0  0  0
   23.7562  -12.6542  -16.4817 C   0  0  1  0  0  0  0  0  0  0  0  0
   25.2106  -12.3072  -16.2746 C   0  0  0  0  0  0  0  0  0  0  0  0
   26.0320  -13.5090  -16.0312 C   0  0  0  0  0  0  0  0  0  0  0  0
   26.9991  -14.0159  -16.8580 C   0  0  0  0  0  0  0  0  0  0  0  0
   27.5050  -15.1259  -16.2496 N   0  0  0  0  0  0  0  0  0  0  0  0
   26.8674  -15.2933  -15.0867 C   0  0  0  0  0  0  0  0  0  0  0  0
   25.9563  -14.2969  -14.9469 N   0  0  0  0  0  0  0  0  0  0  0  0
   23.0196  -11.3644  -16.7534 C   0  0  0  0  0  0  0  0  0  0  0  0
   23.1466  -10.8327  -17.9008 O   0  0  0  0  0  0  0  0  0  0  0  0
   19.2882  -10.7746  -16.3975 C   0  0  0  0  0  0  0  0  0  0  0  0
   20.0307   -9.7585  -15.5676 C   0  0  1  0  0  0  0  0  0  0  0  0
   19.9619   -9.9874  -14.2132 O   0  0  0  0  0  0  0  0  0  0  0  0
   21.4588   -9.5880  -16.0660 C   0  0  2  0  0  0  0  0  0  0  0  0
   22.2085  -10.7653  -15.7516 N   0  0  0  0  0  0  0  0  0  0  0  0
   21.9834   -8.3583  -15.4335 C   0  0  0  0  0  0  0  0  0  0  0  0
   22.8547   -8.5085  -14.5357 O   0  0  0  0  0  0  0  0  0  0  0  0
   21.5983   -7.0413  -15.7436 N   0  0  0  0  0  0  0  0  0  0  0  0
   22.0974   -5.8555  -15.1328 C   0  0  1  0  0  0  0  0  0  0  0  0
   22.2832   -4.6949  -16.0852 C   0  0  0  0  0  0  0  0  0  0  0  0
   22.8143   -3.4929  -15.3769 C   0  0  0  0  0  0  0  0  0  0  0  0
   22.0583   -2.6101  -14.8949 O   0  0  0  0  0  0  0  0  0  0  0  0
   21.3454   -5.4174  -13.9506 C   0  0  0  0  0  0  0  0  0  0  0  0
   20.1046   -5.6387  -13.9145 O   0  0  0  0  0  0  0  0  0  0  0  0
   24.1881   -3.2682  -15.2020 O   0  0  0  0  0  0  0  0  0  0  0  0
   21.9304   -4.7726  -12.8722 O   0  0  0  0  0  0  0  0  0  0  0  0
  2  1  1  6
  2  9  1  0
  3  4  1  0
  3  2  1  0
  4  8  1  0
  5  6  1  0
  5  4  2  0
  6  7  1  0
  7  8  2  0
  9 15  1  0
  9 10  2  0
 12 11  1  6
 12 14  1  0
 13 12  1  0
 14 16  1  0
 14 15  1  1
 16 17  2  0
 16 18  1  0
 18 19  1  0
 19 23  1  0
 19 20  1  6
 20 21  1  0
 21 25  1  0
 21 22  2  0
 23 26  1  0
 24 23  2  0
M  END
$$$$
