HTD.pdb
     RDKit          3D

 26 26  0  0  1  0  0  0  0  0999 V2000
   21.8103  -14.6763  -17.3384 N   0  0  0  0  0  0  0  0  0  0  0  0
   20.5934  -13.9479  -17.6439 C   0  0  1  0  0  0  0  0  0  0  0  0
   19.6440  -14.1509  -16.4880 C   0  0  0  0  0  0  0  0  0  0  0  0
   19.1794  -15.5489  -16.3988 C   0  0  0  0  0  0  0  0  0  0  0  0
   18.1162  -16.0981  -17.0651 C   0  0  0  0  0  0  0  0  0  0  0  0
   18.0446  -17.4081  -16.6950 N   0  0  0  0  0  0  0  0  0  0  0  0
   19.0333  -17.6532  -15.8292 C   0  0  0  0  0  0  0  0  0  0  0  0
   19.7374  -16.5078  -15.6429 N   0  0  0  0  0  0  0  0  0  0  0  0
   20.9450  -12.4800  -17.6855 C   0  0  0  0  0  0  0  0  0  0  0  0
   21.7959  -12.0442  -16.8480 O   0  0  0  0  0  0  0  0  0  0  0  0
   20.8658   -8.2575  -20.2062 C   0  0  0  0  0  0  0  0  0  0  0  0
   20.5240   -9.7228  -20.1125 C   0  0  1  0  0  0  0  0  0  0  0  0
   21.1303  -10.4991  -21.0722 O   0  0  0  0  0  0  0  0  0  0  0  0
   20.7502  -10.2449  -18.7007 C   0  0  2  0  0  0  0  0  0  0  0  0
   20.3393  -11.6138  -18.6359 N   0  0  0  0  0  0  0  0  0  0  0  0
   19.9978   -9.3512  -17.7938 C   0  0  0  0  0  0  0  0  0  0  0  0
   18.9704   -9.8324  -17.2454 O   0  0  0  0  0  0  0  0  0  0  0  0
   20.3254   -8.0173  -17.4896 N   0  0  0  0  0  0  0  0  0  0  0  0
   19.6615   -7.1852  -16.5436 C   0  0  1  0  0  0  0  0  0  0  0  0
   19.5551   -7.7802  -15.1569 C   0  0  0  0  0  0  0  0  0  0  0  0
   18.7488   -6.9071  -14.2534 C   0  0  0  0  0  0  0  0  0  0  0  0
   19.2604   -5.9556  -13.6084 O   0  0  0  0  0  0  0  0  0  0  0  0
   20.1875   -5.8171  -16.4623 C   0  0  0  0  0  0  0  0  0  0  0  0
   21.3718   -5.6076  -16.8410 O   0  0  0  0  0  0  0  0  0  0  0  0
   17.3706   -7.0889  -14.0641 O   0  0  0  0  0  0  0  0  0  0  0  0
   19.4482   -4.7441  -15.9902 O   0  0  0  0  0  0  0  0  0  0  0  0
  2  1  1  1
  2  9  1  0
  3  4  1  0
  3  2  1  0
  4  8  1  0
  5  6  1  0
  5  4  2  0
  6  7  1  0
  7  8  2  0
  9 15  1  0
  9 10  2  0
 12 11  1  1
 12 14  1  0
 13 12  1  0
 14 16  1  0
 14 15  1  6
 16 17  2  0
 16 18  1  0
 18 19  1  0
 19 23  1  0
 19 20  1  1
 20 21  1  0
 21 25  1  0
 21 22  2  0
 23 26  1  0
 24 23  2  0
M  END
$$$$
