HTD.pdb
     RDKit          3D

 26 26  0  0  1  0  0  0  0  0999 V2000
   23.5465  -12.2158  -16.6411 N   0  0  0  0  0  0  0  0  0  0  0  0
   24.0429  -11.0348  -15.9603 C   0  0  1  0  0  0  0  0  0  0  0  0
   25.3013  -10.5997  -16.6716 C   0  0  0  0  0  0  0  0  0  0  0  0
   26.3782  -11.6006  -16.5425 C   0  0  0  0  0  0  0  0  0  0  0  0
   26.9090  -12.0803  -15.3746 C   0  0  0  0  0  0  0  0  0  0  0  0
   27.8718  -12.9839  -15.7132 N   0  0  0  0  0  0  0  0  0  0  0  0
   27.9287  -13.0552  -17.0469 C   0  0  0  0  0  0  0  0  0  0  0  0
   27.0079  -12.2025  -17.5641 N   0  0  0  0  0  0  0  0  0  0  0  0
   23.0183   -9.9418  -16.1486 C   0  0  0  0  0  0  0  0  0  0  0  0
   22.5292   -9.7732  -17.3095 O   0  0  0  0  0  0  0  0  0  0  0  0
   19.6843   -9.7449  -14.5747 C   0  0  0  0  0  0  0  0  0  0  0  0
   20.4539   -8.5037  -14.2007 C   0  0  1  0  0  0  0  0  0  0  0  0
   20.9308   -8.5110  -12.9108 O   0  0  0  0  0  0  0  0  0  0  0  0
   21.5356   -8.2040  -15.2288 C   0  0  2  0  0  0  0  0  0  0  0  0
   22.6150   -9.1270  -15.0560 N   0  0  0  0  0  0  0  0  0  0  0  0
   21.9218   -6.7894  -15.0361 C   0  0  0  0  0  0  0  0  0  0  0  0
   22.9457   -6.5705  -14.3351 O   0  0  0  0  0  0  0  0  0  0  0  0
   21.2511   -5.6709  -15.5635 N   0  0  0  0  0  0  0  0  0  0  0  0
   21.5677   -4.3059  -15.3094 C   0  0  1  0  0  0  0  0  0  0  0  0
   20.7902   -3.3187  -16.1516 C   0  0  0  0  0  0  0  0  0  0  0  0
   21.2222   -1.9160  -15.8790 C   0  0  0  0  0  0  0  0  0  0  0  0
   22.3361   -1.4715  -16.2595 O   0  0  0  0  0  0  0  0  0  0  0  0
   21.5007   -3.9191  -13.8950 C   0  0  0  0  0  0  0  0  0  0  0  0
   22.0601   -2.8461  -13.5406 O   0  0  0  0  0  0  0  0  0  0  0  0
   20.4169   -1.0025  -15.1823 O   0  0  0  0  0  0  0  0  0  0  0  0
   20.8537   -4.6740  -12.9292 O   0  0  0  0  0  0  0  0  0  0  0  0
  2  1  1  6
  2  9  1  0
  3  4  1  0
  3  2  1  0
  4  8  1  0
  5  6  1  0
  5  4  2  0
  6  7  1  0
  7  8  2  0
  9 15  1  0
  9 10  2  0
 12 11  1  6
 12 14  1  0
 13 12  1  0
 14 16  1  0
 14 15  1  1
 16 17  2  0
 16 18  1  0
 18 19  1  0
 19 23  1  0
 19 20  1  6
 20 21  1  0
 21 25  1  0
 21 22  2  0
 23 26  1  0
 24 23  2  0
M  END
$$$$
