HTD.pdb
     RDKit          3D

 26 26  0  0  1  0  0  0  0  0999 V2000
   23.5498  -14.2181  -17.4908 N   0  0  0  0  0  0  0  0  0  0  0  0
   23.7020  -13.3486  -16.3395 C   0  0  1  0  0  0  0  0  0  0  0  0
   25.1769  -13.0725  -16.1747 C   0  0  0  0  0  0  0  0  0  0  0  0
   25.9345  -14.3021  -15.8706 C   0  0  0  0  0  0  0  0  0  0  0  0
   26.7491  -14.9906  -16.7298 C   0  0  0  0  0  0  0  0  0  0  0  0
   27.2478  -16.0565  -16.0418 N   0  0  0  0  0  0  0  0  0  0  0  0
   26.7538  -16.0215  -14.8000 C   0  0  0  0  0  0  0  0  0  0  0  0
   25.9419  -14.9395  -14.6891 N   0  0  0  0  0  0  0  0  0  0  0  0
   23.0329  -12.0368  -16.6736 C   0  0  0  0  0  0  0  0  0  0  0  0
   23.2674  -11.5173  -17.8095 O   0  0  0  0  0  0  0  0  0  0  0  0
   19.5424  -11.5606  -17.1604 C   0  0  0  0  0  0  0  0  0  0  0  0
   19.9293  -10.5839  -16.0791 C   0  0  1  0  0  0  0  0  0  0  0  0
   19.5223  -10.9568  -14.8195 O   0  0  0  0  0  0  0  0  0  0  0  0
   21.4143  -10.2570  -16.1474 C   0  0  2  0  0  0  0  0  0  0  0  0
   22.1660  -11.4046  -15.7413 N   0  0  0  0  0  0  0  0  0  0  0  0
   21.6258   -9.0699  -15.2911 C   0  0  0  0  0  0  0  0  0  0  0  0
   22.7338   -8.9884  -14.6965 O   0  0  0  0  0  0  0  0  0  0  0  0
   20.7044   -8.0276  -15.0820 N   0  0  0  0  0  0  0  0  0  0  0  0
   21.0018   -6.7375  -14.5573 C   0  0  1  0  0  0  0  0  0  0  0  0
   22.1889   -6.0599  -15.2054 C   0  0  0  0  0  0  0  0  0  0  0  0
   22.4718   -4.7388  -14.5702 C   0  0  0  0  0  0  0  0  0  0  0  0
   22.2931   -4.5336  -13.3417 O   0  0  0  0  0  0  0  0  0  0  0  0
   19.8586   -5.8174  -14.5209 C   0  0  0  0  0  0  0  0  0  0  0  0
   19.2158   -5.6188  -15.5873 O   0  0  0  0  0  0  0  0  0  0  0  0
   22.9545   -3.6414  -15.2988 O   0  0  0  0  0  0  0  0  0  0  0  0
   19.4503   -5.1557  -13.3735 O   0  0  0  0  0  0  0  0  0  0  0  0
  2  1  1  6
  2  9  1  0
  3  4  1  0
  3  2  1  0
  4  8  1  0
  5  6  1  0
  5  4  2  0
  6  7  1  0
  7  8  2  0
  9 15  1  0
  9 10  2  0
 12 11  1  6
 12 14  1  0
 13 12  1  0
 14 16  1  0
 14 15  1  1
 16 17  2  0
 16 18  1  0
 18 19  1  0
 19 23  1  0
 19 20  1  6
 20 21  1  0
 21 25  1  0
 21 22  2  0
 23 26  1  0
 24 23  2  0
M  END
$$$$
