HTD.pdb
     RDKit          3D

 26 26  0  0  1  0  0  0  0  0999 V2000
   18.8616  -13.2156  -17.9795 N   0  0  0  0  0  0  0  0  0  0  0  0
   18.4423  -12.2051  -17.0266 C   0  0  1  0  0  0  0  0  0  0  0  0
   18.7313  -12.7404  -15.6451 C   0  0  0  0  0  0  0  0  0  0  0  0
   17.8508  -13.8737  -15.3007 C   0  0  0  0  0  0  0  0  0  0  0  0
   16.4900  -13.8321  -15.1518 C   0  0  0  0  0  0  0  0  0  0  0  0
   16.0824  -15.0943  -14.8372 N   0  0  0  0  0  0  0  0  0  0  0  0
   17.1603  -15.8840  -14.7947 C   0  0  0  0  0  0  0  0  0  0  0  0
   18.2555  -15.1347  -15.0805 N   0  0  0  0  0  0  0  0  0  0  0  0
   19.3229  -10.9962  -17.2346 C   0  0  0  0  0  0  0  0  0  0  0  0
   20.5828  -11.1616  -17.2080 O   0  0  0  0  0  0  0  0  0  0  0  0
   19.3314   -8.6020  -20.1837 C   0  0  0  0  0  0  0  0  0  0  0  0
   19.0971   -7.8282  -18.9113 C   0  0  1  0  0  0  0  0  0  0  0  0
   17.8012   -7.3957  -18.7526 O   0  0  0  0  0  0  0  0  0  0  0  0
   19.6154   -8.5966  -17.7040 C   0  0  2  0  0  0  0  0  0  0  0  0
   18.7549   -9.7118  -17.4536 N   0  0  0  0  0  0  0  0  0  0  0  0
   19.6838   -7.6311  -16.5858 C   0  0  0  0  0  0  0  0  0  0  0  0
   18.6696   -7.5501  -15.8423 O   0  0  0  0  0  0  0  0  0  0  0  0
   20.7755   -6.7986  -16.2790 N   0  0  0  0  0  0  0  0  0  0  0  0
   20.8340   -5.8478  -15.2203 C   0  0  1  0  0  0  0  0  0  0  0  0
   22.1130   -5.8915  -14.4136 C   0  0  0  0  0  0  0  0  0  0  0  0
   22.0611   -4.9402  -13.2643 C   0  0  0  0  0  0  0  0  0  0  0  0
   20.9864   -4.4102  -12.8806 O   0  0  0  0  0  0  0  0  0  0  0  0
   20.5452   -4.4670  -15.6264 C   0  0  0  0  0  0  0  0  0  0  0  0
   20.8928   -4.0973  -16.7807 O   0  0  0  0  0  0  0  0  0  0  0  0
   23.2042   -4.5751  -12.5374 O   0  0  0  0  0  0  0  0  0  0  0  0
   19.9100   -3.5490  -14.8049 O   0  0  0  0  0  0  0  0  0  0  0  0
  2  1  1  6
  2  9  1  0
  3  4  1  0
  3  2  1  0
  4  8  1  0
  5  6  1  0
  5  4  2  0
  6  7  1  0
  7  8  2  0
  9 15  1  0
  9 10  2  0
 12 11  1  6
 12 14  1  0
 13 12  1  0
 14 16  1  0
 14 15  1  1
 16 17  2  0
 16 18  1  0
 18 19  1  0
 19 23  1  0
 19 20  1  6
 20 21  1  0
 21 25  1  0
 21 22  2  0
 23 26  1  0
 24 23  2  0
M  END
$$$$
