HTD.pdb
     RDKit          3D

 26 26  0  0  1  0  0  0  0  0999 V2000
   22.6224  -11.9313  -18.7116 N   0  0  0  0  0  0  0  0  0  0  0  0
   23.1708  -10.6945  -18.1877 C   0  0  1  0  0  0  0  0  0  0  0  0
   23.7270   -9.9172  -19.3561 C   0  0  0  0  0  0  0  0  0  0  0  0
   24.8647  -10.6143  -19.9868 C   0  0  0  0  0  0  0  0  0  0  0  0
   24.8723  -11.2117  -21.2192 C   0  0  0  0  0  0  0  0  0  0  0  0
   26.1194  -11.7295  -21.4060 N   0  0  0  0  0  0  0  0  0  0  0  0
   26.8524  -11.4575  -20.3217 C   0  0  0  0  0  0  0  0  0  0  0  0
   26.0819  -10.7685  -19.4419 N   0  0  0  0  0  0  0  0  0  0  0  0
   22.0212   -9.8957  -17.6216 C   0  0  0  0  0  0  0  0  0  0  0  0
   20.9145   -9.9140  -18.2464 O   0  0  0  0  0  0  0  0  0  0  0  0
   20.5125  -10.3649  -14.2587 C   0  0  0  0  0  0  0  0  0  0  0  0
   20.9256   -8.9202  -14.3808 C   0  0  1  0  0  0  0  0  0  0  0  0
   22.0439   -8.5964  -13.6487 O   0  0  0  0  0  0  0  0  0  0  0  0
   21.0362   -8.5078  -15.8418 C   0  0  2  0  0  0  0  0  0  0  0  0
   22.1765   -9.1462  -16.4239 N   0  0  0  0  0  0  0  0  0  0  0  0
   21.1036   -7.0305  -15.8602 C   0  0  0  0  0  0  0  0  0  0  0  0
   22.1251   -6.5149  -16.3881 O   0  0  0  0  0  0  0  0  0  0  0  0
   20.1332   -6.1529  -15.3433 N   0  0  0  0  0  0  0  0  0  0  0  0
   19.7462   -4.9038  -15.9072 C   0  0  1  0  0  0  0  0  0  0  0  0
   19.4716   -4.9497  -17.3942 C   0  0  0  0  0  0  0  0  0  0  0  0
   19.1852   -3.5878  -17.9344 C   0  0  0  0  0  0  0  0  0  0  0  0
   18.0313   -3.0867  -17.9120 O   0  0  0  0  0  0  0  0  0  0  0  0
   18.6353   -4.2413  -15.2133 C   0  0  0  0  0  0  0  0  0  0  0  0
   18.7470   -3.0159  -14.9378 O   0  0  0  0  0  0  0  0  0  0  0  0
   20.1811   -2.7783  -18.5011 O   0  0  0  0  0  0  0  0  0  0  0  0
   17.4697   -4.8947  -14.8451 O   0  0  0  0  0  0  0  0  0  0  0  0
  2  1  1  6
  2  9  1  0
  3  4  1  0
  3  2  1  0
  4  8  1  0
  5  6  1  0
  5  4  2  0
  6  7  1  0
  7  8  2  0
  9 15  1  0
  9 10  2  0
 12 11  1  6
 12 14  1  0
 13 12  1  0
 14 16  1  0
 14 15  1  1
 16 17  2  0
 16 18  1  0
 18 19  1  0
 19 23  1  0
 19 20  1  6
 20 21  1  0
 21 25  1  0
 21 22  2  0
 23 26  1  0
 24 23  2  0
M  END
$$$$
