HTD.pdb
     RDKit          3D

 26 26  0  0  1  0  0  0  0  0999 V2000
   26.6101  -34.2070   -7.7888 N   0  0  0  0  0  0  0  0  0  0  0  0
   25.5009  -34.5865   -6.9342 C   0  0  1  0  0  0  0  0  0  0  0  0
   25.3743  -36.0892   -7.0002 C   0  0  0  0  0  0  0  0  0  0  0  0
   24.4062  -36.5135   -8.0302 C   0  0  0  0  0  0  0  0  0  0  0  0
   23.6020  -35.6954   -8.7785 C   0  0  0  0  0  0  0  0  0  0  0  0
   22.8712  -36.4976   -9.6035 N   0  0  0  0  0  0  0  0  0  0  0  0
   23.2172  -37.7671   -9.3675 C   0  0  0  0  0  0  0  0  0  0  0  0
   24.1653  -37.7824   -8.3964 N   0  0  0  0  0  0  0  0  0  0  0  0
   25.8803  -34.2282   -5.5173 C   0  0  0  0  0  0  0  0  0  0  0  0
   27.1151  -34.1971   -5.2178 O   0  0  0  0  0  0  0  0  0  0  0  0
   24.4733  -32.6582   -1.0540 C   0  0  0  0  0  0  0  0  0  0  0  0
   24.1206  -32.9478   -2.4908 C   0  0  1  0  0  0  0  0  0  0  0  0
   23.6473  -31.8555   -3.1796 O   0  0  0  0  0  0  0  0  0  0  0  0
   25.2719  -33.6425   -3.2040 C   0  0  2  0  0  0  0  0  0  0  0  0
   24.8818  -33.9346   -4.5492 N   0  0  0  0  0  0  0  0  0  0  0  0
   25.6033  -34.8412   -2.4038 C   0  0  0  0  0  0  0  0  0  0  0  0
   25.2338  -35.9534   -2.8668 O   0  0  0  0  0  0  0  0  0  0  0  0
   26.2917  -34.8509   -1.1769 N   0  0  0  0  0  0  0  0  0  0  0  0
   26.6853  -36.0073   -0.4449 C   0  0  1  0  0  0  0  0  0  0  0  0
   27.4433  -37.0322   -1.2593 C   0  0  0  0  0  0  0  0  0  0  0  0
   27.7260  -38.2595   -0.4578 C   0  0  0  0  0  0  0  0  0  0  0  0
   27.3855  -38.3654    0.7489 O   0  0  0  0  0  0  0  0  0  0  0  0
   27.4096  -35.7218    0.7997 C   0  0  0  0  0  0  0  0  0  0  0  0
   28.2357  -34.7692    0.8066 O   0  0  0  0  0  0  0  0  0  0  0  0
   28.3881  -39.3735   -0.9953 O   0  0  0  0  0  0  0  0  0  0  0  0
   27.2315  -36.4467    1.9675 O   0  0  0  0  0  0  0  0  0  0  0  0
  2  1  1  6
  2  9  1  0
  3  4  1  0
  3  2  1  0
  4  8  1  0
  5  6  1  0
  5  4  2  0
  6  7  1  0
  7  8  2  0
  9 15  1  0
  9 10  2  0
 12 11  1  1
 12 14  1  0
 13 12  1  0
 14 16  1  0
 14 15  1  6
 16 17  2  0
 16 18  1  0
 18 19  1  0
 19 23  1  0
 19 20  1  6
 20 21  1  0
 21 25  1  0
 21 22  2  0
 23 26  1  0
 24 23  2  0
M  END
$$$$
