HTD.pdb
     RDKit          3D

 26 26  0  0  1  0  0  0  0  0999 V2000
   18.6983  -14.3409  -18.4751 N   0  0  0  0  0  0  0  0  0  0  0  0
   18.3707  -13.5158  -17.3276 C   0  0  1  0  0  0  0  0  0  0  0  0
   19.1215  -14.0729  -16.1424 C   0  0  0  0  0  0  0  0  0  0  0  0
   18.6336  -15.4138  -15.7651 C   0  0  0  0  0  0  0  0  0  0  0  0
   17.4226  -15.7103  -15.1982 C   0  0  0  0  0  0  0  0  0  0  0  0
   17.3839  -17.0611  -15.0190 N   0  0  0  0  0  0  0  0  0  0  0  0
   18.5355  -17.5754  -15.4624 C   0  0  0  0  0  0  0  0  0  0  0  0
   19.3111  -16.5618  -15.9245 N   0  0  0  0  0  0  0  0  0  0  0  0
   18.9151  -12.1332  -17.5962 C   0  0  0  0  0  0  0  0  0  0  0  0
   20.0875  -12.0344  -18.0770 O   0  0  0  0  0  0  0  0  0  0  0  0
   17.5702   -9.6493  -19.9589 C   0  0  0  0  0  0  0  0  0  0  0  0
   17.6028   -9.0089  -18.5945 C   0  0  1  0  0  0  0  0  0  0  0  0
   16.3669   -8.8962  -18.0019 O   0  0  0  0  0  0  0  0  0  0  0  0
   18.6277   -9.6896  -17.6985 C   0  0  2  0  0  0  0  0  0  0  0  0
   18.1353  -10.9779  -17.3180 N   0  0  0  0  0  0  0  0  0  0  0  0
   18.8633   -8.7785  -16.5575 C   0  0  0  0  0  0  0  0  0  0  0  0
   18.0505   -8.8489  -15.5971 O   0  0  0  0  0  0  0  0  0  0  0  0
   19.9095   -7.8444  -16.4488 N   0  0  0  0  0  0  0  0  0  0  0  0
   20.1178   -6.9399  -15.3688 C   0  0  1  0  0  0  0  0  0  0  0  0
   21.5071   -6.9911  -14.7723 C   0  0  0  0  0  0  0  0  0  0  0  0
   21.7617   -8.3017  -14.1043 C   0  0  0  0  0  0  0  0  0  0  0  0
   20.9661   -8.7899  -13.2605 O   0  0  0  0  0  0  0  0  0  0  0  0
   19.7492   -5.5492  -15.6603 C   0  0  0  0  0  0  0  0  0  0  0  0
   19.7079   -4.7279  -14.7045 O   0  0  0  0  0  0  0  0  0  0  0  0
   22.9018   -9.0741  -14.3723 O   0  0  0  0  0  0  0  0  0  0  0  0
   19.4438   -5.0935  -16.9331 O   0  0  0  0  0  0  0  0  0  0  0  0
  2  1  1  6
  2  9  1  0
  3  4  1  0
  3  2  1  0
  4  8  1  0
  5  6  1  0
  5  4  2  0
  6  7  1  0
  7  8  2  0
  9 15  1  0
  9 10  2  0
 12 11  1  6
 12 14  1  0
 13 12  1  0
 14 16  1  0
 14 15  1  1
 16 17  2  0
 16 18  1  0
 18 19  1  0
 19 23  1  0
 19 20  1  6
 20 21  1  0
 21 25  1  0
 21 22  2  0
 23 26  1  0
 24 23  2  0
M  END
$$$$
