HTD.pdb
     RDKit          3D

 26 26  0  0  1  0  0  0  0  0999 V2000
   26.8378  -18.6553  -17.6446 N   0  0  0  0  0  0  0  0  0  0  0  0
   25.5199  -19.1291  -18.0234 C   0  0  1  0  0  0  0  0  0  0  0  0
   25.5959  -20.6326  -18.1347 C   0  0  0  0  0  0  0  0  0  0  0  0
   26.4974  -21.0571  -19.2235 C   0  0  0  0  0  0  0  0  0  0  0  0
   26.1804  -21.1540  -20.5524 C   0  0  0  0  0  0  0  0  0  0  0  0
   27.3013  -21.5780  -21.2020 N   0  0  0  0  0  0  0  0  0  0  0  0
   28.2742  -21.7358  -20.2988 C   0  0  0  0  0  0  0  0  0  0  0  0
   27.7827  -21.4151  -19.0748 N   0  0  0  0  0  0  0  0  0  0  0  0
   24.5811  -18.8087  -16.8849 C   0  0  0  0  0  0  0  0  0  0  0  0
   25.0188  -18.9247  -15.6973 O   0  0  0  0  0  0  0  0  0  0  0  0
   23.2346  -15.7548  -15.6222 C   0  0  0  0  0  0  0  0  0  0  0  0
   22.0610  -16.5813  -16.0831 C   0  0  1  0  0  0  0  0  0  0  0  0
   21.5418  -16.1859  -17.2937 O   0  0  0  0  0  0  0  0  0  0  0  0
   22.3908  -18.0666  -16.0386 C   0  0  2  0  0  0  0  0  0  0  0  0
   23.2468  -18.3896  -17.1385 N   0  0  0  0  0  0  0  0  0  0  0  0
   21.0994  -18.7871  -16.0541 C   0  0  0  0  0  0  0  0  0  0  0  0
   20.7365  -19.2790  -17.1561 O   0  0  0  0  0  0  0  0  0  0  0  0
   20.2435  -18.9720  -14.9531 N   0  0  0  0  0  0  0  0  0  0  0  0
   18.9107  -19.4716  -15.0011 C   0  0  1  0  0  0  0  0  0  0  0  0
   18.2948  -19.7348  -13.6447 C   0  0  0  0  0  0  0  0  0  0  0  0
   16.8841  -20.2064  -13.7728 C   0  0  0  0  0  0  0  0  0  0  0  0
   16.5920  -21.3132  -14.2951 O   0  0  0  0  0  0  0  0  0  0  0  0
   17.9915  -18.6742  -15.8221 C   0  0  0  0  0  0  0  0  0  0  0  0
   17.2511  -19.2751  -16.6472 O   0  0  0  0  0  0  0  0  0  0  0  0
   15.7934  -19.4489  -13.3203 O   0  0  0  0  0  0  0  0  0  0  0  0
   17.8964  -17.2942  -15.7364 O   0  0  0  0  0  0  0  0  0  0  0  0
  2  1  1  1
  2  9  1  0
  3  4  1  0
  3  2  1  0
  4  8  1  0
  5  6  1  0
  5  4  2  0
  6  7  1  0
  7  8  2  0
  9 15  1  0
  9 10  2  0
 12 11  1  6
 12 14  1  0
 13 12  1  0
 14 16  1  0
 14 15  1  6
 16 17  2  0
 16 18  1  0
 18 19  1  0
 19 23  1  0
 19 20  1  1
 20 21  1  0
 21 25  1  0
 21 22  2  0
 23 26  1  0
 24 23  2  0
M  END
$$$$
