HTD.pdb
     RDKit          3D

 26 26  0  0  1  0  0  0  0  0999 V2000
   18.9791  -13.2165  -16.4893 N   0  0  0  0  0  0  0  0  0  0  0  0
   19.3050  -11.9566  -17.1306 C   0  0  1  0  0  0  0  0  0  0  0  0
   18.0054  -11.3191  -17.5589 C   0  0  0  0  0  0  0  0  0  0  0  0
   17.3501  -12.0820  -18.6391 C   0  0  0  0  0  0  0  0  0  0  0  0
   17.3607  -11.7765  -19.9742 C   0  0  0  0  0  0  0  0  0  0  0  0
   16.6387  -12.7412  -20.6117 N   0  0  0  0  0  0  0  0  0  0  0  0
   16.1999  -13.6101  -19.6954 C   0  0  0  0  0  0  0  0  0  0  0  0
   16.6368  -13.2074  -18.4750 N   0  0  0  0  0  0  0  0  0  0  0  0
   19.9208  -11.0625  -16.0810 C   0  0  0  0  0  0  0  0  0  0  0  0
   19.4380  -11.0983  -14.9059 O   0  0  0  0  0  0  0  0  0  0  0  0
   23.4624  -10.9706  -14.8899 C   0  0  0  0  0  0  0  0  0  0  0  0
   23.0993   -9.5921  -15.3804 C   0  0  1  0  0  0  0  0  0  0  0  0
   23.6799   -9.2567  -16.5811 O   0  0  0  0  0  0  0  0  0  0  0  0
   21.5901   -9.3940  -15.3783 C   0  0  2  0  0  0  0  0  0  0  0  0
   21.0094  -10.2069  -16.4024 N   0  0  0  0  0  0  0  0  0  0  0  0
   21.3536   -7.9453  -15.5586 C   0  0  0  0  0  0  0  0  0  0  0  0
   20.7607   -7.5934  -16.6134 O   0  0  0  0  0  0  0  0  0  0  0  0
   21.7295   -6.9291  -14.6614 N   0  0  0  0  0  0  0  0  0  0  0  0
   21.4584   -5.5386  -14.8072 C   0  0  1  0  0  0  0  0  0  0  0  0
   20.0236   -5.2175  -15.1628 C   0  0  0  0  0  0  0  0  0  0  0  0
   19.8394   -3.7557  -15.4034 C   0  0  0  0  0  0  0  0  0  0  0  0
   20.7378   -3.0430  -15.9212 O   0  0  0  0  0  0  0  0  0  0  0  0
   21.8900   -4.7126  -13.6730 C   0  0  0  0  0  0  0  0  0  0  0  0
   21.9020   -3.4598  -13.8151 O   0  0  0  0  0  0  0  0  0  0  0  0
   18.6554   -3.0813  -15.0693 O   0  0  0  0  0  0  0  0  0  0  0  0
   22.2852   -5.2403  -12.4538 O   0  0  0  0  0  0  0  0  0  0  0  0
  2  1  1  1
  2  9  1  0
  3  4  1  0
  3  2  1  0
  4  8  1  0
  5  6  1  0
  5  4  2  0
  6  7  1  0
  7  8  2  0
  9 15  1  0
  9 10  2  0
 12 11  1  6
 12 14  1  0
 13 12  1  0
 14 16  1  0
 14 15  1  6
 16 17  2  0
 16 18  1  0
 18 19  1  0
 19 23  1  0
 19 20  1  1
 20 21  1  0
 21 25  1  0
 21 22  2  0
 23 26  1  0
 24 23  2  0
M  END
$$$$
