HTD.pdb
     RDKit          3D

 26 26  0  0  1  0  0  0  0  0999 V2000
   41.4262  -11.0409   -8.8682 N   0  0  0  0  0  0  0  0  0  0  0  0
   40.1625  -10.5104   -9.3442 C   0  0  1  0  0  0  0  0  0  0  0  0
   39.5796   -9.6697   -8.2341 C   0  0  0  0  0  0  0  0  0  0  0  0
   39.0112  -10.5023   -7.1562 C   0  0  0  0  0  0  0  0  0  0  0  0
   39.4155  -10.5287   -5.8479 C   0  0  0  0  0  0  0  0  0  0  0  0
   38.6234  -11.4305   -5.2017 N   0  0  0  0  0  0  0  0  0  0  0  0
   37.7610  -11.9402   -6.0869 C   0  0  0  0  0  0  0  0  0  0  0  0
   37.9963  -11.3700   -7.2959 N   0  0  0  0  0  0  0  0  0  0  0  0
   40.4678   -9.5847  -10.4974 C   0  0  0  0  0  0  0  0  0  0  0  0
   41.6473   -9.1220  -10.5976 O   0  0  0  0  0  0  0  0  0  0  0  0
   39.7498   -9.9842  -14.2733 C   0  0  0  0  0  0  0  0  0  0  0  0
   39.1105   -8.7177  -13.7635 C   0  0  1  0  0  0  0  0  0  0  0  0
   37.7380   -8.7744  -13.6954 O   0  0  0  0  0  0  0  0  0  0  0  0
   39.7490   -8.2747  -12.4548 C   0  0  2  0  0  0  0  0  0  0  0  0
   39.4618   -9.2433  -11.4417 N   0  0  0  0  0  0  0  0  0  0  0  0
   39.2180   -6.9261  -12.1604 C   0  0  0  0  0  0  0  0  0  0  0  0
   38.3721   -6.8391  -11.2305 O   0  0  0  0  0  0  0  0  0  0  0  0
   39.5716   -5.7365  -12.8229 N   0  0  0  0  0  0  0  0  0  0  0  0
   39.0367   -4.4420  -12.5654 C   0  0  1  0  0  0  0  0  0  0  0  0
   39.7849   -3.3133  -13.2397 C   0  0  0  0  0  0  0  0  0  0  0  0
   39.2257   -1.9847  -12.8514 C   0  0  0  0  0  0  0  0  0  0  0  0
   38.9670   -1.6896  -11.6559 O   0  0  0  0  0  0  0  0  0  0  0  0
   37.5978   -4.3153  -12.8270 C   0  0  0  0  0  0  0  0  0  0  0  0
   37.1043   -4.9669  -13.7871 O   0  0  0  0  0  0  0  0  0  0  0  0
   38.9524   -0.9795  -13.7911 O   0  0  0  0  0  0  0  0  0  0  0  0
   36.7544   -3.5155  -12.0721 O   0  0  0  0  0  0  0  0  0  0  0  0
  2  1  1  1
  2  9  1  0
  3  4  1  0
  3  2  1  0
  4  8  1  0
  5  6  1  0
  5  4  2  0
  6  7  1  0
  7  8  2  0
  9 15  1  0
  9 10  2  0
 12 11  1  1
 12 14  1  0
 13 12  1  0
 14 16  1  0
 14 15  1  1
 16 17  2  0
 16 18  1  0
 18 19  1  0
 19 23  1  0
 19 20  1  6
 20 21  1  0
 21 25  1  0
 21 22  2  0
 23 26  1  0
 24 23  2  0
M  END
$$$$
