HTD.pdb
     RDKit          3D

 26 26  0  0  1  0  0  0  0  0999 V2000
   44.4655  -10.5963   -7.9840 N   0  0  0  0  0  0  0  0  0  0  0  0
   43.2912   -9.9425   -7.4378 C   0  0  1  0  0  0  0  0  0  0  0  0
   43.7570   -8.6858   -6.7430 C   0  0  0  0  0  0  0  0  0  0  0  0
   44.3083   -8.9716   -5.4041 C   0  0  0  0  0  0  0  0  0  0  0  0
   44.3759  -10.1966   -4.7953 C   0  0  0  0  0  0  0  0  0  0  0  0
   44.9556  -10.0070   -3.5762 N   0  0  0  0  0  0  0  0  0  0  0  0
   45.2342   -8.7063   -3.4429 C   0  0  0  0  0  0  0  0  0  0  0  0
   44.8363   -8.0622   -4.5695 N   0  0  0  0  0  0  0  0  0  0  0  0
   42.4279   -9.5197   -8.6022 C   0  0  0  0  0  0  0  0  0  0  0  0
   42.9790   -9.3903   -9.7402 O   0  0  0  0  0  0  0  0  0  0  0  0
   39.5271  -11.1692  -10.1695 C   0  0  0  0  0  0  0  0  0  0  0  0
   39.0700   -9.8110   -9.7013 C   0  0  1  0  0  0  0  0  0  0  0  0
   38.2657   -9.8473   -8.5863 O   0  0  0  0  0  0  0  0  0  0  0  0
   40.2508   -8.8630   -9.5473 C   0  0  2  0  0  0  0  0  0  0  0  0
   41.0389   -9.2744   -8.4264 N   0  0  0  0  0  0  0  0  0  0  0  0
   39.6862   -7.5025   -9.4143 C   0  0  0  0  0  0  0  0  0  0  0  0
   39.6980   -6.9927   -8.2619 O   0  0  0  0  0  0  0  0  0  0  0  0
   39.1395   -6.7298  -10.4549 N   0  0  0  0  0  0  0  0  0  0  0  0
   38.5645   -5.4335  -10.3244 C   0  0  1  0  0  0  0  0  0  0  0  0
   39.4340   -4.4373   -9.5896 C   0  0  0  0  0  0  0  0  0  0  0  0
   38.7558   -3.1130   -9.4675 C   0  0  0  0  0  0  0  0  0  0  0  0
   37.5593   -3.0044   -9.0937 O   0  0  0  0  0  0  0  0  0  0  0  0
   38.0892   -4.8493  -11.5845 C   0  0  0  0  0  0  0  0  0  0  0  0
   38.4479   -5.3876  -12.6668 O   0  0  0  0  0  0  0  0  0  0  0  0
   39.4058   -1.9047   -9.7604 O   0  0  0  0  0  0  0  0  0  0  0  0
   37.2663   -3.7356  -11.6446 O   0  0  0  0  0  0  0  0  0  0  0  0
  2  1  1  6
  2  9  1  0
  3  4  1  0
  3  2  1  0
  4  8  1  0
  5  6  1  0
  5  4  2  0
  6  7  1  0
  7  8  2  0
  9 15  1  0
  9 10  2  0
 12 11  1  1
 12 14  1  0
 13 12  1  0
 14 16  1  0
 14 15  1  1
 16 17  2  0
 16 18  1  0
 18 19  1  0
 19 23  1  0
 19 20  1  6
 20 21  1  0
 21 25  1  0
 21 22  2  0
 23 26  1  0
 24 23  2  0
M  END
$$$$
