HTD.pdb
     RDKit          3D

 26 26  0  0  1  0  0  0  0  0999 V2000
   21.4070  -16.1363  -16.7566 N   0  0  0  0  0  0  0  0  0  0  0  0
   20.4940  -15.0621  -17.0990 C   0  0  1  0  0  0  0  0  0  0  0  0
   19.2979  -15.1785  -16.1854 C   0  0  0  0  0  0  0  0  0  0  0  0
   18.5439  -16.4244  -16.4252 C   0  0  0  0  0  0  0  0  0  0  0  0
   17.8023  -16.7268  -17.5363 C   0  0  0  0  0  0  0  0  0  0  0  0
   17.2811  -17.9716  -17.3437 N   0  0  0  0  0  0  0  0  0  0  0  0
   17.6909  -18.4173  -16.1518 C   0  0  0  0  0  0  0  0  0  0  0  0
   18.4715  -17.4652  -15.5803 N   0  0  0  0  0  0  0  0  0  0  0  0
   21.1860  -13.7606  -16.7713 C   0  0  0  0  0  0  0  0  0  0  0  0
   21.7761  -13.6621  -15.6499 O   0  0  0  0  0  0  0  0  0  0  0  0
   23.5452  -11.8807  -19.1973 C   0  0  0  0  0  0  0  0  0  0  0  0
   22.5191  -10.9243  -18.6450 C   0  0  1  0  0  0  0  0  0  0  0  0
   21.5883  -10.5106  -19.5691 O   0  0  0  0  0  0  0  0  0  0  0  0
   21.8861  -11.4786  -17.3765 C   0  0  2  0  0  0  0  0  0  0  0  0
   21.1753  -12.6790  -17.6935 N   0  0  0  0  0  0  0  0  0  0  0  0
   21.0309  -10.4046  -16.8267 C   0  0  0  0  0  0  0  0  0  0  0  0
   19.7978  -10.6492  -16.7388 O   0  0  0  0  0  0  0  0  0  0  0  0
   21.4690   -9.1396  -16.3944 N   0  0  0  0  0  0  0  0  0  0  0  0
   20.6601   -8.1295  -15.7998 C   0  0  1  0  0  0  0  0  0  0  0  0
   19.9208   -8.5745  -14.5573 C   0  0  0  0  0  0  0  0  0  0  0  0
   19.1231   -7.4566  -13.9722 C   0  0  0  0  0  0  0  0  0  0  0  0
   19.6634   -6.4786  -13.3937 O   0  0  0  0  0  0  0  0  0  0  0  0
   21.3590   -6.8649  -15.5406 C   0  0  0  0  0  0  0  0  0  0  0  0
   22.6019   -6.8998  -15.3314 O   0  0  0  0  0  0  0  0  0  0  0  0
   17.7217   -7.4221  -14.0285 O   0  0  0  0  0  0  0  0  0  0  0  0
   20.7215   -5.6345  -15.5136 O   0  0  0  0  0  0  0  0  0  0  0  0
  2  1  1  1
  2  9  1  0
  3  4  1  0
  3  2  1  0
  4  8  1  0
  5  6  1  0
  5  4  2  0
  6  7  1  0
  7  8  2  0
  9 15  1  0
  9 10  2  0
 12 11  1  6
 12 14  1  0
 13 12  1  0
 14 16  1  0
 14 15  1  6
 16 17  2  0
 16 18  1  0
 18 19  1  0
 19 23  1  0
 19 20  1  1
 20 21  1  0
 21 25  1  0
 21 22  2  0
 23 26  1  0
 24 23  2  0
M  END
$$$$
