HTD.pdb
     RDKit          3D

 26 26  0  0  1  0  0  0  0  0999 V2000
   26.1266  -15.7869  -18.2319 N   0  0  0  0  0  0  0  0  0  0  0  0
   25.2489  -14.7570  -18.7551 C   0  0  1  0  0  0  0  0  0  0  0  0
   23.9550  -15.4259  -19.1516 C   0  0  0  0  0  0  0  0  0  0  0  0
   24.1344  -16.3252  -20.3081 C   0  0  0  0  0  0  0  0  0  0  0  0
   23.7630  -17.6414  -20.3818 C   0  0  0  0  0  0  0  0  0  0  0  0
   24.1106  -18.0870  -21.6224 N   0  0  0  0  0  0  0  0  0  0  0  0
   24.6771  -17.0750  -22.2872 C   0  0  0  0  0  0  0  0  0  0  0  0
   24.6942  -15.9842  -21.4797 N   0  0  0  0  0  0  0  0  0  0  0  0
   24.9374  -13.8108  -17.6204 C   0  0  0  0  0  0  0  0  0  0  0  0
   24.5189  -14.3047  -16.5267 O   0  0  0  0  0  0  0  0  0  0  0  0
   26.9982  -12.1134  -15.5141 C   0  0  0  0  0  0  0  0  0  0  0  0
   26.1826  -11.0096  -16.1378 C   0  0  1  0  0  0  0  0  0  0  0  0
   26.8687  -10.2692  -17.0719 O   0  0  0  0  0  0  0  0  0  0  0  0
   24.8577  -11.5429  -16.6639 C   0  0  2  0  0  0  0  0  0  0  0  0
   25.1089  -12.4083  -17.7751 N   0  0  0  0  0  0  0  0  0  0  0  0
   24.0304  -10.3637  -16.9992 C   0  0  0  0  0  0  0  0  0  0  0  0
   24.1870   -9.8678  -18.1470 O   0  0  0  0  0  0  0  0  0  0  0  0
   23.0880   -9.7489  -16.1549 N   0  0  0  0  0  0  0  0  0  0  0  0
   22.2296   -8.6672  -16.5029 C   0  0  1  0  0  0  0  0  0  0  0  0
   21.0367   -8.4992  -15.5880 C   0  0  0  0  0  0  0  0  0  0  0  0
   21.4541   -8.4620  -14.1551 C   0  0  0  0  0  0  0  0  0  0  0  0
   22.4252   -9.1348  -13.7220 O   0  0  0  0  0  0  0  0  0  0  0  0
   22.9131   -7.3796  -16.6758 C   0  0  0  0  0  0  0  0  0  0  0  0
   24.1096   -7.2806  -16.2907 O   0  0  0  0  0  0  0  0  0  0  0  0
   20.7935   -7.6762  -13.1989 O   0  0  0  0  0  0  0  0  0  0  0  0
   22.3095   -6.2672  -17.2407 O   0  0  0  0  0  0  0  0  0  0  0  0
  2  1  1  1
  2  9  1  0
  3  4  1  0
  3  2  1  0
  4  8  1  0
  5  6  1  0
  5  4  2  0
  6  7  1  0
  7  8  2  0
  9 15  1  0
  9 10  2  0
 12 11  1  6
 12 14  1  0
 13 12  1  0
 14 16  1  0
 14 15  1  6
 16 17  2  0
 16 18  1  0
 18 19  1  0
 19 23  1  0
 19 20  1  1
 20 21  1  0
 21 25  1  0
 21 22  2  0
 23 26  1  0
 24 23  2  0
M  END
$$$$
