NQE.pdb
     RDKit          3D

 27 26  0  0  1  0  0  0  0  0999 V2000
   24.0811  -13.5256  -18.7517 N   0  0  0  0  0  0  0  0  0  0  0  0
   22.9128  -13.5337  -19.5827 C   0  0  0  0  0  0  0  0  0  0  0  0
   22.9422  -14.2065  -20.6366 O   0  0  0  0  0  0  0  0  0  0  0  0
   21.7061  -12.7847  -19.2314 C   0  0  0  0  0  0  0  0  0  0  0  0
   21.8860  -12.0566  -17.9440 C   0  0  2  0  0  0  0  0  0  0  0  0
   21.9617  -12.9368  -16.8205 N   0  0  0  0  0  0  0  0  0  0  0  0
   20.8361  -11.0148  -17.7234 C   0  0  0  0  0  0  0  0  0  0  0  0
   20.7722   -9.9812  -18.4168 O   0  0  0  0  0  0  0  0  0  0  0  0
   15.0082  -12.0256  -16.3042 N   0  0  0  0  0  0  0  0  0  0  0  0
   15.0037  -10.6641  -15.9422 C   0  0  0  0  0  0  0  0  0  0  0  0
   13.9978  -10.0051  -15.6507 O   0  0  0  0  0  0  0  0  0  0  0  0
   16.3434   -9.9782  -15.9152 C   0  0  0  0  0  0  0  0  0  0  0  0
   17.4374  -10.9652  -16.2395 C   0  0  0  0  0  0  0  0  0  0  0  0
   18.8126  -10.3445  -16.3096 C   0  0  2  0  0  0  0  0  0  0  0  0
   19.8804  -11.2003  -16.6964 N   0  0  0  0  0  0  0  0  0  0  0  0
   19.1171   -9.3734  -15.2529 C   0  0  0  0  0  0  0  0  0  0  0  0
   19.8276   -9.7129  -14.2324 O   0  0  0  0  0  0  0  0  0  0  0  0
   18.6768   -8.0318  -15.2591 N   0  0  0  0  0  0  0  0  0  0  0  0
   19.2468   -6.9942  -14.3570 C   0  0  1  0  0  0  0  0  0  0  0  0
   20.7122   -7.0471  -14.3923 C   0  0  0  0  0  0  0  0  0  0  0  0
   21.4684   -6.0727  -13.5734 C   0  0  0  0  0  0  0  0  0  0  0  0
   22.3054   -5.0981  -14.2682 C   0  0  0  0  0  0  0  0  0  0  0  0
   22.8553   -5.3314  -15.3939 O   0  0  0  0  0  0  0  0  0  0  0  0
   18.6250   -5.7072  -14.5912 C   0  0  0  0  0  0  0  0  0  0  0  0
   18.1626   -5.4718  -15.7680 O   0  0  0  0  0  0  0  0  0  0  0  0
   22.5486   -3.8229  -13.7222 O   0  0  0  0  0  0  0  0  0  0  0  0
   18.4429   -4.6663  -13.7033 O   0  0  0  0  0  0  0  0  0  0  0  0
  2  3  2  0
  2  1  1  0
  4  5  1  0
  4  2  1  0
  5  7  1  0
  5  6  1  1
  7  8  2  0
 10  9  1  0
 10 12  1  0
 11 10  2  0
 13 12  1  0
 14 13  1  1
 15  7  1  0
 15 14  1  0
 16 14  1  0
 16 17  2  0
 18 16  1  0
 19 18  1  0
 19 24  1  0
 19 20  1  6
 21 22  1  0
 21 20  1  0
 22 23  2  0
 24 27  1  0
 25 24  2  0
 26 22  1  0
M  END
$$$$
