NQE.pdb
     RDKit          3D

 27 26  0  0  1  0  0  0  0  0999 V2000
   15.3422  -15.1290  -15.5133 N   0  0  0  0  0  0  0  0  0  0  0  0
   16.5622  -14.7887  -14.8416 C   0  0  0  0  0  0  0  0  0  0  0  0
   16.9119  -15.4849  -13.8631 O   0  0  0  0  0  0  0  0  0  0  0  0
   17.3944  -13.6634  -15.2680 C   0  0  0  0  0  0  0  0  0  0  0  0
   16.7783  -12.9518  -16.4229 C   0  0  2  0  0  0  0  0  0  0  0  0
   16.8435  -13.7089  -17.6334 N   0  0  0  0  0  0  0  0  0  0  0  0
   17.3530  -11.5866  -16.6275 C   0  0  0  0  0  0  0  0  0  0  0  0
   18.2809  -11.3719  -17.4314 O   0  0  0  0  0  0  0  0  0  0  0  0
   15.6511   -4.3822  -15.7812 N   0  0  0  0  0  0  0  0  0  0  0  0
   15.4090   -5.7513  -15.5534 C   0  0  0  0  0  0  0  0  0  0  0  0
   14.3399   -6.2321  -15.1575 O   0  0  0  0  0  0  0  0  0  0  0  0
   16.5599   -6.6840  -15.8206 C   0  0  0  0  0  0  0  0  0  0  0  0
   16.1031   -8.1172  -15.7041 C   0  0  0  0  0  0  0  0  0  0  0  0
   17.2011   -9.1252  -15.9482 C   0  0  2  0  0  0  0  0  0  0  0  0
   16.8328  -10.4975  -15.8888 N   0  0  0  0  0  0  0  0  0  0  0  0
   18.5058   -8.7838  -15.3706 C   0  0  0  0  0  0  0  0  0  0  0  0
   18.7551   -9.0138  -14.1270 O   0  0  0  0  0  0  0  0  0  0  0  0
   19.5644   -8.1961  -16.0970 N   0  0  0  0  0  0  0  0  0  0  0  0
   20.8409   -7.7743  -15.4586 C   0  0  1  0  0  0  0  0  0  0  0  0
   21.9722   -8.0979  -16.3344 C   0  0  0  0  0  0  0  0  0  0  0  0
   22.3120   -9.5239  -16.5420 C   0  0  0  0  0  0  0  0  0  0  0  0
   23.3740   -9.8433  -17.4925 C   0  0  0  0  0  0  0  0  0  0  0  0
   23.9942   -8.9564  -18.1654 O   0  0  0  0  0  0  0  0  0  0  0  0
   20.7501   -6.4138  -14.9699 C   0  0  0  0  0  0  0  0  0  0  0  0
   21.7763   -5.9248  -14.3684 O   0  0  0  0  0  0  0  0  0  0  0  0
   23.7796  -11.1734  -17.7150 O   0  0  0  0  0  0  0  0  0  0  0  0
   19.6906   -5.5345  -15.0672 O   0  0  0  0  0  0  0  0  0  0  0  0
  2  3  2  0
  2  1  1  0
  4  5  1  0
  4  2  1  0
  5  7  1  0
  5  6  1  6
  7  8  2  0
 10  9  1  0
 10 12  1  0
 11 10  2  0
 13 12  1  0
 14 13  1  1
 15  7  1  0
 15 14  1  0
 16 14  1  0
 16 17  2  0
 18 16  1  0
 19 18  1  0
 19 24  1  0
 19 20  1  6
 21 22  1  0
 21 20  1  0
 22 23  2  0
 24 27  1  0
 25 24  2  0
 26 22  1  0
M  END
$$$$
