NQE.pdb
     RDKit          3D

 27 26  0  0  1  0  0  0  0  0999 V2000
   17.6048   -9.7446  -12.5055 N   0  0  0  0  0  0  0  0  0  0  0  0
   18.5013   -8.6382  -12.3396 C   0  0  0  0  0  0  0  0  0  0  0  0
   18.5169   -8.0509  -11.2355 O   0  0  0  0  0  0  0  0  0  0  0  0
   19.3845   -8.1877  -13.4156 C   0  0  0  0  0  0  0  0  0  0  0  0
   19.0396   -8.8536  -14.7030 C   0  0  2  0  0  0  0  0  0  0  0  0
   19.1361  -10.2777  -14.6285 N   0  0  0  0  0  0  0  0  0  0  0  0
   19.8446   -8.3335  -15.8508 C   0  0  0  0  0  0  0  0  0  0  0  0
   20.9922   -8.7516  -16.0987 O   0  0  0  0  0  0  0  0  0  0  0  0
   19.8245   -9.7962  -20.5249 N   0  0  0  0  0  0  0  0  0  0  0  0
   18.5142   -9.4287  -20.1604 C   0  0  0  0  0  0  0  0  0  0  0  0
   17.4867  -10.0444  -20.4703 O   0  0  0  0  0  0  0  0  0  0  0  0
   18.3801   -8.1826  -19.3266 C   0  0  0  0  0  0  0  0  0  0  0  0
   19.7309   -7.5380  -19.1372 C   0  0  0  0  0  0  0  0  0  0  0  0
   19.8505   -6.7461  -17.8565 C   0  0  2  0  0  0  0  0  0  0  0  0
   19.2935   -7.3344  -16.6878 N   0  0  0  0  0  0  0  0  0  0  0  0
   19.6696   -5.2969  -17.9960 C   0  0  0  0  0  0  0  0  0  0  0  0
   18.7311   -4.6866  -17.3568 O   0  0  0  0  0  0  0  0  0  0  0  0
   20.4762   -4.4727  -18.8106 N   0  0  0  0  0  0  0  0  0  0  0  0
   20.3224   -2.9931  -18.8598 C   0  0  1  0  0  0  0  0  0  0  0  0
   20.3425   -2.4400  -17.5015 C   0  0  0  0  0  0  0  0  0  0  0  0
   20.2728   -0.9696  -17.3426 C   0  0  0  0  0  0  0  0  0  0  0  0
   20.3111   -0.4248  -15.9881 C   0  0  0  0  0  0  0  0  0  0  0  0
   20.2523    0.8237  -15.7393 O   0  0  0  0  0  0  0  0  0  0  0  0
   21.2313   -2.4105  -19.8254 C   0  0  0  0  0  0  0  0  0  0  0  0
   20.9721   -1.2248  -20.2509 O   0  0  0  0  0  0  0  0  0  0  0  0
   20.4114   -1.2675  -14.8642 O   0  0  0  0  0  0  0  0  0  0  0  0
   22.3775   -2.9575  -20.3660 O   0  0  0  0  0  0  0  0  0  0  0  0
  2  3  2  0
  2  1  1  0
  4  5  1  0
  4  2  1  0
  5  7  1  0
  5  6  1  1
  7  8  2  0
 10  9  1  0
 10 12  1  0
 11 10  2  0
 13 12  1  0
 14 13  1  6
 15  7  1  0
 15 14  1  0
 16 14  1  0
 16 17  2  0
 18 16  1  0
 19 18  1  0
 19 24  1  0
 19 20  1  1
 21 22  1  0
 21 20  1  0
 22 23  2  0
 24 27  1  0
 25 24  2  0
 26 22  1  0
M  END
$$$$
