NQE.pdb
     RDKit          3D

 27 26  0  0  1  0  0  0  0  0999 V2000
   14.6558  -12.8575  -10.4296 N   0  0  0  0  0  0  0  0  0  0  0  0
   15.5996  -12.4027  -11.4083 C   0  0  0  0  0  0  0  0  0  0  0  0
   16.2360  -13.2607  -12.0587 O   0  0  0  0  0  0  0  0  0  0  0  0
   15.8314  -10.9800  -11.6595 C   0  0  0  0  0  0  0  0  0  0  0  0
   14.9801  -10.1364  -10.7746 C   0  0  2  0  0  0  0  0  0  0  0  0
   13.5833  -10.3408  -10.9978 N   0  0  0  0  0  0  0  0  0  0  0  0
   15.3185   -8.6829  -10.8701 C   0  0  0  0  0  0  0  0  0  0  0  0
   14.8561   -7.9525  -11.7678 O   0  0  0  0  0  0  0  0  0  0  0  0
   12.9048   -4.6686   -7.4098 N   0  0  0  0  0  0  0  0  0  0  0  0
   14.2899   -4.8644   -7.5767 C   0  0  0  0  0  0  0  0  0  0  0  0
   15.1721   -4.3847   -6.8538 O   0  0  0  0  0  0  0  0  0  0  0  0
   14.7046   -5.7313   -8.7354 C   0  0  0  0  0  0  0  0  0  0  0  0
   16.2031   -5.9066   -8.7412 C   0  0  0  0  0  0  0  0  0  0  0  0
   16.7063   -6.7856   -9.8616 C   0  0  2  0  0  0  0  0  0  0  0  0
   16.1911   -8.1100   -9.9147 N   0  0  0  0  0  0  0  0  0  0  0  0
   18.1293   -6.6355  -10.1858 C   0  0  0  0  0  0  0  0  0  0  0  0
   19.0074   -7.4295   -9.6758 O   0  0  0  0  0  0  0  0  0  0  0  0
   18.6443   -5.6468  -11.0524 N   0  0  0  0  0  0  0  0  0  0  0  0
   19.9644   -5.7774  -11.7272 C   0  0  1  0  0  0  0  0  0  0  0  0
   20.0397   -7.0562  -12.4416 C   0  0  0  0  0  0  0  0  0  0  0  0
   21.2341   -7.3244  -13.2742 C   0  0  0  0  0  0  0  0  0  0  0  0
   21.3107   -8.6070  -13.9687 C   0  0  0  0  0  0  0  0  0  0  0  0
   22.2418   -8.8989  -14.7885 O   0  0  0  0  0  0  0  0  0  0  0  0
   20.2824   -4.5801  -12.4777 C   0  0  0  0  0  0  0  0  0  0  0  0
   19.3154   -3.9676  -13.0640 O   0  0  0  0  0  0  0  0  0  0  0  0
   20.3439   -9.6096  -13.7603 O   0  0  0  0  0  0  0  0  0  0  0  0
   21.5113   -3.9766  -12.6532 O   0  0  0  0  0  0  0  0  0  0  0  0
  2  3  2  0
  2  1  1  0
  4  5  1  0
  4  2  1  0
  5  7  1  0
  5  6  1  6
  7  8  2  0
 10  9  1  0
 10 12  1  0
 11 10  2  0
 13 12  1  0
 14 13  1  1
 15  7  1  0
 15 14  1  0
 16 14  1  0
 16 17  2  0
 18 16  1  0
 19 18  1  0
 19 24  1  0
 19 20  1  6
 21 22  1  0
 21 20  1  0
 22 23  2  0
 24 27  1  0
 25 24  2  0
 26 22  1  0
M  END
$$$$
