NQE.pdb
     RDKit          3D

 27 26  0  0  1  0  0  0  0  0999 V2000
   26.8153  -22.2117  -10.1548 N   0  0  0  0  0  0  0  0  0  0  0  0
   26.3033  -20.8759  -10.2493 C   0  0  0  0  0  0  0  0  0  0  0  0
   26.2480  -20.1892   -9.2054 O   0  0  0  0  0  0  0  0  0  0  0  0
   25.8512  -20.3068  -11.5191 C   0  0  0  0  0  0  0  0  0  0  0  0
   26.0374  -21.2765  -12.6347 C   0  0  2  0  0  0  0  0  0  0  0  0
   27.3776  -21.2929  -13.1310 N   0  0  0  0  0  0  0  0  0  0  0  0
   25.0679  -21.0577  -13.7519 C   0  0  0  0  0  0  0  0  0  0  0  0
   25.2554  -20.1962  -14.6328 O   0  0  0  0  0  0  0  0  0  0  0  0
   23.2944  -26.4005  -14.3459 N   0  0  0  0  0  0  0  0  0  0  0  0
   22.9024  -25.4370  -15.2961 C   0  0  0  0  0  0  0  0  0  0  0  0
   21.9598  -25.5566  -16.0886 O   0  0  0  0  0  0  0  0  0  0  0  0
   23.7117  -24.1681  -15.3299 C   0  0  0  0  0  0  0  0  0  0  0  0
   22.8441  -23.0116  -15.7615 C   0  0  0  0  0  0  0  0  0  0  0  0
   22.8733  -21.8422  -14.8060 C   0  0  2  0  0  0  0  0  0  0  0  0
   23.8971  -21.8496  -13.8190 N   0  0  0  0  0  0  0  0  0  0  0  0
   21.5598  -21.3582  -14.3668 C   0  0  0  0  0  0  0  0  0  0  0  0
   21.1301  -21.6096  -13.1778 O   0  0  0  0  0  0  0  0  0  0  0  0
   20.6831  -20.6024  -15.1754 N   0  0  0  0  0  0  0  0  0  0  0  0
   19.3335  -20.1747  -14.7165 C   0  0  1  0  0  0  0  0  0  0  0  0
   18.8024  -19.1407  -15.6111 C   0  0  0  0  0  0  0  0  0  0  0  0
   17.4713  -18.5680  -15.3078 C   0  0  0  0  0  0  0  0  0  0  0  0
   16.9350  -17.5612  -16.2199 C   0  0  0  0  0  0  0  0  0  0  0  0
   17.6711  -16.7422  -16.8613 O   0  0  0  0  0  0  0  0  0  0  0  0
   18.4885  -21.3218  -14.4553 C   0  0  0  0  0  0  0  0  0  0  0  0
   18.6302  -22.3531  -15.2104 O   0  0  0  0  0  0  0  0  0  0  0  0
   15.5500  -17.4446  -16.4468 O   0  0  0  0  0  0  0  0  0  0  0  0
   17.5281  -21.4767  -13.4762 O   0  0  0  0  0  0  0  0  0  0  0  0
  2  3  2  0
  2  1  1  0
  4  5  1  0
  4  2  1  0
  5  7  1  0
  5  6  1  6
  7  8  2  0
 10  9  1  0
 10 12  1  0
 11 10  2  0
 13 12  1  0
 14 13  1  1
 15  7  1  0
 15 14  1  0
 16 14  1  0
 16 17  2  0
 18 16  1  0
 19 18  1  0
 19 24  1  0
 19 20  1  6
 21 22  1  0
 21 20  1  0
 22 23  2  0
 24 27  1  0
 25 24  2  0
 26 22  1  0
M  END
$$$$
