NQE.pdb
     RDKit          3D

 27 26  0  0  1  0  0  0  0  0999 V2000
   21.4531  -16.1128  -18.7500 N   0  0  0  0  0  0  0  0  0  0  0  0
   20.5036  -15.0533  -18.5732 C   0  0  0  0  0  0  0  0  0  0  0  0
   19.3744  -15.1785  -19.0962 O   0  0  0  0  0  0  0  0  0  0  0  0
   20.8205  -13.8478  -17.8070 C   0  0  0  0  0  0  0  0  0  0  0  0
   22.2282  -13.8799  -17.3201 C   0  0  2  0  0  0  0  0  0  0  0  0
   22.5348  -15.0777  -16.6032 N   0  0  0  0  0  0  0  0  0  0  0  0
   22.5799  -12.6768  -16.5046 C   0  0  0  0  0  0  0  0  0  0  0  0
   22.1879  -12.5348  -15.3301 O   0  0  0  0  0  0  0  0  0  0  0  0
   28.3740  -12.0482  -15.1839 N   0  0  0  0  0  0  0  0  0  0  0  0
   27.5510  -11.0863  -15.8022 C   0  0  0  0  0  0  0  0  0  0  0  0
   27.9482  -10.0457  -16.3409 O   0  0  0  0  0  0  0  0  0  0  0  0
   26.0728  -11.3707  -15.7933 C   0  0  0  0  0  0  0  0  0  0  0  0
   25.3215  -10.2277  -16.4301 C   0  0  0  0  0  0  0  0  0  0  0  0
   23.8280  -10.4441  -16.4927 C   0  0  2  0  0  0  0  0  0  0  0  0
   23.3833  -11.6621  -17.0767 N   0  0  0  0  0  0  0  0  0  0  0  0
   23.0341   -9.2515  -16.8088 C   0  0  0  0  0  0  0  0  0  0  0  0
   22.5340   -9.0872  -17.9855 O   0  0  0  0  0  0  0  0  0  0  0  0
   22.7568   -8.2175  -15.8882 N   0  0  0  0  0  0  0  0  0  0  0  0
   21.6976   -7.1978  -16.1191 C   0  0  1  0  0  0  0  0  0  0  0  0
   20.4308   -7.8560  -16.4557 C   0  0  0  0  0  0  0  0  0  0  0  0
   19.2192   -7.0160  -16.5914 C   0  0  0  0  0  0  0  0  0  0  0  0
   17.9637   -7.6764  -16.9392 C   0  0  0  0  0  0  0  0  0  0  0  0
   17.8848   -8.9178  -17.2159 O   0  0  0  0  0  0  0  0  0  0  0  0
   21.6736   -6.2249  -15.0464 C   0  0  0  0  0  0  0  0  0  0  0  0
   20.9308   -5.1860  -15.1979 O   0  0  0  0  0  0  0  0  0  0  0  0
   16.7504   -6.9627  -16.9824 O   0  0  0  0  0  0  0  0  0  0  0  0
   22.3473   -6.2565  -13.8421 O   0  0  0  0  0  0  0  0  0  0  0  0
  2  3  2  0
  2  1  1  0
  4  5  1  0
  4  2  1  0
  5  7  1  0
  5  6  1  1
  7  8  2  0
 10  9  1  0
 10 12  1  0
 11 10  2  0
 13 12  1  0
 14 13  1  6
 15  7  1  0
 15 14  1  0
 16 14  1  0
 16 17  2  0
 18 16  1  0
 19 18  1  0
 19 24  1  0
 19 20  1  1
 21 22  1  0
 21 20  1  0
 22 23  2  0
 24 27  1  0
 25 24  2  0
 26 22  1  0
M  END
$$$$
