NQE.pdb
     RDKit          3D

 27 26  0  0  1  0  0  0  0  0999 V2000
   28.3648  -11.1051  -16.0477 N   0  0  0  0  0  0  0  0  0  0  0  0
   27.7503  -11.0532  -17.3420 C   0  0  0  0  0  0  0  0  0  0  0  0
   28.3317  -11.6171  -18.2950 O   0  0  0  0  0  0  0  0  0  0  0  0
   26.4787  -10.3663  -17.5697 C   0  0  0  0  0  0  0  0  0  0  0  0
   25.9967   -9.7088  -16.3226 C   0  0  2  0  0  0  0  0  0  0  0  0
   25.7252  -10.6448  -15.2772 N   0  0  0  0  0  0  0  0  0  0  0  0
   24.8103   -8.8301  -16.5599 C   0  0  0  0  0  0  0  0  0  0  0  0
   24.8358   -7.8885  -17.3762 O   0  0  0  0  0  0  0  0  0  0  0  0
   19.0324  -10.6273  -14.7610 N   0  0  0  0  0  0  0  0  0  0  0  0
   18.6884   -9.4537  -15.4604 C   0  0  0  0  0  0  0  0  0  0  0  0
   17.5377   -9.1106  -15.7588 O   0  0  0  0  0  0  0  0  0  0  0  0
   19.8311   -8.5619  -15.8665 C   0  0  0  0  0  0  0  0  0  0  0  0
   21.1460   -9.2079  -15.5059 C   0  0  0  0  0  0  0  0  0  0  0  0
   22.3525   -8.4300  -15.9754 C   0  0  2  0  0  0  0  0  0  0  0  0
   23.6161   -9.0678  -15.8390 N   0  0  0  0  0  0  0  0  0  0  0  0
   22.3232   -6.9920  -15.6857 C   0  0  0  0  0  0  0  0  0  0  0  0
   22.9440   -6.5144  -14.6619 O   0  0  0  0  0  0  0  0  0  0  0  0
   21.6396   -6.0392  -16.4723 N   0  0  0  0  0  0  0  0  0  0  0  0
   21.7012   -4.5775  -16.1989 C   0  0  1  0  0  0  0  0  0  0  0  0
   22.0798   -3.8536  -17.4171 C   0  0  0  0  0  0  0  0  0  0  0  0
   22.2530   -2.3855  -17.3345 C   0  0  0  0  0  0  0  0  0  0  0  0
   22.6114   -1.6686  -18.5554 C   0  0  0  0  0  0  0  0  0  0  0  0
   22.8062   -2.2515  -19.6718 O   0  0  0  0  0  0  0  0  0  0  0  0
   20.5104   -4.1303  -15.5061 C   0  0  0  0  0  0  0  0  0  0  0  0
   19.4388   -4.8271  -15.6482 O   0  0  0  0  0  0  0  0  0  0  0  0
   22.7578   -0.2680  -18.5639 O   0  0  0  0  0  0  0  0  0  0  0  0
   20.3563   -3.0341  -14.6817 O   0  0  0  0  0  0  0  0  0  0  0  0
  2  3  2  0
  2  1  1  0
  4  5  1  0
  4  2  1  0
  5  7  1  0
  5  6  1  1
  7  8  2  0
 10  9  1  0
 10 12  1  0
 11 10  2  0
 13 12  1  0
 14 13  1  1
 15  7  1  0
 15 14  1  0
 16 14  1  0
 16 17  2  0
 18 16  1  0
 19 18  1  0
 19 24  1  0
 19 20  1  6
 21 22  1  0
 21 20  1  0
 22 23  2  0
 24 27  1  0
 25 24  2  0
 26 22  1  0
M  END
$$$$
