NQE.pdb
     RDKit          3D

 27 26  0  0  1  0  0  0  0  0999 V2000
   13.6300  -15.6802  -13.0001 N   0  0  0  0  0  0  0  0  0  0  0  0
   14.7172  -14.7553  -13.1347 C   0  0  0  0  0  0  0  0  0  0  0  0
   15.8660  -15.2161  -13.3141 O   0  0  0  0  0  0  0  0  0  0  0  0
   14.5165  -13.3076  -13.0679 C   0  0  0  0  0  0  0  0  0  0  0  0
   15.5093  -12.6728  -12.1564 C   0  0  2  0  0  0  0  0  0  0  0  0
   15.4116  -13.1562  -10.8149 N   0  0  0  0  0  0  0  0  0  0  0  0
   15.4373  -11.1794  -12.1815 C   0  0  0  0  0  0  0  0  0  0  0  0
   15.4918  -10.5312  -13.2446 O   0  0  0  0  0  0  0  0  0  0  0  0
   11.4554   -7.8932   -9.3967 N   0  0  0  0  0  0  0  0  0  0  0  0
   11.9875   -8.9724   -8.6640 C   0  0  0  0  0  0  0  0  0  0  0  0
   11.4425   -9.5173   -7.6960 O   0  0  0  0  0  0  0  0  0  0  0  0
   13.3288   -9.4860   -9.1149 C   0  0  0  0  0  0  0  0  0  0  0  0
   13.9157   -8.5609  -10.1522 C   0  0  0  0  0  0  0  0  0  0  0  0
   15.2036   -9.0677  -10.7571 C   0  0  2  0  0  0  0  0  0  0  0  0
   15.3031  -10.4712  -10.9638 N   0  0  0  0  0  0  0  0  0  0  0  0
   16.4224   -8.3985  -10.2889 C   0  0  0  0  0  0  0  0  0  0  0  0
   17.0801   -8.8596   -9.2807 O   0  0  0  0  0  0  0  0  0  0  0  0
   16.9636   -7.2352  -10.8783 N   0  0  0  0  0  0  0  0  0  0  0  0
   18.2146   -6.5936  -10.3898 C   0  0  1  0  0  0  0  0  0  0  0  0
   19.2714   -6.7193  -11.3992 C   0  0  0  0  0  0  0  0  0  0  0  0
   20.5877   -6.1034  -11.1159 C   0  0  0  0  0  0  0  0  0  0  0  0
   21.6346   -6.2303  -12.1263 C   0  0  0  0  0  0  0  0  0  0  0  0
   22.0063   -5.2623  -12.8671 O   0  0  0  0  0  0  0  0  0  0  0  0
   17.9477   -5.2674   -9.8724 C   0  0  0  0  0  0  0  0  0  0  0  0
   16.9767   -4.6057  -10.3952 O   0  0  0  0  0  0  0  0  0  0  0  0
   22.3048   -7.4512  -12.3346 O   0  0  0  0  0  0  0  0  0  0  0  0
   18.6000   -4.5922   -8.8605 O   0  0  0  0  0  0  0  0  0  0  0  0
  2  3  2  0
  2  1  1  0
  4  5  1  0
  4  2  1  0
  5  7  1  0
  5  6  1  1
  7  8  2  0
 10  9  1  0
 10 12  1  0
 11 10  2  0
 13 12  1  0
 14 13  1  1
 15  7  1  0
 15 14  1  0
 16 14  1  0
 16 17  2  0
 18 16  1  0
 19 18  1  0
 19 24  1  0
 19 20  1  6
 21 22  1  0
 21 20  1  0
 22 23  2  0
 24 27  1  0
 25 24  2  0
 26 22  1  0
M  END
$$$$
