NQE.pdb
     RDKit          3D

 27 26  0  0  1  0  0  0  0  0999 V2000
   16.0521  -13.6375  -13.7419 N   0  0  0  0  0  0  0  0  0  0  0  0
   17.2270  -12.8452  -13.9599 C   0  0  0  0  0  0  0  0  0  0  0  0
   18.1917  -13.3711  -14.5575 O   0  0  0  0  0  0  0  0  0  0  0  0
   17.3216  -11.4574  -13.5062 C   0  0  0  0  0  0  0  0  0  0  0  0
   16.1032  -11.0604  -12.7462 C   0  0  2  0  0  0  0  0  0  0  0  0
   14.8992  -11.5428  -13.3466 N   0  0  0  0  0  0  0  0  0  0  0  0
   16.0224   -9.5838  -12.5239 C   0  0  0  0  0  0  0  0  0  0  0  0
   15.6204   -8.8018  -13.4072 O   0  0  0  0  0  0  0  0  0  0  0  0
   15.0319   -6.9471   -7.0231 N   0  0  0  0  0  0  0  0  0  0  0  0
   14.0496   -7.4804   -7.8806 C   0  0  0  0  0  0  0  0  0  0  0  0
   12.8959   -7.7792   -7.5478 O   0  0  0  0  0  0  0  0  0  0  0  0
   14.4615   -7.6946   -9.3126 C   0  0  0  0  0  0  0  0  0  0  0  0
   15.9268   -7.3781   -9.4831 C   0  0  0  0  0  0  0  0  0  0  0  0
   16.4572   -7.6878  -10.8630 C   0  0  2  0  0  0  0  0  0  0  0  0
   16.4129   -9.0486  -11.2736 N   0  0  0  0  0  0  0  0  0  0  0  0
   17.6527   -6.9350  -11.2590 C   0  0  0  0  0  0  0  0  0  0  0  0
   18.7802   -7.1319  -10.6662 O   0  0  0  0  0  0  0  0  0  0  0  0
   17.6746   -5.9657  -12.2854 N   0  0  0  0  0  0  0  0  0  0  0  0
   18.9159   -5.2518  -12.6909 C   0  0  1  0  0  0  0  0  0  0  0  0
   19.7892   -6.1531  -13.4501 C   0  0  0  0  0  0  0  0  0  0  0  0
   21.0693   -5.6179  -13.9668 C   0  0  0  0  0  0  0  0  0  0  0  0
   21.9704   -6.5406  -14.6521 C   0  0  0  0  0  0  0  0  0  0  0  0
   23.0880   -6.1810  -15.1479 O   0  0  0  0  0  0  0  0  0  0  0  0
   18.6034   -3.9714  -13.2916 C   0  0  0  0  0  0  0  0  0  0  0  0
   19.5657   -3.1322  -13.4454 O   0  0  0  0  0  0  0  0  0  0  0  0
   21.6474   -7.9035  -14.7988 O   0  0  0  0  0  0  0  0  0  0  0  0
   17.3845   -3.5096  -13.7458 O   0  0  0  0  0  0  0  0  0  0  0  0
  2  3  2  0
  2  1  1  0
  4  5  1  0
  4  2  1  0
  5  7  1  0
  5  6  1  6
  7  8  2  0
 10  9  1  0
 10 12  1  0
 11 10  2  0
 13 12  1  0
 14 13  1  1
 15  7  1  0
 15 14  1  0
 16 14  1  0
 16 17  2  0
 18 16  1  0
 19 18  1  0
 19 24  1  0
 19 20  1  6
 21 22  1  0
 21 20  1  0
 22 23  2  0
 24 27  1  0
 25 24  2  0
 26 22  1  0
M  END
$$$$
