NQE.pdb
     RDKit          3D

 27 26  0  0  1  0  0  0  0  0999 V2000
   27.4709  -14.9545  -15.4988 N   0  0  0  0  0  0  0  0  0  0  0  0
   26.6965  -16.1427  -15.7083 C   0  0  0  0  0  0  0  0  0  0  0  0
   27.2335  -17.2472  -15.4713 O   0  0  0  0  0  0  0  0  0  0  0  0
   25.3142  -16.0935  -16.1853 C   0  0  0  0  0  0  0  0  0  0  0  0
   24.8610  -14.6854  -16.3627 C   0  0  2  0  0  0  0  0  0  0  0  0
   25.0406  -13.8974  -15.1839 N   0  0  0  0  0  0  0  0  0  0  0  0
   23.4478  -14.5945  -16.8430 C   0  0  0  0  0  0  0  0  0  0  0  0
   23.0658  -15.1558  -17.8882 O   0  0  0  0  0  0  0  0  0  0  0  0
   18.3145  -15.9400  -14.4599 N   0  0  0  0  0  0  0  0  0  0  0  0
   17.7367  -15.0136  -15.3502 C   0  0  0  0  0  0  0  0  0  0  0  0
   16.5237  -14.8781  -15.5533 O   0  0  0  0  0  0  0  0  0  0  0  0
   18.6934  -14.1286  -16.1034 C   0  0  0  0  0  0  0  0  0  0  0  0
   20.1153  -14.4627  -15.7254 C   0  0  0  0  0  0  0  0  0  0  0  0
   21.1434  -13.5800  -16.3926 C   0  0  2  0  0  0  0  0  0  0  0  0
   22.5072  -13.8495  -16.0930 N   0  0  0  0  0  0  0  0  0  0  0  0
   20.7769  -12.1637  -16.5034 C   0  0  0  0  0  0  0  0  0  0  0  0
   20.8872  -11.3745  -15.4902 O   0  0  0  0  0  0  0  0  0  0  0  0
   20.2900  -11.5614  -17.6840 N   0  0  0  0  0  0  0  0  0  0  0  0
   19.8650  -10.1363  -17.7436 C   0  0  1  0  0  0  0  0  0  0  0  0
   18.8565   -9.8688  -16.7126 C   0  0  0  0  0  0  0  0  0  0  0  0
   18.4125   -8.4707  -16.5130 C   0  0  0  0  0  0  0  0  0  0  0  0
   17.5667   -8.1792  -15.3584 C   0  0  0  0  0  0  0  0  0  0  0  0
   17.1967   -9.0699  -14.5255 O   0  0  0  0  0  0  0  0  0  0  0  0
   21.0139   -9.2555  -17.7902 C   0  0  0  0  0  0  0  0  0  0  0  0
   21.1831   -8.5491  -18.8514 O   0  0  0  0  0  0  0  0  0  0  0  0
   17.1119   -6.8721  -15.0974 O   0  0  0  0  0  0  0  0  0  0  0  0
   21.9799   -9.0511  -16.8257 O   0  0  0  0  0  0  0  0  0  0  0  0
  2  3  2  0
  2  1  1  0
  4  5  1  0
  4  2  1  0
  5  7  1  0
  5  6  1  1
  7  8  2  0
 10  9  1  0
 10 12  1  0
 11 10  2  0
 13 12  1  0
 14 13  1  1
 15  7  1  0
 15 14  1  0
 16 14  1  0
 16 17  2  0
 18 16  1  0
 19 18  1  0
 19 24  1  0
 19 20  1  1
 21 22  1  0
 21 20  1  0
 22 23  2  0
 24 27  1  0
 25 24  2  0
 26 22  1  0
M  END
$$$$
