NQE.pdb
     RDKit          3D

 27 26  0  0  1  0  0  0  0  0999 V2000
   13.7969  -12.3234  -16.4034 N   0  0  0  0  0  0  0  0  0  0  0  0
   15.0989  -12.0939  -15.8487 C   0  0  0  0  0  0  0  0  0  0  0  0
   15.8154  -13.0866  -15.5928 O   0  0  0  0  0  0  0  0  0  0  0  0
   15.6005  -10.7461  -15.5795 C   0  0  0  0  0  0  0  0  0  0  0  0
   16.4476  -10.7271  -14.3541 C   0  0  2  0  0  0  0  0  0  0  0  0
   15.7540  -11.2037  -13.1988 N   0  0  0  0  0  0  0  0  0  0  0  0
   17.0424   -9.3808  -14.0895 C   0  0  0  0  0  0  0  0  0  0  0  0
   17.2449   -8.5552  -15.0009 O   0  0  0  0  0  0  0  0  0  0  0  0
   14.7873   -6.2425   -8.8163 N   0  0  0  0  0  0  0  0  0  0  0  0
   15.9735   -6.9317   -9.1365 C   0  0  0  0  0  0  0  0  0  0  0  0
   16.8289   -7.2995   -8.3216 O   0  0  0  0  0  0  0  0  0  0  0  0
   16.1952   -7.2332  -10.5946 C   0  0  0  0  0  0  0  0  0  0  0  0
   17.6665   -7.4278  -10.8657 C   0  0  0  0  0  0  0  0  0  0  0  0
   17.9738   -7.8171  -12.2923 C   0  0  2  0  0  0  0  0  0  0  0  0
   17.3894   -9.0244  -12.7648 N   0  0  0  0  0  0  0  0  0  0  0  0
   19.3481   -7.5524  -12.7326 C   0  0  0  0  0  0  0  0  0  0  0  0
   20.1292   -8.5211  -13.0687 O   0  0  0  0  0  0  0  0  0  0  0  0
   19.9159   -6.2629  -12.8247 N   0  0  0  0  0  0  0  0  0  0  0  0
   21.2085   -6.0008  -13.5144 C   0  0  1  0  0  0  0  0  0  0  0  0
   21.2158   -6.6465  -14.8314 C   0  0  0  0  0  0  0  0  0  0  0  0
   22.3661   -6.3949  -15.7288 C   0  0  0  0  0  0  0  0  0  0  0  0
   22.3404   -6.9955  -17.0598 C   0  0  0  0  0  0  0  0  0  0  0  0
   21.4211   -7.7888  -17.4466 O   0  0  0  0  0  0  0  0  0  0  0  0
   21.5445   -4.5927  -13.4657 C   0  0  0  0  0  0  0  0  0  0  0  0
   20.5765   -3.7461  -13.4811 O   0  0  0  0  0  0  0  0  0  0  0  0
   23.3468   -6.7196  -18.0055 O   0  0  0  0  0  0  0  0  0  0  0  0
   22.7932   -4.0090  -13.3938 O   0  0  0  0  0  0  0  0  0  0  0  0
  2  3  2  0
  2  1  1  0
  4  5  1  0
  4  2  1  0
  5  7  1  0
  5  6  1  1
  7  8  2  0
 10  9  1  0
 10 12  1  0
 11 10  2  0
 13 12  1  0
 14 13  1  1
 15  7  1  0
 15 14  1  0
 16 14  1  0
 16 17  2  0
 18 16  1  0
 19 18  1  0
 19 24  1  0
 19 20  1  6
 21 22  1  0
 21 20  1  0
 22 23  2  0
 24 27  1  0
 25 24  2  0
 26 22  1  0
M  END
$$$$
