NQE.pdb
     RDKit          3D

 27 26  0  0  1  0  0  0  0  0999 V2000
   17.9757  -14.5503  -15.6187 N   0  0  0  0  0  0  0  0  0  0  0  0
   18.3614  -13.2738  -16.1451 C   0  0  0  0  0  0  0  0  0  0  0  0
   17.9395  -12.9496  -17.2770 O   0  0  0  0  0  0  0  0  0  0  0  0
   19.2238  -12.3562  -15.4002 C   0  0  0  0  0  0  0  0  0  0  0  0
   20.1966  -11.6841  -16.3065 C   0  0  2  0  0  0  0  0  0  0  0  0
   20.9901  -12.6135  -17.0478 N   0  0  0  0  0  0  0  0  0  0  0  0
   21.0703  -10.7073  -15.5863 C   0  0  0  0  0  0  0  0  0  0  0  0
   20.7667  -10.2448  -14.4695 O   0  0  0  0  0  0  0  0  0  0  0  0
   27.2213  -10.2263  -16.5748 N   0  0  0  0  0  0  0  0  0  0  0  0
   26.5657  -11.2827  -15.9122 C   0  0  0  0  0  0  0  0  0  0  0  0
   27.0909  -12.3514  -15.5762 O   0  0  0  0  0  0  0  0  0  0  0  0
   25.1089  -11.0695  -15.5987 C   0  0  0  0  0  0  0  0  0  0  0  0
   24.6938   -9.6726  -15.9895 C   0  0  0  0  0  0  0  0  0  0  0  0
   23.2452   -9.3652  -15.6925 C   0  0  2  0  0  0  0  0  0  0  0  0
   22.2826  -10.2891  -16.1845 N   0  0  0  0  0  0  0  0  0  0  0  0
   22.8756   -7.9476  -15.7723 C   0  0  0  0  0  0  0  0  0  0  0  0
   22.7085   -7.3748  -16.9149 O   0  0  0  0  0  0  0  0  0  0  0  0
   22.6769   -7.1163  -14.6484 N   0  0  0  0  0  0  0  0  0  0  0  0
   22.1735   -5.7201  -14.7599 C   0  0  1  0  0  0  0  0  0  0  0  0
   20.9537   -5.6888  -15.5738 C   0  0  0  0  0  0  0  0  0  0  0  0
   20.2786   -4.3866  -15.7746 C   0  0  0  0  0  0  0  0  0  0  0  0
   19.0951   -4.3536  -16.6299 C   0  0  0  0  0  0  0  0  0  0  0  0
   18.4224   -3.2928  -16.8449 O   0  0  0  0  0  0  0  0  0  0  0  0
   22.1180   -5.0850  -13.4593 C   0  0  0  0  0  0  0  0  0  0  0  0
   22.2864   -3.8110  -13.4084 O   0  0  0  0  0  0  0  0  0  0  0  0
   18.6299   -5.5139  -17.2785 O   0  0  0  0  0  0  0  0  0  0  0  0
   21.8946   -5.6665  -12.2276 O   0  0  0  0  0  0  0  0  0  0  0  0
  2  3  2  0
  2  1  1  0
  4  5  1  0
  4  2  1  0
  5  7  1  0
  5  6  1  1
  7  8  2  0
 10  9  1  0
 10 12  1  0
 11 10  2  0
 13 12  1  0
 14 13  1  6
 15  7  1  0
 15 14  1  0
 16 14  1  0
 16 17  2  0
 18 16  1  0
 19 18  1  0
 19 24  1  0
 19 20  1  1
 21 22  1  0
 21 20  1  0
 22 23  2  0
 24 27  1  0
 25 24  2  0
 26 22  1  0
M  END
$$$$
