NQE.pdb
     RDKit          3D

 27 26  0  0  1  0  0  0  0  0999 V2000
   15.5478  -12.1008  -16.8060 N   0  0  0  0  0  0  0  0  0  0  0  0
   15.2718  -12.3748  -15.4261 C   0  0  0  0  0  0  0  0  0  0  0  0
   14.2897  -13.0993  -15.1526 O   0  0  0  0  0  0  0  0  0  0  0  0
   16.0999  -11.8347  -14.3475 C   0  0  0  0  0  0  0  0  0  0  0  0
   17.2210  -11.0191  -14.8930 C   0  0  2  0  0  0  0  0  0  0  0  0
   18.3306  -11.8182  -15.3090 N   0  0  0  0  0  0  0  0  0  0  0  0
   17.6693   -9.9540  -13.9440 C   0  0  0  0  0  0  0  0  0  0  0  0
   17.6210  -10.1049  -12.7077 O   0  0  0  0  0  0  0  0  0  0  0  0
   21.5615   -7.1069  -12.3840 N   0  0  0  0  0  0  0  0  0  0  0  0
   21.9269   -7.8285  -13.5375 C   0  0  0  0  0  0  0  0  0  0  0  0
   22.9510   -8.5124  -13.6585 O   0  0  0  0  0  0  0  0  0  0  0  0
   20.9782   -7.7447  -14.7032 C   0  0  0  0  0  0  0  0  0  0  0  0
   19.8093   -6.8559  -14.3571 C   0  0  0  0  0  0  0  0  0  0  0  0
   18.6439   -7.5974  -13.7461 C   0  0  2  0  0  0  0  0  0  0  0  0
   18.1658   -8.7323  -14.4572 N   0  0  0  0  0  0  0  0  0  0  0  0
   17.6207   -6.7519  -13.1211 C   0  0  0  0  0  0  0  0  0  0  0  0
   16.5819   -6.3765  -13.7856 O   0  0  0  0  0  0  0  0  0  0  0  0
   17.6794   -6.2922  -11.7874 N   0  0  0  0  0  0  0  0  0  0  0  0
   16.5939   -5.4852  -11.1664 C   0  0  1  0  0  0  0  0  0  0  0  0
   16.4172   -5.8750   -9.7635 C   0  0  0  0  0  0  0  0  0  0  0  0
   15.4209   -5.1395   -8.9520 C   0  0  0  0  0  0  0  0  0  0  0  0
   15.3142   -5.4707   -7.5336 C   0  0  0  0  0  0  0  0  0  0  0  0
   16.1846   -6.1662   -6.9149 O   0  0  0  0  0  0  0  0  0  0  0  0
   16.7743   -4.0751  -11.4440 C   0  0  0  0  0  0  0  0  0  0  0  0
   17.9703   -3.6577  -11.6664 O   0  0  0  0  0  0  0  0  0  0  0  0
   14.2254   -5.0253   -6.7593 O   0  0  0  0  0  0  0  0  0  0  0  0
   15.8166   -3.0837  -11.5154 O   0  0  0  0  0  0  0  0  0  0  0  0
  2  3  2  0
  2  1  1  0
  4  5  1  0
  4  2  1  0
  5  7  1  0
  5  6  1  1
  7  8  2  0
 10  9  1  0
 10 12  1  0
 11 10  2  0
 13 12  1  0
 14 13  1  6
 15  7  1  0
 15 14  1  0
 16 14  1  0
 16 17  2  0
 18 16  1  0
 19 18  1  0
 19 24  1  0
 19 20  1  1
 21 22  1  0
 21 20  1  0
 22 23  2  0
 24 27  1  0
 25 24  2  0
 26 22  1  0
M  END
$$$$
