NQE.pdb
     RDKit          3D

 27 26  0  0  1  0  0  0  0  0999 V2000
   27.8874  -24.2715  -16.2518 N   0  0  0  0  0  0  0  0  0  0  0  0
   27.1217  -23.1964  -16.8115 C   0  0  0  0  0  0  0  0  0  0  0  0
   27.4910  -22.7149  -17.9052 O   0  0  0  0  0  0  0  0  0  0  0  0
   25.9368  -22.6581  -16.1429 C   0  0  0  0  0  0  0  0  0  0  0  0
   25.9569  -21.1684  -16.1392 C   0  0  2  0  0  0  0  0  0  0  0  0
   27.1788  -20.6363  -15.6229 N   0  0  0  0  0  0  0  0  0  0  0  0
   24.7847  -20.5814  -15.4197 C   0  0  0  0  0  0  0  0  0  0  0  0
   24.5904  -20.7721  -14.2035 O   0  0  0  0  0  0  0  0  0  0  0  0
   22.4388  -15.0296  -16.3622 N   0  0  0  0  0  0  0  0  0  0  0  0
   21.3907  -15.5160  -15.5563 C   0  0  0  0  0  0  0  0  0  0  0  0
   20.5094  -14.8221  -15.0339 O   0  0  0  0  0  0  0  0  0  0  0  0
   21.3626  -17.0035  -15.3271 C   0  0  0  0  0  0  0  0  0  0  0  0
   22.5934  -17.6426  -15.9213 C   0  0  0  0  0  0  0  0  0  0  0  0
   22.6945  -19.1260  -15.6555 C   0  0  2  0  0  0  0  0  0  0  0  0
   23.8614  -19.7824  -16.1349 N   0  0  0  0  0  0  0  0  0  0  0  0
   21.4382  -19.8731  -15.7825 C   0  0  0  0  0  0  0  0  0  0  0  0
   20.9548  -20.1545  -16.9438 O   0  0  0  0  0  0  0  0  0  0  0  0
   20.6762  -20.3334  -14.6866 N   0  0  0  0  0  0  0  0  0  0  0  0
   19.4001  -21.0814  -14.8520 C   0  0  1  0  0  0  0  0  0  0  0  0
   19.3836  -22.2499  -13.9657 C   0  0  0  0  0  0  0  0  0  0  0  0
   18.5506  -22.1904  -12.7432 C   0  0  0  0  0  0  0  0  0  0  0  0
   17.9502  -23.4320  -12.2626 C   0  0  0  0  0  0  0  0  0  0  0  0
   18.1608  -24.5633  -12.8103 O   0  0  0  0  0  0  0  0  0  0  0  0
   18.2636  -20.1857  -14.7879 C   0  0  0  0  0  0  0  0  0  0  0  0
   18.4524  -19.0147  -14.2908 O   0  0  0  0  0  0  0  0  0  0  0  0
   17.0950  -23.4448  -11.1437 O   0  0  0  0  0  0  0  0  0  0  0  0
   16.9671  -20.4109  -15.2046 O   0  0  0  0  0  0  0  0  0  0  0  0
  2  3  2  0
  2  1  1  0
  4  5  1  0
  4  2  1  0
  5  7  1  0
  5  6  1  1
  7  8  2  0
 10  9  1  0
 10 12  1  0
 11 10  2  0
 13 12  1  0
 14 13  1  6
 15  7  1  0
 15 14  1  0
 16 14  1  0
 16 17  2  0
 18 16  1  0
 19 18  1  0
 19 24  1  0
 19 20  1  1
 21 22  1  0
 21 20  1  0
 22 23  2  0
 24 27  1  0
 25 24  2  0
 26 22  1  0
M  END
$$$$
