NQE.pdb
     RDKit          3D

 27 26  0  0  1  0  0  0  0  0999 V2000
   25.8900  -17.8215  -19.4862 N   0  0  0  0  0  0  0  0  0  0  0  0
   26.0098  -18.7965  -18.4420 C   0  0  0  0  0  0  0  0  0  0  0  0
   27.1356  -18.9757  -17.9274 O   0  0  0  0  0  0  0  0  0  0  0  0
   24.8631  -19.5743  -17.9720 C   0  0  0  0  0  0  0  0  0  0  0  0
   24.0129  -18.7682  -17.0517 C   0  0  2  0  0  0  0  0  0  0  0  0
   24.7700  -18.1300  -16.0211 N   0  0  0  0  0  0  0  0  0  0  0  0
   22.8926  -19.5642  -16.4620 C   0  0  0  0  0  0  0  0  0  0  0  0
   22.2326  -20.3791  -17.1355 O   0  0  0  0  0  0  0  0  0  0  0  0
   22.3308  -20.8104  -10.3300 N   0  0  0  0  0  0  0  0  0  0  0  0
   21.7205  -19.5570  -10.5335 C   0  0  0  0  0  0  0  0  0  0  0  0
   21.4076  -18.7606   -9.6398 O   0  0  0  0  0  0  0  0  0  0  0  0
   21.4366  -19.1794  -11.9628 C   0  0  0  0  0  0  0  0  0  0  0  0
   21.8430  -20.3015  -12.8857 C   0  0  0  0  0  0  0  0  0  0  0  0
   21.5415  -20.0292  -14.3405 C   0  0  2  0  0  0  0  0  0  0  0  0
   22.5644  -19.3930  -15.0962 N   0  0  0  0  0  0  0  0  0  0  0  0
   20.1683  -19.5992  -14.6267 C   0  0  0  0  0  0  0  0  0  0  0  0
   19.9416  -18.5966  -15.4045 O   0  0  0  0  0  0  0  0  0  0  0  0
   19.0168  -20.2212  -14.0969 N   0  0  0  0  0  0  0  0  0  0  0  0
   17.7861  -20.4531  -14.9011 C   0  0  1  0  0  0  0  0  0  0  0  0
   18.1346  -21.0595  -16.1904 C   0  0  0  0  0  0  0  0  0  0  0  0
   17.6057  -20.4351  -17.4242 C   0  0  0  0  0  0  0  0  0  0  0  0
   17.3582  -21.2980  -18.5763 C   0  0  0  0  0  0  0  0  0  0  0  0
   16.3276  -22.0403  -18.6800 O   0  0  0  0  0  0  0  0  0  0  0  0
   16.7693  -21.1162  -14.1110 C   0  0  0  0  0  0  0  0  0  0  0  0
   17.1585  -21.9626  -13.2243 O   0  0  0  0  0  0  0  0  0  0  0  0
   18.2605  -21.3513  -19.6563 O   0  0  0  0  0  0  0  0  0  0  0  0
   15.3991  -20.9600  -14.1674 O   0  0  0  0  0  0  0  0  0  0  0  0
  2  3  2  0
  2  1  1  0
  4  5  1  0
  4  2  1  0
  5  7  1  0
  5  6  1  1
  7  8  2  0
 10  9  1  0
 10 12  1  0
 11 10  2  0
 13 12  1  0
 14 13  1  1
 15  7  1  0
 15 14  1  0
 16 14  1  0
 16 17  2  0
 18 16  1  0
 19 18  1  0
 19 24  1  0
 19 20  1  6
 21 22  1  0
 21 20  1  0
 22 23  2  0
 24 27  1  0
 25 24  2  0
 26 22  1  0
M  END
$$$$
