NQE.pdb
     RDKit          3D

 27 26  0  0  1  0  0  0  0  0999 V2000
   12.3878   -5.1571   -7.7300 N   0  0  0  0  0  0  0  0  0  0  0  0
   13.5475   -5.5877   -7.0054 C   0  0  0  0  0  0  0  0  0  0  0  0
   13.6434   -5.2681   -5.8000 O   0  0  0  0  0  0  0  0  0  0  0  0
   14.6048   -6.3801   -7.6340 C   0  0  0  0  0  0  0  0  0  0  0  0
   14.2088   -6.8050   -9.0060 C   0  0  2  0  0  0  0  0  0  0  0  0
   13.3385   -7.9387   -9.0007 N   0  0  0  0  0  0  0  0  0  0  0  0
   15.3880   -7.0540   -9.8913 C   0  0  0  0  0  0  0  0  0  0  0  0
   16.2737   -6.1961  -10.0722 O   0  0  0  0  0  0  0  0  0  0  0  0
   16.7396  -12.7869  -12.3024 N   0  0  0  0  0  0  0  0  0  0  0  0
   16.4781  -12.5072  -10.9466 C   0  0  0  0  0  0  0  0  0  0  0  0
   16.2980  -13.3549  -10.0635 O   0  0  0  0  0  0  0  0  0  0  0  0
   16.4178  -11.0518  -10.5669 C   0  0  0  0  0  0  0  0  0  0  0  0
   16.5646  -10.1892  -11.7960 C   0  0  0  0  0  0  0  0  0  0  0  0
   16.4739   -8.7085  -11.5118 C   0  0  2  0  0  0  0  0  0  0  0  0
   15.5101   -8.3011  -10.5488 N   0  0  0  0  0  0  0  0  0  0  0  0
   16.6239   -7.8350  -12.6811 C   0  0  0  0  0  0  0  0  0  0  0  0
   15.6013   -7.5114  -13.3959 O   0  0  0  0  0  0  0  0  0  0  0  0
   17.8540   -7.2912  -13.1109 N   0  0  0  0  0  0  0  0  0  0  0  0
   17.9742   -6.4302  -14.3189 C   0  0  1  0  0  0  0  0  0  0  0  0
   18.3052   -5.0562  -13.9263 C   0  0  0  0  0  0  0  0  0  0  0  0
   18.5933   -4.0723  -14.9944 C   0  0  0  0  0  0  0  0  0  0  0  0
   18.8892   -2.6981  -14.5978 C   0  0  0  0  0  0  0  0  0  0  0  0
   18.8971   -2.3117  -13.3834 O   0  0  0  0  0  0  0  0  0  0  0  0
   18.8175   -7.0546  -15.3173 C   0  0  0  0  0  0  0  0  0  0  0  0
   19.8037   -7.7695  -14.9047 O   0  0  0  0  0  0  0  0  0  0  0  0
   19.1923   -1.7107  -15.5551 O   0  0  0  0  0  0  0  0  0  0  0  0
   18.7074   -6.9991  -16.6921 O   0  0  0  0  0  0  0  0  0  0  0  0
  2  3  2  0
  2  1  1  0
  4  5  1  0
  4  2  1  0
  5  7  1  0
  5  6  1  1
  7  8  2  0
 10  9  1  0
 10 12  1  0
 11 10  2  0
 13 12  1  0
 14 13  1  6
 15  7  1  0
 15 14  1  0
 16 14  1  0
 16 17  2  0
 18 16  1  0
 19 18  1  0
 19 24  1  0
 19 20  1  1
 21 22  1  0
 21 20  1  0
 22 23  2  0
 24 27  1  0
 25 24  2  0
 26 22  1  0
M  END
$$$$
