SVV.pdb
     RDKit          3D

 21 20  0  0  1  0  0  0  0  0999 V2000
   10.8288  -16.4360   19.1784 O   0  0  0  0  0  0  0  0  0  0  0  0
    9.6635  -15.9600   19.7498 C   0  0  0  0  0  0  0  0  0  0  0  0
    8.7410  -17.1116   20.1640 C   0  0  2  0  0  0  0  0  0  0  0  0
    7.8729  -17.4231   19.0439 N   0  0  0  0  0  0  0  0  0  0  0  0
    7.9115  -16.6316   21.2729 C   0  0  0  0  0  0  0  0  0  0  0  0
    6.8344  -16.0175   20.9912 O   0  0  0  0  0  0  0  0  0  0  0  0
    8.2498  -18.2693   25.0161 C   0  0  0  0  0  0  0  0  0  0  0  0
    6.9427  -17.6628   24.5131 C   0  0  2  0  0  0  0  0  0  0  0  0
    6.2255  -18.6518   23.6288 C   0  0  0  0  0  0  0  0  0  0  0  0
    7.2418  -16.4061   23.6900 C   0  0  2  0  0  0  0  0  0  0  0  0
    8.2187  -16.7998   22.6453 N   0  0  0  0  0  0  0  0  0  0  0  0
    7.8696  -15.4209   24.5839 C   0  0  0  0  0  0  0  0  0  0  0  0
    9.1547  -15.4571   24.6753 O   0  0  0  0  0  0  0  0  0  0  0  0
    6.9708  -11.4544   25.2383 C   0  0  0  0  0  0  0  0  0  0  0  0
    7.2744  -12.2261   26.4781 C   0  0  1  0  0  0  0  0  0  0  0  0
    6.0102  -12.5973   27.2273 C   0  0  0  0  0  0  0  0  0  0  0  0
    8.0301  -13.5124   26.2074 C   0  0  2  0  0  0  0  0  0  0  0  0
    7.2569  -14.4174   25.3660 N   0  0  0  0  0  0  0  0  0  0  0  0
    8.3918  -14.1955   27.4539 C   0  0  0  0  0  0  0  0  0  0  0  0
    7.7458  -15.1958   27.8269 O   0  0  0  0  0  0  0  0  0  0  0  0
    9.4371  -13.7968   28.2784 O   0  0  0  0  0  0  0  0  0  0  0  0
  2  1  1  0
  2  3  1  0
  3  4  1  6
  5  3  1  0
  6  5  2  0
  8  7  1  6
  8 10  1  0
  9  8  1  0
 10 11  1  6
 10 12  1  0
 11  5  1  0
 12 18  1  0
 13 12  2  0
 15 14  1  6
 15 16  1  0
 17 15  1  0
 17 19  1  0
 17 18  1  6
 19 20  2  0
 19 21  1  0
M  END
$$$$
