SVV.pdb
     RDKit          3D

 21 20  0  0  1  0  0  0  0  0999 V2000
    5.2380  -18.5134   23.3823 O   0  0  0  0  0  0  0  0  0  0  0  0
    6.4821  -17.9365   23.2077 C   0  0  0  0  0  0  0  0  0  0  0  0
    6.3562  -16.4923   22.7104 C   0  0  2  0  0  0  0  0  0  0  0  0
    6.8674  -16.4332   21.3539 N   0  0  0  0  0  0  0  0  0  0  0  0
    7.2089  -15.6592   23.5631 C   0  0  0  0  0  0  0  0  0  0  0  0
    8.4298  -15.5224   23.2356 O   0  0  0  0  0  0  0  0  0  0  0  0
    6.2124  -12.2537   25.6030 C   0  0  0  0  0  0  0  0  0  0  0  0
    6.9146  -13.3008   26.4629 C   0  0  2  0  0  0  0  0  0  0  0  0
    7.8482  -12.6238   27.4349 C   0  0  0  0  0  0  0  0  0  0  0  0
    7.7392  -14.2319   25.5689 C   0  0  2  0  0  0  0  0  0  0  0  0
    6.7754  -14.9891   24.7332 N   0  0  0  0  0  0  0  0  0  0  0  0
    8.4580  -15.1736   26.4409 C   0  0  0  0  0  0  0  0  0  0  0  0
    7.7456  -16.0564   27.0527 O   0  0  0  0  0  0  0  0  0  0  0  0
   12.3541  -17.9858   27.4919 C   0  0  0  0  0  0  0  0  0  0  0  0
   11.6759  -16.8930   26.7364 C   0  0  1  0  0  0  0  0  0  0  0  0
   11.2683  -17.3447   25.3483 C   0  0  0  0  0  0  0  0  0  0  0  0
   10.4271  -16.3798   27.4265 C   0  0  2  0  0  0  0  0  0  0  0  0
    9.8428  -15.2566   26.7042 N   0  0  0  0  0  0  0  0  0  0  0  0
   10.7041  -15.9786   28.8098 C   0  0  0  0  0  0  0  0  0  0  0  0
   10.9451  -14.7836   29.0762 O   0  0  0  0  0  0  0  0  0  0  0  0
   10.7184  -16.8620   29.8826 O   0  0  0  0  0  0  0  0  0  0  0  0
  2  1  1  0
  2  3  1  0
  3  4  1  6
  5  3  1  0
  6  5  2  0
  8  7  1  6
  8 10  1  0
  9  8  1  0
 10 11  1  6
 10 12  1  0
 11  5  1  0
 12 18  1  0
 13 12  2  0
 15 14  1  1
 15 16  1  0
 17 15  1  0
 17 19  1  0
 17 18  1  6
 19 20  2  0
 19 21  1  0
M  END
$$$$
