SVV.pdb
     RDKit          3D

 21 20  0  0  1  0  0  0  0  0999 V2000
   12.5565  -19.5386   20.5979 O   0  0  0  0  0  0  0  0  0  0  0  0
   12.1443  -18.6095   21.5349 C   0  0  0  0  0  0  0  0  0  0  0  0
   11.4268  -17.4318   20.8662 C   0  0  2  0  0  0  0  0  0  0  0  0
   12.3936  -16.7095   20.0608 N   0  0  0  0  0  0  0  0  0  0  0  0
   10.9562  -16.5429   21.9323 C   0  0  0  0  0  0  0  0  0  0  0  0
   11.7347  -15.6181   22.3264 O   0  0  0  0  0  0  0  0  0  0  0  0
    7.3318  -15.0623   21.9397 C   0  0  0  0  0  0  0  0  0  0  0  0
    7.7054  -15.4977   23.3539 C   0  0  2  0  0  0  0  0  0  0  0  0
    7.1872  -14.4939   24.3532 C   0  0  0  0  0  0  0  0  0  0  0  0
    9.2299  -15.5678   23.4849 C   0  0  2  0  0  0  0  0  0  0  0  0
    9.6913  -16.6345   22.5630 N   0  0  0  0  0  0  0  0  0  0  0  0
    9.5457  -15.9613   24.8667 C   0  0  0  0  0  0  0  0  0  0  0  0
    9.6082  -17.2255   25.1095 O   0  0  0  0  0  0  0  0  0  0  0  0
   11.5297  -13.6477   27.8402 C   0  0  0  0  0  0  0  0  0  0  0  0
   10.4661  -14.5928   28.2877 C   0  0  1  0  0  0  0  0  0  0  0  0
    9.1569  -13.8754   28.5492 C   0  0  0  0  0  0  0  0  0  0  0  0
   10.1835  -15.6898   27.2799 C   0  0  2  0  0  0  0  0  0  0  0  0
    9.8022  -15.1387   25.9854 N   0  0  0  0  0  0  0  0  0  0  0  0
    9.1316  -16.5959   27.7528 C   0  0  0  0  0  0  0  0  0  0  0  0
    9.3899  -17.4499   28.6251 O   0  0  0  0  0  0  0  0  0  0  0  0
    7.8232  -16.5723   27.2847 O   0  0  0  0  0  0  0  0  0  0  0  0
  2  1  1  0
  2  3  1  0
  3  4  1  6
  5  3  1  0
  6  5  2  0
  8  7  1  6
  8 10  1  0
  9  8  1  0
 10 11  1  6
 10 12  1  0
 11  5  1  0
 12 18  1  0
 13 12  2  0
 15 14  1  6
 15 16  1  0
 17 15  1  0
 17 19  1  0
 17 18  1  6
 19 20  2  0
 19 21  1  0
M  END
$$$$
