SVV.pdb
     RDKit          3D

 21 20  0  0  1  0  0  0  0  0999 V2000
   11.9239  -19.7407   22.2951 O   0  0  0  0  0  0  0  0  0  0  0  0
   11.7152  -18.4180   22.6389 C   0  0  0  0  0  0  0  0  0  0  0  0
   11.4104  -17.5672   21.4011 C   0  0  2  0  0  0  0  0  0  0  0  0
   12.6707  -17.1533   20.8134 N   0  0  0  0  0  0  0  0  0  0  0  0
   10.6970  -16.3707   21.8566 C   0  0  0  0  0  0  0  0  0  0  0  0
   11.3860  -15.3608   22.2056 O   0  0  0  0  0  0  0  0  0  0  0  0
    7.7660  -14.5852   20.0786 C   0  0  0  0  0  0  0  0  0  0  0  0
    7.3927  -14.7973   21.5431 C   0  0  2  0  0  0  0  0  0  0  0  0
    6.6496  -13.5920   22.0625 C   0  0  0  0  0  0  0  0  0  0  0  0
    8.6645  -14.9780   22.3773 C   0  0  2  0  0  0  0  0  0  0  0  0
    9.2881  -16.2507   21.9390 N   0  0  0  0  0  0  0  0  0  0  0  0
    8.2644  -15.1031   23.7873 C   0  0  0  0  0  0  0  0  0  0  0  0
    8.0373  -16.2950   24.2220 O   0  0  0  0  0  0  0  0  0  0  0  0
    8.2979  -12.1169   26.9339 C   0  0  0  0  0  0  0  0  0  0  0  0
    7.1765  -13.0917   26.8036 C   0  0  1  0  0  0  0  0  0  0  0  0
    6.0074  -12.4982   26.0434 C   0  0  0  0  0  0  0  0  0  0  0  0
    7.5775  -14.3665   26.0872 C   0  0  2  0  0  0  0  0  0  0  0  0
    8.0967  -14.0875   24.7540 N   0  0  0  0  0  0  0  0  0  0  0  0
    6.4528  -15.3025   25.9862 C   0  0  0  0  0  0  0  0  0  0  0  0
    5.6708  -15.2353   25.0161 O   0  0  0  0  0  0  0  0  0  0  0  0
    6.1848  -16.2928   26.9237 O   0  0  0  0  0  0  0  0  0  0  0  0
  2  1  1  0
  2  3  1  0
  3  4  1  1
  5  3  1  0
  6  5  2  0
  8  7  1  6
  8 10  1  0
  9  8  1  0
 10 11  1  6
 10 12  1  0
 11  5  1  0
 12 18  1  0
 13 12  2  0
 15 14  1  6
 15 16  1  0
 17 15  1  0
 17 19  1  0
 17 18  1  6
 19 20  2  0
 19 21  1  0
M  END
$$$$
