SVV.pdb
     RDKit          3D

 21 20  0  0  1  0  0  0  0  0999 V2000
   12.8443  -19.3574   20.5759 O   0  0  0  0  0  0  0  0  0  0  0  0
   12.3280  -18.3481   21.3671 C   0  0  0  0  0  0  0  0  0  0  0  0
   11.4497  -17.3975   20.5461 C   0  0  2  0  0  0  0  0  0  0  0  0
   12.2921  -16.7277   19.5732 N   0  0  0  0  0  0  0  0  0  0  0  0
   10.9148  -16.3902   21.4666 C   0  0  0  0  0  0  0  0  0  0  0  0
   11.5452  -15.2922   21.5828 O   0  0  0  0  0  0  0  0  0  0  0  0
    7.3819  -14.9314   21.4602 C   0  0  0  0  0  0  0  0  0  0  0  0
    7.7100  -15.3903   22.8783 C   0  0  2  0  0  0  0  0  0  0  0  0
    7.1260  -14.4237   23.8780 C   0  0  0  0  0  0  0  0  0  0  0  0
    9.2294  -15.4247   23.0694 C   0  0  2  0  0  0  0  0  0  0  0  0
    9.7406  -16.5458   22.2433 N   0  0  0  0  0  0  0  0  0  0  0  0
    9.4987  -15.7139   24.4863 C   0  0  0  0  0  0  0  0  0  0  0  0
    9.6952  -16.9489   24.7986 O   0  0  0  0  0  0  0  0  0  0  0  0
    9.0746  -13.2533   28.0016 C   0  0  0  0  0  0  0  0  0  0  0  0
   10.3400  -14.0071   27.7664 C   0  0  1  0  0  0  0  0  0  0  0  0
   10.9348  -14.5167   29.0640 C   0  0  0  0  0  0  0  0  0  0  0  0
   10.1575  -15.2051   26.8550 C   0  0  2  0  0  0  0  0  0  0  0  0
    9.5819  -14.8166   25.5734 N   0  0  0  0  0  0  0  0  0  0  0  0
    9.3133  -16.2301   27.4777 C   0  0  0  0  0  0  0  0  0  0  0  0
    8.0825  -16.2336   27.2721 O   0  0  0  0  0  0  0  0  0  0  0  0
    9.8000  -17.2323   28.3084 O   0  0  0  0  0  0  0  0  0  0  0  0
  2  1  1  0
  2  3  1  0
  3  4  1  6
  5  3  1  0
  6  5  2  0
  8  7  1  6
  8 10  1  0
  9  8  1  0
 10 11  1  6
 10 12  1  0
 11  5  1  0
 12 18  1  0
 13 12  2  0
 15 14  1  1
 15 16  1  0
 17 15  1  0
 17 19  1  0
 17 18  1  6
 19 20  2  0
 19 21  1  0
M  END
$$$$
