SVV.pdb
     RDKit          3D

 21 20  0  0  1  0  0  0  0  0999 V2000
   12.5240  -19.5796   21.0421 O   0  0  0  0  0  0  0  0  0  0  0  0
   12.1744  -18.5017   21.8341 C   0  0  0  0  0  0  0  0  0  0  0  0
   11.5469  -17.3818   20.9968 C   0  0  2  0  0  0  0  0  0  0  0  0
   12.6038  -16.7290   20.2472 N   0  0  0  0  0  0  0  0  0  0  0  0
   10.9711  -16.4081   21.9287 C   0  0  0  0  0  0  0  0  0  0  0  0
   11.6672  -15.3887   22.2335 O   0  0  0  0  0  0  0  0  0  0  0  0
    7.3576  -14.8238   21.9533 C   0  0  0  0  0  0  0  0  0  0  0  0
    7.6957  -15.4005   23.3253 C   0  0  2  0  0  0  0  0  0  0  0  0
    7.1561  -14.4993   24.4075 C   0  0  0  0  0  0  0  0  0  0  0  0
    9.2164  -15.4909   23.4849 C   0  0  2  0  0  0  0  0  0  0  0  0
    9.6890  -16.5149   22.5211 N   0  0  0  0  0  0  0  0  0  0  0  0
    9.4991  -15.9551   24.8518 C   0  0  0  0  0  0  0  0  0  0  0  0
    9.5259  -17.2304   25.0370 O   0  0  0  0  0  0  0  0  0  0  0  0
   11.5620  -13.8397   27.8922 C   0  0  0  0  0  0  0  0  0  0  0  0
   10.4749  -14.7657   28.3226 C   0  0  1  0  0  0  0  0  0  0  0  0
    9.1971  -14.0155   28.6411 C   0  0  0  0  0  0  0  0  0  0  0  0
   10.1342  -15.8091   27.2765 C   0  0  2  0  0  0  0  0  0  0  0  0
    9.7573  -15.1914   26.0111 N   0  0  0  0  0  0  0  0  0  0  0  0
    9.0532  -16.6909   27.7294 C   0  0  0  0  0  0  0  0  0  0  0  0
    7.8825  -16.4892   27.3473 O   0  0  0  0  0  0  0  0  0  0  0  0
    9.2435  -17.7718   28.5820 O   0  0  0  0  0  0  0  0  0  0  0  0
  2  1  1  0
  2  3  1  0
  3  4  1  1
  5  3  1  0
  6  5  2  0
  8  7  1  6
  8 10  1  0
  9  8  1  0
 10 11  1  6
 10 12  1  0
 11  5  1  0
 12 18  1  0
 13 12  2  0
 15 14  1  6
 15 16  1  0
 17 15  1  0
 17 19  1  0
 17 18  1  6
 19 20  2  0
 19 21  1  0
M  END
$$$$
