SVV.pdb
     RDKit          3D

 21 20  0  0  1  0  0  0  0  0999 V2000
   12.1411  -19.7058   20.6160 O   0  0  0  0  0  0  0  0  0  0  0  0
   11.8839  -18.5517   21.3322 C   0  0  0  0  0  0  0  0  0  0  0  0
   11.3037  -17.4586   20.4281 C   0  0  2  0  0  0  0  0  0  0  0  0
   12.3867  -16.8971   19.6426 N   0  0  0  0  0  0  0  0  0  0  0  0
   10.7701  -16.4073   21.2988 C   0  0  0  0  0  0  0  0  0  0  0  0
   11.5518  -15.4679   21.6496 O   0  0  0  0  0  0  0  0  0  0  0  0
    7.2130  -14.6494   20.9273 C   0  0  0  0  0  0  0  0  0  0  0  0
    7.4732  -15.0720   22.3705 C   0  0  2  0  0  0  0  0  0  0  0  0
    6.9375  -14.0258   23.3156 C   0  0  0  0  0  0  0  0  0  0  0  0
    8.9811  -15.2073   22.6031 C   0  0  2  0  0  0  0  0  0  0  0  0
    9.4404  -16.3557   21.7839 N   0  0  0  0  0  0  0  0  0  0  0  0
    9.1912  -15.5205   24.0249 C   0  0  0  0  0  0  0  0  0  0  0  0
    9.0445  -16.7522   24.3750 O   0  0  0  0  0  0  0  0  0  0  0  0
    8.9584  -13.0340   27.5196 C   0  0  0  0  0  0  0  0  0  0  0  0
   10.0900  -13.9963   27.3854 C   0  0  1  0  0  0  0  0  0  0  0  0
   10.4600  -14.6114   28.7202 C   0  0  0  0  0  0  0  0  0  0  0  0
    9.7900  -15.1373   26.4329 C   0  0  2  0  0  0  0  0  0  0  0  0
    9.5441  -14.6517   25.0807 N   0  0  0  0  0  0  0  0  0  0  0  0
    8.6386  -15.9256   26.8846 C   0  0  0  0  0  0  0  0  0  0  0  0
    7.4844  -15.5944   26.5451 O   0  0  0  0  0  0  0  0  0  0  0  0
    8.7421  -17.0530   27.6906 O   0  0  0  0  0  0  0  0  0  0  0  0
  2  1  1  0
  2  3  1  0
  3  4  1  6
  5  3  1  0
  6  5  2  0
  8  7  1  6
  8 10  1  0
  9  8  1  0
 10 11  1  6
 10 12  1  0
 11  5  1  0
 12 18  1  0
 13 12  2  0
 15 14  1  1
 15 16  1  0
 17 15  1  0
 17 19  1  0
 17 18  1  6
 19 20  2  0
 19 21  1  0
M  END
$$$$
