SVV.pdb
     RDKit          3D

 21 20  0  0  1  0  0  0  0  0999 V2000
    9.9668  -15.7014   18.8547 O   0  0  0  0  0  0  0  0  0  0  0  0
    9.0863  -15.4674   19.8945 C   0  0  0  0  0  0  0  0  0  0  0  0
    8.2248  -16.7030   20.1772 C   0  0  2  0  0  0  0  0  0  0  0  0
    7.1582  -16.7470   19.1946 N   0  0  0  0  0  0  0  0  0  0  0  0
    7.6257  -16.5256   21.5029 C   0  0  0  0  0  0  0  0  0  0  0  0
    6.5271  -15.8905   21.5821 O   0  0  0  0  0  0  0  0  0  0  0  0
    7.0981  -19.4008   24.0789 C   0  0  0  0  0  0  0  0  0  0  0  0
    7.7255  -18.1960   24.7745 C   0  0  2  0  0  0  0  0  0  0  0  0
    7.1486  -18.0460   26.1599 C   0  0  0  0  0  0  0  0  0  0  0  0
    7.4140  -16.9237   23.9805 C   0  0  2  0  0  0  0  0  0  0  0  0
    8.1797  -17.0105   22.7129 N   0  0  0  0  0  0  0  0  0  0  0  0
    7.9058  -15.7758   24.7579 C   0  0  0  0  0  0  0  0  0  0  0  0
    9.1810  -15.5891   24.7724 O   0  0  0  0  0  0  0  0  0  0  0  0
    7.4508  -11.5818   27.4421 C   0  0  0  0  0  0  0  0  0  0  0  0
    6.8263  -12.6879   26.6604 C   0  0  1  0  0  0  0  0  0  0  0  0
    6.1750  -12.1752   25.3915 C   0  0  0  0  0  0  0  0  0  0  0  0
    7.8169  -13.7617   26.2544 C   0  0  2  0  0  0  0  0  0  0  0  0
    7.1685  -14.8265   25.4991 N   0  0  0  0  0  0  0  0  0  0  0  0
    8.4956  -14.3354   27.4212 C   0  0  0  0  0  0  0  0  0  0  0  0
    7.9845  -15.2981   28.0289 O   0  0  0  0  0  0  0  0  0  0  0  0
    9.7075  -13.8697   27.9168 O   0  0  0  0  0  0  0  0  0  0  0  0
  2  1  1  0
  2  3  1  0
  3  4  1  6
  5  3  1  0
  6  5  2  0
  8  7  1  6
  8 10  1  0
  9  8  1  0
 10 11  1  6
 10 12  1  0
 11  5  1  0
 12 18  1  0
 13 12  2  0
 15 14  1  6
 15 16  1  0
 17 15  1  0
 17 19  1  0
 17 18  1  1
 19 20  2  0
 19 21  1  0
M  END
$$$$
