SVV.pdb
     RDKit          3D

 21 20  0  0  1  0  0  0  0  0999 V2000
   10.8609  -18.7920   23.0734 O   0  0  0  0  0  0  0  0  0  0  0  0
   11.8866  -18.4398   22.2161 C   0  0  0  0  0  0  0  0  0  0  0  0
   11.3633  -17.6038   21.0430 C   0  0  2  0  0  0  0  0  0  0  0  0
   12.4978  -17.1904   20.2387 N   0  0  0  0  0  0  0  0  0  0  0  0
   10.7334  -16.4058   21.6053 C   0  0  0  0  0  0  0  0  0  0  0  0
   11.4872  -15.4470   21.9645 O   0  0  0  0  0  0  0  0  0  0  0  0
    7.8487  -14.4261   20.0220 C   0  0  0  0  0  0  0  0  0  0  0  0
    7.5107  -14.6710   21.4900 C   0  0  2  0  0  0  0  0  0  0  0  0
    6.8445  -13.4501   22.0733 C   0  0  0  0  0  0  0  0  0  0  0  0
    8.7971  -14.9420   22.2760 C   0  0  2  0  0  0  0  0  0  0  0  0
    9.3389  -16.2313   21.7812 N   0  0  0  0  0  0  0  0  0  0  0  0
    8.4360  -15.0886   23.6944 C   0  0  0  0  0  0  0  0  0  0  0  0
    8.4303  -16.2864   24.1704 O   0  0  0  0  0  0  0  0  0  0  0  0
    8.5576  -12.2261   26.9218 C   0  0  0  0  0  0  0  0  0  0  0  0
    7.3963  -13.1531   26.7928 C   0  0  1  0  0  0  0  0  0  0  0  0
    6.2212  -12.4827   26.1096 C   0  0  0  0  0  0  0  0  0  0  0  0
    7.7206  -14.4056   26.0021 C   0  0  2  0  0  0  0  0  0  0  0  0
    8.0950  -14.0872   24.6298 N   0  0  0  0  0  0  0  0  0  0  0  0
    6.5928  -15.3432   25.9945 C   0  0  0  0  0  0  0  0  0  0  0  0
    5.7628  -15.3129   25.0631 O   0  0  0  0  0  0  0  0  0  0  0  0
    6.3729  -16.2958   26.9823 O   0  0  0  0  0  0  0  0  0  0  0  0
  2  1  1  0
  2  3  1  0
  3  4  1  6
  5  3  1  0
  6  5  2  0
  8  7  1  6
  8 10  1  0
  9  8  1  0
 10 11  1  6
 10 12  1  0
 11  5  1  0
 12 18  1  0
 13 12  2  0
 15 14  1  6
 15 16  1  0
 17 15  1  0
 17 19  1  0
 17 18  1  6
 19 20  2  0
 19 21  1  0
M  END
$$$$
