SVV.pdb
     RDKit          3D

 21 20  0  0  1  0  0  0  0  0999 V2000
    8.6639  -15.8390   18.2827 O   0  0  0  0  0  0  0  0  0  0  0  0
    7.8198  -15.7181   19.3708 C   0  0  0  0  0  0  0  0  0  0  0  0
    7.6409  -17.0634   20.0830 C   0  0  2  0  0  0  0  0  0  0  0  0
    6.6676  -17.8433   19.3418 N   0  0  0  0  0  0  0  0  0  0  0  0
    7.0942  -16.7852   21.4141 C   0  0  0  0  0  0  0  0  0  0  0  0
    5.8368  -16.6324   21.5237 O   0  0  0  0  0  0  0  0  0  0  0  0
    6.8634  -17.7641   26.0738 C   0  0  0  0  0  0  0  0  0  0  0  0
    7.4431  -17.8598   24.6653 C   0  0  2  0  0  0  0  0  0  0  0  0
    8.9305  -18.0989   24.7382 C   0  0  0  0  0  0  0  0  0  0  0  0
    7.2007  -16.5446   23.9186 C   0  0  2  0  0  0  0  0  0  0  0  0
    7.8638  -16.6724   22.5978 N   0  0  0  0  0  0  0  0  0  0  0  0
    7.8540  -15.4680   24.6788 C   0  0  0  0  0  0  0  0  0  0  0  0
    9.1050  -15.2679   24.4421 O   0  0  0  0  0  0  0  0  0  0  0  0
    6.5502  -11.7296   25.2603 C   0  0  0  0  0  0  0  0  0  0  0  0
    7.1629  -12.2993   26.4952 C   0  0  1  0  0  0  0  0  0  0  0  0
    6.1070  -12.7444   27.4871 C   0  0  0  0  0  0  0  0  0  0  0  0
    8.0528  -13.4956   26.2195 C   0  0  2  0  0  0  0  0  0  0  0  0
    7.2965  -14.6007   25.6437 N   0  0  0  0  0  0  0  0  0  0  0  0
    8.7319  -13.9518   27.4369 C   0  0  0  0  0  0  0  0  0  0  0  0
    9.5432  -13.2017   28.0167 O   0  0  0  0  0  0  0  0  0  0  0  0
    8.5313  -15.2010   28.0119 O   0  0  0  0  0  0  0  0  0  0  0  0
  2  1  1  0
  2  3  1  0
  3  4  1  6
  5  3  1  0
  6  5  2  0
  8  7  1  1
  8 10  1  0
  9  8  1  0
 10 11  1  6
 10 12  1  0
 11  5  1  0
 12 18  1  0
 13 12  2  0
 15 14  1  6
 15 16  1  0
 17 15  1  0
 17 19  1  0
 17 18  1  1
 19 20  2  0
 19 21  1  0
M  END
$$$$
