QDW.pdb
     RDKit          3D

 32 33  0  0  1  0  0  0  0  0999 V2000
   21.5287  -16.8381  -14.1711 N   0  0  0  0  0  0  0  0  0  0  0  0
   22.4228  -17.7000  -14.9127 C   0  0  0  0  0  0  0  0  0  0  0  0
   22.4461  -18.9263  -14.6636 O   0  0  0  0  0  0  0  0  0  0  0  0
   23.2647  -17.0434  -15.9361 C   0  0  0  0  0  0  0  0  0  0  0  0
   23.0110  -15.5789  -16.0486 C   0  0  0  0  0  0  0  0  0  0  0  0
   22.0831  -15.1797  -17.1499 C   0  0  2  0  0  0  0  0  0  0  0  0
   22.5623  -15.7929  -18.3819 N   0  0  0  0  0  0  0  0  0  0  0  0
   21.8284  -13.7488  -17.2994 C   0  0  0  0  0  0  0  0  0  0  0  0
   22.7786  -12.9388  -17.5394 O   0  0  0  0  0  0  0  0  0  0  0  0
   20.5322  -13.1286  -17.1936 N   0  0  0  0  0  0  0  0  0  0  0  0
   20.3628  -11.7024  -17.2595 C   0  0  1  0  0  0  0  0  0  0  0  0
   19.0242  -11.2312  -17.7066 C   0  0  0  0  0  0  0  0  0  0  0  0
   18.4211  -12.0250  -18.7845 C   0  0  0  0  0  0  0  0  0  0  0  0
   19.1164  -12.3398  -19.7769 O   0  0  0  0  0  0  0  0  0  0  0  0
   20.7892  -11.0436  -15.9809 C   0  0  0  0  0  0  0  0  0  0  0  0
   20.5823  -11.6029  -14.8555 O   0  0  0  0  0  0  0  0  0  0  0  0
   17.1004  -12.4447  -18.7499 O   0  0  0  0  0  0  0  0  0  0  0  0
   21.4356   -9.7852  -15.9453 N   0  0  0  0  0  0  0  0  0  0  0  0
   21.8282   -9.1396  -14.6766 C   0  0  1  0  0  0  0  0  0  0  0  0
   22.9555   -9.9638  -14.1449 C   0  0  0  0  0  0  0  0  0  0  0  0
   24.1905  -10.0121  -14.9485 C   0  0  0  0  0  0  0  0  0  0  0  0
   24.6733   -8.9593  -15.7628 C   0  0  0  0  0  0  0  0  0  0  0  0
   25.7935   -9.3877  -16.3486 N   0  0  0  0  0  0  0  0  0  0  0  0
   26.0971  -10.6271  -15.9965 C   0  0  0  0  0  0  0  0  0  0  0  0
   27.1708  -11.4520  -16.3495 C   0  0  0  0  0  0  0  0  0  0  0  0
   27.2202  -12.7121  -15.7898 C   0  0  0  0  0  0  0  0  0  0  0  0
   26.2356  -13.1388  -14.9083 C   0  0  0  0  0  0  0  0  0  0  0  0
   25.1978  -12.3106  -14.5820 C   0  0  0  0  0  0  0  0  0  0  0  0
   25.1073  -11.0241  -15.1269 C   0  0  0  0  0  0  0  0  0  0  0  0
   22.1564   -7.7402  -14.8458 C   0  0  0  0  0  0  0  0  0  0  0  0
   22.3710   -7.0652  -13.7780 O   0  0  0  0  0  0  0  0  0  0  0  0
   22.2635   -7.0755  -16.0463 O   0  0  0  0  0  0  0  0  0  0  0  0
  2  1  1  0
  3  2  2  0
  4  2  1  0
  5  4  1  0
  6  5  1  0
  6  7  1  6
  8  6  1  0
  8  9  2  0
 10  8  1  0
 11 10  1  0
 11 12  1  1
 13 12  1  0
 13 17  1  0
 14 13  2  0
 15 11  1  0
 16 15  2  0
 18 15  1  0
 19 20  1  6
 19 18  1  0
 21 20  1  0
 22 21  2  0
 23 22  1  0
 24 23  1  0
 24 29  2  0
 25 26  2  0
 25 24  1  0
 26 27  1  0
 27 28  2  0
 29 28  1  0
 29 21  1  0
 30 32  1  0
 30 19  1  0
 31 30  2  0
M  END
$$$$
