QDW.pdb
     RDKit          3D

 32 33  0  0  1  0  0  0  0  0999 V2000
   16.6107  -16.4746  -20.2947 N   0  0  0  0  0  0  0  0  0  0  0  0
   16.0844  -17.4482  -19.3633 C   0  0  0  0  0  0  0  0  0  0  0  0
   15.2763  -18.3146  -19.7669 O   0  0  0  0  0  0  0  0  0  0  0  0
   16.5560  -17.3380  -17.9660 C   0  0  0  0  0  0  0  0  0  0  0  0
   17.5738  -16.2656  -17.7764 C   0  0  0  0  0  0  0  0  0  0  0  0
   17.2512  -15.2673  -16.7122 C   0  0  2  0  0  0  0  0  0  0  0  0
   15.9136  -15.5618  -16.2144 N   0  0  0  0  0  0  0  0  0  0  0  0
   17.4185  -13.8602  -17.0679 C   0  0  0  0  0  0  0  0  0  0  0  0
   18.5684  -13.3863  -17.3318 O   0  0  0  0  0  0  0  0  0  0  0  0
   16.3474  -12.9001  -17.1521 N   0  0  0  0  0  0  0  0  0  0  0  0
   16.5784  -11.5330  -17.5322 C   0  0  1  0  0  0  0  0  0  0  0  0
   15.4762  -10.8775  -18.2866 C   0  0  0  0  0  0  0  0  0  0  0  0
   15.7459   -9.4917  -18.6898 C   0  0  0  0  0  0  0  0  0  0  0  0
   14.9331   -8.5926  -18.3763 O   0  0  0  0  0  0  0  0  0  0  0  0
   17.0205  -10.7087  -16.3593 C   0  0  0  0  0  0  0  0  0  0  0  0
   16.3384  -10.6813  -15.2841 O   0  0  0  0  0  0  0  0  0  0  0  0
   16.8740   -9.1328  -19.4110 O   0  0  0  0  0  0  0  0  0  0  0  0
   18.1995   -9.9261  -16.3729 N   0  0  0  0  0  0  0  0  0  0  0  0
   18.5476   -9.0111  -15.2675 C   0  0  1  0  0  0  0  0  0  0  0  0
   20.0058   -9.2246  -15.0206 C   0  0  0  0  0  0  0  0  0  0  0  0
   20.6993   -8.2273  -14.1854 C   0  0  0  0  0  0  0  0  0  0  0  0
   20.8074   -8.2807  -12.7748 C   0  0  0  0  0  0  0  0  0  0  0  0
   21.4777   -7.1950  -12.3831 N   0  0  0  0  0  0  0  0  0  0  0  0
   21.8240   -6.4279  -13.4049 C   0  0  0  0  0  0  0  0  0  0  0  0
   22.5368   -5.2250  -13.4582 C   0  0  0  0  0  0  0  0  0  0  0  0
   22.7583   -4.6674  -14.7007 C   0  0  0  0  0  0  0  0  0  0  0  0
   22.2874   -5.2844  -15.8523 C   0  0  0  0  0  0  0  0  0  0  0  0
   21.5936   -6.4596  -15.7691 C   0  0  0  0  0  0  0  0  0  0  0  0
   21.3450   -7.0604  -14.5292 C   0  0  0  0  0  0  0  0  0  0  0  0
   18.1987   -7.6364  -15.5559 C   0  0  0  0  0  0  0  0  0  0  0  0
   18.1930   -7.2896  -16.7894 O   0  0  0  0  0  0  0  0  0  0  0  0
   17.8686   -6.6754  -14.6275 O   0  0  0  0  0  0  0  0  0  0  0  0
  2  1  1  0
  3  2  2  0
  4  2  1  0
  5  4  1  0
  6  5  1  0
  6  7  1  6
  8  6  1  0
  8  9  2  0
 10  8  1  0
 11 10  1  0
 11 12  1  1
 13 12  1  0
 13 17  1  0
 14 13  2  0
 15 11  1  0
 16 15  2  0
 18 15  1  0
 19 20  1  6
 19 18  1  0
 21 20  1  0
 22 21  2  0
 23 22  1  0
 24 23  1  0
 24 29  2  0
 25 26  2  0
 25 24  1  0
 26 27  1  0
 27 28  2  0
 29 28  1  0
 29 21  1  0
 30 32  1  0
 30 19  1  0
 31 30  2  0
M  END
$$$$
