QDW.pdb
     RDKit          3D

 32 33  0  0  1  0  0  0  0  0999 V2000
   22.9134  -15.8079  -17.2260 N   0  0  0  0  0  0  0  0  0  0  0  0
   24.1579  -15.3039  -17.7639 C   0  0  0  0  0  0  0  0  0  0  0  0
   24.2411  -14.1029  -18.1065 O   0  0  0  0  0  0  0  0  0  0  0  0
   25.2660  -16.2775  -17.8708 C   0  0  0  0  0  0  0  0  0  0  0  0
   24.9104  -17.6264  -17.3455 C   0  0  0  0  0  0  0  0  0  0  0  0
   26.0474  -18.5922  -17.2587 C   0  0  2  0  0  0  0  0  0  0  0  0
   26.7027  -18.6285  -18.5598 N   0  0  0  0  0  0  0  0  0  0  0  0
   25.7307  -19.9264  -16.7544 C   0  0  0  0  0  0  0  0  0  0  0  0
   24.6571  -20.5152  -17.0966 O   0  0  0  0  0  0  0  0  0  0  0  0
   26.5619  -20.6840  -15.8537 N   0  0  0  0  0  0  0  0  0  0  0  0
   26.1952  -21.9992  -15.4034 C   0  0  1  0  0  0  0  0  0  0  0  0
   27.1613  -23.0842  -15.7243 C   0  0  0  0  0  0  0  0  0  0  0  0
   27.6584  -23.0765  -17.1058 C   0  0  0  0  0  0  0  0  0  0  0  0
   28.8392  -22.7263  -17.3307 O   0  0  0  0  0  0  0  0  0  0  0  0
   25.8233  -21.9933  -13.9500 C   0  0  0  0  0  0  0  0  0  0  0  0
   26.3389  -22.8291  -13.1390 O   0  0  0  0  0  0  0  0  0  0  0  0
   26.8674  -23.4437  -18.1833 O   0  0  0  0  0  0  0  0  0  0  0  0
   24.8958  -21.0772  -13.3996 N   0  0  0  0  0  0  0  0  0  0  0  0
   24.5063  -21.1139  -11.9757 C   0  0  1  0  0  0  0  0  0  0  0  0
   25.3177  -20.0471  -11.3152 C   0  0  0  0  0  0  0  0  0  0  0  0
   26.6463  -20.4317  -10.8052 C   0  0  0  0  0  0  0  0  0  0  0  0
   27.7282  -20.8738  -11.6043 C   0  0  0  0  0  0  0  0  0  0  0  0
   28.7440  -21.1520  -10.7844 N   0  0  0  0  0  0  0  0  0  0  0  0
   28.4344  -20.9341   -9.5159 C   0  0  0  0  0  0  0  0  0  0  0  0
   29.1854  -21.0737   -8.3436 C   0  0  0  0  0  0  0  0  0  0  0  0
   28.5765  -20.7422   -7.1507 C   0  0  0  0  0  0  0  0  0  0  0  0
   27.2649  -20.2867   -7.1231 C   0  0  0  0  0  0  0  0  0  0  0  0
   26.5554  -20.1606   -8.2851 C   0  0  0  0  0  0  0  0  0  0  0  0
   27.1332  -20.4865   -9.5181 C   0  0  0  0  0  0  0  0  0  0  0  0
   23.0791  -20.9633  -11.7880 C   0  0  0  0  0  0  0  0  0  0  0  0
   22.6457  -21.0305  -10.5840 O   0  0  0  0  0  0  0  0  0  0  0  0
   22.1521  -20.7497  -12.7827 O   0  0  0  0  0  0  0  0  0  0  0  0
  2  1  1  0
  3  2  2  0
  4  2  1  0
  5  4  1  0
  6  5  1  0
  6  7  1  6
  8  6  1  0
  8  9  2  0
 10  8  1  0
 11 10  1  0
 11 12  1  1
 13 12  1  0
 13 17  1  0
 14 13  2  0
 15 11  1  0
 16 15  2  0
 18 15  1  0
 19 20  1  1
 19 18  1  0
 21 20  1  0
 22 21  2  0
 23 22  1  0
 24 23  1  0
 24 29  2  0
 25 26  2  0
 25 24  1  0
 26 27  1  0
 27 28  2  0
 29 28  1  0
 29 21  1  0
 30 32  1  0
 30 19  1  0
 31 30  2  0
M  END
$$$$
