QDW.pdb
     RDKit          3D

 32 33  0  0  1  0  0  0  0  0999 V2000
   28.5568  -16.9877  -17.4140 N   0  0  0  0  0  0  0  0  0  0  0  0
   29.6655  -17.8891  -17.1891 C   0  0  0  0  0  0  0  0  0  0  0  0
   30.5854  -17.9595  -18.0349 O   0  0  0  0  0  0  0  0  0  0  0  0
   29.6217  -18.6808  -15.9407 C   0  0  0  0  0  0  0  0  0  0  0  0
   28.5004  -18.2889  -15.0401 C   0  0  0  0  0  0  0  0  0  0  0  0
   27.1393  -18.6817  -15.5156 C   0  0  2  0  0  0  0  0  0  0  0  0
   26.7353  -17.7334  -16.5457 N   0  0  0  0  0  0  0  0  0  0  0  0
   26.1170  -18.8596  -14.4871 C   0  0  0  0  0  0  0  0  0  0  0  0
   25.7099  -17.8741  -13.7947 O   0  0  0  0  0  0  0  0  0  0  0  0
   25.4897  -20.1146  -14.1592 N   0  0  0  0  0  0  0  0  0  0  0  0
   24.4281  -20.2061  -13.1941 C   0  0  1  0  0  0  0  0  0  0  0  0
   23.2003  -20.9122  -13.6497 C   0  0  0  0  0  0  0  0  0  0  0  0
   22.1310  -20.9960  -12.6471 C   0  0  0  0  0  0  0  0  0  0  0  0
   21.4007  -22.0124  -12.6129 O   0  0  0  0  0  0  0  0  0  0  0  0
   24.9272  -20.7410  -11.8843 C   0  0  0  0  0  0  0  0  0  0  0  0
   25.9274  -21.5281  -11.8370 O   0  0  0  0  0  0  0  0  0  0  0  0
   21.8928  -19.9868  -11.7272 O   0  0  0  0  0  0  0  0  0  0  0  0
   24.3310  -20.4111  -10.6441 N   0  0  0  0  0  0  0  0  0  0  0  0
   24.7509  -21.0440   -9.3777 C   0  0  1  0  0  0  0  0  0  0  0  0
   26.0918  -20.4613   -9.0691 C   0  0  0  0  0  0  0  0  0  0  0  0
   26.6670  -20.7621   -7.7455 C   0  0  0  0  0  0  0  0  0  0  0  0
   26.4155  -21.9371   -6.9967 C   0  0  0  0  0  0  0  0  0  0  0  0
   27.0884  -21.8320   -5.8488 N   0  0  0  0  0  0  0  0  0  0  0  0
   27.7627  -20.6956   -5.7689 C   0  0  0  0  0  0  0  0  0  0  0  0
   28.6001  -20.1855   -4.7707 C   0  0  0  0  0  0  0  0  0  0  0  0
   29.1849  -18.9559   -4.9933 C   0  0  0  0  0  0  0  0  0  0  0  0
   28.9461  -18.2560   -6.1687 C   0  0  0  0  0  0  0  0  0  0  0  0
   28.1227  -18.7796   -7.1265 C   0  0  0  0  0  0  0  0  0  0  0  0
   27.5075  -20.0237   -6.9423 C   0  0  0  0  0  0  0  0  0  0  0  0
   23.7786  -20.8656   -8.3206 C   0  0  0  0  0  0  0  0  0  0  0  0
   22.9094  -19.9389   -8.4870 O   0  0  0  0  0  0  0  0  0  0  0  0
   23.7021  -21.6033   -7.1612 O   0  0  0  0  0  0  0  0  0  0  0  0
  2  1  1  0
  3  2  2  0
  4  2  1  0
  5  4  1  0
  6  5  1  0
  6  7  1  6
  8  6  1  0
  8  9  2  0
 10  8  1  0
 11 10  1  0
 11 12  1  6
 13 12  1  0
 13 17  1  0
 14 13  2  0
 15 11  1  0
 16 15  2  0
 18 15  1  0
 19 20  1  1
 19 18  1  0
 21 20  1  0
 22 21  2  0
 23 22  1  0
 24 23  1  0
 24 29  2  0
 25 26  2  0
 25 24  1  0
 26 27  1  0
 27 28  2  0
 29 28  1  0
 29 21  1  0
 30 32  1  0
 30 19  1  0
 31 30  2  0
M  END
$$$$
