QDW.pdb
     RDKit          3D

 32 33  0  0  1  0  0  0  0  0999 V2000
   15.1402  -11.7269  -17.6898 N   0  0  0  0  0  0  0  0  0  0  0  0
   16.1515  -12.7201  -17.9781 C   0  0  0  0  0  0  0  0  0  0  0  0
   15.8597  -13.7114  -18.6844 O   0  0  0  0  0  0  0  0  0  0  0  0
   17.4897  -12.4788  -17.3964 C   0  0  0  0  0  0  0  0  0  0  0  0
   17.5596  -11.2247  -16.5937 C   0  0  0  0  0  0  0  0  0  0  0  0
   18.2975  -10.0984  -17.2418 C   0  0  2  0  0  0  0  0  0  0  0  0
   19.4316  -10.6631  -17.9617 N   0  0  0  0  0  0  0  0  0  0  0  0
   18.6825   -8.9881  -16.3738 C   0  0  0  0  0  0  0  0  0  0  0  0
   17.8336   -8.4368  -15.6043 O   0  0  0  0  0  0  0  0  0  0  0  0
   20.0054   -8.4217  -16.3006 N   0  0  0  0  0  0  0  0  0  0  0  0
   20.2996   -7.2775  -15.4814 C   0  0  1  0  0  0  0  0  0  0  0  0
   21.5783   -7.3379  -14.7231 C   0  0  0  0  0  0  0  0  0  0  0  0
   21.6385   -8.3910  -13.7018 C   0  0  0  0  0  0  0  0  0  0  0  0
   20.5884   -8.7353  -13.1134 O   0  0  0  0  0  0  0  0  0  0  0  0
   20.1715   -6.0020  -16.2609 C   0  0  0  0  0  0  0  0  0  0  0  0
   21.0060   -5.7079  -17.1769 O   0  0  0  0  0  0  0  0  0  0  0  0
   22.8213   -9.0265  -13.3572 O   0  0  0  0  0  0  0  0  0  0  0  0
   19.1362   -5.0647  -16.0326 N   0  0  0  0  0  0  0  0  0  0  0  0
   19.0474   -3.7949  -16.7811 C   0  0  1  0  0  0  0  0  0  0  0  0
   17.7245   -3.8354  -17.4748 C   0  0  0  0  0  0  0  0  0  0  0  0
   17.3678   -2.6746  -18.3105 C   0  0  0  0  0  0  0  0  0  0  0  0
   18.1147   -2.2102  -19.4199 C   0  0  0  0  0  0  0  0  0  0  0  0
   17.4924   -1.1304  -19.8978 N   0  0  0  0  0  0  0  0  0  0  0  0
   16.4017   -0.8376  -19.2071 C   0  0  0  0  0  0  0  0  0  0  0  0
   15.4544    0.1804  -19.3623 C   0  0  0  0  0  0  0  0  0  0  0  0
   14.3969    0.2104  -18.4767 C   0  0  0  0  0  0  0  0  0  0  0  0
   14.2838   -0.7396  -17.4702 C   0  0  0  0  0  0  0  0  0  0  0  0
   15.2252   -1.7230  -17.3428 C   0  0  0  0  0  0  0  0  0  0  0  0
   16.3154   -1.7910  -18.2187 C   0  0  0  0  0  0  0  0  0  0  0  0
   19.2263   -2.6373  -15.9308 C   0  0  0  0  0  0  0  0  0  0  0  0
   18.7923   -2.7322  -14.7290 O   0  0  0  0  0  0  0  0  0  0  0  0
   19.8234   -1.4522  -16.2957 O   0  0  0  0  0  0  0  0  0  0  0  0
  2  1  1  0
  3  2  2  0
  4  2  1  0
  5  4  1  0
  6  5  1  0
  6  7  1  1
  8  6  1  0
  8  9  2  0
 10  8  1  0
 11 10  1  0
 11 12  1  6
 13 12  1  0
 13 17  1  0
 14 13  2  0
 15 11  1  0
 16 15  2  0
 18 15  1  0
 19 20  1  1
 19 18  1  0
 21 20  1  0
 22 21  2  0
 23 22  1  0
 24 23  1  0
 24 29  2  0
 25 26  2  0
 25 24  1  0
 26 27  1  0
 27 28  2  0
 29 28  1  0
 29 21  1  0
 30 32  1  0
 30 19  1  0
 31 30  2  0
M  END
$$$$
