QDW.pdb
     RDKit          3D

 32 33  0  0  1  0  0  0  0  0999 V2000
   26.7748   -8.7950  -20.6332 N   0  0  0  0  0  0  0  0  0  0  0  0
   28.0047   -9.1828  -19.9780 C   0  0  0  0  0  0  0  0  0  0  0  0
   28.8695   -8.3143  -19.7243 O   0  0  0  0  0  0  0  0  0  0  0  0
   28.1473  -10.6182  -19.6516 C   0  0  0  0  0  0  0  0  0  0  0  0
   29.4009  -10.9254  -18.9059 C   0  0  0  0  0  0  0  0  0  0  0  0
   30.6496  -10.8939  -19.7262 C   0  0  2  0  0  0  0  0  0  0  0  0
   30.3872  -11.6124  -20.9665 N   0  0  0  0  0  0  0  0  0  0  0  0
   31.8728  -11.3446  -19.0666 C   0  0  0  0  0  0  0  0  0  0  0  0
   32.1342  -10.9999  -17.8710 O   0  0  0  0  0  0  0  0  0  0  0  0
   32.8712  -12.1884  -19.6727 N   0  0  0  0  0  0  0  0  0  0  0  0
   34.0400  -12.6207  -18.9558 C   0  0  1  0  0  0  0  0  0  0  0  0
   34.5457  -13.9762  -19.3029 C   0  0  0  0  0  0  0  0  0  0  0  0
   33.5825  -15.0644  -19.0935 C   0  0  0  0  0  0  0  0  0  0  0  0
   32.8077  -15.0168  -18.1113 O   0  0  0  0  0  0  0  0  0  0  0  0
   35.1263  -11.5874  -19.0114 C   0  0  0  0  0  0  0  0  0  0  0  0
   35.3612  -10.9415  -20.0836 O   0  0  0  0  0  0  0  0  0  0  0  0
   33.4940  -16.1540  -19.9458 O   0  0  0  0  0  0  0  0  0  0  0  0
   35.9413  -11.2712  -17.8986 N   0  0  0  0  0  0  0  0  0  0  0  0
   36.9941  -10.2379  -17.9646 C   0  0  1  0  0  0  0  0  0  0  0  0
   36.2795   -8.9636  -18.2781 C   0  0  0  0  0  0  0  0  0  0  0  0
   35.3864   -8.4203  -17.2388 C   0  0  0  0  0  0  0  0  0  0  0  0
   35.7124   -8.3020  -15.8661 C   0  0  0  0  0  0  0  0  0  0  0  0
   34.6458   -7.7957  -15.2435 N   0  0  0  0  0  0  0  0  0  0  0  0
   33.6438   -7.5673  -16.0779 C   0  0  0  0  0  0  0  0  0  0  0  0
   32.3664   -7.0372  -15.8657 C   0  0  0  0  0  0  0  0  0  0  0  0
   31.5398   -6.9024  -16.9621 C   0  0  0  0  0  0  0  0  0  0  0  0
   31.9679   -7.2814  -18.2276 C   0  0  0  0  0  0  0  0  0  0  0  0
   33.2219   -7.7968  -18.4044 C   0  0  0  0  0  0  0  0  0  0  0  0
   34.0938   -7.9521  -17.3200 C   0  0  0  0  0  0  0  0  0  0  0  0
   37.7896  -10.1801  -16.7568 C   0  0  0  0  0  0  0  0  0  0  0  0
   37.3916  -10.8934  -15.7696 O   0  0  0  0  0  0  0  0  0  0  0  0
   38.9330   -9.4350  -16.5781 O   0  0  0  0  0  0  0  0  0  0  0  0
  2  1  1  0
  3  2  2  0
  4  2  1  0
  5  4  1  0
  6  5  1  0
  6  7  1  6
  8  6  1  0
  8  9  2  0
 10  8  1  0
 11 10  1  0
 11 12  1  6
 13 12  1  0
 13 17  1  0
 14 13  2  0
 15 11  1  0
 16 15  2  0
 18 15  1  0
 19 20  1  1
 19 18  1  0
 21 20  1  0
 22 21  2  0
 23 22  1  0
 24 23  1  0
 24 29  2  0
 25 26  2  0
 25 24  1  0
 26 27  1  0
 27 28  2  0
 29 28  1  0
 29 21  1  0
 30 32  1  0
 30 19  1  0
 31 30  2  0
M  END
$$$$
