QDW.pdb
     RDKit          3D

 32 33  0  0  1  0  0  0  0  0999 V2000
   30.6531  -31.2532  -18.4759 N   0  0  0  0  0  0  0  0  0  0  0  0
   31.4586  -32.1614  -17.6895 C   0  0  0  0  0  0  0  0  0  0  0  0
   32.7013  -32.1716  -17.8387 O   0  0  0  0  0  0  0  0  0  0  0  0
   30.7276  -33.0329  -16.7444 C   0  0  0  0  0  0  0  0  0  0  0  0
   29.2774  -32.7020  -16.6478 C   0  0  0  0  0  0  0  0  0  0  0  0
   28.9143  -31.7628  -15.5436 C   0  0  2  0  0  0  0  0  0  0  0  0
   28.2463  -32.5340  -14.5031 N   0  0  0  0  0  0  0  0  0  0  0  0
   28.1626  -30.5696  -15.9253 C   0  0  0  0  0  0  0  0  0  0  0  0
   26.8932  -30.5924  -15.9937 O   0  0  0  0  0  0  0  0  0  0  0  0
   28.7517  -29.2962  -16.2530 N   0  0  0  0  0  0  0  0  0  0  0  0
   27.9541  -28.1676  -16.6495 C   0  0  1  0  0  0  0  0  0  0  0  0
   28.5902  -26.8341  -16.4743 C   0  0  0  0  0  0  0  0  0  0  0  0
   27.6993  -25.6916  -16.7129 C   0  0  0  0  0  0  0  0  0  0  0  0
   26.5157  -25.8997  -17.0639 O   0  0  0  0  0  0  0  0  0  0  0  0
   27.4054  -28.3479  -18.0342 C   0  0  0  0  0  0  0  0  0  0  0  0
   28.1811  -28.4161  -19.0420 O   0  0  0  0  0  0  0  0  0  0  0  0
   28.1176  -24.3783  -16.5649 O   0  0  0  0  0  0  0  0  0  0  0  0
   26.0199  -28.4520  -18.3023 N   0  0  0  0  0  0  0  0  0  0  0  0
   25.5018  -28.7613  -19.6501 C   0  0  1  0  0  0  0  0  0  0  0  0
   24.1639  -29.3881  -19.4262 C   0  0  0  0  0  0  0  0  0  0  0  0
   23.0819  -28.5096  -18.9457 C   0  0  0  0  0  0  0  0  0  0  0  0
   22.8864  -27.1657  -19.3459 C   0  0  0  0  0  0  0  0  0  0  0  0
   21.8292  -26.6989  -18.6782 N   0  0  0  0  0  0  0  0  0  0  0  0
   21.3064  -27.6104  -17.8731 C   0  0  0  0  0  0  0  0  0  0  0  0
   20.2026  -27.5618  -17.0145 C   0  0  0  0  0  0  0  0  0  0  0  0
   19.8914  -28.7051  -16.3077 C   0  0  0  0  0  0  0  0  0  0  0  0
   20.6515  -29.8587  -16.4490 C   0  0  0  0  0  0  0  0  0  0  0  0
   21.7250  -29.8764  -17.2956 C   0  0  0  0  0  0  0  0  0  0  0  0
   22.0775  -28.7389  -18.0319 C   0  0  0  0  0  0  0  0  0  0  0  0
   25.4656  -27.5976  -20.5098 C   0  0  0  0  0  0  0  0  0  0  0  0
   25.2216  -27.8049  -21.7506 O   0  0  0  0  0  0  0  0  0  0  0  0
   25.6633  -26.2945  -20.1134 O   0  0  0  0  0  0  0  0  0  0  0  0
  2  1  1  0
  3  2  2  0
  4  2  1  0
  5  4  1  0
  6  5  1  0
  6  7  1  1
  8  6  1  0
  8  9  2  0
 10  8  1  0
 11 10  1  0
 11 12  1  6
 13 12  1  0
 13 17  1  0
 14 13  2  0
 15 11  1  0
 16 15  2  0
 18 15  1  0
 19 20  1  1
 19 18  1  0
 21 20  1  0
 22 21  2  0
 23 22  1  0
 24 23  1  0
 24 29  2  0
 25 26  2  0
 25 24  1  0
 26 27  1  0
 27 28  2  0
 29 28  1  0
 29 21  1  0
 30 32  1  0
 30 19  1  0
 31 30  2  0
M  END
$$$$
