QDW.pdb
     RDKit          3D

 32 33  0  0  1  0  0  0  0  0999 V2000
   32.2780  -17.2577  -17.4445 N   0  0  0  0  0  0  0  0  0  0  0  0
   31.0901  -16.4481  -17.2835 C   0  0  0  0  0  0  0  0  0  0  0  0
   30.9940  -15.6820  -16.2984 O   0  0  0  0  0  0  0  0  0  0  0  0
   30.0518  -16.5959  -18.3262 C   0  0  0  0  0  0  0  0  0  0  0  0
   28.7986  -17.2221  -17.8172 C   0  0  0  0  0  0  0  0  0  0  0  0
   28.9972  -18.4289  -16.9585 C   0  0  2  0  0  0  0  0  0  0  0  0
   30.0900  -19.2070  -17.5276 N   0  0  0  0  0  0  0  0  0  0  0  0
   27.8118  -19.2405  -16.6928 C   0  0  0  0  0  0  0  0  0  0  0  0
   26.7212  -18.7011  -16.3239 O   0  0  0  0  0  0  0  0  0  0  0  0
   27.7535  -20.6752  -16.8124 N   0  0  0  0  0  0  0  0  0  0  0  0
   26.5550  -21.4153  -16.5246 C   0  0  1  0  0  0  0  0  0  0  0  0
   26.2851  -22.5780  -17.4129 C   0  0  0  0  0  0  0  0  0  0  0  0
   26.5624  -22.3428  -18.8354 C   0  0  0  0  0  0  0  0  0  0  0  0
   25.8691  -21.5128  -19.4662 O   0  0  0  0  0  0  0  0  0  0  0  0
   26.4818  -21.7910  -15.0740 C   0  0  0  0  0  0  0  0  0  0  0  0
   27.2510  -22.6827  -14.5890 O   0  0  0  0  0  0  0  0  0  0  0  0
   27.5696  -23.0080  -19.5170 O   0  0  0  0  0  0  0  0  0  0  0  0
   25.5725  -21.1901  -14.1713 N   0  0  0  0  0  0  0  0  0  0  0  0
   25.1613  -21.8493  -12.9156 C   0  0  1  0  0  0  0  0  0  0  0  0
   26.4307  -22.1160  -12.1739 C   0  0  0  0  0  0  0  0  0  0  0  0
   26.6365  -21.3866  -10.9094 C   0  0  0  0  0  0  0  0  0  0  0  0
   25.6132  -20.7699  -10.1497 C   0  0  0  0  0  0  0  0  0  0  0  0
   26.1911  -20.1915   -9.0948 N   0  0  0  0  0  0  0  0  0  0  0  0
   27.5029  -20.3690   -9.0857 C   0  0  0  0  0  0  0  0  0  0  0  0
   28.4854  -19.9577   -8.1784 C   0  0  0  0  0  0  0  0  0  0  0  0
   29.7901  -20.3224   -8.4398 C   0  0  0  0  0  0  0  0  0  0  0  0
   30.1085  -21.0712   -9.5652 C   0  0  0  0  0  0  0  0  0  0  0  0
   29.1268  -21.4587  -10.4344 C   0  0  0  0  0  0  0  0  0  0  0  0
   27.7897  -21.1103  -10.2090 C   0  0  0  0  0  0  0  0  0  0  0  0
   24.2009  -21.0661  -12.1679 C   0  0  0  0  0  0  0  0  0  0  0  0
   23.6399  -21.6415  -11.1699 O   0  0  0  0  0  0  0  0  0  0  0  0
   23.8433  -19.7630  -12.4294 O   0  0  0  0  0  0  0  0  0  0  0  0
  2  1  1  0
  3  2  2  0
  4  2  1  0
  5  4  1  0
  6  5  1  0
  6  7  1  6
  8  6  1  0
  8  9  2  0
 10  8  1  0
 11 10  1  0
 11 12  1  6
 13 12  1  0
 13 17  1  0
 14 13  2  0
 15 11  1  0
 16 15  2  0
 18 15  1  0
 19 20  1  1
 19 18  1  0
 21 20  1  0
 22 21  2  0
 23 22  1  0
 24 23  1  0
 24 29  2  0
 25 26  2  0
 25 24  1  0
 26 27  1  0
 27 28  2  0
 29 28  1  0
 29 21  1  0
 30 32  1  0
 30 19  1  0
 31 30  2  0
M  END
$$$$
