QDW.pdb
     RDKit          3D

 32 33  0  0  1  0  0  0  0  0999 V2000
   19.4549  -24.9273    4.1228 N   0  0  0  0  0  0  0  0  0  0  0  0
   18.8813  -26.1123    4.7220 C   0  0  0  0  0  0  0  0  0  0  0  0
   19.6359  -27.0044    5.1707 O   0  0  0  0  0  0  0  0  0  0  0  0
   17.4042  -26.1782    4.7564 C   0  0  0  0  0  0  0  0  0  0  0  0
   16.7528  -24.9369    4.2497 C   0  0  0  0  0  0  0  0  0  0  0  0
   16.6119  -23.8400    5.2548 C   0  0  2  0  0  0  0  0  0  0  0  0
   15.6588  -24.2801    6.2654 N   0  0  0  0  0  0  0  0  0  0  0  0
   16.2981  -22.5131    4.7300 C   0  0  0  0  0  0  0  0  0  0  0  0
   16.9997  -21.9947    3.8050 O   0  0  0  0  0  0  0  0  0  0  0  0
   15.2103  -21.6849    5.1848 N   0  0  0  0  0  0  0  0  0  0  0  0
   14.9889  -20.3639    4.6622 C   0  0  1  0  0  0  0  0  0  0  0  0
   13.5652  -19.9700    4.4848 C   0  0  0  0  0  0  0  0  0  0  0  0
   13.3621  -18.5986    4.0013 C   0  0  0  0  0  0  0  0  0  0  0  0
   14.3220  -17.9814    3.4867 O   0  0  0  0  0  0  0  0  0  0  0  0
   15.7614  -19.3359    5.4349 C   0  0  0  0  0  0  0  0  0  0  0  0
   15.6595  -19.2562    6.7019 O   0  0  0  0  0  0  0  0  0  0  0  0
   12.1397  -17.9512    4.0920 O   0  0  0  0  0  0  0  0  0  0  0  0
   16.6347  -18.4092    4.8174 N   0  0  0  0  0  0  0  0  0  0  0  0
   17.4873  -17.4920    5.6000 C   0  0  1  0  0  0  0  0  0  0  0  0
   18.7648  -17.3865    4.8321 C   0  0  0  0  0  0  0  0  0  0  0  0
   18.8795  -16.2781    3.8669 C   0  0  0  0  0  0  0  0  0  0  0  0
   18.1298  -15.0780    3.9129 C   0  0  0  0  0  0  0  0  0  0  0  0
   18.4925  -14.3389    2.8623 N   0  0  0  0  0  0  0  0  0  0  0  0
   19.4138  -14.9391    2.1253 C   0  0  0  0  0  0  0  0  0  0  0  0
   20.0796  -14.5308    0.9643 C   0  0  0  0  0  0  0  0  0  0  0  0
   21.0205  -15.3880    0.4317 C   0  0  0  0  0  0  0  0  0  0  0  0
   21.2912  -16.6104    1.0324 C   0  0  0  0  0  0  0  0  0  0  0  0
   20.6244  -16.9827    2.1665 C   0  0  0  0  0  0  0  0  0  0  0  0
   19.6611  -16.1447    2.7409 C   0  0  0  0  0  0  0  0  0  0  0  0
   16.8476  -16.2177    5.8483 C   0  0  0  0  0  0  0  0  0  0  0  0
   15.7925  -15.9601    5.1683 O   0  0  0  0  0  0  0  0  0  0  0  0
   17.2670  -15.2658    6.7496 O   0  0  0  0  0  0  0  0  0  0  0  0
  2  1  1  0
  3  2  2  0
  4  2  1  0
  5  4  1  0
  6  5  1  0
  6  7  1  1
  8  6  1  0
  8  9  2  0
 10  8  1  0
 11 10  1  0
 11 12  1  1
 13 12  1  0
 13 17  1  0
 14 13  2  0
 15 11  1  0
 16 15  2  0
 18 15  1  0
 19 20  1  6
 19 18  1  0
 21 20  1  0
 22 21  2  0
 23 22  1  0
 24 23  1  0
 24 29  2  0
 25 26  2  0
 25 24  1  0
 26 27  1  0
 27 28  2  0
 29 28  1  0
 29 21  1  0
 30 32  1  0
 30 19  1  0
 31 30  2  0
M  END
$$$$
