QDW.pdb
     RDKit          3D

 32 33  0  0  1  0  0  0  0  0999 V2000
   27.8852  -21.4621  -10.4372 N   0  0  0  0  0  0  0  0  0  0  0  0
   28.9733  -20.5571  -10.7360 C   0  0  0  0  0  0  0  0  0  0  0  0
   30.0651  -20.6855  -10.1375 O   0  0  0  0  0  0  0  0  0  0  0  0
   28.7005  -19.5200  -11.7544 C   0  0  0  0  0  0  0  0  0  0  0  0
   27.3460  -19.6432  -12.3644 C   0  0  0  0  0  0  0  0  0  0  0  0
   27.1925  -20.7597  -13.3456 C   0  0  2  0  0  0  0  0  0  0  0  0
   28.2201  -20.6012  -14.3667 N   0  0  0  0  0  0  0  0  0  0  0  0
   25.8605  -20.9456  -13.9165 C   0  0  0  0  0  0  0  0  0  0  0  0
   25.4373  -20.1875  -14.8454 O   0  0  0  0  0  0  0  0  0  0  0  0
   24.9239  -21.9605  -13.5059 N   0  0  0  0  0  0  0  0  0  0  0  0
   23.6358  -22.1046  -14.1280 C   0  0  1  0  0  0  0  0  0  0  0  0
   23.0527  -23.4730  -14.0959 C   0  0  0  0  0  0  0  0  0  0  0  0
   23.8557  -24.4998  -14.7716 C   0  0  0  0  0  0  0  0  0  0  0  0
   24.4798  -24.2018  -15.8152 O   0  0  0  0  0  0  0  0  0  0  0  0
   22.6695  -21.0730  -13.6251 C   0  0  0  0  0  0  0  0  0  0  0  0
   22.3447  -21.0251  -12.3945 O   0  0  0  0  0  0  0  0  0  0  0  0
   23.9527  -25.7992  -14.2985 O   0  0  0  0  0  0  0  0  0  0  0  0
   22.0707  -20.1075  -14.4687 N   0  0  0  0  0  0  0  0  0  0  0  0
   21.1484  -19.0767  -13.9518 C   0  0  1  0  0  0  0  0  0  0  0  0
   21.6696  -17.7789  -14.4779 C   0  0  0  0  0  0  0  0  0  0  0  0
   21.7446  -17.6287  -15.9424 C   0  0  0  0  0  0  0  0  0  0  0  0
   20.6314  -17.4676  -16.8022 C   0  0  0  0  0  0  0  0  0  0  0  0
   21.0972  -17.3932  -18.0507 N   0  0  0  0  0  0  0  0  0  0  0  0
   22.4167  -17.4895  -18.0967 C   0  0  0  0  0  0  0  0  0  0  0  0
   23.3100  -17.4472  -19.1728 C   0  0  0  0  0  0  0  0  0  0  0  0
   24.6561  -17.5581  -18.8913 C   0  0  0  0  0  0  0  0  0  0  0  0
   25.1003  -17.7059  -17.5839 C   0  0  0  0  0  0  0  0  0  0  0  0
   24.2038  -17.7441  -16.5523 C   0  0  0  0  0  0  0  0  0  0  0  0
   22.8286  -17.6362  -16.7920 C   0  0  0  0  0  0  0  0  0  0  0  0
   19.7698  -19.3395  -14.3056 C   0  0  0  0  0  0  0  0  0  0  0  0
   19.5651  -20.2275  -15.2065 O   0  0  0  0  0  0  0  0  0  0  0  0
   18.6651  -18.7274  -13.7586 O   0  0  0  0  0  0  0  0  0  0  0  0
  2  1  1  0
  3  2  2  0
  4  2  1  0
  5  4  1  0
  6  5  1  0
  6  7  1  6
  8  6  1  0
  8  9  2  0
 10  8  1  0
 11 10  1  0
 11 12  1  1
 13 12  1  0
 13 17  1  0
 14 13  2  0
 15 11  1  0
 16 15  2  0
 18 15  1  0
 19 20  1  6
 19 18  1  0
 21 20  1  0
 22 21  2  0
 23 22  1  0
 24 23  1  0
 24 29  2  0
 25 26  2  0
 25 24  1  0
 26 27  1  0
 27 28  2  0
 29 28  1  0
 29 21  1  0
 30 32  1  0
 30 19  1  0
 31 30  2  0
M  END
$$$$
