QDW.pdb
     RDKit          3D

 32 33  0  0  1  0  0  0  0  0999 V2000
   24.3383  -15.1580  -18.2171 N   0  0  0  0  0  0  0  0  0  0  0  0
   23.5198  -16.3399  -18.0579 C   0  0  0  0  0  0  0  0  0  0  0  0
   23.5293  -17.2217  -18.9462 O   0  0  0  0  0  0  0  0  0  0  0  0
   22.7113  -16.4138  -16.8218 C   0  0  0  0  0  0  0  0  0  0  0  0
   22.7727  -17.7497  -16.1633 C   0  0  0  0  0  0  0  0  0  0  0  0
   23.8385  -17.8961  -15.1260 C   0  0  2  0  0  0  0  0  0  0  0  0
   25.1215  -17.6289  -15.7632 N   0  0  0  0  0  0  0  0  0  0  0  0
   23.8402  -19.1443  -14.3667 C   0  0  0  0  0  0  0  0  0  0  0  0
   22.7744  -19.5824  -13.8293 O   0  0  0  0  0  0  0  0  0  0  0  0
   24.9977  -19.9751  -14.1524 N   0  0  0  0  0  0  0  0  0  0  0  0
   24.9032  -21.2658  -13.5261 C   0  0  1  0  0  0  0  0  0  0  0  0
   25.4140  -22.4110  -14.3268 C   0  0  0  0  0  0  0  0  0  0  0  0
   26.7530  -22.2147  -14.8963 C   0  0  0  0  0  0  0  0  0  0  0  0
   27.4660  -23.2133  -15.1449 O   0  0  0  0  0  0  0  0  0  0  0  0
   25.4875  -21.2448  -12.1444 C   0  0  0  0  0  0  0  0  0  0  0  0
   26.7327  -21.0480  -11.9631 O   0  0  0  0  0  0  0  0  0  0  0  0
   27.2669  -20.9574  -15.1729 O   0  0  0  0  0  0  0  0  0  0  0  0
   24.7079  -21.4379  -10.9793 N   0  0  0  0  0  0  0  0  0  0  0  0
   25.3018  -21.4333   -9.6273 C   0  0  1  0  0  0  0  0  0  0  0  0
   26.0820  -20.1618   -9.5416 C   0  0  0  0  0  0  0  0  0  0  0  0
   27.4079  -20.2285   -8.9006 C   0  0  0  0  0  0  0  0  0  0  0  0
   28.5601  -20.8188   -9.4736 C   0  0  0  0  0  0  0  0  0  0  0  0
   29.5504  -20.7079   -8.5857 N   0  0  0  0  0  0  0  0  0  0  0  0
   29.1599  -20.0979   -7.4776 C   0  0  0  0  0  0  0  0  0  0  0  0
   29.8578  -19.7605   -6.3127 C   0  0  0  0  0  0  0  0  0  0  0  0
   29.1646  -19.0968   -5.3215 C   0  0  0  0  0  0  0  0  0  0  0  0
   27.8225  -18.7784   -5.4821 C   0  0  0  0  0  0  0  0  0  0  0  0
   27.1664  -19.1211   -6.6317 C   0  0  0  0  0  0  0  0  0  0  0  0
   27.8303  -19.7961   -7.6632 C   0  0  0  0  0  0  0  0  0  0  0  0
   24.3079  -21.5806   -8.5855 C   0  0  0  0  0  0  0  0  0  0  0  0
   24.7329  -21.9326   -7.4290 O   0  0  0  0  0  0  0  0  0  0  0  0
   22.9548  -21.3713   -8.7252 O   0  0  0  0  0  0  0  0  0  0  0  0
  2  1  1  0
  3  2  2  0
  4  2  1  0
  5  4  1  0
  6  5  1  0
  6  7  1  6
  8  6  1  0
  8  9  2  0
 10  8  1  0
 11 10  1  0
 11 12  1  6
 13 12  1  0
 13 17  1  0
 14 13  2  0
 15 11  1  0
 16 15  2  0
 18 15  1  0
 19 20  1  1
 19 18  1  0
 21 20  1  0
 22 21  2  0
 23 22  1  0
 24 23  1  0
 24 29  2  0
 25 26  2  0
 25 24  1  0
 26 27  1  0
 27 28  2  0
 29 28  1  0
 29 21  1  0
 30 32  1  0
 30 19  1  0
 31 30  2  0
M  END
$$$$
