QDW.pdb
     RDKit          3D

 32 33  0  0  1  0  0  0  0  0999 V2000
   32.3610  -18.6295  -18.3823 N   0  0  0  0  0  0  0  0  0  0  0  0
   31.6857  -17.3517  -18.3250 C   0  0  0  0  0  0  0  0  0  0  0  0
   32.3543  -16.3069  -18.1573 O   0  0  0  0  0  0  0  0  0  0  0  0
   30.2144  -17.3824  -18.4718 C   0  0  0  0  0  0  0  0  0  0  0  0
   29.4964  -17.3302  -17.1666 C   0  0  0  0  0  0  0  0  0  0  0  0
   29.0521  -18.6542  -16.6348 C   0  0  2  0  0  0  0  0  0  0  0  0
   28.9786  -19.5834  -17.7550 N   0  0  0  0  0  0  0  0  0  0  0  0
   27.8352  -18.6554  -15.8263 C   0  0  0  0  0  0  0  0  0  0  0  0
   27.7103  -17.8697  -14.8345 O   0  0  0  0  0  0  0  0  0  0  0  0
   26.6975  -19.5098  -16.0534 N   0  0  0  0  0  0  0  0  0  0  0  0
   25.4773  -19.3678  -15.3066 C   0  0  1  0  0  0  0  0  0  0  0  0
   24.2282  -19.3208  -16.1135 C   0  0  0  0  0  0  0  0  0  0  0  0
   24.1659  -18.2237  -17.0874 C   0  0  0  0  0  0  0  0  0  0  0  0
   24.4744  -17.0653  -16.7266 O   0  0  0  0  0  0  0  0  0  0  0  0
   25.3926  -20.3810  -14.2035 C   0  0  0  0  0  0  0  0  0  0  0  0
   26.0579  -21.4657  -14.2584 O   0  0  0  0  0  0  0  0  0  0  0  0
   23.7753  -18.4181  -18.4031 O   0  0  0  0  0  0  0  0  0  0  0  0
   24.5853  -20.1991  -13.0556 N   0  0  0  0  0  0  0  0  0  0  0  0
   24.4768  -21.2268  -12.0008 C   0  0  1  0  0  0  0  0  0  0  0  0
   25.8746  -21.4546  -11.5243 C   0  0  0  0  0  0  0  0  0  0  0  0
   26.2480  -20.8613  -10.2275 C   0  0  0  0  0  0  0  0  0  0  0  0
   25.3825  -20.1086   -9.3975 C   0  0  0  0  0  0  0  0  0  0  0  0
   26.0864  -19.7215   -8.3316 N   0  0  0  0  0  0  0  0  0  0  0  0
   27.3382  -20.1493   -8.3792 C   0  0  0  0  0  0  0  0  0  0  0  0
   28.4029  -19.9945   -7.4846 C   0  0  0  0  0  0  0  0  0  0  0  0
   29.6050  -20.5868   -7.8126 C   0  0  0  0  0  0  0  0  0  0  0  0
   29.7451  -21.3093   -8.9903 C   0  0  0  0  0  0  0  0  0  0  0  0
   28.6868  -21.4434   -9.8456 C   0  0  0  0  0  0  0  0  0  0  0  0
   27.4488  -20.8584   -9.5532 C   0  0  0  0  0  0  0  0  0  0  0  0
   23.5559  -20.8475  -10.9508 C   0  0  0  0  0  0  0  0  0  0  0  0
   23.1635  -19.6277  -10.9409 O   0  0  0  0  0  0  0  0  0  0  0  0
   23.0624  -21.6783   -9.9706 O   0  0  0  0  0  0  0  0  0  0  0  0
  2  1  1  0
  3  2  2  0
  4  2  1  0
  5  4  1  0
  6  5  1  0
  6  7  1  6
  8  6  1  0
  8  9  2  0
 10  8  1  0
 11 10  1  0
 11 12  1  6
 13 12  1  0
 13 17  1  0
 14 13  2  0
 15 11  1  0
 16 15  2  0
 18 15  1  0
 19 20  1  1
 19 18  1  0
 21 20  1  0
 22 21  2  0
 23 22  1  0
 24 23  1  0
 24 29  2  0
 25 26  2  0
 25 24  1  0
 26 27  1  0
 27 28  2  0
 29 28  1  0
 29 21  1  0
 30 32  1  0
 30 19  1  0
 31 30  2  0
M  END
$$$$
