QDW.pdb
     RDKit          3D

 32 33  0  0  1  0  0  0  0  0999 V2000
   27.1059  -19.9239  -19.0315 N   0  0  0  0  0  0  0  0  0  0  0  0
   28.4839  -20.1237  -19.4231 C   0  0  0  0  0  0  0  0  0  0  0  0
   28.7913  -21.1223  -20.1123 O   0  0  0  0  0  0  0  0  0  0  0  0
   29.4493  -19.1023  -18.9628 C   0  0  0  0  0  0  0  0  0  0  0  0
   28.8755  -18.1716  -17.9497 C   0  0  0  0  0  0  0  0  0  0  0  0
   28.6911  -18.7550  -16.5863 C   0  0  2  0  0  0  0  0  0  0  0  0
   29.0057  -20.1758  -16.6624 N   0  0  0  0  0  0  0  0  0  0  0  0
   27.4070  -18.5002  -15.9379 C   0  0  0  0  0  0  0  0  0  0  0  0
   26.8209  -17.3795  -16.0691 O   0  0  0  0  0  0  0  0  0  0  0  0
   26.6988  -19.4475  -15.1149 N   0  0  0  0  0  0  0  0  0  0  0  0
   25.2999  -19.3011  -14.8170 C   0  0  1  0  0  0  0  0  0  0  0  0
   24.3930  -19.2302  -15.9942 C   0  0  0  0  0  0  0  0  0  0  0  0
   22.9746  -19.0375  -15.6673 C   0  0  0  0  0  0  0  0  0  0  0  0
   22.2726  -20.0316  -15.3732 O   0  0  0  0  0  0  0  0  0  0  0  0
   24.8448  -20.3271  -13.8215 C   0  0  0  0  0  0  0  0  0  0  0  0
   25.3177  -21.5096  -13.8373 O   0  0  0  0  0  0  0  0  0  0  0  0
   22.3732  -17.7886  -15.6710 O   0  0  0  0  0  0  0  0  0  0  0  0
   23.8816  -20.0513  -12.8221 N   0  0  0  0  0  0  0  0  0  0  0  0
   23.9982  -20.5852  -11.4503 C   0  0  1  0  0  0  0  0  0  0  0  0
   25.3306  -20.1225  -10.9569 C   0  0  0  0  0  0  0  0  0  0  0  0
   25.6581  -20.3986   -9.5463 C   0  0  0  0  0  0  0  0  0  0  0  0
   25.0081  -21.3575   -8.7325 C   0  0  0  0  0  0  0  0  0  0  0  0
   25.5619  -21.2948   -7.5197 N   0  0  0  0  0  0  0  0  0  0  0  0
   26.5194  -20.3829   -7.4559 C   0  0  0  0  0  0  0  0  0  0  0  0
   27.3605  -19.9972   -6.4064 C   0  0  0  0  0  0  0  0  0  0  0  0
   28.2901  -19.0101   -6.6616 C   0  0  0  0  0  0  0  0  0  0  0  0
   28.3815  -18.4256   -7.9179 C   0  0  0  0  0  0  0  0  0  0  0  0
   27.5458  -18.8229   -8.9245 C   0  0  0  0  0  0  0  0  0  0  0  0
   26.5870  -19.8204   -8.7099 C   0  0  0  0  0  0  0  0  0  0  0  0
   22.8920  -20.1880  -10.6057 C   0  0  0  0  0  0  0  0  0  0  0  0
   22.4204  -19.0108  -10.7890 O   0  0  0  0  0  0  0  0  0  0  0  0
   22.3014  -20.9612   -9.6322 O   0  0  0  0  0  0  0  0  0  0  0  0
  2  1  1  0
  3  2  2  0
  4  2  1  0
  5  4  1  0
  6  5  1  0
  6  7  1  6
  8  6  1  0
  8  9  2  0
 10  8  1  0
 11 10  1  0
 11 12  1  6
 13 12  1  0
 13 17  1  0
 14 13  2  0
 15 11  1  0
 16 15  2  0
 18 15  1  0
 19 20  1  1
 19 18  1  0
 21 20  1  0
 22 21  2  0
 23 22  1  0
 24 23  1  0
 24 29  2  0
 25 26  2  0
 25 24  1  0
 26 27  1  0
 27 28  2  0
 29 28  1  0
 29 21  1  0
 30 32  1  0
 30 19  1  0
 31 30  2  0
M  END
$$$$
