QDW.pdb
     RDKit          3D

 32 33  0  0  1  0  0  0  0  0999 V2000
   20.8939  -20.4181  -10.7176 N   0  0  0  0  0  0  0  0  0  0  0  0
   20.0556  -19.2763  -11.0105 C   0  0  0  0  0  0  0  0  0  0  0  0
   18.9903  -19.1129  -10.3740 O   0  0  0  0  0  0  0  0  0  0  0  0
   20.5376  -18.3662  -12.0720 C   0  0  0  0  0  0  0  0  0  0  0  0
   21.8681  -18.7587  -12.6174 C   0  0  0  0  0  0  0  0  0  0  0  0
   21.8239  -19.6840  -13.7901 C   0  0  2  0  0  0  0  0  0  0  0  0
   21.0831  -20.8741  -13.3921 N   0  0  0  0  0  0  0  0  0  0  0  0
   23.1053  -20.0051  -14.4140 C   0  0  0  0  0  0  0  0  0  0  0  0
   23.7739  -21.0217  -14.0450 O   0  0  0  0  0  0  0  0  0  0  0  0
   23.7232  -19.2383  -15.4658 N   0  0  0  0  0  0  0  0  0  0  0  0
   24.9658  -19.6366  -16.0694 C   0  0  1  0  0  0  0  0  0  0  0  0
   25.2928  -18.9830  -17.3653 C   0  0  0  0  0  0  0  0  0  0  0  0
   24.2580  -19.1138  -18.3987 C   0  0  0  0  0  0  0  0  0  0  0  0
   23.8556  -18.0901  -18.9967 O   0  0  0  0  0  0  0  0  0  0  0  0
   26.1008  -19.5416  -15.0930 C   0  0  0  0  0  0  0  0  0  0  0  0
   26.2508  -18.5096  -14.3619 O   0  0  0  0  0  0  0  0  0  0  0  0
   23.7012  -20.3356  -18.7436 O   0  0  0  0  0  0  0  0  0  0  0  0
   27.0566  -20.5717  -14.9257 N   0  0  0  0  0  0  0  0  0  0  0  0
   28.1165  -20.5005  -13.9001 C   0  0  1  0  0  0  0  0  0  0  0  0
   27.3985  -20.4621  -12.5902 C   0  0  0  0  0  0  0  0  0  0  0  0
   28.2170  -20.5908  -11.3709 C   0  0  0  0  0  0  0  0  0  0  0  0
   29.6323  -20.6030  -11.3382 C   0  0  0  0  0  0  0  0  0  0  0  0
   30.0021  -20.7626  -10.0657 N   0  0  0  0  0  0  0  0  0  0  0  0
   28.9616  -20.8564   -9.2526 C   0  0  0  0  0  0  0  0  0  0  0  0
   28.8840  -21.0119   -7.8642 C   0  0  0  0  0  0  0  0  0  0  0  0
   27.6280  -21.0579   -7.2951 C   0  0  0  0  0  0  0  0  0  0  0  0
   26.4866  -20.9529   -8.0791 C   0  0  0  0  0  0  0  0  0  0  0  0
   26.5935  -20.8019   -9.4338 C   0  0  0  0  0  0  0  0  0  0  0  0
   27.8478  -20.7510  -10.0538 C   0  0  0  0  0  0  0  0  0  0  0  0
   29.0696  -21.5839  -14.0127 C   0  0  0  0  0  0  0  0  0  0  0  0
   30.2479  -21.3647  -13.5595 O   0  0  0  0  0  0  0  0  0  0  0  0
   28.8216  -22.8242  -14.5555 O   0  0  0  0  0  0  0  0  0  0  0  0
  2  1  1  0
  3  2  2  0
  4  2  1  0
  5  4  1  0
  6  5  1  0
  6  7  1  1
  8  6  1  0
  8  9  2  0
 10  8  1  0
 11 10  1  0
 11 12  1  6
 13 12  1  0
 13 17  1  0
 14 13  2  0
 15 11  1  0
 16 15  2  0
 18 15  1  0
 19 20  1  1
 19 18  1  0
 21 20  1  0
 22 21  2  0
 23 22  1  0
 24 23  1  0
 24 29  2  0
 25 26  2  0
 25 24  1  0
 26 27  1  0
 27 28  2  0
 29 28  1  0
 29 21  1  0
 30 32  1  0
 30 19  1  0
 31 30  2  0
M  END
$$$$
