CTA.pdb
     RDKit          3D

 19 18  0  0  1  0  0  0  0  0999 V2000
   23.5416  -13.1484  -17.7416 N   0  0  0  0  0  0  0  0  0  0  0  0
   23.6907  -12.2909  -16.5823 C   0  0  1  0  0  0  0  0  0  0  0  0
   25.1349  -12.1197  -16.1730 C   0  0  0  0  0  0  0  0  0  0  0  0
   25.8673  -13.6942  -15.6510 S   0  0  0  0  0  0  0  0  0  0  0  0
   23.1730  -10.9289  -16.9148 C   0  0  0  0  0  0  0  0  0  0  0  0
   23.4250  -10.4159  -18.0339 O   0  0  0  0  0  0  0  0  0  0  0  0
   19.5808  -10.2834  -16.9003 C   0  0  0  0  0  0  0  0  0  0  0  0
   20.2175   -9.2647  -16.0123 C   0  0  1  0  0  0  0  0  0  0  0  0
   20.2359   -9.8221  -14.7231 O   0  0  0  0  0  0  0  0  0  0  0  0
   21.6718   -8.9711  -16.3465 C   0  0  2  0  0  0  0  0  0  0  0  0
   22.3949  -10.2068  -15.9710 N   0  0  0  0  0  0  0  0  0  0  0  0
   22.2064   -7.8375  -15.5689 C   0  0  0  0  0  0  0  0  0  0  0  0
   22.6076   -8.0405  -14.3804 O   0  0  0  0  0  0  0  0  0  0  0  0
   23.0591   -4.2147  -16.1296 C   0  0  0  0  0  0  0  0  0  0  0  0
   22.9217   -5.4494  -15.2424 C   0  0  2  0  0  0  0  0  0  0  0  0
   22.3189   -6.5122  -16.0343 N   0  0  0  0  0  0  0  0  0  0  0  0
   22.1120   -5.1411  -14.0550 C   0  0  0  0  0  0  0  0  0  0  0  0
   20.8868   -5.4231  -14.0865 O   0  0  0  0  0  0  0  0  0  0  0  0
   22.5991   -4.5597  -12.8963 O   0  0  0  0  0  0  0  0  0  0  0  0
  2  1  1  6
  3  2  1  0
  4  3  1  0
  5  2  1  0
  6  5  2  0
  8  7  1  6
  8 10  1  0
  9  8  1  0
 10 12  1  0
 10 11  1  1
 11  5  1  0
 12 13  2  0
 15 14  1  6
 16 15  1  0
 16 12  1  0
 17 19  1  0
 17 15  1  0
 18 17  2  0
M  END
$$$$
