CTA.pdb
     RDKit          3D

 19 18  0  0  1  0  0  0  0  0999 V2000
   15.9284  -11.0764  -13.1878 N   0  0  0  0  0  0  0  0  0  0  0  0
   16.2126   -9.7260  -12.7437 C   0  0  1  0  0  0  0  0  0  0  0  0
   16.5364   -9.6595  -11.2695 C   0  0  0  0  0  0  0  0  0  0  0  0
   15.0629   -9.9497  -10.2532 S   0  0  0  0  0  0  0  0  0  0  0  0
   17.4145   -9.2173  -13.4718 C   0  0  0  0  0  0  0  0  0  0  0  0
   18.3799   -9.9865  -13.7073 O   0  0  0  0  0  0  0  0  0  0  0  0
   17.4618   -7.9776  -16.9009 C   0  0  0  0  0  0  0  0  0  0  0  0
   17.9402   -6.8789  -16.0090 C   0  0  1  0  0  0  0  0  0  0  0  0
   16.7947   -6.1756  -15.6011 O   0  0  0  0  0  0  0  0  0  0  0  0
   18.5965   -7.3620  -14.7250 C   0  0  2  0  0  0  0  0  0  0  0  0
   17.4739   -7.8647  -13.9016 N   0  0  0  0  0  0  0  0  0  0  0  0
   19.2816   -6.2733  -14.0032 C   0  0  0  0  0  0  0  0  0  0  0  0
   18.5847   -5.4186  -13.3721 O   0  0  0  0  0  0  0  0  0  0  0  0
   22.7760   -5.2841  -13.0588 C   0  0  0  0  0  0  0  0  0  0  0  0
   21.2929   -4.9714  -13.2411 C   0  0  2  0  0  0  0  0  0  0  0  0
   20.6772   -6.0876  -13.9447 N   0  0  0  0  0  0  0  0  0  0  0  0
   21.1206   -3.7122  -13.9793 C   0  0  0  0  0  0  0  0  0  0  0  0
   21.4107   -2.6389  -13.3916 O   0  0  0  0  0  0  0  0  0  0  0  0
   20.6598   -3.6172  -15.2819 O   0  0  0  0  0  0  0  0  0  0  0  0
  2  1  1  6
  3  2  1  0
  4  3  1  0
  5  2  1  0
  6  5  2  0
  8  7  1  6
  8 10  1  0
  9  8  1  0
 10 12  1  0
 10 11  1  1
 11  5  1  0
 12 13  2  0
 15 14  1  6
 16 15  1  0
 16 12  1  0
 17 19  1  0
 17 15  1  0
 18 17  2  0
M  END
$$$$
