CTA.pdb
     RDKit          3D

 19 18  0  0  1  0  0  0  0  0999 V2000
   18.4343  -12.5865  -15.8157 N   0  0  0  0  0  0  0  0  0  0  0  0
   18.4266  -11.2412  -16.3558 C   0  0  1  0  0  0  0  0  0  0  0  0
   17.0304  -10.6776  -16.4809 C   0  0  0  0  0  0  0  0  0  0  0  0
   15.9753  -11.7405  -17.5031 S   0  0  0  0  0  0  0  0  0  0  0  0
   19.1732  -10.3397  -15.4267 C   0  0  0  0  0  0  0  0  0  0  0  0
   18.8321  -10.2576  -14.2200 O   0  0  0  0  0  0  0  0  0  0  0  0
   22.7344  -10.7689  -14.6138 C   0  0  0  0  0  0  0  0  0  0  0  0
   22.5353   -9.4136  -15.2096 C   0  0  1  0  0  0  0  0  0  0  0  0
   22.6382   -9.5759  -16.6010 O   0  0  0  0  0  0  0  0  0  0  0  0
   21.1522   -8.8275  -14.9722 C   0  0  2  0  0  0  0  0  0  0  0  0
   20.2705   -9.5715  -15.8995 N   0  0  0  0  0  0  0  0  0  0  0  0
   21.0923   -7.3886  -15.2909 C   0  0  0  0  0  0  0  0  0  0  0  0
   21.1262   -7.0254  -16.5082 O   0  0  0  0  0  0  0  0  0  0  0  0
   19.9132   -4.2464  -13.8525 C   0  0  0  0  0  0  0  0  0  0  0  0
   20.9558   -4.9432  -14.7232 C   0  0  2  0  0  0  0  0  0  0  0  0
   20.9966   -6.3487  -14.3449 N   0  0  0  0  0  0  0  0  0  0  0  0
   22.2703   -4.3061  -14.5593 C   0  0  0  0  0  0  0  0  0  0  0  0
   23.0389   -4.7581  -13.6726 O   0  0  0  0  0  0  0  0  0  0  0  0
   22.7298   -3.2385  -15.3125 O   0  0  0  0  0  0  0  0  0  0  0  0
  2  1  1  1
  3  2  1  0
  4  3  1  0
  5  2  1  0
  6  5  2  0
  8  7  1  1
  8 10  1  0
  9  8  1  0
 10 12  1  0
 10 11  1  6
 11  5  1  0
 12 13  2  0
 15 14  1  1
 16 15  1  0
 16 12  1  0
 17 19  1  0
 17 15  1  0
 18 17  2  0
M  END
$$$$
