CTA.pdb
     RDKit          3D

 19 18  0  0  1  0  0  0  0  0999 V2000
   16.8476  -12.2146  -16.6349 N   0  0  0  0  0  0  0  0  0  0  0  0
   17.8015  -11.6876  -15.6790 C   0  0  1  0  0  0  0  0  0  0  0  0
   19.0074  -12.5827  -15.5138 C   0  0  0  0  0  0  0  0  0  0  0  0
   18.5852  -14.1073  -14.6278 S   0  0  0  0  0  0  0  0  0  0  0  0
   18.3072  -10.3705  -16.1719 C   0  0  0  0  0  0  0  0  0  0  0  0
   18.7221  -10.2577  -17.3527 O   0  0  0  0  0  0  0  0  0  0  0  0
   16.4350   -7.2237  -16.4799 C   0  0  0  0  0  0  0  0  0  0  0  0
   17.5765   -6.9995  -15.5428 C   0  0  1  0  0  0  0  0  0  0  0  0
   17.1064   -7.3339  -14.2621 O   0  0  0  0  0  0  0  0  0  0  0  0
   18.7690   -7.9113  -15.7865 C   0  0  2  0  0  0  0  0  0  0  0  0
   18.3223   -9.2402  -15.3118 N   0  0  0  0  0  0  0  0  0  0  0  0
   19.9581   -7.4937  -15.0202 C   0  0  0  0  0  0  0  0  0  0  0  0
   19.9705   -7.6642  -13.7610 O   0  0  0  0  0  0  0  0  0  0  0  0
   23.3891   -6.1000  -15.6953 C   0  0  0  0  0  0  0  0  0  0  0  0
   22.2573   -6.5111  -14.7569 C   0  0  2  0  0  0  0  0  0  0  0  0
   21.1160   -6.9079  -15.5694 N   0  0  0  0  0  0  0  0  0  0  0  0
   21.9123   -5.4046  -13.8529 C   0  0  0  0  0  0  0  0  0  0  0  0
   22.6879   -5.1629  -12.8929 O   0  0  0  0  0  0  0  0  0  0  0  0
   20.7903   -4.6025  -13.9788 O   0  0  0  0  0  0  0  0  0  0  0  0
  2  1  1  6
  3  2  1  0
  4  3  1  0
  5  2  1  0
  6  5  2  0
  8  7  1  6
  8 10  1  0
  9  8  1  0
 10 12  1  0
 10 11  1  1
 11  5  1  0
 12 13  2  0
 15 14  1  6
 16 15  1  0
 16 12  1  0
 17 19  1  0
 17 15  1  0
 18 17  2  0
M  END
$$$$
