CTA.pdb
     RDKit          3D

 19 18  0  0  1  0  0  0  0  0999 V2000
   26.9007  -12.2674  -18.1767 N   0  0  0  0  0  0  0  0  0  0  0  0
   26.5051  -11.5265  -16.9952 C   0  0  1  0  0  0  0  0  0  0  0  0
   27.6772  -11.1994  -16.0998 C   0  0  0  0  0  0  0  0  0  0  0  0
   28.3893  -12.6968  -15.3660 S   0  0  0  0  0  0  0  0  0  0  0  0
   25.9076  -10.2229  -17.4158 C   0  0  0  0  0  0  0  0  0  0  0  0
   26.5225   -9.4795  -18.2211 O   0  0  0  0  0  0  0  0  0  0  0  0
   22.7875  -10.0400  -19.2034 C   0  0  0  0  0  0  0  0  0  0  0  0
   22.6309   -9.1794  -17.9925 C   0  0  1  0  0  0  0  0  0  0  0  0
   22.1247  -10.0116  -16.9804 O   0  0  0  0  0  0  0  0  0  0  0  0
   23.9399   -8.6301  -17.4470 C   0  0  2  0  0  0  0  0  0  0  0  0
   24.6442   -9.8160  -16.9099 N   0  0  0  0  0  0  0  0  0  0  0  0
   23.7278   -7.6551  -16.3607 C   0  0  0  0  0  0  0  0  0  0  0  0
   23.5285   -8.0816  -15.1804 O   0  0  0  0  0  0  0  0  0  0  0  0
   23.8443   -3.9374  -15.8393 C   0  0  0  0  0  0  0  0  0  0  0  0
   23.4304   -5.3444  -15.4156 C   0  0  2  0  0  0  0  0  0  0  0  0
   23.7270   -6.2542  -16.5129 N   0  0  0  0  0  0  0  0  0  0  0  0
   22.0035   -5.3761  -15.0643 C   0  0  0  0  0  0  0  0  0  0  0  0
   21.1906   -5.7834  -15.9331 O   0  0  0  0  0  0  0  0  0  0  0  0
   21.4827   -4.9888  -13.8408 O   0  0  0  0  0  0  0  0  0  0  0  0
  2  1  1  6
  3  2  1  0
  4  3  1  0
  5  2  1  0
  6  5  2  0
  8  7  1  6
  8 10  1  0
  9  8  1  0
 10 12  1  0
 10 11  1  1
 11  5  1  0
 12 13  2  0
 15 14  1  6
 16 15  1  0
 16 12  1  0
 17 19  1  0
 17 15  1  0
 18 17  2  0
M  END
$$$$
