CTA.pdb
     RDKit          3D

 19 18  0  0  1  0  0  0  0  0999 V2000
   22.8512  -11.0925  -16.3314 N   0  0  0  0  0  0  0  0  0  0  0  0
   22.5713   -9.8720  -15.6010 C   0  0  1  0  0  0  0  0  0  0  0  0
   23.7249   -9.4477  -14.7225 C   0  0  0  0  0  0  0  0  0  0  0  0
   23.8807  -10.5203  -13.2688 S   0  0  0  0  0  0  0  0  0  0  0  0
   22.3424   -8.7630  -16.5763 C   0  0  0  0  0  0  0  0  0  0  0  0
   23.0728   -8.6588  -17.5936 O   0  0  0  0  0  0  0  0  0  0  0  0
   19.3898   -8.3590  -18.5900 C   0  0  0  0  0  0  0  0  0  0  0  0
   19.5313   -7.1148  -17.7753 C   0  0  1  0  0  0  0  0  0  0  0  0
   18.8488   -7.3527  -16.5709 O   0  0  0  0  0  0  0  0  0  0  0  0
   20.9625   -6.7953  -17.3725 C   0  0  2  0  0  0  0  0  0  0  0  0
   21.3007   -7.8217  -16.3610 N   0  0  0  0  0  0  0  0  0  0  0  0
   21.0877   -5.4554  -16.7688 C   0  0  0  0  0  0  0  0  0  0  0  0
   20.8599   -5.3158  -15.5265 O   0  0  0  0  0  0  0  0  0  0  0  0
   22.1491   -1.9954  -17.8033 C   0  0  0  0  0  0  0  0  0  0  0  0
   21.5495   -2.9843  -16.8067 C   0  0  2  0  0  0  0  0  0  0  0  0
   21.4482   -4.2816  -17.4600 N   0  0  0  0  0  0  0  0  0  0  0  0
   20.2362   -2.5139  -16.3435 C   0  0  0  0  0  0  0  0  0  0  0  0
   19.2113   -2.9761  -16.9069 O   0  0  0  0  0  0  0  0  0  0  0  0
   20.0404   -1.5940  -15.3269 O   0  0  0  0  0  0  0  0  0  0  0  0
  2  1  1  6
  3  2  1  0
  4  3  1  0
  5  2  1  0
  6  5  2  0
  8  7  1  6
  8 10  1  0
  9  8  1  0
 10 12  1  0
 10 11  1  1
 11  5  1  0
 12 13  2  0
 15 14  1  6
 16 15  1  0
 16 12  1  0
 17 19  1  0
 17 15  1  0
 18 17  2  0
M  END
$$$$
