CTA.pdb
     RDKit          3D

 19 18  0  0  1  0  0  0  0  0999 V2000
   17.3915  -12.0996  -15.6613 N   0  0  0  0  0  0  0  0  0  0  0  0
   17.4167  -10.6644  -15.8637 C   0  0  1  0  0  0  0  0  0  0  0  0
   16.1676   -9.9872  -15.3502 C   0  0  0  0  0  0  0  0  0  0  0  0
   14.7001  -10.5115  -16.2772 S   0  0  0  0  0  0  0  0  0  0  0  0
   18.5646  -10.0857  -15.1016 C   0  0  0  0  0  0  0  0  0  0  0  0
   18.7685  -10.4327  -13.9112 O   0  0  0  0  0  0  0  0  0  0  0  0
   22.0793  -10.5207  -15.4670 C   0  0  0  0  0  0  0  0  0  0  0  0
   21.8026   -9.0724  -15.7065 C   0  0  1  0  0  0  0  0  0  0  0  0
   21.5137   -8.9476  -17.0755 O   0  0  0  0  0  0  0  0  0  0  0  0
   20.5718   -8.5471  -14.9842 C   0  0  2  0  0  0  0  0  0  0  0  0
   19.4308   -9.1421  -15.7156 N   0  0  0  0  0  0  0  0  0  0  0  0
   20.4747   -7.0764  -15.0417 C   0  0  0  0  0  0  0  0  0  0  0  0
   19.6873   -6.5436  -15.8848 O   0  0  0  0  0  0  0  0  0  0  0  0
   19.5941   -4.4032  -13.8778 C   0  0  0  0  0  0  0  0  0  0  0  0
   21.0222   -4.7367  -14.3018 C   0  0  2  0  0  0  0  0  0  0  0  0
   21.1928   -6.1807  -14.2246 N   0  0  0  0  0  0  0  0  0  0  0  0
   21.9892   -4.0365  -13.4445 C   0  0  0  0  0  0  0  0  0  0  0  0
   22.6221   -4.7129  -12.5939 O   0  0  0  0  0  0  0  0  0  0  0  0
   22.2582   -2.6792  -13.5027 O   0  0  0  0  0  0  0  0  0  0  0  0
  2  1  1  1
  3  2  1  0
  4  3  1  0
  5  2  1  0
  6  5  2  0
  8  7  1  6
  8 10  1  0
  9  8  1  0
 10 12  1  0
 10 11  1  6
 11  5  1  0
 12 13  2  0
 15 14  1  1
 16 15  1  0
 16 12  1  0
 17 19  1  0
 17 15  1  0
 18 17  2  0
M  END
$$$$
