CTA.pdb
     RDKit          3D

 19 18  0  0  1  0  0  0  0  0999 V2000
   16.7031  -12.1316  -15.8737 N   0  0  0  0  0  0  0  0  0  0  0  0
   18.1094  -11.7884  -15.7971 C   0  0  1  0  0  0  0  0  0  0  0  0
   18.9506  -12.5799  -16.7710 C   0  0  0  0  0  0  0  0  0  0  0  0
   19.2983  -14.2459  -16.1453 S   0  0  0  0  0  0  0  0  0  0  0  0
   18.2787  -10.3471  -16.1544 C   0  0  0  0  0  0  0  0  0  0  0  0
   17.9205   -9.9331  -17.2856 O   0  0  0  0  0  0  0  0  0  0  0  0
   17.5422   -7.5549  -13.4778 C   0  0  0  0  0  0  0  0  0  0  0  0
   17.6980   -7.3774  -14.9528 C   0  0  1  0  0  0  0  0  0  0  0  0
   17.8234   -5.9957  -15.1723 O   0  0  0  0  0  0  0  0  0  0  0  0
   18.9661   -7.9939  -15.5224 C   0  0  2  0  0  0  0  0  0  0  0  0
   18.8438   -9.4379  -15.2209 N   0  0  0  0  0  0  0  0  0  0  0  0
   20.1833   -7.4628  -14.8806 C   0  0  0  0  0  0  0  0  0  0  0  0
   20.5125   -7.8950  -13.7319 O   0  0  0  0  0  0  0  0  0  0  0  0
   23.0723   -5.2254  -15.7549 C   0  0  0  0  0  0  0  0  0  0  0  0
   22.2275   -6.0050  -14.7504 C   0  0  2  0  0  0  0  0  0  0  0  0
   21.0412   -6.4942  -15.4385 N   0  0  0  0  0  0  0  0  0  0  0  0
   21.8705   -5.1517  -13.6081 C   0  0  0  0  0  0  0  0  0  0  0  0
   20.7661   -4.5510  -13.6423 O   0  0  0  0  0  0  0  0  0  0  0  0
   22.6633   -4.9576  -12.4892 O   0  0  0  0  0  0  0  0  0  0  0  0
  2  1  1  6
  3  2  1  0
  4  3  1  0
  5  2  1  0
  6  5  2  0
  8  7  1  1
  8 10  1  0
  9  8  1  0
 10 12  1  0
 10 11  1  1
 11  5  1  0
 12 13  2  0
 15 14  1  6
 16 15  1  0
 16 12  1  0
 17 19  1  0
 17 15  1  0
 18 17  2  0
M  END
$$$$
