CTA.pdb
     RDKit          3D

 19 18  0  0  1  0  0  0  0  0999 V2000
   19.6197  -12.3373  -16.4694 N   0  0  0  0  0  0  0  0  0  0  0  0
   19.2506  -11.1133  -17.1527 C   0  0  1  0  0  0  0  0  0  0  0  0
   17.9208  -11.2262  -17.8610 C   0  0  0  0  0  0  0  0  0  0  0  0
   17.5064   -9.6961  -18.7413 S   0  0  0  0  0  0  0  0  0  0  0  0
   19.1107  -10.0175  -16.1462 C   0  0  0  0  0  0  0  0  0  0  0  0
   18.3334  -10.1565  -15.1685 O   0  0  0  0  0  0  0  0  0  0  0  0
   21.4148   -8.9315  -13.8078 C   0  0  0  0  0  0  0  0  0  0  0  0
   21.1193   -7.7083  -14.6129 C   0  0  1  0  0  0  0  0  0  0  0  0
   22.0567   -7.6890  -15.6588 O   0  0  0  0  0  0  0  0  0  0  0  0
   19.7579   -7.7243  -15.2905 C   0  0  2  0  0  0  0  0  0  0  0  0
   19.8529   -8.8147  -16.2870 N   0  0  0  0  0  0  0  0  0  0  0  0
   19.4626   -6.4555  -15.9822 C   0  0  0  0  0  0  0  0  0  0  0  0
   20.0561   -6.1974  -17.0757 O   0  0  0  0  0  0  0  0  0  0  0  0
   17.0095   -3.6348  -15.7709 C   0  0  0  0  0  0  0  0  0  0  0  0
   18.3383   -4.2216  -16.2404 C   0  0  2  0  0  0  0  0  0  0  0  0
   18.5564   -5.4748  -15.5320 N   0  0  0  0  0  0  0  0  0  0  0  0
   19.4335   -3.2717  -15.9979 C   0  0  0  0  0  0  0  0  0  0  0  0
   20.0946   -3.3918  -14.9349 O   0  0  0  0  0  0  0  0  0  0  0  0
   19.7952   -2.2474  -16.8571 O   0  0  0  0  0  0  0  0  0  0  0  0
  2  1  1  1
  3  2  1  0
  4  3  1  0
  5  2  1  0
  6  5  2  0
  8  7  1  6
  8 10  1  0
  9  8  1  0
 10 12  1  0
 10 11  1  6
 11  5  1  0
 12 13  2  0
 15 14  1  1
 16 15  1  0
 16 12  1  0
 17 19  1  0
 17 15  1  0
 18 17  2  0
M  END
$$$$
