CTA.pdb
     RDKit          3D

 19 18  0  0  1  0  0  0  0  0999 V2000
   18.5897  -12.9632  -16.8033 N   0  0  0  0  0  0  0  0  0  0  0  0
   18.8281  -11.5857  -17.1867 C   0  0  1  0  0  0  0  0  0  0  0  0
   17.5474  -10.7980  -17.3349 C   0  0  0  0  0  0  0  0  0  0  0  0
   16.4171  -11.5858  -18.5138 S   0  0  0  0  0  0  0  0  0  0  0  0
   19.6254  -10.9137  -16.1161 C   0  0  0  0  0  0  0  0  0  0  0  0
   19.2361  -10.9551  -14.9219 O   0  0  0  0  0  0  0  0  0  0  0  0
   23.2081  -11.4459  -15.0651 C   0  0  0  0  0  0  0  0  0  0  0  0
   23.0253  -10.0513  -15.5683 C   0  0  1  0  0  0  0  0  0  0  0  0
   23.2516  -10.0996  -16.9538 O   0  0  0  0  0  0  0  0  0  0  0  0
   21.6120   -9.5131  -15.4081 C   0  0  2  0  0  0  0  0  0  0  0  0
   20.8251  -10.2256  -16.4396 N   0  0  0  0  0  0  0  0  0  0  0  0
   21.5357   -8.0606  -15.6529 C   0  0  0  0  0  0  0  0  0  0  0  0
   21.3570   -7.6446  -16.8403 O   0  0  0  0  0  0  0  0  0  0  0  0
   20.2755   -5.2036  -15.3794 C   0  0  0  0  0  0  0  0  0  0  0  0
   21.6834   -5.6416  -14.9836 C   0  0  2  0  0  0  0  0  0  0  0  0
   21.6437   -7.0618  -14.6648 N   0  0  0  0  0  0  0  0  0  0  0  0
   22.1658   -4.8499  -13.8431 C   0  0  0  0  0  0  0  0  0  0  0  0
   22.1543   -5.3858  -12.7054 O   0  0  0  0  0  0  0  0  0  0  0  0
   22.6355   -3.5497  -13.9266 O   0  0  0  0  0  0  0  0  0  0  0  0
  2  1  1  1
  3  2  1  0
  4  3  1  0
  5  2  1  0
  6  5  2  0
  8  7  1  6
  8 10  1  0
  9  8  1  0
 10 12  1  0
 10 11  1  6
 11  5  1  0
 12 13  2  0
 15 14  1  1
 16 15  1  0
 16 12  1  0
 17 19  1  0
 17 15  1  0
 18 17  2  0
M  END
$$$$
