CTA.pdb
     RDKit          3D

 19 18  0  0  1  0  0  0  0  0999 V2000
   18.0899  -12.6461  -16.1031 N   0  0  0  0  0  0  0  0  0  0  0  0
   17.7779  -11.2513  -15.8609 C   0  0  1  0  0  0  0  0  0  0  0  0
   17.1064  -11.0337  -14.5251 C   0  0  0  0  0  0  0  0  0  0  0  0
   15.5251  -11.9156  -14.4263 S   0  0  0  0  0  0  0  0  0  0  0  0
   19.0490  -10.4656  -15.8369 C   0  0  0  0  0  0  0  0  0  0  0  0
   20.0785  -10.9504  -15.3037 O   0  0  0  0  0  0  0  0  0  0  0  0
   20.8454   -9.0512  -18.8247 C   0  0  0  0  0  0  0  0  0  0  0  0
   20.5051   -7.9422  -17.8834 C   0  0  1  0  0  0  0  0  0  0  0  0
   19.2364   -7.4761  -18.2660 O   0  0  0  0  0  0  0  0  0  0  0  0
   20.3547   -8.3807  -16.4350 C   0  0  2  0  0  0  0  0  0  0  0  0
   19.1022   -9.1691  -16.4147 N   0  0  0  0  0  0  0  0  0  0  0  0
   20.2253   -7.2354  -15.5146 C   0  0  0  0  0  0  0  0  0  0  0  0
   19.1059   -6.6409  -15.4246 O   0  0  0  0  0  0  0  0  0  0  0  0
   22.3168   -5.4562  -12.9397 C   0  0  0  0  0  0  0  0  0  0  0  0
   21.0568   -5.6077  -13.7882 C   0  0  2  0  0  0  0  0  0  0  0  0
   21.2561   -6.7246  -14.7008 N   0  0  0  0  0  0  0  0  0  0  0  0
   20.7766   -4.3631  -14.5182 C   0  0  0  0  0  0  0  0  0  0  0  0
   20.3899   -3.3654  -13.8574 O   0  0  0  0  0  0  0  0  0  0  0  0
   20.9069   -4.2044  -15.8878 O   0  0  0  0  0  0  0  0  0  0  0  0
  2  1  1  1
  3  2  1  0
  4  3  1  0
  5  2  1  0
  6  5  2  0
  8  7  1  6
  8 10  1  0
  9  8  1  0
 10 12  1  0
 10 11  1  6
 11  5  1  0
 12 13  2  0
 15 14  1  6
 16 15  1  0
 16 12  1  0
 17 19  1  0
 17 15  1  0
 18 17  2  0
M  END
$$$$
