CTA.pdb
     RDKit          3D

 19 18  0  0  1  0  0  0  0  0999 V2000
   27.9250  -21.1689   -7.3063 N   0  0  0  0  0  0  0  0  0  0  0  0
   26.7794  -20.2823   -7.3620 C   0  0  1  0  0  0  0  0  0  0  0  0
   26.9870  -19.0200   -6.5583 C   0  0  0  0  0  0  0  0  0  0  0  0
   27.0661  -19.3708   -4.7811 S   0  0  0  0  0  0  0  0  0  0  0  0
   26.5598  -19.8597   -8.7786 C   0  0  0  0  0  0  0  0  0  0  0  0
   27.3336  -19.0266   -9.3138 O   0  0  0  0  0  0  0  0  0  0  0  0
   27.5409  -21.5628  -11.2215 C   0  0  0  0  0  0  0  0  0  0  0  0
   26.0871  -21.4722  -11.5524 C   0  0  1  0  0  0  0  0  0  0  0  0
   25.4693  -22.5607  -10.9147 O   0  0  0  0  0  0  0  0  0  0  0  0
   25.3992  -20.2348  -10.9971 C   0  0  2  0  0  0  0  0  0  0  0  0
   25.4783  -20.3950   -9.5278 N   0  0  0  0  0  0  0  0  0  0  0  0
   23.9837  -20.1520  -11.4034 C   0  0  0  0  0  0  0  0  0  0  0  0
   23.0928  -20.6288  -10.6330 O   0  0  0  0  0  0  0  0  0  0  0  0
   21.9451  -18.6869  -14.2086 C   0  0  0  0  0  0  0  0  0  0  0  0
   22.1007  -19.5421  -12.9537 C   0  0  2  0  0  0  0  0  0  0  0  0
   23.5127  -19.5755  -12.5998 N   0  0  0  0  0  0  0  0  0  0  0  0
   21.5745  -20.8947  -13.1855 C   0  0  0  0  0  0  0  0  0  0  0  0
   22.3898  -21.7999  -13.4975 O   0  0  0  0  0  0  0  0  0  0  0  0
   20.2397  -21.2506  -13.0859 O   0  0  0  0  0  0  0  0  0  0  0  0
  2  1  1  6
  3  2  1  0
  4  3  1  0
  5  2  1  0
  6  5  2  0
  8  7  1  1
  8 10  1  0
  9  8  1  0
 10 12  1  0
 10 11  1  1
 11  5  1  0
 12 13  2  0
 15 14  1  6
 16 15  1  0
 16 12  1  0
 17 19  1  0
 17 15  1  0
 18 17  2  0
M  END
$$$$
