FKL.pdb
     RDKit          3D

 29 29  0  0  1  0  0  0  0  0999 V2000
    6.1236  -18.3105   25.8043 N   0  0  0  0  0  0  0  0  0  0  0  0
    6.1158  -16.8852   25.5986 C   0  0  1  0  0  0  0  0  0  0  0  0
    6.3571  -16.1048   26.8617 C   0  0  0  0  0  0  0  0  0  0  0  0
    6.2747  -14.6563   26.6979 C   0  0  0  0  0  0  0  0  0  0  0  0
    7.4332  -13.9154   26.6199 C   0  0  0  0  0  0  0  0  0  0  0  0
    7.4086  -12.5319   26.4638 C   0  0  0  0  0  0  0  0  0  0  0  0
    6.2070  -11.8791   26.3845 C   0  0  0  0  0  0  0  0  0  0  0  0
    5.0443  -12.6145   26.4619 C   0  0  0  0  0  0  0  0  0  0  0  0
    5.0707  -13.9942   26.6176 C   0  0  0  0  0  0  0  0  0  0  0  0
    7.2084  -16.5565   24.6518 C   0  0  0  0  0  0  0  0  0  0  0  0
    8.2428  -17.2649   24.6789 O   0  0  0  0  0  0  0  0  0  0  0  0
    7.1644  -15.4899   23.7119 N   0  0  0  0  0  0  0  0  0  0  0  0
    8.1741  -15.3308   22.6851 C   0  0  1  0  0  0  0  0  0  0  0  0
    7.7919  -14.2911   21.6715 C   0  0  0  0  0  0  0  0  0  0  0  0
    8.7754  -14.3463   20.5269 C   0  0  0  0  0  0  0  0  0  0  0  0
    8.3108  -13.4639   19.3808 C   0  0  0  0  0  0  0  0  0  0  0  0
    9.2011  -13.6694   18.1929 C   0  0  0  0  0  0  0  0  0  0  0  0
    9.7620  -12.3494   17.8613 N   0  0  0  0  0  0  0  0  0  0  0  0
    9.5083  -14.9803   23.2815 C   0  0  0  0  0  0  0  0  0  0  0  0
    9.7749  -13.7699   23.4089 O   0  0  0  0  0  0  0  0  0  0  0  0
   10.1177  -15.4054   28.5633 C   0  0  0  0  0  0  0  0  0  0  0  0
   11.0548  -15.3365   27.3491 C   0  0  2  0  0  0  0  0  0  0  0  0
   11.8208  -14.0449   27.3717 C   0  0  0  0  0  0  0  0  0  0  0  0
   10.3117  -15.5799   26.0888 C   0  0  0  0  0  0  0  0  0  0  0  0
   11.2203  -15.7079   24.9089 C   0  0  2  0  0  0  0  0  0  0  0  0
   10.4412  -15.9613   23.6897 N   0  0  0  0  0  0  0  0  0  0  0  0
   12.1946  -16.7974   25.0620 C   0  0  0  0  0  0  0  0  0  0  0  0
   13.3413  -16.5267   25.5531 O   0  0  0  0  0  0  0  0  0  0  0  0
   11.9557  -18.1058   24.7116 O   0  0  0  0  0  0  0  0  0  0  0  0
  2 10  1  0
  2  1  1  1
  3  2  1  0
  4  9  2  0
  4  3  1  0
  5  4  1  0
  6  7  1  0
  6  5  2  0
  7  8  2  0
  8  9  1  0
 10 11  2  0
 12 13  1  0
 12 10  1  0
 13 14  1  6
 14 15  1  0
 15 16  1  0
 16 17  1  0
 17 18  1  0
 19 13  1  0
 20 19  2  0
 22 21  1  1
 23 22  1  0
 25 24  1  1
 24 22  1  0
 25 26  1  0
 26 19  1  0
 27 25  1  0
 27 29  1  0
 28 27  2  0
M  END
$$$$
