FKL.pdb
     RDKit          3D

 29 29  0  0  1  0  0  0  0  0999 V2000
    5.4163  -18.1082   25.4544 N   0  0  0  0  0  0  0  0  0  0  0  0
    5.8506  -16.7354   25.4384 C   0  0  1  0  0  0  0  0  0  0  0  0
    6.3968  -16.2732   26.7616 C   0  0  0  0  0  0  0  0  0  0  0  0
    6.6864  -14.8436   26.8257 C   0  0  0  0  0  0  0  0  0  0  0  0
    7.9859  -14.4078   26.6901 C   0  0  0  0  0  0  0  0  0  0  0  0
    8.3142  -13.0557   26.7439 C   0  0  0  0  0  0  0  0  0  0  0  0
    7.3280  -12.1248   26.9362 C   0  0  0  0  0  0  0  0  0  0  0  0
    6.0257  -12.5542   27.0726 C   0  0  0  0  0  0  0  0  0  0  0  0
    5.7001  -13.9031   27.0188 C   0  0  0  0  0  0  0  0  0  0  0  0
    6.9370  -16.6138   24.4368 C   0  0  0  0  0  0  0  0  0  0  0  0
    7.7604  -17.5552   24.3454 O   0  0  0  0  0  0  0  0  0  0  0  0
    7.1105  -15.4998   23.5697 N   0  0  0  0  0  0  0  0  0  0  0  0
    8.2170  -15.4185   22.6380 C   0  0  1  0  0  0  0  0  0  0  0  0
    8.0308  -14.3193   21.6322 C   0  0  0  0  0  0  0  0  0  0  0  0
    8.8012  -14.6714   20.3821 C   0  0  0  0  0  0  0  0  0  0  0  0
    8.5084  -13.6727   19.2754 C   0  0  0  0  0  0  0  0  0  0  0  0
    9.1415  -14.1349   17.9982 C   0  0  0  0  0  0  0  0  0  0  0  0
    8.8546  -13.0978   16.9937 N   0  0  0  0  0  0  0  0  0  0  0  0
    9.5221  -15.2221   23.3568 C   0  0  0  0  0  0  0  0  0  0  0  0
   10.3436  -14.4393   22.8422 O   0  0  0  0  0  0  0  0  0  0  0  0
   10.4158  -13.0328   26.6699 C   0  0  0  0  0  0  0  0  0  0  0  0
    9.9264  -14.4216   27.1045 C   0  0  2  0  0  0  0  0  0  0  0  0
    9.5898  -14.4061   28.5680 C   0  0  0  0  0  0  0  0  0  0  0  0
   10.8967  -15.4736   26.7155 C   0  0  0  0  0  0  0  0  0  0  0  0
   11.0951  -15.5449   25.2358 C   0  0  2  0  0  0  0  0  0  0  0  0
    9.8319  -15.8842   24.5672 N   0  0  0  0  0  0  0  0  0  0  0  0
   12.0991  -16.5457   24.8482 C   0  0  0  0  0  0  0  0  0  0  0  0
   13.3006  -16.3931   25.2514 O   0  0  0  0  0  0  0  0  0  0  0  0
   11.8332  -17.6509   24.0739 O   0  0  0  0  0  0  0  0  0  0  0  0
  2 10  1  0
  2  1  1  1
  3  2  1  0
  4  9  2  0
  4  3  1  0
  5  4  1  0
  6  7  1  0
  6  5  2  0
  7  8  2  0
  8  9  1  0
 10 11  2  0
 12 13  1  0
 12 10  1  0
 13 14  1  6
 14 15  1  0
 15 16  1  0
 16 17  1  0
 17 18  1  0
 19 13  1  0
 20 19  2  0
 22 21  1  1
 23 22  1  0
 25 24  1  1
 24 22  1  0
 25 26  1  0
 26 19  1  0
 27 25  1  0
 27 29  1  0
 28 27  2  0
M  END
$$$$
