FKL.pdb
     RDKit          3D

 29 29  0  0  1  0  0  0  0  0999 V2000
    6.0769  -19.1763   24.6960 N   0  0  0  0  0  0  0  0  0  0  0  0
    6.1827  -17.7546   24.8988 C   0  0  1  0  0  0  0  0  0  0  0  0
    6.5539  -17.3850   26.3089 C   0  0  0  0  0  0  0  0  0  0  0  0
    6.4971  -15.9533   26.5895 C   0  0  0  0  0  0  0  0  0  0  0  0
    7.1235  -15.4564   27.7110 C   0  0  0  0  0  0  0  0  0  0  0  0
    7.0987  -14.0996   28.0231 C   0  0  0  0  0  0  0  0  0  0  0  0
    6.4373  -13.2260   27.2011 C   0  0  0  0  0  0  0  0  0  0  0  0
    5.8085  -13.7167   26.0774 C   0  0  0  0  0  0  0  0  0  0  0  0
    5.8343  -15.0702   25.7678 C   0  0  0  0  0  0  0  0  0  0  0  0
    7.2510  -17.2461   24.0051 C   0  0  0  0  0  0  0  0  0  0  0  0
    8.2531  -17.9751   23.8131 O   0  0  0  0  0  0  0  0  0  0  0  0
    7.2177  -15.9849   23.3485 N   0  0  0  0  0  0  0  0  0  0  0  0
    8.2599  -15.5702   22.4316 C   0  0  1  0  0  0  0  0  0  0  0  0
    7.8923  -14.3210   21.6841 C   0  0  0  0  0  0  0  0  0  0  0  0
    8.9794  -14.0199   20.6801 C   0  0  0  0  0  0  0  0  0  0  0  0
    8.3793  -13.5183   19.3777 C   0  0  0  0  0  0  0  0  0  0  0  0
    9.4669  -12.9938   18.4901 C   0  0  0  0  0  0  0  0  0  0  0  0
    8.7966  -12.3497   17.3487 N   0  0  0  0  0  0  0  0  0  0  0  0
    9.5641  -15.3583   23.1477 C   0  0  0  0  0  0  0  0  0  0  0  0
   10.5483  -15.0359   22.4551 O   0  0  0  0  0  0  0  0  0  0  0  0
   10.5577  -13.6076   28.4295 C   0  0  0  0  0  0  0  0  0  0  0  0
   10.9678  -13.8029   26.9630 C   0  0  2  0  0  0  0  0  0  0  0  0
   10.1066  -12.9491   26.0771 C   0  0  0  0  0  0  0  0  0  0  0  0
   10.9757  -15.2407   26.5994 C   0  0  0  0  0  0  0  0  0  0  0  0
   11.0486  -15.4529   25.1216 C   0  0  2  0  0  0  0  0  0  0  0  0
    9.6980  -15.5112   24.5470 N   0  0  0  0  0  0  0  0  0  0  0  0
   11.7504  -16.6933   24.7632 C   0  0  0  0  0  0  0  0  0  0  0  0
   12.9529  -16.8514   25.1612 O   0  0  0  0  0  0  0  0  0  0  0  0
   11.1964  -17.7108   24.0218 O   0  0  0  0  0  0  0  0  0  0  0  0
  2 10  1  0
  2  1  1  1
  3  2  1  0
  4  9  2  0
  4  3  1  0
  5  4  1  0
  6  7  1  0
  6  5  2  0
  7  8  2  0
  8  9  1  0
 10 11  2  0
 12 13  1  0
 12 10  1  0
 13 14  1  1
 14 15  1  0
 15 16  1  0
 16 17  1  0
 17 18  1  0
 19 13  1  0
 20 19  2  0
 22 21  1  1
 23 22  1  0
 25 24  1  1
 24 22  1  0
 25 26  1  0
 26 19  1  0
 27 25  1  0
 27 29  1  0
 28 27  2  0
M  END
$$$$
