FKL.pdb
     RDKit          3D

 29 29  0  0  1  0  0  0  0  0999 V2000
    5.5596  -18.4251   25.1333 N   0  0  0  0  0  0  0  0  0  0  0  0
    5.7770  -17.0021   25.0942 C   0  0  1  0  0  0  0  0  0  0  0  0
    6.0821  -16.4138   26.4446 C   0  0  0  0  0  0  0  0  0  0  0  0
    6.1821  -14.9572   26.4567 C   0  0  0  0  0  0  0  0  0  0  0  0
    5.0330  -14.1986   26.4889 C   0  0  0  0  0  0  0  0  0  0  0  0
    5.0745  -12.8068   26.5016 C   0  0  0  0  0  0  0  0  0  0  0  0
    6.2836  -12.1635   26.4818 C   0  0  0  0  0  0  0  0  0  0  0  0
    7.4371  -12.9168   26.4496 C   0  0  0  0  0  0  0  0  0  0  0  0
    7.3938  -14.3047   26.4369 C   0  0  0  0  0  0  0  0  0  0  0  0
    6.9448  -16.7445   24.2177 C   0  0  0  0  0  0  0  0  0  0  0  0
    7.8564  -17.6050   24.1850 O   0  0  0  0  0  0  0  0  0  0  0  0
    7.1032  -15.5853   23.4089 N   0  0  0  0  0  0  0  0  0  0  0  0
    8.2094  -15.4407   22.4846 C   0  0  1  0  0  0  0  0  0  0  0  0
    8.1309  -14.1608   21.7035 C   0  0  0  0  0  0  0  0  0  0  0  0
    8.8986  -14.3325   20.4144 C   0  0  0  0  0  0  0  0  0  0  0  0
    8.7894  -13.0829   19.5574 C   0  0  0  0  0  0  0  0  0  0  0  0
    8.5980  -13.4704   18.1225 C   0  0  0  0  0  0  0  0  0  0  0  0
    9.8067  -14.2124   17.7283 N   0  0  0  0  0  0  0  0  0  0  0  0
    9.5298  -15.5099   23.1989 C   0  0  0  0  0  0  0  0  0  0  0  0
   10.5498  -15.2347   22.5383 O   0  0  0  0  0  0  0  0  0  0  0  0
   10.5013  -14.8123   28.8116 C   0  0  0  0  0  0  0  0  0  0  0  0
   10.9662  -14.6938   27.3531 C   0  0  2  0  0  0  0  0  0  0  0  0
   10.2252  -13.5784   26.6732 C   0  0  0  0  0  0  0  0  0  0  0  0
   10.8709  -15.9996   26.6564 C   0  0  0  0  0  0  0  0  0  0  0  0
   10.9765  -15.8608   25.1719 C   0  0  2  0  0  0  0  0  0  0  0  0
    9.6402  -15.8689   24.5620 N   0  0  0  0  0  0  0  0  0  0  0  0
   11.7641  -16.9393   24.5585 C   0  0  0  0  0  0  0  0  0  0  0  0
   11.1736  -17.7586   23.7778 O   0  0  0  0  0  0  0  0  0  0  0  0
   13.1102  -17.1306   24.7662 O   0  0  0  0  0  0  0  0  0  0  0  0
  2 10  1  0
  2  1  1  1
  3  2  1  0
  4  9  2  0
  4  3  1  0
  5  4  1  0
  6  7  1  0
  6  5  2  0
  7  8  2  0
  8  9  1  0
 10 11  2  0
 12 13  1  0
 12 10  1  0
 13 14  1  1
 14 15  1  0
 15 16  1  0
 16 17  1  0
 17 18  1  0
 19 13  1  0
 20 19  2  0
 22 21  1  1
 23 22  1  0
 25 24  1  1
 24 22  1  0
 25 26  1  0
 26 19  1  0
 27 25  1  0
 27 29  1  0
 28 27  2  0
M  END
$$$$
