FKL.pdb
     RDKit          3D

 29 29  0  0  1  0  0  0  0  0999 V2000
    5.5147  -17.9794   24.5388 N   0  0  0  0  0  0  0  0  0  0  0  0
    6.0174  -16.6316   24.6049 C   0  0  1  0  0  0  0  0  0  0  0  0
    6.1258  -16.1100   26.0116 C   0  0  0  0  0  0  0  0  0  0  0  0
    6.4528  -14.6899   26.1023 C   0  0  0  0  0  0  0  0  0  0  0  0
    5.4601  -13.7828   26.4003 C   0  0  0  0  0  0  0  0  0  0  0  0
    5.7202  -12.4184   26.4981 C   0  0  0  0  0  0  0  0  0  0  0  0
    6.9926  -11.9536   26.2949 C   0  0  0  0  0  0  0  0  0  0  0  0
    7.9904  -12.8560   25.9964 C   0  0  0  0  0  0  0  0  0  0  0  0
    7.7291  -14.2164   25.8993 C   0  0  0  0  0  0  0  0  0  0  0  0
    7.3785  -16.6246   24.0170 C   0  0  0  0  0  0  0  0  0  0  0  0
    8.1797  -17.5187   24.3790 O   0  0  0  0  0  0  0  0  0  0  0  0
    7.8397  -15.6709   23.0679 N   0  0  0  0  0  0  0  0  0  0  0  0
    9.1952  -15.6917   22.5569 C   0  0  1  0  0  0  0  0  0  0  0  0
    9.4389  -14.6013   21.5538 C   0  0  0  0  0  0  0  0  0  0  0  0
    8.5812  -14.8610   20.3384 C   0  0  0  0  0  0  0  0  0  0  0  0
    8.8530  -13.8242   19.2617 C   0  0  0  0  0  0  0  0  0  0  0  0
    8.0330  -14.1327   18.0459 C   0  0  0  0  0  0  0  0  0  0  0  0
    8.3529  -13.0924   17.0547 N   0  0  0  0  0  0  0  0  0  0  0  0
   10.1994  -15.5807   23.6694 C   0  0  0  0  0  0  0  0  0  0  0  0
   10.8905  -14.5448   23.7116 O   0  0  0  0  0  0  0  0  0  0  0  0
    9.3748  -14.1701   28.7781 C   0  0  0  0  0  0  0  0  0  0  0  0
   10.4943  -14.8364   27.9657 C   0  0  2  0  0  0  0  0  0  0  0  0
   11.7129  -13.9587   27.9659 C   0  0  0  0  0  0  0  0  0  0  0  0
   10.0178  -15.2140   26.6130 C   0  0  0  0  0  0  0  0  0  0  0  0
   10.9173  -16.2068   25.9501 C   0  0  2  0  0  0  0  0  0  0  0  0
   10.3745  -16.5930   24.6410 N   0  0  0  0  0  0  0  0  0  0  0  0
   11.0956  -17.4281   26.7479 C   0  0  0  0  0  0  0  0  0  0  0  0
   11.6900  -17.3403   27.8742 O   0  0  0  0  0  0  0  0  0  0  0  0
   10.6601  -18.6750   26.3642 O   0  0  0  0  0  0  0  0  0  0  0  0
  2 10  1  0
  2  1  1  1
  3  2  1  0
  4  9  2  0
  4  3  1  0
  5  4  1  0
  6  7  1  0
  6  5  2  0
  7  8  2  0
  8  9  1  0
 10 11  2  0
 12 13  1  0
 12 10  1  0
 13 14  1  6
 14 15  1  0
 15 16  1  0
 16 17  1  0
 17 18  1  0
 19 13  1  0
 20 19  2  0
 22 21  1  6
 23 22  1  0
 25 24  1  1
 24 22  1  0
 25 26  1  0
 26 19  1  0
 27 25  1  0
 27 29  1  0
 28 27  2  0
M  END
$$$$
