FKL.pdb
     RDKit          3D

 29 29  0  0  1  0  0  0  0  0999 V2000
    6.5382  -17.0555   25.8900 N   0  0  0  0  0  0  0  0  0  0  0  0
    6.2764  -16.6415   24.5359 C   0  0  1  0  0  0  0  0  0  0  0  0
    5.3314  -15.4745   24.4472 C   0  0  0  0  0  0  0  0  0  0  0  0
    5.7196  -14.3240   25.2581 C   0  0  0  0  0  0  0  0  0  0  0  0
    6.8048  -13.5639   24.8817 C   0  0  0  0  0  0  0  0  0  0  0  0
    7.2154  -12.4575   25.6206 C   0  0  0  0  0  0  0  0  0  0  0  0
    6.5305  -12.1055   26.7534 C   0  0  0  0  0  0  0  0  0  0  0  0
    5.4438  -12.8618   27.1354 C   0  0  0  0  0  0  0  0  0  0  0  0
    5.0357  -13.9650   26.3973 C   0  0  0  0  0  0  0  0  0  0  0  0
    7.5641  -16.2237   23.9311 C   0  0  0  0  0  0  0  0  0  0  0  0
    8.5840  -16.9056   24.1906 O   0  0  0  0  0  0  0  0  0  0  0  0
    7.7231  -15.0996   23.0744 N   0  0  0  0  0  0  0  0  0  0  0  0
    8.9396  -14.8768   22.3198 C   0  0  1  0  0  0  0  0  0  0  0  0
    8.9466  -13.5384   21.6391 C   0  0  0  0  0  0  0  0  0  0  0  0
    8.0502  -13.6076   20.4259 C   0  0  0  0  0  0  0  0  0  0  0  0
    8.8242  -14.1072   19.2179 C   0  0  0  0  0  0  0  0  0  0  0  0
    7.9128  -14.1830   18.0307 C   0  0  0  0  0  0  0  0  0  0  0  0
    8.6920  -14.8064   16.9485 N   0  0  0  0  0  0  0  0  0  0  0  0
   10.1549  -14.9982   23.1955 C   0  0  0  0  0  0  0  0  0  0  0  0
   10.8824  -13.9924   23.3028 O   0  0  0  0  0  0  0  0  0  0  0  0
   10.4650  -14.7567   28.5509 C   0  0  0  0  0  0  0  0  0  0  0  0
   11.3814  -15.1311   27.3774 C   0  0  2  0  0  0  0  0  0  0  0  0
   12.5421  -14.1801   27.3162 C   0  0  0  0  0  0  0  0  0  0  0  0
   10.6126  -15.2332   26.1133 C   0  0  0  0  0  0  0  0  0  0  0  0
   11.3012  -16.0851   25.0964 C   0  0  2  0  0  0  0  0  0  0  0  0
   10.4836  -16.1906   23.8807 N   0  0  0  0  0  0  0  0  0  0  0  0
   11.5676  -17.4450   25.5860 C   0  0  0  0  0  0  0  0  0  0  0  0
   10.7148  -18.3616   25.3370 O   0  0  0  0  0  0  0  0  0  0  0  0
   12.6857  -17.8063   26.3007 O   0  0  0  0  0  0  0  0  0  0  0  0
  2 10  1  0
  2  1  1  1
  3  2  1  0
  4  9  2  0
  4  3  1  0
  5  4  1  0
  6  7  1  0
  6  5  2  0
  7  8  2  0
  8  9  1  0
 10 11  2  0
 12 13  1  0
 12 10  1  0
 13 14  1  1
 14 15  1  0
 15 16  1  0
 16 17  1  0
 17 18  1  0
 19 13  1  0
 20 19  2  0
 22 21  1  1
 23 22  1  0
 25 24  1  1
 24 22  1  0
 25 26  1  0
 26 19  1  0
 27 25  1  0
 27 29  1  0
 28 27  2  0
M  END
$$$$
