FKL.pdb
     RDKit          3D

 29 29  0  0  1  0  0  0  0  0999 V2000
    5.6265  -18.0706   24.0733 N   0  0  0  0  0  0  0  0  0  0  0  0
    6.3334  -16.8232   24.2073 C   0  0  1  0  0  0  0  0  0  0  0  0
    6.2773  -16.2593   25.6007 C   0  0  0  0  0  0  0  0  0  0  0  0
    6.7668  -14.8884   25.7142 C   0  0  0  0  0  0  0  0  0  0  0  0
    6.1716  -14.0274   26.6096 C   0  0  0  0  0  0  0  0  0  0  0  0
    6.6011  -12.7110   26.7556 C   0  0  0  0  0  0  0  0  0  0  0  0
    7.6418  -12.2481   25.9947 C   0  0  0  0  0  0  0  0  0  0  0  0
    8.2416  -13.1044   25.0970 C   0  0  0  0  0  0  0  0  0  0  0  0
    7.8119  -14.4170   24.9527 C   0  0  0  0  0  0  0  0  0  0  0  0
    7.7582  -17.0705   23.8799 C   0  0  0  0  0  0  0  0  0  0  0  0
    8.3145  -18.0700   24.3937 O   0  0  0  0  0  0  0  0  0  0  0  0
    8.5400  -16.2500   23.0206 N   0  0  0  0  0  0  0  0  0  0  0  0
    9.9452  -16.5098   22.7821 C   0  0  1  0  0  0  0  0  0  0  0  0
   10.4507  -15.8073   21.5552 C   0  0  0  0  0  0  0  0  0  0  0  0
    9.7820  -16.4094   20.3425 C   0  0  0  0  0  0  0  0  0  0  0  0
    9.9518  -17.9191   20.3336 C   0  0  0  0  0  0  0  0  0  0  0  0
    9.2870  -18.4944   19.1199 C   0  0  0  0  0  0  0  0  0  0  0  0
    9.4999  -19.9497   19.1807 N   0  0  0  0  0  0  0  0  0  0  0  0
   10.7820  -16.1128   23.9656 C   0  0  0  0  0  0  0  0  0  0  0  0
   11.3928  -15.0292   23.8934 O   0  0  0  0  0  0  0  0  0  0  0  0
    8.4802  -14.3444   28.5001 C   0  0  0  0  0  0  0  0  0  0  0  0
    9.8863  -14.7071   28.0014 C   0  0  2  0  0  0  0  0  0  0  0  0
   10.7670  -13.4911   28.0376 C   0  0  0  0  0  0  0  0  0  0  0  0
    9.8261  -15.3743   26.6783 C   0  0  0  0  0  0  0  0  0  0  0  0
   11.0187  -16.2383   26.4227 C   0  0  2  0  0  0  0  0  0  0  0  0
   10.8903  -16.9148   25.1251 N   0  0  0  0  0  0  0  0  0  0  0  0
   11.2030  -17.2665   27.4564 C   0  0  0  0  0  0  0  0  0  0  0  0
   10.4924  -18.3254   27.3981 O   0  0  0  0  0  0  0  0  0  0  0  0
   12.0997  -17.1697   28.4948 O   0  0  0  0  0  0  0  0  0  0  0  0
  2 10  1  0
  2  1  1  1
  3  2  1  0
  4  9  2  0
  4  3  1  0
  5  4  1  0
  6  7  1  0
  6  5  2  0
  7  8  2  0
  8  9  1  0
 10 11  2  0
 12 13  1  0
 12 10  1  0
 13 14  1  6
 14 15  1  0
 15 16  1  0
 16 17  1  0
 17 18  1  0
 19 13  1  0
 20 19  2  0
 22 21  1  6
 23 22  1  0
 25 24  1  1
 24 22  1  0
 25 26  1  0
 26 19  1  0
 27 25  1  0
 27 29  1  0
 28 27  2  0
M  END
$$$$
