FKL.pdb
     RDKit          3D

 29 29  0  0  1  0  0  0  0  0999 V2000
    6.0249  -19.0363   24.4730 N   0  0  0  0  0  0  0  0  0  0  0  0
    6.1221  -17.6131   24.6697 C   0  0  1  0  0  0  0  0  0  0  0  0
    6.2539  -17.2244   26.1168 C   0  0  0  0  0  0  0  0  0  0  0  0
    6.3351  -15.7850   26.3474 C   0  0  0  0  0  0  0  0  0  0  0  0
    6.7442  -15.3168   27.5765 C   0  0  0  0  0  0  0  0  0  0  0  0
    6.8383  -13.9541   27.8466 C   0  0  0  0  0  0  0  0  0  0  0  0
    6.5184  -13.0453   26.8729 C   0  0  0  0  0  0  0  0  0  0  0  0
    6.1084  -13.5072   25.6411 C   0  0  0  0  0  0  0  0  0  0  0  0
    6.0152  -14.8666   25.3734 C   0  0  0  0  0  0  0  0  0  0  0  0
    7.3370  -17.1385   23.9646 C   0  0  0  0  0  0  0  0  0  0  0  0
    8.3412  -17.8896   23.9533 O   0  0  0  0  0  0  0  0  0  0  0  0
    7.4427  -15.8865   23.2982 N   0  0  0  0  0  0  0  0  0  0  0  0
    8.5305  -15.5921   22.3876 C   0  0  1  0  0  0  0  0  0  0  0  0
    8.2576  -14.3729   21.5549 C   0  0  0  0  0  0  0  0  0  0  0  0
    8.3162  -14.7597   20.0963 C   0  0  0  0  0  0  0  0  0  0  0  0
    8.5501  -13.5352   19.2281 C   0  0  0  0  0  0  0  0  0  0  0  0
    8.6026  -13.9414   17.7866 C   0  0  0  0  0  0  0  0  0  0  0  0
    8.9541  -12.7306   17.0268 N   0  0  0  0  0  0  0  0  0  0  0  0
    9.8269  -15.4127   23.1262 C   0  0  0  0  0  0  0  0  0  0  0  0
   10.4612  -14.3611   22.9163 O   0  0  0  0  0  0  0  0  0  0  0  0
    9.8616  -13.7624   28.1608 C   0  0  0  0  0  0  0  0  0  0  0  0
   10.8108  -14.6253   27.3173 C   0  0  2  0  0  0  0  0  0  0  0  0
   12.1344  -13.9307   27.1724 C   0  0  0  0  0  0  0  0  0  0  0  0
   10.1809  -15.0067   26.0299 C   0  0  0  0  0  0  0  0  0  0  0  0
   11.0533  -15.9058   25.2147 C   0  0  2  0  0  0  0  0  0  0  0  0
   10.3301  -16.3794   24.0271 N   0  0  0  0  0  0  0  0  0  0  0  0
   11.5128  -17.0813   25.9675 C   0  0  0  0  0  0  0  0  0  0  0  0
   12.7673  -17.3039   26.0463 O   0  0  0  0  0  0  0  0  0  0  0  0
   10.6773  -17.9695   26.6037 O   0  0  0  0  0  0  0  0  0  0  0  0
  2 10  1  0
  2  1  1  1
  3  2  1  0
  4  9  2  0
  4  3  1  0
  5  4  1  0
  6  7  1  0
  6  5  2  0
  7  8  2  0
  8  9  1  0
 10 11  2  0
 12 13  1  0
 12 10  1  0
 13 14  1  1
 14 15  1  0
 15 16  1  0
 16 17  1  0
 17 18  1  0
 19 13  1  0
 20 19  2  0
 22 21  1  6
 23 22  1  0
 25 24  1  1
 24 22  1  0
 25 26  1  0
 26 19  1  0
 27 25  1  0
 27 29  1  0
 28 27  2  0
M  END
$$$$
