FKL.pdb
     RDKit          3D

 29 29  0  0  1  0  0  0  0  0999 V2000
    5.5566  -16.9191   25.3279 N   0  0  0  0  0  0  0  0  0  0  0  0
    6.5209  -15.9644   24.8458 C   0  0  1  0  0  0  0  0  0  0  0  0
    6.9166  -14.9493   25.8831 C   0  0  0  0  0  0  0  0  0  0  0  0
    6.4243  -13.5998   25.6216 C   0  0  0  0  0  0  0  0  0  0  0  0
    5.1785  -13.2316   26.0793 C   0  0  0  0  0  0  0  0  0  0  0  0
    4.6635  -11.9573   25.8562 C   0  0  0  0  0  0  0  0  0  0  0  0
    5.4057  -11.0368   25.1646 C   0  0  0  0  0  0  0  0  0  0  0  0
    6.6528  -11.3989   24.7039 C   0  0  0  0  0  0  0  0  0  0  0  0
    7.1648  -12.6702   24.9274 C   0  0  0  0  0  0  0  0  0  0  0  0
    7.7427  -16.7089   24.4568 C   0  0  0  0  0  0  0  0  0  0  0  0
    8.2145  -17.5330   25.2758 O   0  0  0  0  0  0  0  0  0  0  0  0
    8.4186  -16.5525   23.2153 N   0  0  0  0  0  0  0  0  0  0  0  0
    9.8148  -16.9039   23.0530 C   0  0  1  0  0  0  0  0  0  0  0  0
   10.3900  -16.3628   21.7759 C   0  0  0  0  0  0  0  0  0  0  0  0
   11.7235  -17.0260   21.5264 C   0  0  0  0  0  0  0  0  0  0  0  0
   11.9594  -17.2069   20.0365 C   0  0  0  0  0  0  0  0  0  0  0  0
   13.1821  -18.0453   19.8175 C   0  0  0  0  0  0  0  0  0  0  0  0
   13.2686  -18.2819   18.3671 N   0  0  0  0  0  0  0  0  0  0  0  0
   10.6372  -16.4223   24.2149 C   0  0  0  0  0  0  0  0  0  0  0  0
   10.5572  -15.2137   24.5072 O   0  0  0  0  0  0  0  0  0  0  0  0
   11.5893  -14.4513   27.3533 C   0  0  0  0  0  0  0  0  0  0  0  0
   10.3621  -15.3472   27.5735 C   0  0  2  0  0  0  0  0  0  0  0  0
    9.8614  -15.1855   28.9801 C   0  0  0  0  0  0  0  0  0  0  0  0
   10.6514  -16.7501   27.1893 C   0  0  0  0  0  0  0  0  0  0  0  0
   11.8601  -16.8629   26.3171 C   0  0  2  0  0  0  0  0  0  0  0  0
   11.4751  -17.2814   24.9628 N   0  0  0  0  0  0  0  0  0  0  0  0
   12.8396  -17.8300   26.8319 C   0  0  0  0  0  0  0  0  0  0  0  0
   13.9304  -17.3894   27.3273 O   0  0  0  0  0  0  0  0  0  0  0  0
   12.6621  -19.1939   26.8201 O   0  0  0  0  0  0  0  0  0  0  0  0
  2 10  1  0
  2  1  1  1
  3  2  1  0
  4  9  2  0
  4  3  1  0
  5  4  1  0
  6  7  1  0
  6  5  2  0
  7  8  2  0
  8  9  1  0
 10 11  2  0
 12 13  1  0
 12 10  1  0
 13 14  1  6
 14 15  1  0
 15 16  1  0
 16 17  1  0
 17 18  1  0
 19 13  1  0
 20 19  2  0
 22 21  1  1
 23 22  1  0
 25 24  1  1
 24 22  1  0
 25 26  1  0
 26 19  1  0
 27 25  1  0
 27 29  1  0
 28 27  2  0
M  END
$$$$
