QDV.pdb
     RDKit          3D

 25 24  0  0  1  0  0  0  0  0999 V2000
   14.9790  -13.6546  -16.0244 N   0  0  0  0  0  0  0  0  0  0  0  0
   14.5658  -13.7883  -17.4015 C   0  0  0  0  0  0  0  0  0  0  0  0
   13.6012  -14.5096  -17.7081 O   0  0  0  0  0  0  0  0  0  0  0  0
   15.3021  -13.0588  -18.4585 C   0  0  0  0  0  0  0  0  0  0  0  0
   16.3563  -12.1885  -17.8845 C   0  0  0  0  0  0  0  0  0  0  0  0
   17.7090  -12.4818  -18.4727 C   0  0  2  0  0  0  0  0  0  0  0  0
   17.8971  -13.9338  -18.2675 N   0  0  0  0  0  0  0  0  0  0  0  0
   18.7452  -11.7280  -17.7281 C   0  0  0  0  0  0  0  0  0  0  0  0
   18.9269  -11.8631  -16.4944 O   0  0  0  0  0  0  0  0  0  0  0  0
   19.6155  -10.7854  -18.3799 N   0  0  0  0  0  0  0  0  0  0  0  0
   20.6233  -10.0683  -17.6279 C   0  0  1  0  0  0  0  0  0  0  0  0
   21.9782  -10.4259  -18.1690 C   0  0  0  0  0  0  0  0  0  0  0  0
   22.4096  -11.7857  -17.8398 C   0  0  0  0  0  0  0  0  0  0  0  0
   22.5652  -12.0645  -16.6179 O   0  0  0  0  0  0  0  0  0  0  0  0
   20.3718   -8.6152  -17.5879 C   0  0  0  0  0  0  0  0  0  0  0  0
   20.4104   -7.9722  -18.6661 O   0  0  0  0  0  0  0  0  0  0  0  0
   22.6631  -12.7949  -18.7436 O   0  0  0  0  0  0  0  0  0  0  0  0
   17.9942   -6.6722  -14.7142 C   0  0  0  0  0  0  0  0  0  0  0  0
   18.3461   -6.1412  -16.0953 C   0  0  2  0  0  0  0  0  0  0  0  0
   17.3753   -6.8467  -17.0414 C   0  0  0  0  0  0  0  0  0  0  0  0
   19.7582   -6.4887  -16.3611 C   0  0  2  0  0  0  0  0  0  0  0  0
   20.0890   -7.8732  -16.4388 N   0  0  0  0  0  0  0  0  0  0  0  0
   20.6454   -5.8525  -15.3619 C   0  0  0  0  0  0  0  0  0  0  0  0
   21.3239   -6.5888  -14.4101 O   0  0  0  0  0  0  0  0  0  0  0  0
   20.8034   -4.6125  -15.3569 O   0  0  0  0  0  0  0  0  0  0  0  0
  1  2  1  0
  2  3  2  0
  4  2  1  0
  4  5  1  0
  6  5  1  0
  6  8  1  0
  6  7  1  1
  8  9  2  0
  8 10  1  0
 10 11  1  0
 11 12  1  6
 12 13  1  0
 13 14  2  0
 15 11  1  0
 15 22  1  0
 16 15  2  0
 17 13  1  0
 19 21  1  0
 19 18  1  1
 20 19  1  0
 21 23  1  0
 21 22  1  1
 23 25  2  0
 23 24  1  0
M  END
$$$$
