QDV.pdb
     RDKit          3D

 25 24  0  0  1  0  0  0  0  0999 V2000
   16.2461  -15.4592  -14.1457 N   0  0  0  0  0  0  0  0  0  0  0  0
   15.6697  -15.6081  -15.4612 C   0  0  0  0  0  0  0  0  0  0  0  0
   15.1197  -16.6709  -15.7972 O   0  0  0  0  0  0  0  0  0  0  0  0
   15.7376  -14.4819  -16.4196 C   0  0  0  0  0  0  0  0  0  0  0  0
   16.3199  -13.2704  -15.7939 C   0  0  0  0  0  0  0  0  0  0  0  0
   17.3949  -12.6578  -16.6488 C   0  0  2  0  0  0  0  0  0  0  0  0
   18.3948  -13.7338  -16.8171 N   0  0  0  0  0  0  0  0  0  0  0  0
   18.0022  -11.5115  -15.9323 C   0  0  0  0  0  0  0  0  0  0  0  0
   18.8487  -11.6547  -15.0178 O   0  0  0  0  0  0  0  0  0  0  0  0
   17.6556  -10.1500  -16.2439 N   0  0  0  0  0  0  0  0  0  0  0  0
   18.3419   -9.0481  -15.6035 C   0  0  1  0  0  0  0  0  0  0  0  0
   19.8225   -9.2917  -15.6747 C   0  0  0  0  0  0  0  0  0  0  0  0
   20.6318   -8.1915  -15.1476 C   0  0  0  0  0  0  0  0  0  0  0  0
   20.5257   -7.9323  -13.9162 O   0  0  0  0  0  0  0  0  0  0  0  0
   17.9358   -7.7374  -16.1452 C   0  0  0  0  0  0  0  0  0  0  0  0
   18.1901   -7.4834  -17.3486 O   0  0  0  0  0  0  0  0  0  0  0  0
   21.5031   -7.4083  -15.8737 O   0  0  0  0  0  0  0  0  0  0  0  0
   15.2675   -5.1011  -14.0804 C   0  0  0  0  0  0  0  0  0  0  0  0
   15.3747   -5.1537  -15.5966 C   0  0  2  0  0  0  0  0  0  0  0  0
   14.3789   -6.2332  -16.0190 C   0  0  0  0  0  0  0  0  0  0  0  0
   16.7716   -5.5005  -15.9342 C   0  0  2  0  0  0  0  0  0  0  0  0
   17.2814   -6.7323  -15.4292 N   0  0  0  0  0  0  0  0  0  0  0  0
   17.6888   -4.4133  -15.5251 C   0  0  0  0  0  0  0  0  0  0  0  0
   17.6703   -3.1721  -16.1312 O   0  0  0  0  0  0  0  0  0  0  0  0
   18.5152   -4.5975  -14.6055 O   0  0  0  0  0  0  0  0  0  0  0  0
  1  2  1  0
  2  3  2  0
  4  2  1  0
  4  5  1  0
  6  5  1  0
  6  8  1  0
  6  7  1  1
  8  9  2  0
  8 10  1  0
 10 11  1  0
 11 12  1  6
 12 13  1  0
 13 14  2  0
 15 11  1  0
 15 22  1  0
 16 15  2  0
 17 13  1  0
 19 21  1  0
 19 18  1  1
 20 19  1  0
 21 23  1  0
 21 22  1  1
 23 25  2  0
 23 24  1  0
M  END
$$$$
