QDV.pdb
     RDKit          3D

 25 24  0  0  1  0  0  0  0  0999 V2000
   27.7123  -22.9814  -16.5985 N   0  0  0  0  0  0  0  0  0  0  0  0
   28.1736  -21.7407  -16.0215 C   0  0  0  0  0  0  0  0  0  0  0  0
   27.9827  -21.4896  -14.8192 O   0  0  0  0  0  0  0  0  0  0  0  0
   28.8794  -20.7573  -16.8736 C   0  0  0  0  0  0  0  0  0  0  0  0
   28.2397  -19.4214  -16.8055 C   0  0  0  0  0  0  0  0  0  0  0  0
   26.9402  -19.3814  -17.5613 C   0  0  2  0  0  0  0  0  0  0  0  0
   27.1143  -18.2903  -18.5436 N   0  0  0  0  0  0  0  0  0  0  0  0
   25.8368  -19.0504  -16.6290 C   0  0  0  0  0  0  0  0  0  0  0  0
   25.6998  -17.9138  -16.1166 O   0  0  0  0  0  0  0  0  0  0  0  0
   24.8445  -20.0212  -16.2499 N   0  0  0  0  0  0  0  0  0  0  0  0
   23.7377  -19.6504  -15.3938 C   0  0  1  0  0  0  0  0  0  0  0  0
   22.5043  -19.4926  -16.2366 C   0  0  0  0  0  0  0  0  0  0  0  0
   21.3043  -19.1433  -15.4741 C   0  0  0  0  0  0  0  0  0  0  0  0
   21.4343  -18.3004  -14.5427 O   0  0  0  0  0  0  0  0  0  0  0  0
   23.5610  -20.5812  -14.2629 C   0  0  0  0  0  0  0  0  0  0  0  0
   23.3211  -21.7881  -14.5142 O   0  0  0  0  0  0  0  0  0  0  0  0
   20.0395  -19.6514  -15.6790 O   0  0  0  0  0  0  0  0  0  0  0  0
   24.2870  -19.5566  -10.0881 C   0  0  0  0  0  0  0  0  0  0  0  0
   24.5313  -20.9266  -10.7017 C   0  0  2  0  0  0  0  0  0  0  0  0
   25.9710  -20.8725  -11.2114 C   0  0  0  0  0  0  0  0  0  0  0  0
   23.5464  -21.1115  -11.7886 C   0  0  2  0  0  0  0  0  0  0  0  0
   23.6373  -20.2375  -12.9112 N   0  0  0  0  0  0  0  0  0  0  0  0
   22.1674  -21.0439  -11.2553 C   0  0  0  0  0  0  0  0  0  0  0  0
   21.6713  -21.9943  -10.3841 O   0  0  0  0  0  0  0  0  0  0  0  0
   21.4075  -20.1087  -11.5874 O   0  0  0  0  0  0  0  0  0  0  0  0
  1  2  1  0
  2  3  2  0
  4  2  1  0
  4  5  1  0
  6  5  1  0
  6  8  1  0
  6  7  1  6
  8  9  2  0
  8 10  1  0
 10 11  1  0
 11 12  1  6
 12 13  1  0
 13 14  2  0
 15 11  1  0
 15 22  1  0
 16 15  2  0
 17 13  1  0
 19 21  1  0
 19 18  1  6
 20 19  1  0
 21 23  1  0
 21 22  1  6
 23 25  2  0
 23 24  1  0
M  END
$$$$
