QDV.pdb
     RDKit          3D

 25 24  0  0  1  0  0  0  0  0999 V2000
   29.9883  -26.1882  -15.8254 N   0  0  0  0  0  0  0  0  0  0  0  0
   29.2190  -26.4152  -17.0261 C   0  0  0  0  0  0  0  0  0  0  0  0
   29.3674  -27.4566  -17.6882 O   0  0  0  0  0  0  0  0  0  0  0  0
   28.2448  -25.3941  -17.4729 C   0  0  0  0  0  0  0  0  0  0  0  0
   28.1508  -24.2734  -16.5066 C   0  0  0  0  0  0  0  0  0  0  0  0
   28.2847  -22.9364  -17.1820 C   0  0  2  0  0  0  0  0  0  0  0  0
   29.7316  -22.6369  -17.1311 N   0  0  0  0  0  0  0  0  0  0  0  0
   27.5307  -21.9176  -16.4139 C   0  0  0  0  0  0  0  0  0  0  0  0
   28.0902  -20.9666  -15.8175 O   0  0  0  0  0  0  0  0  0  0  0  0
   26.0964  -21.9562  -16.3034 N   0  0  0  0  0  0  0  0  0  0  0  0
   25.3758  -20.8768  -15.6623 C   0  0  1  0  0  0  0  0  0  0  0  0
   24.4586  -20.2413  -16.6681 C   0  0  0  0  0  0  0  0  0  0  0  0
   23.7253  -19.0827  -16.1549 C   0  0  0  0  0  0  0  0  0  0  0  0
   23.2830  -18.2557  -17.0006 O   0  0  0  0  0  0  0  0  0  0  0  0
   24.6878  -21.3090  -14.4310 C   0  0  0  0  0  0  0  0  0  0  0  0
   23.7749  -22.1663  -14.5260 O   0  0  0  0  0  0  0  0  0  0  0  0
   23.4716  -18.8090  -14.8280 O   0  0  0  0  0  0  0  0  0  0  0  0
   24.9147  -19.3978  -10.4893 C   0  0  0  0  0  0  0  0  0  0  0  0
   25.0501  -20.9025  -10.6642 C   0  0  2  0  0  0  0  0  0  0  0  0
   26.5567  -21.1531  -10.7173 C   0  0  0  0  0  0  0  0  0  0  0  0
   24.3646  -21.2698  -11.9214 C   0  0  2  0  0  0  0  0  0  0  0  0
   24.9632  -20.8436  -13.1431 N   0  0  0  0  0  0  0  0  0  0  0  0
   22.9606  -20.8019  -11.9019 C   0  0  0  0  0  0  0  0  0  0  0  0
   22.4718  -19.9118  -12.8385 O   0  0  0  0  0  0  0  0  0  0  0  0
   22.1719  -21.2090  -11.0218 O   0  0  0  0  0  0  0  0  0  0  0  0
  1  2  1  0
  2  3  2  0
  4  2  1  0
  4  5  1  0
  6  5  1  0
  6  8  1  0
  6  7  1  1
  8  9  2  0
  8 10  1  0
 10 11  1  0
 11 12  1  6
 12 13  1  0
 13 14  2  0
 15 11  1  0
 15 22  1  0
 16 15  2  0
 17 13  1  0
 19 21  1  0
 19 18  1  6
 20 19  1  0
 21 23  1  0
 21 22  1  6
 23 25  2  0
 23 24  1  0
M  END
$$$$
