QDV.pdb
     RDKit          3D

 25 24  0  0  1  0  0  0  0  0999 V2000
   13.3756   -9.2166  -15.9838 N   0  0  0  0  0  0  0  0  0  0  0  0
   12.4798  -10.2769  -15.5859 C   0  0  0  0  0  0  0  0  0  0  0  0
   11.2744  -10.2363  -15.8862 O   0  0  0  0  0  0  0  0  0  0  0  0
   13.0047  -11.4232  -14.8100 C   0  0  0  0  0  0  0  0  0  0  0  0
   14.4580  -11.2842  -14.5512 C   0  0  0  0  0  0  0  0  0  0  0  0
   15.2825  -12.0416  -15.5553 C   0  0  2  0  0  0  0  0  0  0  0  0
   15.0849  -13.4636  -15.2024 N   0  0  0  0  0  0  0  0  0  0  0  0
   16.7101  -11.6759  -15.3983 C   0  0  0  0  0  0  0  0  0  0  0  0
   17.4749  -12.2586  -14.5929 O   0  0  0  0  0  0  0  0  0  0  0  0
   17.3135  -10.6197  -16.1673 N   0  0  0  0  0  0  0  0  0  0  0  0
   18.7408  -10.3860  -16.1083 C   0  0  1  0  0  0  0  0  0  0  0  0
   19.3365  -10.6799  -17.4557 C   0  0  0  0  0  0  0  0  0  0  0  0
   20.7882  -10.4999  -17.5157 C   0  0  0  0  0  0  0  0  0  0  0  0
   21.4447  -10.7300  -16.4617 O   0  0  0  0  0  0  0  0  0  0  0  0
   19.0733   -9.0416  -15.6000 C   0  0  0  0  0  0  0  0  0  0  0  0
   18.4462   -8.0562  -16.0616 O   0  0  0  0  0  0  0  0  0  0  0  0
   21.5087  -10.1008  -18.6208 O   0  0  0  0  0  0  0  0  0  0  0  0
   21.7010   -6.0002  -12.7099 C   0  0  0  0  0  0  0  0  0  0  0  0
   21.2188   -7.4302  -12.8993 C   0  0  2  0  0  0  0  0  0  0  0  0
   22.4972   -8.2640  -12.9763 C   0  0  0  0  0  0  0  0  0  0  0  0
   20.4310   -7.4743  -14.1495 C   0  0  2  0  0  0  0  0  0  0  0  0
   20.0405   -8.7573  -14.6331 N   0  0  0  0  0  0  0  0  0  0  0  0
   21.1419   -6.7630  -15.2353 C   0  0  0  0  0  0  0  0  0  0  0  0
   21.1832   -5.3839  -15.3037 O   0  0  0  0  0  0  0  0  0  0  0  0
   21.7313   -7.4059  -16.1308 O   0  0  0  0  0  0  0  0  0  0  0  0
  1  2  1  0
  2  3  2  0
  4  2  1  0
  4  5  1  0
  6  5  1  0
  6  8  1  0
  6  7  1  1
  8  9  2  0
  8 10  1  0
 10 11  1  0
 11 12  1  6
 12 13  1  0
 13 14  2  0
 15 11  1  0
 15 22  1  0
 16 15  2  0
 17 13  1  0
 19 21  1  0
 19 18  1  6
 20 19  1  0
 21 23  1  0
 21 22  1  6
 23 25  2  0
 23 24  1  0
M  END
$$$$
