QDV.pdb
     RDKit          3D

 25 24  0  0  1  0  0  0  0  0999 V2000
   15.5527  -11.4035  -14.2265 N   0  0  0  0  0  0  0  0  0  0  0  0
   16.0885  -12.6490  -14.7231 C   0  0  0  0  0  0  0  0  0  0  0  0
   15.4492  -13.7082  -14.6033 O   0  0  0  0  0  0  0  0  0  0  0  0
   17.4151  -12.6626  -15.3798 C   0  0  0  0  0  0  0  0  0  0  0  0
   18.0653  -11.3315  -15.3186 C   0  0  0  0  0  0  0  0  0  0  0  0
   17.6725  -10.4604  -16.4799 C   0  0  2  0  0  0  0  0  0  0  0  0
   18.3681  -11.0533  -17.6420 N   0  0  0  0  0  0  0  0  0  0  0  0
   18.1608   -9.0803  -16.2492 C   0  0  0  0  0  0  0  0  0  0  0  0
   19.2707   -8.6744  -16.6694 O   0  0  0  0  0  0  0  0  0  0  0  0
   17.3848   -8.1108  -15.5219 N   0  0  0  0  0  0  0  0  0  0  0  0
   17.8168   -6.7317  -15.4381 C   0  0  1  0  0  0  0  0  0  0  0  0
   16.6176   -5.8622  -15.1879 C   0  0  0  0  0  0  0  0  0  0  0  0
   15.5824   -5.9669  -16.2178 C   0  0  0  0  0  0  0  0  0  0  0  0
   14.4360   -6.3486  -15.8504 O   0  0  0  0  0  0  0  0  0  0  0  0
   18.8989   -6.5368  -14.4545 C   0  0  0  0  0  0  0  0  0  0  0  0
   18.6592   -6.7808  -13.2461 O   0  0  0  0  0  0  0  0  0  0  0  0
   15.7431   -5.6865  -17.5576 O   0  0  0  0  0  0  0  0  0  0  0  0
   22.9568   -6.3313  -15.6435 C   0  0  0  0  0  0  0  0  0  0  0  0
   22.5077   -6.8591  -14.2896 C   0  0  2  0  0  0  0  0  0  0  0  0
   22.1922   -8.3343  -14.5332 C   0  0  0  0  0  0  0  0  0  0  0  0
   21.3203   -6.0806  -13.8779 C   0  0  2  0  0  0  0  0  0  0  0  0
   20.1916   -6.0971  -14.7487 N   0  0  0  0  0  0  0  0  0  0  0  0
   21.6891   -4.6708  -13.6190 C   0  0  0  0  0  0  0  0  0  0  0  0
   21.1454   -3.6266  -14.3418 O   0  0  0  0  0  0  0  0  0  0  0  0
   22.5154   -4.3887  -12.7246 O   0  0  0  0  0  0  0  0  0  0  0  0
  1  2  1  0
  2  3  2  0
  4  2  1  0
  4  5  1  0
  6  5  1  0
  6  8  1  0
  6  7  1  6
  8  9  2  0
  8 10  1  0
 10 11  1  0
 11 12  1  1
 12 13  1  0
 13 14  2  0
 15 11  1  0
 15 22  1  0
 16 15  2  0
 17 13  1  0
 19 21  1  0
 19 18  1  6
 20 19  1  0
 21 23  1  0
 21 22  1  6
 23 25  2  0
 23 24  1  0
M  END
$$$$
