QDV.pdb
     RDKit          3D

 25 24  0  0  1  0  0  0  0  0999 V2000
   15.6150  -16.0394  -15.9206 N   0  0  0  0  0  0  0  0  0  0  0  0
   15.2015  -14.9765  -15.0350 C   0  0  0  0  0  0  0  0  0  0  0  0
   14.2336  -15.1276  -14.2699 O   0  0  0  0  0  0  0  0  0  0  0  0
   15.9384  -13.6927  -15.0416 C   0  0  0  0  0  0  0  0  0  0  0  0
   17.0297  -13.6978  -16.0453 C   0  0  0  0  0  0  0  0  0  0  0  0
   16.6969  -12.8494  -17.2416 C   0  0  2  0  0  0  0  0  0  0  0  0
   16.9642  -13.7235  -18.4036 N   0  0  0  0  0  0  0  0  0  0  0  0
   17.5963  -11.6721  -17.2776 C   0  0  0  0  0  0  0  0  0  0  0  0
   18.8052  -11.7518  -17.6024 O   0  0  0  0  0  0  0  0  0  0  0  0
   17.1346  -10.3518  -16.9389 N   0  0  0  0  0  0  0  0  0  0  0  0
   18.0410   -9.2235  -16.9640 C   0  0  1  0  0  0  0  0  0  0  0  0
   17.2475   -7.9689  -17.1941 C   0  0  0  0  0  0  0  0  0  0  0  0
   18.0622   -6.7544  -17.2620 C   0  0  0  0  0  0  0  0  0  0  0  0
   19.1552   -6.7537  -16.6292 O   0  0  0  0  0  0  0  0  0  0  0  0
   18.9016   -9.1626  -15.7673 C   0  0  0  0  0  0  0  0  0  0  0  0
   18.3662   -9.2941  -14.6389 O   0  0  0  0  0  0  0  0  0  0  0  0
   17.7460   -5.6061  -17.9555 O   0  0  0  0  0  0  0  0  0  0  0  0
   23.5423   -9.3116  -14.8647 C   0  0  0  0  0  0  0  0  0  0  0  0
   22.2075   -9.9810  -14.5757 C   0  0  2  0  0  0  0  0  0  0  0  0
   22.0621  -11.0431  -15.6648 C   0  0  0  0  0  0  0  0  0  0  0  0
   21.1604   -8.9399  -14.6485 C   0  0  2  0  0  0  0  0  0  0  0  0
   20.2849   -8.9685  -15.7732 N   0  0  0  0  0  0  0  0  0  0  0  0
   21.7636   -7.5913  -14.5611 C   0  0  0  0  0  0  0  0  0  0  0  0
   22.3325   -7.1171  -13.3950 O   0  0  0  0  0  0  0  0  0  0  0  0
   21.7719   -6.8378  -15.5585 O   0  0  0  0  0  0  0  0  0  0  0  0
  1  2  1  0
  2  3  2  0
  4  2  1  0
  4  5  1  0
  6  5  1  0
  6  8  1  0
  6  7  1  6
  8  9  2  0
  8 10  1  0
 10 11  1  0
 11 12  1  1
 12 13  1  0
 13 14  2  0
 15 11  1  0
 15 22  1  0
 16 15  2  0
 17 13  1  0
 19 21  1  0
 19 18  1  6
 20 19  1  0
 21 23  1  0
 21 22  1  6
 23 25  2  0
 23 24  1  0
M  END
$$$$
