QDV.pdb
     RDKit          3D

 25 24  0  0  1  0  0  0  0  0999 V2000
   16.7459  -14.9576  -14.4442 N   0  0  0  0  0  0  0  0  0  0  0  0
   16.5577  -15.1551  -15.8621 C   0  0  0  0  0  0  0  0  0  0  0  0
   16.3160  -16.2853  -16.3194 O   0  0  0  0  0  0  0  0  0  0  0  0
   16.6564  -13.9977  -16.7798 C   0  0  0  0  0  0  0  0  0  0  0  0
   16.9656  -12.7472  -16.0457 C   0  0  0  0  0  0  0  0  0  0  0  0
   17.0304  -11.5580  -16.9640 C   0  0  2  0  0  0  0  0  0  0  0  0
   18.0326  -11.9304  -17.9851 N   0  0  0  0  0  0  0  0  0  0  0  0
   17.4980  -10.3736  -16.2057 C   0  0  0  0  0  0  0  0  0  0  0  0
   16.8723   -9.9061  -15.2243 O   0  0  0  0  0  0  0  0  0  0  0  0
   18.7104   -9.6796  -16.5513 N   0  0  0  0  0  0  0  0  0  0  0  0
   19.1459   -8.5291  -15.7883 C   0  0  1  0  0  0  0  0  0  0  0  0
   20.5891   -8.7132  -15.4142 C   0  0  0  0  0  0  0  0  0  0  0  0
   21.1746   -7.5642  -14.7212 C   0  0  0  0  0  0  0  0  0  0  0  0
   20.9336   -7.4472  -13.4871 O   0  0  0  0  0  0  0  0  0  0  0  0
   18.8771   -7.2554  -16.4824 C   0  0  0  0  0  0  0  0  0  0  0  0
   19.3647   -7.0842  -17.6270 O   0  0  0  0  0  0  0  0  0  0  0  0
   21.9683   -6.5932  -15.2932 O   0  0  0  0  0  0  0  0  0  0  0  0
   16.0319   -4.2819  -15.1311 C   0  0  0  0  0  0  0  0  0  0  0  0
   16.4253   -4.4902  -16.5855 C   0  0  2  0  0  0  0  0  0  0  0  0
   15.4455   -5.5411  -17.1059 C   0  0  0  0  0  0  0  0  0  0  0  0
   17.8282   -4.9558  -16.6066 C   0  0  2  0  0  0  0  0  0  0  0  0
   18.1151   -6.2008  -15.9741 N   0  0  0  0  0  0  0  0  0  0  0  0
   18.7249   -3.9256  -16.0367 C   0  0  0  0  0  0  0  0  0  0  0  0
   19.4135   -4.1254  -14.8559 O   0  0  0  0  0  0  0  0  0  0  0  0
   18.8819   -2.8321  -16.6216 O   0  0  0  0  0  0  0  0  0  0  0  0
  1  2  1  0
  2  3  2  0
  4  2  1  0
  4  5  1  0
  6  5  1  0
  6  8  1  0
  6  7  1  6
  8  9  2  0
  8 10  1  0
 10 11  1  0
 11 12  1  6
 12 13  1  0
 13 14  2  0
 15 11  1  0
 15 22  1  0
 16 15  2  0
 17 13  1  0
 19 21  1  0
 19 18  1  1
 20 19  1  0
 21 23  1  0
 21 22  1  1
 23 25  2  0
 23 24  1  0
M  END
$$$$
