QDV.pdb
     RDKit          3D

 25 24  0  0  1  0  0  0  0  0999 V2000
   17.7060  -14.3246  -14.5671 N   0  0  0  0  0  0  0  0  0  0  0  0
   16.2918  -14.4480  -14.8315 C   0  0  0  0  0  0  0  0  0  0  0  0
   15.7853  -15.5567  -15.0745 O   0  0  0  0  0  0  0  0  0  0  0  0
   15.4380  -13.2388  -14.8147 C   0  0  0  0  0  0  0  0  0  0  0  0
   16.2096  -12.0342  -14.4251 C   0  0  0  0  0  0  0  0  0  0  0  0
   15.3275  -10.8250  -14.2786 C   0  0  2  0  0  0  0  0  0  0  0  0
   15.2385  -10.2617  -15.6426 N   0  0  0  0  0  0  0  0  0  0  0  0
   15.9747   -9.8489  -13.3703 C   0  0  0  0  0  0  0  0  0  0  0  0
   16.1761  -10.0837  -12.1548 O   0  0  0  0  0  0  0  0  0  0  0  0
   16.4164   -8.5589  -13.8306 N   0  0  0  0  0  0  0  0  0  0  0  0
   17.0050   -7.6085  -12.9110 C   0  0  1  0  0  0  0  0  0  0  0  0
   17.9167   -6.6930  -13.6773 C   0  0  0  0  0  0  0  0  0  0  0  0
   19.2119   -7.2879  -14.0120 C   0  0  0  0  0  0  0  0  0  0  0  0
   19.6675   -7.0710  -15.1696 O   0  0  0  0  0  0  0  0  0  0  0  0
   15.9921   -6.8938  -12.1112 C   0  0  0  0  0  0  0  0  0  0  0  0
   15.0174   -6.3735  -12.7082 O   0  0  0  0  0  0  0  0  0  0  0  0
   19.9842   -8.0665  -13.1771 O   0  0  0  0  0  0  0  0  0  0  0  0
   15.7753   -7.0081   -7.7788 C   0  0  0  0  0  0  0  0  0  0  0  0
   14.5786   -6.8573   -8.7053 C   0  0  2  0  0  0  0  0  0  0  0  0
   14.1500   -8.2896   -9.0220 C   0  0  0  0  0  0  0  0  0  0  0  0
   15.0309   -6.1176   -9.9027 C   0  0  2  0  0  0  0  0  0  0  0  0
   16.0173   -6.7390  -10.7232 N   0  0  0  0  0  0  0  0  0  0  0  0
   15.5174   -4.7713   -9.5270 C   0  0  0  0  0  0  0  0  0  0  0  0
   14.6756   -3.8060   -9.0095 O   0  0  0  0  0  0  0  0  0  0  0  0
   16.7224   -4.4724   -9.6723 O   0  0  0  0  0  0  0  0  0  0  0  0
  1  2  1  0
  2  3  2  0
  4  2  1  0
  4  5  1  0
  6  5  1  0
  6  8  1  0
  6  7  1  6
  8  9  2  0
  8 10  1  0
 10 11  1  0
 11 12  1  6
 12 13  1  0
 13 14  2  0
 15 11  1  0
 15 22  1  0
 16 15  2  0
 17 13  1  0
 19 21  1  0
 19 18  1  1
 20 19  1  0
 21 23  1  0
 21 22  1  1
 23 25  2  0
 23 24  1  0
M  END
$$$$
