QDV.pdb
     RDKit          3D

 25 24  0  0  1  0  0  0  0  0999 V2000
   11.1356  -11.9419  -10.4378 N   0  0  0  0  0  0  0  0  0  0  0  0
   11.1038  -12.7886  -11.6070 C   0  0  0  0  0  0  0  0  0  0  0  0
   10.0861  -13.4439  -11.8893 O   0  0  0  0  0  0  0  0  0  0  0  0
   12.2986  -12.8775  -12.4766 C   0  0  0  0  0  0  0  0  0  0  0  0
   13.3926  -12.0043  -11.9877 C   0  0  0  0  0  0  0  0  0  0  0  0
   14.3634  -11.6541  -13.0815 C   0  0  2  0  0  0  0  0  0  0  0  0
   15.1844  -12.8715  -13.2543 N   0  0  0  0  0  0  0  0  0  0  0  0
   15.2184  -10.5267  -12.6405 C   0  0  0  0  0  0  0  0  0  0  0  0
   16.1958  -10.6780  -11.8691 O   0  0  0  0  0  0  0  0  0  0  0  0
   14.9784   -9.1756  -13.0739 N   0  0  0  0  0  0  0  0  0  0  0  0
   15.8177   -8.0912  -12.6102 C   0  0  1  0  0  0  0  0  0  0  0  0
   16.4192   -7.4002  -13.8007 C   0  0  0  0  0  0  0  0  0  0  0  0
   17.3030   -6.2848  -13.4566 C   0  0  0  0  0  0  0  0  0  0  0  0
   17.4310   -5.3624  -14.3096 O   0  0  0  0  0  0  0  0  0  0  0  0
   15.1065   -7.1761  -11.6974 C   0  0  0  0  0  0  0  0  0  0  0  0
   14.0312   -6.6582  -12.0886 O   0  0  0  0  0  0  0  0  0  0  0  0
   18.0119   -6.1471  -12.2826 O   0  0  0  0  0  0  0  0  0  0  0  0
   16.3668   -6.3840   -7.6490 C   0  0  0  0  0  0  0  0  0  0  0  0
   14.9132   -6.2533   -8.0774 C   0  0  2  0  0  0  0  0  0  0  0  0
   14.2991   -7.6228   -7.7899 C   0  0  0  0  0  0  0  0  0  0  0  0
   14.9002   -5.9110   -9.5155 C   0  0  2  0  0  0  0  0  0  0  0  0
   15.5267   -6.8250  -10.4124 N   0  0  0  0  0  0  0  0  0  0  0  0
   15.4841   -4.5687   -9.7341 C   0  0  0  0  0  0  0  0  0  0  0  0
   14.9042   -3.4249   -9.2205 O   0  0  0  0  0  0  0  0  0  0  0  0
   16.5337   -4.4379  -10.4002 O   0  0  0  0  0  0  0  0  0  0  0  0
  1  2  1  0
  2  3  2  0
  4  2  1  0
  4  5  1  0
  6  5  1  0
  6  8  1  0
  6  7  1  1
  8  9  2  0
  8 10  1  0
 10 11  1  0
 11 12  1  6
 12 13  1  0
 13 14  2  0
 15 11  1  0
 15 22  1  0
 16 15  2  0
 17 13  1  0
 19 21  1  0
 19 18  1  6
 20 19  1  0
 21 23  1  0
 21 22  1  6
 23 25  2  0
 23 24  1  0
M  END
$$$$
