FPC.pdb
     RDKit          3D

 25 26  0  0  1  0  0  0  0  0999 V2000
   24.7827  -18.3302  -17.3407 N   0  0  0  0  0  0  0  0  0  0  0  0
   25.5612  -17.9440  -16.2127 C   0  0  1  0  0  0  0  0  0  0  0  0
   25.0847  -16.6413  -15.6508 C   0  0  0  0  0  0  0  0  0  0  0  0
   25.4499  -15.5440  -16.5625 C   0  0  0  0  0  0  0  0  0  0  0  0
   24.5654  -15.0041  -17.4630 C   0  0  0  0  0  0  0  0  0  0  0  0
   24.9446  -13.9730  -18.3254 C   0  0  0  0  0  0  0  0  0  0  0  0
   26.2296  -13.4759  -18.2834 C   0  0  0  0  0  0  0  0  0  0  0  0
   27.1331  -14.0112  -17.3787 C   0  0  0  0  0  0  0  0  0  0  0  0
   26.7323  -15.0343  -16.5337 C   0  0  0  0  0  0  0  0  0  0  0  0
   25.6244  -18.9839  -15.1596 C   0  0  0  0  0  0  0  0  0  0  0  0
   24.4897  -19.4586  -14.8157 O   0  0  0  0  0  0  0  0  0  0  0  0
   26.8054  -19.4525  -14.5470 N   0  0  0  0  0  0  0  0  0  0  0  0
   28.1560  -19.1708  -14.9764 C   0  0  0  0  0  0  0  0  0  0  0  0
   28.9784  -20.1926  -14.1790 C   0  0  0  0  0  0  0  0  0  0  0  0
   28.2517  -20.1813  -12.8584 C   0  0  0  0  0  0  0  0  0  0  0  0
   26.8093  -20.3226  -13.3662 C   0  0  1  0  0  0  0  0  0  0  0  0
   25.9347  -19.8146  -12.2849 C   0  0  0  0  0  0  0  0  0  0  0  0
   25.7937  -18.6234  -11.9550 O   0  0  0  0  0  0  0  0  0  0  0  0
   25.1874  -20.7774  -11.5567 N   0  0  0  0  0  0  0  0  0  0  0  0
   24.4596  -20.4114  -10.3345 C   0  0  1  0  0  0  0  0  0  0  0  0
   23.0803  -21.0664  -10.3917 C   0  0  0  0  0  0  0  0  0  0  0  0
   22.2305  -20.6752   -8.8198 S   0  0  0  0  0  0  0  0  0  0  0  0
   25.1421  -20.9789   -9.1435 C   0  0  0  0  0  0  0  0  0  0  0  0
   25.1135  -20.3337   -8.0687 O   0  0  0  0  0  0  0  0  0  0  0  0
   25.8075  -22.1873   -9.1678 O   0  0  0  0  0  0  0  0  0  0  0  0
  2  1  1  6
  2 10  1  0
  3  2  1  0
  4  3  1  0
  5  4  2  0
  6  5  1  0
  7  8  1  0
  7  6  2  0
  8  9  2  0
  9  4  1  0
 10 12  1  0
 10 11  2  0
 12 16  1  0
 13 12  1  0
 14 13  1  0
 14 15  1  0
 15 16  1  0
 17 19  1  0
 16 17  1  1
 18 17  2  0
 20 19  1  0
 20 21  1  6
 21 22  1  0
 23 25  1  0
 23 20  1  0
 24 23  2  0
M  END
$$$$
