FPC.pdb
     RDKit          3D

 25 26  0  0  1  0  0  0  0  0999 V2000
   24.4328  -22.2597  -12.5760 N   0  0  0  0  0  0  0  0  0  0  0  0
   25.2464  -21.1939  -12.0963 C   0  0  1  0  0  0  0  0  0  0  0  0
   24.4108  -20.0221  -11.6861 C   0  0  0  0  0  0  0  0  0  0  0  0
   23.7837  -19.4191  -12.8743 C   0  0  0  0  0  0  0  0  0  0  0  0
   22.4385  -19.5156  -13.1309 C   0  0  0  0  0  0  0  0  0  0  0  0
   21.8738  -18.9453  -14.2741 C   0  0  0  0  0  0  0  0  0  0  0  0
   22.6701  -18.2680  -15.1725 C   0  0  0  0  0  0  0  0  0  0  0  0
   24.0301  -18.1623  -14.9258 C   0  0  0  0  0  0  0  0  0  0  0  0
   24.5663  -18.7373  -13.7841 C   0  0  0  0  0  0  0  0  0  0  0  0
   26.1618  -21.6000  -11.0047 C   0  0  0  0  0  0  0  0  0  0  0  0
   25.5918  -22.1983  -10.0310 O   0  0  0  0  0  0  0  0  0  0  0  0
   27.5538  -21.3730  -10.9819 N   0  0  0  0  0  0  0  0  0  0  0  0
   28.3654  -20.9508  -12.1003 C   0  0  0  0  0  0  0  0  0  0  0  0
   29.7910  -21.2045  -11.5910 C   0  0  0  0  0  0  0  0  0  0  0  0
   29.6606  -20.7901  -10.1476 C   0  0  0  0  0  0  0  0  0  0  0  0
   28.3796  -21.5549   -9.7835 C   0  0  1  0  0  0  0  0  0  0  0  0
   27.8123  -20.8769   -8.5958 C   0  0  0  0  0  0  0  0  0  0  0  0
   27.0323  -19.9077   -8.6080 O   0  0  0  0  0  0  0  0  0  0  0  0
   28.1945  -21.3801   -7.3244 N   0  0  0  0  0  0  0  0  0  0  0  0
   27.8673  -20.6563   -6.0890 C   0  0  1  0  0  0  0  0  0  0  0  0
   28.6189  -21.3228   -4.9376 C   0  0  0  0  0  0  0  0  0  0  0  0
   28.2188  -20.3873   -3.4174 S   0  0  0  0  0  0  0  0  0  0  0  0
   28.3718  -19.2612   -6.1646 C   0  0  0  0  0  0  0  0  0  0  0  0
   29.4524  -19.0432   -6.7622 O   0  0  0  0  0  0  0  0  0  0  0  0
   27.7023  -18.1926   -5.6050 O   0  0  0  0  0  0  0  0  0  0  0  0
  2  1  1  1
  2 10  1  0
  3  2  1  0
  4  3  1  0
  5  4  2  0
  6  5  1  0
  7  8  1  0
  7  6  2  0
  8  9  2  0
  9  4  1  0
 10 12  1  0
 10 11  2  0
 12 16  1  0
 13 12  1  0
 14 13  1  0
 14 15  1  0
 15 16  1  0
 17 19  1  0
 16 17  1  1
 18 17  2  0
 20 19  1  0
 20 21  1  1
 21 22  1  0
 23 25  1  0
 23 20  1  0
 24 23  2  0
M  END
$$$$
