FPC.pdb
     RDKit          3D

 25 26  0  0  1  0  0  0  0  0999 V2000
   16.6825  -19.4356    2.5017 N   0  0  0  0  0  0  0  0  0  0  0  0
   16.2542  -18.2313    3.1293 C   0  0  1  0  0  0  0  0  0  0  0  0
   15.1714  -18.5002    4.1267 C   0  0  0  0  0  0  0  0  0  0  0  0
   13.9358  -18.8885    3.4258 C   0  0  0  0  0  0  0  0  0  0  0  0
   13.5904  -20.1987    3.2050 C   0  0  0  0  0  0  0  0  0  0  0  0
   12.4185  -20.5367    2.5243 C   0  0  0  0  0  0  0  0  0  0  0  0
   11.5808  -19.5459    2.0588 C   0  0  0  0  0  0  0  0  0  0  0  0
   11.9169  -18.2186    2.2750 C   0  0  0  0  0  0  0  0  0  0  0  0
   13.0856  -17.9092    2.9532 C   0  0  0  0  0  0  0  0  0  0  0  0
   17.3621  -17.4637    3.7439 C   0  0  0  0  0  0  0  0  0  0  0  0
   18.1996  -18.1737    4.3964 O   0  0  0  0  0  0  0  0  0  0  0  0
   17.5331  -16.0664    3.6547 N   0  0  0  0  0  0  0  0  0  0  0  0
   16.6960  -15.1527    2.9115 C   0  0  0  0  0  0  0  0  0  0  0  0
   17.5383  -13.8695    2.8942 C   0  0  0  0  0  0  0  0  0  0  0  0
   18.1284  -13.8921    4.2810 C   0  0  0  0  0  0  0  0  0  0  0  0
   18.6248  -15.3450    4.3171 C   0  0  1  0  0  0  0  0  0  0  0  0
   18.7569  -15.7053    5.7471 C   0  0  0  0  0  0  0  0  0  0  0  0
   17.8741  -16.2178    6.4583 O   0  0  0  0  0  0  0  0  0  0  0  0
   20.0081  -15.4410    6.3639 N   0  0  0  0  0  0  0  0  0  0  0  0
   20.2454  -15.7681    7.7759 C   0  0  1  0  0  0  0  0  0  0  0  0
   21.6756  -16.2898    7.9063 C   0  0  0  0  0  0  0  0  0  0  0  0
   21.7214  -17.9429    7.1243 S   0  0  0  0  0  0  0  0  0  0  0  0
   20.1728  -14.5378    8.6051 C   0  0  0  0  0  0  0  0  0  0  0  0
   20.1974  -13.4229    8.0319 O   0  0  0  0  0  0  0  0  0  0  0  0
   20.0792  -14.5679    9.9813 O   0  0  0  0  0  0  0  0  0  0  0  0
  2  1  1  1
  2 10  1  0
  3  2  1  0
  4  3  1  0
  5  4  2  0
  6  5  1  0
  7  8  1  0
  7  6  2  0
  8  9  2  0
  9  4  1  0
 10 12  1  0
 10 11  2  0
 12 16  1  0
 13 12  1  0
 14 13  1  0
 14 15  1  0
 15 16  1  0
 17 19  1  0
 16 17  1  1
 18 17  2  0
 20 19  1  0
 20 21  1  6
 21 22  1  0
 23 25  1  0
 23 20  1  0
 24 23  2  0
M  END
$$$$
