FPC.pdb
     RDKit          3D

 25 26  0  0  1  0  0  0  0  0999 V2000
   25.5287  -23.0755  -13.3015 N   0  0  0  0  0  0  0  0  0  0  0  0
   26.1703  -21.8262  -13.0664 C   0  0  1  0  0  0  0  0  0  0  0  0
   25.2157  -20.6884  -13.2494 C   0  0  0  0  0  0  0  0  0  0  0  0
   25.9634  -19.4572  -13.5560 C   0  0  0  0  0  0  0  0  0  0  0  0
   26.1024  -18.4314  -12.6542 C   0  0  0  0  0  0  0  0  0  0  0  0
   26.8056  -17.2690  -12.9783 C   0  0  0  0  0  0  0  0  0  0  0  0
   27.3782  -17.1339  -14.2249 C   0  0  0  0  0  0  0  0  0  0  0  0
   27.2462  -18.1621  -15.1452 C   0  0  0  0  0  0  0  0  0  0  0  0
   26.5432  -19.3055  -14.7994 C   0  0  0  0  0  0  0  0  0  0  0  0
   26.8395  -21.7495  -11.7470 C   0  0  0  0  0  0  0  0  0  0  0  0
   26.0572  -21.8925  -10.7477 O   0  0  0  0  0  0  0  0  0  0  0  0
   28.2191  -21.5367  -11.5442 N   0  0  0  0  0  0  0  0  0  0  0  0
   29.2035  -21.2981  -12.5746 C   0  0  0  0  0  0  0  0  0  0  0  0
   30.5269  -21.4869  -11.8201 C   0  0  0  0  0  0  0  0  0  0  0  0
   30.1950  -20.8568  -10.4917 C   0  0  0  0  0  0  0  0  0  0  0  0
   28.8485  -21.5435  -10.2195 C   0  0  1  0  0  0  0  0  0  0  0  0
   28.1324  -20.6868   -9.2471 C   0  0  0  0  0  0  0  0  0  0  0  0
   27.3677  -19.7453   -9.5239 O   0  0  0  0  0  0  0  0  0  0  0  0
   28.3379  -20.9663   -7.8704 N   0  0  0  0  0  0  0  0  0  0  0  0
   27.7956  -20.0880   -6.8256 C   0  0  1  0  0  0  0  0  0  0  0  0
   26.5615  -20.7659   -6.2319 C   0  0  0  0  0  0  0  0  0  0  0  0
   26.1001  -19.8292   -4.7300 S   0  0  0  0  0  0  0  0  0  0  0  0
   28.7719  -19.9515   -5.7145 C   0  0  0  0  0  0  0  0  0  0  0  0
   29.4041  -20.9676   -5.3401 O   0  0  0  0  0  0  0  0  0  0  0  0
   29.0142  -18.7533   -5.0749 O   0  0  0  0  0  0  0  0  0  0  0  0
  2  1  1  1
  2 10  1  0
  3  2  1  0
  4  3  1  0
  5  4  2  0
  6  5  1  0
  7  8  1  0
  7  6  2  0
  8  9  2  0
  9  4  1  0
 10 12  1  0
 10 11  2  0
 12 16  1  0
 13 12  1  0
 14 13  1  0
 14 15  1  0
 15 16  1  0
 17 19  1  0
 16 17  1  1
 18 17  2  0
 20 19  1  0
 20 21  1  1
 21 22  1  0
 23 25  1  0
 23 20  1  0
 24 23  2  0
M  END
$$$$
