FPC.pdb
     RDKit          3D

 25 26  0  0  1  0  0  0  0  0999 V2000
   29.3676  -14.5903  -19.2180 N   0  0  0  0  0  0  0  0  0  0  0  0
   29.1197  -13.6037  -18.2216 C   0  0  1  0  0  0  0  0  0  0  0  0
   29.5752  -14.0725  -16.8753 C   0  0  0  0  0  0  0  0  0  0  0  0
   28.7193  -15.1809  -16.4196 C   0  0  0  0  0  0  0  0  0  0  0  0
   27.5937  -14.9827  -15.6591 C   0  0  0  0  0  0  0  0  0  0  0  0
   26.8088  -16.0551  -15.2293 C   0  0  0  0  0  0  0  0  0  0  0  0
   27.1580  -17.3450  -15.5678 C   0  0  0  0  0  0  0  0  0  0  0  0
   28.2918  -17.5597  -16.3357 C   0  0  0  0  0  0  0  0  0  0  0  0
   29.0542  -16.4786  -16.7496 C   0  0  0  0  0  0  0  0  0  0  0  0
   29.7024  -12.2813  -18.5473 C   0  0  0  0  0  0  0  0  0  0  0  0
   30.8824  -12.3282  -19.0337 O   0  0  0  0  0  0  0  0  0  0  0  0
   29.0609  -11.0393  -18.3584 N   0  0  0  0  0  0  0  0  0  0  0  0
   27.6754  -10.8435  -17.9980 C   0  0  0  0  0  0  0  0  0  0  0  0
   27.4685   -9.3477  -18.2734 C   0  0  0  0  0  0  0  0  0  0  0  0
   28.7853   -8.7826  -17.8058 C   0  0  0  0  0  0  0  0  0  0  0  0
   29.7398   -9.7495  -18.5216 C   0  0  1  0  0  0  0  0  0  0  0  0
   31.0241   -9.6879  -17.7873 C   0  0  0  0  0  0  0  0  0  0  0  0
   31.3044  -10.3109  -16.7475 O   0  0  0  0  0  0  0  0  0  0  0  0
   32.0292   -8.8383  -18.3199 N   0  0  0  0  0  0  0  0  0  0  0  0
   33.3474   -8.7252  -17.6822 C   0  0  1  0  0  0  0  0  0  0  0  0
   34.1216  -10.0117  -17.9658 C   0  0  0  0  0  0  0  0  0  0  0  0
   35.7870   -9.8126  -17.2356 S   0  0  0  0  0  0  0  0  0  0  0  0
   34.1248   -7.6240  -18.3063 C   0  0  0  0  0  0  0  0  0  0  0  0
   34.7533   -6.8339  -17.5626 O   0  0  0  0  0  0  0  0  0  0  0  0
   34.1859   -7.4320  -19.6711 O   0  0  0  0  0  0  0  0  0  0  0  0
  2  1  1  6
  2 10  1  0
  3  2  1  0
  4  3  1  0
  5  4  2  0
  6  5  1  0
  7  8  1  0
  7  6  2  0
  8  9  2  0
  9  4  1  0
 10 12  1  0
 10 11  2  0
 12 16  1  0
 13 12  1  0
 14 13  1  0
 14 15  1  0
 15 16  1  0
 17 19  1  0
 16 17  1  1
 18 17  2  0
 20 19  1  0
 20 21  1  6
 21 22  1  0
 23 25  1  0
 23 20  1  0
 24 23  2  0
M  END
$$$$
