FPC.pdb
     RDKit          3D

 25 26  0  0  1  0  0  0  0  0999 V2000
   23.0566  -20.4488  -17.0003 N   0  0  0  0  0  0  0  0  0  0  0  0
   23.7435  -19.4890  -16.2038 C   0  0  1  0  0  0  0  0  0  0  0  0
   22.8113  -18.4197  -15.7269 C   0  0  0  0  0  0  0  0  0  0  0  0
   22.4368  -17.5487  -16.8538 C   0  0  0  0  0  0  0  0  0  0  0  0
   21.1771  -17.5447  -17.3997 C   0  0  0  0  0  0  0  0  0  0  0  0
   20.8548  -16.7175  -18.4779 C   0  0  0  0  0  0  0  0  0  0  0  0
   21.8099  -15.8818  -19.0160 C   0  0  0  0  0  0  0  0  0  0  0  0
   23.0859  -15.8751  -18.4744 C   0  0  0  0  0  0  0  0  0  0  0  0
   23.3808  -16.7056  -17.4046 C   0  0  0  0  0  0  0  0  0  0  0  0
   24.4850  -20.0895  -15.0706 C   0  0  0  0  0  0  0  0  0  0  0  0
   23.7792  -20.8369  -14.3129 O   0  0  0  0  0  0  0  0  0  0  0  0
   25.8542  -19.8905  -14.7960 N   0  0  0  0  0  0  0  0  0  0  0  0
   26.8179  -19.2734  -15.6781 C   0  0  0  0  0  0  0  0  0  0  0  0
   28.1547  -19.6399  -15.0186 C   0  0  0  0  0  0  0  0  0  0  0  0
   27.8029  -19.5078  -13.5589 C   0  0  0  0  0  0  0  0  0  0  0  0
   26.4935  -20.3101  -13.5444 C   0  0  1  0  0  0  0  0  0  0  0  0
   25.7442  -19.8641  -12.3478 C   0  0  0  0  0  0  0  0  0  0  0  0
   24.8672  -18.9822  -12.3188 O   0  0  0  0  0  0  0  0  0  0  0  0
   26.0559  -20.5031  -11.1188 N   0  0  0  0  0  0  0  0  0  0  0  0
   25.3420  -20.1633   -9.8811 C   0  0  1  0  0  0  0  0  0  0  0  0
   23.9394  -20.7638   -9.9645 C   0  0  0  0  0  0  0  0  0  0  0  0
   23.1403  -20.4987   -8.3405 S   0  0  0  0  0  0  0  0  0  0  0  0
   26.0027  -20.8064   -8.7165 C   0  0  0  0  0  0  0  0  0  0  0  0
   26.2370  -20.1128   -7.6984 O   0  0  0  0  0  0  0  0  0  0  0  0
   26.3706  -22.1360   -8.7056 O   0  0  0  0  0  0  0  0  0  0  0  0
  2  1  1  1
  2 10  1  0
  3  2  1  0
  4  3  1  0
  5  4  2  0
  6  5  1  0
  7  8  1  0
  7  6  2  0
  8  9  2  0
  9  4  1  0
 10 12  1  0
 10 11  2  0
 12 16  1  0
 13 12  1  0
 14 13  1  0
 14 15  1  0
 15 16  1  0
 17 19  1  0
 16 17  1  1
 18 17  2  0
 20 19  1  0
 20 21  1  6
 21 22  1  0
 23 25  1  0
 23 20  1  0
 24 23  2  0
M  END
$$$$
