FPC.pdb
     RDKit          3D

 25 26  0  0  1  0  0  0  0  0999 V2000
   23.6040  -19.2299  -17.0759 N   0  0  0  0  0  0  0  0  0  0  0  0
   24.4137  -18.5297  -16.1369 C   0  0  1  0  0  0  0  0  0  0  0  0
   23.6792  -17.3605  -15.5598 C   0  0  0  0  0  0  0  0  0  0  0  0
   23.5493  -16.3041  -16.5776 C   0  0  0  0  0  0  0  0  0  0  0  0
   24.5275  -15.3671  -16.8012 C   0  0  0  0  0  0  0  0  0  0  0  0
   24.3702  -14.3677  -17.7642 C   0  0  0  0  0  0  0  0  0  0  0  0
   23.2151  -14.3077  -18.5140 C   0  0  0  0  0  0  0  0  0  0  0  0
   22.2192  -15.2477  -18.2991 C   0  0  0  0  0  0  0  0  0  0  0  0
   22.3994  -16.2295  -17.3373 C   0  0  0  0  0  0  0  0  0  0  0  0
   24.9533  -19.3981  -15.0649 C   0  0  0  0  0  0  0  0  0  0  0  0
   24.0697  -20.0684  -14.4317 O   0  0  0  0  0  0  0  0  0  0  0  0
   26.3163  -19.5177  -14.7220 N   0  0  0  0  0  0  0  0  0  0  0  0
   27.4299  -18.9584  -15.4534 C   0  0  0  0  0  0  0  0  0  0  0  0
   28.6326  -19.6835  -14.8337 C   0  0  0  0  0  0  0  0  0  0  0  0
   28.2233  -19.7355  -13.3839 C   0  0  0  0  0  0  0  0  0  0  0  0
   26.7891  -20.2595  -13.5483 C   0  0  1  0  0  0  0  0  0  0  0  0
   26.0644  -19.8865  -12.3123 C   0  0  0  0  0  0  0  0  0  0  0  0
   25.5769  -18.7708  -12.0569 O   0  0  0  0  0  0  0  0  0  0  0  0
   25.9117  -20.8970  -11.3267 N   0  0  0  0  0  0  0  0  0  0  0  0
   25.3604  -20.5903  -10.0003 C   0  0  1  0  0  0  0  0  0  0  0  0
   24.4140  -21.7240   -9.6082 C   0  0  0  0  0  0  0  0  0  0  0  0
   23.8108  -21.3649   -7.9190 S   0  0  0  0  0  0  0  0  0  0  0  0
   26.4447  -20.5817   -8.9851 C   0  0  0  0  0  0  0  0  0  0  0  0
   27.3576  -21.4369   -9.0719 O   0  0  0  0  0  0  0  0  0  0  0  0
   26.4916  -19.6723   -7.9487 O   0  0  0  0  0  0  0  0  0  0  0  0
  2  1  1  6
  2 10  1  0
  3  2  1  0
  4  3  1  0
  5  4  2  0
  6  5  1  0
  7  8  1  0
  7  6  2  0
  8  9  2  0
  9  4  1  0
 10 12  1  0
 10 11  2  0
 12 16  1  0
 13 12  1  0
 14 13  1  0
 14 15  1  0
 15 16  1  0
 17 19  1  0
 16 17  1  1
 18 17  2  0
 20 19  1  0
 20 21  1  1
 21 22  1  0
 23 25  1  0
 23 20  1  0
 24 23  2  0
M  END
$$$$
