FPC.pdb
     RDKit          3D

 25 26  0  0  1  0  0  0  0  0999 V2000
   23.4473  -19.2066  -15.7730 N   0  0  0  0  0  0  0  0  0  0  0  0
   24.5823  -18.7171  -15.0660 C   0  0  1  0  0  0  0  0  0  0  0  0
   24.3051  -17.3736  -14.4678 C   0  0  0  0  0  0  0  0  0  0  0  0
   24.0938  -16.3866  -15.5402 C   0  0  0  0  0  0  0  0  0  0  0  0
   22.8435  -16.0003  -15.9551 C   0  0  0  0  0  0  0  0  0  0  0  0
   22.6739  -15.0721  -16.9850 C   0  0  0  0  0  0  0  0  0  0  0  0
   23.7746  -14.5233  -17.6073 C   0  0  0  0  0  0  0  0  0  0  0  0
   25.0432  -14.9039  -17.1982 C   0  0  0  0  0  0  0  0  0  0  0  0
   25.1849  -15.8270  -16.1739 C   0  0  0  0  0  0  0  0  0  0  0  0
   25.0862  -19.6600  -14.0405 C   0  0  0  0  0  0  0  0  0  0  0  0
   24.2354  -19.9648  -13.1381 O   0  0  0  0  0  0  0  0  0  0  0  0
   26.3851  -20.2089  -14.0065 N   0  0  0  0  0  0  0  0  0  0  0  0
   27.3242  -20.2410  -15.1042 C   0  0  0  0  0  0  0  0  0  0  0  0
   28.3843  -21.2330  -14.6059 C   0  0  0  0  0  0  0  0  0  0  0  0
   28.4584  -20.8678  -13.1454 C   0  0  0  0  0  0  0  0  0  0  0  0
   26.9584  -20.8474  -12.8170 C   0  0  1  0  0  0  0  0  0  0  0  0
   26.8090  -20.0170  -11.6003 C   0  0  0  0  0  0  0  0  0  0  0  0
   27.3622  -18.9233  -11.3869 O   0  0  0  0  0  0  0  0  0  0  0  0
   25.9543  -20.5160  -10.5823 N   0  0  0  0  0  0  0  0  0  0  0  0
   26.3593  -20.4968   -9.1706 C   0  0  1  0  0  0  0  0  0  0  0  0
   26.5615  -19.0399   -8.7567 C   0  0  0  0  0  0  0  0  0  0  0  0
   26.8785  -19.0287   -6.9551 S   0  0  0  0  0  0  0  0  0  0  0  0
   25.2644  -21.0251   -8.3171 C   0  0  0  0  0  0  0  0  0  0  0  0
   24.1797  -21.3451   -8.8587 O   0  0  0  0  0  0  0  0  0  0  0  0
   25.3886  -21.1795   -6.9517 O   0  0  0  0  0  0  0  0  0  0  0  0
  2  1  1  1
  2 10  1  0
  3  2  1  0
  4  3  1  0
  5  4  2  0
  6  5  1  0
  7  8  1  0
  7  6  2  0
  8  9  2  0
  9  4  1  0
 10 12  1  0
 10 11  2  0
 12 16  1  0
 13 12  1  0
 14 13  1  0
 14 15  1  0
 15 16  1  0
 17 19  1  0
 16 17  1  1
 18 17  2  0
 20 19  1  0
 20 21  1  1
 21 22  1  0
 23 25  1  0
 23 20  1  0
 24 23  2  0
M  END
$$$$
