FPC.pdb
     RDKit          3D

 25 26  0  0  1  0  0  0  0  0999 V2000
   23.3142  -21.3373  -16.3240 N   0  0  0  0  0  0  0  0  0  0  0  0
   23.8536  -20.2992  -15.5122 C   0  0  1  0  0  0  0  0  0  0  0  0
   22.7999  -19.7003  -14.6343 C   0  0  0  0  0  0  0  0  0  0  0  0
   21.9493  -18.7956  -15.4261 C   0  0  0  0  0  0  0  0  0  0  0  0
   20.6597  -19.1098  -15.7767 C   0  0  0  0  0  0  0  0  0  0  0  0
   19.8812  -18.2375  -16.5408 C   0  0  0  0  0  0  0  0  0  0  0  0
   20.4038  -17.0324  -16.9588 C   0  0  0  0  0  0  0  0  0  0  0  0
   21.7045  -16.7020  -16.6116 C   0  0  0  0  0  0  0  0  0  0  0  0
   22.4567  -17.5850  -15.8527 C   0  0  0  0  0  0  0  0  0  0  0  0
   25.0268  -20.7272  -14.7153 C   0  0  0  0  0  0  0  0  0  0  0  0
   24.9557  -21.9213  -14.2680 O   0  0  0  0  0  0  0  0  0  0  0  0
   26.1570  -19.9305  -14.4366 N   0  0  0  0  0  0  0  0  0  0  0  0
   26.5656  -18.7500  -15.1627 C   0  0  0  0  0  0  0  0  0  0  0  0
   27.9952  -18.5235  -14.6516 C   0  0  0  0  0  0  0  0  0  0  0  0
   27.8425  -18.8844  -13.1961 C   0  0  0  0  0  0  0  0  0  0  0  0
   27.0956  -20.2178  -13.3468 C   0  0  1  0  0  0  0  0  0  0  0  0
   26.4098  -20.4599  -12.0571 C   0  0  0  0  0  0  0  0  0  0  0  0
   25.2223  -20.1950  -11.7974 O   0  0  0  0  0  0  0  0  0  0  0  0
   27.1798  -21.0495  -11.0202 N   0  0  0  0  0  0  0  0  0  0  0  0
   26.7164  -21.0378   -9.6265 C   0  0  1  0  0  0  0  0  0  0  0  0
   27.8996  -20.6559   -8.7383 C   0  0  0  0  0  0  0  0  0  0  0  0
   27.2279  -20.2606   -7.0834 S   0  0  0  0  0  0  0  0  0  0  0  0
   25.6929  -19.9783   -9.4366 C   0  0  0  0  0  0  0  0  0  0  0  0
   25.9687  -18.8054   -9.7839 O   0  0  0  0  0  0  0  0  0  0  0  0
   24.4494  -20.2284   -8.8937 O   0  0  0  0  0  0  0  0  0  0  0  0
  2  1  1  1
  2 10  1  0
  3  2  1  0
  4  3  1  0
  5  4  2  0
  6  5  1  0
  7  8  1  0
  7  6  2  0
  8  9  2  0
  9  4  1  0
 10 12  1  0
 10 11  2  0
 12 16  1  0
 13 12  1  0
 14 13  1  0
 14 15  1  0
 15 16  1  0
 17 19  1  0
 16 17  1  1
 18 17  2  0
 20 19  1  0
 20 21  1  1
 21 22  1  0
 23 25  1  0
 23 20  1  0
 24 23  2  0
M  END
$$$$
