FPC.pdb
     RDKit          3D

 25 26  0  0  1  0  0  0  0  0999 V2000
   24.4940  -18.9826  -16.0866 N   0  0  0  0  0  0  0  0  0  0  0  0
   25.6481  -18.7076  -15.2991 C   0  0  1  0  0  0  0  0  0  0  0  0
   25.6826  -17.2718  -14.8784 C   0  0  0  0  0  0  0  0  0  0  0  0
   26.3329  -16.4635  -15.9236 C   0  0  0  0  0  0  0  0  0  0  0  0
   27.6617  -16.5956  -16.2422 C   0  0  0  0  0  0  0  0  0  0  0  0
   28.2546  -15.8046  -17.2290 C   0  0  0  0  0  0  0  0  0  0  0  0
   27.5035  -14.8680  -17.9063 C   0  0  0  0  0  0  0  0  0  0  0  0
   26.1604  -14.7243  -17.5952 C   0  0  0  0  0  0  0  0  0  0  0  0
   25.5955  -15.5211  -16.6117 C   0  0  0  0  0  0  0  0  0  0  0  0
   25.7883  -19.6060  -14.1297 C   0  0  0  0  0  0  0  0  0  0  0  0
   24.6971  -19.8409  -13.5090 O   0  0  0  0  0  0  0  0  0  0  0  0
   26.9961  -20.1841  -13.6864 N   0  0  0  0  0  0  0  0  0  0  0  0
   28.2581  -20.1626  -14.3899 C   0  0  0  0  0  0  0  0  0  0  0  0
   29.0822  -21.2087  -13.6264 C   0  0  0  0  0  0  0  0  0  0  0  0
   28.6434  -20.9441  -12.2088 C   0  0  0  0  0  0  0  0  0  0  0  0
   27.1226  -20.9134  -12.4201 C   0  0  1  0  0  0  0  0  0  0  0  0
   26.5574  -20.1636  -11.2753 C   0  0  0  0  0  0  0  0  0  0  0  0
   26.5318  -18.9261  -11.1505 O   0  0  0  0  0  0  0  0  0  0  0  0
   25.9920  -20.9290  -10.2216 N   0  0  0  0  0  0  0  0  0  0  0  0
   25.5256  -20.2923   -8.9830 C   0  0  1  0  0  0  0  0  0  0  0  0
   24.1837  -20.9183   -8.6060 C   0  0  0  0  0  0  0  0  0  0  0  0
   22.9999  -20.5016   -9.9369 S   0  0  0  0  0  0  0  0  0  0  0  0
   26.4574  -20.5994   -7.8677 C   0  0  0  0  0  0  0  0  0  0  0  0
   27.2511  -21.5619   -7.9939 O   0  0  0  0  0  0  0  0  0  0  0  0
   26.4880  -19.8708   -6.6965 O   0  0  0  0  0  0  0  0  0  0  0  0
  2  1  1  1
  2 10  1  0
  3  2  1  0
  4  3  1  0
  5  4  2  0
  6  5  1  0
  7  8  1  0
  7  6  2  0
  8  9  2  0
  9  4  1  0
 10 12  1  0
 10 11  2  0
 12 16  1  0
 13 12  1  0
 14 13  1  0
 14 15  1  0
 15 16  1  0
 17 19  1  0
 16 17  1  1
 18 17  2  0
 20 19  1  0
 20 21  1  1
 21 22  1  0
 23 25  1  0
 23 20  1  0
 24 23  2  0
M  END
$$$$
