IMM.pdb
     RDKit          3D

 25 24  0  0  1  0  0  0  0  0999 V2000
   26.6313  -15.6573  -17.4129 C   0  0  0  0  0  0  0  0  0  0  0  0
   27.6228  -16.6185  -16.8026 C   0  0  0  0  0  0  0  0  0  0  0  0
   26.8836  -17.5794  -15.9068 C   0  0  2  0  0  0  0  0  0  0  0  0
   26.1372  -16.7380  -14.8880 C   0  0  0  0  0  0  0  0  0  0  0  0
   27.7773  -18.5651  -15.2130 C   0  0  2  0  0  0  0  0  0  0  0  0
   28.5894  -19.3140  -16.1152 N   0  0  0  0  0  0  0  0  0  0  0  0
   26.9305  -19.4401  -14.3645 C   0  0  0  0  0  0  0  0  0  0  0  0
   26.3553  -20.4261  -14.8901 O   0  0  0  0  0  0  0  0  0  0  0  0
   27.2680  -20.6339   -7.8638 C   0  0  0  0  0  0  0  0  0  0  0  0
   25.4932  -20.4589   -8.2233 S   0  0  0  0  0  0  0  0  0  0  0  0
   25.2097  -20.8452   -9.9957 C   0  0  0  0  0  0  0  0  0  0  0  0
   26.1010  -19.9243  -10.7781 C   0  0  0  0  0  0  0  0  0  0  0  0
   25.8565  -20.1224  -12.2550 C   0  0  2  0  0  0  0  0  0  0  0  0
   26.7253  -19.2321  -12.9779 N   0  0  0  0  0  0  0  0  0  0  0  0
   24.4213  -19.8600  -12.5028 C   0  0  0  0  0  0  0  0  0  0  0  0
   24.1644  -18.8117  -13.1703 O   0  0  0  0  0  0  0  0  0  0  0  0
   25.7557  -24.1740  -15.3524 C   0  0  0  0  0  0  0  0  0  0  0  0
   24.0325  -24.6986  -15.2671 S   0  0  0  0  0  0  0  0  0  0  0  0
   22.9437  -23.4678  -14.5656 C   0  0  0  0  0  0  0  0  0  0  0  0
   23.6057  -22.5617  -13.5906 C   0  0  0  0  0  0  0  0  0  0  0  0
   22.6745  -21.5257  -12.9976 C   0  0  2  0  0  0  0  0  0  0  0  0
   23.3717  -20.6670  -12.0625 N   0  0  0  0  0  0  0  0  0  0  0  0
   21.4873  -22.0976  -12.3668 C   0  0  0  0  0  0  0  0  0  0  0  0
   20.3631  -22.3904  -13.1211 O   0  0  0  0  0  0  0  0  0  0  0  0
   21.4525  -22.3375  -11.1359 O   0  0  0  0  0  0  0  0  0  0  0  0
  2  1  1  0
  2  3  1  0
  3  4  1  1
  5  3  1  0
  5  6  1  6
  7  8  2  0
  7  5  1  0
 10 11  1  0
 10  9  1  0
 11 12  1  0
 13 12  1  1
 13 14  1  0
 14  7  1  0
 15 13  1  0
 16 15  2  0
 18 17  1  0
 19 20  1  0
 19 18  1  0
 21 20  1  1
 21 22  1  0
 22 15  1  0
 23 21  1  0
 24 23  1  0
 25 23  2  0
M  END
$$$$
