IMM.pdb
     RDKit          3D

 25 24  0  0  1  0  0  0  0  0999 V2000
   22.2092  -21.2602  -14.8217 C   0  0  0  0  0  0  0  0  0  0  0  0
   23.5854  -20.6894  -14.5776 C   0  0  0  0  0  0  0  0  0  0  0  0
   24.0418  -21.0882  -13.1975 C   0  0  2  0  0  0  0  0  0  0  0  0
   22.9701  -20.6171  -12.2317 C   0  0  0  0  0  0  0  0  0  0  0  0
   25.3750  -20.5154  -12.8149 C   0  0  2  0  0  0  0  0  0  0  0  0
   26.4229  -20.8979  -13.7036 N   0  0  0  0  0  0  0  0  0  0  0  0
   25.6610  -20.9058  -11.4119 C   0  0  0  0  0  0  0  0  0  0  0  0
   25.9219  -22.1081  -11.1553 O   0  0  0  0  0  0  0  0  0  0  0  0
   29.5218  -19.0852   -5.3311 C   0  0  0  0  0  0  0  0  0  0  0  0
   28.0731  -18.3863   -6.1812 S   0  0  0  0  0  0  0  0  0  0  0  0
   27.0973  -19.7603   -6.9098 C   0  0  0  0  0  0  0  0  0  0  0  0
   26.6885  -19.3087   -8.2822 C   0  0  0  0  0  0  0  0  0  0  0  0
   26.0470  -20.4595   -9.0200 C   0  0  2  0  0  0  0  0  0  0  0  0
   25.6586  -19.9959  -10.3255 N   0  0  0  0  0  0  0  0  0  0  0  0
   24.9017  -20.9216   -8.2046 C   0  0  0  0  0  0  0  0  0  0  0  0
   23.7677  -20.4656   -8.5463 O   0  0  0  0  0  0  0  0  0  0  0  0
   25.0222  -23.1606   -1.9631 C   0  0  0  0  0  0  0  0  0  0  0  0
   23.3892  -23.6542   -2.5472 S   0  0  0  0  0  0  0  0  0  0  0  0
   22.9778  -23.0008   -4.1585 C   0  0  0  0  0  0  0  0  0  0  0  0
   24.1595  -22.7221   -5.0164 C   0  0  0  0  0  0  0  0  0  0  0  0
   23.8028  -22.1451   -6.3699 C   0  0  2  0  0  0  0  0  0  0  0  0
   24.9908  -21.7970   -7.1218 N   0  0  0  0  0  0  0  0  0  0  0  0
   22.8986  -20.9997   -6.2987 C   0  0  0  0  0  0  0  0  0  0  0  0
   23.3744  -19.7507   -5.9353 O   0  0  0  0  0  0  0  0  0  0  0  0
   21.6774  -21.1137   -6.5622 O   0  0  0  0  0  0  0  0  0  0  0  0
  2  1  1  0
  2  3  1  0
  3  4  1  1
  5  3  1  0
  5  6  1  6
  7  8  2  0
  7  5  1  0
 10 11  1  0
 10  9  1  0
 11 12  1  0
 13 12  1  1
 13 14  1  0
 14  7  1  0
 15 13  1  0
 16 15  2  0
 18 17  1  0
 19 20  1  0
 19 18  1  0
 21 20  1  1
 21 22  1  0
 22 15  1  0
 23 21  1  0
 24 23  1  0
 25 23  2  0
M  END
$$$$
