IMM.pdb
     RDKit          3D

 25 24  0  0  1  0  0  0  0  0999 V2000
   29.1077  -17.8881  -17.0262 C   0  0  0  0  0  0  0  0  0  0  0  0
   27.7880  -17.3836  -16.4940 C   0  0  0  0  0  0  0  0  0  0  0  0
   27.0084  -18.5477  -15.9380 C   0  0  2  0  0  0  0  0  0  0  0  0
   26.8932  -19.5679  -17.0557 C   0  0  0  0  0  0  0  0  0  0  0  0
   25.6458  -18.1738  -15.4325 C   0  0  2  0  0  0  0  0  0  0  0  0
   25.6429  -16.9636  -14.6778 N   0  0  0  0  0  0  0  0  0  0  0  0
   25.1103  -19.3191  -14.6553 C   0  0  0  0  0  0  0  0  0  0  0  0
   24.9361  -20.4204  -15.2352 O   0  0  0  0  0  0  0  0  0  0  0  0
   25.1142  -21.0025   -8.3651 C   0  0  0  0  0  0  0  0  0  0  0  0
   26.5896  -20.7047   -9.3869 S   0  0  0  0  0  0  0  0  0  0  0  0
   26.1031  -20.7638  -11.1563 C   0  0  0  0  0  0  0  0  0  0  0  0
   24.6406  -20.4273  -11.2053 C   0  0  0  0  0  0  0  0  0  0  0  0
   24.1801  -20.3938  -12.6430 C   0  0  2  0  0  0  0  0  0  0  0  0
   24.7771  -19.2499  -13.2798 N   0  0  0  0  0  0  0  0  0  0  0  0
   22.7011  -20.3442  -12.6307 C   0  0  0  0  0  0  0  0  0  0  0  0
   22.1941  -19.2339  -12.2832 O   0  0  0  0  0  0  0  0  0  0  0  0
   21.5837  -19.0368  -17.7504 C   0  0  0  0  0  0  0  0  0  0  0  0
   19.8873  -19.0316  -17.1391 S   0  0  0  0  0  0  0  0  0  0  0  0
   19.6349  -20.0867  -15.7195 C   0  0  0  0  0  0  0  0  0  0  0  0
   20.8509  -20.2781  -14.8860 C   0  0  0  0  0  0  0  0  0  0  0  0
   20.6227  -21.1572  -13.6747 C   0  0  2  0  0  0  0  0  0  0  0  0
   21.8612  -21.4065  -12.9662 N   0  0  0  0  0  0  0  0  0  0  0  0
   19.9570  -22.4203  -13.9844 C   0  0  0  0  0  0  0  0  0  0  0  0
   18.5877  -22.5511  -13.8213 O   0  0  0  0  0  0  0  0  0  0  0  0
   20.6002  -23.4128  -14.4027 O   0  0  0  0  0  0  0  0  0  0  0  0
  2  1  1  0
  2  3  1  0
  3  4  1  6
  5  3  1  0
  5  6  1  1
  7  8  2  0
  7  5  1  0
 10 11  1  0
 10  9  1  0
 11 12  1  0
 13 12  1  1
 13 14  1  0
 14  7  1  0
 15 13  1  0
 16 15  2  0
 18 17  1  0
 19 20  1  0
 19 18  1  0
 21 20  1  6
 21 22  1  0
 22 15  1  0
 23 21  1  0
 24 23  1  0
 25 23  2  0
M  END
$$$$
