IMM.pdb
     RDKit          3D

 25 24  0  0  1  0  0  0  0  0999 V2000
   27.8291  -17.4186  -17.4102 C   0  0  0  0  0  0  0  0  0  0  0  0
   28.4850  -18.3944  -16.4632 C   0  0  0  0  0  0  0  0  0  0  0  0
   27.4165  -19.0792  -15.6499 C   0  0  2  0  0  0  0  0  0  0  0  0
   26.7203  -17.9962  -14.8464 C   0  0  0  0  0  0  0  0  0  0  0  0
   27.9454  -20.1459  -14.7365 C   0  0  2  0  0  0  0  0  0  0  0  0
   28.7009  -21.1431  -15.4212 N   0  0  0  0  0  0  0  0  0  0  0  0
   26.8008  -20.7253  -13.9903 C   0  0  0  0  0  0  0  0  0  0  0  0
   26.1337  -21.6494  -14.5198 O   0  0  0  0  0  0  0  0  0  0  0  0
   25.6803  -19.6787   -7.8587 C   0  0  0  0  0  0  0  0  0  0  0  0
   26.8431  -21.0359   -8.1992 S   0  0  0  0  0  0  0  0  0  0  0  0
   26.7182  -21.4879   -9.9743 C   0  0  0  0  0  0  0  0  0  0  0  0
   25.5340  -20.7427  -10.5193 C   0  0  0  0  0  0  0  0  0  0  0  0
   25.3910  -21.0348  -11.9938 C   0  0  2  0  0  0  0  0  0  0  0  0
   26.4053  -20.2970  -12.6988 N   0  0  0  0  0  0  0  0  0  0  0  0
   24.0167  -20.6520  -12.3874 C   0  0  0  0  0  0  0  0  0  0  0  0
   23.7998  -19.4045  -12.4726 O   0  0  0  0  0  0  0  0  0  0  0  0
   19.9355  -24.2142  -16.0601 C   0  0  0  0  0  0  0  0  0  0  0  0
   19.1464  -22.5940  -15.9944 S   0  0  0  0  0  0  0  0  0  0  0  0
   19.8292  -21.5158  -14.7440 C   0  0  0  0  0  0  0  0  0  0  0  0
   21.1752  -21.9249  -14.2637 C   0  0  0  0  0  0  0  0  0  0  0  0
   21.7066  -21.0596  -13.1407 C   0  0  2  0  0  0  0  0  0  0  0  0
   22.9827  -21.5481  -12.6604 N   0  0  0  0  0  0  0  0  0  0  0  0
   20.7739  -20.9079  -12.0264 C   0  0  0  0  0  0  0  0  0  0  0  0
   19.7699  -19.9551  -12.0756 O   0  0  0  0  0  0  0  0  0  0  0  0
   20.8551  -21.6292  -11.0032 O   0  0  0  0  0  0  0  0  0  0  0  0
  2  1  1  0
  2  3  1  0
  3  4  1  1
  5  3  1  0
  5  6  1  6
  7  8  2  0
  7  5  1  0
 10 11  1  0
 10  9  1  0
 11 12  1  0
 13 12  1  1
 13 14  1  0
 14  7  1  0
 15 13  1  0
 16 15  2  0
 18 17  1  0
 19 20  1  0
 19 18  1  0
 21 20  1  6
 21 22  1  0
 22 15  1  0
 23 21  1  0
 24 23  1  0
 25 23  2  0
M  END
$$$$
