IMM.pdb
     RDKit          3D

 25 24  0  0  1  0  0  0  0  0999 V2000
   28.2574  -18.0914  -17.1937 C   0  0  0  0  0  0  0  0  0  0  0  0
   28.9361  -18.2945  -15.8605 C   0  0  0  0  0  0  0  0  0  0  0  0
   28.0686  -19.1772  -15.0001 C   0  0  2  0  0  0  0  0  0  0  0  0
   28.0651  -20.5492  -15.6488 C   0  0  0  0  0  0  0  0  0  0  0  0
   26.6641  -18.6725  -14.8430 C   0  0  2  0  0  0  0  0  0  0  0  0
   26.5990  -17.3799  -14.2438 N   0  0  0  0  0  0  0  0  0  0  0  0
   25.8921  -19.6832  -14.0782 C   0  0  0  0  0  0  0  0  0  0  0  0
   25.7532  -20.8358  -14.5595 O   0  0  0  0  0  0  0  0  0  0  0  0
   25.3321  -21.6414   -7.6093 C   0  0  0  0  0  0  0  0  0  0  0  0
   26.2181  -20.3056   -8.4698 S   0  0  0  0  0  0  0  0  0  0  0  0
   26.1161  -20.6005  -10.2791 C   0  0  0  0  0  0  0  0  0  0  0  0
   24.6991  -20.3043  -10.6777 C   0  0  0  0  0  0  0  0  0  0  0  0
   24.5501  -20.4763  -12.1705 C   0  0  2  0  0  0  0  0  0  0  0  0
   25.2917  -19.4284  -12.8201 N   0  0  0  0  0  0  0  0  0  0  0  0
   23.1026  -20.4373  -12.4760 C   0  0  0  0  0  0  0  0  0  0  0  0
   22.6047  -19.2786  -12.6177 O   0  0  0  0  0  0  0  0  0  0  0  0
   19.3529  -25.5475  -14.4079 C   0  0  0  0  0  0  0  0  0  0  0  0
   18.2379  -24.1423  -14.5927 S   0  0  0  0  0  0  0  0  0  0  0  0
   18.9317  -22.5982  -14.0211 C   0  0  0  0  0  0  0  0  0  0  0  0
   20.3403  -22.7042  -13.5580 C   0  0  0  0  0  0  0  0  0  0  0  0
   20.9044  -21.4017  -13.0312 C   0  0  2  0  0  0  0  0  0  0  0  0
   22.2822  -21.5575  -12.6125 N   0  0  0  0  0  0  0  0  0  0  0  0
   20.1137  -20.8147  -11.9520 C   0  0  0  0  0  0  0  0  0  0  0  0
   19.0747  -19.9439  -12.2360 O   0  0  0  0  0  0  0  0  0  0  0  0
   20.3509  -21.0799  -10.7490 O   0  0  0  0  0  0  0  0  0  0  0  0
  2  1  1  0
  2  3  1  0
  3  4  1  6
  5  3  1  0
  5  6  1  1
  7  8  2  0
  7  5  1  0
 10 11  1  0
 10  9  1  0
 11 12  1  0
 13 12  1  1
 13 14  1  0
 14  7  1  0
 15 13  1  0
 16 15  2  0
 18 17  1  0
 19 20  1  0
 19 18  1  0
 21 20  1  1
 21 22  1  0
 22 15  1  0
 23 21  1  0
 24 23  1  0
 25 23  2  0
M  END
$$$$
