IMM.pdb
     RDKit          3D

 25 24  0  0  1  0  0  0  0  0999 V2000
   18.0951  -11.2307  -17.5322 C   0  0  0  0  0  0  0  0  0  0  0  0
   18.7488   -9.8863  -17.3207 C   0  0  0  0  0  0  0  0  0  0  0  0
   18.4279   -9.4005  -15.9303 C   0  0  2  0  0  0  0  0  0  0  0  0
   16.9156   -9.3133  -15.8381 C   0  0  0  0  0  0  0  0  0  0  0  0
   19.0468   -8.0746  -15.5977 C   0  0  2  0  0  0  0  0  0  0  0  0
   20.4010   -7.9657  -16.0319 N   0  0  0  0  0  0  0  0  0  0  0  0
   18.9082   -7.8527  -14.1368 C   0  0  0  0  0  0  0  0  0  0  0  0
   17.7742   -7.9695  -13.6079 O   0  0  0  0  0  0  0  0  0  0  0  0
   22.2851   -6.5415   -7.1611 C   0  0  0  0  0  0  0  0  0  0  0  0
   22.4854   -6.6500   -8.9661 S   0  0  0  0  0  0  0  0  0  0  0  0
   20.8269   -6.8253   -9.7339 C   0  0  0  0  0  0  0  0  0  0  0  0
   21.0613   -7.0928  -11.1927 C   0  0  0  0  0  0  0  0  0  0  0  0
   19.7338   -7.2561  -11.8937 C   0  0  2  0  0  0  0  0  0  0  0  0
   19.9892   -7.5120  -13.2863 N   0  0  0  0  0  0  0  0  0  0  0  0
   18.9594   -6.0159  -11.6647 C   0  0  0  0  0  0  0  0  0  0  0  0
   19.0300   -5.1487  -12.5886 O   0  0  0  0  0  0  0  0  0  0  0  0
   13.2869   -1.7097  -12.8119 C   0  0  0  0  0  0  0  0  0  0  0  0
   14.3533   -3.1617  -12.8928 S   0  0  0  0  0  0  0  0  0  0  0  0
   15.5271   -3.2633  -11.5496 C   0  0  0  0  0  0  0  0  0  0  0  0
   16.4155   -4.4535  -11.6132 C   0  0  0  0  0  0  0  0  0  0  0  0
   17.3952   -4.5402  -10.4622 C   0  0  2  0  0  0  0  0  0  0  0  0
   18.1845   -5.7525  -10.5348 N   0  0  0  0  0  0  0  0  0  0  0  0
   16.7669   -4.4266   -9.1481 C   0  0  0  0  0  0  0  0  0  0  0  0
   16.0679   -3.2826   -8.8002 O   0  0  0  0  0  0  0  0  0  0  0  0
   16.8419   -5.3530   -8.3055 O   0  0  0  0  0  0  0  0  0  0  0  0
  2  1  1  0
  2  3  1  0
  3  4  1  6
  5  3  1  0
  5  6  1  1
  7  8  2  0
  7  5  1  0
 10 11  1  0
 10  9  1  0
 11 12  1  0
 13 12  1  1
 13 14  1  0
 14  7  1  0
 15 13  1  0
 16 15  2  0
 18 17  1  0
 19 20  1  0
 19 18  1  0
 21 20  1  6
 21 22  1  0
 22 15  1  0
 23 21  1  0
 24 23  1  0
 25 23  2  0
M  END
$$$$
