IMM.pdb
     RDKit          3D

 25 24  0  0  1  0  0  0  0  0999 V2000
   12.8256  -10.0803  -16.5368 C   0  0  0  0  0  0  0  0  0  0  0  0
   14.3096  -10.3505  -16.6015 C   0  0  0  0  0  0  0  0  0  0  0  0
   14.9062  -10.1304  -15.2348 C   0  0  2  0  0  0  0  0  0  0  0  0
   14.6623   -8.6745  -14.8829 C   0  0  0  0  0  0  0  0  0  0  0  0
   16.3714  -10.4456  -15.1592 C   0  0  2  0  0  0  0  0  0  0  0  0
   16.6698  -11.7984  -15.4985 N   0  0  0  0  0  0  0  0  0  0  0  0
   16.8515  -10.0907  -13.8005 C   0  0  0  0  0  0  0  0  0  0  0  0
   16.7034  -10.9185  -12.8666 O   0  0  0  0  0  0  0  0  0  0  0  0
   23.1555   -9.7579  -12.8642 C   0  0  0  0  0  0  0  0  0  0  0  0
   21.9483   -8.4629  -12.4455 S   0  0  0  0  0  0  0  0  0  0  0  0
   20.2605   -9.1806  -12.5300 C   0  0  0  0  0  0  0  0  0  0  0  0
   19.3110   -8.0747  -12.1693 C   0  0  0  0  0  0  0  0  0  0  0  0
   17.9014   -8.6148  -12.1305 C   0  0  2  0  0  0  0  0  0  0  0  0
   17.4760   -8.8589  -13.4831 N   0  0  0  0  0  0  0  0  0  0  0  0
   17.0653   -7.6134  -11.4317 C   0  0  0  0  0  0  0  0  0  0  0  0
   16.6599   -6.6456  -12.1455 O   0  0  0  0  0  0  0  0  0  0  0  0
   11.8521   -8.3577   -7.7945 C   0  0  0  0  0  0  0  0  0  0  0  0
   12.5928   -6.9129   -7.0098 S   0  0  0  0  0  0  0  0  0  0  0  0
   13.9642   -6.2253   -7.9257 C   0  0  0  0  0  0  0  0  0  0  0  0
   14.7731   -7.2387   -8.6526 C   0  0  0  0  0  0  0  0  0  0  0  0
   15.8638   -6.6386   -9.5142 C   0  0  2  0  0  0  0  0  0  0  0  0
   16.7089   -7.6677  -10.0839 N   0  0  0  0  0  0  0  0  0  0  0  0
   16.6792   -5.6451   -8.8196 C   0  0  0  0  0  0  0  0  0  0  0  0
   16.2035   -4.3592   -8.6227 O   0  0  0  0  0  0  0  0  0  0  0  0
   17.8225   -5.9255   -8.3858 O   0  0  0  0  0  0  0  0  0  0  0  0
  2  1  1  0
  2  3  1  0
  3  4  1  6
  5  3  1  0
  5  6  1  1
  7  8  2  0
  7  5  1  0
 10 11  1  0
 10  9  1  0
 11 12  1  0
 13 12  1  6
 13 14  1  0
 14  7  1  0
 15 13  1  0
 16 15  2  0
 18 17  1  0
 19 20  1  0
 19 18  1  0
 21 20  1  1
 21 22  1  0
 22 15  1  0
 23 21  1  0
 24 23  1  0
 25 23  2  0
M  END
$$$$
