IMM.pdb
     RDKit          3D

 25 24  0  0  1  0  0  0  0  0999 V2000
   16.8232  -13.7913  -19.7320 C   0  0  0  0  0  0  0  0  0  0  0  0
   17.8924  -12.7823  -20.0758 C   0  0  0  0  0  0  0  0  0  0  0  0
   17.9310  -11.7261  -19.0011 C   0  0  2  0  0  0  0  0  0  0  0  0
   16.5480  -11.1028  -18.9537 C   0  0  0  0  0  0  0  0  0  0  0  0
   18.9705  -10.6688  -19.2324 C   0  0  2  0  0  0  0  0  0  0  0  0
   20.2628  -11.2067  -19.5056 N   0  0  0  0  0  0  0  0  0  0  0  0
   18.9787   -9.7629  -18.0569 C   0  0  0  0  0  0  0  0  0  0  0  0
   17.8847   -9.3356  -17.6096 O   0  0  0  0  0  0  0  0  0  0  0  0
   22.7006   -9.2155  -12.3065 C   0  0  0  0  0  0  0  0  0  0  0  0
   23.1137   -9.8718  -13.9522 S   0  0  0  0  0  0  0  0  0  0  0  0
   21.5821   -9.9369  -14.9625 C   0  0  0  0  0  0  0  0  0  0  0  0
   21.3634   -8.5485  -15.4909 C   0  0  0  0  0  0  0  0  0  0  0  0
   20.0519   -8.4953  -16.2374 C   0  0  2  0  0  0  0  0  0  0  0  0
   20.1592   -9.3417  -17.3959 N   0  0  0  0  0  0  0  0  0  0  0  0
   19.7958   -7.0778  -16.5770 C   0  0  0  0  0  0  0  0  0  0  0  0
   20.3999   -6.6440  -17.6053 O   0  0  0  0  0  0  0  0  0  0  0  0
   16.9978   -6.7187  -20.0910 C   0  0  0  0  0  0  0  0  0  0  0  0
   17.3089   -4.9426  -20.0738 S   0  0  0  0  0  0  0  0  0  0  0  0
   18.3275   -4.4076  -18.7069 C   0  0  0  0  0  0  0  0  0  0  0  0
   17.7568   -4.7203  -17.3703 C   0  0  0  0  0  0  0  0  0  0  0  0
   18.7999   -4.8438  -16.2800 C   0  0  2  0  0  0  0  0  0  0  0  0
   18.9601   -6.2208  -15.8602 N   0  0  0  0  0  0  0  0  0  0  0  0
   18.5409   -3.9914  -15.1221 C   0  0  0  0  0  0  0  0  0  0  0  0
   18.1238   -4.5439  -13.9224 O   0  0  0  0  0  0  0  0  0  0  0  0
   18.6876   -2.7469  -15.1807 O   0  0  0  0  0  0  0  0  0  0  0  0
  2  1  1  0
  2  3  1  0
  3  4  1  6
  5  3  1  0
  5  6  1  1
  7  8  2  0
  7  5  1  0
 10 11  1  0
 10  9  1  0
 11 12  1  0
 13 12  1  6
 13 14  1  0
 14  7  1  0
 15 13  1  0
 16 15  2  0
 18 17  1  0
 19 20  1  0
 19 18  1  0
 21 20  1  6
 21 22  1  0
 22 15  1  0
 23 21  1  0
 24 23  1  0
 25 23  2  0
M  END
$$$$
