IMM.pdb
     RDKit          3D

 25 24  0  0  1  0  0  0  0  0999 V2000
   24.2230  -19.5216  -15.9930 C   0  0  0  0  0  0  0  0  0  0  0  0
   25.5187  -19.8340  -15.2839 C   0  0  0  0  0  0  0  0  0  0  0  0
   25.2089  -20.3103  -13.8877 C   0  0  2  0  0  0  0  0  0  0  0  0
   24.4261  -19.1991  -13.2126 C   0  0  0  0  0  0  0  0  0  0  0  0
   26.4287  -20.6506  -13.0827 C   0  0  2  0  0  0  0  0  0  0  0  0
   27.2472  -21.6415  -13.7010 N   0  0  0  0  0  0  0  0  0  0  0  0
   25.9886  -21.0563  -11.7247 C   0  0  0  0  0  0  0  0  0  0  0  0
   25.4423  -22.1776  -11.5711 O   0  0  0  0  0  0  0  0  0  0  0  0
   27.7295  -18.2746   -6.1462 C   0  0  0  0  0  0  0  0  0  0  0  0
   27.3387  -19.9841   -5.6619 S   0  0  0  0  0  0  0  0  0  0  0  0
   26.1656  -20.6900   -6.8852 C   0  0  0  0  0  0  0  0  0  0  0  0
   26.5548  -20.1249   -8.2208 C   0  0  0  0  0  0  0  0  0  0  0  0
   25.6975  -20.7447   -9.2983 C   0  0  2  0  0  0  0  0  0  0  0  0
   26.1468  -20.2479  -10.5716 N   0  0  0  0  0  0  0  0  0  0  0  0
   24.2918  -20.3900   -9.0010 C   0  0  0  0  0  0  0  0  0  0  0  0
   23.8334  -19.3920   -9.6370 O   0  0  0  0  0  0  0  0  0  0  0  0
   20.8982  -21.4514  -12.8498 C   0  0  0  0  0  0  0  0  0  0  0  0
   19.8145  -22.1845  -11.6089 S   0  0  0  0  0  0  0  0  0  0  0  0
   20.2355  -21.7304   -9.9329 C   0  0  0  0  0  0  0  0  0  0  0  0
   21.6952  -21.5745   -9.6985 C   0  0  0  0  0  0  0  0  0  0  0  0
   22.0370  -21.0965   -8.3032 C   0  0  2  0  0  0  0  0  0  0  0  0
   23.4701  -21.0627   -8.0961 N   0  0  0  0  0  0  0  0  0  0  0  0
   21.3936  -21.8709   -7.2445 C   0  0  0  0  0  0  0  0  0  0  0  0
   20.0469  -21.7005   -6.9689 O   0  0  0  0  0  0  0  0  0  0  0  0
   22.0362  -22.7042   -6.5614 O   0  0  0  0  0  0  0  0  0  0  0  0
  2  1  1  0
  2  3  1  0
  3  4  1  1
  5  3  1  0
  5  6  1  6
  7  8  2  0
  7  5  1  0
 10 11  1  0
 10  9  1  0
 11 12  1  0
 13 12  1  1
 13 14  1  0
 14  7  1  0
 15 13  1  0
 16 15  2  0
 18 17  1  0
 19 20  1  0
 19 18  1  0
 21 20  1  6
 21 22  1  0
 22 15  1  0
 23 21  1  0
 24 23  1  0
 25 23  2  0
M  END
$$$$
