IMM.pdb
     RDKit          3D

 25 24  0  0  1  0  0  0  0  0999 V2000
   27.8015  -17.6638  -17.3038 C   0  0  0  0  0  0  0  0  0  0  0  0
   28.4726  -18.6072  -16.3348 C   0  0  0  0  0  0  0  0  0  0  0  0
   27.4129  -19.3248  -15.5385 C   0  0  2  0  0  0  0  0  0  0  0  0
   26.6690  -18.2637  -14.7486 C   0  0  0  0  0  0  0  0  0  0  0  0
   27.9600  -20.3731  -14.6146 C   0  0  2  0  0  0  0  0  0  0  0  0
   28.6449  -21.4194  -15.3004 N   0  0  0  0  0  0  0  0  0  0  0  0
   26.8425  -20.8865  -13.7838 C   0  0  0  0  0  0  0  0  0  0  0  0
   26.0938  -21.7794  -14.2546 O   0  0  0  0  0  0  0  0  0  0  0  0
   25.7873  -19.3933   -7.7117 C   0  0  0  0  0  0  0  0  0  0  0  0
   26.9513  -20.7697   -7.9573 S   0  0  0  0  0  0  0  0  0  0  0  0
   26.6860  -21.4746   -9.6317 C   0  0  0  0  0  0  0  0  0  0  0  0
   25.6274  -20.6325  -10.2834 C   0  0  0  0  0  0  0  0  0  0  0  0
   25.4866  -21.0339  -11.7322 C   0  0  2  0  0  0  0  0  0  0  0  0
   26.5606  -20.4275  -12.4732 N   0  0  0  0  0  0  0  0  0  0  0  0
   24.1486  -20.5912  -12.1838 C   0  0  0  0  0  0  0  0  0  0  0  0
   24.0358  -19.3504  -12.4255 O   0  0  0  0  0  0  0  0  0  0  0  0
   21.4402  -22.8054  -17.3624 C   0  0  0  0  0  0  0  0  0  0  0  0
   19.9725  -22.2910  -16.4498 S   0  0  0  0  0  0  0  0  0  0  0  0
   20.3382  -21.3243  -14.9924 C   0  0  0  0  0  0  0  0  0  0  0  0
   21.5570  -21.7665  -14.2650 C   0  0  0  0  0  0  0  0  0  0  0  0
   21.8628  -20.9378  -13.0354 C   0  0  2  0  0  0  0  0  0  0  0  0
   23.0437  -21.4260  -12.3536 N   0  0  0  0  0  0  0  0  0  0  0  0
   20.7446  -20.8428  -12.1000 C   0  0  0  0  0  0  0  0  0  0  0  0
   19.6291  -20.0839  -12.4133 O   0  0  0  0  0  0  0  0  0  0  0  0
   20.7626  -21.4400  -10.9969 O   0  0  0  0  0  0  0  0  0  0  0  0
  2  1  1  0
  2  3  1  0
  3  4  1  1
  5  3  1  0
  5  6  1  6
  7  8  2  0
  7  5  1  0
 10 11  1  0
 10  9  1  0
 11 12  1  0
 13 12  1  1
 13 14  1  0
 14  7  1  0
 15 13  1  0
 16 15  2  0
 18 17  1  0
 19 20  1  0
 19 18  1  0
 21 20  1  6
 21 22  1  0
 22 15  1  0
 23 21  1  0
 24 23  1  0
 25 23  2  0
M  END
$$$$
