IMM.pdb
     RDKit          3D

 25 24  0  0  1  0  0  0  0  0999 V2000
   22.5997  -25.5125  -15.7152 C   0  0  0  0  0  0  0  0  0  0  0  0
   23.8221  -24.6267  -15.7368 C   0  0  0  0  0  0  0  0  0  0  0  0
   24.8875  -25.2847  -16.5758 C   0  0  2  0  0  0  0  0  0  0  0  0
   25.2573  -26.5782  -15.8735 C   0  0  0  0  0  0  0  0  0  0  0  0
   26.1075  -24.4342  -16.7760 C   0  0  2  0  0  0  0  0  0  0  0  0
   25.8294  -23.2090  -17.4510 N   0  0  0  0  0  0  0  0  0  0  0  0
   27.1259  -25.2462  -17.4875 C   0  0  0  0  0  0  0  0  0  0  0  0
   26.8843  -25.6379  -18.6569 O   0  0  0  0  0  0  0  0  0  0  0  0
   32.9586  -24.0064  -17.3693 C   0  0  0  0  0  0  0  0  0  0  0  0
   33.2326  -25.5186  -18.3431 S   0  0  0  0  0  0  0  0  0  0  0  0
   31.6369  -26.4117  -18.5067 C   0  0  0  0  0  0  0  0  0  0  0  0
   30.6419  -25.6587  -17.6715 C   0  0  0  0  0  0  0  0  0  0  0  0
   29.3084  -26.3655  -17.7186 C   0  0  2  0  0  0  0  0  0  0  0  0
   28.3730  -25.6143  -16.9242 N   0  0  0  0  0  0  0  0  0  0  0  0
   29.5213  -27.7414  -17.2167 C   0  0  0  0  0  0  0  0  0  0  0  0
   29.6085  -27.8562  -15.9559 O   0  0  0  0  0  0  0  0  0  0  0  0
   24.8242  -31.6639  -16.4513 C   0  0  0  0  0  0  0  0  0  0  0  0
   26.2569  -31.7873  -15.3631 S   0  0  0  0  0  0  0  0  0  0  0  0
   27.8195  -31.6615  -16.2203 C   0  0  0  0  0  0  0  0  0  0  0  0
   28.1605  -30.2811  -16.6542 C   0  0  0  0  0  0  0  0  0  0  0  0
   29.4530  -30.1943  -17.4379 C   0  0  2  0  0  0  0  0  0  0  0  0
   29.6280  -28.8787  -18.0178 N   0  0  0  0  0  0  0  0  0  0  0  0
   29.5827  -31.2205  -18.4696 C   0  0  0  0  0  0  0  0  0  0  0  0
   29.6827  -30.8657  -19.8047 O   0  0  0  0  0  0  0  0  0  0  0  0
   29.6069  -32.4406  -18.1786 O   0  0  0  0  0  0  0  0  0  0  0  0
  2  1  1  0
  2  3  1  0
  3  4  1  1
  5  3  1  0
  5  6  1  6
  7  8  2  0
  7  5  1  0
 10 11  1  0
 10  9  1  0
 11 12  1  0
 13 12  1  1
 13 14  1  0
 14  7  1  0
 15 13  1  0
 16 15  2  0
 18 17  1  0
 19 20  1  0
 19 18  1  0
 21 20  1  6
 21 22  1  0
 22 15  1  0
 23 21  1  0
 24 23  1  0
 25 23  2  0
M  END
$$$$
