IMM.pdb
     RDKit          3D

 25 24  0  0  1  0  0  0  0  0999 V2000
   26.7735  -16.9079  -17.6848 C   0  0  0  0  0  0  0  0  0  0  0  0
   27.9498  -17.8077  -17.3915 C   0  0  0  0  0  0  0  0  0  0  0  0
   27.6072  -18.6937  -16.2212 C   0  0  2  0  0  0  0  0  0  0  0  0
   27.3245  -17.7741  -15.0474 C   0  0  0  0  0  0  0  0  0  0  0  0
   28.6900  -19.6706  -15.8677 C   0  0  2  0  0  0  0  0  0  0  0  0
   29.0086  -20.5613  -16.9350 N   0  0  0  0  0  0  0  0  0  0  0  0
   28.2775  -20.3942  -14.6394 C   0  0  0  0  0  0  0  0  0  0  0  0
   27.4220  -21.3103  -14.7304 O   0  0  0  0  0  0  0  0  0  0  0  0
   31.5364  -21.1300   -9.2791 C   0  0  0  0  0  0  0  0  0  0  0  0
   31.7586  -22.2675  -10.6815 S   0  0  0  0  0  0  0  0  0  0  0  0
   30.4835  -21.8966  -11.9494 C   0  0  0  0  0  0  0  0  0  0  0  0
   29.4235  -21.0866  -11.2603 C   0  0  0  0  0  0  0  0  0  0  0  0
   28.2814  -20.8360  -12.2157 C   0  0  2  0  0  0  0  0  0  0  0  0
   28.7941  -20.1142  -13.3499 N   0  0  0  0  0  0  0  0  0  0  0  0
   27.2426  -20.0875  -11.4736 C   0  0  0  0  0  0  0  0  0  0  0  0
   27.0020  -18.9169  -11.9005 O   0  0  0  0  0  0  0  0  0  0  0  0
   22.5536  -19.9244  -14.3363 C   0  0  0  0  0  0  0  0  0  0  0  0
   22.0291  -20.9177  -12.9256 S   0  0  0  0  0  0  0  0  0  0  0  0
   22.9044  -20.5349  -11.4158 C   0  0  0  0  0  0  0  0  0  0  0  0
   24.3776  -20.7088  -11.5116 C   0  0  0  0  0  0  0  0  0  0  0  0
   25.1170  -20.3187  -10.2493 C   0  0  2  0  0  0  0  0  0  0  0  0
   26.5373  -20.5742  -10.3725 N   0  0  0  0  0  0  0  0  0  0  0  0
   24.5938  -20.9558   -9.0432 C   0  0  0  0  0  0  0  0  0  0  0  0
   23.4445  -20.4756   -8.4372 O   0  0  0  0  0  0  0  0  0  0  0  0
   25.1649  -21.9463   -8.5269 O   0  0  0  0  0  0  0  0  0  0  0  0
  2  1  1  0
  2  3  1  0
  3  4  1  1
  5  3  1  0
  5  6  1  6
  7  8  2  0
  7  5  1  0
 10 11  1  0
 10  9  1  0
 11 12  1  0
 13 12  1  1
 13 14  1  0
 14  7  1  0
 15 13  1  0
 16 15  2  0
 18 17  1  0
 19 20  1  0
 19 18  1  0
 21 20  1  6
 21 22  1  0
 22 15  1  0
 23 21  1  0
 24 23  1  0
 25 23  2  0
M  END
$$$$
