IMM.pdb
     RDKit          3D

 25 24  0  0  1  0  0  0  0  0999 V2000
   17.8916  -15.1545  -16.7951 C   0  0  0  0  0  0  0  0  0  0  0  0
   18.3561  -13.9778  -17.6191 C   0  0  0  0  0  0  0  0  0  0  0  0
   19.0861  -13.0111  -16.7221 C   0  0  2  0  0  0  0  0  0  0  0  0
   18.1005  -12.5828  -15.6504 C   0  0  0  0  0  0  0  0  0  0  0  0
   19.6255  -11.8104  -17.4426 C   0  0  2  0  0  0  0  0  0  0  0  0
   20.2201  -12.1331  -18.6982 N   0  0  0  0  0  0  0  0  0  0  0  0
   20.5734  -11.1145  -16.5372 C   0  0  0  0  0  0  0  0  0  0  0  0
   20.1865  -10.7835  -15.3882 O   0  0  0  0  0  0  0  0  0  0  0  0
   26.8460  -11.9829  -15.4793 C   0  0  0  0  0  0  0  0  0  0  0  0
   26.7715  -10.1742  -15.6611 S   0  0  0  0  0  0  0  0  0  0  0  0
   25.0571   -9.6168  -15.3135 C   0  0  0  0  0  0  0  0  0  0  0  0
   24.1748  -10.3131  -16.3092 C   0  0  0  0  0  0  0  0  0  0  0  0
   22.7272  -10.0697  -15.9552 C   0  0  2  0  0  0  0  0  0  0  0  0
   21.9078  -10.7940  -16.8902 N   0  0  0  0  0  0  0  0  0  0  0  0
   22.5030   -8.6075  -15.9994 C   0  0  0  0  0  0  0  0  0  0  0  0
   22.4597   -8.0957  -17.1599 O   0  0  0  0  0  0  0  0  0  0  0  0
   17.7339   -5.8132  -16.8690 C   0  0  0  0  0  0  0  0  0  0  0  0
   18.9611   -4.5063  -17.0630 S   0  0  0  0  0  0  0  0  0  0  0  0
   20.4310   -4.7529  -16.0776 C   0  0  0  0  0  0  0  0  0  0  0  0
   20.8085   -6.1802  -15.9036 C   0  0  0  0  0  0  0  0  0  0  0  0
   22.0433   -6.3806  -15.0508 C   0  0  2  0  0  0  0  0  0  0  0  0
   22.3421   -7.7877  -14.8819 N   0  0  0  0  0  0  0  0  0  0  0  0
   21.9694   -5.7219  -13.7488 C   0  0  0  0  0  0  0  0  0  0  0  0
   21.9743   -4.3397  -13.6595 O   0  0  0  0  0  0  0  0  0  0  0  0
   21.9001   -6.3830  -12.6849 O   0  0  0  0  0  0  0  0  0  0  0  0
  2  1  1  0
  2  3  1  0
  3  4  1  1
  5  3  1  0
  5  6  1  6
  7  8  2  0
  7  5  1  0
 10 11  1  0
 10  9  1  0
 11 12  1  0
 13 12  1  6
 13 14  1  0
 14  7  1  0
 15 13  1  0
 16 15  2  0
 18 17  1  0
 19 20  1  0
 19 18  1  0
 21 20  1  1
 21 22  1  0
 22 15  1  0
 23 21  1  0
 24 23  1  0
 25 23  2  0
M  END
$$$$
