IMM.pdb
     RDKit          3D

 25 24  0  0  1  0  0  0  0  0999 V2000
   20.2312  -22.0094  -14.8577 C   0  0  0  0  0  0  0  0  0  0  0  0
   20.7291  -22.0241  -13.4325 C   0  0  0  0  0  0  0  0  0  0  0  0
   22.1204  -21.4453  -13.3951 C   0  0  2  0  0  0  0  0  0  0  0  0
   23.0034  -22.3829  -14.1977 C   0  0  0  0  0  0  0  0  0  0  0  0
   22.6659  -21.2774  -12.0073 C   0  0  2  0  0  0  0  0  0  0  0  0
   21.8190  -20.4983  -11.1647 N   0  0  0  0  0  0  0  0  0  0  0  0
   24.0306  -20.7038  -12.1128 C   0  0  0  0  0  0  0  0  0  0  0  0
   24.1647  -19.5213  -12.5167 O   0  0  0  0  0  0  0  0  0  0  0  0
   30.1245  -21.6450   -9.5584 C   0  0  0  0  0  0  0  0  0  0  0  0
   28.6011  -21.3476   -8.6094 S   0  0  0  0  0  0  0  0  0  0  0  0
   27.3328  -20.6444   -9.7352 C   0  0  0  0  0  0  0  0  0  0  0  0
   27.4830  -21.3634  -11.0448 C   0  0  0  0  0  0  0  0  0  0  0  0
   26.4908  -20.8096  -12.0394 C   0  0  2  0  0  0  0  0  0  0  0  0
   25.2111  -21.4147  -11.7824 N   0  0  0  0  0  0  0  0  0  0  0  0
   27.0113  -21.1066  -13.3926 C   0  0  0  0  0  0  0  0  0  0  0  0
   26.8371  -22.2970  -13.7963 O   0  0  0  0  0  0  0  0  0  0  0  0
   23.6027  -22.4930  -17.5524 C   0  0  0  0  0  0  0  0  0  0  0  0
   24.2974  -20.9249  -18.1095 S   0  0  0  0  0  0  0  0  0  0  0  0
   25.9820  -20.6590  -17.5768 C   0  0  0  0  0  0  0  0  0  0  0  0
   26.1365  -20.5342  -16.1035 C   0  0  0  0  0  0  0  0  0  0  0  0
   27.5685  -20.3215  -15.6605 C   0  0  2  0  0  0  0  0  0  0  0  0
   27.6586  -20.1893  -14.2210 N   0  0  0  0  0  0  0  0  0  0  0  0
   28.2212  -19.1882  -16.3118 C   0  0  0  0  0  0  0  0  0  0  0  0
   29.0120  -19.3820  -17.4323 O   0  0  0  0  0  0  0  0  0  0  0  0
   28.0853  -18.0186  -15.8790 O   0  0  0  0  0  0  0  0  0  0  0  0
  2  1  1  0
  2  3  1  0
  3  4  1  6
  5  3  1  0
  5  6  1  1
  7  8  2  0
  7  5  1  0
 10 11  1  0
 10  9  1  0
 11 12  1  0
 13 12  1  1
 13 14  1  0
 14  7  1  0
 15 13  1  0
 16 15  2  0
 18 17  1  0
 19 20  1  0
 19 18  1  0
 21 20  1  1
 21 22  1  0
 22 15  1  0
 23 21  1  0
 24 23  1  0
 25 23  2  0
M  END
$$$$
