IMM.pdb
     RDKit          3D

 25 24  0  0  1  0  0  0  0  0999 V2000
   28.7484  -18.1069  -17.8903 C   0  0  0  0  0  0  0  0  0  0  0  0
   27.8619  -17.4989  -16.8301 C   0  0  0  0  0  0  0  0  0  0  0  0
   27.3236  -18.6002  -15.9530 C   0  0  2  0  0  0  0  0  0  0  0  0
   26.5952  -19.5680  -16.8673 C   0  0  0  0  0  0  0  0  0  0  0  0
   26.4040  -18.1139  -14.8715 C   0  0  2  0  0  0  0  0  0  0  0  0
   26.9891  -17.1021  -14.0541 N   0  0  0  0  0  0  0  0  0  0  0  0
   25.9615  -19.2875  -14.0781 C   0  0  0  0  0  0  0  0  0  0  0  0
   25.3432  -20.2160  -14.6570 O   0  0  0  0  0  0  0  0  0  0  0  0
   27.0772  -21.0149   -7.6374 C   0  0  0  0  0  0  0  0  0  0  0  0
   25.7777  -19.7954   -8.0034 S   0  0  0  0  0  0  0  0  0  0  0  0
   24.9772  -20.2457   -9.5931 C   0  0  0  0  0  0  0  0  0  0  0  0
   26.0887  -20.5211  -10.5644 C   0  0  0  0  0  0  0  0  0  0  0  0
   25.5438  -20.4963  -11.9724 C   0  0  2  0  0  0  0  0  0  0  0  0
   26.1945  -19.4309  -12.6877 N   0  0  0  0  0  0  0  0  0  0  0  0
   24.0780  -20.3179  -11.8743 C   0  0  0  0  0  0  0  0  0  0  0  0
   23.6776  -19.1165  -11.7911 O   0  0  0  0  0  0  0  0  0  0  0  0
   20.4178  -22.4776  -16.2932 C   0  0  0  0  0  0  0  0  0  0  0  0
   19.2062  -22.5853  -14.9620 S   0  0  0  0  0  0  0  0  0  0  0  0
   19.7989  -21.9481  -13.4016 C   0  0  0  0  0  0  0  0  0  0  0  0
   21.2512  -21.6304  -13.3919 C   0  0  0  0  0  0  0  0  0  0  0  0
   21.7391  -21.0664  -12.0743 C   0  0  2  0  0  0  0  0  0  0  0  0
   23.1436  -21.3541  -11.8681 N   0  0  0  0  0  0  0  0  0  0  0  0
   20.9596  -21.5118  -10.9218 C   0  0  0  0  0  0  0  0  0  0  0  0
   19.7807  -20.8697  -10.5806 O   0  0  0  0  0  0  0  0  0  0  0  0
   21.3321  -22.4790  -10.2150 O   0  0  0  0  0  0  0  0  0  0  0  0
  2  1  1  0
  2  3  1  0
  3  4  1  6
  5  3  1  0
  5  6  1  1
  7  8  2  0
  7  5  1  0
 10 11  1  0
 10  9  1  0
 11 12  1  0
 13 12  1  1
 13 14  1  0
 14  7  1  0
 15 13  1  0
 16 15  2  0
 18 17  1  0
 19 20  1  0
 19 18  1  0
 21 20  1  6
 21 22  1  0
 22 15  1  0
 23 21  1  0
 24 23  1  0
 25 23  2  0
M  END
$$$$
