NCP.pdb
     RDKit          3D

 22 22  0  0  1  0  0  0  0  0999 V2000
   24.0851  -21.4500   -8.0432 N   0  0  0  0  0  0  0  0  0  0  0  0
   23.7636  -21.1426   -9.3870 C   0  0  0  0  0  0  0  0  0  0  0  0
   22.7114  -21.5977   -9.8836 O   0  0  0  0  0  0  0  0  0  0  0  0
   24.6731  -20.2964  -10.1667 C   0  0  0  0  0  0  0  0  0  0  0  0
   25.0514  -20.9592  -11.4704 C   0  0  2  0  0  0  0  0  0  0  0  0
   25.6818  -22.2284  -11.2521 N   0  0  0  0  0  0  0  0  0  0  0  0
   25.9187  -20.0635  -12.2731 C   0  0  0  0  0  0  0  0  0  0  0  0
   26.6438  -19.1983  -11.7420 O   0  0  0  0  0  0  0  0  0  0  0  0
   25.9258  -20.1906  -13.6707 N   0  0  0  0  0  0  0  0  0  0  0  0
   26.8142  -19.4077  -14.5426 C   0  0  1  0  0  0  0  0  0  0  0  0
   27.6445  -20.4604  -15.2897 C   0  0  0  0  0  0  0  0  0  0  0  0
   28.4869  -21.5360  -14.0742 S   0  0  0  0  0  0  0  0  0  0  0  0
   25.9645  -18.6429  -15.4864 C   0  0  0  0  0  0  0  0  0  0  0  0
   24.8994  -19.1652  -15.9685 O   0  0  0  0  0  0  0  0  0  0  0  0
   26.2754  -17.3264  -15.8957 N   0  0  0  0  0  0  0  0  0  0  0  0
   27.3702  -16.5227  -15.3394 C   0  0  0  0  0  0  0  0  0  0  0  0
   26.8134  -15.0957  -15.4836 C   0  0  0  0  0  0  0  0  0  0  0  0
   26.2787  -15.1700  -16.8943 C   0  0  0  0  0  0  0  0  0  0  0  0
   25.6055  -16.5249  -16.9024 C   0  0  1  0  0  0  0  0  0  0  0  0
   25.7441  -17.1617  -18.2319 C   0  0  0  0  0  0  0  0  0  0  0  0
   26.6019  -18.0299  -18.4515 O   0  0  0  0  0  0  0  0  0  0  0  0
   24.8886  -16.7724  -19.2556 O   0  0  0  0  0  0  0  0  0  0  0  0
  2  1  1  0
  3  2  2  0
  4  2  1  0
  4  5  1  0
  5  6  1  1
  7  5  1  0
  7  9  1  0
  8  7  2  0
 10 11  1  6
 10  9  1  0
 10 13  1  0
 12 11  1  0
 13 15  1  0
 14 13  2  0
 15 19  1  0
 15 16  1  0
 16 17  1  0
 18 17  1  0
 19 18  1  0
 19 20  1  6
 20 22  1  0
 21 20  2  0
M  END
$$$$
