NCP.pdb
     RDKit          3D

 22 22  0  0  1  0  0  0  0  0999 V2000
   28.4886  -18.4131  -18.3153 N   0  0  0  0  0  0  0  0  0  0  0  0
   28.1411  -18.3544  -16.9443 C   0  0  0  0  0  0  0  0  0  0  0  0
   28.6483  -17.4699  -16.2222 O   0  0  0  0  0  0  0  0  0  0  0  0
   27.1932  -19.3334  -16.4019 C   0  0  0  0  0  0  0  0  0  0  0  0
   27.8575  -20.2283  -15.3820 C   0  0  2  0  0  0  0  0  0  0  0  0
   28.7549  -21.1583  -16.0029 N   0  0  0  0  0  0  0  0  0  0  0  0
   26.8364  -20.9329  -14.5697 C   0  0  0  0  0  0  0  0  0  0  0  0
   26.1950  -21.9054  -15.0160 O   0  0  0  0  0  0  0  0  0  0  0  0
   26.5823  -20.4949  -13.2608 N   0  0  0  0  0  0  0  0  0  0  0  0
   25.5404  -21.0838  -12.4063 C   0  0  1  0  0  0  0  0  0  0  0  0
   25.8846  -20.5989  -10.9913 C   0  0  0  0  0  0  0  0  0  0  0  0
   24.4801  -20.9536   -9.8754 S   0  0  0  0  0  0  0  0  0  0  0  0
   24.2332  -20.5388  -12.8443 C   0  0  0  0  0  0  0  0  0  0  0  0
   24.0487  -19.2735  -12.9127 O   0  0  0  0  0  0  0  0  0  0  0  0
   23.1447  -21.3661  -13.2026 N   0  0  0  0  0  0  0  0  0  0  0  0
   23.2208  -22.8262  -13.3300 C   0  0  0  0  0  0  0  0  0  0  0  0
   22.1645  -23.0996  -14.4148 C   0  0  0  0  0  0  0  0  0  0  0  0
   21.0436  -22.2229  -13.9085 C   0  0  0  0  0  0  0  0  0  0  0  0
   21.7852  -20.9652  -13.5119 C   0  0  1  0  0  0  0  0  0  0  0  0
   21.1555  -20.3487  -12.3221 C   0  0  0  0  0  0  0  0  0  0  0  0
   20.2214  -19.5396  -12.4257 O   0  0  0  0  0  0  0  0  0  0  0  0
   21.6275  -20.6890  -11.0601 O   0  0  0  0  0  0  0  0  0  0  0  0
  2  1  1  0
  3  2  2  0
  4  2  1  0
  4  5  1  0
  5  6  1  6
  7  5  1  0
  7  9  1  0
  8  7  2  0
 10 11  1  1
 10  9  1  0
 10 13  1  0
 12 11  1  0
 13 15  1  0
 14 13  2  0
 15 19  1  0
 15 16  1  0
 16 17  1  0
 18 17  1  0
 19 18  1  0
 19 20  1  1
 20 22  1  0
 21 20  2  0
M  END
$$$$
