NCP.pdb
     RDKit          3D

 22 22  0  0  1  0  0  0  0  0999 V2000
   19.1739  -18.3118  -14.3403 N   0  0  0  0  0  0  0  0  0  0  0  0
   19.4212  -18.3595  -15.7333 C   0  0  0  0  0  0  0  0  0  0  0  0
   18.7355  -17.6512  -16.5008 O   0  0  0  0  0  0  0  0  0  0  0  0
   20.4772  -19.2396  -16.2446 C   0  0  0  0  0  0  0  0  0  0  0  0
   21.5879  -18.4422  -16.8870 C   0  0  2  0  0  0  0  0  0  0  0  0
   21.4770  -18.4422  -18.3166 N   0  0  0  0  0  0  0  0  0  0  0  0
   22.9099  -18.9557  -16.4542 C   0  0  0  0  0  0  0  0  0  0  0  0
   23.3082  -20.0962  -16.7653 O   0  0  0  0  0  0  0  0  0  0  0  0
   23.7389  -18.1370  -15.6717 N   0  0  0  0  0  0  0  0  0  0  0  0
   25.0324  -18.5852  -15.1348 C   0  0  1  0  0  0  0  0  0  0  0  0
   25.7638  -17.2884  -14.7621 C   0  0  0  0  0  0  0  0  0  0  0  0
   27.2847  -17.7007  -13.8344 S   0  0  0  0  0  0  0  0  0  0  0  0
   24.7634  -19.4018  -13.9270 C   0  0  0  0  0  0  0  0  0  0  0  0
   23.8417  -19.0605  -13.1062 O   0  0  0  0  0  0  0  0  0  0  0  0
   25.4917  -20.5741  -13.6227 N   0  0  0  0  0  0  0  0  0  0  0  0
   26.5789  -21.1119  -14.4490 C   0  0  0  0  0  0  0  0  0  0  0  0
   26.4583  -22.6217  -14.1783 C   0  0  0  0  0  0  0  0  0  0  0  0
   26.2944  -22.6010  -12.6769 C   0  0  0  0  0  0  0  0  0  0  0  0
   25.3229  -21.4573  -12.4842 C   0  0  1  0  0  0  0  0  0  0  0  0
   25.6242  -20.7304  -11.2299 C   0  0  0  0  0  0  0  0  0  0  0  0
   26.2462  -19.6575  -11.2328 O   0  0  0  0  0  0  0  0  0  0  0  0
   25.1969  -21.2691  -10.0222 O   0  0  0  0  0  0  0  0  0  0  0  0
  2  1  1  0
  3  2  2  0
  4  2  1  0
  4  5  1  0
  5  6  1  6
  7  5  1  0
  7  9  1  0
  8  7  2  0
 10 11  1  1
 10  9  1  0
 10 13  1  0
 12 11  1  0
 13 15  1  0
 14 13  2  0
 15 19  1  0
 15 16  1  0
 16 17  1  0
 18 17  1  0
 19 18  1  0
 19 20  1  1
 20 22  1  0
 21 20  2  0
M  END
$$$$
