NCP.pdb
     RDKit          3D

 22 22  0  0  1  0  0  0  0  0999 V2000
   13.5642  -22.9775    0.7853 N   0  0  0  0  0  0  0  0  0  0  0  0
   14.6751  -23.6738    1.3191 C   0  0  0  0  0  0  0  0  0  0  0  0
   14.5116  -24.8223    1.7830 O   0  0  0  0  0  0  0  0  0  0  0  0
   15.9936  -23.0314    1.3156 C   0  0  0  0  0  0  0  0  0  0  0  0
   15.9044  -21.6064    0.8218 C   0  0  2  0  0  0  0  0  0  0  0  0
   16.0257  -21.5353   -0.6051 N   0  0  0  0  0  0  0  0  0  0  0  0
   16.9273  -20.7640    1.4872 C   0  0  0  0  0  0  0  0  0  0  0  0
   18.1138  -20.7404    1.1025 O   0  0  0  0  0  0  0  0  0  0  0  0
   16.5525  -19.9694    2.5816 N   0  0  0  0  0  0  0  0  0  0  0  0
   17.4811  -19.0571    3.2656 C   0  0  1  0  0  0  0  0  0  0  0  0
   16.7321  -17.7187    3.3231 C   0  0  0  0  0  0  0  0  0  0  0  0
   17.8699  -16.4177    3.9206 S   0  0  0  0  0  0  0  0  0  0  0  0
   17.7143  -19.5870    4.6304 C   0  0  0  0  0  0  0  0  0  0  0  0
   16.7842  -20.2112    5.2509 O   0  0  0  0  0  0  0  0  0  0  0  0
   18.9468  -19.4366    5.3054 N   0  0  0  0  0  0  0  0  0  0  0  0
   20.1605  -18.8769    4.6990 C   0  0  0  0  0  0  0  0  0  0  0  0
   21.2650  -19.6271    5.4635 C   0  0  0  0  0  0  0  0  0  0  0  0
   20.7329  -19.5023    6.8716 C   0  0  0  0  0  0  0  0  0  0  0  0
   19.2608  -19.7924    6.6763 C   0  0  1  0  0  0  0  0  0  0  0  0
   18.4470  -18.9809    7.6097 C   0  0  0  0  0  0  0  0  0  0  0  0
   17.8677  -17.9487    7.2396 O   0  0  0  0  0  0  0  0  0  0  0  0
   18.3332  -19.3911    8.9326 O   0  0  0  0  0  0  0  0  0  0  0  0
  2  1  1  0
  3  2  2  0
  4  2  1  0
  4  5  1  0
  5  6  1  6
  7  5  1  0
  7  9  1  0
  8  7  2  0
 10 11  1  1
 10  9  1  0
 10 13  1  0
 12 11  1  0
 13 15  1  0
 14 13  2  0
 15 19  1  0
 15 16  1  0
 16 17  1  0
 18 17  1  0
 19 18  1  0
 19 20  1  1
 20 22  1  0
 21 20  2  0
M  END
$$$$
