NCP.pdb
     RDKit          3D

 22 22  0  0  1  0  0  0  0  0999 V2000
   19.8488  -19.7709  -17.9234 N   0  0  0  0  0  0  0  0  0  0  0  0
   19.6329  -18.9440  -16.7949 C   0  0  0  0  0  0  0  0  0  0  0  0
   18.4707  -18.5785  -16.5179 O   0  0  0  0  0  0  0  0  0  0  0  0
   20.7786  -18.5348  -15.9758 C   0  0  0  0  0  0  0  0  0  0  0  0
   21.0563  -19.5422  -14.8847 C   0  0  2  0  0  0  0  0  0  0  0  0
   19.9794  -19.6052  -13.9401 N   0  0  0  0  0  0  0  0  0  0  0  0
   22.3403  -19.2331  -14.2105 C   0  0  0  0  0  0  0  0  0  0  0  0
   22.8343  -18.0877  -14.2263 O   0  0  0  0  0  0  0  0  0  0  0  0
   23.0217  -20.2571  -13.5346 N   0  0  0  0  0  0  0  0  0  0  0  0
   24.3472  -20.0720  -12.9254 C   0  0  1  0  0  0  0  0  0  0  0  0
   24.3212  -20.9580  -11.6724 C   0  0  0  0  0  0  0  0  0  0  0  0
   26.0081  -21.0624  -10.9742 S   0  0  0  0  0  0  0  0  0  0  0  0
   25.3618  -20.5580  -13.8909 C   0  0  0  0  0  0  0  0  0  0  0  0
   25.2514  -21.7204  -14.4167 O   0  0  0  0  0  0  0  0  0  0  0  0
   26.4796  -19.7834  -14.2754 N   0  0  0  0  0  0  0  0  0  0  0  0
   26.7679  -18.4365  -13.7688 C   0  0  0  0  0  0  0  0  0  0  0  0
   27.4943  -17.8018  -14.9675 C   0  0  0  0  0  0  0  0  0  0  0  0
   28.4330  -18.9297  -15.3254 C   0  0  0  0  0  0  0  0  0  0  0  0
   27.5280  -20.1370  -15.2138 C   0  0  1  0  0  0  0  0  0  0  0  0
   28.2860  -21.3050  -14.7103 C   0  0  0  0  0  0  0  0  0  0  0  0
   28.2363  -21.6492  -13.5200 O   0  0  0  0  0  0  0  0  0  0  0  0
   29.0712  -22.0298  -15.5988 O   0  0  0  0  0  0  0  0  0  0  0  0
  2  1  1  0
  3  2  2  0
  4  2  1  0
  4  5  1  0
  5  6  1  1
  7  5  1  0
  7  9  1  0
  8  7  2  0
 10 11  1  1
 10  9  1  0
 10 13  1  0
 12 11  1  0
 13 15  1  0
 14 13  2  0
 15 19  1  0
 15 16  1  0
 16 17  1  0
 18 17  1  0
 19 18  1  0
 19 20  1  1
 20 22  1  0
 21 20  2  0
M  END
$$$$
