NCP.pdb
     RDKit          3D

 22 22  0  0  1  0  0  0  0  0999 V2000
   18.9817  -17.2180  -16.4195 N   0  0  0  0  0  0  0  0  0  0  0  0
   19.9861  -16.7255  -15.5521 C   0  0  0  0  0  0  0  0  0  0  0  0
   20.0697  -17.1814  -14.3918 O   0  0  0  0  0  0  0  0  0  0  0  0
   20.9066  -15.6908  -16.0349 C   0  0  0  0  0  0  0  0  0  0  0  0
   20.5681  -15.2761  -17.4476 C   0  0  2  0  0  0  0  0  0  0  0  0
   21.0579  -16.2236  -18.4059 N   0  0  0  0  0  0  0  0  0  0  0  0
   21.0903  -13.9165  -17.7264 C   0  0  0  0  0  0  0  0  0  0  0  0
   21.8560  -13.6880  -18.6844 O   0  0  0  0  0  0  0  0  0  0  0  0
   20.7138  -12.8545  -16.8897 N   0  0  0  0  0  0  0  0  0  0  0  0
   21.0477  -11.4512  -17.1757 C   0  0  1  0  0  0  0  0  0  0  0  0
   20.3372  -11.1499  -18.5023 C   0  0  0  0  0  0  0  0  0  0  0  0
   18.5408  -11.4246  -18.2988 S   0  0  0  0  0  0  0  0  0  0  0  0
   20.4906  -10.6206  -16.0814 C   0  0  0  0  0  0  0  0  0  0  0  0
   19.3967  -10.9557  -15.5062 O   0  0  0  0  0  0  0  0  0  0  0  0
   21.1213   -9.4417  -15.6234 N   0  0  0  0  0  0  0  0  0  0  0  0
   22.3552   -8.8875  -16.1930 C   0  0  0  0  0  0  0  0  0  0  0  0
   22.9846   -8.2038  -14.9667 C   0  0  0  0  0  0  0  0  0  0  0  0
   21.7676   -7.5030  -14.4107 C   0  0  0  0  0  0  0  0  0  0  0  0
   20.7050   -8.5724  -14.5392 C   0  0  1  0  0  0  0  0  0  0  0  0
   19.3938   -7.9612  -14.8545 C   0  0  0  0  0  0  0  0  0  0  0  0
   18.9589   -7.9161  -16.0150 O   0  0  0  0  0  0  0  0  0  0  0  0
   18.6358   -7.4263  -13.8198 O   0  0  0  0  0  0  0  0  0  0  0  0
  2  1  1  0
  3  2  2  0
  4  2  1  0
  4  5  1  0
  5  6  1  6
  7  5  1  0
  7  9  1  0
  8  7  2  0
 10 11  1  6
 10  9  1  0
 10 13  1  0
 12 11  1  0
 13 15  1  0
 14 13  2  0
 15 19  1  0
 15 16  1  0
 16 17  1  0
 18 17  1  0
 19 18  1  0
 19 20  1  6
 20 22  1  0
 21 20  2  0
M  END
$$$$
