NCP.pdb
     RDKit          3D

 22 22  0  0  1  0  0  0  0  0999 V2000
   14.5178  -24.6484   -5.6225 N   0  0  0  0  0  0  0  0  0  0  0  0
   13.6978  -23.5577   -5.2457 C   0  0  0  0  0  0  0  0  0  0  0  0
   13.3333  -22.7377   -6.1151 O   0  0  0  0  0  0  0  0  0  0  0  0
   13.2943  -23.4145   -3.8430 C   0  0  0  0  0  0  0  0  0  0  0  0
   14.2848  -22.5718   -3.0741 C   0  0  2  0  0  0  0  0  0  0  0  0
   15.4000  -23.3515   -2.6219 N   0  0  0  0  0  0  0  0  0  0  0  0
   13.6140  -21.8919   -1.9398 C   0  0  0  0  0  0  0  0  0  0  0  0
   12.5756  -21.2183   -2.0958 O   0  0  0  0  0  0  0  0  0  0  0  0
   14.1613  -22.0077   -0.6527 N   0  0  0  0  0  0  0  0  0  0  0  0
   13.5245  -21.4371    0.5437 C   0  0  1  0  0  0  0  0  0  0  0  0
   13.0286  -22.6562    1.3335 C   0  0  0  0  0  0  0  0  0  0  0  0
   14.4201  -23.8151    1.5876 S   0  0  0  0  0  0  0  0  0  0  0  0
   14.5648  -20.7058    1.3058 C   0  0  0  0  0  0  0  0  0  0  0  0
   15.7997  -21.0221    1.1842 O   0  0  0  0  0  0  0  0  0  0  0  0
   14.2582  -19.6442    2.1870 N   0  0  0  0  0  0  0  0  0  0  0  0
   12.9125  -19.0920    2.3823 C   0  0  0  0  0  0  0  0  0  0  0  0
   13.2246  -17.6253    2.7262 C   0  0  0  0  0  0  0  0  0  0  0  0
   14.3480  -17.8270    3.7156 C   0  0  0  0  0  0  0  0  0  0  0  0
   15.1680  -18.9053    3.0419 C   0  0  1  0  0  0  0  0  0  0  0  0
   15.7607  -19.8099    4.0532 C   0  0  0  0  0  0  0  0  0  0  0  0
   15.2143  -20.8765    4.3722 O   0  0  0  0  0  0  0  0  0  0  0  0
   16.9595  -19.4493    4.6566 O   0  0  0  0  0  0  0  0  0  0  0  0
  2  1  1  0
  3  2  2  0
  4  2  1  0
  4  5  1  0
  5  6  1  1
  7  5  1  0
  7  9  1  0
  8  7  2  0
 10 11  1  1
 10  9  1  0
 10 13  1  0
 12 11  1  0
 13 15  1  0
 14 13  2  0
 15 19  1  0
 15 16  1  0
 16 17  1  0
 18 17  1  0
 19 18  1  0
 19 20  1  1
 20 22  1  0
 21 20  2  0
M  END
$$$$
