NCP.pdb
     RDKit          3D

 22 22  0  0  1  0  0  0  0  0999 V2000
   26.5120  -31.4054  -17.7700 N   0  0  0  0  0  0  0  0  0  0  0  0
   27.3275  -31.4389  -16.6134 C   0  0  0  0  0  0  0  0  0  0  0  0
   27.4733  -32.5169  -15.9989 O   0  0  0  0  0  0  0  0  0  0  0  0
   27.9832  -30.2071  -16.1621 C   0  0  0  0  0  0  0  0  0  0  0  0
   27.7479  -29.0760  -17.1356 C   0  0  2  0  0  0  0  0  0  0  0  0
   28.3205  -29.3589  -18.4194 N   0  0  0  0  0  0  0  0  0  0  0  0
   28.2730  -27.8030  -16.5856 C   0  0  0  0  0  0  0  0  0  0  0  0
   27.8693  -27.3371  -15.5011 O   0  0  0  0  0  0  0  0  0  0  0  0
   29.2525  -27.1001  -17.3040 N   0  0  0  0  0  0  0  0  0  0  0  0
   29.8538  -25.8468  -16.8244 C   0  0  1  0  0  0  0  0  0  0  0  0
   31.3582  -26.1434  -16.7573 C   0  0  0  0  0  0  0  0  0  0  0  0
   32.2478  -24.6295  -16.2469 S   0  0  0  0  0  0  0  0  0  0  0  0
   29.5706  -24.7944  -17.8294 C   0  0  0  0  0  0  0  0  0  0  0  0
   29.6776  -25.0472  -19.0801 O   0  0  0  0  0  0  0  0  0  0  0  0
   29.1758  -23.4855  -17.4709 N   0  0  0  0  0  0  0  0  0  0  0  0
   28.9144  -23.0467  -16.0950 C   0  0  0  0  0  0  0  0  0  0  0  0
   27.8455  -21.9615  -16.3121 C   0  0  0  0  0  0  0  0  0  0  0  0
   28.4666  -21.2175  -17.4706 C   0  0  0  0  0  0  0  0  0  0  0  0
   28.9501  -22.3517  -18.3474 C   0  0  1  0  0  0  0  0  0  0  0  0
   30.2114  -21.9771  -19.0265 C   0  0  0  0  0  0  0  0  0  0  0  0
   30.2129  -21.3936  -20.1208 O   0  0  0  0  0  0  0  0  0  0  0  0
   31.4207  -22.2897  -18.4174 O   0  0  0  0  0  0  0  0  0  0  0  0
  2  1  1  0
  3  2  2  0
  4  2  1  0
  4  5  1  0
  5  6  1  6
  7  5  1  0
  7  9  1  0
  8  7  2  0
 10 11  1  6
 10  9  1  0
 10 13  1  0
 12 11  1  0
 13 15  1  0
 14 13  2  0
 15 19  1  0
 15 16  1  0
 16 17  1  0
 18 17  1  0
 19 18  1  0
 19 20  1  1
 20 22  1  0
 21 20  2  0
M  END
$$$$
