NCP.pdb
     RDKit          3D

 22 22  0  0  1  0  0  0  0  0999 V2000
   24.8248  -14.7996  -16.8897 N   0  0  0  0  0  0  0  0  0  0  0  0
   25.0579  -13.5435  -17.4995 C   0  0  0  0  0  0  0  0  0  0  0  0
   26.2091  -13.2589  -17.8929 O   0  0  0  0  0  0  0  0  0  0  0  0
   23.9425  -12.6041  -17.6559 C   0  0  0  0  0  0  0  0  0  0  0  0
   24.1984  -11.3228  -16.8975 C   0  0  2  0  0  0  0  0  0  0  0  0
   24.4894  -11.5777  -15.5168 N   0  0  0  0  0  0  0  0  0  0  0  0
   23.0465  -10.3998  -17.0386 C   0  0  0  0  0  0  0  0  0  0  0  0
   22.0944  -10.6462  -17.8063 O   0  0  0  0  0  0  0  0  0  0  0  0
   23.0242   -9.2141  -16.2882 N   0  0  0  0  0  0  0  0  0  0  0  0
   21.8567   -8.3217  -16.2332 C   0  0  1  0  0  0  0  0  0  0  0  0
   20.7994   -9.1198  -15.4581 C   0  0  0  0  0  0  0  0  0  0  0  0
   19.3909   -8.0238  -15.0596 S   0  0  0  0  0  0  0  0  0  0  0  0
   22.2507   -7.1055  -15.4827 C   0  0  0  0  0  0  0  0  0  0  0  0
   22.8355   -7.2053  -14.3478 O   0  0  0  0  0  0  0  0  0  0  0  0
   22.0089   -5.8000  -15.9671 N   0  0  0  0  0  0  0  0  0  0  0  0
   21.3708   -5.4989  -17.2540 C   0  0  0  0  0  0  0  0  0  0  0  0
   22.0356   -4.1622  -17.6262 C   0  0  0  0  0  0  0  0  0  0  0  0
   21.9367   -3.4480  -16.2989 C   0  0  0  0  0  0  0  0  0  0  0  0
   22.3307   -4.5385  -15.3270 C   0  0  1  0  0  0  0  0  0  0  0  0
   21.5704   -4.4028  -14.0637 C   0  0  0  0  0  0  0  0  0  0  0  0
   20.5790   -5.1075  -13.8218 O   0  0  0  0  0  0  0  0  0  0  0  0
   21.9827   -3.4602  -13.1296 O   0  0  0  0  0  0  0  0  0  0  0  0
  2  1  1  0
  3  2  2  0
  4  2  1  0
  4  5  1  0
  5  6  1  1
  7  5  1  0
  7  9  1  0
  8  7  2  0
 10 11  1  1
 10  9  1  0
 10 13  1  0
 12 11  1  0
 13 15  1  0
 14 13  2  0
 15 19  1  0
 15 16  1  0
 16 17  1  0
 18 17  1  0
 19 18  1  0
 19 20  1  1
 20 22  1  0
 21 20  2  0
M  END
$$$$
