NCP.pdb
     RDKit          3D

 22 22  0  0  1  0  0  0  0  0999 V2000
   29.4320  -18.3255  -16.6570 N   0  0  0  0  0  0  0  0  0  0  0  0
   28.0620  -18.3520  -17.0127 C   0  0  0  0  0  0  0  0  0  0  0  0
   27.6198  -17.4952  -17.8072 O   0  0  0  0  0  0  0  0  0  0  0  0
   27.1922  -19.3849  -16.4404 C   0  0  0  0  0  0  0  0  0  0  0  0
   27.9764  -20.3349  -15.5659 C   0  0  2  0  0  0  0  0  0  0  0  0
   28.7763  -21.2318  -16.3482 N   0  0  0  0  0  0  0  0  0  0  0  0
   27.0645  -21.0805  -14.6652 C   0  0  0  0  0  0  0  0  0  0  0  0
   26.4438  -22.0932  -15.0465 O   0  0  0  0  0  0  0  0  0  0  0  0
   26.8929  -20.6360  -13.3451 N   0  0  0  0  0  0  0  0  0  0  0  0
   25.9234  -21.2362  -12.4165 C   0  0  1  0  0  0  0  0  0  0  0  0
   26.3629  -20.7436  -11.0309 C   0  0  0  0  0  0  0  0  0  0  0  0
   25.0492  -21.1170   -9.8149 S   0  0  0  0  0  0  0  0  0  0  0  0
   24.5810  -20.7090  -12.7595 C   0  0  0  0  0  0  0  0  0  0  0  0
   24.3712  -19.4464  -12.7989 O   0  0  0  0  0  0  0  0  0  0  0  0
   23.4850  -21.5509  -13.0554 N   0  0  0  0  0  0  0  0  0  0  0  0
   23.5563  -23.0159  -13.1080 C   0  0  0  0  0  0  0  0  0  0  0  0
   22.4808  -23.3425  -14.1586 C   0  0  0  0  0  0  0  0  0  0  0  0
   21.3704  -22.4377  -13.6792 C   0  0  0  0  0  0  0  0  0  0  0  0
   22.1210  -21.1631  -13.3615 C   0  0  1  0  0  0  0  0  0  0  0  0
   21.5132  -20.4839  -12.1945 C   0  0  0  0  0  0  0  0  0  0  0  0
   21.9417  -20.6585  -11.0439 O   0  0  0  0  0  0  0  0  0  0  0  0
   20.4358  -19.6306  -12.4001 O   0  0  0  0  0  0  0  0  0  0  0  0
  2  1  1  0
  3  2  2  0
  4  2  1  0
  4  5  1  0
  5  6  1  6
  7  5  1  0
  7  9  1  0
  8  7  2  0
 10 11  1  1
 10  9  1  0
 10 13  1  0
 12 11  1  0
 13 15  1  0
 14 13  2  0
 15 19  1  0
 15 16  1  0
 16 17  1  0
 18 17  1  0
 19 18  1  0
 19 20  1  1
 20 22  1  0
 21 20  2  0
M  END
$$$$
