GHN.pdb
     RDKit          3D

 23 23  0  0  1  0  0  0  0  0999 V2000
   13.0390  -14.5470    4.7710 N   0  0  0  0  0  0  0  0  0  0  0  0
   13.6493  -13.9520    5.9179 C   0  0  0  0  0  0  0  0  0  0  0  0
   14.9870  -14.5058    6.2181 C   0  0  0  0  0  0  0  0  0  0  0  0
   15.4623  -15.4117    5.4865 O   0  0  0  0  0  0  0  0  0  0  0  0
   15.8034  -14.0904    7.2919 N   0  0  0  0  0  0  0  0  0  0  0  0
   17.1053  -14.6175    7.5780 C   0  0  1  0  0  0  0  0  0  0  0  0
   18.2248  -13.6733    7.5289 C   0  0  0  0  0  0  0  0  0  0  0  0
   18.5304  -13.0063    6.2637 C   0  0  0  0  0  0  0  0  0  0  0  0
   17.9903  -13.0214    5.0190 C   0  0  0  0  0  0  0  0  0  0  0  0
   18.6736  -12.1754    4.2123 N   0  0  0  0  0  0  0  0  0  0  0  0
   19.6404  -11.6383    4.9729 C   0  0  0  0  0  0  0  0  0  0  0  0
   19.5780  -12.1192    6.2097 N   0  0  0  0  0  0  0  0  0  0  0  0
   17.0993  -15.4756    8.7988 C   0  0  0  0  0  0  0  0  0  0  0  0
   16.0276  -15.7272    9.3993 O   0  0  0  0  0  0  0  0  0  0  0  0
   18.4535  -18.6203   12.6922 N   0  0  0  0  0  0  0  0  0  0  0  0
   17.6837  -19.0172   11.5771 C   0  0  0  0  0  0  0  0  0  0  0  0
   17.0764  -20.1051   11.6114 O   0  0  0  0  0  0  0  0  0  0  0  0
   17.5906  -18.1633   10.3787 C   0  0  0  0  0  0  0  0  0  0  0  0
   18.3414  -16.8835   10.4817 C   0  0  2  0  0  0  0  0  0  0  0  0
   18.2830  -16.0360    9.3258 N   0  0  0  0  0  0  0  0  0  0  0  0
   19.7660  -17.2058   10.7581 C   0  0  0  0  0  0  0  0  0  0  0  0
   20.6840  -16.8556    9.9725 O   0  0  0  0  0  0  0  0  0  0  0  0
   20.1415  -17.9072   11.8958 O   0  0  0  0  0  0  0  0  0  0  0  0
  2  1  1  0
  3  2  1  0
  4  3  2  0
  5  3  1  0
  6 13  1  0
  6  5  1  0
  6  7  1  1
  8 12  1  0
  8  7  1  0
  9  8  2  0
 10  9  1  0
 10 11  1  0
 11 12  2  0
 13 20  1  0
 14 13  2  0
 16 15  1  0
 17 16  2  0
 18 16  1  0
 19 21  1  0
 19 18  1  6
 20 19  1  0
 21 23  1  0
 22 21  2  0
M  END
$$$$
