GHN.pdb
     RDKit          3D

 23 23  0  0  1  0  0  0  0  0999 V2000
   11.8740  -12.4569  -12.3409 N   0  0  0  0  0  0  0  0  0  0  0  0
   12.7901  -12.6415  -13.4218 C   0  0  0  0  0  0  0  0  0  0  0  0
   14.1478  -12.1360  -13.1265 C   0  0  0  0  0  0  0  0  0  0  0  0
   14.8596  -12.7291  -12.2760 O   0  0  0  0  0  0  0  0  0  0  0  0
   14.7328  -11.0065  -13.7382 N   0  0  0  0  0  0  0  0  0  0  0  0
   16.0374  -10.4975  -13.4327 C   0  0  1  0  0  0  0  0  0  0  0  0
   17.0581  -10.6298  -14.4757 C   0  0  0  0  0  0  0  0  0  0  0  0
   17.4722  -11.9693  -14.8920 C   0  0  0  0  0  0  0  0  0  0  0  0
   18.5681  -12.7411  -14.6809 C   0  0  0  0  0  0  0  0  0  0  0  0
   18.4137  -13.9357  -15.2992 N   0  0  0  0  0  0  0  0  0  0  0  0
   17.2108  -13.8925  -15.8933 C   0  0  0  0  0  0  0  0  0  0  0  0
   16.6231  -12.7231  -15.6653 N   0  0  0  0  0  0  0  0  0  0  0  0
   15.9727   -9.1348  -12.8281 C   0  0  0  0  0  0  0  0  0  0  0  0
   15.1968   -8.2652  -13.2911 O   0  0  0  0  0  0  0  0  0  0  0  0
   16.6184   -5.1031   -9.5836 N   0  0  0  0  0  0  0  0  0  0  0  0
   17.0384   -6.2650   -8.9000 C   0  0  0  0  0  0  0  0  0  0  0  0
   17.3938   -6.1766   -7.7086 O   0  0  0  0  0  0  0  0  0  0  0  0
   17.0611   -7.5748   -9.5764 C   0  0  0  0  0  0  0  0  0  0  0  0
   16.6531   -7.5304  -11.0060 C   0  0  2  0  0  0  0  0  0  0  0  0
   16.7702   -8.7676  -11.7227 N   0  0  0  0  0  0  0  0  0  0  0  0
   17.4864   -6.5081  -11.6916 C   0  0  0  0  0  0  0  0  0  0  0  0
   18.5807   -6.8080  -12.2347 O   0  0  0  0  0  0  0  0  0  0  0  0
   17.0903   -5.1794  -11.7603 O   0  0  0  0  0  0  0  0  0  0  0  0
  2  1  1  0
  3  2  1  0
  4  3  2  0
  5  3  1  0
  6 13  1  0
  6  5  1  0
  6  7  1  6
  8 12  1  0
  8  7  1  0
  9  8  2  0
 10  9  1  0
 10 11  1  0
 11 12  2  0
 13 20  1  0
 14 13  2  0
 16 15  1  0
 17 16  2  0
 18 16  1  0
 19 21  1  0
 19 18  1  1
 20 19  1  0
 21 23  1  0
 22 21  2  0
M  END
$$$$
