GHN.pdb
     RDKit          3D

 23 23  0  0  1  0  0  0  0  0999 V2000
   27.5062  -21.5065  -16.2305 N   0  0  0  0  0  0  0  0  0  0  0  0
   26.3074  -21.2936  -16.9784 C   0  0  0  0  0  0  0  0  0  0  0  0
   25.4457  -20.2364  -16.4076 C   0  0  0  0  0  0  0  0  0  0  0  0
   25.5448  -19.9461  -15.1879 O   0  0  0  0  0  0  0  0  0  0  0  0
   24.4891  -19.5005  -17.1394 N   0  0  0  0  0  0  0  0  0  0  0  0
   23.7031  -18.4272  -16.6058 C   0  0  1  0  0  0  0  0  0  0  0  0
   24.0202  -17.0778  -17.0807 C   0  0  0  0  0  0  0  0  0  0  0  0
   25.3939  -16.5911  -16.9576 C   0  0  0  0  0  0  0  0  0  0  0  0
   26.5283  -16.7319  -17.6887 C   0  0  0  0  0  0  0  0  0  0  0  0
   27.5343  -16.0312  -17.1141 N   0  0  0  0  0  0  0  0  0  0  0  0
   27.0080  -15.4563  -16.0212 C   0  0  0  0  0  0  0  0  0  0  0  0
   25.7239  -15.7753  -15.9026 N   0  0  0  0  0  0  0  0  0  0  0  0
   22.2449  -18.7431  -16.6308 C   0  0  0  0  0  0  0  0  0  0  0  0
   21.7976  -19.6433  -17.3804 O   0  0  0  0  0  0  0  0  0  0  0  0
   17.5606  -20.6220  -15.3317 N   0  0  0  0  0  0  0  0  0  0  0  0
   18.1835  -19.6907  -14.4725 C   0  0  0  0  0  0  0  0  0  0  0  0
   17.5070  -19.1281  -13.5896 O   0  0  0  0  0  0  0  0  0  0  0  0
   19.6180  -19.3779  -14.6073 C   0  0  0  0  0  0  0  0  0  0  0  0
   19.9313  -18.4045  -15.6875 C   0  0  2  0  0  0  0  0  0  0  0  0
   21.3155  -18.0530  -15.8227 N   0  0  0  0  0  0  0  0  0  0  0  0
   19.1532  -17.1643  -15.4302 C   0  0  0  0  0  0  0  0  0  0  0  0
   17.9431  -17.0668  -15.7600 O   0  0  0  0  0  0  0  0  0  0  0  0
   19.7311  -16.0622  -14.8149 O   0  0  0  0  0  0  0  0  0  0  0  0
  2  1  1  0
  3  2  1  0
  4  3  2  0
  5  3  1  0
  6 13  1  0
  6  5  1  0
  6  7  1  6
  8 12  1  0
  8  7  1  0
  9  8  2  0
 10  9  1  0
 10 11  1  0
 11 12  2  0
 13 20  1  0
 14 13  2  0
 16 15  1  0
 17 16  2  0
 18 16  1  0
 19 21  1  0
 19 18  1  1
 20 19  1  0
 21 23  1  0
 22 21  2  0
M  END
$$$$
