GHN.pdb
     RDKit          3D

 23 23  0  0  1  0  0  0  0  0999 V2000
   22.0314  -12.9888  -17.1992 N   0  0  0  0  0  0  0  0  0  0  0  0
   21.1914  -11.8411  -17.0612 C   0  0  0  0  0  0  0  0  0  0  0  0
   21.8416  -10.7282  -16.3369 C   0  0  0  0  0  0  0  0  0  0  0  0
   21.7694  -10.6779  -15.0823 O   0  0  0  0  0  0  0  0  0  0  0  0
   22.5605   -9.6821  -16.9542 N   0  0  0  0  0  0  0  0  0  0  0  0
   23.1098   -8.5520  -16.2645 C   0  0  1  0  0  0  0  0  0  0  0  0
   24.5664   -8.3977  -16.3064 C   0  0  0  0  0  0  0  0  0  0  0  0
   25.4076   -9.5377  -15.9435 C   0  0  0  0  0  0  0  0  0  0  0  0
   25.1713  -10.8052  -15.5206 C   0  0  0  0  0  0  0  0  0  0  0  0
   26.3452  -11.4577  -15.3488 N   0  0  0  0  0  0  0  0  0  0  0  0
   27.3077  -10.5793  -15.6707 C   0  0  0  0  0  0  0  0  0  0  0  0
   26.7733   -9.4179  -16.0317 N   0  0  0  0  0  0  0  0  0  0  0  0
   22.3658   -7.2970  -16.5773 C   0  0  0  0  0  0  0  0  0  0  0  0
   22.0930   -6.9930  -17.7629 O   0  0  0  0  0  0  0  0  0  0  0  0
   18.6381   -6.0227  -16.5854 N   0  0  0  0  0  0  0  0  0  0  0  0
   18.7763   -5.3937  -15.3288 C   0  0  0  0  0  0  0  0  0  0  0  0
   17.7687   -5.2342  -14.6126 O   0  0  0  0  0  0  0  0  0  0  0  0
   20.0924   -4.9261  -14.8568 C   0  0  0  0  0  0  0  0  0  0  0  0
   21.2099   -5.1950  -15.8009 C   0  0  2  0  0  0  0  0  0  0  0  0
   21.9405   -6.4072  -15.5672 N   0  0  0  0  0  0  0  0  0  0  0  0
   22.1581   -4.0524  -15.7302 C   0  0  0  0  0  0  0  0  0  0  0  0
   23.3487   -4.2080  -15.3551 O   0  0  0  0  0  0  0  0  0  0  0  0
   21.7676   -2.7658  -16.0757 O   0  0  0  0  0  0  0  0  0  0  0  0
  2  1  1  0
  3  2  1  0
  4  3  2  0
  5  3  1  0
  6 13  1  0
  6  5  1  0
  6  7  1  6
  8 12  1  0
  8  7  1  0
  9  8  2  0
 10  9  1  0
 10 11  1  0
 11 12  2  0
 13 20  1  0
 14 13  2  0
 16 15  1  0
 17 16  2  0
 18 16  1  0
 19 21  1  0
 19 18  1  1
 20 19  1  0
 21 23  1  0
 22 21  2  0
M  END
$$$$
