GHN.pdb
     RDKit          3D

 23 23  0  0  1  0  0  0  0  0999 V2000
   26.7589  -16.0102  -18.1422 N   0  0  0  0  0  0  0  0  0  0  0  0
   25.3768  -16.2343  -18.4272 C   0  0  0  0  0  0  0  0  0  0  0  0
   24.8392  -17.4505  -17.7807 C   0  0  0  0  0  0  0  0  0  0  0  0
   23.9647  -18.1333  -18.3729 O   0  0  0  0  0  0  0  0  0  0  0  0
   25.2373  -17.9264  -16.5130 N   0  0  0  0  0  0  0  0  0  0  0  0
   24.7598  -19.1354  -15.9089 C   0  0  1  0  0  0  0  0  0  0  0  0
   25.7690  -20.0294  -15.3348 C   0  0  0  0  0  0  0  0  0  0  0  0
   26.6501  -20.7706  -16.2366 C   0  0  0  0  0  0  0  0  0  0  0  0
   26.8108  -20.8302  -17.5827 C   0  0  0  0  0  0  0  0  0  0  0  0
   27.8131  -21.6880  -17.8874 N   0  0  0  0  0  0  0  0  0  0  0  0
   28.2690  -22.1563  -16.7149 C   0  0  0  0  0  0  0  0  0  0  0  0
   27.5888  -21.6221  -15.7065 N   0  0  0  0  0  0  0  0  0  0  0  0
   23.6006  -18.8821  -15.0041 C   0  0  0  0  0  0  0  0  0  0  0  0
   23.7091  -18.1033  -14.0272 O   0  0  0  0  0  0  0  0  0  0  0  0
   18.7957  -18.6811  -13.0207 N   0  0  0  0  0  0  0  0  0  0  0  0
   18.9514  -18.0963  -14.2964 C   0  0  0  0  0  0  0  0  0  0  0  0
   18.0541  -17.3539  -14.7405 O   0  0  0  0  0  0  0  0  0  0  0  0
   20.1574  -18.3527  -15.1047 C   0  0  0  0  0  0  0  0  0  0  0  0
   21.1668  -19.2175  -14.4372 C   0  0  2  0  0  0  0  0  0  0  0  0
   22.3463  -19.4984  -15.2038 N   0  0  0  0  0  0  0  0  0  0  0  0
   20.5123  -20.5063  -14.0903 C   0  0  0  0  0  0  0  0  0  0  0  0
   20.5550  -21.4954  -14.8664 O   0  0  0  0  0  0  0  0  0  0  0  0
   19.8267  -20.6707  -12.8945 O   0  0  0  0  0  0  0  0  0  0  0  0
  2  1  1  0
  3  2  1  0
  4  3  2  0
  5  3  1  0
  6 13  1  0
  6  5  1  0
  6  7  1  1
  8 12  1  0
  8  7  1  0
  9  8  2  0
 10  9  1  0
 10 11  1  0
 11 12  2  0
 13 20  1  0
 14 13  2  0
 16 15  1  0
 17 16  2  0
 18 16  1  0
 19 21  1  0
 19 18  1  6
 20 19  1  0
 21 23  1  0
 22 21  2  0
M  END
$$$$
