GHN.pdb
     RDKit          3D

 23 23  0  0  1  0  0  0  0  0999 V2000
   22.4820  -10.7361  -22.2430 N   0  0  0  0  0  0  0  0  0  0  0  0
   23.8150  -10.8065  -21.7333 C   0  0  0  0  0  0  0  0  0  0  0  0
   23.9647  -10.1720  -20.4062 C   0  0  0  0  0  0  0  0  0  0  0  0
   24.3489  -10.8625  -19.4278 O   0  0  0  0  0  0  0  0  0  0  0  0
   23.7044   -8.8116  -20.1348 N   0  0  0  0  0  0  0  0  0  0  0  0
   23.8402   -8.1963  -18.8473 C   0  0  1  0  0  0  0  0  0  0  0  0
   24.7925   -7.0875  -18.7432 C   0  0  0  0  0  0  0  0  0  0  0  0
   26.2193   -7.3652  -18.9047 C   0  0  0  0  0  0  0  0  0  0  0  0
   26.9549   -8.4755  -19.1640 C   0  0  0  0  0  0  0  0  0  0  0  0
   28.2676   -8.1508  -19.2308 N   0  0  0  0  0  0  0  0  0  0  0  0
   28.3336   -6.8284  -19.0103 C   0  0  0  0  0  0  0  0  0  0  0  0
   27.1182   -6.3304  -18.8115 N   0  0  0  0  0  0  0  0  0  0  0  0
   22.5133   -7.9056  -18.2297 C   0  0  0  0  0  0  0  0  0  0  0  0
   21.5346   -7.5757  -18.9408 O   0  0  0  0  0  0  0  0  0  0  0  0
   18.3071   -9.2526  -14.7143 N   0  0  0  0  0  0  0  0  0  0  0  0
   19.4525   -8.4896  -14.3987 C   0  0  0  0  0  0  0  0  0  0  0  0
   19.3697   -7.5934  -13.5365 O   0  0  0  0  0  0  0  0  0  0  0  0
   20.7388   -8.7402  -15.0743 C   0  0  0  0  0  0  0  0  0  0  0  0
   21.0349   -7.8020  -16.1898 C   0  0  2  0  0  0  0  0  0  0  0  0
   22.3020   -7.9879  -16.8363 N   0  0  0  0  0  0  0  0  0  0  0  0
   20.9781   -6.4165  -15.6542 C   0  0  0  0  0  0  0  0  0  0  0  0
   19.8815   -5.8369  -15.4443 O   0  0  0  0  0  0  0  0  0  0  0  0
   22.1343   -5.7052  -15.3636 O   0  0  0  0  0  0  0  0  0  0  0  0
  2  1  1  0
  3  2  1  0
  4  3  2  0
  5  3  1  0
  6 13  1  0
  6  5  1  0
  6  7  1  6
  8 12  1  0
  8  7  1  0
  9  8  2  0
 10  9  1  0
 10 11  1  0
 11 12  2  0
 13 20  1  0
 14 13  2  0
 16 15  1  0
 17 16  2  0
 18 16  1  0
 19 21  1  0
 19 18  1  1
 20 19  1  0
 21 23  1  0
 22 21  2  0
M  END
$$$$
