GHN.pdb
     RDKit          3D

 23 23  0  0  1  0  0  0  0  0999 V2000
   23.4076  -11.2141  -16.3387 N   0  0  0  0  0  0  0  0  0  0  0  0
   22.6698  -12.3376  -15.8537 C   0  0  0  0  0  0  0  0  0  0  0  0
   23.3431  -13.6292  -16.1075 C   0  0  0  0  0  0  0  0  0  0  0  0
   23.3679  -14.0975  -17.2745 O   0  0  0  0  0  0  0  0  0  0  0  0
   23.9818  -14.4076  -15.1185 N   0  0  0  0  0  0  0  0  0  0  0  0
   24.7392  -15.5963  -15.3792 C   0  0  1  0  0  0  0  0  0  0  0  0
   26.1309  -15.6056  -14.9205 C   0  0  0  0  0  0  0  0  0  0  0  0
   27.0595  -14.6146  -15.4633 C   0  0  0  0  0  0  0  0  0  0  0  0
   27.4184  -13.3514  -15.1217 C   0  0  0  0  0  0  0  0  0  0  0  0
   28.3622  -12.8951  -15.9786 N   0  0  0  0  0  0  0  0  0  0  0  0
   28.5817  -13.8905  -16.8520 C   0  0  0  0  0  0  0  0  0  0  0  0
   27.8130  -14.9356  -16.5663 N   0  0  0  0  0  0  0  0  0  0  0  0
   23.9804  -16.8279  -15.0135 C   0  0  0  0  0  0  0  0  0  0  0  0
   23.9451  -17.2293  -13.8260 O   0  0  0  0  0  0  0  0  0  0  0  0
   20.4536  -20.4584  -13.9793 N   0  0  0  0  0  0  0  0  0  0  0  0
   20.1589  -19.2254  -14.6011 C   0  0  0  0  0  0  0  0  0  0  0  0
   18.9999  -19.0077  -15.0048 O   0  0  0  0  0  0  0  0  0  0  0  0
   21.2015  -18.1980  -14.7772 C   0  0  0  0  0  0  0  0  0  0  0  0
   22.3208  -18.6106  -15.6655 C   0  0  2  0  0  0  0  0  0  0  0  0
   23.2770  -17.5867  -15.9740 N   0  0  0  0  0  0  0  0  0  0  0  0
   21.7386  -19.1105  -16.9386 C   0  0  0  0  0  0  0  0  0  0  0  0
   21.0744  -20.1779  -16.9836 O   0  0  0  0  0  0  0  0  0  0  0  0
   21.9045  -18.4190  -18.1308 O   0  0  0  0  0  0  0  0  0  0  0  0
  2  1  1  0
  3  2  1  0
  4  3  2  0
  5  3  1  0
  6 13  1  0
  6  5  1  0
  6  7  1  1
  8 12  1  0
  8  7  1  0
  9  8  2  0
 10  9  1  0
 10 11  1  0
 11 12  2  0
 13 20  1  0
 14 13  2  0
 16 15  1  0
 17 16  2  0
 18 16  1  0
 19 21  1  0
 19 18  1  1
 20 19  1  0
 21 23  1  0
 22 21  2  0
M  END
$$$$
