GHN.pdb
     RDKit          3D

 23 23  0  0  1  0  0  0  0  0999 V2000
   20.3602  -12.7226  -19.0240 N   0  0  0  0  0  0  0  0  0  0  0  0
   19.9624  -11.4182  -18.5971 C   0  0  0  0  0  0  0  0  0  0  0  0
   20.6893  -10.9520  -17.3970 C   0  0  0  0  0  0  0  0  0  0  0  0
   20.1142  -10.9659  -16.2786 O   0  0  0  0  0  0  0  0  0  0  0  0
   22.0183  -10.4768  -17.3996 N   0  0  0  0  0  0  0  0  0  0  0  0
   22.6893   -9.9244  -16.2598 C   0  0  1  0  0  0  0  0  0  0  0  0
   23.8963  -10.6189  -15.8040 C   0  0  0  0  0  0  0  0  0  0  0  0
   23.8600  -12.0735  -15.6556 C   0  0  0  0  0  0  0  0  0  0  0  0
   22.9218  -13.0329  -15.8567 C   0  0  0  0  0  0  0  0  0  0  0  0
   23.4435  -14.2505  -15.5766 N   0  0  0  0  0  0  0  0  0  0  0  0
   24.7135  -14.0317  -15.2011 C   0  0  0  0  0  0  0  0  0  0  0  0
   24.9909  -12.7331  -15.2394 N   0  0  0  0  0  0  0  0  0  0  0  0
   22.8582   -8.4466  -16.3789 C   0  0  0  0  0  0  0  0  0  0  0  0
   23.3905   -7.9430  -17.3965 O   0  0  0  0  0  0  0  0  0  0  0  0
   22.3986   -3.3351  -15.8152 N   0  0  0  0  0  0  0  0  0  0  0  0
   21.5314   -4.1059  -16.6199 C   0  0  0  0  0  0  0  0  0  0  0  0
   20.7573   -3.5291  -17.4082 O   0  0  0  0  0  0  0  0  0  0  0  0
   21.5316   -5.5780  -16.5383 C   0  0  0  0  0  0  0  0  0  0  0  0
   22.4221   -6.1305  -15.4828 C   0  0  2  0  0  0  0  0  0  0  0  0
   22.4319   -7.5603  -15.3662 N   0  0  0  0  0  0  0  0  0  0  0  0
   22.0032   -5.5542  -14.1782 C   0  0  0  0  0  0  0  0  0  0  0  0
   21.5558   -6.2789  -13.2523 O   0  0  0  0  0  0  0  0  0  0  0  0
   22.0888   -4.1913  -13.9284 O   0  0  0  0  0  0  0  0  0  0  0  0
  2  1  1  0
  3  2  1  0
  4  3  2  0
  5  3  1  0
  6 13  1  0
  6  5  1  0
  6  7  1  6
  8 12  1  0
  8  7  1  0
  9  8  2  0
 10  9  1  0
 10 11  1  0
 11 12  2  0
 13 20  1  0
 14 13  2  0
 16 15  1  0
 17 16  2  0
 18 16  1  0
 19 21  1  0
 19 18  1  6
 20 19  1  0
 21 23  1  0
 22 21  2  0
M  END
$$$$
