GHN.pdb
     RDKit          3D

 23 23  0  0  1  0  0  0  0  0999 V2000
   28.6561  -25.4402  -16.9787 N   0  0  0  0  0  0  0  0  0  0  0  0
   27.4640  -24.6840  -17.2000 C   0  0  0  0  0  0  0  0  0  0  0  0
   27.3541  -23.5006  -16.3204 C   0  0  0  0  0  0  0  0  0  0  0  0
   28.3207  -23.1854  -15.5802 O   0  0  0  0  0  0  0  0  0  0  0  0
   26.2185  -22.6664  -16.2381 N   0  0  0  0  0  0  0  0  0  0  0  0
   26.1551  -21.4469  -15.4876 C   0  0  1  0  0  0  0  0  0  0  0  0
   25.7653  -20.2400  -16.2217 C   0  0  0  0  0  0  0  0  0  0  0  0
   26.8105  -19.3301  -16.6893 C   0  0  0  0  0  0  0  0  0  0  0  0
   27.7258  -19.3577  -17.6906 C   0  0  0  0  0  0  0  0  0  0  0  0
   28.4491  -18.2131  -17.6825 N   0  0  0  0  0  0  0  0  0  0  0  0
   27.9697  -17.4793  -16.6659 C   0  0  0  0  0  0  0  0  0  0  0  0
   26.9848  -18.1256  -16.0519 N   0  0  0  0  0  0  0  0  0  0  0  0
   25.4232  -21.6264  -14.1997 C   0  0  0  0  0  0  0  0  0  0  0  0
   24.4395  -22.4005  -14.1249 O   0  0  0  0  0  0  0  0  0  0  0  0
   25.5152  -19.8716   -8.1886 N   0  0  0  0  0  0  0  0  0  0  0  0
   25.2374  -20.7120   -9.2888 C   0  0  0  0  0  0  0  0  0  0  0  0
   24.4322  -21.6531   -9.1493 O   0  0  0  0  0  0  0  0  0  0  0  0
   25.8861  -20.4897  -10.5940 C   0  0  0  0  0  0  0  0  0  0  0  0
   25.1820  -21.1230  -11.7409 C   0  0  2  0  0  0  0  0  0  0  0  0
   25.7997  -20.9432  -13.0231 N   0  0  0  0  0  0  0  0  0  0  0  0
   23.8044  -20.5678  -11.7995 C   0  0  0  0  0  0  0  0  0  0  0  0
   22.8113  -21.2290  -11.4006 O   0  0  0  0  0  0  0  0  0  0  0  0
   23.5575  -19.2958  -12.2975 O   0  0  0  0  0  0  0  0  0  0  0  0
  2  1  1  0
  3  2  1  0
  4  3  2  0
  5  3  1  0
  6 13  1  0
  6  5  1  0
  6  7  1  6
  8 12  1  0
  8  7  1  0
  9  8  2  0
 10  9  1  0
 10 11  1  0
 11 12  2  0
 13 20  1  0
 14 13  2  0
 16 15  1  0
 17 16  2  0
 18 16  1  0
 19 21  1  0
 19 18  1  1
 20 19  1  0
 21 23  1  0
 22 21  2  0
M  END
$$$$
