GHN.pdb
     RDKit          3D

 23 23  0  0  1  0  0  0  0  0999 V2000
   12.6106  -12.7961  -13.4339 N   0  0  0  0  0  0  0  0  0  0  0  0
   12.7119  -11.3725  -13.5040 C   0  0  0  0  0  0  0  0  0  0  0  0
   13.8828  -10.8362  -12.7778 C   0  0  0  0  0  0  0  0  0  0  0  0
   14.3432  -11.4658  -11.7912 O   0  0  0  0  0  0  0  0  0  0  0  0
   14.5504   -9.6374  -13.1086 N   0  0  0  0  0  0  0  0  0  0  0  0
   15.6701   -9.1026  -12.3910 C   0  0  1  0  0  0  0  0  0  0  0  0
   16.8962   -8.8706  -13.1592 C   0  0  0  0  0  0  0  0  0  0  0  0
   17.5459  -10.0070  -13.8115 C   0  0  0  0  0  0  0  0  0  0  0  0
   17.3182  -11.3440  -13.8549 C   0  0  0  0  0  0  0  0  0  0  0  0
   18.2385  -11.9404  -14.6490 N   0  0  0  0  0  0  0  0  0  0  0  0
   19.0356  -10.9570  -15.0952 C   0  0  0  0  0  0  0  0  0  0  0  0
   18.6428   -9.7851  -14.6082 N   0  0  0  0  0  0  0  0  0  0  0  0
   15.2764   -7.9495  -11.5296 C   0  0  0  0  0  0  0  0  0  0  0  0
   14.3862   -7.1479  -11.9005 O   0  0  0  0  0  0  0  0  0  0  0  0
   14.7265   -4.6815   -7.5304 N   0  0  0  0  0  0  0  0  0  0  0  0
   15.4801   -5.7746   -7.0500 C   0  0  0  0  0  0  0  0  0  0  0  0
   15.8053   -5.8095   -5.8472 O   0  0  0  0  0  0  0  0  0  0  0  0
   15.8846   -6.8695   -7.9507 C   0  0  0  0  0  0  0  0  0  0  0  0
   15.5007   -6.6631   -9.3727 C   0  0  2  0  0  0  0  0  0  0  0  0
   15.8792   -7.7119  -10.2754 N   0  0  0  0  0  0  0  0  0  0  0  0
   16.1204   -5.3946   -9.8380 C   0  0  0  0  0  0  0  0  0  0  0  0
   17.1980   -5.3884  -10.4871 O   0  0  0  0  0  0  0  0  0  0  0  0
   15.5344   -4.1640   -9.5747 O   0  0  0  0  0  0  0  0  0  0  0  0
  2  1  1  0
  3  2  1  0
  4  3  2  0
  5  3  1  0
  6 13  1  0
  6  5  1  0
  6  7  1  6
  8 12  1  0
  8  7  1  0
  9  8  2  0
 10  9  1  0
 10 11  1  0
 11 12  2  0
 13 20  1  0
 14 13  2  0
 16 15  1  0
 17 16  2  0
 18 16  1  0
 19 21  1  0
 19 18  1  1
 20 19  1  0
 21 23  1  0
 22 21  2  0
M  END
$$$$
