GHN.pdb
     RDKit          3D

 23 23  0  0  1  0  0  0  0  0999 V2000
   26.1880  -12.1112  -16.9558 N   0  0  0  0  0  0  0  0  0  0  0  0
   26.6125  -10.7678  -17.1943 C   0  0  0  0  0  0  0  0  0  0  0  0
   27.9951  -10.6775  -17.7103 C   0  0  0  0  0  0  0  0  0  0  0  0
   28.6206  -11.7302  -17.9970 O   0  0  0  0  0  0  0  0  0  0  0  0
   28.6963   -9.4699  -17.9154 N   0  0  0  0  0  0  0  0  0  0  0  0
   30.0220   -9.3777  -18.4526 C   0  0  1  0  0  0  0  0  0  0  0  0
   30.1348   -9.1633  -19.8978 C   0  0  0  0  0  0  0  0  0  0  0  0
   29.3407   -9.9976  -20.7991 C   0  0  0  0  0  0  0  0  0  0  0  0
   28.2045   -9.8168  -21.5184 C   0  0  0  0  0  0  0  0  0  0  0  0
   27.9187  -10.9421  -22.2150 N   0  0  0  0  0  0  0  0  0  0  0  0
   28.8910  -11.8185  -21.9179 C   0  0  0  0  0  0  0  0  0  0  0  0
   29.7589  -11.2779  -21.0698 N   0  0  0  0  0  0  0  0  0  0  0  0
   30.8855   -8.4686  -17.6436 C   0  0  0  0  0  0  0  0  0  0  0  0
   30.4068   -7.8146  -16.6867 O   0  0  0  0  0  0  0  0  0  0  0  0
   35.3999   -7.7569  -14.3008 N   0  0  0  0  0  0  0  0  0  0  0  0
   34.2395   -7.2025  -14.8839 C   0  0  0  0  0  0  0  0  0  0  0  0
   33.9804   -5.9974  -14.6992 O   0  0  0  0  0  0  0  0  0  0  0  0
   33.3357   -8.0292  -15.7044 C   0  0  0  0  0  0  0  0  0  0  0  0
   33.1697   -7.5486  -17.1021 C   0  0  2  0  0  0  0  0  0  0  0  0
   32.2615   -8.3058  -17.9142 N   0  0  0  0  0  0  0  0  0  0  0  0
   34.5054   -7.5584  -17.7545 C   0  0  0  0  0  0  0  0  0  0  0  0
   34.8018   -8.4082  -18.6335 O   0  0  0  0  0  0  0  0  0  0  0  0
   35.4808   -6.6291  -17.4199 O   0  0  0  0  0  0  0  0  0  0  0  0
  2  1  1  0
  3  2  1  0
  4  3  2  0
  5  3  1  0
  6 13  1  0
  6  5  1  0
  6  7  1  6
  8 12  1  0
  8  7  1  0
  9  8  2  0
 10  9  1  0
 10 11  1  0
 11 12  2  0
 13 20  1  0
 14 13  2  0
 16 15  1  0
 17 16  2  0
 18 16  1  0
 19 21  1  0
 19 18  1  1
 20 19  1  0
 21 23  1  0
 22 21  2  0
M  END
$$$$
