GHN.pdb
     RDKit          3D

 23 23  0  0  1  0  0  0  0  0999 V2000
   16.0362  -12.7502  -18.5425 N   0  0  0  0  0  0  0  0  0  0  0  0
   17.2722  -12.9533  -19.2301 C   0  0  0  0  0  0  0  0  0  0  0  0
   18.4178  -12.2844  -18.5773 C   0  0  0  0  0  0  0  0  0  0  0  0
   18.8212  -12.6946  -17.4590 O   0  0  0  0  0  0  0  0  0  0  0  0
   19.1210  -11.1877  -19.1205 N   0  0  0  0  0  0  0  0  0  0  0  0
   20.2282  -10.5341  -18.4870 C   0  0  1  0  0  0  0  0  0  0  0  0
   21.3247  -10.1010  -19.3573 C   0  0  0  0  0  0  0  0  0  0  0  0
   22.5440   -9.5729  -18.7464 C   0  0  0  0  0  0  0  0  0  0  0  0
   22.9718   -9.3834  -17.4727 C   0  0  0  0  0  0  0  0  0  0  0  0
   24.2242   -8.8688  -17.4812 N   0  0  0  0  0  0  0  0  0  0  0  0
   24.5643   -8.7436  -18.7736 C   0  0  0  0  0  0  0  0  0  0  0  0
   23.5741   -9.1591  -19.5558 N   0  0  0  0  0  0  0  0  0  0  0  0
   19.7765   -9.4852  -17.5266 C   0  0  0  0  0  0  0  0  0  0  0  0
   18.8450   -8.7010  -17.8264 O   0  0  0  0  0  0  0  0  0  0  0  0
   19.1027   -6.7073  -13.1631 N   0  0  0  0  0  0  0  0  0  0  0  0
   19.0972   -8.0967  -12.9112 C   0  0  0  0  0  0  0  0  0  0  0  0
   18.7185   -8.5133  -11.7992 O   0  0  0  0  0  0  0  0  0  0  0  0
   19.5322   -9.0550  -13.9437 C   0  0  0  0  0  0  0  0  0  0  0  0
   19.9021   -8.4283  -15.2409 C   0  0  2  0  0  0  0  0  0  0  0  0
   20.3683   -9.3302  -16.2543 N   0  0  0  0  0  0  0  0  0  0  0  0
   20.9648   -7.4222  -14.9803 C   0  0  0  0  0  0  0  0  0  0  0  0
   22.1107   -7.5294  -15.4883 O   0  0  0  0  0  0  0  0  0  0  0  0
   20.7357   -6.3224  -14.1648 O   0  0  0  0  0  0  0  0  0  0  0  0
  2  1  1  0
  3  2  1  0
  4  3  2  0
  5  3  1  0
  6 13  1  0
  6  5  1  0
  6  7  1  6
  8 12  1  0
  8  7  1  0
  9  8  2  0
 10  9  1  0
 10 11  1  0
 11 12  2  0
 13 20  1  0
 14 13  2  0
 16 15  1  0
 17 16  2  0
 18 16  1  0
 19 21  1  0
 19 18  1  1
 20 19  1  0
 21 23  1  0
 22 21  2  0
M  END
$$$$
