LLR.pdb
     RDKit          3D

 28 27  0  0  1  0  0  0  0  0999 V2000
    7.5328  -12.0257   18.9373 C   0  0  0  0  0  0  0  0  0  0  0  0
    7.6675  -13.4539   19.4232 C   0  0  1  0  0  0  0  0  0  0  0  0
    8.2881  -14.2342   18.2606 C   0  0  0  0  0  0  0  0  0  0  0  0
    8.5939  -13.4675   20.6207 C   0  0  0  0  0  0  0  0  0  0  0  0
    8.6012  -14.8387   21.2869 C   0  0  2  0  0  0  0  0  0  0  0  0
    7.3816  -15.5280   21.0114 N   0  0  0  0  0  0  0  0  0  0  0  0
    8.8705  -14.6076   22.7248 C   0  0  0  0  0  0  0  0  0  0  0  0
   10.0471  -14.2774   23.0436 O   0  0  0  0  0  0  0  0  0  0  0  0
    5.6692  -12.4007   26.8164 C   0  0  0  0  0  0  0  0  0  0  0  0
    6.9139  -12.7689   25.9924 C   0  0  1  0  0  0  0  0  0  0  0  0
    8.0785  -11.9174   26.4222 C   0  0  0  0  0  0  0  0  0  0  0  0
    7.1623  -14.2398   26.0676 C   0  0  0  0  0  0  0  0  0  0  0  0
    8.2674  -14.7392   25.1718 C   0  0  2  0  0  0  0  0  0  0  0  0
    7.9184  -14.7265   23.7676 N   0  0  0  0  0  0  0  0  0  0  0  0
    8.6426  -16.1048   25.6325 C   0  0  0  0  0  0  0  0  0  0  0  0
    7.7003  -16.8028   26.1126 O   0  0  0  0  0  0  0  0  0  0  0  0
   11.6211  -19.3507   19.6921 N   0  0  0  0  0  0  0  0  0  0  0  0
   11.7902  -20.6304   20.2951 C   0  0  0  0  0  0  0  0  0  0  0  0
   12.5740  -21.4737   19.7366 N   0  0  0  0  0  0  0  0  0  0  0  0
   11.1268  -21.0080   21.4847 N   0  0  0  0  0  0  0  0  0  0  0  0
   10.0694  -20.1115   22.0824 C   0  0  0  0  0  0  0  0  0  0  0  0
   10.8228  -19.2172   22.9792 C   0  0  0  0  0  0  0  0  0  0  0  0
   10.2536  -18.1049   23.7005 C   0  0  0  0  0  0  0  0  0  0  0  0
   10.1926  -18.0626   25.1689 C   0  0  2  0  0  0  0  0  0  0  0  0
    9.9160  -16.6411   25.5701 N   0  0  0  0  0  0  0  0  0  0  0  0
   11.4368  -18.3643   25.8781 C   0  0  0  0  0  0  0  0  0  0  0  0
   12.2272  -17.3204   26.3801 O   0  0  0  0  0  0  0  0  0  0  0  0
   11.8586  -19.5009   26.0750 O   0  0  0  0  0  0  0  0  0  0  0  0
  2  4  1  0
  2  1  1  6
  2  3  1  0
  5  4  1  0
  5  6  1  1
  7  5  1  0
  8  7  2  0
 10  9  1  1
 10 11  1  0
 13 12  1  1
 12 10  1  0
 13 14  1  0
 14  7  1  0
 15 13  1  0
 15 16  2  0
 18 17  1  0
 18 20  1  0
 19 18  2  0
 20 21  1  0
 21 22  1  0
 22 23  1  0
 24 23  1  6
 24 25  1  0
 24 26  1  0
 25 15  1  0
 26 28  2  0
 26 27  1  0
M  END
$$$$
