LLR.pdb
     RDKit          3D

 28 27  0  0  1  0  0  0  0  0999 V2000
    7.8865  -11.7990   19.4826 C   0  0  0  0  0  0  0  0  0  0  0  0
    7.8246  -13.2687   19.8434 C   0  0  1  0  0  0  0  0  0  0  0  0
    8.1071  -14.0302   18.5450 C   0  0  0  0  0  0  0  0  0  0  0  0
    8.9015  -13.5566   20.8679 C   0  0  0  0  0  0  0  0  0  0  0  0
    8.7512  -14.9641   21.4339 C   0  0  2  0  0  0  0  0  0  0  0  0
    7.4607  -15.4876   21.1193 N   0  0  0  0  0  0  0  0  0  0  0  0
    9.0447  -14.8698   22.8825 C   0  0  0  0  0  0  0  0  0  0  0  0
   10.2190  -14.5411   23.2110 O   0  0  0  0  0  0  0  0  0  0  0  0
    5.9565  -12.5473   26.7568 C   0  0  0  0  0  0  0  0  0  0  0  0
    7.1942  -13.0225   25.9783 C   0  0  1  0  0  0  0  0  0  0  0  0
    8.3748  -12.1534   26.3202 C   0  0  0  0  0  0  0  0  0  0  0  0
    7.4143  -14.4822   26.2059 C   0  0  0  0  0  0  0  0  0  0  0  0
    8.4708  -15.1048   25.3288 C   0  0  2  0  0  0  0  0  0  0  0  0
    8.1179  -15.1174   23.9255 N   0  0  0  0  0  0  0  0  0  0  0  0
    8.7346  -16.4779   25.8414 C   0  0  0  0  0  0  0  0  0  0  0  0
    7.7348  -17.2558   25.8734 O   0  0  0  0  0  0  0  0  0  0  0  0
   12.9732  -18.0383   22.0885 N   0  0  0  0  0  0  0  0  0  0  0  0
   11.9624  -18.8837   21.5468 C   0  0  0  0  0  0  0  0  0  0  0  0
   11.5849  -18.6934   20.3391 N   0  0  0  0  0  0  0  0  0  0  0  0
   11.3579  -19.9236   22.2890 N   0  0  0  0  0  0  0  0  0  0  0  0
   11.7831  -20.1872   23.7133 C   0  0  0  0  0  0  0  0  0  0  0  0
   11.3365  -18.9904   24.4481 C   0  0  0  0  0  0  0  0  0  0  0  0
   11.3724  -18.8444   25.8829 C   0  0  0  0  0  0  0  0  0  0  0  0
   10.2167  -18.3715   26.6589 C   0  0  2  0  0  0  0  0  0  0  0  0
    9.9648  -16.9417   26.2708 N   0  0  0  0  0  0  0  0  0  0  0  0
   10.4001  -18.2873   28.1085 C   0  0  0  0  0  0  0  0  0  0  0  0
   10.0830  -19.3867   28.9193 O   0  0  0  0  0  0  0  0  0  0  0  0
   10.8249  -17.2934   28.6920 O   0  0  0  0  0  0  0  0  0  0  0  0
  2  4  1  0
  2  1  1  6
  2  3  1  0
  5  4  1  0
  5  6  1  1
  7  5  1  0
  8  7  2  0
 10  9  1  1
 10 11  1  0
 13 12  1  1
 12 10  1  0
 13 14  1  0
 14  7  1  0
 15 13  1  0
 15 16  2  0
 18 17  1  0
 18 20  1  0
 19 18  2  0
 20 21  1  0
 21 22  1  0
 22 23  1  0
 24 23  1  6
 24 25  1  0
 24 26  1  0
 25 15  1  0
 26 28  2  0
 26 27  1  0
M  END
$$$$
