LLR.pdb
     RDKit          3D

 28 27  0  0  1  0  0  0  0  0999 V2000
    7.9300  -11.8605   19.4448 C   0  0  0  0  0  0  0  0  0  0  0  0
    7.7298  -13.3172   19.8081 C   0  0  1  0  0  0  0  0  0  0  0  0
    7.8912  -14.0999   18.5016 C   0  0  0  0  0  0  0  0  0  0  0  0
    8.8040  -13.7166   20.7975 C   0  0  0  0  0  0  0  0  0  0  0  0
    8.5161  -15.0928   21.3867 C   0  0  2  0  0  0  0  0  0  0  0  0
    7.1560  -15.4567   21.1496 N   0  0  0  0  0  0  0  0  0  0  0  0
    8.8996  -15.0285   22.8157 C   0  0  0  0  0  0  0  0  0  0  0  0
   10.1263  -14.8777   23.0756 O   0  0  0  0  0  0  0  0  0  0  0  0
    6.0048  -12.3881   26.6455 C   0  0  0  0  0  0  0  0  0  0  0  0
    7.2165  -12.9242   25.8657 C   0  0  1  0  0  0  0  0  0  0  0  0
    8.4091  -12.0376   26.1064 C   0  0  0  0  0  0  0  0  0  0  0  0
    7.4406  -14.3643   26.1924 C   0  0  0  0  0  0  0  0  0  0  0  0
    8.4255  -15.0687   25.2942 C   0  0  2  0  0  0  0  0  0  0  0  0
    8.0049  -15.1219   23.9107 N   0  0  0  0  0  0  0  0  0  0  0  0
    8.6544  -16.4306   25.8517 C   0  0  0  0  0  0  0  0  0  0  0  0
    7.6563  -17.2109   25.8273 O   0  0  0  0  0  0  0  0  0  0  0  0
   12.2564  -18.0128   21.8509 N   0  0  0  0  0  0  0  0  0  0  0  0
   11.3791  -19.0826   21.5108 C   0  0  0  0  0  0  0  0  0  0  0  0
   10.8741  -19.1127   20.3354 N   0  0  0  0  0  0  0  0  0  0  0  0
   11.0421  -20.1121   22.4187 N   0  0  0  0  0  0  0  0  0  0  0  0
   11.6744  -20.1539   23.7889 C   0  0  0  0  0  0  0  0  0  0  0  0
   10.9058  -19.1677   24.5688 C   0  0  0  0  0  0  0  0  0  0  0  0
   11.1203  -18.8747   25.9650 C   0  0  0  0  0  0  0  0  0  0  0  0
   10.0735  -18.2998   26.8224 C   0  0  2  0  0  0  0  0  0  0  0  0
    9.8514  -16.8818   26.3774 N   0  0  0  0  0  0  0  0  0  0  0  0
   10.4076  -18.1473   28.2392 C   0  0  0  0  0  0  0  0  0  0  0  0
   10.2002  -19.2136   29.1261 O   0  0  0  0  0  0  0  0  0  0  0  0
   10.8717  -17.1216   28.7304 O   0  0  0  0  0  0  0  0  0  0  0  0
  2  4  1  0
  2  1  1  6
  2  3  1  0
  5  4  1  0
  5  6  1  1
  7  5  1  0
  8  7  2  0
 10  9  1  1
 10 11  1  0
 13 12  1  1
 12 10  1  0
 13 14  1  0
 14  7  1  0
 15 13  1  0
 15 16  2  0
 18 17  1  0
 18 20  1  0
 19 18  2  0
 20 21  1  0
 21 22  1  0
 22 23  1  0
 24 23  1  6
 24 25  1  0
 24 26  1  0
 25 15  1  0
 26 28  2  0
 26 27  1  0
M  END
$$$$
