LLR.pdb
     RDKit          3D

 28 27  0  0  1  0  0  0  0  0999 V2000
    8.1657  -11.7811   19.1199 C   0  0  0  0  0  0  0  0  0  0  0  0
    7.7537  -13.1725   19.5540 C   0  0  1  0  0  0  0  0  0  0  0  0
    7.9387  -14.0661   18.3240 C   0  0  0  0  0  0  0  0  0  0  0  0
    8.6728  -13.6178   20.6717 C   0  0  0  0  0  0  0  0  0  0  0  0
    8.2201  -14.9547   21.2477 C   0  0  2  0  0  0  0  0  0  0  0  0
    6.8224  -15.1408   21.0241 N   0  0  0  0  0  0  0  0  0  0  0  0
    8.6250  -14.9589   22.6724 C   0  0  0  0  0  0  0  0  0  0  0  0
    9.8592  -15.0646   22.9190 O   0  0  0  0  0  0  0  0  0  0  0  0
    5.6586  -12.3841   26.7232 C   0  0  0  0  0  0  0  0  0  0  0  0
    6.8742  -12.8083   25.8828 C   0  0  1  0  0  0  0  0  0  0  0  0
    8.0311  -11.8860   26.1601 C   0  0  0  0  0  0  0  0  0  0  0  0
    7.1704  -14.2555   26.1031 C   0  0  0  0  0  0  0  0  0  0  0  0
    8.1846  -14.8430   25.1546 C   0  0  2  0  0  0  0  0  0  0  0  0
    7.7431  -14.8542   23.7766 N   0  0  0  0  0  0  0  0  0  0  0  0
    8.5164  -16.2125   25.6365 C   0  0  0  0  0  0  0  0  0  0  0  0
    7.6208  -17.0912   25.4591 O   0  0  0  0  0  0  0  0  0  0  0  0
   14.9943  -21.3927   23.2229 N   0  0  0  0  0  0  0  0  0  0  0  0
   14.4277  -21.9339   24.4128 C   0  0  0  0  0  0  0  0  0  0  0  0
   14.9564  -22.9814   24.9234 N   0  0  0  0  0  0  0  0  0  0  0  0
   13.3042  -21.3624   25.0524 N   0  0  0  0  0  0  0  0  0  0  0  0
   12.5904  -20.1877   24.4281 C   0  0  0  0  0  0  0  0  0  0  0  0
   12.0666  -19.4330   25.5803 C   0  0  0  0  0  0  0  0  0  0  0  0
   11.2215  -18.2676   25.4854 C   0  0  0  0  0  0  0  0  0  0  0  0
   10.1328  -18.0005   26.4367 C   0  0  2  0  0  0  0  0  0  0  0  0
    9.7044  -16.5729   26.2461 N   0  0  0  0  0  0  0  0  0  0  0  0
   10.4867  -18.0469   27.8561 C   0  0  0  0  0  0  0  0  0  0  0  0
   10.6873  -19.2829   28.4875 O   0  0  0  0  0  0  0  0  0  0  0  0
   10.6264  -17.0526   28.5635 O   0  0  0  0  0  0  0  0  0  0  0  0
  2  4  1  0
  2  1  1  6
  2  3  1  0
  5  4  1  0
  5  6  1  1
  7  5  1  0
  8  7  2  0
 10  9  1  1
 10 11  1  0
 13 12  1  1
 12 10  1  0
 13 14  1  0
 14  7  1  0
 15 13  1  0
 15 16  2  0
 18 17  1  0
 18 20  1  0
 19 18  2  0
 20 21  1  0
 21 22  1  0
 22 23  1  0
 24 23  1  6
 24 25  1  0
 24 26  1  0
 25 15  1  0
 26 28  2  0
 26 27  1  0
M  END
$$$$
