LLR.pdb
     RDKit          3D

 28 27  0  0  1  0  0  0  0  0999 V2000
    9.5375  -18.2358   29.9053 C   0  0  0  0  0  0  0  0  0  0  0  0
    8.7807  -19.2855   29.1182 C   0  0  1  0  0  0  0  0  0  0  0  0
    7.9585  -20.0673   30.1471 C   0  0  0  0  0  0  0  0  0  0  0  0
    7.8662  -18.5824   28.1376 C   0  0  0  0  0  0  0  0  0  0  0  0
    8.6496  -18.0722   26.9334 C   0  0  2  0  0  0  0  0  0  0  0  0
    9.8979  -17.5215   27.3538 N   0  0  0  0  0  0  0  0  0  0  0  0
    7.7616  -17.1227   26.2240 C   0  0  0  0  0  0  0  0  0  0  0  0
    6.6081  -17.5347   25.9160 O   0  0  0  0  0  0  0  0  0  0  0  0
    7.8327  -11.7987   26.7388 C   0  0  0  0  0  0  0  0  0  0  0  0
    7.1876  -13.1683   26.4703 C   0  0  1  0  0  0  0  0  0  0  0  0
    5.7436  -13.1423   26.8946 C   0  0  0  0  0  0  0  0  0  0  0  0
    7.4072  -13.5690   25.0484 C   0  0  0  0  0  0  0  0  0  0  0  0
    7.4373  -15.0575   24.8102 C   0  0  2  0  0  0  0  0  0  0  0  0
    8.1002  -15.7945   25.8644 N   0  0  0  0  0  0  0  0  0  0  0  0
    8.0801  -15.2924   23.4876 C   0  0  0  0  0  0  0  0  0  0  0  0
    7.5445  -14.7028   22.5020 O   0  0  0  0  0  0  0  0  0  0  0  0
    8.2240  -14.6767   17.5869 N   0  0  0  0  0  0  0  0  0  0  0  0
    8.0353  -13.2970   17.8878 C   0  0  0  0  0  0  0  0  0  0  0  0
    7.3424  -12.5823   17.0836 N   0  0  0  0  0  0  0  0  0  0  0  0
    8.5830  -12.6840   19.0376 N   0  0  0  0  0  0  0  0  0  0  0  0
    9.8327  -13.2425   19.6741 C   0  0  0  0  0  0  0  0  0  0  0  0
    9.3490  -14.3805   20.4757 C   0  0  0  0  0  0  0  0  0  0  0  0
   10.1898  -15.2489   21.2634 C   0  0  0  0  0  0  0  0  0  0  0  0
    9.6828  -16.4694   21.9075 C   0  0  2  0  0  0  0  0  0  0  0  0
    9.1908  -16.0888   23.2755 N   0  0  0  0  0  0  0  0  0  0  0  0
   10.6720  -17.5089   22.1955 C   0  0  0  0  0  0  0  0  0  0  0  0
   11.1636  -18.3141   21.1579 O   0  0  0  0  0  0  0  0  0  0  0  0
   11.1214  -17.7402   23.3149 O   0  0  0  0  0  0  0  0  0  0  0  0
  2  4  1  0
  2  1  1  1
  2  3  1  0
  5  4  1  0
  5  6  1  1
  7  5  1  0
  8  7  2  0
 10  9  1  6
 10 11  1  0
 13 12  1  1
 12 10  1  0
 13 14  1  0
 14  7  1  0
 15 13  1  0
 15 16  2  0
 18 17  1  0
 18 20  1  0
 19 18  2  0
 20 21  1  0
 21 22  1  0
 22 23  1  0
 24 23  1  1
 24 25  1  0
 24 26  1  0
 25 15  1  0
 26 28  2  0
 26 27  1  0
M  END
$$$$
