LLR.pdb
     RDKit          3D

 28 27  0  0  1  0  0  0  0  0999 V2000
    7.9213  -11.7319   19.3856 C   0  0  0  0  0  0  0  0  0  0  0  0
    8.1963  -13.1815   19.7280 C   0  0  1  0  0  0  0  0  0  0  0  0
    8.9263  -13.7662   18.5153 C   0  0  0  0  0  0  0  0  0  0  0  0
    9.0880  -13.2244   20.9508 C   0  0  0  0  0  0  0  0  0  0  0  0
    9.2009  -14.6452   21.4918 C   0  0  2  0  0  0  0  0  0  0  0  0
    8.1375  -15.4522   20.9856 N   0  0  0  0  0  0  0  0  0  0  0  0
    9.2436  -14.5323   22.9679 C   0  0  0  0  0  0  0  0  0  0  0  0
   10.2577  -13.9738   23.4727 O   0  0  0  0  0  0  0  0  0  0  0  0
    5.0403  -13.3980   26.4597 C   0  0  0  0  0  0  0  0  0  0  0  0
    6.4439  -13.4245   25.8327 C   0  0  1  0  0  0  0  0  0  0  0  0
    7.2651  -12.2858   26.3757 C   0  0  0  0  0  0  0  0  0  0  0  0
    7.0608  -14.7728   26.0128 C   0  0  0  0  0  0  0  0  0  0  0  0
    8.3735  -14.9662   25.2968 C   0  0  2  0  0  0  0  0  0  0  0  0
    8.2426  -14.9984   23.8561 N   0  0  0  0  0  0  0  0  0  0  0  0
    8.9961  -16.2137   25.8200 C   0  0  0  0  0  0  0  0  0  0  0  0
    8.8724  -16.4109   27.0656 O   0  0  0  0  0  0  0  0  0  0  0  0
    9.8184  -20.2646   19.7301 N   0  0  0  0  0  0  0  0  0  0  0  0
    8.6094  -20.1741   20.4784 C   0  0  0  0  0  0  0  0  0  0  0  0
    7.5196  -19.9228   19.8566 N   0  0  0  0  0  0  0  0  0  0  0  0
    8.5638  -20.3491   21.8803 N   0  0  0  0  0  0  0  0  0  0  0  0
    9.8314  -20.6210   22.6537 C   0  0  0  0  0  0  0  0  0  0  0  0
   10.1682  -19.3203   23.2588 C   0  0  0  0  0  0  0  0  0  0  0  0
   10.8691  -19.1506   24.5084 C   0  0  0  0  0  0  0  0  0  0  0  0
   10.3134  -18.3767   25.6281 C   0  0  2  0  0  0  0  0  0  0  0  0
    9.6791  -17.1411   25.0543 N   0  0  0  0  0  0  0  0  0  0  0  0
   11.2802  -17.8324   26.5826 C   0  0  0  0  0  0  0  0  0  0  0  0
   12.0451  -16.7081   26.2401 O   0  0  0  0  0  0  0  0  0  0  0  0
   11.4819  -18.3000   27.7003 O   0  0  0  0  0  0  0  0  0  0  0  0
  2  4  1  0
  2  1  1  6
  2  3  1  0
  5  4  1  0
  5  6  1  1
  7  5  1  0
  8  7  2  0
 10  9  1  1
 10 11  1  0
 13 12  1  1
 12 10  1  0
 13 14  1  0
 14  7  1  0
 15 13  1  0
 15 16  2  0
 18 17  1  0
 18 20  1  0
 19 18  2  0
 20 21  1  0
 21 22  1  0
 22 23  1  0
 24 23  1  6
 24 25  1  0
 24 26  1  0
 25 15  1  0
 26 28  2  0
 26 27  1  0
M  END
$$$$
