LLR.pdb
     RDKit          3D

 28 27  0  0  1  0  0  0  0  0999 V2000
    6.5453  -12.6117   19.3784 C   0  0  0  0  0  0  0  0  0  0  0  0
    7.9360  -13.2046   19.2849 C   0  0  1  0  0  0  0  0  0  0  0  0
    8.7669  -12.1972   18.4847 C   0  0  0  0  0  0  0  0  0  0  0  0
    8.4905  -13.3496   20.6862 C   0  0  0  0  0  0  0  0  0  0  0  0
    8.2880  -14.7681   21.2069 C   0  0  2  0  0  0  0  0  0  0  0  0
    6.9636  -15.2159   20.9175 N   0  0  0  0  0  0  0  0  0  0  0  0
    8.6316  -14.7417   22.6473 C   0  0  0  0  0  0  0  0  0  0  0  0
    9.8467  -14.5693   22.9455 O   0  0  0  0  0  0  0  0  0  0  0  0
    5.6786  -12.3529   26.7508 C   0  0  0  0  0  0  0  0  0  0  0  0
    6.8697  -12.8166   25.8964 C   0  0  1  0  0  0  0  0  0  0  0  0
    8.0941  -12.0172   26.2542 C   0  0  0  0  0  0  0  0  0  0  0  0
    7.0407  -14.2957   26.0142 C   0  0  0  0  0  0  0  0  0  0  0  0
    8.0939  -14.8827   25.1090 C   0  0  2  0  0  0  0  0  0  0  0  0
    7.7108  -14.8935   23.7137 N   0  0  0  0  0  0  0  0  0  0  0  0
    8.4053  -16.2523   25.6040 C   0  0  0  0  0  0  0  0  0  0  0  0
    7.4111  -17.0235   25.7540 O   0  0  0  0  0  0  0  0  0  0  0  0
   12.6930  -20.6617   21.0618 N   0  0  0  0  0  0  0  0  0  0  0  0
   13.1104  -20.6652   22.4241 C   0  0  0  0  0  0  0  0  0  0  0  0
   13.8914  -21.5963   22.8247 N   0  0  0  0  0  0  0  0  0  0  0  0
   12.6963  -19.6830   23.3524 N   0  0  0  0  0  0  0  0  0  0  0  0
   11.7432  -18.5914   22.9293 C   0  0  0  0  0  0  0  0  0  0  0  0
   10.6701  -18.6416   23.9379 C   0  0  0  0  0  0  0  0  0  0  0  0
   10.8828  -18.7194   25.3628 C   0  0  0  0  0  0  0  0  0  0  0  0
    9.9499  -18.1312   26.3350 C   0  0  2  0  0  0  0  0  0  0  0  0
    9.6729  -16.7197   25.9003 N   0  0  0  0  0  0  0  0  0  0  0  0
   10.4572  -17.9582   27.6970 C   0  0  0  0  0  0  0  0  0  0  0  0
   10.6476  -19.0773   28.5204 O   0  0  0  0  0  0  0  0  0  0  0  0
   10.7389  -16.8708   28.1936 O   0  0  0  0  0  0  0  0  0  0  0  0
  2  4  1  0
  2  1  1  1
  2  3  1  0
  5  4  1  0
  5  6  1  1
  7  5  1  0
  8  7  2  0
 10  9  1  1
 10 11  1  0
 13 12  1  1
 12 10  1  0
 13 14  1  0
 14  7  1  0
 15 13  1  0
 15 16  2  0
 18 17  1  0
 18 20  1  0
 19 18  2  0
 20 21  1  0
 21 22  1  0
 22 23  1  0
 24 23  1  6
 24 25  1  0
 24 26  1  0
 25 15  1  0
 26 28  2  0
 26 27  1  0
M  END
$$$$
