LLR.pdb
     RDKit          3D

 28 27  0  0  1  0  0  0  0  0999 V2000
   10.0896  -13.9169   30.0831 C   0  0  0  0  0  0  0  0  0  0  0  0
   10.6223  -15.0093   29.1792 C   0  0  1  0  0  0  0  0  0  0  0  0
   11.6652  -15.7657   30.0075 C   0  0  0  0  0  0  0  0  0  0  0  0
    9.4763  -15.9272   28.8098 C   0  0  0  0  0  0  0  0  0  0  0  0
    9.8165  -16.7509   27.5730 C   0  0  2  0  0  0  0  0  0  0  0  0
   11.1091  -16.3945   27.0825 N   0  0  0  0  0  0  0  0  0  0  0  0
    8.7102  -16.5429   26.6104 C   0  0  0  0  0  0  0  0  0  0  0  0
    7.6227  -17.1402   26.8465 O   0  0  0  0  0  0  0  0  0  0  0  0
    7.5326  -11.7589   24.8229 C   0  0  0  0  0  0  0  0  0  0  0  0
    7.3719  -13.2058   25.3173 C   0  0  1  0  0  0  0  0  0  0  0  0
    6.1516  -13.3116   26.1925 C   0  0  0  0  0  0  0  0  0  0  0  0
    7.3857  -14.1483   24.1588 C   0  0  0  0  0  0  0  0  0  0  0  0
    7.6774  -15.5835   24.5172 C   0  0  2  0  0  0  0  0  0  0  0  0
    8.7731  -15.7311   25.4506 N   0  0  0  0  0  0  0  0  0  0  0  0
    7.9307  -16.3248   23.2506 C   0  0  0  0  0  0  0  0  0  0  0  0
    6.9688  -16.3521   22.4262 O   0  0  0  0  0  0  0  0  0  0  0  0
    8.5018  -12.5959   17.4210 N   0  0  0  0  0  0  0  0  0  0  0  0
    7.9727  -12.6078   18.7438 C   0  0  0  0  0  0  0  0  0  0  0  0
    7.7787  -11.4910   19.3377 N   0  0  0  0  0  0  0  0  0  0  0  0
    7.6541  -13.8026   19.4284 N   0  0  0  0  0  0  0  0  0  0  0  0
    8.3487  -15.0935   19.0675 C   0  0  0  0  0  0  0  0  0  0  0  0
    8.6268  -15.7268   20.3687 C   0  0  0  0  0  0  0  0  0  0  0  0
    9.4534  -16.8944   20.5558 C   0  0  0  0  0  0  0  0  0  0  0  0
    9.2866  -17.8069   21.6965 C   0  0  2  0  0  0  0  0  0  0  0  0
    9.1140  -16.9646   22.9290 N   0  0  0  0  0  0  0  0  0  0  0  0
   10.4408  -18.6418   22.0325 C   0  0  0  0  0  0  0  0  0  0  0  0
   11.0424  -18.5295   23.2942 O   0  0  0  0  0  0  0  0  0  0  0  0
   10.9422  -19.4626   21.2686 O   0  0  0  0  0  0  0  0  0  0  0  0
  2  4  1  0
  2  1  1  1
  2  3  1  0
  5  4  1  0
  5  6  1  6
  7  5  1  0
  8  7  2  0
 10  9  1  6
 10 11  1  0
 13 12  1  6
 12 10  1  0
 13 14  1  0
 14  7  1  0
 15 13  1  0
 15 16  2  0
 18 17  1  0
 18 20  1  0
 19 18  2  0
 20 21  1  0
 21 22  1  0
 22 23  1  0
 24 23  1  6
 24 25  1  0
 24 26  1  0
 25 15  1  0
 26 28  2  0
 26 27  1  0
M  END
$$$$
