LLR.pdb
     RDKit          3D

 28 27  0  0  1  0  0  0  0  0999 V2000
    6.7947  -14.9575   18.1407 C   0  0  0  0  0  0  0  0  0  0  0  0
    7.8085  -14.0468   18.8017 C   0  0  1  0  0  0  0  0  0  0  0  0
    7.2473  -12.6282   18.6662 C   0  0  0  0  0  0  0  0  0  0  0  0
    7.9192  -14.4323   20.2616 C   0  0  0  0  0  0  0  0  0  0  0  0
    8.8238  -13.4622   21.0131 C   0  0  2  0  0  0  0  0  0  0  0  0
   10.1108  -13.4093   20.3972 N   0  0  0  0  0  0  0  0  0  0  0  0
    8.8318  -13.9023   22.4272 C   0  0  0  0  0  0  0  0  0  0  0  0
    9.8421  -14.5490   22.8223 O   0  0  0  0  0  0  0  0  0  0  0  0
    5.4477  -11.8924   26.8709 C   0  0  0  0  0  0  0  0  0  0  0  0
    6.7557  -12.2295   26.1366 C   0  0  1  0  0  0  0  0  0  0  0  0
    7.9282  -11.9883   27.0494 C   0  0  0  0  0  0  0  0  0  0  0  0
    6.6857  -13.6103   25.5715 C   0  0  0  0  0  0  0  0  0  0  0  0
    7.8913  -14.0237   24.7659 C   0  0  2  0  0  0  0  0  0  0  0  0
    7.8017  -13.6572   23.3689 N   0  0  0  0  0  0  0  0  0  0  0  0
    8.0704  -15.4920   24.9384 C   0  0  0  0  0  0  0  0  0  0  0  0
    7.0896  -16.2122   24.5846 O   0  0  0  0  0  0  0  0  0  0  0  0
   13.8118  -21.1498   21.8006 N   0  0  0  0  0  0  0  0  0  0  0  0
   12.5122  -21.6040   22.1674 C   0  0  0  0  0  0  0  0  0  0  0  0
   12.0360  -22.6388   21.5842 N   0  0  0  0  0  0  0  0  0  0  0  0
   11.7258  -20.9580   23.1483 N   0  0  0  0  0  0  0  0  0  0  0  0
   12.2164  -19.6877   23.7999 C   0  0  0  0  0  0  0  0  0  0  0  0
   11.0941  -19.2683   24.6578 C   0  0  0  0  0  0  0  0  0  0  0  0
   10.4917  -17.9574   24.6427 C   0  0  0  0  0  0  0  0  0  0  0  0
    9.3761  -17.5894   25.5268 C   0  0  2  0  0  0  0  0  0  0  0  0
    9.2055  -16.0987   25.4446 N   0  0  0  0  0  0  0  0  0  0  0  0
    9.5822  -17.8146   26.9582 C   0  0  0  0  0  0  0  0  0  0  0  0
    9.9589  -16.7483   27.7874 O   0  0  0  0  0  0  0  0  0  0  0  0
    9.4467  -18.9034   27.5102 O   0  0  0  0  0  0  0  0  0  0  0  0
  2  4  1  0
  2  1  1  6
  2  3  1  0
  5  4  1  0
  5  6  1  6
  7  5  1  0
  8  7  2  0
 10  9  1  1
 10 11  1  0
 13 12  1  1
 12 10  1  0
 13 14  1  0
 14  7  1  0
 15 13  1  0
 15 16  2  0
 18 17  1  0
 18 20  1  0
 19 18  2  0
 20 21  1  0
 21 22  1  0
 22 23  1  0
 24 23  1  6
 24 25  1  0
 24 26  1  0
 25 15  1  0
 26 28  2  0
 26 27  1  0
M  END
$$$$
