LLR.pdb
     RDKit          3D

 28 27  0  0  1  0  0  0  0  0999 V2000
    6.3301  -13.4038   19.2192 C   0  0  0  0  0  0  0  0  0  0  0  0
    7.8431  -13.3967   19.2890 C   0  0  1  0  0  0  0  0  0  0  0  0
    8.2918  -12.1581   18.5078 C   0  0  0  0  0  0  0  0  0  0  0  0
    8.2555  -13.2815   20.7412 C   0  0  0  0  0  0  0  0  0  0  0  0
    8.5500  -14.6551   21.3334 C   0  0  2  0  0  0  0  0  0  0  0  0
    7.4695  -15.5496   21.0670 N   0  0  0  0  0  0  0  0  0  0  0  0
    8.8371  -14.4420   22.7707 C   0  0  0  0  0  0  0  0  0  0  0  0
    9.7931  -13.6681   23.0574 O   0  0  0  0  0  0  0  0  0  0  0  0
    5.4730  -12.5740   26.2968 C   0  0  0  0  0  0  0  0  0  0  0  0
    6.8285  -12.8922   25.6446 C   0  0  1  0  0  0  0  0  0  0  0  0
    7.8158  -11.8022   25.9657 C   0  0  0  0  0  0  0  0  0  0  0  0
    7.2745  -14.2641   26.0314 C   0  0  0  0  0  0  0  0  0  0  0  0
    8.4418  -14.7947   25.2381 C   0  0  2  0  0  0  0  0  0  0  0  0
    8.1287  -15.0339   23.8457 N   0  0  0  0  0  0  0  0  0  0  0  0
    8.9244  -16.0313   25.9131 C   0  0  0  0  0  0  0  0  0  0  0  0
    9.1371  -15.9323   27.1584 O   0  0  0  0  0  0  0  0  0  0  0  0
   14.0931  -15.7408   19.3920 N   0  0  0  0  0  0  0  0  0  0  0  0
   14.5146  -15.3908   20.7072 C   0  0  0  0  0  0  0  0  0  0  0  0
   15.5832  -14.7008   20.8465 N   0  0  0  0  0  0  0  0  0  0  0  0
   13.8016  -15.7754   21.8655 N   0  0  0  0  0  0  0  0  0  0  0  0
   12.5275  -16.5758   21.7427 C   0  0  0  0  0  0  0  0  0  0  0  0
   11.9686  -16.5715   23.1062 C   0  0  0  0  0  0  0  0  0  0  0  0
   10.7460  -17.2305   23.4967 C   0  0  0  0  0  0  0  0  0  0  0  0
   10.5108  -17.7149   24.8647 C   0  0  2  0  0  0  0  0  0  0  0  0
    9.1473  -17.2429   25.2844 N   0  0  0  0  0  0  0  0  0  0  0  0
   11.3800  -17.1642   25.9056 C   0  0  0  0  0  0  0  0  0  0  0  0
   12.1309  -18.0255   26.7185 O   0  0  0  0  0  0  0  0  0  0  0  0
   11.5078  -15.9637   26.1316 O   0  0  0  0  0  0  0  0  0  0  0  0
  2  4  1  0
  2  1  1  1
  2  3  1  0
  5  4  1  0
  5  6  1  1
  7  5  1  0
  8  7  2  0
 10  9  1  1
 10 11  1  0
 13 12  1  1
 12 10  1  0
 13 14  1  0
 14  7  1  0
 15 13  1  0
 15 16  2  0
 18 17  1  0
 18 20  1  0
 19 18  2  0
 20 21  1  0
 21 22  1  0
 22 23  1  0
 24 23  1  6
 24 25  1  0
 24 26  1  0
 25 15  1  0
 26 28  2  0
 26 27  1  0
M  END
$$$$
