FYA.pdb
     RDKit          3D

 29 30  0  0  1  0  0  0  0  0999 V2000
    8.3407  -17.6070   20.3651 N   0  0  0  0  0  0  0  0  0  0  0  0
    9.5797  -16.9045   20.7372 C   0  0  1  0  0  0  0  0  0  0  0  0
    9.1209  -15.7293   21.5695 C   0  0  0  0  0  0  0  0  0  0  0  0
    8.3982  -14.6990   20.8224 C   0  0  0  0  0  0  0  0  0  0  0  0
    7.0555  -14.4378   21.0299 C   0  0  0  0  0  0  0  0  0  0  0  0
    6.4048  -13.4525   20.3091 C   0  0  0  0  0  0  0  0  0  0  0  0
    7.1387  -12.7432   19.3803 C   0  0  0  0  0  0  0  0  0  0  0  0
    8.4849  -12.9979   19.1651 C   0  0  0  0  0  0  0  0  0  0  0  0
    9.1262  -13.9703   19.8770 C   0  0  0  0  0  0  0  0  0  0  0  0
   10.4555  -17.7482   21.5516 C   0  0  0  0  0  0  0  0  0  0  0  0
    9.9855  -18.6826   22.2496 O   0  0  0  0  0  0  0  0  0  0  0  0
   15.2661  -20.0652   16.8687 O   0  0  0  0  0  0  0  0  0  0  0  0
   15.0067  -19.6171   18.1747 C   0  0  0  0  0  0  0  0  0  0  0  0
   14.6609  -18.3019   18.3603 C   0  0  0  0  0  0  0  0  0  0  0  0
   14.3986  -17.8304   19.6415 C   0  0  0  0  0  0  0  0  0  0  0  0
   14.4805  -18.6657   20.7339 C   0  0  0  0  0  0  0  0  0  0  0  0
   14.2044  -18.1789   22.1018 C   0  0  0  0  0  0  0  0  0  0  0  0
   12.7257  -18.3578   22.4748 C   0  0  2  0  0  0  0  0  0  0  0  0
   11.8760  -17.5876   21.6214 N   0  0  0  0  0  0  0  0  0  0  0  0
   12.5351  -18.0493   23.9175 C   0  0  0  0  0  0  0  0  0  0  0  0
   13.1947  -18.6683   24.7923 O   0  0  0  0  0  0  0  0  0  0  0  0
   14.8299  -19.9804   20.5167 C   0  0  0  0  0  0  0  0  0  0  0  0
   15.0954  -20.4726   19.2522 C   0  0  0  0  0  0  0  0  0  0  0  0
   10.5022  -15.6195   26.0201 C   0  0  0  0  0  0  0  0  0  0  0  0
   11.3423  -16.8714   25.8014 C   0  0  2  0  0  0  0  0  0  0  0  0
   11.6237  -17.0653   24.3923 N   0  0  0  0  0  0  0  0  0  0  0  0
   10.6889  -18.0633   26.4002 C   0  0  0  0  0  0  0  0  0  0  0  0
   10.2450  -19.1417   25.6467 O   0  0  0  0  0  0  0  0  0  0  0  0
   10.5153  -18.1289   27.6439 O   0  0  0  0  0  0  0  0  0  0  0  0
  2  1  1  1
  3  4  1  0
  3  2  1  0
  4  9  1  0
  4  5  2  0
  5  6  1  0
  6  7  2  0
  8  7  1  0
  9  8  2  0
 10 19  1  0
 10  2  1  0
 11 10  2  0
 12 13  1  0
 13 14  2  0
 14 15  1  0
 16 17  1  0
 16 15  2  0
 18 17  1  6
 18 19  1  0
 20 18  1  0
 21 20  2  0
 22 16  1  0
 23 22  2  0
 23 13  1  0
 25 24  1  6
 25 26  1  0
 26 20  1  0
 27 25  1  0
 27 28  1  0
 29 27  2  0
M  END
$$$$
