FYA.pdb
     RDKit          3D

 29 30  0  0  1  0  0  0  0  0999 V2000
    6.9647  -18.2872   26.2656 N   0  0  0  0  0  0  0  0  0  0  0  0
    6.8249  -16.8883   25.8286 C   0  0  1  0  0  0  0  0  0  0  0  0
    7.6887  -16.0982   26.7847 C   0  0  0  0  0  0  0  0  0  0  0  0
    7.2869  -14.7015   26.9564 C   0  0  0  0  0  0  0  0  0  0  0  0
    6.1103  -14.1988   26.4299 C   0  0  0  0  0  0  0  0  0  0  0  0
    5.7589  -12.8738   26.6160 C   0  0  0  0  0  0  0  0  0  0  0  0
    6.6193  -12.0752   27.3415 C   0  0  0  0  0  0  0  0  0  0  0  0
    7.8009  -12.5699   27.8730 C   0  0  0  0  0  0  0  0  0  0  0  0
    8.1468  -13.8777   27.6889 C   0  0  0  0  0  0  0  0  0  0  0  0
    7.3260  -16.6947   24.4673 C   0  0  0  0  0  0  0  0  0  0  0  0
    8.1747  -17.4805   23.9737 O   0  0  0  0  0  0  0  0  0  0  0  0
    9.0595  -13.0851   16.5731 O   0  0  0  0  0  0  0  0  0  0  0  0
    8.5330  -13.3156   17.8551 C   0  0  0  0  0  0  0  0  0  0  0  0
    7.6576  -14.3587   18.0268 C   0  0  0  0  0  0  0  0  0  0  0  0
    7.1208  -14.6104   19.2842 C   0  0  0  0  0  0  0  0  0  0  0  0
    7.4545  -13.8262   20.3665 C   0  0  0  0  0  0  0  0  0  0  0  0
    6.8920  -14.0818   21.7092 C   0  0  0  0  0  0  0  0  0  0  0  0
    7.5322  -15.3155   22.3618 C   0  0  2  0  0  0  0  0  0  0  0  0
    6.9071  -15.6291   23.6085 N   0  0  0  0  0  0  0  0  0  0  0  0
    9.0005  -15.1095   22.4827 C   0  0  0  0  0  0  0  0  0  0  0  0
    9.5005  -14.7235   23.5710 O   0  0  0  0  0  0  0  0  0  0  0  0
    8.3353  -12.7867   20.1636 C   0  0  0  0  0  0  0  0  0  0  0  0
    8.8824  -12.5165   18.9228 C   0  0  0  0  0  0  0  0  0  0  0  0
   11.4217  -16.9626   22.4321 C   0  0  0  0  0  0  0  0  0  0  0  0
   11.3020  -15.6775   21.6227 C   0  0  2  0  0  0  0  0  0  0  0  0
    9.9108  -15.3276   21.4113 N   0  0  0  0  0  0  0  0  0  0  0  0
   12.0426  -15.7845   20.3397 C   0  0  0  0  0  0  0  0  0  0  0  0
   11.7178  -16.7054   19.3527 O   0  0  0  0  0  0  0  0  0  0  0  0
   13.0135  -15.0200   20.1066 O   0  0  0  0  0  0  0  0  0  0  0  0
  2  1  1  1
  3  4  1  0
  3  2  1  0
  4  9  1  0
  4  5  2  0
  5  6  1  0
  6  7  2  0
  8  7  1  0
  9  8  2  0
 10 19  1  0
 10  2  1  0
 11 10  2  0
 12 13  1  0
 13 14  2  0
 14 15  1  0
 16 17  1  0
 16 15  2  0
 18 17  1  1
 18 19  1  0
 20 18  1  0
 21 20  2  0
 22 16  1  0
 23 22  2  0
 23 13  1  0
 25 24  1  6
 25 26  1  0
 26 20  1  0
 27 25  1  0
 27 28  1  0
 29 27  2  0
M  END
$$$$
