FYA.pdb
     RDKit          3D

 29 30  0  0  1  0  0  0  0  0999 V2000
    5.5284  -17.1957   24.7779 N   0  0  0  0  0  0  0  0  0  0  0  0
    6.6336  -16.2239   24.7377 C   0  0  1  0  0  0  0  0  0  0  0  0
    6.5411  -15.4814   26.0509 C   0  0  0  0  0  0  0  0  0  0  0  0
    6.4632  -14.0255   25.9233 C   0  0  0  0  0  0  0  0  0  0  0  0
    7.5901  -13.2288   25.8263 C   0  0  0  0  0  0  0  0  0  0  0  0
    7.4795  -11.8556   25.7015 C   0  0  0  0  0  0  0  0  0  0  0  0
    6.2116  -11.3112   25.6776 C   0  0  0  0  0  0  0  0  0  0  0  0
    5.0761  -12.1015   25.7743 C   0  0  0  0  0  0  0  0  0  0  0  0
    5.1863  -13.4567   25.8973 C   0  0  0  0  0  0  0  0  0  0  0  0
    7.9351  -16.8885   24.6603 C   0  0  0  0  0  0  0  0  0  0  0  0
    8.3590  -17.5915   25.6129 O   0  0  0  0  0  0  0  0  0  0  0  0
    7.5449  -13.4392   18.0345 O   0  0  0  0  0  0  0  0  0  0  0  0
    8.0054  -13.6686   19.3418 C   0  0  0  0  0  0  0  0  0  0  0  0
    8.6279  -14.8602   19.6183 C   0  0  0  0  0  0  0  0  0  0  0  0
    9.0938  -15.1147   20.9031 C   0  0  0  0  0  0  0  0  0  0  0  0
    8.9404  -14.1859   21.9088 C   0  0  0  0  0  0  0  0  0  0  0  0
    9.4308  -14.4422   23.2794 C   0  0  0  0  0  0  0  0  0  0  0  0
    9.9107  -15.8915   23.4432 C   0  0  2  0  0  0  0  0  0  0  0  0
    8.8093  -16.7986   23.5305 N   0  0  0  0  0  0  0  0  0  0  0  0
   10.8327  -15.9823   24.6071 C   0  0  0  0  0  0  0  0  0  0  0  0
   12.0249  -16.3516   24.4460 O   0  0  0  0  0  0  0  0  0  0  0  0
    8.3119  -12.9992   21.6015 C   0  0  0  0  0  0  0  0  0  0  0  0
    7.8400  -12.7232   20.3315 C   0  0  0  0  0  0  0  0  0  0  0  0
   11.0217  -14.4909   28.0070 C   0  0  0  0  0  0  0  0  0  0  0  0
   11.3858  -15.6096   27.0390 C   0  0  2  0  0  0  0  0  0  0  0  0
   10.4430  -15.6682   25.9389 N   0  0  0  0  0  0  0  0  0  0  0  0
   11.4886  -16.9126   27.7443 C   0  0  0  0  0  0  0  0  0  0  0  0
   10.7328  -18.0239   27.3955 O   0  0  0  0  0  0  0  0  0  0  0  0
   12.2877  -17.0476   28.7059 O   0  0  0  0  0  0  0  0  0  0  0  0
  2  1  1  1
  3  4  1  0
  3  2  1  0
  4  9  1  0
  4  5  2  0
  5  6  1  0
  6  7  2  0
  8  7  1  0
  9  8  2  0
 10 19  1  0
 10  2  1  0
 11 10  2  0
 12 13  1  0
 13 14  2  0
 14 15  1  0
 16 17  1  0
 16 15  2  0
 18 17  1  1
 18 19  1  0
 20 18  1  0
 21 20  2  0
 22 16  1  0
 23 22  2  0
 23 13  1  0
 25 24  1  1
 25 26  1  0
 26 20  1  0
 27 25  1  0
 27 28  1  0
 29 27  2  0
M  END
$$$$
