FYA.pdb
     RDKit          3D

 29 30  0  0  1  0  0  0  0  0999 V2000
    5.3258  -17.5741   24.2797 N   0  0  0  0  0  0  0  0  0  0  0  0
    6.0237  -16.3074   24.5551 C   0  0  1  0  0  0  0  0  0  0  0  0
    5.8242  -16.0719   26.0347 C   0  0  0  0  0  0  0  0  0  0  0  0
    6.3199  -14.7827   26.5186 C   0  0  0  0  0  0  0  0  0  0  0  0
    5.7000  -13.5859   26.2063 C   0  0  0  0  0  0  0  0  0  0  0  0
    6.1930  -12.3854   26.6853 C   0  0  0  0  0  0  0  0  0  0  0  0
    7.3194  -12.4238   27.4817 C   0  0  0  0  0  0  0  0  0  0  0  0
    7.9479  -13.6183   27.8000 C   0  0  0  0  0  0  0  0  0  0  0  0
    7.4606  -14.8026   27.3269 C   0  0  0  0  0  0  0  0  0  0  0  0
    7.4577  -16.4098   24.2812 C   0  0  0  0  0  0  0  0  0  0  0  0
    8.0683  -17.4983   24.4344 O   0  0  0  0  0  0  0  0  0  0  0  0
    7.3840  -14.3906   17.6509 O   0  0  0  0  0  0  0  0  0  0  0  0
    8.0685  -14.3834   18.8778 C   0  0  0  0  0  0  0  0  0  0  0  0
    8.0325  -13.2439   19.6421 C   0  0  0  0  0  0  0  0  0  0  0  0
    8.7006  -13.2078   20.8607 C   0  0  0  0  0  0  0  0  0  0  0  0
    9.4018  -14.3024   21.3165 C   0  0  0  0  0  0  0  0  0  0  0  0
   10.1167  -14.2789   22.6099 C   0  0  0  0  0  0  0  0  0  0  0  0
    9.6557  -15.4199   23.5282 C   0  0  2  0  0  0  0  0  0  0  0  0
    8.2623  -15.3154   23.8299 N   0  0  0  0  0  0  0  0  0  0  0  0
   10.5128  -15.4584   24.7435 C   0  0  0  0  0  0  0  0  0  0  0  0
   11.7576  -15.6097   24.6386 O   0  0  0  0  0  0  0  0  0  0  0  0
    9.4200  -15.4317   20.5278 C   0  0  0  0  0  0  0  0  0  0  0  0
    8.7635  -15.4918   19.3124 C   0  0  0  0  0  0  0  0  0  0  0  0
   10.5044  -14.2009   28.1785 C   0  0  0  0  0  0  0  0  0  0  0  0
   10.8498  -15.3504   27.2403 C   0  0  2  0  0  0  0  0  0  0  0  0
   10.0009  -15.3309   26.0648 N   0  0  0  0  0  0  0  0  0  0  0  0
   10.7797  -16.6549   27.9469 C   0  0  0  0  0  0  0  0  0  0  0  0
   11.5426  -16.9500   29.0688 O   0  0  0  0  0  0  0  0  0  0  0  0
   10.0034  -17.5542   27.5347 O   0  0  0  0  0  0  0  0  0  0  0  0
  2  1  1  1
  3  4  1  0
  3  2  1  0
  4  9  1  0
  4  5  2  0
  5  6  1  0
  6  7  2  0
  8  7  1  0
  9  8  2  0
 10 19  1  0
 10  2  1  0
 11 10  2  0
 12 13  1  0
 13 14  2  0
 14 15  1  0
 16 17  1  0
 16 15  2  0
 18 17  1  6
 18 19  1  0
 20 18  1  0
 21 20  2  0
 22 16  1  0
 23 22  2  0
 23 13  1  0
 25 24  1  1
 25 26  1  0
 26 20  1  0
 27 25  1  0
 27 28  1  0
 29 27  2  0
M  END
$$$$
