FYA.pdb
     RDKit          3D

 29 30  0  0  1  0  0  0  0  0999 V2000
    5.4175  -17.6196   24.2210 N   0  0  0  0  0  0  0  0  0  0  0  0
    6.0907  -16.3389   24.4928 C   0  0  1  0  0  0  0  0  0  0  0  0
    5.9015  -16.1116   25.9750 C   0  0  0  0  0  0  0  0  0  0  0  0
    6.4888  -14.8701   26.4807 C   0  0  0  0  0  0  0  0  0  0  0  0
    7.3948  -14.8509   27.5261 C   0  0  0  0  0  0  0  0  0  0  0  0
    7.9343  -13.6591   27.9756 C   0  0  0  0  0  0  0  0  0  0  0  0
    7.5387  -12.4957   27.3474 C   0  0  0  0  0  0  0  0  0  0  0  0
    6.6310  -12.5047   26.2989 C   0  0  0  0  0  0  0  0  0  0  0  0
    6.0992  -13.6815   25.8560 C   0  0  0  0  0  0  0  0  0  0  0  0
    7.5236  -16.4094   24.2037 C   0  0  0  0  0  0  0  0  0  0  0  0
    8.1642  -17.4785   24.3705 O   0  0  0  0  0  0  0  0  0  0  0  0
    7.2601  -14.2357   17.6704 O   0  0  0  0  0  0  0  0  0  0  0  0
    7.9819  -14.2515   18.8756 C   0  0  0  0  0  0  0  0  0  0  0  0
    7.9995  -13.1147   19.6444 C   0  0  0  0  0  0  0  0  0  0  0  0
    8.7055  -13.1012   20.8419 C   0  0  0  0  0  0  0  0  0  0  0  0
    9.3914  -14.2157   21.2721 C   0  0  0  0  0  0  0  0  0  0  0  0
   10.1461  -14.2163   22.5430 C   0  0  0  0  0  0  0  0  0  0  0  0
    9.6987  -15.3618   23.4623 C   0  0  2  0  0  0  0  0  0  0  0  0
    8.2941  -15.3036   23.7218 N   0  0  0  0  0  0  0  0  0  0  0  0
   10.5202  -15.3549   24.7025 C   0  0  0  0  0  0  0  0  0  0  0  0
   11.7554  -15.5890   24.6479 O   0  0  0  0  0  0  0  0  0  0  0  0
    9.3556  -15.3418   20.4795 C   0  0  0  0  0  0  0  0  0  0  0  0
    8.6606  -15.3796   19.2848 C   0  0  0  0  0  0  0  0  0  0  0  0
   10.3776  -13.9420   28.1198 C   0  0  0  0  0  0  0  0  0  0  0  0
   10.7976  -15.0761   27.1934 C   0  0  2  0  0  0  0  0  0  0  0  0
    9.9835  -15.0918   25.9936 N   0  0  0  0  0  0  0  0  0  0  0  0
   10.7611  -16.3824   27.8992 C   0  0  0  0  0  0  0  0  0  0  0  0
   10.0061  -17.4607   27.4574 O   0  0  0  0  0  0  0  0  0  0  0  0
   11.4339  -16.5513   28.9481 O   0  0  0  0  0  0  0  0  0  0  0  0
  2  1  1  1
  3  4  1  0
  3  2  1  0
  4  9  1  0
  4  5  2  0
  5  6  1  0
  6  7  2  0
  8  7  1  0
  9  8  2  0
 10 19  1  0
 10  2  1  0
 11 10  2  0
 12 13  1  0
 13 14  2  0
 14 15  1  0
 16 17  1  0
 16 15  2  0
 18 17  1  6
 18 19  1  0
 20 18  1  0
 21 20  2  0
 22 16  1  0
 23 22  2  0
 23 13  1  0
 25 24  1  1
 25 26  1  0
 26 20  1  0
 27 25  1  0
 27 28  1  0
 29 27  2  0
M  END
$$$$
