FYA.pdb
     RDKit          3D

 29 30  0  0  1  0  0  0  0  0999 V2000
    5.5730  -17.6666   24.2541 N   0  0  0  0  0  0  0  0  0  0  0  0
    6.2081  -16.3465   24.4003 C   0  0  1  0  0  0  0  0  0  0  0  0
    6.0052  -15.9804   25.8526 C   0  0  0  0  0  0  0  0  0  0  0  0
    6.3468  -14.5968   26.1854 C   0  0  0  0  0  0  0  0  0  0  0  0
    7.3529  -14.2764   27.0795 C   0  0  0  0  0  0  0  0  0  0  0  0
    7.6528  -12.9570   27.3671 C   0  0  0  0  0  0  0  0  0  0  0  0
    6.9164  -11.9765   26.7340 C   0  0  0  0  0  0  0  0  0  0  0  0
    5.9059  -12.2877   25.8365 C   0  0  0  0  0  0  0  0  0  0  0  0
    5.6108  -13.5902   25.5532 C   0  0  0  0  0  0  0  0  0  0  0  0
    7.6439  -16.4038   24.1226 C   0  0  0  0  0  0  0  0  0  0  0  0
    8.2933  -17.4665   24.2962 O   0  0  0  0  0  0  0  0  0  0  0  0
    7.1851  -13.8964   17.6615 O   0  0  0  0  0  0  0  0  0  0  0  0
    7.9475  -13.9817   18.8386 C   0  0  0  0  0  0  0  0  0  0  0  0
    7.7645  -13.0284   19.8089 C   0  0  0  0  0  0  0  0  0  0  0  0
    8.5049  -13.0876   20.9840 C   0  0  0  0  0  0  0  0  0  0  0  0
    9.4241  -14.0923   21.1920 C   0  0  0  0  0  0  0  0  0  0  0  0
   10.2184  -14.1683   22.4361 C   0  0  0  0  0  0  0  0  0  0  0  0
    9.7937  -15.3626   23.3026 C   0  0  2  0  0  0  0  0  0  0  0  0
    8.4076  -15.2915   23.6449 N   0  0  0  0  0  0  0  0  0  0  0  0
   10.6826  -15.4564   24.4917 C   0  0  0  0  0  0  0  0  0  0  0  0
   11.9005  -15.7414   24.3538 O   0  0  0  0  0  0  0  0  0  0  0  0
    9.5860  -15.0347   20.2004 C   0  0  0  0  0  0  0  0  0  0  0  0
    8.8614  -14.9971   19.0233 C   0  0  0  0  0  0  0  0  0  0  0  0
   10.7498  -14.3172   28.0330 C   0  0  0  0  0  0  0  0  0  0  0  0
   11.1034  -15.3559   26.9761 C   0  0  2  0  0  0  0  0  0  0  0  0
   10.2318  -15.2376   25.8233 N   0  0  0  0  0  0  0  0  0  0  0  0
   11.0771  -16.7271   27.5462 C   0  0  0  0  0  0  0  0  0  0  0  0
   10.2472  -17.7310   27.0653 O   0  0  0  0  0  0  0  0  0  0  0  0
   11.8292  -17.0239   28.5093 O   0  0  0  0  0  0  0  0  0  0  0  0
  2  1  1  1
  3  4  1  0
  3  2  1  0
  4  9  1  0
  4  5  2  0
  5  6  1  0
  6  7  2  0
  8  7  1  0
  9  8  2  0
 10 19  1  0
 10  2  1  0
 11 10  2  0
 12 13  1  0
 13 14  2  0
 14 15  1  0
 16 17  1  0
 16 15  2  0
 18 17  1  1
 18 19  1  0
 20 18  1  0
 21 20  2  0
 22 16  1  0
 23 22  2  0
 23 13  1  0
 25 24  1  1
 25 26  1  0
 26 20  1  0
 27 25  1  0
 27 28  1  0
 29 27  2  0
M  END
$$$$
