FYA.pdb
     RDKit          3D

 29 30  0  0  1  0  0  0  0  0999 V2000
    8.9435  -17.3502   26.5378 N   0  0  0  0  0  0  0  0  0  0  0  0
    7.5078  -17.1776   26.2618 C   0  0  1  0  0  0  0  0  0  0  0  0
    7.1108  -15.9464   27.0434 C   0  0  0  0  0  0  0  0  0  0  0  0
    8.2257  -15.2419   27.6779 C   0  0  0  0  0  0  0  0  0  0  0  0
    8.3575  -13.8656   27.6274 C   0  0  0  0  0  0  0  0  0  0  0  0
    9.4219  -13.2317   28.2430 C   0  0  0  0  0  0  0  0  0  0  0  0
   10.3431  -14.0170   28.9058 C   0  0  0  0  0  0  0  0  0  0  0  0
   10.2196  -15.3972   28.9618 C   0  0  0  0  0  0  0  0  0  0  0  0
    9.1688  -16.0218   28.3540 C   0  0  0  0  0  0  0  0  0  0  0  0
    7.2558  -16.9376   24.8403 C   0  0  0  0  0  0  0  0  0  0  0  0
    7.0100  -17.8910   24.0580 O   0  0  0  0  0  0  0  0  0  0  0  0
    8.6132  -13.0296   17.0241 O   0  0  0  0  0  0  0  0  0  0  0  0
    8.2943  -13.2456   18.3752 C   0  0  0  0  0  0  0  0  0  0  0  0
    7.4432  -14.2748   18.6917 C   0  0  0  0  0  0  0  0  0  0  0  0
    7.1098  -14.5120   20.0203 C   0  0  0  0  0  0  0  0  0  0  0  0
    7.6223  -13.7273   21.0299 C   0  0  0  0  0  0  0  0  0  0  0  0
    7.2772  -13.9676   22.4469 C   0  0  0  0  0  0  0  0  0  0  0  0
    7.6530  -15.3908   22.8839 C   0  0  2  0  0  0  0  0  0  0  0  0
    7.2670  -15.6394   24.2376 N   0  0  0  0  0  0  0  0  0  0  0  0
    9.1026  -15.6199   22.6408 C   0  0  0  0  0  0  0  0  0  0  0  0
    9.5305  -15.7982   21.4709 O   0  0  0  0  0  0  0  0  0  0  0  0
    8.4738  -12.7020   20.6818 C   0  0  0  0  0  0  0  0  0  0  0  0
    8.8201  -12.4464   19.3678 C   0  0  0  0  0  0  0  0  0  0  0  0
   12.3309  -15.2688   24.5494 C   0  0  0  0  0  0  0  0  0  0  0  0
   11.4862  -15.8607   23.4283 C   0  0  2  0  0  0  0  0  0  0  0  0
   10.0735  -15.6522   23.6803 N   0  0  0  0  0  0  0  0  0  0  0  0
   11.8016  -17.2977   23.2247 C   0  0  0  0  0  0  0  0  0  0  0  0
   10.8415  -18.2990   23.2824 O   0  0  0  0  0  0  0  0  0  0  0  0
   12.9834  -17.6562   22.9873 O   0  0  0  0  0  0  0  0  0  0  0  0
  2  1  1  6
  3  4  1  0
  3  2  1  0
  4  9  1  0
  4  5  2  0
  5  6  1  0
  6  7  2  0
  8  7  1  0
  9  8  2  0
 10 19  1  0
 10  2  1  0
 11 10  2  0
 12 13  1  0
 13 14  2  0
 14 15  1  0
 16 17  1  0
 16 15  2  0
 18 17  1  1
 18 19  1  0
 20 18  1  0
 21 20  2  0
 22 16  1  0
 23 22  2  0
 23 13  1  0
 25 24  1  1
 25 26  1  0
 26 20  1  0
 27 25  1  0
 27 28  1  0
 29 27  2  0
M  END
$$$$
