FYA.pdb
     RDKit          3D

 29 30  0  0  1  0  0  0  0  0999 V2000
    5.3894  -17.4130   24.3060 N   0  0  0  0  0  0  0  0  0  0  0  0
    6.1253  -16.1642   24.5632 C   0  0  1  0  0  0  0  0  0  0  0  0
    5.9642  -15.9209   26.0462 C   0  0  0  0  0  0  0  0  0  0  0  0
    6.5499  -14.6682   26.5251 C   0  0  0  0  0  0  0  0  0  0  0  0
    7.8916  -14.5507   26.8413 C   0  0  0  0  0  0  0  0  0  0  0  0
    8.4131  -13.3492   27.2866 C   0  0  0  0  0  0  0  0  0  0  0  0
    7.5517  -12.2774   27.4037 C   0  0  0  0  0  0  0  0  0  0  0  0
    6.2053  -12.3854   27.0894 C   0  0  0  0  0  0  0  0  0  0  0  0
    5.6916  -13.5715   26.6500 C   0  0  0  0  0  0  0  0  0  0  0  0
    7.5498  -16.3038   24.2583 C   0  0  0  0  0  0  0  0  0  0  0  0
    8.1358  -17.4071   24.4015 O   0  0  0  0  0  0  0  0  0  0  0  0
    7.5193  -14.2676   17.6791 O   0  0  0  0  0  0  0  0  0  0  0  0
    8.2161  -14.2772   18.8990 C   0  0  0  0  0  0  0  0  0  0  0  0
    7.9330  -13.3032   19.8236 C   0  0  0  0  0  0  0  0  0  0  0  0
    8.6068  -13.2878   21.0395 C   0  0  0  0  0  0  0  0  0  0  0  0
    9.5590  -14.2389   21.3334 C   0  0  0  0  0  0  0  0  0  0  0  0
   10.2834  -14.2354   22.6218 C   0  0  0  0  0  0  0  0  0  0  0  0
    9.7779  -15.3456   23.5543 C   0  0  2  0  0  0  0  0  0  0  0  0
    8.3720  -15.2314   23.7863 N   0  0  0  0  0  0  0  0  0  0  0  0
   10.5767  -15.3440   24.8092 C   0  0  0  0  0  0  0  0  0  0  0  0
   11.7931  -15.6657   24.7887 O   0  0  0  0  0  0  0  0  0  0  0  0
    9.8217  -15.2039   20.3860 C   0  0  0  0  0  0  0  0  0  0  0  0
    9.1649  -15.2400   19.1699 C   0  0  0  0  0  0  0  0  0  0  0  0
   10.3231  -13.8302   28.2156 C   0  0  0  0  0  0  0  0  0  0  0  0
   10.8463  -14.9118   27.2790 C   0  0  2  0  0  0  0  0  0  0  0  0
   10.0380  -14.9904   26.0777 N   0  0  0  0  0  0  0  0  0  0  0  0
   10.9292  -16.2228   27.9720 C   0  0  0  0  0  0  0  0  0  0  0  0
   10.2890  -17.3650   27.5101 O   0  0  0  0  0  0  0  0  0  0  0  0
   11.6024  -16.3362   29.0281 O   0  0  0  0  0  0  0  0  0  0  0  0
  2  1  1  1
  3  4  1  0
  3  2  1  0
  4  9  1  0
  4  5  2  0
  5  6  1  0
  6  7  2  0
  8  7  1  0
  9  8  2  0
 10 19  1  0
 10  2  1  0
 11 10  2  0
 12 13  1  0
 13 14  2  0
 14 15  1  0
 16 17  1  0
 16 15  2  0
 18 17  1  6
 18 19  1  0
 20 18  1  0
 21 20  2  0
 22 16  1  0
 23 22  2  0
 23 13  1  0
 25 24  1  1
 25 26  1  0
 26 20  1  0
 27 25  1  0
 27 28  1  0
 29 27  2  0
M  END
$$$$
