FYA.pdb
     RDKit          3D

 29 30  0  0  1  0  0  0  0  0999 V2000
   11.6642  -16.2381   21.2940 N   0  0  0  0  0  0  0  0  0  0  0  0
   10.5751  -15.5962   22.0484 C   0  0  1  0  0  0  0  0  0  0  0  0
    9.3106  -16.0305   21.3436 C   0  0  0  0  0  0  0  0  0  0  0  0
    8.3999  -14.9382   20.9981 C   0  0  0  0  0  0  0  0  0  0  0  0
    8.8133  -13.8255   20.2872 C   0  0  0  0  0  0  0  0  0  0  0  0
    7.9240  -12.8135   19.9732 C   0  0  0  0  0  0  0  0  0  0  0  0
    6.6165  -12.9523   20.3923 C   0  0  0  0  0  0  0  0  0  0  0  0
    6.1927  -14.0637   21.1054 C   0  0  0  0  0  0  0  0  0  0  0  0
    7.0711  -15.0620   21.4147 C   0  0  0  0  0  0  0  0  0  0  0  0
   10.5290  -16.0637   23.4344 C   0  0  0  0  0  0  0  0  0  0  0  0
   11.5759  -16.4281   24.0282 O   0  0  0  0  0  0  0  0  0  0  0  0
    6.6117  -10.4243   25.8673 O   0  0  0  0  0  0  0  0  0  0  0  0
    6.9126  -11.7950   25.9340 C   0  0  0  0  0  0  0  0  0  0  0  0
    8.0310  -12.1880   26.6257 C   0  0  0  0  0  0  0  0  0  0  0  0
    8.3536  -13.5377   26.7085 C   0  0  0  0  0  0  0  0  0  0  0  0
    7.5652  -14.4924   26.1047 C   0  0  0  0  0  0  0  0  0  0  0  0
    7.8953  -15.9309   26.1843 C   0  0  0  0  0  0  0  0  0  0  0  0
    9.3006  -16.2168   25.6357 C   0  0  2  0  0  0  0  0  0  0  0  0
    9.3276  -16.1439   24.2083 N   0  0  0  0  0  0  0  0  0  0  0  0
    9.7843  -17.5218   26.1609 C   0  0  0  0  0  0  0  0  0  0  0  0
    9.8700  -17.7153   27.4013 O   0  0  0  0  0  0  0  0  0  0  0  0
    6.4492  -14.0680   25.4176 C   0  0  0  0  0  0  0  0  0  0  0  0
    6.1078  -12.7316   25.3212 C   0  0  0  0  0  0  0  0  0  0  0  0
   11.4122  -20.6606   24.8398 C   0  0  0  0  0  0  0  0  0  0  0  0
   10.5587  -19.9012   25.8476 C   0  0  2  0  0  0  0  0  0  0  0  0
   10.1709  -18.6057   25.3243 N   0  0  0  0  0  0  0  0  0  0  0  0
   11.2565  -19.7798   27.1531 C   0  0  0  0  0  0  0  0  0  0  0  0
   11.0746  -20.6792   28.1952 O   0  0  0  0  0  0  0  0  0  0  0  0
   12.0551  -18.8296   27.3551 O   0  0  0  0  0  0  0  0  0  0  0  0
  2  1  1  6
  3  4  1  0
  3  2  1  0
  4  9  1  0
  4  5  2  0
  5  6  1  0
  6  7  2  0
  8  7  1  0
  9  8  2  0
 10 19  1  0
 10  2  1  0
 11 10  2  0
 12 13  1  0
 13 14  2  0
 14 15  1  0
 16 17  1  0
 16 15  2  0
 18 17  1  6
 18 19  1  0
 20 18  1  0
 21 20  2  0
 22 16  1  0
 23 22  2  0
 23 13  1  0
 25 24  1  6
 25 26  1  0
 26 20  1  0
 27 25  1  0
 27 28  1  0
 29 27  2  0
M  END
$$$$
