FYA.pdb
     RDKit          3D

 29 30  0  0  1  0  0  0  0  0999 V2000
    5.5500  -17.6490   24.3936 N   0  0  0  0  0  0  0  0  0  0  0  0
    6.1735  -16.3273   24.5712 C   0  0  1  0  0  0  0  0  0  0  0  0
    6.0180  -16.0231   26.0435 C   0  0  0  0  0  0  0  0  0  0  0  0
    6.4494  -14.6812   26.4372 C   0  0  0  0  0  0  0  0  0  0  0  0
    5.6742  -13.5576   26.2115 C   0  0  0  0  0  0  0  0  0  0  0  0
    6.1109  -12.3043   26.6016 C   0  0  0  0  0  0  0  0  0  0  0  0
    7.3411  -12.2149   27.2204 C   0  0  0  0  0  0  0  0  0  0  0  0
    8.1254  -13.3352   27.4508 C   0  0  0  0  0  0  0  0  0  0  0  0
    7.6935  -14.5717   27.0656 C   0  0  0  0  0  0  0  0  0  0  0  0
    7.5990  -16.3534   24.2412 C   0  0  0  0  0  0  0  0  0  0  0  0
    8.2711  -17.4092   24.3641 O   0  0  0  0  0  0  0  0  0  0  0  0
    7.5955  -14.1390   17.4536 O   0  0  0  0  0  0  0  0  0  0  0  0
    8.2191  -14.1309   18.7125 C   0  0  0  0  0  0  0  0  0  0  0  0
    8.1398  -12.9933   19.4764 C   0  0  0  0  0  0  0  0  0  0  0  0
    8.7473  -12.9565   20.7263 C   0  0  0  0  0  0  0  0  0  0  0  0
    9.4312  -14.0485   21.2136 C   0  0  0  0  0  0  0  0  0  0  0  0
   10.0819  -14.0242   22.5405 C   0  0  0  0  0  0  0  0  0  0  0  0
    9.7022  -15.2552   23.3759 C   0  0  2  0  0  0  0  0  0  0  0  0
    8.3273  -15.2168   23.7655 N   0  0  0  0  0  0  0  0  0  0  0  0
   10.6310  -15.3790   24.5312 C   0  0  0  0  0  0  0  0  0  0  0  0
   11.8684  -15.5061   24.3410 O   0  0  0  0  0  0  0  0  0  0  0  0
    9.4939  -15.1759   20.4245 C   0  0  0  0  0  0  0  0  0  0  0  0
    8.8979  -15.2367   19.1784 C   0  0  0  0  0  0  0  0  0  0  0  0
   10.9806  -14.3449   27.9723 C   0  0  0  0  0  0  0  0  0  0  0  0
   11.1113  -15.5130   27.0032 C   0  0  2  0  0  0  0  0  0  0  0  0
   10.1986  -15.3627   25.8865 N   0  0  0  0  0  0  0  0  0  0  0  0
   10.9164  -16.8094   27.7013 C   0  0  0  0  0  0  0  0  0  0  0  0
   11.6978  -17.2163   28.7744 O   0  0  0  0  0  0  0  0  0  0  0  0
   10.0102  -17.5970   27.3270 O   0  0  0  0  0  0  0  0  0  0  0  0
  2  1  1  1
  3  4  1  0
  3  2  1  0
  4  9  1  0
  4  5  2  0
  5  6  1  0
  6  7  2  0
  8  7  1  0
  9  8  2  0
 10 19  1  0
 10  2  1  0
 11 10  2  0
 12 13  1  0
 13 14  2  0
 14 15  1  0
 16 17  1  0
 16 15  2  0
 18 17  1  1
 18 19  1  0
 20 18  1  0
 21 20  2  0
 22 16  1  0
 23 22  2  0
 23 13  1  0
 25 24  1  1
 25 26  1  0
 26 20  1  0
 27 25  1  0
 27 28  1  0
 29 27  2  0
M  END
$$$$
