FYA.pdb
     RDKit          3D

 29 30  0  0  1  0  0  0  0  0999 V2000
    5.3744  -17.5577   24.1510 N   0  0  0  0  0  0  0  0  0  0  0  0
    6.1366  -16.3341   24.4495 C   0  0  1  0  0  0  0  0  0  0  0  0
    6.1506  -16.2478   25.9584 C   0  0  0  0  0  0  0  0  0  0  0  0
    6.6808  -14.9924   26.4918 C   0  0  0  0  0  0  0  0  0  0  0  0
    5.9842  -13.7998   26.4106 C   0  0  0  0  0  0  0  0  0  0  0  0
    6.5135  -12.6322   26.9304 C   0  0  0  0  0  0  0  0  0  0  0  0
    7.7548  -12.6988   27.5296 C   0  0  0  0  0  0  0  0  0  0  0  0
    8.4608  -13.8894   27.6157 C   0  0  0  0  0  0  0  0  0  0  0  0
    7.9376  -15.0412   27.1026 C   0  0  0  0  0  0  0  0  0  0  0  0
    7.5155  -16.4252   23.9677 C   0  0  0  0  0  0  0  0  0  0  0  0
    8.0854  -17.5397   23.8479 O   0  0  0  0  0  0  0  0  0  0  0  0
    7.3364  -13.9911   17.3216 O   0  0  0  0  0  0  0  0  0  0  0  0
    7.9940  -14.0080   18.5630 C   0  0  0  0  0  0  0  0  0  0  0  0
    8.8898  -15.0164   18.8169 C   0  0  0  0  0  0  0  0  0  0  0  0
    9.5554  -15.0585   20.0367 C   0  0  0  0  0  0  0  0  0  0  0  0
    9.3296  -14.1000   21.0001 C   0  0  0  0  0  0  0  0  0  0  0  0
   10.0298  -14.1317   22.3013 C   0  0  0  0  0  0  0  0  0  0  0  0
    9.6490  -15.3770   23.1148 C   0  0  2  0  0  0  0  0  0  0  0  0
    8.3083  -15.2906   23.6032 N   0  0  0  0  0  0  0  0  0  0  0  0
   10.6490  -15.5912   24.1951 C   0  0  0  0  0  0  0  0  0  0  0  0
   11.8520  -15.2653   24.0212 O   0  0  0  0  0  0  0  0  0  0  0  0
    8.4251  -13.1004   20.7168 C   0  0  0  0  0  0  0  0  0  0  0  0
    7.7510  -13.0372   19.5112 C   0  0  0  0  0  0  0  0  0  0  0  0
   11.4069  -14.6042   27.0088 C   0  0  0  0  0  0  0  0  0  0  0  0
   11.1981  -16.0600   26.6113 C   0  0  2  0  0  0  0  0  0  0  0  0
   10.3249  -16.1606   25.4580 N   0  0  0  0  0  0  0  0  0  0  0  0
   10.6898  -16.8578   27.7564 C   0  0  0  0  0  0  0  0  0  0  0  0
    9.4976  -17.5683   27.7140 O   0  0  0  0  0  0  0  0  0  0  0  0
   11.3463  -16.9122   28.8276 O   0  0  0  0  0  0  0  0  0  0  0  0
  2  1  1  1
  3  4  1  0
  3  2  1  0
  4  9  1  0
  4  5  2  0
  5  6  1  0
  6  7  2  0
  8  7  1  0
  9  8  2  0
 10 19  1  0
 10  2  1  0
 11 10  2  0
 12 13  1  0
 13 14  2  0
 14 15  1  0
 16 17  1  0
 16 15  2  0
 18 17  1  1
 18 19  1  0
 20 18  1  0
 21 20  2  0
 22 16  1  0
 23 22  2  0
 23 13  1  0
 25 24  1  1
 25 26  1  0
 26 20  1  0
 27 25  1  0
 27 28  1  0
 29 27  2  0
M  END
$$$$
