FYA.pdb
     RDKit          3D

 29 30  0  0  1  0  0  0  0  0999 V2000
    7.1247  -18.9495   26.9764 N   0  0  0  0  0  0  0  0  0  0  0  0
    7.5263  -17.5431   26.8085 C   0  0  1  0  0  0  0  0  0  0  0  0
    8.8277  -17.4213   27.5674 C   0  0  0  0  0  0  0  0  0  0  0  0
    9.2781  -16.0463   27.7874 C   0  0  0  0  0  0  0  0  0  0  0  0
    8.5920  -14.9531   27.2889 C   0  0  0  0  0  0  0  0  0  0  0  0
    9.0436  -13.6662   27.5205 C   0  0  0  0  0  0  0  0  0  0  0  0
   10.1970  -13.5123   28.2625 C   0  0  0  0  0  0  0  0  0  0  0  0
   10.8916  -14.6019   28.7662 C   0  0  0  0  0  0  0  0  0  0  0  0
   10.4451  -15.8715   28.5372 C   0  0  0  0  0  0  0  0  0  0  0  0
    7.7652  -17.2134   25.4028 C   0  0  0  0  0  0  0  0  0  0  0  0
    8.2671  -18.0578   24.6178 O   0  0  0  0  0  0  0  0  0  0  0  0
    7.4435  -13.1047   17.5729 O   0  0  0  0  0  0  0  0  0  0  0  0
    7.3894  -13.3859   18.9483 C   0  0  0  0  0  0  0  0  0  0  0  0
    8.1896  -12.6632   19.7974 C   0  0  0  0  0  0  0  0  0  0  0  0
    8.1571  -12.9197   21.1634 C   0  0  0  0  0  0  0  0  0  0  0  0
    7.3306  -13.8923   21.6817 C   0  0  0  0  0  0  0  0  0  0  0  0
    7.2850  -14.1760   23.1315 C   0  0  0  0  0  0  0  0  0  0  0  0
    7.5816  -15.6536   23.4251 C   0  0  2  0  0  0  0  0  0  0  0  0
    7.4583  -15.9429   24.8196 N   0  0  0  0  0  0  0  0  0  0  0  0
    8.9149  -16.0135   22.8720 C   0  0  0  0  0  0  0  0  0  0  0  0
    9.0552  -16.2266   21.6398 O   0  0  0  0  0  0  0  0  0  0  0  0
    6.5389  -14.6012   20.8051 C   0  0  0  0  0  0  0  0  0  0  0  0
    6.5537  -14.3645   19.4429 C   0  0  0  0  0  0  0  0  0  0  0  0
   11.7245  -15.2973   22.0582 C   0  0  0  0  0  0  0  0  0  0  0  0
   11.4024  -16.3547   23.1065 C   0  0  2  0  0  0  0  0  0  0  0  0
   10.0850  -16.1374   23.6719 N   0  0  0  0  0  0  0  0  0  0  0  0
   12.4506  -16.4000   24.1578 C   0  0  0  0  0  0  0  0  0  0  0  0
   12.8626  -15.2783   24.8649 O   0  0  0  0  0  0  0  0  0  0  0  0
   13.0099  -17.4894   24.4439 O   0  0  0  0  0  0  0  0  0  0  0  0
  2  1  1  6
  3  4  1  0
  3  2  1  0
  4  9  1  0
  4  5  2  0
  5  6  1  0
  6  7  2  0
  8  7  1  0
  9  8  2  0
 10 19  1  0
 10  2  1  0
 11 10  2  0
 12 13  1  0
 13 14  2  0
 14 15  1  0
 16 17  1  0
 16 15  2  0
 18 17  1  1
 18 19  1  0
 20 18  1  0
 21 20  2  0
 22 16  1  0
 23 22  2  0
 23 13  1  0
 25 24  1  6
 25 26  1  0
 26 20  1  0
 27 25  1  0
 27 28  1  0
 29 27  2  0
M  END
$$$$
