FYA.pdb
     RDKit          3D

 29 30  0  0  1  0  0  0  0  0999 V2000
    8.7903  -15.5883   21.1226 N   0  0  0  0  0  0  0  0  0  0  0  0
    8.6527  -14.8286   22.3760 C   0  0  1  0  0  0  0  0  0  0  0  0
    7.1616  -14.6872   22.5788 C   0  0  0  0  0  0  0  0  0  0  0  0
    6.7782  -13.9121   23.7595 C   0  0  0  0  0  0  0  0  0  0  0  0
    6.9057  -12.5356   23.8158 C   0  0  0  0  0  0  0  0  0  0  0  0
    6.5284  -11.8338   24.9466 C   0  0  0  0  0  0  0  0  0  0  0  0
    6.0231  -12.5518   26.0113 C   0  0  0  0  0  0  0  0  0  0  0  0
    5.8917  -13.9316   25.9644 C   0  0  0  0  0  0  0  0  0  0  0  0
    6.2642  -14.6233   24.8480 C   0  0  0  0  0  0  0  0  0  0  0  0
    9.2184  -15.5553   23.5134 C   0  0  0  0  0  0  0  0  0  0  0  0
    9.6070  -16.7449   23.3909 O   0  0  0  0  0  0  0  0  0  0  0  0
   12.3600  -17.3903   31.5942 O   0  0  0  0  0  0  0  0  0  0  0  0
   11.8430  -16.7119   30.4778 C   0  0  0  0  0  0  0  0  0  0  0  0
   12.5561  -16.7396   29.3054 C   0  0  0  0  0  0  0  0  0  0  0  0
   12.0689  -16.0772   28.1844 C   0  0  0  0  0  0  0  0  0  0  0  0
   10.8760  -15.3898   28.2309 C   0  0  0  0  0  0  0  0  0  0  0  0
   10.3454  -14.6811   27.0473 C   0  0  0  0  0  0  0  0  0  0  0  0
   10.0345  -15.6546   25.9013 C   0  0  2  0  0  0  0  0  0  0  0  0
    9.3728  -14.9931   24.8206 N   0  0  0  0  0  0  0  0  0  0  0  0
    9.2692  -16.8162   26.4284 C   0  0  0  0  0  0  0  0  0  0  0  0
    9.7550  -17.5374   27.3380 O   0  0  0  0  0  0  0  0  0  0  0  0
   10.1826  -15.3797   29.4211 C   0  0  0  0  0  0  0  0  0  0  0  0
   10.6465  -16.0307   30.5493 C   0  0  0  0  0  0  0  0  0  0  0  0
    6.5394  -19.0703   25.3585 C   0  0  0  0  0  0  0  0  0  0  0  0
    7.2412  -18.3142   26.4795 C   0  0  2  0  0  0  0  0  0  0  0  0
    7.9775  -17.1800   25.9558 N   0  0  0  0  0  0  0  0  0  0  0  0
    8.1152  -19.2199   27.2679 C   0  0  0  0  0  0  0  0  0  0  0  0
    9.4113  -19.5414   26.8877 O   0  0  0  0  0  0  0  0  0  0  0  0
    7.6910  -19.7353   28.3336 O   0  0  0  0  0  0  0  0  0  0  0  0
  2  1  1  6
  3  4  1  0
  3  2  1  0
  4  9  1  0
  4  5  2  0
  5  6  1  0
  6  7  2  0
  8  7  1  0
  9  8  2  0
 10 19  1  0
 10  2  1  0
 11 10  2  0
 12 13  1  0
 13 14  2  0
 14 15  1  0
 16 17  1  0
 16 15  2  0
 18 17  1  1
 18 19  1  0
 20 18  1  0
 21 20  2  0
 22 16  1  0
 23 22  2  0
 23 13  1  0
 25 24  1  6
 25 26  1  0
 26 20  1  0
 27 25  1  0
 27 28  1  0
 29 27  2  0
M  END
$$$$
