FYA.pdb
     RDKit          3D

 29 30  0  0  1  0  0  0  0  0999 V2000
    9.7978  -17.5309   19.8570 N   0  0  0  0  0  0  0  0  0  0  0  0
    9.5453  -16.3223   20.6587 C   0  0  1  0  0  0  0  0  0  0  0  0
    8.0907  -15.9940   20.4125 C   0  0  0  0  0  0  0  0  0  0  0  0
    7.7790  -14.5640   20.4213 C   0  0  0  0  0  0  0  0  0  0  0  0
    8.0592  -13.7380   19.3473 C   0  0  0  0  0  0  0  0  0  0  0  0
    7.7462  -12.3911   19.3876 C   0  0  0  0  0  0  0  0  0  0  0  0
    7.1477  -11.9031   20.5314 C   0  0  0  0  0  0  0  0  0  0  0  0
    6.8631  -12.7231   21.6130 C   0  0  0  0  0  0  0  0  0  0  0  0
    7.1723  -14.0522   21.5722 C   0  0  0  0  0  0  0  0  0  0  0  0
    9.7391  -16.5715   22.0878 C   0  0  0  0  0  0  0  0  0  0  0  0
   10.2924  -17.6266   22.4901 O   0  0  0  0  0  0  0  0  0  0  0  0
   10.6826  -15.2248   30.7696 O   0  0  0  0  0  0  0  0  0  0  0  0
   10.2882  -15.0875   29.4281 C   0  0  0  0  0  0  0  0  0  0  0  0
    9.4522  -16.0339   28.8903 C   0  0  0  0  0  0  0  0  0  0  0  0
    9.0454  -15.9239   27.5655 C   0  0  0  0  0  0  0  0  0  0  0  0
    9.4696  -14.8752   26.7793 C   0  0  0  0  0  0  0  0  0  0  0  0
    9.0454  -14.7449   25.3695 C   0  0  0  0  0  0  0  0  0  0  0  0
    9.8284  -15.6987   24.4559 C   0  0  2  0  0  0  0  0  0  0  0  0
    9.3289  -15.6653   23.1169 N   0  0  0  0  0  0  0  0  0  0  0  0
    9.8263  -17.0652   25.0438 C   0  0  0  0  0  0  0  0  0  0  0  0
    8.7416  -17.6193   25.3602 O   0  0  0  0  0  0  0  0  0  0  0  0
   10.3081  -13.9409   27.3465 C   0  0  0  0  0  0  0  0  0  0  0  0
   10.7263  -14.0288   28.6615 C   0  0  0  0  0  0  0  0  0  0  0  0
   11.8084  -20.1158   25.0135 C   0  0  0  0  0  0  0  0  0  0  0  0
   10.9962  -19.1445   25.8607 C   0  0  2  0  0  0  0  0  0  0  0  0
   11.0117  -17.8155   25.2810 N   0  0  0  0  0  0  0  0  0  0  0  0
   11.4732  -19.1359   27.2672 C   0  0  0  0  0  0  0  0  0  0  0  0
   12.0026  -18.0081   27.8801 O   0  0  0  0  0  0  0  0  0  0  0  0
   11.4081  -20.1825   27.9614 O   0  0  0  0  0  0  0  0  0  0  0  0
  2  1  1  6
  3  4  1  0
  3  2  1  0
  4  9  1  0
  4  5  2  0
  5  6  1  0
  6  7  2  0
  8  7  1  0
  9  8  2  0
 10 19  1  0
 10  2  1  0
 11 10  2  0
 12 13  1  0
 13 14  2  0
 14 15  1  0
 16 17  1  0
 16 15  2  0
 18 17  1  1
 18 19  1  0
 20 18  1  0
 21 20  2  0
 22 16  1  0
 23 22  2  0
 23 13  1  0
 25 24  1  6
 25 26  1  0
 26 20  1  0
 27 25  1  0
 27 28  1  0
 29 27  2  0
M  END
$$$$
