VCT.pdb
     RDKit          3D

 21 20  0  0  1  0  0  0  0  0999 V2000
    9.1965  -17.4688   14.7204 C   0  0  0  0  0  0  0  0  0  0  0  0
    7.8000  -16.8251   14.7189 C   0  0  2  0  0  0  0  0  0  0  0  0
    7.2266  -17.1504   13.3588 C   0  0  0  0  0  0  0  0  0  0  0  0
    7.9637  -15.3286   14.9308 C   0  0  2  0  0  0  0  0  0  0  0  0
    8.9342  -14.8984   13.9192 N   0  0  0  0  0  0  0  0  0  0  0  0
    8.4911  -14.9685   16.2463 C   0  0  0  0  0  0  0  0  0  0  0  0
    9.7313  -15.1608   16.4797 O   0  0  0  0  0  0  0  0  0  0  0  0
    7.7690  -14.4132   17.3275 N   0  0  0  0  0  0  0  0  0  0  0  0
    8.3396  -14.1651   18.6384 C   0  0  1  0  0  0  0  0  0  0  0  0
    7.2741  -13.3787   19.4138 C   0  0  0  0  0  0  0  0  0  0  0  0
    8.0255  -12.8695   20.9879 S   0  0  0  0  0  0  0  0  0  0  0  0
    8.5390  -15.4311   19.3946 C   0  0  0  0  0  0  0  0  0  0  0  0
    7.6592  -16.3270   19.4678 O   0  0  0  0  0  0  0  0  0  0  0  0
   10.8163  -18.0275   18.8182 C   0  0  0  0  0  0  0  0  0  0  0  0
   11.2869  -17.4596   20.1241 C   0  0  1  0  0  0  0  0  0  0  0  0
   12.2948  -16.5336   19.8678 O   0  0  0  0  0  0  0  0  0  0  0  0
   10.1101  -16.7752   20.8329 C   0  0  2  0  0  0  0  0  0  0  0  0
    9.7847  -15.6059   20.0502 N   0  0  0  0  0  0  0  0  0  0  0  0
   10.6083  -16.3168   22.1637 C   0  0  0  0  0  0  0  0  0  0  0  0
   10.8571  -17.2225   23.1861 O   0  0  0  0  0  0  0  0  0  0  0  0
   10.8199  -15.1046   22.4083 O   0  0  0  0  0  0  0  0  0  0  0  0
  2  4  1  0
  2  1  1  6
  3  2  1  0
  4  5  1  6
  6  7  2  0
  6  4  1  0
  8  6  1  0
  9 12  1  0
  9  8  1  0
 10 11  1  0
  9 10  1  1
 12 18  1  0
 13 12  2  0
 15 14  1  6
 15 16  1  0
 17 19  1  0
 17 15  1  0
 17 18  1  6
 19 20  1  0
 21 19  2  0
M  END
$$$$
