VCT.pdb
     RDKit          3D

 21 20  0  0  1  0  0  0  0  0999 V2000
    8.2291  -16.0310   20.9074 C   0  0  0  0  0  0  0  0  0  0  0  0
    7.0377  -15.0759   20.7265 C   0  0  2  0  0  0  0  0  0  0  0  0
    6.7212  -15.1293   19.2495 C   0  0  0  0  0  0  0  0  0  0  0  0
    7.4664  -13.6874   21.1728 C   0  0  2  0  0  0  0  0  0  0  0  0
    8.5518  -13.3066   20.2633 N   0  0  0  0  0  0  0  0  0  0  0  0
    7.9822  -13.6351   22.5402 C   0  0  0  0  0  0  0  0  0  0  0  0
    9.2361  -13.7870   22.7253 O   0  0  0  0  0  0  0  0  0  0  0  0
    7.2345  -13.4286   23.7221 N   0  0  0  0  0  0  0  0  0  0  0  0
    7.7938  -13.5161   25.0582 C   0  0  1  0  0  0  0  0  0  0  0  0
    6.8465  -12.7123   25.9591 C   0  0  0  0  0  0  0  0  0  0  0  0
    7.5406  -12.7550   27.6378 S   0  0  0  0  0  0  0  0  0  0  0  0
    7.7571  -14.9113   25.5744 C   0  0  0  0  0  0  0  0  0  0  0  0
    6.6879  -15.5599   25.7097 O   0  0  0  0  0  0  0  0  0  0  0  0
    9.1738  -17.7821   24.1836 C   0  0  0  0  0  0  0  0  0  0  0  0
    9.9357  -17.6558   25.4692 C   0  0  1  0  0  0  0  0  0  0  0  0
   11.1427  -17.0123   25.2082 O   0  0  0  0  0  0  0  0  0  0  0  0
    9.1084  -16.8384   26.4708 C   0  0  2  0  0  0  0  0  0  0  0  0
    8.9966  -15.5080   25.9201 N   0  0  0  0  0  0  0  0  0  0  0  0
    9.9068  -16.7522   27.7296 C   0  0  0  0  0  0  0  0  0  0  0  0
   10.0742  -17.8604   28.5488 O   0  0  0  0  0  0  0  0  0  0  0  0
   10.4534  -15.6831   28.0934 O   0  0  0  0  0  0  0  0  0  0  0  0
  2  4  1  0
  2  1  1  6
  3  2  1  0
  4  5  1  6
  6  7  2  0
  6  4  1  0
  8  6  1  0
  9 12  1  0
  9  8  1  0
 10 11  1  0
  9 10  1  1
 12 18  1  0
 13 12  2  0
 15 14  1  6
 15 16  1  0
 17 19  1  0
 17 15  1  0
 17 18  1  6
 19 20  1  0
 21 19  2  0
M  END
$$$$
