VCT.pdb
     RDKit          3D

 21 20  0  0  1  0  0  0  0  0999 V2000
    7.8915  -15.3467   20.1514 C   0  0  0  0  0  0  0  0  0  0  0  0
    6.9130  -14.1613   20.1945 C   0  0  2  0  0  0  0  0  0  0  0  0
    6.5456  -13.9116   18.7497 C   0  0  0  0  0  0  0  0  0  0  0  0
    7.6281  -12.9741   20.8193 C   0  0  2  0  0  0  0  0  0  0  0  0
    8.7865  -12.7222   19.9563 N   0  0  0  0  0  0  0  0  0  0  0  0
    8.1184  -13.2213   22.1746 C   0  0  0  0  0  0  0  0  0  0  0  0
    9.3107  -13.6526   22.3227 O   0  0  0  0  0  0  0  0  0  0  0  0
    7.4075  -13.0331   23.3821 N   0  0  0  0  0  0  0  0  0  0  0  0
    7.9085  -13.4282   24.6853 C   0  0  1  0  0  0  0  0  0  0  0  0
    6.9484  -12.8040   25.7069 C   0  0  0  0  0  0  0  0  0  0  0  0
    7.6402  -13.1248   27.3561 S   0  0  0  0  0  0  0  0  0  0  0  0
    7.8106  -14.8998   24.8838 C   0  0  0  0  0  0  0  0  0  0  0  0
    6.7244  -15.5282   24.7976 O   0  0  0  0  0  0  0  0  0  0  0  0
    8.9257  -17.5893   23.0925 C   0  0  0  0  0  0  0  0  0  0  0  0
    9.7733  -17.6892   24.3257 C   0  0  1  0  0  0  0  0  0  0  0  0
   10.9900  -17.0581   24.0801 O   0  0  0  0  0  0  0  0  0  0  0  0
    9.0511  -17.0050   25.4944 C   0  0  2  0  0  0  0  0  0  0  0  0
    9.0102  -15.5956   25.1817 N   0  0  0  0  0  0  0  0  0  0  0  0
    9.9080  -17.1856   26.7037 C   0  0  0  0  0  0  0  0  0  0  0  0
    9.9910  -18.4137   27.3457 O   0  0  0  0  0  0  0  0  0  0  0  0
   10.5814  -16.2419   27.1833 O   0  0  0  0  0  0  0  0  0  0  0  0
  2  4  1  0
  2  1  1  6
  3  2  1  0
  4  5  1  6
  6  7  2  0
  6  4  1  0
  8  6  1  0
  9 12  1  0
  9  8  1  0
 10 11  1  0
  9 10  1  1
 12 18  1  0
 13 12  2  0
 15 14  1  6
 15 16  1  0
 17 19  1  0
 17 15  1  0
 17 18  1  6
 19 20  1  0
 21 19  2  0
M  END
$$$$
