VCT.pdb
     RDKit          3D

 21 20  0  0  1  0  0  0  0  0999 V2000
    7.8638  -13.2272   18.1095 C   0  0  0  0  0  0  0  0  0  0  0  0
    7.5591  -13.6970   19.5416 C   0  0  2  0  0  0  0  0  0  0  0  0
    8.2015  -12.6590   20.4331 C   0  0  0  0  0  0  0  0  0  0  0  0
    8.1703  -15.0759   19.7322 C   0  0  2  0  0  0  0  0  0  0  0  0
    7.3669  -15.9741   18.8966 N   0  0  0  0  0  0  0  0  0  0  0  0
    8.1134  -15.5664   21.1087 C   0  0  0  0  0  0  0  0  0  0  0  0
    6.9708  -15.8153   21.6207 O   0  0  0  0  0  0  0  0  0  0  0  0
    9.2084  -15.8074   21.9699 N   0  0  0  0  0  0  0  0  0  0  0  0
    9.0733  -16.1371   23.3765 C   0  0  1  0  0  0  0  0  0  0  0  0
   10.3415  -16.9192   23.7442 C   0  0  0  0  0  0  0  0  0  0  0  0
   10.1974  -17.3782   25.4963 S   0  0  0  0  0  0  0  0  0  0  0  0
    9.0898  -14.9159   24.2267 C   0  0  0  0  0  0  0  0  0  0  0  0
    9.8557  -13.9427   24.0068 O   0  0  0  0  0  0  0  0  0  0  0  0
    6.5012  -12.1424   27.1817 C   0  0  0  0  0  0  0  0  0  0  0  0
    6.6741  -13.2467   26.1817 C   0  0  1  0  0  0  0  0  0  0  0  0
    6.4045  -12.7419   24.9122 O   0  0  0  0  0  0  0  0  0  0  0  0
    8.1161  -13.7681   26.2462 C   0  0  2  0  0  0  0  0  0  0  0  0
    8.1921  -14.8773   25.3244 N   0  0  0  0  0  0  0  0  0  0  0  0
    8.3278  -14.2983   27.6259 C   0  0  0  0  0  0  0  0  0  0  0  0
    8.5495  -13.4421   28.6959 O   0  0  0  0  0  0  0  0  0  0  0  0
    8.3137  -15.5288   27.8703 O   0  0  0  0  0  0  0  0  0  0  0  0
  2  4  1  0
  2  1  1  6
  3  2  1  0
  4  5  1  6
  6  7  2  0
  6  4  1  0
  8  6  1  0
  9 12  1  0
  9  8  1  0
 10 11  1  0
  9 10  1  1
 12 18  1  0
 13 12  2  0
 15 14  1  1
 15 16  1  0
 17 19  1  0
 17 15  1  0
 17 18  1  6
 19 20  1  0
 21 19  2  0
M  END
$$$$
