VCT.pdb
     RDKit          3D

 21 20  0  0  1  0  0  0  0  0999 V2000
    7.7500  -16.8046   20.9779 C   0  0  0  0  0  0  0  0  0  0  0  0
    6.7154  -15.6701   21.0612 C   0  0  2  0  0  0  0  0  0  0  0  0
    6.0757  -15.6301   19.6922 C   0  0  0  0  0  0  0  0  0  0  0  0
    7.4473  -14.3793   21.3917 C   0  0  2  0  0  0  0  0  0  0  0  0
    8.4532  -14.2237   20.3361 N   0  0  0  0  0  0  0  0  0  0  0  0
    8.1413  -14.4021   22.6786 C   0  0  0  0  0  0  0  0  0  0  0  0
    9.3275  -14.8716   22.7237 O   0  0  0  0  0  0  0  0  0  0  0  0
    7.6404  -13.9506   23.9212 N   0  0  0  0  0  0  0  0  0  0  0  0
    8.3448  -14.1037   25.1806 C   0  0  1  0  0  0  0  0  0  0  0  0
    7.4885  -13.3780   26.2271 C   0  0  0  0  0  0  0  0  0  0  0  0
    8.4102  -13.4173   27.7925 S   0  0  0  0  0  0  0  0  0  0  0  0
    8.3895  -15.5276   25.6106 C   0  0  0  0  0  0  0  0  0  0  0  0
    7.3726  -16.2677   25.6240 O   0  0  0  0  0  0  0  0  0  0  0  0
   11.2569  -19.3896   26.0034 C   0  0  0  0  0  0  0  0  0  0  0  0
   10.9478  -17.9915   25.5574 C   0  0  1  0  0  0  0  0  0  0  0  0
   10.5241  -18.0322   24.2315 O   0  0  0  0  0  0  0  0  0  0  0  0
    9.8410  -17.4086   26.4467 C   0  0  2  0  0  0  0  0  0  0  0  0
    9.6469  -16.0435   26.0170 N   0  0  0  0  0  0  0  0  0  0  0  0
   10.3701  -17.3830   27.8427 C   0  0  0  0  0  0  0  0  0  0  0  0
   10.2352  -18.4822   28.6799 O   0  0  0  0  0  0  0  0  0  0  0  0
   10.9527  -16.3750   28.3101 O   0  0  0  0  0  0  0  0  0  0  0  0
  2  4  1  0
  2  1  1  6
  3  2  1  0
  4  5  1  6
  6  7  2  0
  6  4  1  0
  8  6  1  0
  9 12  1  0
  9  8  1  0
 10 11  1  0
  9 10  1  1
 12 18  1  0
 13 12  2  0
 15 14  1  1
 15 16  1  0
 17 19  1  0
 17 15  1  0
 17 18  1  6
 19 20  1  0
 21 19  2  0
M  END
$$$$
