VCT.pdb
     RDKit          3D

 21 20  0  0  1  0  0  0  0  0999 V2000
    6.8401  -14.4748   18.7853 C   0  0  0  0  0  0  0  0  0  0  0  0
    7.5036  -14.6632   20.1596 C   0  0  2  0  0  0  0  0  0  0  0  0
    6.5622  -15.5673   20.9218 C   0  0  0  0  0  0  0  0  0  0  0  0
    7.6446  -13.2979   20.8132 C   0  0  2  0  0  0  0  0  0  0  0  0
    8.6631  -12.5954   20.0261 N   0  0  0  0  0  0  0  0  0  0  0  0
    8.1003  -13.3477   22.2018 C   0  0  0  0  0  0  0  0  0  0  0  0
    9.3145  -13.6660   22.4343 O   0  0  0  0  0  0  0  0  0  0  0  0
    7.3326  -13.0757   23.3574 N   0  0  0  0  0  0  0  0  0  0  0  0
    7.7978  -13.3128   24.7113 C   0  0  1  0  0  0  0  0  0  0  0  0
    6.7665  -12.6423   25.6289 C   0  0  0  0  0  0  0  0  0  0  0  0
    7.3714  -12.8205   27.3330 S   0  0  0  0  0  0  0  0  0  0  0  0
    7.7638  -14.7606   25.0537 C   0  0  0  0  0  0  0  0  0  0  0  0
    6.7491  -15.4808   24.8697 O   0  0  0  0  0  0  0  0  0  0  0  0
   10.8895  -16.6395   24.2206 C   0  0  0  0  0  0  0  0  0  0  0  0
    9.6614  -17.3866   24.6485 C   0  0  1  0  0  0  0  0  0  0  0  0
   10.0159  -18.7061   24.9172 O   0  0  0  0  0  0  0  0  0  0  0  0
    9.0813  -16.7296   25.9085 C   0  0  2  0  0  0  0  0  0  0  0  0
    8.9411  -15.3237   25.6096 N   0  0  0  0  0  0  0  0  0  0  0  0
   10.1042  -16.8734   26.9866 C   0  0  0  0  0  0  0  0  0  0  0  0
   10.4267  -18.1196   27.5064 O   0  0  0  0  0  0  0  0  0  0  0  0
   10.7077  -15.8811   27.4614 O   0  0  0  0  0  0  0  0  0  0  0  0
  2  4  1  0
  2  1  1  6
  3  2  1  0
  4  5  1  6
  6  7  2  0
  6  4  1  0
  8  6  1  0
  9 12  1  0
  9  8  1  0
 10 11  1  0
  9 10  1  1
 12 18  1  0
 13 12  2  0
 15 14  1  1
 15 16  1  0
 17 19  1  0
 17 15  1  0
 17 18  1  6
 19 20  1  0
 21 19  2  0
M  END
$$$$
