VCT.pdb
     RDKit          3D

 21 20  0  0  1  0  0  0  0  0999 V2000
    8.3155  -19.1493   19.6635 C   0  0  0  0  0  0  0  0  0  0  0  0
    7.1747  -18.1783   19.3167 C   0  0  2  0  0  0  0  0  0  0  0  0
    6.6561  -18.6544   17.9790 C   0  0  0  0  0  0  0  0  0  0  0  0
    7.7494  -16.7728   19.2432 C   0  0  2  0  0  0  0  0  0  0  0  0
    8.8039  -16.8386   18.2263 N   0  0  0  0  0  0  0  0  0  0  0  0
    8.3534  -16.3113   20.4925 C   0  0  0  0  0  0  0  0  0  0  0  0
    9.5740  -16.6042   20.7245 O   0  0  0  0  0  0  0  0  0  0  0  0
    7.7276  -15.5532   21.5085 N   0  0  0  0  0  0  0  0  0  0  0  0
    8.3583  -15.2180   22.7717 C   0  0  1  0  0  0  0  0  0  0  0  0
    7.3839  -14.2708   23.4847 C   0  0  0  0  0  0  0  0  0  0  0  0
    8.0468  -13.9767   25.1507 S   0  0  0  0  0  0  0  0  0  0  0  0
    8.4817  -16.4107   23.6530 C   0  0  0  0  0  0  0  0  0  0  0  0
    7.4855  -17.0526   24.0744 O   0  0  0  0  0  0  0  0  0  0  0  0
   10.4617  -19.3969   22.9001 C   0  0  0  0  0  0  0  0  0  0  0  0
   11.0926  -18.8146   24.1299 C   0  0  1  0  0  0  0  0  0  0  0  0
   12.1804  -18.0357   23.7441 O   0  0  0  0  0  0  0  0  0  0  0  0
   10.0612  -17.9507   24.8684 C   0  0  2  0  0  0  0  0  0  0  0  0
    9.7915  -16.8165   24.0159 N   0  0  0  0  0  0  0  0  0  0  0  0
   10.7205  -17.4490   26.1106 C   0  0  0  0  0  0  0  0  0  0  0  0
   10.9373  -18.2880   27.1952 O   0  0  0  0  0  0  0  0  0  0  0  0
   11.1014  -16.2588   26.2219 O   0  0  0  0  0  0  0  0  0  0  0  0
  2  4  1  0
  2  1  1  6
  3  2  1  0
  4  5  1  6
  6  7  2  0
  6  4  1  0
  8  6  1  0
  9 12  1  0
  9  8  1  0
 10 11  1  0
  9 10  1  1
 12 18  1  0
 13 12  2  0
 15 14  1  6
 15 16  1  0
 17 19  1  0
 17 15  1  0
 17 18  1  6
 19 20  1  0
 21 19  2  0
M  END
$$$$
