VCT.pdb
     RDKit          3D

 21 20  0  0  1  0  0  0  0  0999 V2000
    8.3950  -20.4041   17.8548 C   0  0  0  0  0  0  0  0  0  0  0  0
    9.3261  -19.6064   18.7828 C   0  0  2  0  0  0  0  0  0  0  0  0
    9.4920  -20.4791   20.0057 C   0  0  0  0  0  0  0  0  0  0  0  0
    8.6551  -18.2817   19.1087 C   0  0  2  0  0  0  0  0  0  0  0  0
    8.6011  -17.5523   17.8378 N   0  0  0  0  0  0  0  0  0  0  0  0
    9.3923  -17.4624   20.0699 C   0  0  0  0  0  0  0  0  0  0  0  0
   10.5027  -16.9475   19.7073 O   0  0  0  0  0  0  0  0  0  0  0  0
    9.0103  -17.1607   21.3972 N   0  0  0  0  0  0  0  0  0  0  0  0
    9.8719  -16.4921   22.3543 C   0  0  1  0  0  0  0  0  0  0  0  0
    8.9433  -15.9811   23.4641 C   0  0  0  0  0  0  0  0  0  0  0  0
    9.9929  -15.1834   24.7145 S   0  0  0  0  0  0  0  0  0  0  0  0
   10.8015  -17.4495   23.0129 C   0  0  0  0  0  0  0  0  0  0  0  0
   10.4150  -18.5310   23.5259 O   0  0  0  0  0  0  0  0  0  0  0  0
   15.5766  -18.5700   23.2733 C   0  0  0  0  0  0  0  0  0  0  0  0
   14.4301  -17.7985   22.6906 C   0  0  1  0  0  0  0  0  0  0  0  0
   14.1614  -18.2964   21.4182 O   0  0  0  0  0  0  0  0  0  0  0  0
   13.1985  -17.9624   23.5916 C   0  0  2  0  0  0  0  0  0  0  0  0
   12.1757  -17.0998   23.0479 N   0  0  0  0  0  0  0  0  0  0  0  0
   13.5719  -17.4432   24.9408 C   0  0  0  0  0  0  0  0  0  0  0  0
   14.0733  -18.2897   25.9203 O   0  0  0  0  0  0  0  0  0  0  0  0
   13.4481  -16.2311   25.2399 O   0  0  0  0  0  0  0  0  0  0  0  0
  2  4  1  0
  2  1  1  6
  3  2  1  0
  4  5  1  6
  6  7  2  0
  6  4  1  0
  8  6  1  0
  9 12  1  0
  9  8  1  0
 10 11  1  0
  9 10  1  1
 12 18  1  0
 13 12  2  0
 15 14  1  1
 15 16  1  0
 17 19  1  0
 17 15  1  0
 17 18  1  6
 19 20  1  0
 21 19  2  0
M  END
$$$$
