VCT.pdb
     RDKit          3D

 21 20  0  0  1  0  0  0  0  0999 V2000
    7.0062  -14.2576   17.5934 C   0  0  0  0  0  0  0  0  0  0  0  0
    7.6979  -14.5832   18.9276 C   0  0  2  0  0  0  0  0  0  0  0  0
    6.8943  -15.7229   19.5108 C   0  0  0  0  0  0  0  0  0  0  0  0
    7.6541  -13.3416   19.8038 C   0  0  2  0  0  0  0  0  0  0  0  0
    8.5175  -12.3642   19.1334 N   0  0  0  0  0  0  0  0  0  0  0  0
    8.1707  -13.5496   21.1560 C   0  0  0  0  0  0  0  0  0  0  0  0
    9.4251  -13.7304   21.3086 O   0  0  0  0  0  0  0  0  0  0  0  0
    7.4232  -13.5747   22.3557 N   0  0  0  0  0  0  0  0  0  0  0  0
    7.9861  -13.9028   23.6523 C   0  0  1  0  0  0  0  0  0  0  0  0
    6.9060  -13.5372   24.6793 C   0  0  0  0  0  0  0  0  0  0  0  0
    7.5374  -14.0190   26.3136 S   0  0  0  0  0  0  0  0  0  0  0  0
    8.2036  -15.3678   23.7973 C   0  0  0  0  0  0  0  0  0  0  0  0
    7.2874  -16.2128   23.6280 O   0  0  0  0  0  0  0  0  0  0  0  0
   11.5593  -18.8825   23.8570 C   0  0  0  0  0  0  0  0  0  0  0  0
   11.1037  -17.4824   23.5715 C   0  0  1  0  0  0  0  0  0  0  0  0
   10.8191  -17.3769   22.2125 O   0  0  0  0  0  0  0  0  0  0  0  0
    9.8466  -17.1797   24.3983 C   0  0  2  0  0  0  0  0  0  0  0  0
    9.5105  -15.7988   24.1416 N   0  0  0  0  0  0  0  0  0  0  0  0
   10.2292  -17.3028   25.8363 C   0  0  0  0  0  0  0  0  0  0  0  0
   10.2407  -18.5373   26.4712 O   0  0  0  0  0  0  0  0  0  0  0  0
   10.5527  -16.3031   26.5219 O   0  0  0  0  0  0  0  0  0  0  0  0
  2  4  1  0
  2  1  1  6
  3  2  1  0
  4  5  1  6
  6  7  2  0
  6  4  1  0
  8  6  1  0
  9 12  1  0
  9  8  1  0
 10 11  1  0
  9 10  1  1
 12 18  1  0
 13 12  2  0
 15 14  1  6
 15 16  1  0
 17 19  1  0
 17 15  1  0
 17 18  1  1
 19 20  1  0
 21 19  2  0
M  END
$$$$
