VCT.pdb
     RDKit          3D

 21 20  0  0  1  0  0  0  0  0999 V2000
    7.0554  -14.2318   18.3480 C   0  0  0  0  0  0  0  0  0  0  0  0
    7.6238  -14.6687   19.7083 C   0  0  2  0  0  0  0  0  0  0  0  0
    6.6779  -15.7427   20.1947 C   0  0  0  0  0  0  0  0  0  0  0  0
    7.6424  -13.4592   20.6291 C   0  0  2  0  0  0  0  0  0  0  0  0
    8.6024  -12.5289   20.0264 N   0  0  0  0  0  0  0  0  0  0  0  0
    8.0907  -13.7542   21.9894 C   0  0  0  0  0  0  0  0  0  0  0  0
    9.3337  -13.9659   22.1895 O   0  0  0  0  0  0  0  0  0  0  0  0
    7.2867  -13.8353   23.1493 N   0  0  0  0  0  0  0  0  0  0  0  0
    7.8010  -14.1501   24.4692 C   0  0  1  0  0  0  0  0  0  0  0  0
    6.6731  -13.8005   25.4494 C   0  0  0  0  0  0  0  0  0  0  0  0
    6.5371  -11.9889   25.4838 S   0  0  0  0  0  0  0  0  0  0  0  0
    8.0374  -15.6107   24.6280 C   0  0  0  0  0  0  0  0  0  0  0  0
    7.1486  -16.4729   24.4071 O   0  0  0  0  0  0  0  0  0  0  0  0
   10.2188  -17.4364   22.7249 C   0  0  0  0  0  0  0  0  0  0  0  0
   10.8158  -17.6202   24.0884 C   0  0  1  0  0  0  0  0  0  0  0  0
   11.8406  -16.6918   24.2527 O   0  0  0  0  0  0  0  0  0  0  0  0
    9.7304  -17.4007   25.1510 C   0  0  2  0  0  0  0  0  0  0  0  0
    9.3301  -16.0169   25.0477 N   0  0  0  0  0  0  0  0  0  0  0  0
   10.3765  -17.5969   26.4827 C   0  0  0  0  0  0  0  0  0  0  0  0
   10.7522  -18.8607   26.9172 O   0  0  0  0  0  0  0  0  0  0  0  0
   10.6033  -16.6346   27.2552 O   0  0  0  0  0  0  0  0  0  0  0  0
  2  4  1  0
  2  1  1  6
  3  2  1  0
  4  5  1  6
  6  7  2  0
  6  4  1  0
  8  6  1  0
  9 12  1  0
  9  8  1  0
 10 11  1  0
  9 10  1  1
 12 18  1  0
 13 12  2  0
 15 14  1  6
 15 16  1  0
 17 19  1  0
 17 15  1  0
 17 18  1  1
 19 20  1  0
 21 19  2  0
M  END
$$$$
