VCT.pdb
     RDKit          3D

 21 20  0  0  1  0  0  0  0  0999 V2000
    7.3517  -16.4472   19.4664 C   0  0  0  0  0  0  0  0  0  0  0  0
    7.6630  -16.4139   20.9719 C   0  0  2  0  0  0  0  0  0  0  0  0
    6.3307  -16.6472   21.6466 C   0  0  0  0  0  0  0  0  0  0  0  0
    8.2472  -15.0514   21.3089 C   0  0  2  0  0  0  0  0  0  0  0  0
    9.5661  -15.0268   20.6685 N   0  0  0  0  0  0  0  0  0  0  0  0
    8.4348  -14.8226   22.7410 C   0  0  0  0  0  0  0  0  0  0  0  0
    9.3911  -15.4248   23.3347 O   0  0  0  0  0  0  0  0  0  0  0  0
    7.6592  -13.9857   23.5757 N   0  0  0  0  0  0  0  0  0  0  0  0
    7.8343  -13.8913   25.0131 C   0  0  1  0  0  0  0  0  0  0  0  0
    6.7557  -12.9145   25.5003 C   0  0  0  0  0  0  0  0  0  0  0  0
    6.9369  -12.7735   27.3027 S   0  0  0  0  0  0  0  0  0  0  0  0
    7.5408  -15.1866   25.6843 C   0  0  0  0  0  0  0  0  0  0  0  0
    6.4291  -15.7672   25.5887 O   0  0  0  0  0  0  0  0  0  0  0  0
    9.8931  -17.6860   24.9839 C   0  0  0  0  0  0  0  0  0  0  0  0
    8.6566  -18.0457   25.7528 C   0  0  1  0  0  0  0  0  0  0  0  0
    8.7645  -19.3691   26.1723 O   0  0  0  0  0  0  0  0  0  0  0  0
    8.5266  -17.1167   26.9675 C   0  0  2  0  0  0  0  0  0  0  0  0
    8.5789  -15.7664   26.4578 N   0  0  0  0  0  0  0  0  0  0  0  0
    9.7341  -17.3371   27.8176 C   0  0  0  0  0  0  0  0  0  0  0  0
   10.6365  -16.3103   28.0599 O   0  0  0  0  0  0  0  0  0  0  0  0
    9.9786  -18.4502   28.3422 O   0  0  0  0  0  0  0  0  0  0  0  0
  2  4  1  0
  2  1  1  6
  3  2  1  0
  4  5  1  6
  6  7  2  0
  6  4  1  0
  8  6  1  0
  9 12  1  0
  9  8  1  0
 10 11  1  0
  9 10  1  1
 12 18  1  0
 13 12  2  0
 15 14  1  1
 15 16  1  0
 17 19  1  0
 17 15  1  0
 17 18  1  6
 19 20  1  0
 21 19  2  0
M  END
$$$$
