VCT.pdb
     RDKit          3D

 21 20  0  0  1  0  0  0  0  0999 V2000
    7.9470  -15.7376   20.4321 C   0  0  0  0  0  0  0  0  0  0  0  0
    6.8730  -14.6371   20.4315 C   0  0  2  0  0  0  0  0  0  0  0  0
    6.4760  -14.4863   18.9809 C   0  0  0  0  0  0  0  0  0  0  0  0
    7.4905  -13.3667   20.9936 C   0  0  2  0  0  0  0  0  0  0  0  0
    8.5960  -13.0400   20.0873 N   0  0  0  0  0  0  0  0  0  0  0  0
    8.0390  -13.5178   22.3408 C   0  0  0  0  0  0  0  0  0  0  0  0
    9.2628  -13.8588   22.4663 O   0  0  0  0  0  0  0  0  0  0  0  0
    7.3546  -13.3244   23.5626 N   0  0  0  0  0  0  0  0  0  0  0  0
    7.9413  -13.5736   24.8661 C   0  0  1  0  0  0  0  0  0  0  0  0
    6.9653  -12.9687   25.8842 C   0  0  0  0  0  0  0  0  0  0  0  0
    7.7487  -13.0988   27.5185 S   0  0  0  0  0  0  0  0  0  0  0  0
    7.9941  -15.0292   25.1710 C   0  0  0  0  0  0  0  0  0  0  0  0
    6.9997  -15.7887   25.0429 O   0  0  0  0  0  0  0  0  0  0  0  0
   10.8481  -18.8853   25.3406 C   0  0  0  0  0  0  0  0  0  0  0  0
   10.5789  -17.4387   25.0501 C   0  0  1  0  0  0  0  0  0  0  0  0
   10.2269  -17.3136   23.7087 O   0  0  0  0  0  0  0  0  0  0  0  0
    9.4324  -16.9468   25.9440 C   0  0  2  0  0  0  0  0  0  0  0  0
    9.2323  -15.5529   25.6233 N   0  0  0  0  0  0  0  0  0  0  0  0
    9.9113  -17.0323   27.3557 C   0  0  0  0  0  0  0  0  0  0  0  0
    9.6967  -18.1732   28.1169 O   0  0  0  0  0  0  0  0  0  0  0  0
   10.5218  -16.0837   27.9049 O   0  0  0  0  0  0  0  0  0  0  0  0
  2  4  1  0
  2  1  1  6
  3  2  1  0
  4  5  1  6
  6  7  2  0
  6  4  1  0
  8  6  1  0
  9 12  1  0
  9  8  1  0
 10 11  1  0
  9 10  1  1
 12 18  1  0
 13 12  2  0
 15 14  1  1
 15 16  1  0
 17 19  1  0
 17 15  1  0
 17 18  1  6
 19 20  1  0
 21 19  2  0
M  END
$$$$
