VCT.pdb
     RDKit          3D

 21 20  0  0  1  0  0  0  0  0999 V2000
    6.9435  -14.0334   18.7974 C   0  0  0  0  0  0  0  0  0  0  0  0
    7.4816  -14.4724   20.1694 C   0  0  2  0  0  0  0  0  0  0  0  0
    6.4655  -15.4671   20.6820 C   0  0  0  0  0  0  0  0  0  0  0  0
    7.5821  -13.2434   21.0585 C   0  0  2  0  0  0  0  0  0  0  0  0
    8.6014  -12.3952   20.4325 N   0  0  0  0  0  0  0  0  0  0  0  0
    8.0114  -13.5326   22.4262 C   0  0  0  0  0  0  0  0  0  0  0  0
    9.2323  -13.8458   22.6289 O   0  0  0  0  0  0  0  0  0  0  0  0
    7.2106  -13.5053   23.5910 N   0  0  0  0  0  0  0  0  0  0  0  0
    7.6909  -13.8694   24.9110 C   0  0  1  0  0  0  0  0  0  0  0  0
    6.6013  -13.4131   25.8906 C   0  0  0  0  0  0  0  0  0  0  0  0
    6.6473  -11.5972   25.9333 S   0  0  0  0  0  0  0  0  0  0  0  0
    7.7848  -15.3462   25.0688 C   0  0  0  0  0  0  0  0  0  0  0  0
    6.7840  -16.1044   24.9949 O   0  0  0  0  0  0  0  0  0  0  0  0
    9.6653  -17.5330   23.0499 C   0  0  0  0  0  0  0  0  0  0  0  0
   10.3039  -17.7188   24.3942 C   0  0  1  0  0  0  0  0  0  0  0  0
   11.4443  -16.9222   24.4575 O   0  0  0  0  0  0  0  0  0  0  0  0
    9.3108  -17.3054   25.4889 C   0  0  2  0  0  0  0  0  0  0  0  0
    9.0712  -15.8922   25.3120 N   0  0  0  0  0  0  0  0  0  0  0  0
   10.0002  -17.4969   26.7994 C   0  0  0  0  0  0  0  0  0  0  0  0
   10.2289  -18.7677   27.3093 O   0  0  0  0  0  0  0  0  0  0  0  0
   10.3967  -16.5244   27.4858 O   0  0  0  0  0  0  0  0  0  0  0  0
  2  4  1  0
  2  1  1  6
  3  2  1  0
  4  5  1  6
  6  7  2  0
  6  4  1  0
  8  6  1  0
  9 12  1  0
  9  8  1  0
 10 11  1  0
  9 10  1  1
 12 18  1  0
 13 12  2  0
 15 14  1  6
 15 16  1  0
 17 19  1  0
 17 15  1  0
 17 18  1  6
 19 20  1  0
 21 19  2  0
M  END
$$$$
