VCT.pdb
     RDKit          3D

 21 20  0  0  1  0  0  0  0  0999 V2000
    7.1372  -13.2828   18.8306 C   0  0  0  0  0  0  0  0  0  0  0  0
    7.5102  -13.1307   20.3146 C   0  0  2  0  0  0  0  0  0  0  0  0
    8.6634  -12.1536   20.3245 C   0  0  0  0  0  0  0  0  0  0  0  0
    7.9096  -14.4967   20.8492 C   0  0  2  0  0  0  0  0  0  0  0  0
    6.6985  -15.3181   20.7555 N   0  0  0  0  0  0  0  0  0  0  0  0
    8.3419  -14.4853   22.2462 C   0  0  0  0  0  0  0  0  0  0  0  0
    9.5176  -14.0685   22.5174 O   0  0  0  0  0  0  0  0  0  0  0  0
    7.5890  -14.8931   23.3711 N   0  0  0  0  0  0  0  0  0  0  0  0
    8.1261  -14.9758   24.7166 C   0  0  1  0  0  0  0  0  0  0  0  0
    6.9452  -14.6902   25.6542 C   0  0  0  0  0  0  0  0  0  0  0  0
    6.4349  -12.9708   25.3628 S   0  0  0  0  0  0  0  0  0  0  0  0
    8.5754  -16.3570   25.0403 C   0  0  0  0  0  0  0  0  0  0  0  0
    7.8248  -17.3606   24.9330 O   0  0  0  0  0  0  0  0  0  0  0  0
   12.5308  -19.1417   25.2681 C   0  0  0  0  0  0  0  0  0  0  0  0
   11.8466  -17.8322   25.0106 C   0  0  1  0  0  0  0  0  0  0  0  0
   11.6308  -17.7062   23.6407 O   0  0  0  0  0  0  0  0  0  0  0  0
   10.5074  -17.8038   25.7600 C   0  0  2  0  0  0  0  0  0  0  0  0
    9.9125  -16.5165   25.4864 N   0  0  0  0  0  0  0  0  0  0  0  0
   10.8213  -17.8676   27.2183 C   0  0  0  0  0  0  0  0  0  0  0  0
   10.8466  -19.0806   27.8930 O   0  0  0  0  0  0  0  0  0  0  0  0
   11.0724  -16.8354   27.8859 O   0  0  0  0  0  0  0  0  0  0  0  0
  2  4  1  0
  2  1  1  6
  3  2  1  0
  4  5  1  1
  6  7  2  0
  6  4  1  0
  8  6  1  0
  9 12  1  0
  9  8  1  0
 10 11  1  0
  9 10  1  1
 12 18  1  0
 13 12  2  0
 15 14  1  6
 15 16  1  0
 17 19  1  0
 17 15  1  0
 17 18  1  1
 19 20  1  0
 21 19  2  0
M  END
$$$$
