VCT.pdb
     RDKit          3D

 21 20  0  0  1  0  0  0  0  0999 V2000
    6.7699  -14.5230   18.5296 C   0  0  0  0  0  0  0  0  0  0  0  0
    7.4277  -14.7520   19.9005 C   0  0  2  0  0  0  0  0  0  0  0  0
    6.5234  -15.7392   20.6022 C   0  0  0  0  0  0  0  0  0  0  0  0
    7.4957  -13.4180   20.6266 C   0  0  2  0  0  0  0  0  0  0  0  0
    8.3931  -12.5842   19.8207 N   0  0  0  0  0  0  0  0  0  0  0  0
    8.0488  -13.5039   21.9775 C   0  0  0  0  0  0  0  0  0  0  0  0
    9.2954  -13.7441   22.1120 O   0  0  0  0  0  0  0  0  0  0  0  0
    7.3461  -13.3467   23.1941 N   0  0  0  0  0  0  0  0  0  0  0  0
    7.9455  -13.5274   24.5032 C   0  0  1  0  0  0  0  0  0  0  0  0
    6.9519  -12.9206   25.5030 C   0  0  0  0  0  0  0  0  0  0  0  0
    7.7232  -13.0123   27.1457 S   0  0  0  0  0  0  0  0  0  0  0  0
    8.0508  -14.9681   24.8604 C   0  0  0  0  0  0  0  0  0  0  0  0
    7.0654  -15.7495   24.8382 O   0  0  0  0  0  0  0  0  0  0  0  0
   11.2534  -18.6224   25.0412 C   0  0  0  0  0  0  0  0  0  0  0  0
   10.8977  -17.1902   24.7732 C   0  0  1  0  0  0  0  0  0  0  0  0
   10.7225  -17.0258   23.4016 O   0  0  0  0  0  0  0  0  0  0  0  0
    9.6004  -16.8424   25.5158 C   0  0  2  0  0  0  0  0  0  0  0  0
    9.3300  -15.4512   25.2379 N   0  0  0  0  0  0  0  0  0  0  0  0
    9.8833  -16.9758   26.9757 C   0  0  0  0  0  0  0  0  0  0  0  0
    9.6007  -18.1528   27.6554 O   0  0  0  0  0  0  0  0  0  0  0  0
   10.3836  -16.0366   27.6403 O   0  0  0  0  0  0  0  0  0  0  0  0
  2  4  1  0
  2  1  1  6
  3  2  1  0
  4  5  1  6
  6  7  2  0
  6  4  1  0
  8  6  1  0
  9 12  1  0
  9  8  1  0
 10 11  1  0
  9 10  1  1
 12 18  1  0
 13 12  2  0
 15 14  1  6
 15 16  1  0
 17 19  1  0
 17 15  1  0
 17 18  1  1
 19 20  1  0
 21 19  2  0
M  END
$$$$
