TCQ.pdb
     RDKit          3D

 23 22  0  0  1  0  0  0  0  0999 V2000
    6.8048  -17.2583   20.3689 C   0  0  0  0  0  0  0  0  0  0  0  0
    7.3924  -16.6579   21.6382 C   0  0  1  0  0  0  0  0  0  0  0  0
    8.5431  -17.3183   22.0124 O   0  0  0  0  0  0  0  0  0  0  0  0
    7.6807  -15.2021   21.3953 C   0  0  2  0  0  0  0  0  0  0  0  0
    8.7503  -15.0774   20.4184 N   0  0  0  0  0  0  0  0  0  0  0  0
    8.1812  -14.6175   22.6890 C   0  0  0  0  0  0  0  0  0  0  0  0
    9.4156  -14.5748   22.9381 O   0  0  0  0  0  0  0  0  0  0  0  0
    7.2708  -14.1100   23.6375 N   0  0  0  0  0  0  0  0  0  0  0  0
    7.8047  -13.5116   24.8676 C   0  0  1  0  0  0  0  0  0  0  0  0
    6.6529  -12.8211   25.5759 C   0  0  0  0  0  0  0  0  0  0  0  0
    7.1390  -12.2279   27.2000 S   0  0  0  0  0  0  0  0  0  0  0  0
    8.3371  -14.6203   25.7159 C   0  0  0  0  0  0  0  0  0  0  0  0
    7.6334  -15.6771   25.8604 O   0  0  0  0  0  0  0  0  0  0  0  0
   11.3422  -18.7080   25.6749 N   0  0  0  0  0  0  0  0  0  0  0  0
   12.1395  -18.3268   26.7757 C   0  0  0  0  0  0  0  0  0  0  0  0
   12.7952  -19.2331   27.3928 O   0  0  0  0  0  0  0  0  0  0  0  0
   12.2702  -16.9351   27.2590 C   0  0  0  0  0  0  0  0  0  0  0  0
   11.4012  -15.9431   26.5950 C   0  0  0  0  0  0  0  0  0  0  0  0
   10.1037  -15.5906   27.2206 C   0  0  2  0  0  0  0  0  0  0  0  0
    9.5701  -14.5071   26.3318 N   0  0  0  0  0  0  0  0  0  0  0  0
   10.1101  -15.0628   28.5833 C   0  0  0  0  0  0  0  0  0  0  0  0
   10.1536  -15.8596   29.7182 O   0  0  0  0  0  0  0  0  0  0  0  0
   10.0748  -13.8176   28.7606 O   0  0  0  0  0  0  0  0  0  0  0  0
  2  1  1  6
  2  4  1  0
  3  2  1  0
  4  5  1  6
  6  8  1  0
  6  4  1  0
  7  6  2  0
  9 12  1  0
  9  8  1  0
  9 10  1  1
 11 10  1  0
 12 20  1  0
 13 12  2  0
 15 17  1  0
 15 14  1  0
 16 15  2  0
 18 17  1  0
 19 21  1  0
 19 18  1  6
 20 19  1  0
 21 22  1  0
 23 21  2  0
M  END
$$$$
