TCQ.pdb
     RDKit          3D

 23 22  0  0  1  0  0  0  0  0999 V2000
   14.2412  -16.9704   17.4785 C   0  0  0  0  0  0  0  0  0  0  0  0
   15.0961  -15.7202   17.3261 C   0  0  1  0  0  0  0  0  0  0  0  0
   15.9418  -15.8271   16.2428 O   0  0  0  0  0  0  0  0  0  0  0  0
   14.1890  -14.5315   17.1658 C   0  0  2  0  0  0  0  0  0  0  0  0
   14.9909  -13.3269   17.0244 N   0  0  0  0  0  0  0  0  0  0  0  0
   13.3916  -14.3958   18.4354 C   0  0  0  0  0  0  0  0  0  0  0  0
   13.9517  -14.0523   19.5106 O   0  0  0  0  0  0  0  0  0  0  0  0
   12.0059  -14.6521   18.4337 N   0  0  0  0  0  0  0  0  0  0  0  0
   11.2656  -14.4984   19.6925 C   0  0  1  0  0  0  0  0  0  0  0  0
    9.7868  -14.6158   19.3691 C   0  0  0  0  0  0  0  0  0  0  0  0
    8.7887  -14.6731   20.8612 S   0  0  0  0  0  0  0  0  0  0  0  0
   11.6812  -15.6099   20.6004 C   0  0  0  0  0  0  0  0  0  0  0  0
   11.8476  -16.7773   20.1080 O   0  0  0  0  0  0  0  0  0  0  0  0
   17.3786  -16.9531   24.2935 N   0  0  0  0  0  0  0  0  0  0  0  0
   16.3242  -16.3455   23.5779 C   0  0  0  0  0  0  0  0  0  0  0  0
   16.5968  -15.3514   22.8233 O   0  0  0  0  0  0  0  0  0  0  0  0
   14.9162  -16.7938   23.6415 C   0  0  0  0  0  0  0  0  0  0  0  0
   13.9623  -16.0254   22.8169 C   0  0  0  0  0  0  0  0  0  0  0  0
   12.5297  -16.4085   22.8294 C   0  0  2  0  0  0  0  0  0  0  0  0
   11.8853  -15.3801   21.9487 N   0  0  0  0  0  0  0  0  0  0  0  0
   11.8163  -16.3883   24.1047 C   0  0  0  0  0  0  0  0  0  0  0  0
   11.9161  -17.3899   25.0595 O   0  0  0  0  0  0  0  0  0  0  0  0
   11.0633  -15.4167   24.3727 O   0  0  0  0  0  0  0  0  0  0  0  0
  2  1  1  6
  2  4  1  0
  3  2  1  0
  4  5  1  1
  6  8  1  0
  6  4  1  0
  7  6  2  0
  9 12  1  0
  9  8  1  0
  9 10  1  6
 11 10  1  0
 12 20  1  0
 13 12  2  0
 15 17  1  0
 15 14  1  0
 16 15  2  0
 18 17  1  0
 19 21  1  0
 19 18  1  1
 20 19  1  0
 21 22  1  0
 23 21  2  0
M  END
$$$$
