TCQ.pdb
     RDKit          3D

 23 22  0  0  1  0  0  0  0  0999 V2000
    6.9010  -15.8811   18.9121 C   0  0  0  0  0  0  0  0  0  0  0  0
    7.5112  -15.4152   20.2265 C   0  0  1  0  0  0  0  0  0  0  0  0
    8.8679  -15.6572   20.2564 O   0  0  0  0  0  0  0  0  0  0  0  0
    7.2386  -13.9455   20.3915 C   0  0  2  0  0  0  0  0  0  0  0  0
    7.9593  -13.2024   19.3705 N   0  0  0  0  0  0  0  0  0  0  0  0
    7.7928  -13.5293   21.7277 C   0  0  0  0  0  0  0  0  0  0  0  0
    8.8891  -12.9128   21.8032 O   0  0  0  0  0  0  0  0  0  0  0  0
    7.0882  -13.8257   22.9116 N   0  0  0  0  0  0  0  0  0  0  0  0
    7.6906  -13.4475   24.1963 C   0  0  1  0  0  0  0  0  0  0  0  0
    6.5783  -12.9160   25.0825 C   0  0  0  0  0  0  0  0  0  0  0  0
    7.1593  -12.6045   26.7533 S   0  0  0  0  0  0  0  0  0  0  0  0
    8.2815  -14.6802   24.7994 C   0  0  0  0  0  0  0  0  0  0  0  0
    7.5362  -15.7063   24.9571 O   0  0  0  0  0  0  0  0  0  0  0  0
   10.8289  -16.4715   29.6490 N   0  0  0  0  0  0  0  0  0  0  0  0
   10.2777  -15.2003   29.3788 C   0  0  0  0  0  0  0  0  0  0  0  0
   10.4074  -14.2832   30.2587 O   0  0  0  0  0  0  0  0  0  0  0  0
    9.5608  -14.8585   28.1311 C   0  0  0  0  0  0  0  0  0  0  0  0
    9.4200  -15.9557   27.1531 C   0  0  0  0  0  0  0  0  0  0  0  0
   10.1941  -15.8966   25.8896 C   0  0  2  0  0  0  0  0  0  0  0  0
    9.6112  -14.7124   25.1778 N   0  0  0  0  0  0  0  0  0  0  0  0
   10.1132  -17.0308   24.9716 C   0  0  0  0  0  0  0  0  0  0  0  0
   11.2212  -17.7127   24.4897 O   0  0  0  0  0  0  0  0  0  0  0  0
    8.9844  -17.4284   24.5834 O   0  0  0  0  0  0  0  0  0  0  0  0
  2  1  1  6
  2  4  1  0
  3  2  1  0
  4  5  1  6
  6  8  1  0
  6  4  1  0
  7  6  2  0
  9 12  1  0
  9  8  1  0
  9 10  1  1
 11 10  1  0
 12 20  1  0
 13 12  2  0
 15 17  1  0
 15 14  1  0
 16 15  2  0
 18 17  1  0
 19 21  1  0
 19 18  1  1
 20 19  1  0
 21 22  1  0
 23 21  2  0
M  END
$$$$
