TCQ.pdb
     RDKit          3D

 23 22  0  0  1  0  0  0  0  0999 V2000
    6.5596  -16.9909   21.8819 C   0  0  0  0  0  0  0  0  0  0  0  0
    7.7207  -16.8511   20.9077 C   0  0  1  0  0  0  0  0  0  0  0  0
    7.3755  -17.3125   19.6555 O   0  0  0  0  0  0  0  0  0  0  0  0
    8.1220  -15.4034   20.8392 C   0  0  2  0  0  0  0  0  0  0  0  0
    9.2541  -15.2576   19.9385 N   0  0  0  0  0  0  0  0  0  0  0  0
    8.5833  -14.9958   22.2129 C   0  0  0  0  0  0  0  0  0  0  0  0
    9.7104  -15.3581   22.6444 O   0  0  0  0  0  0  0  0  0  0  0  0
    7.7564  -14.2018   23.0325 N   0  0  0  0  0  0  0  0  0  0  0  0
    8.1889  -13.9334   24.4099 C   0  0  1  0  0  0  0  0  0  0  0  0
    7.2388  -12.9030   24.9935 C   0  0  0  0  0  0  0  0  0  0  0  0
    7.4303  -12.7643   26.7740 S   0  0  0  0  0  0  0  0  0  0  0  0
    8.0881  -15.2138   25.1733 C   0  0  0  0  0  0  0  0  0  0  0  0
    6.9778  -15.8466   25.1700 O   0  0  0  0  0  0  0  0  0  0  0  0
   11.0142  -19.7299   23.6234 N   0  0  0  0  0  0  0  0  0  0  0  0
   11.7855  -18.7943   24.3463 C   0  0  0  0  0  0  0  0  0  0  0  0
   13.0385  -18.7265   24.1065 O   0  0  0  0  0  0  0  0  0  0  0  0
   11.2305  -17.8770   25.3652 C   0  0  0  0  0  0  0  0  0  0  0  0
    9.7697  -17.9527   25.5663 C   0  0  0  0  0  0  0  0  0  0  0  0
    9.1309  -17.0435   26.5484 C   0  0  2  0  0  0  0  0  0  0  0  0
    9.1766  -15.7076   25.8689 N   0  0  0  0  0  0  0  0  0  0  0  0
    9.7614  -16.8807   27.8567 C   0  0  0  0  0  0  0  0  0  0  0  0
    9.8898  -17.9054   28.7832 O   0  0  0  0  0  0  0  0  0  0  0  0
   10.2209  -15.7555   28.1821 O   0  0  0  0  0  0  0  0  0  0  0  0
  2  1  1  1
  2  4  1  0
  3  2  1  0
  4  5  1  6
  6  8  1  0
  6  4  1  0
  7  6  2  0
  9 12  1  0
  9  8  1  0
  9 10  1  1
 11 10  1  0
 12 20  1  0
 13 12  2  0
 15 17  1  0
 15 14  1  0
 16 15  2  0
 18 17  1  0
 19 21  1  0
 19 18  1  6
 20 19  1  0
 21 22  1  0
 23 21  2  0
M  END
$$$$
