TCQ.pdb
     RDKit          3D

 23 22  0  0  1  0  0  0  0  0999 V2000
    8.9162  -13.9677   17.5935 C   0  0  0  0  0  0  0  0  0  0  0  0
    8.8851  -14.3737   19.0602 C   0  0  1  0  0  0  0  0  0  0  0  0
   10.0566  -14.0232   19.6965 O   0  0  0  0  0  0  0  0  0  0  0  0
    7.7111  -13.7058   19.7214 C   0  0  2  0  0  0  0  0  0  0  0  0
    7.9072  -12.2651   19.7141 N   0  0  0  0  0  0  0  0  0  0  0  0
    7.6878  -14.1504   21.1594 C   0  0  0  0  0  0  0  0  0  0  0  0
    8.1351  -13.4021   22.0691 O   0  0  0  0  0  0  0  0  0  0  0  0
    7.1632  -15.4123   21.5034 N   0  0  0  0  0  0  0  0  0  0  0  0
    7.2346  -15.8394   22.9065 C   0  0  1  0  0  0  0  0  0  0  0  0
    6.4453  -17.1304   23.0309 C   0  0  0  0  0  0  0  0  0  0  0  0
    6.2611  -17.6271   24.7471 S   0  0  0  0  0  0  0  0  0  0  0  0
    8.6720  -16.0843   23.2324 C   0  0  0  0  0  0  0  0  0  0  0  0
    9.5663  -15.4122   22.6146 O   0  0  0  0  0  0  0  0  0  0  0  0
    8.3759  -13.4264   27.5631 N   0  0  0  0  0  0  0  0  0  0  0  0
    9.4702  -14.1731   28.0509 C   0  0  0  0  0  0  0  0  0  0  0  0
    9.9139  -13.9070   29.2190 O   0  0  0  0  0  0  0  0  0  0  0  0
   10.1356  -15.2553   27.2935 C   0  0  0  0  0  0  0  0  0  0  0  0
    9.4858  -15.6414   26.0251 C   0  0  0  0  0  0  0  0  0  0  0  0
   10.0847  -16.7271   25.2117 C   0  0  2  0  0  0  0  0  0  0  0  0
    9.0294  -17.0188   24.1871 N   0  0  0  0  0  0  0  0  0  0  0  0
   10.4047  -17.9923   25.8695 C   0  0  0  0  0  0  0  0  0  0  0  0
   11.6936  -18.3840   26.2012 O   0  0  0  0  0  0  0  0  0  0  0  0
    9.4734  -18.7866   26.1607 O   0  0  0  0  0  0  0  0  0  0  0  0
  2  1  1  6
  2  4  1  0
  3  2  1  0
  4  5  1  1
  6  8  1  0
  6  4  1  0
  7  6  2  0
  9 12  1  0
  9  8  1  0
  9 10  1  6
 11 10  1  0
 12 20  1  0
 13 12  2  0
 15 17  1  0
 15 14  1  0
 16 15  2  0
 18 17  1  0
 19 21  1  0
 19 18  1  1
 20 19  1  0
 21 22  1  0
 23 21  2  0
M  END
$$$$
