TCQ.pdb
     RDKit          3D

 23 22  0  0  1  0  0  0  0  0999 V2000
    7.3026  -15.8260   18.4455 C   0  0  0  0  0  0  0  0  0  0  0  0
    7.8954  -15.3827   19.7756 C   0  0  1  0  0  0  0  0  0  0  0  0
    9.2731  -15.4030   19.7356 O   0  0  0  0  0  0  0  0  0  0  0  0
    7.4018  -13.9966   20.0863 C   0  0  2  0  0  0  0  0  0  0  0  0
    7.9119  -13.0673   19.0912 N   0  0  0  0  0  0  0  0  0  0  0  0
    7.9824  -13.5966   21.4163 C   0  0  0  0  0  0  0  0  0  0  0  0
    8.9943  -12.8481   21.4750 O   0  0  0  0  0  0  0  0  0  0  0  0
    7.3976  -14.0566   22.6131 N   0  0  0  0  0  0  0  0  0  0  0  0
    8.0524  -13.7223   23.8841 C   0  0  1  0  0  0  0  0  0  0  0  0
    6.9645  -13.3331   24.8690 C   0  0  0  0  0  0  0  0  0  0  0  0
    7.6213  -13.1250   26.5277 S   0  0  0  0  0  0  0  0  0  0  0  0
    8.7629  -14.9464   24.3628 C   0  0  0  0  0  0  0  0  0  0  0  0
    8.1014  -16.0325   24.4882 O   0  0  0  0  0  0  0  0  0  0  0  0
    9.9577  -14.0750   29.1658 N   0  0  0  0  0  0  0  0  0  0  0  0
   10.8070  -15.2026   29.1813 C   0  0  0  0  0  0  0  0  0  0  0  0
   10.9254  -15.8580   30.2714 O   0  0  0  0  0  0  0  0  0  0  0  0
   11.5678  -15.6804   28.0064 C   0  0  0  0  0  0  0  0  0  0  0  0
   11.2235  -15.0441   26.7193 C   0  0  0  0  0  0  0  0  0  0  0  0
   10.7342  -15.8926   25.6058 C   0  0  2  0  0  0  0  0  0  0  0  0
   10.1124  -14.9066   24.6624 N   0  0  0  0  0  0  0  0  0  0  0  0
    9.7210  -16.9047   25.8971 C   0  0  0  0  0  0  0  0  0  0  0  0
   10.0129  -18.2379   26.1462 O   0  0  0  0  0  0  0  0  0  0  0  0
    8.5086  -16.5697   25.9286 O   0  0  0  0  0  0  0  0  0  0  0  0
  2  1  1  6
  2  4  1  0
  3  2  1  0
  4  5  1  6
  6  8  1  0
  6  4  1  0
  7  6  2  0
  9 12  1  0
  9  8  1  0
  9 10  1  1
 11 10  1  0
 12 20  1  0
 13 12  2  0
 15 17  1  0
 15 14  1  0
 16 15  2  0
 18 17  1  0
 19 21  1  0
 19 18  1  1
 20 19  1  0
 21 22  1  0
 23 21  2  0
M  END
$$$$
