TCQ.pdb
     RDKit          3D

 23 22  0  0  1  0  0  0  0  0999 V2000
    9.0432  -17.5836   13.7819 C   0  0  0  0  0  0  0  0  0  0  0  0
    9.4526  -17.0594   15.1510 C   0  0  1  0  0  0  0  0  0  0  0  0
   10.6813  -17.5592   15.5260 O   0  0  0  0  0  0  0  0  0  0  0  0
    9.4926  -15.5570   15.1007 C   0  0  2  0  0  0  0  0  0  0  0  0
   10.5462  -15.1314   14.1936 N   0  0  0  0  0  0  0  0  0  0  0  0
    9.8574  -15.0674   16.4767 C   0  0  0  0  0  0  0  0  0  0  0  0
   11.0627  -14.8760   16.7905 O   0  0  0  0  0  0  0  0  0  0  0  0
    8.8508  -14.8168   17.4306 N   0  0  0  0  0  0  0  0  0  0  0  0
    9.2556  -14.4228   18.7860 C   0  0  1  0  0  0  0  0  0  0  0  0
    8.0008  -14.0103   19.5347 C   0  0  0  0  0  0  0  0  0  0  0  0
    7.3222  -12.4778   18.8891 S   0  0  0  0  0  0  0  0  0  0  0  0
    9.8728  -15.6165   19.4390 C   0  0  0  0  0  0  0  0  0  0  0  0
    9.9873  -16.6962   18.7651 O   0  0  0  0  0  0  0  0  0  0  0  0
   14.4913  -14.0493   18.5270 N   0  0  0  0  0  0  0  0  0  0  0  0
   14.9484  -14.8685   19.5819 C   0  0  0  0  0  0  0  0  0  0  0  0
   16.2085  -14.9907   19.7530 O   0  0  0  0  0  0  0  0  0  0  0  0
   14.0555  -15.5933   20.5120 C   0  0  0  0  0  0  0  0  0  0  0  0
   12.6103  -15.3522   20.3297 C   0  0  0  0  0  0  0  0  0  0  0  0
   11.6439  -16.1190   21.1527 C   0  0  2  0  0  0  0  0  0  0  0  0
   10.3150  -15.5545   20.7478 N   0  0  0  0  0  0  0  0  0  0  0  0
   11.7305  -16.0101   22.6075 C   0  0  0  0  0  0  0  0  0  0  0  0
   12.0117  -17.0798   23.4450 O   0  0  0  0  0  0  0  0  0  0  0  0
   11.5428  -14.8918   23.1527 O   0  0  0  0  0  0  0  0  0  0  0  0
  2  1  1  6
  2  4  1  0
  3  2  1  0
  4  5  1  6
  6  8  1  0
  6  4  1  0
  7  6  2  0
  9 12  1  0
  9  8  1  0
  9 10  1  1
 11 10  1  0
 12 20  1  0
 13 12  2  0
 15 17  1  0
 15 14  1  0
 16 15  2  0
 18 17  1  0
 19 21  1  0
 19 18  1  6
 20 19  1  0
 21 22  1  0
 23 21  2  0
M  END
$$$$
