TCQ.pdb
     RDKit          3D

 23 22  0  0  1  0  0  0  0  0999 V2000
    8.1250  -15.5919   18.6484 C   0  0  0  0  0  0  0  0  0  0  0  0
    8.3522  -15.1160   20.0763 C   0  0  1  0  0  0  0  0  0  0  0  0
    9.6930  -14.9133   20.3239 O   0  0  0  0  0  0  0  0  0  0  0  0
    7.5828  -13.8415   20.2888 C   0  0  2  0  0  0  0  0  0  0  0  0
    8.1397  -12.7945   19.4474 N   0  0  0  0  0  0  0  0  0  0  0  0
    7.7847  -13.4240   21.7209 C   0  0  0  0  0  0  0  0  0  0  0  0
    8.6754  -12.5862   22.0250 O   0  0  0  0  0  0  0  0  0  0  0  0
    6.9763  -13.9676   22.7391 N   0  0  0  0  0  0  0  0  0  0  0  0
    7.2125  -13.5375   24.1231 C   0  0  1  0  0  0  0  0  0  0  0  0
    5.8621  -13.4568   24.8123 C   0  0  0  0  0  0  0  0  0  0  0  0
    6.0288  -12.9679   26.5326 S   0  0  0  0  0  0  0  0  0  0  0  0
    8.0622  -14.5756   24.7808 C   0  0  0  0  0  0  0  0  0  0  0  0
    7.8724  -15.8043   24.4849 O   0  0  0  0  0  0  0  0  0  0  0  0
   13.4473  -14.5873   27.4257 N   0  0  0  0  0  0  0  0  0  0  0  0
   12.7092  -15.2742   28.4137 C   0  0  0  0  0  0  0  0  0  0  0  0
   13.3444  -16.0048   29.2472 O   0  0  0  0  0  0  0  0  0  0  0  0
   11.2385  -15.1958   28.5504 C   0  0  0  0  0  0  0  0  0  0  0  0
   10.5339  -14.4692   27.4753 C   0  0  0  0  0  0  0  0  0  0  0  0
    9.8649  -15.2441   26.4025 C   0  0  2  0  0  0  0  0  0  0  0  0
    9.0385  -14.2146   25.6913 N   0  0  0  0  0  0  0  0  0  0  0  0
    8.9622  -16.3270   26.7874 C   0  0  0  0  0  0  0  0  0  0  0  0
    7.7350  -16.1255   27.4023 O   0  0  0  0  0  0  0  0  0  0  0  0
    9.2972  -17.5178   26.5573 O   0  0  0  0  0  0  0  0  0  0  0  0
  2  1  1  6
  2  4  1  0
  3  2  1  0
  4  5  1  6
  6  8  1  0
  6  4  1  0
  7  6  2  0
  9 12  1  0
  9  8  1  0
  9 10  1  1
 11 10  1  0
 12 20  1  0
 13 12  2  0
 15 17  1  0
 15 14  1  0
 16 15  2  0
 18 17  1  0
 19 21  1  0
 19 18  1  1
 20 19  1  0
 21 22  1  0
 23 21  2  0
M  END
$$$$
