TCQ.pdb
     RDKit          3D

 23 22  0  0  1  0  0  0  0  0999 V2000
    6.3671  -14.3477   19.2344 C   0  0  0  0  0  0  0  0  0  0  0  0
    7.0367  -14.4697   20.5959 C   0  0  1  0  0  0  0  0  0  0  0  0
    8.1643  -15.2593   20.5247 O   0  0  0  0  0  0  0  0  0  0  0  0
    7.3928  -13.0926   21.0841 C   0  0  2  0  0  0  0  0  0  0  0  0
    8.3292  -12.4780   20.1570 N   0  0  0  0  0  0  0  0  0  0  0  0
    8.1012  -13.2489   22.4031 C   0  0  0  0  0  0  0  0  0  0  0  0
    9.3504  -13.4081   22.4450 O   0  0  0  0  0  0  0  0  0  0  0  0
    7.3715  -13.2179   23.6084 N   0  0  0  0  0  0  0  0  0  0  0  0
    8.0766  -13.5232   24.8597 C   0  0  1  0  0  0  0  0  0  0  0  0
    7.2224  -13.0042   26.0026 C   0  0  0  0  0  0  0  0  0  0  0  0
    5.4932  -13.4369   25.7817 S   0  0  0  0  0  0  0  0  0  0  0  0
    8.2100  -15.0084   24.9532 C   0  0  0  0  0  0  0  0  0  0  0  0
    7.5820  -15.7369   24.1119 O   0  0  0  0  0  0  0  0  0  0  0  0
   10.5696  -17.5891   21.8238 N   0  0  0  0  0  0  0  0  0  0  0  0
   11.5030  -18.0859   22.7591 C   0  0  0  0  0  0  0  0  0  0  0  0
   12.3220  -18.9892   22.3778 O   0  0  0  0  0  0  0  0  0  0  0  0
   11.5982  -17.6193   24.1594 C   0  0  0  0  0  0  0  0  0  0  0  0
   10.6080  -16.6011   24.5631 C   0  0  0  0  0  0  0  0  0  0  0  0
    9.7014  -16.8909   25.7003 C   0  0  2  0  0  0  0  0  0  0  0  0
    9.0008  -15.5852   25.9302 N   0  0  0  0  0  0  0  0  0  0  0  0
   10.2926  -17.2904   26.9757 C   0  0  0  0  0  0  0  0  0  0  0  0
   10.5932  -18.6034   27.3081 O   0  0  0  0  0  0  0  0  0  0  0  0
   10.5518  -16.4096   27.8360 O   0  0  0  0  0  0  0  0  0  0  0  0
  2  1  1  6
  2  4  1  0
  3  2  1  0
  4  5  1  6
  6  8  1  0
  6  4  1  0
  7  6  2  0
  9 12  1  0
  9  8  1  0
  9 10  1  1
 11 10  1  0
 12 20  1  0
 13 12  2  0
 15 17  1  0
 15 14  1  0
 16 15  2  0
 18 17  1  0
 19 21  1  0
 19 18  1  6
 20 19  1  0
 21 22  1  0
 23 21  2  0
M  END
$$$$
