TCQ.pdb
     RDKit          3D

 23 22  0  0  1  0  0  0  0  0999 V2000
    6.5112  -14.3001   19.2640 C   0  0  0  0  0  0  0  0  0  0  0  0
    7.1238  -14.4247   20.6519 C   0  0  1  0  0  0  0  0  0  0  0  0
    8.2184  -15.2624   20.6372 O   0  0  0  0  0  0  0  0  0  0  0  0
    7.5204  -13.0549   21.1294 C   0  0  2  0  0  0  0  0  0  0  0  0
    8.6073  -12.5514   20.3054 N   0  0  0  0  0  0  0  0  0  0  0  0
    8.0475  -13.1993   22.5320 C   0  0  0  0  0  0  0  0  0  0  0  0
    9.2740  -13.4011   22.7383 O   0  0  0  0  0  0  0  0  0  0  0  0
    7.1713  -13.1094   23.6321 N   0  0  0  0  0  0  0  0  0  0  0  0
    7.6916  -13.4288   24.9675 C   0  0  1  0  0  0  0  0  0  0  0  0
    6.6422  -13.0045   25.9793 C   0  0  0  0  0  0  0  0  0  0  0  0
    6.8735  -11.2988   26.4923 S   0  0  0  0  0  0  0  0  0  0  0  0
    7.8968  -14.9074   25.0315 C   0  0  0  0  0  0  0  0  0  0  0  0
    7.0608  -15.6709   24.4389 O   0  0  0  0  0  0  0  0  0  0  0  0
   10.1524  -19.6443   22.0640 N   0  0  0  0  0  0  0  0  0  0  0  0
   10.8478  -18.5242   22.5688 C   0  0  0  0  0  0  0  0  0  0  0  0
   11.4702  -17.7738   21.7432 O   0  0  0  0  0  0  0  0  0  0  0  0
   10.8961  -18.1580   24.0010 C   0  0  0  0  0  0  0  0  0  0  0  0
   10.2003  -16.9077   24.3654 C   0  0  0  0  0  0  0  0  0  0  0  0
    9.3496  -16.8860   25.5799 C   0  0  2  0  0  0  0  0  0  0  0  0
    8.9729  -15.4410   25.7168 N   0  0  0  0  0  0  0  0  0  0  0  0
    9.9426  -17.2965   26.8509 C   0  0  0  0  0  0  0  0  0  0  0  0
   10.4538  -16.4077   27.7855 O   0  0  0  0  0  0  0  0  0  0  0  0
   10.0033  -18.5209   27.1341 O   0  0  0  0  0  0  0  0  0  0  0  0
  2  1  1  6
  2  4  1  0
  3  2  1  0
  4  5  1  6
  6  8  1  0
  6  4  1  0
  7  6  2  0
  9 12  1  0
  9  8  1  0
  9 10  1  1
 11 10  1  0
 12 20  1  0
 13 12  2  0
 15 17  1  0
 15 14  1  0
 16 15  2  0
 18 17  1  0
 19 21  1  0
 19 18  1  6
 20 19  1  0
 21 22  1  0
 23 21  2  0
M  END
$$$$
