TCQ.pdb
     RDKit          3D

 23 22  0  0  1  0  0  0  0  0999 V2000
    6.4712  -19.2117   17.1852 C   0  0  0  0  0  0  0  0  0  0  0  0
    7.2173  -18.3895   18.2265 C   0  0  1  0  0  0  0  0  0  0  0  0
    8.0871  -19.1770   18.9498 O   0  0  0  0  0  0  0  0  0  0  0  0
    7.9668  -17.2894   17.5267 C   0  0  2  0  0  0  0  0  0  0  0  0
    8.9947  -17.8691   16.6772 N   0  0  0  0  0  0  0  0  0  0  0  0
    8.6623  -16.4725   18.5825 C   0  0  0  0  0  0  0  0  0  0  0  0
    9.8311  -16.7639   18.9522 O   0  0  0  0  0  0  0  0  0  0  0  0
    8.0108  -15.3694   19.1697 N   0  0  0  0  0  0  0  0  0  0  0  0
    8.7449  -14.5700   20.1588 C   0  0  1  0  0  0  0  0  0  0  0  0
    7.9275  -13.3201   20.4322 C   0  0  0  0  0  0  0  0  0  0  0  0
    7.7776  -12.2968   18.9636 S   0  0  0  0  0  0  0  0  0  0  0  0
    8.8629  -15.3875   21.4038 C   0  0  0  0  0  0  0  0  0  0  0  0
    7.8884  -16.1436   21.7382 O   0  0  0  0  0  0  0  0  0  0  0  0
   11.0144  -19.9354   20.6653 N   0  0  0  0  0  0  0  0  0  0  0  0
   11.1184  -20.0201   22.0706 C   0  0  0  0  0  0  0  0  0  0  0  0
   11.4462  -21.1410   22.5883 O   0  0  0  0  0  0  0  0  0  0  0  0
   10.8771  -18.8845   22.9871 C   0  0  0  0  0  0  0  0  0  0  0  0
   10.4636  -17.6209   22.3450 C   0  0  0  0  0  0  0  0  0  0  0  0
   10.3297  -16.4012   23.1778 C   0  0  2  0  0  0  0  0  0  0  0  0
   10.0063  -15.3301   22.1794 N   0  0  0  0  0  0  0  0  0  0  0  0
   11.4942  -15.9449   23.9338 C   0  0  0  0  0  0  0  0  0  0  0  0
   11.7132  -16.2491   25.2696 O   0  0  0  0  0  0  0  0  0  0  0  0
   12.3599  -15.2346   23.3602 O   0  0  0  0  0  0  0  0  0  0  0  0
  2  1  1  6
  2  4  1  0
  3  2  1  0
  4  5  1  6
  6  8  1  0
  6  4  1  0
  7  6  2  0
  9 12  1  0
  9  8  1  0
  9 10  1  1
 11 10  1  0
 12 20  1  0
 13 12  2  0
 15 17  1  0
 15 14  1  0
 16 15  2  0
 18 17  1  0
 19 21  1  0
 19 18  1  6
 20 19  1  0
 21 22  1  0
 23 21  2  0
M  END
$$$$
