TCQ.pdb
     RDKit          3D

 23 22  0  0  1  0  0  0  0  0999 V2000
    8.0345  -16.7051   21.0950 C   0  0  0  0  0  0  0  0  0  0  0  0
    6.8030  -15.8107   21.0788 C   0  0  1  0  0  0  0  0  0  0  0  0
    5.9191  -16.1660   22.0751 O   0  0  0  0  0  0  0  0  0  0  0  0
    7.2409  -14.3827   21.2534 C   0  0  2  0  0  0  0  0  0  0  0  0
    8.1498  -14.0207   20.1778 N   0  0  0  0  0  0  0  0  0  0  0  0
    8.0130  -14.3002   22.5430 C   0  0  0  0  0  0  0  0  0  0  0  0
    9.2284  -14.6299   22.5847 O   0  0  0  0  0  0  0  0  0  0  0  0
    7.3819  -13.8512   23.7203 N   0  0  0  0  0  0  0  0  0  0  0  0
    8.1519  -13.8550   24.9706 C   0  0  1  0  0  0  0  0  0  0  0  0
    7.3933  -13.0071   25.9759 C   0  0  0  0  0  0  0  0  0  0  0  0
    5.6914  -13.5549   26.1483 S   0  0  0  0  0  0  0  0  0  0  0  0
    8.2315  -15.2683   25.4488 C   0  0  0  0  0  0  0  0  0  0  0  0
    7.4959  -16.1501   24.8881 O   0  0  0  0  0  0  0  0  0  0  0  0
   11.7565  -18.1529   23.1509 N   0  0  0  0  0  0  0  0  0  0  0  0
   11.6781  -19.0253   24.2580 C   0  0  0  0  0  0  0  0  0  0  0  0
   12.3362  -20.1194   24.2161 O   0  0  0  0  0  0  0  0  0  0  0  0
   10.8829  -18.7482   25.4739 C   0  0  0  0  0  0  0  0  0  0  0  0
   10.2263  -17.4265   25.5215 C   0  0  0  0  0  0  0  0  0  0  0  0
    9.4611  -17.0469   26.7337 C   0  0  2  0  0  0  0  0  0  0  0  0
    9.0872  -15.6175   26.4775 N   0  0  0  0  0  0  0  0  0  0  0  0
   10.1423  -17.0867   28.0260 C   0  0  0  0  0  0  0  0  0  0  0  0
   10.2591  -18.2318   28.8005 O   0  0  0  0  0  0  0  0  0  0  0  0
   10.6594  -16.0339   28.4812 O   0  0  0  0  0  0  0  0  0  0  0  0
  2  1  1  1
  2  4  1  0
  3  2  1  0
  4  5  1  6
  6  8  1  0
  6  4  1  0
  7  6  2  0
  9 12  1  0
  9  8  1  0
  9 10  1  1
 11 10  1  0
 12 20  1  0
 13 12  2  0
 15 17  1  0
 15 14  1  0
 16 15  2  0
 18 17  1  0
 19 21  1  0
 19 18  1  6
 20 19  1  0
 21 22  1  0
 23 21  2  0
M  END
$$$$
