TCQ.pdb
     RDKit          3D

 23 22  0  0  1  0  0  0  0  0999 V2000
    6.6796  -15.1472   19.0279 C   0  0  0  0  0  0  0  0  0  0  0  0
    7.2941  -14.9810   20.4106 C   0  0  1  0  0  0  0  0  0  0  0  0
    8.6019  -15.4160   20.4274 O   0  0  0  0  0  0  0  0  0  0  0  0
    7.2206  -13.5304   20.8005 C   0  0  2  0  0  0  0  0  0  0  0  0
    8.0059  -12.7386   19.8676 N   0  0  0  0  0  0  0  0  0  0  0  0
    7.8589  -13.3933   22.1569 C   0  0  0  0  0  0  0  0  0  0  0  0
    9.1020  -13.2186   22.2658 O   0  0  0  0  0  0  0  0  0  0  0  0
    7.0694  -13.4586   23.3225 N   0  0  0  0  0  0  0  0  0  0  0  0
    7.7447  -13.4290   24.6260 C   0  0  1  0  0  0  0  0  0  0  0  0
    6.7509  -12.8953   25.6423 C   0  0  0  0  0  0  0  0  0  0  0  0
    7.3949  -13.0079   27.3152 S   0  0  0  0  0  0  0  0  0  0  0  0
    8.1260  -14.8320   24.9701 C   0  0  0  0  0  0  0  0  0  0  0  0
    7.2604  -15.7598   24.8185 O   0  0  0  0  0  0  0  0  0  0  0  0
   12.4793  -18.6885   26.9034 N   0  0  0  0  0  0  0  0  0  0  0  0
   11.9676  -19.0935   25.6516 C   0  0  0  0  0  0  0  0  0  0  0  0
   12.2023  -20.2856   25.2570 O   0  0  0  0  0  0  0  0  0  0  0  0
   11.1661  -18.2219   24.7653 C   0  0  0  0  0  0  0  0  0  0  0  0
   10.9785  -16.8338   25.2324 C   0  0  0  0  0  0  0  0  0  0  0  0
    9.7392  -16.4839   25.9678 C   0  0  2  0  0  0  0  0  0  0  0  0
    9.3931  -15.1230   25.4415 N   0  0  0  0  0  0  0  0  0  0  0  0
    9.8022  -16.3770   27.4239 C   0  0  0  0  0  0  0  0  0  0  0  0
    9.6008  -17.4463   28.2845 O   0  0  0  0  0  0  0  0  0  0  0  0
   10.0520  -15.2609   27.9483 O   0  0  0  0  0  0  0  0  0  0  0  0
  2  1  1  6
  2  4  1  0
  3  2  1  0
  4  5  1  6
  6  8  1  0
  6  4  1  0
  7  6  2  0
  9 12  1  0
  9  8  1  0
  9 10  1  1
 11 10  1  0
 12 20  1  0
 13 12  2  0
 15 17  1  0
 15 14  1  0
 16 15  2  0
 18 17  1  0
 19 21  1  0
 19 18  1  6
 20 19  1  0
 21 22  1  0
 23 21  2  0
M  END
$$$$
