TCQ.pdb
     RDKit          3D

 23 22  0  0  1  0  0  0  0  0999 V2000
    8.5638  -16.0155   18.6542 C   0  0  0  0  0  0  0  0  0  0  0  0
    8.5142  -14.6212   18.0456 C   0  0  1  0  0  0  0  0  0  0  0  0
    8.0142  -14.6583   16.7615 O   0  0  0  0  0  0  0  0  0  0  0  0
    7.6561  -13.7447   18.9156 C   0  0  2  0  0  0  0  0  0  0  0  0
    7.5852  -12.4119   18.3388 N   0  0  0  0  0  0  0  0  0  0  0  0
    8.3410  -13.6224   20.2506 C   0  0  0  0  0  0  0  0  0  0  0  0
    8.6794  -12.4935   20.6964 O   0  0  0  0  0  0  0  0  0  0  0  0
    8.6108  -14.7733   21.0177 N   0  0  0  0  0  0  0  0  0  0  0  0
    8.7713  -14.6232   22.4695 C   0  0  1  0  0  0  0  0  0  0  0  0
    7.4633  -14.0828   23.0194 C   0  0  0  0  0  0  0  0  0  0  0  0
    7.4752  -14.0303   24.8147 S   0  0  0  0  0  0  0  0  0  0  0  0
    9.0448  -15.9780   23.0370 C   0  0  0  0  0  0  0  0  0  0  0  0
    8.1188  -16.8581   23.0028 O   0  0  0  0  0  0  0  0  0  0  0  0
   13.2424  -19.9468   22.0040 N   0  0  0  0  0  0  0  0  0  0  0  0
   12.9924  -18.6607   21.4782 C   0  0  0  0  0  0  0  0  0  0  0  0
   13.3655  -18.4112   20.2821 O   0  0  0  0  0  0  0  0  0  0  0  0
   12.3157  -17.5792   22.2264 C   0  0  0  0  0  0  0  0  0  0  0  0
   11.9772  -17.8873   23.6302 C   0  0  0  0  0  0  0  0  0  0  0  0
   10.5930  -17.6477   24.1054 C   0  0  2  0  0  0  0  0  0  0  0  0
   10.2781  -16.2763   23.5870 N   0  0  0  0  0  0  0  0  0  0  0  0
   10.3467  -17.6284   25.5458 C   0  0  0  0  0  0  0  0  0  0  0  0
    9.9082  -16.5086   26.2376 O   0  0  0  0  0  0  0  0  0  0  0  0
   10.5366  -18.6760   26.2162 O   0  0  0  0  0  0  0  0  0  0  0  0
  2  1  1  1
  2  4  1  0
  3  2  1  0
  4  5  1  6
  6  8  1  0
  6  4  1  0
  7  6  2  0
  9 12  1  0
  9  8  1  0
  9 10  1  1
 11 10  1  0
 12 20  1  0
 13 12  2  0
 15 17  1  0
 15 14  1  0
 16 15  2  0
 18 17  1  0
 19 21  1  0
 19 18  1  1
 20 19  1  0
 21 22  1  0
 23 21  2  0
M  END
$$$$
