FGA.pdb
     RDKit          3D

 21 21  0  0  1  0  0  0  0  0999 V2000
    6.9663  -16.3247   25.7821 N   0  0  0  0  0  0  0  0  0  0  0  0
    7.1830  -15.7036   24.4929 C   0  0  1  0  0  0  0  0  0  0  0  0
    8.0341  -14.4552   24.7642 C   0  0  0  0  0  0  0  0  0  0  0  0
    7.3310  -13.4986   25.6392 C   0  0  0  0  0  0  0  0  0  0  0  0
    7.8382  -13.2551   26.9125 C   0  0  0  0  0  0  0  0  0  0  0  0
    7.2432  -12.3793   27.7884 C   0  0  0  0  0  0  0  0  0  0  0  0
    6.1038  -11.7340   27.3603 C   0  0  0  0  0  0  0  0  0  0  0  0
    5.5879  -11.9648   26.0997 C   0  0  0  0  0  0  0  0  0  0  0  0
    6.2061  -12.8525   25.2352 C   0  0  0  0  0  0  0  0  0  0  0  0
    8.0149  -16.5667   23.6085 C   0  0  0  0  0  0  0  0  0  0  0  0
    8.4532  -17.6441   24.0784 O   0  0  0  0  0  0  0  0  0  0  0  0
    8.3343  -16.2363   22.2744 N   0  0  0  0  0  0  0  0  0  0  0  0
    9.1792  -16.9746   21.4065 C   0  0  0  0  0  0  0  0  0  0  0  0
   10.5804  -17.1203   21.8017 C   0  0  0  0  0  0  0  0  0  0  0  0
   11.3228  -17.7165   20.9753 O   0  0  0  0  0  0  0  0  0  0  0  0
   13.1726  -15.5792   23.6933 C   0  0  0  0  0  0  0  0  0  0  0  0
   12.5951  -16.8826   23.1858 C   0  0  2  0  0  0  0  0  0  0  0  0
   11.1726  -16.6654   23.0029 N   0  0  0  0  0  0  0  0  0  0  0  0
   12.8035  -17.9050   24.2494 C   0  0  0  0  0  0  0  0  0  0  0  0
   13.9776  -18.2273   24.5640 O   0  0  0  0  0  0  0  0  0  0  0  0
   11.7651  -18.5220   24.9128 O   0  0  0  0  0  0  0  0  0  0  0  0
  2  1  1  1
  2 10  1  0
  3  2  1  0
  3  4  1  0
  4  5  2  0
  5  6  1  0
  7  6  2  0
  8  7  1  0
  9  4  1  0
  9  8  2  0
 10 11  2  0
 12 13  1  0
 12 10  1  0
 13 14  1  0
 14 15  2  0
 14 18  1  0
 17 16  1  1
 17 19  1  0
 18 17  1  0
 19 21  1  0
 20 19  2  0
M  END
$$$$
