FGA.pdb
     RDKit          3D

 21 21  0  0  1  0  0  0  0  0999 V2000
    7.0959  -16.5359   26.1744 N   0  0  0  0  0  0  0  0  0  0  0  0
    6.7088  -16.1780   24.8265 C   0  0  1  0  0  0  0  0  0  0  0  0
    7.4810  -14.8940   24.4930 C   0  0  0  0  0  0  0  0  0  0  0  0
    7.1542  -13.8046   25.4319 C   0  0  0  0  0  0  0  0  0  0  0  0
    8.1881  -13.0225   25.9392 C   0  0  0  0  0  0  0  0  0  0  0  0
    7.9683  -11.9893   26.8180 C   0  0  0  0  0  0  0  0  0  0  0  0
    6.6651  -11.7438   27.1914 C   0  0  0  0  0  0  0  0  0  0  0  0
    5.6280  -12.5108   26.6969 C   0  0  0  0  0  0  0  0  0  0  0  0
    5.8755  -13.5469   25.8121 C   0  0  0  0  0  0  0  0  0  0  0  0
    7.1785  -17.1912   23.8406 C   0  0  0  0  0  0  0  0  0  0  0  0
    7.7834  -18.2008   24.2749 O   0  0  0  0  0  0  0  0  0  0  0  0
    6.9790  -17.0745   22.4486 N   0  0  0  0  0  0  0  0  0  0  0  0
    7.9234  -16.5996   21.5028 C   0  0  0  0  0  0  0  0  0  0  0  0
    9.3376  -16.8394   21.7915 C   0  0  0  0  0  0  0  0  0  0  0  0
   10.0357  -17.2332   20.8184 O   0  0  0  0  0  0  0  0  0  0  0  0
   11.7870  -15.3937   23.9147 C   0  0  0  0  0  0  0  0  0  0  0  0
   11.4337  -16.5804   23.0448 C   0  0  2  0  0  0  0  0  0  0  0  0
    9.9863  -16.6762   23.0378 N   0  0  0  0  0  0  0  0  0  0  0  0
   12.0035  -17.7937   23.6954 C   0  0  0  0  0  0  0  0  0  0  0  0
   13.2503  -17.8840   23.8316 O   0  0  0  0  0  0  0  0  0  0  0  0
   11.2264  -18.8324   24.1603 O   0  0  0  0  0  0  0  0  0  0  0  0
  2  1  1  1
  2 10  1  0
  3  2  1  0
  3  4  1  0
  4  5  2  0
  5  6  1  0
  7  6  2  0
  8  7  1  0
  9  4  1  0
  9  8  2  0
 10 11  2  0
 12 13  1  0
 12 10  1  0
 13 14  1  0
 14 15  2  0
 14 18  1  0
 17 16  1  1
 17 19  1  0
 18 17  1  0
 19 21  1  0
 20 19  2  0
M  END
$$$$
