FGA.pdb
     RDKit          3D

 21 21  0  0  1  0  0  0  0  0999 V2000
    7.7877  -16.1674   25.9403 N   0  0  0  0  0  0  0  0  0  0  0  0
    7.4046  -16.5250   24.5912 C   0  0  1  0  0  0  0  0  0  0  0  0
    6.2161  -15.6204   24.2367 C   0  0  0  0  0  0  0  0  0  0  0  0
    6.3457  -14.2871   24.8538 C   0  0  0  0  0  0  0  0  0  0  0  0
    7.0643  -13.3028   24.1811 C   0  0  0  0  0  0  0  0  0  0  0  0
    7.2317  -12.0363   24.6870 C   0  0  0  0  0  0  0  0  0  0  0  0
    6.6546  -11.7621   25.9076 C   0  0  0  0  0  0  0  0  0  0  0  0
    5.9385  -12.7281   26.5877 C   0  0  0  0  0  0  0  0  0  0  0  0
    5.7839  -13.9975   26.0564 C   0  0  0  0  0  0  0  0  0  0  0  0
    8.4738  -16.1770   23.6140 C   0  0  0  0  0  0  0  0  0  0  0  0
    8.4137  -16.6843   22.4682 O   0  0  0  0  0  0  0  0  0  0  0  0
    9.5467  -15.3093   23.9093 N   0  0  0  0  0  0  0  0  0  0  0  0
   10.8792  -15.6941   24.2069 C   0  0  0  0  0  0  0  0  0  0  0  0
   11.2798  -15.6832   25.6140 C   0  0  0  0  0  0  0  0  0  0  0  0
   12.4968  -15.9245   25.8384 O   0  0  0  0  0  0  0  0  0  0  0  0
   10.4111  -14.1983   28.7614 C   0  0  0  0  0  0  0  0  0  0  0  0
   11.0662  -15.3552   28.0385 C   0  0  2  0  0  0  0  0  0  0  0  0
   10.4464  -15.4336   26.7293 N   0  0  0  0  0  0  0  0  0  0  0  0
   10.7527  -16.5934   28.8058 C   0  0  0  0  0  0  0  0  0  0  0  0
    9.9624  -17.4354   28.3083 O   0  0  0  0  0  0  0  0  0  0  0  0
   11.2898  -16.8659   30.0452 O   0  0  0  0  0  0  0  0  0  0  0  0
  2  1  1  1
  2 10  1  0
  3  2  1  0
  3  4  1  0
  4  5  2  0
  5  6  1  0
  7  6  2  0
  8  7  1  0
  9  4  1  0
  9  8  2  0
 10 11  2  0
 12 13  1  0
 12 10  1  0
 13 14  1  0
 14 15  2  0
 14 18  1  0
 17 16  1  1
 17 19  1  0
 18 17  1  0
 19 21  1  0
 20 19  2  0
M  END
$$$$
