FGA.pdb
     RDKit          3D

 21 21  0  0  1  0  0  0  0  0999 V2000
    6.6902  -16.3749   25.8396 N   0  0  0  0  0  0  0  0  0  0  0  0
    7.0281  -15.7974   24.5563 C   0  0  1  0  0  0  0  0  0  0  0  0
    8.0243  -14.6674   24.8518 C   0  0  0  0  0  0  0  0  0  0  0  0
    7.4104  -13.6015   25.6655 C   0  0  0  0  0  0  0  0  0  0  0  0
    8.1153  -13.0981   26.7552 C   0  0  0  0  0  0  0  0  0  0  0  0
    7.6145  -12.1058   27.5629 C   0  0  0  0  0  0  0  0  0  0  0  0
    6.3655  -11.6117   27.2563 C   0  0  0  0  0  0  0  0  0  0  0  0
    5.6532  -12.1007   26.1783 C   0  0  0  0  0  0  0  0  0  0  0  0
    6.1800  -13.1014   25.3791 C   0  0  0  0  0  0  0  0  0  0  0  0
    7.7701  -16.7678   23.7037 C   0  0  0  0  0  0  0  0  0  0  0  0
    8.2117  -17.8104   24.2439 O   0  0  0  0  0  0  0  0  0  0  0  0
    8.0010  -16.5757   22.3250 N   0  0  0  0  0  0  0  0  0  0  0  0
    8.8326  -17.3705   21.4950 C   0  0  0  0  0  0  0  0  0  0  0  0
   10.2382  -17.4963   21.8811 C   0  0  0  0  0  0  0  0  0  0  0  0
   10.8789  -18.4258   21.3197 O   0  0  0  0  0  0  0  0  0  0  0  0
   13.0580  -15.6441   23.0582 C   0  0  0  0  0  0  0  0  0  0  0  0
   12.3393  -16.9757   23.0413 C   0  0  2  0  0  0  0  0  0  0  0  0
   10.9362  -16.6894   22.8099 N   0  0  0  0  0  0  0  0  0  0  0  0
   12.5005  -17.5848   24.3915 C   0  0  0  0  0  0  0  0  0  0  0  0
   11.4865  -17.7273   25.1213 O   0  0  0  0  0  0  0  0  0  0  0  0
   13.7162  -18.0044   24.8865 O   0  0  0  0  0  0  0  0  0  0  0  0
  2  1  1  1
  2 10  1  0
  3  2  1  0
  3  4  1  0
  4  5  2  0
  5  6  1  0
  7  6  2  0
  8  7  1  0
  9  4  1  0
  9  8  2  0
 10 11  2  0
 12 13  1  0
 12 10  1  0
 13 14  1  0
 14 15  2  0
 14 18  1  0
 17 16  1  1
 17 19  1  0
 18 17  1  0
 19 21  1  0
 20 19  2  0
M  END
$$$$
