FGA.pdb
     RDKit          3D

 21 21  0  0  1  0  0  0  0  0999 V2000
    7.6197  -16.4686   26.1533 N   0  0  0  0  0  0  0  0  0  0  0  0
    6.8986  -16.5123   24.8993 C   0  0  1  0  0  0  0  0  0  0  0  0
    5.9147  -15.3346   24.9376 C   0  0  0  0  0  0  0  0  0  0  0  0
    6.5668  -14.0975   25.4061 C   0  0  0  0  0  0  0  0  0  0  0  0
    6.3433  -13.6742   26.7133 C   0  0  0  0  0  0  0  0  0  0  0  0
    6.9126  -12.5339   27.2267 C   0  0  0  0  0  0  0  0  0  0  0  0
    7.7299  -11.8044   26.3913 C   0  0  0  0  0  0  0  0  0  0  0  0
    7.9616  -12.2111   25.0916 C   0  0  0  0  0  0  0  0  0  0  0  0
    7.3759  -13.3646   24.5975 C   0  0  0  0  0  0  0  0  0  0  0  0
    7.8004  -16.2388   23.7456 C   0  0  0  0  0  0  0  0  0  0  0  0
    7.3090  -16.2715   22.5918 O   0  0  0  0  0  0  0  0  0  0  0  0
    9.1739  -15.9458   23.8829 N   0  0  0  0  0  0  0  0  0  0  0  0
   10.0931  -15.7197   22.8265 C   0  0  0  0  0  0  0  0  0  0  0  0
   10.8115  -16.8826   22.3048 C   0  0  0  0  0  0  0  0  0  0  0  0
   10.6302  -17.9630   22.9288 O   0  0  0  0  0  0  0  0  0  0  0  0
   12.9192  -18.0128   19.4837 C   0  0  0  0  0  0  0  0  0  0  0  0
   12.3520  -18.1576   20.8791 C   0  0  2  0  0  0  0  0  0  0  0  0
   11.6774  -16.9108   21.1867 N   0  0  0  0  0  0  0  0  0  0  0  0
   13.5018  -18.3369   21.8097 C   0  0  0  0  0  0  0  0  0  0  0  0
   13.9393  -17.3393   22.4378 O   0  0  0  0  0  0  0  0  0  0  0  0
   14.1165  -19.5523   22.0195 O   0  0  0  0  0  0  0  0  0  0  0  0
  2  1  1  1
  2 10  1  0
  3  2  1  0
  3  4  1  0
  4  5  2  0
  5  6  1  0
  7  6  2  0
  8  7  1  0
  9  4  1  0
  9  8  2  0
 10 11  2  0
 12 13  1  0
 12 10  1  0
 13 14  1  0
 14 15  2  0
 14 18  1  0
 17 16  1  6
 17 19  1  0
 18 17  1  0
 19 21  1  0
 20 19  2  0
M  END
$$$$
