FGA.pdb
     RDKit          3D

 21 21  0  0  1  0  0  0  0  0999 V2000
    6.2698  -16.0431   24.3896 N   0  0  0  0  0  0  0  0  0  0  0  0
    7.2275  -15.1614   23.7570 C   0  0  1  0  0  0  0  0  0  0  0  0
    8.0480  -14.5426   24.8973 C   0  0  0  0  0  0  0  0  0  0  0  0
    7.3224  -13.4368   25.5500 C   0  0  0  0  0  0  0  0  0  0  0  0
    7.6784  -12.1264   25.2434 C   0  0  0  0  0  0  0  0  0  0  0  0
    7.0527  -11.0409   25.8074 C   0  0  0  0  0  0  0  0  0  0  0  0
    6.0391  -11.2924   26.7061 C   0  0  0  0  0  0  0  0  0  0  0  0
    5.6740  -12.5870   27.0209 C   0  0  0  0  0  0  0  0  0  0  0  0
    6.3203  -13.6645   26.4387 C   0  0  0  0  0  0  0  0  0  0  0  0
    8.2058  -15.9253   22.9332 C   0  0  0  0  0  0  0  0  0  0  0  0
    9.1057  -15.2836   22.3399 O   0  0  0  0  0  0  0  0  0  0  0  0
    8.1727  -17.3284   22.7863 N   0  0  0  0  0  0  0  0  0  0  0  0
    9.0244  -18.1056   21.9602 C   0  0  0  0  0  0  0  0  0  0  0  0
   10.4335  -18.1903   22.3445 C   0  0  0  0  0  0  0  0  0  0  0  0
   11.1476  -18.9551   21.6411 O   0  0  0  0  0  0  0  0  0  0  0  0
   13.2038  -16.5473   23.7909 C   0  0  0  0  0  0  0  0  0  0  0  0
   12.4370  -17.8501   23.7237 C   0  0  2  0  0  0  0  0  0  0  0  0
   11.0616  -17.5091   23.4133 N   0  0  0  0  0  0  0  0  0  0  0  0
   12.4960  -18.4708   25.0770 C   0  0  0  0  0  0  0  0  0  0  0  0
   11.4397  -18.5614   25.7530 O   0  0  0  0  0  0  0  0  0  0  0  0
   13.6608  -18.9555   25.6314 O   0  0  0  0  0  0  0  0  0  0  0  0
  2  1  1  1
  2 10  1  0
  3  2  1  0
  3  4  1  0
  4  5  2  0
  5  6  1  0
  7  6  2  0
  8  7  1  0
  9  4  1  0
  9  8  2  0
 10 11  2  0
 12 13  1  0
 12 10  1  0
 13 14  1  0
 14 15  2  0
 14 18  1  0
 17 16  1  1
 17 19  1  0
 18 17  1  0
 19 21  1  0
 20 19  2  0
M  END
$$$$
