FGA.pdb
     RDKit          3D

 21 21  0  0  1  0  0  0  0  0999 V2000
    9.3316  -15.1585   22.7946 N   0  0  0  0  0  0  0  0  0  0  0  0
    8.3907  -15.1662   23.8943 C   0  0  1  0  0  0  0  0  0  0  0  0
    7.3614  -14.0727   23.5761 C   0  0  0  0  0  0  0  0  0  0  0  0
    7.0958  -13.2193   24.7493 C   0  0  0  0  0  0  0  0  0  0  0  0
    7.8676  -12.0761   24.9368 C   0  0  0  0  0  0  0  0  0  0  0  0
    7.6841  -11.2290   26.0030 C   0  0  0  0  0  0  0  0  0  0  0  0
    6.6912  -11.5510   26.9022 C   0  0  0  0  0  0  0  0  0  0  0  0
    5.9167  -12.6820   26.7302 C   0  0  0  0  0  0  0  0  0  0  0  0
    6.1213  -13.5201   25.6470 C   0  0  0  0  0  0  0  0  0  0  0  0
    7.6175  -16.4388   23.9372 C   0  0  0  0  0  0  0  0  0  0  0  0
    7.5364  -17.1156   22.8841 O   0  0  0  0  0  0  0  0  0  0  0  0
    6.9740  -16.9206   25.0969 N   0  0  0  0  0  0  0  0  0  0  0  0
    6.8216  -18.2812   25.4678 C   0  0  0  0  0  0  0  0  0  0  0  0
    7.9986  -18.9632   26.0066 C   0  0  0  0  0  0  0  0  0  0  0  0
    7.7898  -20.1006   26.5090 O   0  0  0  0  0  0  0  0  0  0  0  0
   11.6448  -18.9701   25.8208 C   0  0  0  0  0  0  0  0  0  0  0  0
   10.3658  -19.3469   26.5364 C   0  0  2  0  0  0  0  0  0  0  0  0
    9.3267  -18.4767   26.0194 N   0  0  0  0  0  0  0  0  0  0  0  0
   10.5675  -19.0645   27.9854 C   0  0  0  0  0  0  0  0  0  0  0  0
   11.3984  -19.7529   28.6310 O   0  0  0  0  0  0  0  0  0  0  0  0
    9.8833  -18.0775   28.6612 O   0  0  0  0  0  0  0  0  0  0  0  0
  2  1  1  6
  2 10  1  0
  3  2  1  0
  3  4  1  0
  4  5  2  0
  5  6  1  0
  7  6  2  0
  8  7  1  0
  9  4  1  0
  9  8  2  0
 10 11  2  0
 12 13  1  0
 12 10  1  0
 13 14  1  0
 14 15  2  0
 14 18  1  0
 17 16  1  6
 17 19  1  0
 18 17  1  0
 19 21  1  0
 20 19  2  0
M  END
$$$$
