FGA.pdb
     RDKit          3D

 21 21  0  0  1  0  0  0  0  0999 V2000
    7.7184  -16.4724   25.6664 N   0  0  0  0  0  0  0  0  0  0  0  0
    6.8851  -15.8216   24.6780 C   0  0  1  0  0  0  0  0  0  0  0  0
    7.5034  -14.4348   24.4526 C   0  0  0  0  0  0  0  0  0  0  0  0
    7.2327  -13.5292   25.5848 C   0  0  0  0  0  0  0  0  0  0  0  0
    8.3015  -13.0769   26.3534 C   0  0  0  0  0  0  0  0  0  0  0  0
    8.1346  -12.2321   27.4242 C   0  0  0  0  0  0  0  0  0  0  0  0
    6.8491  -11.8363   27.7223 C   0  0  0  0  0  0  0  0  0  0  0  0
    5.7777  -12.2764   26.9692 C   0  0  0  0  0  0  0  0  0  0  0  0
    5.9722  -13.1277   25.8945 C   0  0  0  0  0  0  0  0  0  0  0  0
    6.9675  -16.5119   23.3605 C   0  0  0  0  0  0  0  0  0  0  0  0
    8.0300  -17.1150   23.0757 O   0  0  0  0  0  0  0  0  0  0  0  0
    5.9160  -16.5224   22.4195 N   0  0  0  0  0  0  0  0  0  0  0  0
    6.0199  -16.8744   21.0493 C   0  0  0  0  0  0  0  0  0  0  0  0
    6.9170  -16.0706   20.2187 C   0  0  0  0  0  0  0  0  0  0  0  0
    7.2798  -16.6005   19.1338 O   0  0  0  0  0  0  0  0  0  0  0  0
    8.0260  -12.6195   19.7244 C   0  0  0  0  0  0  0  0  0  0  0  0
    8.2027  -14.1055   19.4997 C   0  0  2  0  0  0  0  0  0  0  0  0
    7.4099  -14.7775   20.5117 N   0  0  0  0  0  0  0  0  0  0  0  0
    9.6432  -14.4193   19.7153 C   0  0  0  0  0  0  0  0  0  0  0  0
   10.4975  -13.9319   18.9318 O   0  0  0  0  0  0  0  0  0  0  0  0
   10.0920  -15.2245   20.7397 O   0  0  0  0  0  0  0  0  0  0  0  0
  2  1  1  1
  2 10  1  0
  3  2  1  0
  3  4  1  0
  4  5  2  0
  5  6  1  0
  7  6  2  0
  8  7  1  0
  9  4  1  0
  9  8  2  0
 10 11  2  0
 12 13  1  0
 12 10  1  0
 13 14  1  0
 14 15  2  0
 14 18  1  0
 17 16  1  1
 17 19  1  0
 18 17  1  0
 19 21  1  0
 20 19  2  0
M  END
$$$$
