FGA.pdb
     RDKit          3D

 21 21  0  0  1  0  0  0  0  0999 V2000
    6.6688  -15.9504   24.0238 N   0  0  0  0  0  0  0  0  0  0  0  0
    7.3518  -15.2290   22.9713 C   0  0  1  0  0  0  0  0  0  0  0  0
    6.9901  -13.7504   23.1703 C   0  0  0  0  0  0  0  0  0  0  0  0
    7.0848  -13.3545   24.5879 C   0  0  0  0  0  0  0  0  0  0  0  0
    8.2254  -12.6858   25.0236 C   0  0  0  0  0  0  0  0  0  0  0  0
    8.3915  -12.2830   26.3268 C   0  0  0  0  0  0  0  0  0  0  0  0
    7.3732  -12.5665   27.2104 C   0  0  0  0  0  0  0  0  0  0  0  0
    6.2351  -13.2293   26.7936 C   0  0  0  0  0  0  0  0  0  0  0  0
    6.0914  -13.6250   25.4744 C   0  0  0  0  0  0  0  0  0  0  0  0
    8.8306  -15.3015   23.1359 C   0  0  0  0  0  0  0  0  0  0  0  0
    9.5430  -14.5898   22.3879 O   0  0  0  0  0  0  0  0  0  0  0  0
    9.4691  -16.1265   24.0861 N   0  0  0  0  0  0  0  0  0  0  0  0
   10.8587  -16.1598   24.3691 C   0  0  0  0  0  0  0  0  0  0  0  0
   11.2704  -15.8411   25.7364 C   0  0  0  0  0  0  0  0  0  0  0  0
   12.4791  -16.0707   26.0115 O   0  0  0  0  0  0  0  0  0  0  0  0
   10.3097  -14.0534   28.7774 C   0  0  0  0  0  0  0  0  0  0  0  0
   11.0226  -15.2000   28.0942 C   0  0  2  0  0  0  0  0  0  0  0  0
   10.4556  -15.3103   26.7636 N   0  0  0  0  0  0  0  0  0  0  0  0
   10.7135  -16.4376   28.8643 C   0  0  0  0  0  0  0  0  0  0  0  0
   11.1531  -16.5520   30.0368 O   0  0  0  0  0  0  0  0  0  0  0  0
    9.9628  -17.4736   28.3523 O   0  0  0  0  0  0  0  0  0  0  0  0
  2  1  1  1
  2 10  1  0
  3  2  1  0
  3  4  1  0
  4  5  2  0
  5  6  1  0
  7  6  2  0
  8  7  1  0
  9  4  1  0
  9  8  2  0
 10 11  2  0
 12 13  1  0
 12 10  1  0
 13 14  1  0
 14 15  2  0
 14 18  1  0
 17 16  1  1
 17 19  1  0
 18 17  1  0
 19 21  1  0
 20 19  2  0
M  END
$$$$
