FGA.pdb
     RDKit          3D

 21 21  0  0  1  0  0  0  0  0999 V2000
    6.8881  -16.4260   25.7544 N   0  0  0  0  0  0  0  0  0  0  0  0
    6.9492  -15.7199   24.4926 C   0  0  1  0  0  0  0  0  0  0  0  0
    7.8456  -14.4978   24.7364 C   0  0  0  0  0  0  0  0  0  0  0  0
    7.2205  -13.5441   25.6718 C   0  0  0  0  0  0  0  0  0  0  0  0
    8.0391  -12.7821   26.5007 C   0  0  0  0  0  0  0  0  0  0  0  0
    7.5364  -11.8721   27.3991 C   0  0  0  0  0  0  0  0  0  0  0  0
    6.1671  -11.7321   27.4574 C   0  0  0  0  0  0  0  0  0  0  0  0
    5.3412  -12.4809   26.6416 C   0  0  0  0  0  0  0  0  0  0  0  0
    5.8724  -13.3918   25.7440 C   0  0  0  0  0  0  0  0  0  0  0  0
    7.6503  -16.5256   23.4540 C   0  0  0  0  0  0  0  0  0  0  0  0
    8.2757  -17.5484   23.8234 O   0  0  0  0  0  0  0  0  0  0  0  0
    7.6473  -16.1990   22.0812 N   0  0  0  0  0  0  0  0  0  0  0  0
    8.4627  -16.7832   21.0782 C   0  0  0  0  0  0  0  0  0  0  0  0
    9.8767  -16.9813   21.3975 C   0  0  0  0  0  0  0  0  0  0  0  0
   10.5553  -17.5865   20.5241 O   0  0  0  0  0  0  0  0  0  0  0  0
   12.5511  -15.6609   23.4730 C   0  0  0  0  0  0  0  0  0  0  0  0
   11.9736  -16.8013   22.6632 C   0  0  2  0  0  0  0  0  0  0  0  0
   10.5448  -16.5675   22.5736 N   0  0  0  0  0  0  0  0  0  0  0  0
   12.2192  -18.0573   23.4264 C   0  0  0  0  0  0  0  0  0  0  0  0
   13.4019  -18.4548   23.5822 O   0  0  0  0  0  0  0  0  0  0  0  0
   11.2064  -18.8132   23.9758 O   0  0  0  0  0  0  0  0  0  0  0  0
  2  1  1  1
  2 10  1  0
  3  2  1  0
  3  4  1  0
  4  5  2  0
  5  6  1  0
  7  6  2  0
  8  7  1  0
  9  4  1  0
  9  8  2  0
 10 11  2  0
 12 13  1  0
 12 10  1  0
 13 14  1  0
 14 15  2  0
 14 18  1  0
 17 16  1  1
 17 19  1  0
 18 17  1  0
 19 21  1  0
 20 19  2  0
M  END
$$$$
