HPI.pdb
     RDKit          3D

 26 27  0  0  1  0  0  0  0  0999 V2000
   23.0873  -33.7343  -10.2631 N   0  0  0  0  0  0  0  0  0  0  0  0
   23.7552  -33.0349   -9.2004 C   0  0  1  0  0  0  0  0  0  0  0  0
   22.6974  -32.2240   -8.4753 C   0  0  0  0  0  0  0  0  0  0  0  0
   22.1976  -31.1098   -9.3218 C   0  0  0  0  0  0  0  0  0  0  0  0
   22.6900  -30.7255  -10.5531 C   0  0  0  0  0  0  0  0  0  0  0  0
   21.9751  -29.6796  -10.9997 N   0  0  0  0  0  0  0  0  0  0  0  0
   21.0349  -29.3890  -10.0756 C   0  0  0  0  0  0  0  0  0  0  0  0
   21.1771  -30.2607   -9.0623 N   0  0  0  0  0  0  0  0  0  0  0  0
   24.4530  -33.9159   -8.2419 C   0  0  0  0  0  0  0  0  0  0  0  0
   23.8040  -34.9796   -7.9037 O   0  0  0  0  0  0  0  0  0  0  0  0
   25.7383  -33.6645   -7.7014 N   0  0  0  0  0  0  0  0  0  0  0  0
   26.4447  -32.3989   -7.9577 C   0  0  0  0  0  0  0  0  0  0  0  0
   27.8235  -32.9296   -8.2931 C   0  0  0  0  0  0  0  0  0  0  0  0
   27.9992  -34.0532   -7.3117 C   0  0  0  0  0  0  0  0  0  0  0  0
   26.5897  -34.4386   -6.8587 C   0  0  1  0  0  0  0  0  0  0  0  0
   26.4029  -34.1494   -5.4096 C   0  0  0  0  0  0  0  0  0  0  0  0
   26.1199  -32.9824   -5.0567 O   0  0  0  0  0  0  0  0  0  0  0  0
   23.9838  -37.6620   -2.0965 C   0  0  0  0  0  0  0  0  0  0  0  0
   24.4437  -36.4289   -2.8409 C   0  0  0  0  0  0  0  0  0  0  0  0
   25.7582  -35.9925   -2.2223 C   0  0  2  0  0  0  0  0  0  0  0  0
   25.4878  -35.6173   -0.7837 C   0  0  0  0  0  0  0  0  0  0  0  0
   26.3788  -34.8417   -2.9877 C   0  0  2  0  0  0  0  0  0  0  0  0
   26.5260  -35.1234   -4.3827 N   0  0  0  0  0  0  0  0  0  0  0  0
   27.6183  -34.3548   -2.3473 C   0  0  0  0  0  0  0  0  0  0  0  0
   28.8961  -34.7044   -2.8060 O   0  0  0  0  0  0  0  0  0  0  0  0
   27.6180  -33.5928   -1.3459 O   0  0  0  0  0  0  0  0  0  0  0  0
  2  1  1  6
  3  2  1  0
  4  3  1  0
  5  4  2  0
  6  7  1  0
  6  5  1  0
  7  8  2  0
  8  4  1  0
  9 11  1  0
  9  2  1  0
 10  9  2  0
 11 15  1  0
 12 13  1  0
 12 11  1  0
 13 14  1  0
 15 14  1  0
 15 16  1  1
 16 17  2  0
 18 19  1  0
 19 20  1  0
 20 21  1  1
 20 22  1  0
 22 24  1  0
 22 23  1  6
 23 16  1  0
 24 25  1  0
 26 24  2  0
M  END
$$$$
