HPI.pdb
     RDKit          3D

 26 27  0  0  1  0  0  0  0  0999 V2000
   23.7040  -21.9502  -12.6095 N   0  0  0  0  0  0  0  0  0  0  0  0
   24.6727  -20.9675  -12.2088 C   0  0  1  0  0  0  0  0  0  0  0  0
   23.9028  -19.7052  -11.8677 C   0  0  0  0  0  0  0  0  0  0  0  0
   23.1717  -19.1830  -13.0512 C   0  0  0  0  0  0  0  0  0  0  0  0
   23.7306  -18.6887  -14.2128 C   0  0  0  0  0  0  0  0  0  0  0  0
   22.7443  -18.3144  -15.0445 N   0  0  0  0  0  0  0  0  0  0  0  0
   21.5655  -18.5609  -14.4347 C   0  0  0  0  0  0  0  0  0  0  0  0
   21.8340  -19.0871  -13.2272 N   0  0  0  0  0  0  0  0  0  0  0  0
   25.5034  -21.3724  -11.0565 C   0  0  0  0  0  0  0  0  0  0  0  0
   24.9062  -22.1151  -10.1855 O   0  0  0  0  0  0  0  0  0  0  0  0
   26.8586  -21.0047  -10.8686 N   0  0  0  0  0  0  0  0  0  0  0  0
   27.5347  -20.0709  -11.7836 C   0  0  0  0  0  0  0  0  0  0  0  0
   28.8401  -20.8095  -11.9973 C   0  0  0  0  0  0  0  0  0  0  0  0
   29.1472  -21.3518  -10.6306 C   0  0  0  0  0  0  0  0  0  0  0  0
   27.8174  -21.3609   -9.8744 C   0  0  1  0  0  0  0  0  0  0  0  0
   27.8551  -20.4114   -8.7275 C   0  0  0  0  0  0  0  0  0  0  0  0
   27.5679  -19.2096   -8.9267 O   0  0  0  0  0  0  0  0  0  0  0  0
   26.4440  -22.0561   -3.6918 C   0  0  0  0  0  0  0  0  0  0  0  0
   26.5710  -21.2994   -4.9946 C   0  0  0  0  0  0  0  0  0  0  0  0
   27.9097  -20.5862   -4.9735 C   0  0  2  0  0  0  0  0  0  0  0  0
   27.8941  -19.6122   -3.8182 C   0  0  0  0  0  0  0  0  0  0  0  0
   28.1869  -19.8837   -6.2868 C   0  0  2  0  0  0  0  0  0  0  0  0
   28.2007  -20.7821   -7.4002 N   0  0  0  0  0  0  0  0  0  0  0  0
   29.3811  -19.0166   -6.2099 C   0  0  0  0  0  0  0  0  0  0  0  0
   29.3340  -17.7039   -5.7200 O   0  0  0  0  0  0  0  0  0  0  0  0
   30.5245  -19.3916   -6.5775 O   0  0  0  0  0  0  0  0  0  0  0  0
  2  1  1  1
  3  2  1  0
  4  3  1  0
  5  4  2  0
  6  7  1  0
  6  5  1  0
  7  8  2  0
  8  4  1  0
  9 11  1  0
  9  2  1  0
 10  9  2  0
 11 15  1  0
 12 13  1  0
 12 11  1  0
 13 14  1  0
 15 14  1  0
 15 16  1  1
 16 17  2  0
 18 19  1  0
 19 20  1  0
 20 21  1  1
 20 22  1  0
 22 24  1  0
 22 23  1  6
 23 16  1  0
 24 25  1  0
 26 24  2  0
M  END
$$$$
