HPI.pdb
     RDKit          3D

 26 27  0  0  1  0  0  0  0  0999 V2000
   27.8021  -20.3125  -17.4143 N   0  0  0  0  0  0  0  0  0  0  0  0
   28.0498  -19.6599  -16.1584 C   0  0  1  0  0  0  0  0  0  0  0  0
   27.2180  -18.3908  -16.1512 C   0  0  0  0  0  0  0  0  0  0  0  0
   27.6022  -17.4879  -17.2669 C   0  0  0  0  0  0  0  0  0  0  0  0
   26.8039  -17.0986  -18.3240 C   0  0  0  0  0  0  0  0  0  0  0  0
   27.5091  -16.2803  -19.1227 N   0  0  0  0  0  0  0  0  0  0  0  0
   28.7435  -16.1401  -18.5945 C   0  0  0  0  0  0  0  0  0  0  0  0
   28.7910  -16.8753  -17.4701 N   0  0  0  0  0  0  0  0  0  0  0  0
   27.7191  -20.4802  -14.9754 C   0  0  0  0  0  0  0  0  0  0  0  0
   26.7529  -21.3200  -15.1444 O   0  0  0  0  0  0  0  0  0  0  0  0
   28.3783  -20.3964  -13.7241 N   0  0  0  0  0  0  0  0  0  0  0  0
   29.4543  -19.4206  -13.4872 C   0  0  0  0  0  0  0  0  0  0  0  0
   30.4693  -20.3092  -12.7976 C   0  0  0  0  0  0  0  0  0  0  0  0
   29.6151  -21.1703  -11.9114 C   0  0  0  0  0  0  0  0  0  0  0  0
   28.2052  -21.1111  -12.5020 C   0  0  1  0  0  0  0  0  0  0  0  0
   27.2648  -20.4439  -11.5591 C   0  0  0  0  0  0  0  0  0  0  0  0
   27.3602  -19.2086  -11.3819 O   0  0  0  0  0  0  0  0  0  0  0  0
   21.6845  -20.1982  -12.3263 C   0  0  0  0  0  0  0  0  0  0  0  0
   22.6544  -19.9899  -11.1853 C   0  0  0  0  0  0  0  0  0  0  0  0
   23.9547  -20.6707  -11.5684 C   0  0  2  0  0  0  0  0  0  0  0  0
   23.6449  -22.1189  -11.8691 C   0  0  0  0  0  0  0  0  0  0  0  0
   24.9939  -20.5423  -10.4735 C   0  0  2  0  0  0  0  0  0  0  0  0
   26.2498  -21.1246  -10.8346 N   0  0  0  0  0  0  0  0  0  0  0  0
   24.4811  -21.0025   -9.1662 C   0  0  0  0  0  0  0  0  0  0  0  0
   23.7680  -20.1669   -8.2951 O   0  0  0  0  0  0  0  0  0  0  0  0
   24.6462  -22.1749   -8.7401 O   0  0  0  0  0  0  0  0  0  0  0  0
  2  1  1  6
  3  2  1  0
  4  3  1  0
  5  4  2  0
  6  7  1  0
  6  5  1  0
  7  8  2  0
  8  4  1  0
  9 11  1  0
  9  2  1  0
 10  9  2  0
 11 15  1  0
 12 13  1  0
 12 11  1  0
 13 14  1  0
 15 14  1  0
 15 16  1  1
 16 17  2  0
 18 19  1  0
 19 20  1  0
 20 21  1  1
 20 22  1  0
 22 24  1  0
 22 23  1  6
 23 16  1  0
 24 25  1  0
 26 24  2  0
M  END
$$$$
