HPI.pdb
     RDKit          3D

 26 27  0  0  1  0  0  0  0  0999 V2000
   14.7219  -23.6308  -12.8795 N   0  0  0  0  0  0  0  0  0  0  0  0
   15.8888  -23.4084  -12.0712 C   0  0  1  0  0  0  0  0  0  0  0  0
   15.8515  -21.9552  -11.6362 C   0  0  0  0  0  0  0  0  0  0  0  0
   15.8541  -21.0413  -12.8078 C   0  0  0  0  0  0  0  0  0  0  0  0
   16.8992  -20.8283  -13.6844 C   0  0  0  0  0  0  0  0  0  0  0  0
   16.5152  -19.9325  -14.6089 N   0  0  0  0  0  0  0  0  0  0  0  0
   15.2435  -19.5695  -14.3383 C   0  0  0  0  0  0  0  0  0  0  0  0
   14.8508  -20.2464  -13.2452 N   0  0  0  0  0  0  0  0  0  0  0  0
   15.9773  -24.2827  -10.8840 C   0  0  0  0  0  0  0  0  0  0  0  0
   14.8561  -24.5062  -10.2840 O   0  0  0  0  0  0  0  0  0  0  0  0
   17.1741  -24.8618  -10.3944 N   0  0  0  0  0  0  0  0  0  0  0  0
   18.4924  -24.4348  -10.8905 C   0  0  0  0  0  0  0  0  0  0  0  0
   19.1441  -25.7857  -11.1043 C   0  0  0  0  0  0  0  0  0  0  0  0
   18.6715  -26.5783   -9.9190 C   0  0  0  0  0  0  0  0  0  0  0  0
   17.4187  -25.8636   -9.4090 C   0  0  1  0  0  0  0  0  0  0  0  0
   17.6462  -25.3053   -8.0471 C   0  0  0  0  0  0  0  0  0  0  0  0
   18.2640  -24.2229   -7.9320 O   0  0  0  0  0  0  0  0  0  0  0  0
   14.6909  -24.2742   -2.9971 C   0  0  0  0  0  0  0  0  0  0  0  0
   16.0873  -24.5468   -3.5087 C   0  0  0  0  0  0  0  0  0  0  0  0
   15.9591  -24.9992   -4.9509 C   0  0  2  0  0  0  0  0  0  0  0  0
   15.0297  -26.1904   -4.9788 C   0  0  0  0  0  0  0  0  0  0  0  0
   17.3089  -25.3354   -5.5510 C   0  0  2  0  0  0  0  0  0  0  0  0
   17.2030  -25.9273   -6.8492 N   0  0  0  0  0  0  0  0  0  0  0  0
   18.1547  -26.1056   -4.6155 C   0  0  0  0  0  0  0  0  0  0  0  0
   18.4145  -27.4735   -4.7796 O   0  0  0  0  0  0  0  0  0  0  0  0
   18.7023  -25.5919   -3.6057 O   0  0  0  0  0  0  0  0  0  0  0  0
  2  1  1  1
  3  2  1  0
  4  3  1  0
  5  4  2  0
  6  7  1  0
  6  5  1  0
  7  8  2  0
  8  4  1  0
  9 11  1  0
  9  2  1  0
 10  9  2  0
 11 15  1  0
 12 13  1  0
 12 11  1  0
 13 14  1  0
 15 14  1  0
 15 16  1  1
 16 17  2  0
 18 19  1  0
 19 20  1  0
 20 21  1  1
 20 22  1  0
 22 24  1  0
 22 23  1  6
 23 16  1  0
 24 25  1  0
 26 24  2  0
M  END
$$$$
