HPI.pdb
     RDKit          3D

 26 27  0  0  1  0  0  0  0  0999 V2000
   23.9098  -22.3296  -14.1243 N   0  0  0  0  0  0  0  0  0  0  0  0
   24.5706  -21.2816  -13.3965 C   0  0  1  0  0  0  0  0  0  0  0  0
   23.5029  -20.5663  -12.5898 C   0  0  0  0  0  0  0  0  0  0  0  0
   22.4364  -20.0220  -13.4695 C   0  0  0  0  0  0  0  0  0  0  0  0
   21.2162  -20.6069  -13.7438 C   0  0  0  0  0  0  0  0  0  0  0  0
   20.5308  -19.8102  -14.5806 N   0  0  0  0  0  0  0  0  0  0  0  0
   21.2915  -18.7270  -14.8457 C   0  0  0  0  0  0  0  0  0  0  0  0
   22.4445  -18.8637  -14.1682 N   0  0  0  0  0  0  0  0  0  0  0  0
   25.6432  -21.7536  -12.4974 C   0  0  0  0  0  0  0  0  0  0  0  0
   25.4532  -22.9238  -11.9859 O   0  0  0  0  0  0  0  0  0  0  0  0
   26.8151  -21.0217  -12.1839 N   0  0  0  0  0  0  0  0  0  0  0  0
   27.1491  -19.7707  -12.8837 C   0  0  0  0  0  0  0  0  0  0  0  0
   28.6182  -20.0105  -13.1662 C   0  0  0  0  0  0  0  0  0  0  0  0
   29.0989  -20.6727  -11.9064 C   0  0  0  0  0  0  0  0  0  0  0  0
   27.8503  -21.2375  -11.2267 C   0  0  1  0  0  0  0  0  0  0  0  0
   27.6010  -20.5537   -9.9272 C   0  0  0  0  0  0  0  0  0  0  0  0
   26.6167  -19.7873   -9.8254 O   0  0  0  0  0  0  0  0  0  0  0  0
   29.3323  -19.8744   -4.0447 C   0  0  0  0  0  0  0  0  0  0  0  0
   28.3422  -20.5071   -4.9963 C   0  0  0  0  0  0  0  0  0  0  0  0
   28.8554  -20.2710   -6.4041 C   0  0  2  0  0  0  0  0  0  0  0  0
   29.0434  -18.7822   -6.5819 C   0  0  0  0  0  0  0  0  0  0  0  0
   27.9104  -20.8382   -7.4435 C   0  0  2  0  0  0  0  0  0  0  0  0
   28.4174  -20.7140   -8.7755 N   0  0  0  0  0  0  0  0  0  0  0  0
   26.5351  -20.3223   -7.2821 C   0  0  0  0  0  0  0  0  0  0  0  0
   25.5569  -20.9931   -6.5347 O   0  0  0  0  0  0  0  0  0  0  0  0
   26.1420  -19.2460   -7.8021 O   0  0  0  0  0  0  0  0  0  0  0  0
  2  1  1  1
  3  2  1  0
  4  3  1  0
  5  4  2  0
  6  7  1  0
  6  5  1  0
  7  8  2  0
  8  4  1  0
  9 11  1  0
  9  2  1  0
 10  9  2  0
 11 15  1  0
 12 13  1  0
 12 11  1  0
 13 14  1  0
 15 14  1  0
 15 16  1  1
 16 17  2  0
 18 19  1  0
 19 20  1  0
 20 21  1  6
 20 22  1  0
 22 24  1  0
 22 23  1  6
 23 16  1  0
 24 25  1  0
 26 24  2  0
M  END
$$$$
