HPI.pdb
     RDKit          3D

 26 27  0  0  1  0  0  0  0  0999 V2000
   23.4044  -21.9924  -13.1853 N   0  0  0  0  0  0  0  0  0  0  0  0
   24.2210  -20.9378  -12.6510 C   0  0  1  0  0  0  0  0  0  0  0  0
   23.2863  -19.7980  -12.2908 C   0  0  0  0  0  0  0  0  0  0  0  0
   22.5834  -19.2768  -13.4917 C   0  0  0  0  0  0  0  0  0  0  0  0
   23.1501  -18.5806  -14.5407 C   0  0  0  0  0  0  0  0  0  0  0  0
   22.1909  -18.2822  -15.4326 N   0  0  0  0  0  0  0  0  0  0  0  0
   21.0218  -18.7754  -14.9719 C   0  0  0  0  0  0  0  0  0  0  0  0
   21.2690  -19.3765  -13.7953 N   0  0  0  0  0  0  0  0  0  0  0  0
   25.0128  -21.3273  -11.4666 C   0  0  0  0  0  0  0  0  0  0  0  0
   24.3988  -22.0893  -10.6242 O   0  0  0  0  0  0  0  0  0  0  0  0
   26.3493  -20.9266  -11.2207 N   0  0  0  0  0  0  0  0  0  0  0  0
   27.0083  -19.9030  -12.0478 C   0  0  0  0  0  0  0  0  0  0  0  0
   28.3446  -20.5763  -12.2859 C   0  0  0  0  0  0  0  0  0  0  0  0
   28.6440  -21.2086  -10.9566 C   0  0  0  0  0  0  0  0  0  0  0  0
   27.3004  -21.3222  -10.2340 C   0  0  1  0  0  0  0  0  0  0  0  0
   27.2793  -20.4610   -9.0189 C   0  0  0  0  0  0  0  0  0  0  0  0
   26.8690  -19.2828   -9.1190 O   0  0  0  0  0  0  0  0  0  0  0  0
   28.3756  -20.7862   -2.8888 C   0  0  0  0  0  0  0  0  0  0  0  0
   27.8909  -19.9694   -4.0653 C   0  0  0  0  0  0  0  0  0  0  0  0
   28.0246  -20.8370   -5.3025 C   0  0  2  0  0  0  0  0  0  0  0  0
   29.4458  -21.3477   -5.3552 C   0  0  0  0  0  0  0  0  0  0  0  0
   27.6634  -20.0729   -6.5598 C   0  0  2  0  0  0  0  0  0  0  0  0
   27.7002  -20.8920   -7.7323 N   0  0  0  0  0  0  0  0  0  0  0  0
   28.4359  -18.8196   -6.6877 C   0  0  0  0  0  0  0  0  0  0  0  0
   28.0980  -17.6474   -5.9970 O   0  0  0  0  0  0  0  0  0  0  0  0
   29.4509  -18.7129   -7.4237 O   0  0  0  0  0  0  0  0  0  0  0  0
  2  1  1  1
  3  2  1  0
  4  3  1  0
  5  4  2  0
  6  7  1  0
  6  5  1  0
  7  8  2  0
  8  4  1  0
  9 11  1  0
  9  2  1  0
 10  9  2  0
 11 15  1  0
 12 13  1  0
 12 11  1  0
 13 14  1  0
 15 14  1  0
 15 16  1  1
 16 17  2  0
 18 19  1  0
 19 20  1  0
 20 21  1  6
 20 22  1  0
 22 24  1  0
 22 23  1  6
 23 16  1  0
 24 25  1  0
 26 24  2  0
M  END
$$$$
