HPI.pdb
     RDKit          3D

 26 27  0  0  1  0  0  0  0  0999 V2000
   21.4048  -12.7891  -18.4773 N   0  0  0  0  0  0  0  0  0  0  0  0
   20.8739  -11.4612  -18.6167 C   0  0  1  0  0  0  0  0  0  0  0  0
   19.3784  -11.5587  -18.3795 C   0  0  0  0  0  0  0  0  0  0  0  0
   18.7214  -12.3965  -19.4159 C   0  0  0  0  0  0  0  0  0  0  0  0
   18.2792  -13.6959  -19.2666 C   0  0  0  0  0  0  0  0  0  0  0  0
   17.7428  -14.1084  -20.4271 N   0  0  0  0  0  0  0  0  0  0  0  0
   17.8346  -13.0956  -21.3149 C   0  0  0  0  0  0  0  0  0  0  0  0
   18.4290  -12.0623  -20.6936 N   0  0  0  0  0  0  0  0  0  0  0  0
   21.4632  -10.4742  -17.6891 C   0  0  0  0  0  0  0  0  0  0  0  0
   21.7495  -10.9294  -16.5152 O   0  0  0  0  0  0  0  0  0  0  0  0
   21.7186   -9.1177  -18.0081 N   0  0  0  0  0  0  0  0  0  0  0  0
   21.2579   -8.5272  -19.2751 C   0  0  0  0  0  0  0  0  0  0  0  0
   22.5123   -7.7872  -19.6928 C   0  0  0  0  0  0  0  0  0  0  0  0
   23.0210   -7.2285  -18.3945 C   0  0  0  0  0  0  0  0  0  0  0  0
   22.3796   -8.0751  -17.2935 C   0  0  1  0  0  0  0  0  0  0  0  0
   21.4547   -7.2522  -16.4654 C   0  0  0  0  0  0  0  0  0  0  0  0
   20.2527   -7.1671  -16.8036 O   0  0  0  0  0  0  0  0  0  0  0  0
   21.1245   -8.0073  -11.2020 C   0  0  0  0  0  0  0  0  0  0  0  0
   21.6635   -7.1346  -12.3129 C   0  0  0  0  0  0  0  0  0  0  0  0
   20.5156   -6.8549  -13.2643 C   0  0  2  0  0  0  0  0  0  0  0  0
   20.0258   -8.1813  -13.7974 C   0  0  0  0  0  0  0  0  0  0  0  0
   20.9359   -5.9279  -14.3864 C   0  0  2  0  0  0  0  0  0  0  0  0
   21.8495   -6.5450  -15.2982 N   0  0  0  0  0  0  0  0  0  0  0  0
   21.3975   -4.6187  -13.8798 C   0  0  0  0  0  0  0  0  0  0  0  0
   20.5139   -3.6096  -13.4719 O   0  0  0  0  0  0  0  0  0  0  0  0
   22.6142   -4.3142  -13.7778 O   0  0  0  0  0  0  0  0  0  0  0  0
  2  1  1  1
  3  2  1  0
  4  3  1  0
  5  4  2  0
  6  7  1  0
  6  5  1  0
  7  8  2  0
  8  4  1  0
  9 11  1  0
  9  2  1  0
 10  9  2  0
 11 15  1  0
 12 13  1  0
 12 11  1  0
 13 14  1  0
 15 14  1  0
 15 16  1  6
 16 17  2  0
 18 19  1  0
 19 20  1  0
 20 21  1  6
 20 22  1  0
 22 24  1  0
 22 23  1  1
 23 16  1  0
 24 25  1  0
 26 24  2  0
M  END
$$$$
