HPI.pdb
     RDKit          3D

 26 27  0  0  1  0  0  0  0  0999 V2000
   25.4650  -18.7501  -17.6301 N   0  0  0  0  0  0  0  0  0  0  0  0
   25.9534  -18.3093  -16.3527 C   0  0  1  0  0  0  0  0  0  0  0  0
   25.1028  -17.1214  -15.9432 C   0  0  0  0  0  0  0  0  0  0  0  0
   25.2783  -15.9832  -16.8820 C   0  0  0  0  0  0  0  0  0  0  0  0
   26.2894  -15.0434  -16.8577 C   0  0  0  0  0  0  0  0  0  0  0  0
   26.1020  -14.1774  -17.8674 N   0  0  0  0  0  0  0  0  0  0  0  0
   24.9893  -14.5474  -18.5361 C   0  0  0  0  0  0  0  0  0  0  0  0
   24.4966  -15.6425  -17.9321 N   0  0  0  0  0  0  0  0  0  0  0  0
   25.9078  -19.3431  -15.2987 C   0  0  0  0  0  0  0  0  0  0  0  0
   24.8617  -20.0997  -15.3191 O   0  0  0  0  0  0  0  0  0  0  0  0
   26.9075  -19.5374  -14.3137 N   0  0  0  0  0  0  0  0  0  0  0  0
   28.0778  -18.6496  -14.2222 C   0  0  0  0  0  0  0  0  0  0  0  0
   29.1780  -19.6789  -14.0621 C   0  0  0  0  0  0  0  0  0  0  0  0
   28.5553  -20.6974  -13.1502 C   0  0  0  0  0  0  0  0  0  0  0  0
   27.0434  -20.4941  -13.2645 C   0  0  1  0  0  0  0  0  0  0  0  0
   26.4731  -20.0305  -11.9690 C   0  0  0  0  0  0  0  0  0  0  0  0
   26.6011  -18.8278  -11.6470 O   0  0  0  0  0  0  0  0  0  0  0  0
   21.0523  -19.8291  -10.3789 C   0  0  0  0  0  0  0  0  0  0  0  0
   22.4103  -19.7962   -9.7149 C   0  0  0  0  0  0  0  0  0  0  0  0
   23.4091  -20.3702  -10.7019 C   0  0  2  0  0  0  0  0  0  0  0  0
   22.9311  -21.7500  -11.0907 C   0  0  0  0  0  0  0  0  0  0  0  0
   24.8067  -20.4118  -10.1188 C   0  0  2  0  0  0  0  0  0  0  0  0
   25.7822  -20.8737  -11.0580 N   0  0  0  0  0  0  0  0  0  0  0  0
   24.8461  -21.1239   -8.8246 C   0  0  0  0  0  0  0  0  0  0  0  0
   24.4893  -20.5148   -7.6134 O   0  0  0  0  0  0  0  0  0  0  0  0
   25.2017  -22.3259   -8.7149 O   0  0  0  0  0  0  0  0  0  0  0  0
  2  1  1  6
  3  2  1  0
  4  3  1  0
  5  4  2  0
  6  7  1  0
  6  5  1  0
  7  8  2  0
  8  4  1  0
  9 11  1  0
  9  2  1  0
 10  9  2  0
 11 15  1  0
 12 13  1  0
 12 11  1  0
 13 14  1  0
 15 14  1  0
 15 16  1  1
 16 17  2  0
 18 19  1  0
 19 20  1  0
 20 21  1  1
 20 22  1  0
 22 24  1  0
 22 23  1  6
 23 16  1  0
 24 25  1  0
 26 24  2  0
M  END
$$$$
