HPI.pdb
     RDKit          3D

 26 27  0  0  1  0  0  0  0  0999 V2000
   19.3272  -25.8583   -9.8922 N   0  0  0  0  0  0  0  0  0  0  0  0
   18.1482  -26.0593   -9.0958 C   0  0  1  0  0  0  0  0  0  0  0  0
   17.6332  -27.4501   -9.4164 C   0  0  0  0  0  0  0  0  0  0  0  0
   17.2677  -27.5723  -10.8514 C   0  0  0  0  0  0  0  0  0  0  0  0
   16.3481  -26.8029  -11.5359 C   0  0  0  0  0  0  0  0  0  0  0  0
   16.2984  -27.2183  -12.8125 N   0  0  0  0  0  0  0  0  0  0  0  0
   17.1699  -28.2393  -12.9554 C   0  0  0  0  0  0  0  0  0  0  0  0
   17.7528  -28.4470  -11.7621 N   0  0  0  0  0  0  0  0  0  0  0  0
   18.3725  -25.9330   -7.6414 C   0  0  0  0  0  0  0  0  0  0  0  0
   19.6049  -26.0255   -7.2675 O   0  0  0  0  0  0  0  0  0  0  0  0
   17.3515  -25.7243   -6.6815 N   0  0  0  0  0  0  0  0  0  0  0  0
   15.9281  -25.8407   -7.0372 C   0  0  0  0  0  0  0  0  0  0  0  0
   15.3858  -24.5952   -6.3663 C   0  0  0  0  0  0  0  0  0  0  0  0
   16.1474  -24.5517   -5.0723 C   0  0  0  0  0  0  0  0  0  0  0  0
   17.3957  -25.4084   -5.2913 C   0  0  1  0  0  0  0  0  0  0  0  0
   17.3714  -26.6118   -4.4140 C   0  0  0  0  0  0  0  0  0  0  0  0
   16.6105  -27.5608   -4.7091 O   0  0  0  0  0  0  0  0  0  0  0  0
   20.3793  -27.3809    0.4825 C   0  0  0  0  0  0  0  0  0  0  0  0
   19.7956  -26.8855   -0.8214 C   0  0  0  0  0  0  0  0  0  0  0  0
   19.4635  -28.1056   -1.6594 C   0  0  2  0  0  0  0  0  0  0  0  0
   20.6209  -28.3464   -2.6007 C   0  0  0  0  0  0  0  0  0  0  0  0
   18.1631  -27.9246   -2.4152 C   0  0  2  0  0  0  0  0  0  0  0  0
   18.1657  -26.7594   -3.2454 N   0  0  0  0  0  0  0  0  0  0  0  0
   16.9874  -28.0152   -1.5245 C   0  0  0  0  0  0  0  0  0  0  0  0
   16.1365  -26.9282   -1.2798 O   0  0  0  0  0  0  0  0  0  0  0  0
   16.6646  -29.0716   -0.9219 O   0  0  0  0  0  0  0  0  0  0  0  0
  2  1  1  6
  3  2  1  0
  4  3  1  0
  5  4  2  0
  6  7  1  0
  6  5  1  0
  7  8  2  0
  8  4  1  0
  9 11  1  0
  9  2  1  0
 10  9  2  0
 11 15  1  0
 12 13  1  0
 12 11  1  0
 13 14  1  0
 15 14  1  0
 15 16  1  1
 16 17  2  0
 18 19  1  0
 19 20  1  0
 20 21  1  6
 20 22  1  0
 22 24  1  0
 22 23  1  1
 23 16  1  0
 24 25  1  0
 26 24  2  0
M  END
$$$$
