HPI.pdb
     RDKit          3D

 26 27  0  0  1  0  0  0  0  0999 V2000
   27.4482  -18.9202  -19.8792 N   0  0  0  0  0  0  0  0  0  0  0  0
   26.5681  -18.3288  -18.9096 C   0  0  1  0  0  0  0  0  0  0  0  0
   25.1671  -18.8118  -19.2356 C   0  0  0  0  0  0  0  0  0  0  0  0
   24.4742  -17.8742  -20.1568 C   0  0  0  0  0  0  0  0  0  0  0  0
   23.1842  -17.3983  -20.0313 C   0  0  0  0  0  0  0  0  0  0  0  0
   22.9227  -16.5751  -21.0601 N   0  0  0  0  0  0  0  0  0  0  0  0
   24.0227  -16.5167  -21.8405 C   0  0  0  0  0  0  0  0  0  0  0  0
   24.9579  -17.3069  -21.2855 N   0  0  0  0  0  0  0  0  0  0  0  0
   26.8985  -18.6641  -17.5095 C   0  0  0  0  0  0  0  0  0  0  0  0
   27.6510  -19.7024  -17.3583 O   0  0  0  0  0  0  0  0  0  0  0  0
   26.4531  -17.9373  -16.3779 N   0  0  0  0  0  0  0  0  0  0  0  0
   25.5629  -16.7732  -16.5149 C   0  0  0  0  0  0  0  0  0  0  0  0
   26.2529  -15.8018  -15.5792 C   0  0  0  0  0  0  0  0  0  0  0  0
   26.6710  -16.6783  -14.4331 C   0  0  0  0  0  0  0  0  0  0  0  0
   26.6840  -18.1067  -14.9806 C   0  0  1  0  0  0  0  0  0  0  0  0
   25.6466  -18.9391  -14.3102 C   0  0  0  0  0  0  0  0  0  0  0  0
   24.5197  -19.0477  -14.8438 O   0  0  0  0  0  0  0  0  0  0  0  0
   26.0721  -20.9602   -8.8842 C   0  0  0  0  0  0  0  0  0  0  0  0
   25.5931  -20.1727  -10.0828 C   0  0  0  0  0  0  0  0  0  0  0  0
   25.3996  -21.1566  -11.2210 C   0  0  2  0  0  0  0  0  0  0  0  0
   26.7281  -21.8289  -11.4791 C   0  0  0  0  0  0  0  0  0  0  0  0
   24.8744  -20.4713  -12.4659 C   0  0  2  0  0  0  0  0  0  0  0  0
   25.8515  -19.6299  -13.0858 N   0  0  0  0  0  0  0  0  0  0  0  0
   23.5808  -19.7989  -12.2241 C   0  0  0  0  0  0  0  0  0  0  0  0
   22.3863  -20.5043  -12.0217 O   0  0  0  0  0  0  0  0  0  0  0  0
   23.4568  -18.5474  -12.1824 O   0  0  0  0  0  0  0  0  0  0  0  0
  2  1  1  6
  3  2  1  0
  4  3  1  0
  5  4  2  0
  6  7  1  0
  6  5  1  0
  7  8  2  0
  8  4  1  0
  9 11  1  0
  9  2  1  0
 10  9  2  0
 11 15  1  0
 12 13  1  0
 12 11  1  0
 13 14  1  0
 15 14  1  0
 15 16  1  1
 16 17  2  0
 18 19  1  0
 19 20  1  0
 20 21  1  6
 20 22  1  0
 22 24  1  0
 22 23  1  1
 23 16  1  0
 24 25  1  0
 26 24  2  0
M  END
$$$$
