HPI.pdb
     RDKit          3D

 26 27  0  0  1  0  0  0  0  0999 V2000
   23.4902  -22.0101  -13.0709 N   0  0  0  0  0  0  0  0  0  0  0  0
   24.2353  -20.9513  -12.4477 C   0  0  1  0  0  0  0  0  0  0  0  0
   23.2267  -19.9127  -11.9932 C   0  0  0  0  0  0  0  0  0  0  0  0
   22.5288  -19.2959  -13.1509 C   0  0  0  0  0  0  0  0  0  0  0  0
   21.1998  -19.4524  -13.4906 C   0  0  0  0  0  0  0  0  0  0  0  0
   20.9476  -18.7372  -14.5995 N   0  0  0  0  0  0  0  0  0  0  0  0
   22.0919  -18.1268  -14.9740 C   0  0  0  0  0  0  0  0  0  0  0  0
   23.0449  -18.4710  -14.0906 N   0  0  0  0  0  0  0  0  0  0  0  0
   25.0570  -21.3852  -11.2995 C   0  0  0  0  0  0  0  0  0  0  0  0
   24.4854  -22.2268  -10.5045 O   0  0  0  0  0  0  0  0  0  0  0  0
   26.3785  -20.9456  -11.0397 N   0  0  0  0  0  0  0  0  0  0  0  0
   27.0197  -19.9104  -11.8665 C   0  0  0  0  0  0  0  0  0  0  0  0
   28.3770  -20.5480  -12.0820 C   0  0  0  0  0  0  0  0  0  0  0  0
   28.6765  -21.1616  -10.7440 C   0  0  0  0  0  0  0  0  0  0  0  0
   27.3272  -21.3070  -10.0378 C   0  0  1  0  0  0  0  0  0  0  0  0
   27.2665  -20.4375   -8.8300 C   0  0  0  0  0  0  0  0  0  0  0  0
   26.8545  -19.2618   -8.9506 O   0  0  0  0  0  0  0  0  0  0  0  0
   28.7332  -20.4035   -2.8087 C   0  0  0  0  0  0  0  0  0  0  0  0
   27.7805  -19.8991   -3.8689 C   0  0  0  0  0  0  0  0  0  0  0  0
   27.9773  -20.7632   -5.1001 C   0  0  2  0  0  0  0  0  0  0  0  0
   29.4267  -21.1889   -5.1368 C   0  0  0  0  0  0  0  0  0  0  0  0
   27.5836  -20.0278   -6.3649 C   0  0  2  0  0  0  0  0  0  0  0  0
   27.6508  -20.8576   -7.5284 N   0  0  0  0  0  0  0  0  0  0  0  0
   28.3055  -18.7464   -6.5082 C   0  0  0  0  0  0  0  0  0  0  0  0
   29.3375  -18.5579   -7.4381 O   0  0  0  0  0  0  0  0  0  0  0  0
   28.0477  -17.7332   -5.8080 O   0  0  0  0  0  0  0  0  0  0  0  0
  2  1  1  1
  3  2  1  0
  4  3  1  0
  5  4  2  0
  6  7  1  0
  6  5  1  0
  7  8  2  0
  8  4  1  0
  9 11  1  0
  9  2  1  0
 10  9  2  0
 11 15  1  0
 12 13  1  0
 12 11  1  0
 13 14  1  0
 15 14  1  0
 15 16  1  1
 16 17  2  0
 18 19  1  0
 19 20  1  0
 20 21  1  6
 20 22  1  0
 22 24  1  0
 22 23  1  6
 23 16  1  0
 24 25  1  0
 26 24  2  0
M  END
$$$$
