HPI.pdb
     RDKit          3D

 26 27  0  0  1  0  0  0  0  0999 V2000
   24.6717  -22.9892  -16.9366 N   0  0  0  0  0  0  0  0  0  0  0  0
   24.5598  -21.7951  -16.1453 C   0  0  1  0  0  0  0  0  0  0  0  0
   23.0794  -21.5633  -15.9065 C   0  0  0  0  0  0  0  0  0  0  0  0
   22.8201  -20.1802  -15.4295 C   0  0  0  0  0  0  0  0  0  0  0  0
   22.2823  -19.8159  -14.2112 C   0  0  0  0  0  0  0  0  0  0  0  0
   22.2046  -18.4760  -14.1538 N   0  0  0  0  0  0  0  0  0  0  0  0
   22.6831  -17.9781  -15.3137 C   0  0  0  0  0  0  0  0  0  0  0  0
   23.0538  -19.0178  -16.0808 N   0  0  0  0  0  0  0  0  0  0  0  0
   25.2702  -21.8584  -14.8518 C   0  0  0  0  0  0  0  0  0  0  0  0
   25.0437  -22.9212  -14.1545 O   0  0  0  0  0  0  0  0  0  0  0  0
   26.1469  -20.8592  -14.3617 N   0  0  0  0  0  0  0  0  0  0  0  0
   26.3179  -19.5767  -15.0632 C   0  0  0  0  0  0  0  0  0  0  0  0
   27.8280  -19.4582  -15.0321 C   0  0  0  0  0  0  0  0  0  0  0  0
   28.1766  -19.9627  -13.6608 C   0  0  0  0  0  0  0  0  0  0  0  0
   26.9809  -20.8015  -13.2060 C   0  0  1  0  0  0  0  0  0  0  0  0
   26.3136  -20.1765  -12.0302 C   0  0  0  0  0  0  0  0  0  0  0  0
   25.6243  -19.1461  -12.2023 O   0  0  0  0  0  0  0  0  0  0  0  0
   22.7788  -21.5021   -7.5320 C   0  0  0  0  0  0  0  0  0  0  0  0
   23.8283  -20.4922   -7.9381 C   0  0  0  0  0  0  0  0  0  0  0  0
   24.6359  -21.1089   -9.0644 C   0  0  2  0  0  0  0  0  0  0  0  0
   25.2684  -22.3760   -8.5371 C   0  0  0  0  0  0  0  0  0  0  0  0
   25.6801  -20.1465   -9.5924 C   0  0  2  0  0  0  0  0  0  0  0  0
   26.4072  -20.6777  -10.7042 N   0  0  0  0  0  0  0  0  0  0  0  0
   26.5446  -19.6214   -8.5150 C   0  0  0  0  0  0  0  0  0  0  0  0
   26.1884  -18.5173   -7.7280 O   0  0  0  0  0  0  0  0  0  0  0  0
   27.6607  -20.1253   -8.2257 O   0  0  0  0  0  0  0  0  0  0  0  0
  2  1  1  1
  3  2  1  0
  4  3  1  0
  5  4  2  0
  6  7  1  0
  6  5  1  0
  7  8  2  0
  8  4  1  0
  9 11  1  0
  9  2  1  0
 10  9  2  0
 11 15  1  0
 12 13  1  0
 12 11  1  0
 13 14  1  0
 15 14  1  0
 15 16  1  1
 16 17  2  0
 18 19  1  0
 19 20  1  0
 20 21  1  1
 20 22  1  0
 22 24  1  0
 22 23  1  6
 23 16  1  0
 24 25  1  0
 26 24  2  0
M  END
$$$$
