HPI.pdb
     RDKit          3D

 26 27  0  0  1  0  0  0  0  0999 V2000
   24.2772  -19.3215  -18.4634 N   0  0  0  0  0  0  0  0  0  0  0  0
   24.8702  -18.7337  -17.2941 C   0  0  1  0  0  0  0  0  0  0  0  0
   23.9334  -17.6327  -16.8326 C   0  0  0  0  0  0  0  0  0  0  0  0
   23.8140  -16.5621  -17.8560 C   0  0  0  0  0  0  0  0  0  0  0  0
   24.8516  -15.8850  -18.4652 C   0  0  0  0  0  0  0  0  0  0  0  0
   24.3401  -14.9939  -19.3305 N   0  0  0  0  0  0  0  0  0  0  0  0
   22.9944  -15.0897  -19.2849 C   0  0  0  0  0  0  0  0  0  0  0  0
   22.6844  -16.0425  -18.3887 N   0  0  0  0  0  0  0  0  0  0  0  0
   25.1024  -19.6869  -16.1899 C   0  0  0  0  0  0  0  0  0  0  0  0
   24.1729  -20.5672  -16.0223 O   0  0  0  0  0  0  0  0  0  0  0  0
   26.2406  -19.6843  -15.3462 N   0  0  0  0  0  0  0  0  0  0  0  0
   27.2657  -18.6326  -15.4433 C   0  0  0  0  0  0  0  0  0  0  0  0
   28.5196  -19.4821  -15.4047 C   0  0  0  0  0  0  0  0  0  0  0  0
   28.1826  -20.5328  -14.3854 C   0  0  0  0  0  0  0  0  0  0  0  0
   26.6556  -20.5570  -14.2971 C   0  0  1  0  0  0  0  0  0  0  0  0
   26.1971  -20.1163  -12.9502 C   0  0  0  0  0  0  0  0  0  0  0  0
   26.2656  -18.9020  -12.6547 O   0  0  0  0  0  0  0  0  0  0  0  0
   21.4225  -20.9183  -11.7033 C   0  0  0  0  0  0  0  0  0  0  0  0
   22.8512  -20.4494  -11.8620 C   0  0  0  0  0  0  0  0  0  0  0  0
   23.6166  -20.9122  -10.6368 C   0  0  2  0  0  0  0  0  0  0  0  0
   22.9740  -20.2771   -9.4255 C   0  0  0  0  0  0  0  0  0  0  0  0
   25.0868  -20.5596  -10.7329 C   0  0  2  0  0  0  0  0  0  0  0  0
   25.6787  -20.9943  -11.9608 N   0  0  0  0  0  0  0  0  0  0  0  0
   25.8372  -20.9805   -9.5315 C   0  0  0  0  0  0  0  0  0  0  0  0
   26.0098  -20.1490   -8.4160 O   0  0  0  0  0  0  0  0  0  0  0  0
   26.3748  -22.1128   -9.4216 O   0  0  0  0  0  0  0  0  0  0  0  0
  2  1  1  6
  3  2  1  0
  4  3  1  0
  5  4  2  0
  6  7  1  0
  6  5  1  0
  7  8  2  0
  8  4  1  0
  9 11  1  0
  9  2  1  0
 10  9  2  0
 11 15  1  0
 12 13  1  0
 12 11  1  0
 13 14  1  0
 15 14  1  0
 15 16  1  1
 16 17  2  0
 18 19  1  0
 19 20  1  0
 20 21  1  1
 20 22  1  0
 22 24  1  0
 22 23  1  6
 23 16  1  0
 24 25  1  0
 26 24  2  0
M  END
$$$$
