HPI.pdb
     RDKit          3D

 26 27  0  0  1  0  0  0  0  0999 V2000
   17.8685  -11.7661  -15.1067 N   0  0  0  0  0  0  0  0  0  0  0  0
   17.8575  -10.3306  -15.0457 C   0  0  1  0  0  0  0  0  0  0  0  0
   16.6080   -9.8695  -15.7727 C   0  0  0  0  0  0  0  0  0  0  0  0
   16.6297  -10.2846  -17.1992 C   0  0  0  0  0  0  0  0  0  0  0  0
   17.5074   -9.8476  -18.1712 C   0  0  0  0  0  0  0  0  0  0  0  0
   17.2055  -10.4517  -19.3325 N   0  0  0  0  0  0  0  0  0  0  0  0
   16.1507  -11.2667  -19.1194 C   0  0  0  0  0  0  0  0  0  0  0  0
   15.8083  -11.1591  -17.8240 N   0  0  0  0  0  0  0  0  0  0  0  0
   17.8672   -9.7838  -13.6736 C   0  0  0  0  0  0  0  0  0  0  0  0
   17.2504  -10.5006  -12.7945 O   0  0  0  0  0  0  0  0  0  0  0  0
   18.4908   -8.5703  -13.2918 N   0  0  0  0  0  0  0  0  0  0  0  0
   19.0857   -7.6660  -14.2891 C   0  0  0  0  0  0  0  0  0  0  0  0
   20.4045   -7.3561  -13.6108 C   0  0  0  0  0  0  0  0  0  0  0  0
   20.0158   -7.2205  -12.1661 C   0  0  0  0  0  0  0  0  0  0  0  0
   18.6789   -7.9499  -12.0213 C   0  0  1  0  0  0  0  0  0  0  0  0
   17.5918   -6.9955  -11.6667 C   0  0  0  0  0  0  0  0  0  0  0  0
   17.0558   -6.3233  -12.5762 O   0  0  0  0  0  0  0  0  0  0  0  0
   12.8355   -7.1381   -8.0047 C   0  0  0  0  0  0  0  0  0  0  0  0
   13.7157   -6.1879   -8.7848 C   0  0  0  0  0  0  0  0  0  0  0  0
   15.0044   -6.9231   -9.1007 C   0  0  2  0  0  0  0  0  0  0  0  0
   15.6983   -7.2192   -7.7914 C   0  0  0  0  0  0  0  0  0  0  0  0
   15.8914   -6.1182  -10.0283 C   0  0  2  0  0  0  0  0  0  0  0  0
   17.1133   -6.7919  -10.3445 N   0  0  0  0  0  0  0  0  0  0  0  0
   16.0848   -4.7343   -9.5473 C   0  0  0  0  0  0  0  0  0  0  0  0
   17.2835   -4.2936   -8.9691 O   0  0  0  0  0  0  0  0  0  0  0  0
   15.1903   -3.8524   -9.6210 O   0  0  0  0  0  0  0  0  0  0  0  0
  2  1  1  1
  3  2  1  0
  4  3  1  0
  5  4  2  0
  6  7  1  0
  6  5  1  0
  7  8  2  0
  8  4  1  0
  9 11  1  0
  9  2  1  0
 10  9  2  0
 11 15  1  0
 12 13  1  0
 12 11  1  0
 13 14  1  0
 15 14  1  0
 15 16  1  6
 16 17  2  0
 18 19  1  0
 19 20  1  0
 20 21  1  1
 20 22  1  0
 22 24  1  0
 22 23  1  1
 23 16  1  0
 24 25  1  0
 26 24  2  0
M  END
$$$$
