CGP.pdb
     RDKit          3D

 18 18  0  0  1  0  0  0  0  0999 V2000
    8.5073  -15.2818   19.5882 N   0  0  0  0  0  0  0  0  0  0  0  0
    8.5558  -13.8505   19.9293 C   0  0  1  0  0  0  0  0  0  0  0  0
    7.8495  -13.1538   18.7787 C   0  0  0  0  0  0  0  0  0  0  0  0
    8.6332  -13.4782   17.1875 S   0  0  0  0  0  0  0  0  0  0  0  0
    7.8882  -13.6771   21.2227 C   0  0  0  0  0  0  0  0  0  0  0  0
    7.8241  -12.5229   21.7722 O   0  0  0  0  0  0  0  0  0  0  0  0
    7.2773  -14.7183   21.9570 N   0  0  0  0  0  0  0  0  0  0  0  0
    6.6718  -14.4774   23.2524 C   0  0  0  0  0  0  0  0  0  0  0  0
    7.6594  -14.1865   24.2943 C   0  0  0  0  0  0  0  0  0  0  0  0
    8.7734  -14.8064   24.2618 O   0  0  0  0  0  0  0  0  0  0  0  0
    7.3740  -13.2426   25.3028 N   0  0  0  0  0  0  0  0  0  0  0  0
    6.2084  -12.3794   25.3262 C   0  0  0  0  0  0  0  0  0  0  0  0
    5.9390  -12.3121   26.8353 C   0  0  0  0  0  0  0  0  0  0  0  0
    7.3590  -11.9906   27.3170 C   0  0  0  0  0  0  0  0  0  0  0  0
    8.1732  -12.9460   26.5030 C   0  0  1  0  0  0  0  0  0  0  0  0
    8.4810  -14.1634   27.2565 C   0  0  0  0  0  0  0  0  0  0  0  0
    9.5041  -14.2429   27.9792 O   0  0  0  0  0  0  0  0  0  0  0  0
    7.6453  -15.2658   27.1906 O   0  0  0  0  0  0  0  0  0  0  0  0
  2  1  1  6
  2  3  1  0
  3  4  1  0
  5  6  2  0
  5  2  1  0
  7  5  1  0
  8  9  1  0
  8  7  1  0
  9 11  1  0
 10  9  2  0
 11 12  1  0
 12 13  1  0
 14 13  1  0
 15 11  1  0
 15 14  1  0
 15 16  1  1
 16 17  2  0
 16 18  1  0
M  END
$$$$
