CGP.pdb
     RDKit          3D

 18 18  0  0  1  0  0  0  0  0999 V2000
    9.3364  -15.3057   18.9380 N   0  0  0  0  0  0  0  0  0  0  0  0
    9.1473  -14.0513   19.6850 C   0  0  1  0  0  0  0  0  0  0  0  0
    8.6505  -13.0555   18.6507 C   0  0  0  0  0  0  0  0  0  0  0  0
    7.0334  -13.4968   17.9861 S   0  0  0  0  0  0  0  0  0  0  0  0
    8.1864  -14.3130   20.7605 C   0  0  0  0  0  0  0  0  0  0  0  0
    7.6768  -15.4777   20.9087 O   0  0  0  0  0  0  0  0  0  0  0  0
    7.7479  -13.3503   21.6973 N   0  0  0  0  0  0  0  0  0  0  0  0
    6.9269  -13.7188   22.8344 C   0  0  0  0  0  0  0  0  0  0  0  0
    7.7069  -13.9044   24.0602 C   0  0  0  0  0  0  0  0  0  0  0  0
    8.6333  -14.7809   24.0608 O   0  0  0  0  0  0  0  0  0  0  0  0
    7.4311  -13.1275   25.2047 N   0  0  0  0  0  0  0  0  0  0  0  0
    6.4735  -12.0391   25.2582 C   0  0  0  0  0  0  0  0  0  0  0  0
    5.9488  -12.1971   26.6915 C   0  0  0  0  0  0  0  0  0  0  0  0
    7.2904  -12.3082   27.4258 C   0  0  0  0  0  0  0  0  0  0  0  0
    8.0374  -13.2547   26.5401 C   0  0  1  0  0  0  0  0  0  0  0  0
    7.9560  -14.6297   27.0372 C   0  0  0  0  0  0  0  0  0  0  0  0
    7.0017  -15.3821   26.7233 O   0  0  0  0  0  0  0  0  0  0  0  0
    8.9367  -15.1387   27.8722 O   0  0  0  0  0  0  0  0  0  0  0  0
  2  1  1  6
  2  3  1  0
  3  4  1  0
  5  6  2  0
  5  2  1  0
  7  5  1  0
  8  9  1  0
  8  7  1  0
  9 11  1  0
 10  9  2  0
 11 12  1  0
 12 13  1  0
 14 13  1  0
 15 11  1  0
 15 14  1  0
 15 16  1  1
 16 17  2  0
 16 18  1  0
M  END
$$$$
