CGP.pdb
     RDKit          3D

 18 18  0  0  1  0  0  0  0  0999 V2000
    8.5212  -16.0868   19.3119 N   0  0  0  0  0  0  0  0  0  0  0  0
    7.9845  -17.0028   20.3318 C   0  0  1  0  0  0  0  0  0  0  0  0
    9.1992  -17.7424   20.8662 C   0  0  0  0  0  0  0  0  0  0  0  0
    8.8288  -18.7020   22.3472 S   0  0  0  0  0  0  0  0  0  0  0  0
    7.2962  -16.1928   21.3411 C   0  0  0  0  0  0  0  0  0  0  0  0
    6.0433  -15.9519   21.2384 O   0  0  0  0  0  0  0  0  0  0  0  0
    7.9184  -15.6242   22.4752 N   0  0  0  0  0  0  0  0  0  0  0  0
    7.1473  -14.9663   23.5122 C   0  0  0  0  0  0  0  0  0  0  0  0
    7.9897  -14.3509   24.5405 C   0  0  0  0  0  0  0  0  0  0  0  0
    9.2042  -14.7287   24.6334 O   0  0  0  0  0  0  0  0  0  0  0  0
    7.4596  -13.3664   25.4003 N   0  0  0  0  0  0  0  0  0  0  0  0
    6.1612  -12.7390   25.2434 C   0  0  0  0  0  0  0  0  0  0  0  0
    5.7619  -12.5487   26.7128 C   0  0  0  0  0  0  0  0  0  0  0  0
    7.0579  -11.9143   27.2319 C   0  0  0  0  0  0  0  0  0  0  0  0
    8.0927  -12.7889   26.5974 C   0  0  1  0  0  0  0  0  0  0  0  0
    8.5495  -13.8317   27.5183 C   0  0  0  0  0  0  0  0  0  0  0  0
    7.9512  -14.9314   27.6082 O   0  0  0  0  0  0  0  0  0  0  0  0
    9.6612  -13.6300   28.3193 O   0  0  0  0  0  0  0  0  0  0  0  0
  2  1  1  6
  2  3  1  0
  3  4  1  0
  5  6  2  0
  5  2  1  0
  7  5  1  0
  8  9  1  0
  8  7  1  0
  9 11  1  0
 10  9  2  0
 11 12  1  0
 12 13  1  0
 14 13  1  0
 15 11  1  0
 15 14  1  0
 15 16  1  1
 16 17  2  0
 16 18  1  0
M  END
$$$$
