CGP.pdb
     RDKit          3D

 18 18  0  0  1  0  0  0  0  0999 V2000
    7.2728  -15.6437   27.3863 N   0  0  0  0  0  0  0  0  0  0  0  0
    6.7608  -14.6040   26.4784 C   0  0  1  0  0  0  0  0  0  0  0  0
    6.5255  -13.3947   27.3675 C   0  0  0  0  0  0  0  0  0  0  0  0
    5.9007  -11.9731   26.4509 S   0  0  0  0  0  0  0  0  0  0  0  0
    7.7697  -14.3836   25.4382 C   0  0  0  0  0  0  0  0  0  0  0  0
    9.0172  -14.4464   25.7179 O   0  0  0  0  0  0  0  0  0  0  0  0
    7.4789  -14.0938   24.0862 N   0  0  0  0  0  0  0  0  0  0  0  0
    8.5281  -13.7756   23.1370 C   0  0  0  0  0  0  0  0  0  0  0  0
    8.4120  -14.5334   21.8888 C   0  0  0  0  0  0  0  0  0  0  0  0
    8.5300  -15.8023   21.9383 O   0  0  0  0  0  0  0  0  0  0  0  0
    8.1756  -13.8654   20.6692 N   0  0  0  0  0  0  0  0  0  0  0  0
    7.8866  -12.4498   20.5405 C   0  0  0  0  0  0  0  0  0  0  0  0
    8.5879  -12.1398   19.2113 C   0  0  0  0  0  0  0  0  0  0  0  0
    8.0294  -13.2953   18.3719 C   0  0  0  0  0  0  0  0  0  0  0  0
    8.1729  -14.4464   19.3166 C   0  0  1  0  0  0  0  0  0  0  0  0
    9.3991  -15.2031   19.0556 C   0  0  0  0  0  0  0  0  0  0  0  0
    9.3979  -16.2105   18.3069 O   0  0  0  0  0  0  0  0  0  0  0  0
   10.5999  -14.8240   19.6321 O   0  0  0  0  0  0  0  0  0  0  0  0
  2  1  1  1
  2  3  1  0
  3  4  1  0
  5  6  2  0
  5  2  1  0
  7  5  1  0
  8  9  1  0
  8  7  1  0
  9 11  1  0
 10  9  2  0
 11 12  1  0
 12 13  1  0
 14 13  1  0
 15 11  1  0
 15 14  1  0
 15 16  1  6
 16 17  2  0
 16 18  1  0
M  END
$$$$
