CGP.pdb
     RDKit          3D

 18 18  0  0  1  0  0  0  0  0999 V2000
    9.2079  -15.8971   19.0386 N   0  0  0  0  0  0  0  0  0  0  0  0
    8.9762  -14.5650   19.6209 C   0  0  1  0  0  0  0  0  0  0  0  0
    8.4068  -13.7374   18.4810 C   0  0  0  0  0  0  0  0  0  0  0  0
    7.7490  -12.1534   19.0374 S   0  0  0  0  0  0  0  0  0  0  0  0
    8.0554  -14.7256   20.7500 C   0  0  0  0  0  0  0  0  0  0  0  0
    7.2893  -15.7482   20.8246 O   0  0  0  0  0  0  0  0  0  0  0  0
    7.9282  -13.8101   21.8188 N   0  0  0  0  0  0  0  0  0  0  0  0
    7.0520  -14.0755   22.9434 C   0  0  0  0  0  0  0  0  0  0  0  0
    7.7643  -14.1011   24.2231 C   0  0  0  0  0  0  0  0  0  0  0  0
    8.7181  -14.9352   24.3680 O   0  0  0  0  0  0  0  0  0  0  0  0
    7.3956  -13.2204   25.2614 N   0  0  0  0  0  0  0  0  0  0  0  0
    6.3439  -12.2253   25.1717 C   0  0  0  0  0  0  0  0  0  0  0  0
    5.8044  -12.2568   26.6078 C   0  0  0  0  0  0  0  0  0  0  0  0
    7.1344  -12.1560   27.3645 C   0  0  0  0  0  0  0  0  0  0  0  0
    7.9818  -13.1301   26.6087 C   0  0  1  0  0  0  0  0  0  0  0  0
    8.0125  -14.4370   27.2687 C   0  0  0  0  0  0  0  0  0  0  0  0
    7.1470  -15.3125   27.0243 O   0  0  0  0  0  0  0  0  0  0  0  0
    9.0043  -14.7426   28.1858 O   0  0  0  0  0  0  0  0  0  0  0  0
  2  1  1  6
  2  3  1  0
  3  4  1  0
  5  6  2  0
  5  2  1  0
  7  5  1  0
  8  9  1  0
  8  7  1  0
  9 11  1  0
 10  9  2  0
 11 12  1  0
 12 13  1  0
 14 13  1  0
 15 11  1  0
 15 14  1  0
 15 16  1  1
 16 17  2  0
 16 18  1  0
M  END
$$$$
