CGP.pdb
     RDKit          3D

 18 18  0  0  1  0  0  0  0  0999 V2000
    8.6718  -20.2126   24.1214 N   0  0  0  0  0  0  0  0  0  0  0  0
    7.5438  -19.5813   23.4170 C   0  0  1  0  0  0  0  0  0  0  0  0
    6.5342  -20.6998   23.2214 C   0  0  0  0  0  0  0  0  0  0  0  0
    4.9946  -20.1208   22.4827 S   0  0  0  0  0  0  0  0  0  0  0  0
    7.0525  -18.4835   24.2547 C   0  0  0  0  0  0  0  0  0  0  0  0
    6.8189  -18.6691   25.4995 O   0  0  0  0  0  0  0  0  0  0  0  0
    6.8000  -17.1721   23.7931 N   0  0  0  0  0  0  0  0  0  0  0  0
    6.3516  -16.1259   24.6915 C   0  0  0  0  0  0  0  0  0  0  0  0
    7.4480  -15.2791   25.1674 C   0  0  0  0  0  0  0  0  0  0  0  0
    8.6327  -15.7501   25.1378 O   0  0  0  0  0  0  0  0  0  0  0  0
    7.1875  -13.9774   25.6440 N   0  0  0  0  0  0  0  0  0  0  0  0
    5.8895  -13.3300   25.6233 C   0  0  0  0  0  0  0  0  0  0  0  0
    5.9625  -12.5132   26.9203 C   0  0  0  0  0  0  0  0  0  0  0  0
    7.3396  -11.8691   26.7194 C   0  0  0  0  0  0  0  0  0  0  0  0
    8.1470  -13.0348   26.2423 C   0  0  1  0  0  0  0  0  0  0  0  0
    8.8933  -13.6537   27.3398 C   0  0  0  0  0  0  0  0  0  0  0  0
   10.0385  -13.2514   27.6592 O   0  0  0  0  0  0  0  0  0  0  0  0
    8.3509  -14.7061   28.0583 O   0  0  0  0  0  0  0  0  0  0  0  0
  2  1  1  1
  2  3  1  0
  3  4  1  0
  5  6  2  0
  5  2  1  0
  7  5  1  0
  8  9  1  0
  8  7  1  0
  9 11  1  0
 10  9  2  0
 11 12  1  0
 12 13  1  0
 14 13  1  0
 15 11  1  0
 15 14  1  0
 15 16  1  1
 16 17  2  0
 16 18  1  0
M  END
$$$$
