CGP.pdb
     RDKit          3D

 18 18  0  0  1  0  0  0  0  0999 V2000
    9.1802  -18.2167   21.5336 N   0  0  0  0  0  0  0  0  0  0  0  0
    9.6771  -16.9333   21.0110 C   0  0  1  0  0  0  0  0  0  0  0  0
    9.2489  -16.9165   19.5534 C   0  0  0  0  0  0  0  0  0  0  0  0
    7.4570  -16.9653   19.3581 S   0  0  0  0  0  0  0  0  0  0  0  0
    9.0787  -15.8627   21.8137 C   0  0  0  0  0  0  0  0  0  0  0  0
    9.5333  -14.6680   21.7475 O   0  0  0  0  0  0  0  0  0  0  0  0
    7.9908  -16.0351   22.6988 N   0  0  0  0  0  0  0  0  0  0  0  0
    7.3540  -14.9043   23.3457 C   0  0  0  0  0  0  0  0  0  0  0  0
    8.0920  -14.4341   24.5205 C   0  0  0  0  0  0  0  0  0  0  0  0
    9.1676  -15.0395   24.8414 O   0  0  0  0  0  0  0  0  0  0  0  0
    7.6151  -13.3383   25.2698 N   0  0  0  0  0  0  0  0  0  0  0  0
    6.5148  -12.4791   24.8758 C   0  0  0  0  0  0  0  0  0  0  0  0
    5.8975  -12.1674   26.2456 C   0  0  0  0  0  0  0  0  0  0  0  0
    7.1745  -11.7766   26.9993 C   0  0  0  0  0  0  0  0  0  0  0  0
    8.1179  -12.8538   26.5658 C   0  0  1  0  0  0  0  0  0  0  0  0
    8.1862  -13.9339   27.5522 C   0  0  0  0  0  0  0  0  0  0  0  0
    7.4117  -14.9200   27.4955 O   0  0  0  0  0  0  0  0  0  0  0  0
    9.1136  -13.8949   28.5800 O   0  0  0  0  0  0  0  0  0  0  0  0
  2  1  1  1
  2  3  1  0
  3  4  1  0
  5  6  2  0
  5  2  1  0
  7  5  1  0
  8  9  1  0
  8  7  1  0
  9 11  1  0
 10  9  2  0
 11 12  1  0
 12 13  1  0
 14 13  1  0
 15 11  1  0
 15 14  1  0
 15 16  1  1
 16 17  2  0
 16 18  1  0
M  END
$$$$
