CGP.pdb
     RDKit          3D

 18 18  0  0  1  0  0  0  0  0999 V2000
    7.2183  -16.7000   19.9163 N   0  0  0  0  0  0  0  0  0  0  0  0
    7.9040  -15.5035   20.4313 C   0  0  1  0  0  0  0  0  0  0  0  0
    7.4343  -14.3711   19.5339 C   0  0  0  0  0  0  0  0  0  0  0  0
    7.9981  -12.7564   20.1050 S   0  0  0  0  0  0  0  0  0  0  0  0
    7.5208  -15.3398   21.8366 C   0  0  0  0  0  0  0  0  0  0  0  0
    6.4315  -15.8472   22.2774 O   0  0  0  0  0  0  0  0  0  0  0  0
    8.2806  -14.6384   22.7996 N   0  0  0  0  0  0  0  0  0  0  0  0
    7.8825  -14.5945   24.1933 C   0  0  0  0  0  0  0  0  0  0  0  0
    8.9683  -14.9629   25.1048 C   0  0  0  0  0  0  0  0  0  0  0  0
    9.7051  -15.9574   24.7972 O   0  0  0  0  0  0  0  0  0  0  0  0
    9.1838  -14.2287   26.2898 N   0  0  0  0  0  0  0  0  0  0  0  0
    8.4207  -13.0635   26.6948 C   0  0  0  0  0  0  0  0  0  0  0  0
    8.4063  -13.2527   28.2175 C   0  0  0  0  0  0  0  0  0  0  0  0
    9.8993  -13.5241   28.4382 C   0  0  0  0  0  0  0  0  0  0  0  0
   10.1949  -14.4834   27.3289 C   0  0  1  0  0  0  0  0  0  0  0  0
   10.1475  -15.8710   27.7947 C   0  0  0  0  0  0  0  0  0  0  0  0
    9.0991  -16.5550   27.7031 O   0  0  0  0  0  0  0  0  0  0  0  0
   11.2658  -16.4682   28.3520 O   0  0  0  0  0  0  0  0  0  0  0  0
  2  1  1  6
  2  3  1  0
  3  4  1  0
  5  6  2  0
  5  2  1  0
  7  5  1  0
  8  9  1  0
  8  7  1  0
  9 11  1  0
 10  9  2  0
 11 12  1  0
 12 13  1  0
 14 13  1  0
 15 11  1  0
 15 14  1  0
 15 16  1  1
 16 17  2  0
 16 18  1  0
M  END
$$$$
