CGP.pdb
     RDKit          3D

 18 18  0  0  1  0  0  0  0  0999 V2000
    8.4210  -16.6364   19.3917 N   0  0  0  0  0  0  0  0  0  0  0  0
    8.5055  -15.2202   19.7850 C   0  0  1  0  0  0  0  0  0  0  0  0
    8.0207  -14.4505   18.5681 C   0  0  0  0  0  0  0  0  0  0  0  0
    7.7239  -12.7081   18.9246 S   0  0  0  0  0  0  0  0  0  0  0  0
    7.6657  -15.0359   20.9721 C   0  0  0  0  0  0  0  0  0  0  0  0
    6.7391  -15.8741   21.2502 O   0  0  0  0  0  0  0  0  0  0  0  0
    7.7900  -13.9648   21.8852 N   0  0  0  0  0  0  0  0  0  0  0  0
    6.9368  -13.8621   23.0532 C   0  0  0  0  0  0  0  0  0  0  0  0
    7.6902  -13.8858   24.3092 C   0  0  0  0  0  0  0  0  0  0  0  0
    8.6906  -14.6716   24.3997 O   0  0  0  0  0  0  0  0  0  0  0  0
    7.3092  -13.0560   25.3843 N   0  0  0  0  0  0  0  0  0  0  0  0
    6.1705  -12.1573   25.3763 C   0  0  0  0  0  0  0  0  0  0  0  0
    5.7242  -12.2567   26.8411 C   0  0  0  0  0  0  0  0  0  0  0  0
    7.0836  -12.0485   27.5193 C   0  0  0  0  0  0  0  0  0  0  0  0
    7.9659  -12.9328   26.6960 C   0  0  1  0  0  0  0  0  0  0  0  0
    8.1516  -14.2408   27.3277 C   0  0  0  0  0  0  0  0  0  0  0  0
    7.3445  -15.1816   27.1306 O   0  0  0  0  0  0  0  0  0  0  0  0
    9.2300  -14.4750   28.1645 O   0  0  0  0  0  0  0  0  0  0  0  0
  2  1  1  6
  2  3  1  0
  3  4  1  0
  5  6  2  0
  5  2  1  0
  7  5  1  0
  8  9  1  0
  8  7  1  0
  9 11  1  0
 10  9  2  0
 11 12  1  0
 12 13  1  0
 14 13  1  0
 15 11  1  0
 15 14  1  0
 15 16  1  1
 16 17  2  0
 16 18  1  0
M  END
$$$$
