CGP.pdb
     RDKit          3D

 18 18  0  0  1  0  0  0  0  0999 V2000
    7.9321  -17.5074   19.4677 N   0  0  0  0  0  0  0  0  0  0  0  0
    8.6931  -17.2366   20.6984 C   0  0  1  0  0  0  0  0  0  0  0  0
   10.0953  -16.8992   20.2207 C   0  0  0  0  0  0  0  0  0  0  0  0
   11.2147  -16.5112   21.5800 S   0  0  0  0  0  0  0  0  0  0  0  0
    8.0285  -16.1350   21.4008 C   0  0  0  0  0  0  0  0  0  0  0  0
    7.6166  -15.1078   20.7578 O   0  0  0  0  0  0  0  0  0  0  0  0
    7.7875  -16.0994   22.7926 N   0  0  0  0  0  0  0  0  0  0  0  0
    7.1844  -14.9437   23.4277 C   0  0  0  0  0  0  0  0  0  0  0  0
    8.0063  -14.3989   24.5109 C   0  0  0  0  0  0  0  0  0  0  0  0
    9.1808  -14.8683   24.6737 O   0  0  0  0  0  0  0  0  0  0  0  0
    7.5005  -13.3811   25.3462 N   0  0  0  0  0  0  0  0  0  0  0  0
    6.2578  -12.6663   25.1246 C   0  0  0  0  0  0  0  0  0  0  0  0
    5.7962  -12.4503   26.5719 C   0  0  0  0  0  0  0  0  0  0  0  0
    7.1036  -11.9063   27.1605 C   0  0  0  0  0  0  0  0  0  0  0  0
    8.1081  -12.8490   26.5770 C   0  0  1  0  0  0  0  0  0  0  0  0
    8.4440  -13.9213   27.5160 C   0  0  0  0  0  0  0  0  0  0  0  0
    7.7961  -14.9960   27.5389 O   0  0  0  0  0  0  0  0  0  0  0  0
    9.4925  -13.7761   28.4090 O   0  0  0  0  0  0  0  0  0  0  0  0
  2  1  1  6
  2  3  1  0
  3  4  1  0
  5  6  2  0
  5  2  1  0
  7  5  1  0
  8  9  1  0
  8  7  1  0
  9 11  1  0
 10  9  2  0
 11 12  1  0
 12 13  1  0
 14 13  1  0
 15 11  1  0
 15 14  1  0
 15 16  1  1
 16 17  2  0
 16 18  1  0
M  END
$$$$
