CGP.pdb
     RDKit          3D

 18 18  0  0  1  0  0  0  0  0999 V2000
    9.2140  -16.7284   19.4754 N   0  0  0  0  0  0  0  0  0  0  0  0
    9.1850  -16.9922   20.9235 C   0  0  1  0  0  0  0  0  0  0  0  0
   10.6130  -17.3721   21.2768 C   0  0  0  0  0  0  0  0  0  0  0  0
   10.8484  -17.6057   23.0492 S   0  0  0  0  0  0  0  0  0  0  0  0
    8.7171  -15.7734   21.5898 C   0  0  0  0  0  0  0  0  0  0  0  0
    9.2767  -14.6467   21.3534 O   0  0  0  0  0  0  0  0  0  0  0  0
    7.6512  -15.7233   22.5160 N   0  0  0  0  0  0  0  0  0  0  0  0
    7.2127  -14.4702   23.0994 C   0  0  0  0  0  0  0  0  0  0  0  0
    7.9224  -14.1427   24.3382 C   0  0  0  0  0  0  0  0  0  0  0  0
    9.0195  -14.7447   24.5840 O   0  0  0  0  0  0  0  0  0  0  0  0
    7.3958  -13.1840   25.2288 N   0  0  0  0  0  0  0  0  0  0  0  0
    6.2005  -12.3975   24.9903 C   0  0  0  0  0  0  0  0  0  0  0  0
    5.6431  -12.2944   26.4162 C   0  0  0  0  0  0  0  0  0  0  0  0
    6.9237  -11.8650   27.1424 C   0  0  0  0  0  0  0  0  0  0  0  0
    7.9317  -12.7942   26.5433 C   0  0  1  0  0  0  0  0  0  0  0  0
    8.1575  -13.9616   27.3979 C   0  0  0  0  0  0  0  0  0  0  0  0
    9.0304  -13.9516   28.2998 O   0  0  0  0  0  0  0  0  0  0  0  0
    7.4086  -15.1147   27.2319 O   0  0  0  0  0  0  0  0  0  0  0  0
  2  1  1  6
  2  3  1  0
  3  4  1  0
  5  6  2  0
  5  2  1  0
  7  5  1  0
  8  9  1  0
  8  7  1  0
  9 11  1  0
 10  9  2  0
 11 12  1  0
 12 13  1  0
 14 13  1  0
 15 11  1  0
 15 14  1  0
 15 16  1  1
 16 17  2  0
 16 18  1  0
M  END
$$$$
