CGP.pdb
     RDKit          3D

 18 18  0  0  1  0  0  0  0  0999 V2000
    5.7960  -18.6984   24.1582 N   0  0  0  0  0  0  0  0  0  0  0  0
    7.1426  -18.1342   24.3470 C   0  0  1  0  0  0  0  0  0  0  0  0
    8.0888  -19.2182   23.8594 C   0  0  0  0  0  0  0  0  0  0  0  0
    9.8205  -18.8050   24.1454 S   0  0  0  0  0  0  0  0  0  0  0  0
    7.2189  -16.8925   23.5719 C   0  0  0  0  0  0  0  0  0  0  0  0
    6.4908  -16.7288   22.5320 O   0  0  0  0  0  0  0  0  0  0  0  0
    8.0644  -15.8035   23.8813 N   0  0  0  0  0  0  0  0  0  0  0  0
    8.1112  -14.6194   23.0454 C   0  0  0  0  0  0  0  0  0  0  0  0
    8.7392  -14.8678   21.7455 C   0  0  0  0  0  0  0  0  0  0  0  0
    9.4548  -15.9146   21.6096 O   0  0  0  0  0  0  0  0  0  0  0  0
    8.5498  -13.9647   20.6787 N   0  0  0  0  0  0  0  0  0  0  0  0
    7.6407  -12.8345   20.6992 C   0  0  0  0  0  0  0  0  0  0  0  0
    8.4300  -11.8241   19.8562 C   0  0  0  0  0  0  0  0  0  0  0  0
    8.7825  -12.7279   18.6686 C   0  0  0  0  0  0  0  0  0  0  0  0
    9.2135  -13.9800   19.3648 C   0  0  1  0  0  0  0  0  0  0  0  0
   10.6702  -14.0424   19.5005 C   0  0  0  0  0  0  0  0  0  0  0  0
   11.2477  -13.6312   20.5363 O   0  0  0  0  0  0  0  0  0  0  0  0
   11.4535  -14.5603   18.4826 O   0  0  0  0  0  0  0  0  0  0  0  0
  2  1  1  6
  2  3  1  0
  3  4  1  0
  5  6  2  0
  5  2  1  0
  7  5  1  0
  8  9  1  0
  8  7  1  0
  9 11  1  0
 10  9  2  0
 11 12  1  0
 12 13  1  0
 14 13  1  0
 15 11  1  0
 15 14  1  0
 15 16  1  1
 16 17  2  0
 16 18  1  0
M  END
$$$$
