CGP.pdb
     RDKit          3D

 18 18  0  0  1  0  0  0  0  0999 V2000
    7.8174  -17.9341   19.8070 N   0  0  0  0  0  0  0  0  0  0  0  0
    8.6067  -17.2064   20.8143 C   0  0  1  0  0  0  0  0  0  0  0  0
    9.4821  -16.2597   20.0107 C   0  0  0  0  0  0  0  0  0  0  0  0
   10.6142  -15.3151   21.0487 S   0  0  0  0  0  0  0  0  0  0  0  0
    7.6677  -16.5244   21.7096 C   0  0  0  0  0  0  0  0  0  0  0  0
    6.5457  -17.0631   22.0085 O   0  0  0  0  0  0  0  0  0  0  0  0
    7.8972  -15.2633   22.3042 N   0  0  0  0  0  0  0  0  0  0  0  0
    7.1036  -14.7988   23.4255 C   0  0  0  0  0  0  0  0  0  0  0  0
    7.9232  -14.3820   24.5658 C   0  0  0  0  0  0  0  0  0  0  0  0
    9.0175  -15.0000   24.7822 O   0  0  0  0  0  0  0  0  0  0  0  0
    7.5022  -13.3225   25.3963 N   0  0  0  0  0  0  0  0  0  0  0  0
    6.2943  -12.5435   25.2002 C   0  0  0  0  0  0  0  0  0  0  0  0
    5.8933  -12.2758   26.6569 C   0  0  0  0  0  0  0  0  0  0  0  0
    7.2474  -11.7951   27.1925 C   0  0  0  0  0  0  0  0  0  0  0  0
    8.1784  -12.8029   26.5962 C   0  0  1  0  0  0  0  0  0  0  0  0
    8.4853  -13.8751   27.5453 C   0  0  0  0  0  0  0  0  0  0  0  0
    9.4358  -13.7747   28.3589 O   0  0  0  0  0  0  0  0  0  0  0  0
    7.7296  -15.0354   27.5696 O   0  0  0  0  0  0  0  0  0  0  0  0
  2  1  1  6
  2  3  1  0
  3  4  1  0
  5  6  2  0
  5  2  1  0
  7  5  1  0
  8  9  1  0
  8  7  1  0
  9 11  1  0
 10  9  2  0
 11 12  1  0
 12 13  1  0
 14 13  1  0
 15 11  1  0
 15 14  1  0
 15 16  1  1
 16 17  2  0
 16 18  1  0
M  END
$$$$
