QVE.pdb
     RDKit          3D

 26 25  0  0  1  0  0  0  0  0999 V2000
    4.7313  -18.1814   23.1473 N   0  0  0  0  0  0  0  0  0  0  0  0
    5.8554  -18.4784   22.3585 C   0  0  0  0  0  0  0  0  0  0  0  0
    6.2897  -19.6657   22.2348 O   0  0  0  0  0  0  0  0  0  0  0  0
    6.5978  -17.4089   21.6326 C   0  0  0  0  0  0  0  0  0  0  0  0
    5.8909  -16.1157   21.8687 C   0  0  0  0  0  0  0  0  0  0  0  0
    6.6835  -14.8827   21.7505 C   0  0  2  0  0  0  0  0  0  0  0  0
    7.3303  -14.7511   20.4425 N   0  0  0  0  0  0  0  0  0  0  0  0
    7.7020  -14.6422   22.8354 C   0  0  0  0  0  0  0  0  0  0  0  0
    8.8765  -14.9402   22.5704 O   0  0  0  0  0  0  0  0  0  0  0  0
    7.2730  -11.5029   25.3095 C   0  0  0  0  0  0  0  0  0  0  0  0
    7.3816  -12.8174   26.0893 C   0  0  1  0  0  0  0  0  0  0  0  0
    5.9100  -13.3062   26.0973 C   0  0  0  0  0  0  0  0  0  0  0  0
    8.1113  -13.8638   25.2453 C   0  0  2  0  0  0  0  0  0  0  0  0
    7.2945  -14.1182   24.0565 N   0  0  0  0  0  0  0  0  0  0  0  0
    8.1208  -15.1711   25.9559 C   0  0  0  0  0  0  0  0  0  0  0  0
    7.1622  -15.9603   25.7542 O   0  0  0  0  0  0  0  0  0  0  0  0
    9.1359  -15.6063   26.8427 N   0  0  0  0  0  0  0  0  0  0  0  0
    9.7135  -16.9475   26.7805 C   0  0  1  0  0  0  0  0  0  0  0  0
   10.8117  -16.9181   25.7564 C   0  0  0  0  0  0  0  0  0  0  0  0
   11.6324  -18.1929   25.7075 C   0  0  0  0  0  0  0  0  0  0  0  0
   12.7538  -18.0897   24.7004 C   0  0  0  0  0  0  0  0  0  0  0  0
   13.8460  -17.6679   25.0535 O   0  0  0  0  0  0  0  0  0  0  0  0
   10.2542  -17.3596   28.0788 C   0  0  0  0  0  0  0  0  0  0  0  0
   10.3567  -16.4655   29.1648 O   0  0  0  0  0  0  0  0  0  0  0  0
   12.5424  -18.4755   23.3852 O   0  0  0  0  0  0  0  0  0  0  0  0
   10.6662  -18.5011   28.3280 O   0  0  0  0  0  0  0  0  0  0  0  0
  2  1  1  0
  2  3  2  0
  4  5  1  0
  4  2  1  0
  6  7  1  6
  6  5  1  0
  8  6  1  0
  9  8  2  0
 11 10  1  6
 11 13  1  0
 12 11  1  0
 13 15  1  0
 13 14  1  6
 14  8  1  0
 15 16  2  0
 17 18  1  0
 17 15  1  0
 18 19  1  6
 19 20  1  0
 20 21  1  0
 21 25  1  0
 21 22  2  0
 23 24  1  0
 23 18  1  0
 26 23  2  0
M  END
$$$$
