QVE.pdb
     RDKit          3D

 26 25  0  0  1  0  0  0  0  0999 V2000
    6.0114  -20.8415   19.0623 N   0  0  0  0  0  0  0  0  0  0  0  0
    7.1751  -20.9157   18.2785 C   0  0  0  0  0  0  0  0  0  0  0  0
    7.6906  -22.0298   17.9522 O   0  0  0  0  0  0  0  0  0  0  0  0
    7.8654  -19.6854   17.7970 C   0  0  0  0  0  0  0  0  0  0  0  0
    7.0925  -18.5038   18.2812 C   0  0  0  0  0  0  0  0  0  0  0  0
    7.4679  -17.1869   17.7453 C   0  0  2  0  0  0  0  0  0  0  0  0
    7.8692  -17.2444   16.3374 N   0  0  0  0  0  0  0  0  0  0  0  0
    8.5061  -16.4238   18.5277 C   0  0  0  0  0  0  0  0  0  0  0  0
    9.6927  -16.6730   18.2660 O   0  0  0  0  0  0  0  0  0  0  0  0
    7.3086  -12.7848   19.7398 C   0  0  0  0  0  0  0  0  0  0  0  0
    8.0344  -13.5236   20.8692 C   0  0  1  0  0  0  0  0  0  0  0  0
    6.8777  -14.3241   21.5219 C   0  0  0  0  0  0  0  0  0  0  0  0
    8.9438  -14.6048   20.2828 C   0  0  2  0  0  0  0  0  0  0  0  0
    8.1035  -15.5035   19.4882 N   0  0  0  0  0  0  0  0  0  0  0  0
    9.4636  -15.4751   21.3719 C   0  0  0  0  0  0  0  0  0  0  0  0
    8.8293  -16.5277   21.6410 O   0  0  0  0  0  0  0  0  0  0  0  0
   10.6308  -15.2162   22.1316 N   0  0  0  0  0  0  0  0  0  0  0  0
   11.2635  -16.2303   22.9728 C   0  0  1  0  0  0  0  0  0  0  0  0
   12.7458  -15.9927   22.9271 C   0  0  0  0  0  0  0  0  0  0  0  0
   13.5454  -16.9744   23.7626 C   0  0  0  0  0  0  0  0  0  0  0  0
   15.0257  -16.6803   23.6945 C   0  0  0  0  0  0  0  0  0  0  0  0
   15.4450  -15.8771   22.8732 O   0  0  0  0  0  0  0  0  0  0  0  0
   10.7889  -16.1514   24.3571 C   0  0  0  0  0  0  0  0  0  0  0  0
   10.9955  -17.1979   25.2799 O   0  0  0  0  0  0  0  0  0  0  0  0
   15.8999  -17.3171   24.5627 O   0  0  0  0  0  0  0  0  0  0  0  0
   10.1724  -15.1841   24.8251 O   0  0  0  0  0  0  0  0  0  0  0  0
  2  1  1  0
  2  3  2  0
  4  5  1  0
  4  2  1  0
  6  7  1  6
  6  5  1  0
  8  6  1  0
  9  8  2  0
 11 10  1  6
 11 13  1  0
 12 11  1  0
 13 15  1  0
 13 14  1  6
 14  8  1  0
 15 16  2  0
 17 18  1  0
 17 15  1  0
 18 19  1  1
 19 20  1  0
 20 21  1  0
 21 25  1  0
 21 22  2  0
 23 24  1  0
 23 18  1  0
 26 23  2  0
M  END
$$$$
