QVE.pdb
     RDKit          3D

 26 25  0  0  1  0  0  0  0  0999 V2000
    8.4863  -11.9840   19.5540 N   0  0  0  0  0  0  0  0  0  0  0  0
    7.9423  -13.2350   19.2178 C   0  0  0  0  0  0  0  0  0  0  0  0
    8.1631  -13.7782   18.0910 O   0  0  0  0  0  0  0  0  0  0  0  0
    7.0718  -13.9829   20.1691 C   0  0  0  0  0  0  0  0  0  0  0  0
    7.8192  -15.1920   20.6245 C   0  0  0  0  0  0  0  0  0  0  0  0
    7.6452  -15.6042   22.0253 C   0  0  2  0  0  0  0  0  0  0  0  0
    6.2361  -15.6888   22.4176 N   0  0  0  0  0  0  0  0  0  0  0  0
    8.4000  -14.7993   23.0523 C   0  0  0  0  0  0  0  0  0  0  0  0
    9.5503  -14.4493   22.7476 O   0  0  0  0  0  0  0  0  0  0  0  0
    6.6182  -12.0968   24.8696 C   0  0  0  0  0  0  0  0  0  0  0  0
    7.2963  -12.8854   25.9949 C   0  0  1  0  0  0  0  0  0  0  0  0
    6.1736  -13.8679   26.4176 C   0  0  0  0  0  0  0  0  0  0  0  0
    8.3798  -13.7946   25.4126 C   0  0  2  0  0  0  0  0  0  0  0  0
    7.7965  -14.4967   24.2672 N   0  0  0  0  0  0  0  0  0  0  0  0
    8.6964  -14.8854   26.3738 C   0  0  0  0  0  0  0  0  0  0  0  0
    7.7754  -15.6831   26.6868 O   0  0  0  0  0  0  0  0  0  0  0  0
    9.9652  -15.1053   26.9639 N   0  0  0  0  0  0  0  0  0  0  0  0
   10.1942  -16.1325   27.9780 C   0  0  1  0  0  0  0  0  0  0  0  0
   11.4115  -16.9097   27.5653 C   0  0  0  0  0  0  0  0  0  0  0  0
   11.2826  -17.5637   26.2027 C   0  0  0  0  0  0  0  0  0  0  0  0
   12.5602  -18.2642   25.8031 C   0  0  0  0  0  0  0  0  0  0  0  0
   13.5202  -18.2484   26.5605 O   0  0  0  0  0  0  0  0  0  0  0  0
   10.4061  -15.5414   29.3022 C   0  0  0  0  0  0  0  0  0  0  0  0
   10.5270  -16.3318   30.4641 O   0  0  0  0  0  0  0  0  0  0  0  0
   12.6380  -18.9230   24.5852 O   0  0  0  0  0  0  0  0  0  0  0  0
   10.4882  -14.3234   29.5131 O   0  0  0  0  0  0  0  0  0  0  0  0
  2  1  1  0
  2  3  2  0
  4  5  1  0
  4  2  1  0
  6  7  1  1
  6  5  1  0
  8  6  1  0
  9  8  2  0
 11 10  1  6
 11 13  1  0
 12 11  1  0
 13 15  1  0
 13 14  1  6
 14  8  1  0
 15 16  2  0
 17 18  1  0
 17 15  1  0
 18 19  1  6
 19 20  1  0
 20 21  1  0
 21 25  1  0
 21 22  2  0
 23 24  1  0
 23 18  1  0
 26 23  2  0
M  END
$$$$
