QVE.pdb
     RDKit          3D

 26 25  0  0  1  0  0  0  0  0999 V2000
    5.6230  -21.1084   25.4774 N   0  0  0  0  0  0  0  0  0  0  0  0
    6.8977  -20.7481   25.0091 C   0  0  0  0  0  0  0  0  0  0  0  0
    7.9077  -21.5003   25.1758 O   0  0  0  0  0  0  0  0  0  0  0  0
    7.1265  -19.4582   24.2979 C   0  0  0  0  0  0  0  0  0  0  0  0
    5.8236  -18.7335   24.2273 C   0  0  0  0  0  0  0  0  0  0  0  0
    5.8071  -17.4431   23.5224 C   0  0  2  0  0  0  0  0  0  0  0  0
    5.8403  -17.5957   22.0655 N   0  0  0  0  0  0  0  0  0  0  0  0
    6.8557  -16.4446   23.9419 C   0  0  0  0  0  0  0  0  0  0  0  0
    7.9192  -16.4552   23.3037 O   0  0  0  0  0  0  0  0  0  0  0  0
    7.5886  -12.7155   27.2484 C   0  0  0  0  0  0  0  0  0  0  0  0
    6.6733  -13.6889   26.4982 C   0  0  1  0  0  0  0  0  0  0  0  0
    5.9746  -12.7502   25.4808 C   0  0  0  0  0  0  0  0  0  0  0  0
    7.5123  -14.6206   25.6219 C   0  0  2  0  0  0  0  0  0  0  0  0
    6.5986  -15.5824   25.0012 N   0  0  0  0  0  0  0  0  0  0  0  0
    8.3902  -15.4654   26.4762 C   0  0  0  0  0  0  0  0  0  0  0  0
    7.8424  -16.2421   27.3003 O   0  0  0  0  0  0  0  0  0  0  0  0
    9.8059  -15.4720   26.4298 N   0  0  0  0  0  0  0  0  0  0  0  0
   10.6147  -16.4034   27.2137 C   0  0  1  0  0  0  0  0  0  0  0  0
   11.8075  -16.7759   26.3804 C   0  0  0  0  0  0  0  0  0  0  0  0
   12.8398  -15.6703   26.2672 C   0  0  0  0  0  0  0  0  0  0  0  0
   13.2408  -15.4338   24.8300 C   0  0  0  0  0  0  0  0  0  0  0  0
   13.9493  -14.4773   24.5499 O   0  0  0  0  0  0  0  0  0  0  0  0
   11.0566  -15.8007   28.4744 C   0  0  0  0  0  0  0  0  0  0  0  0
   11.7562  -16.5383   29.4519 O   0  0  0  0  0  0  0  0  0  0  0  0
   12.8085  -16.3012   23.8378 O   0  0  0  0  0  0  0  0  0  0  0  0
   10.8524  -14.6196   28.7877 O   0  0  0  0  0  0  0  0  0  0  0  0
  2  1  1  0
  2  3  2  0
  4  5  1  0
  4  2  1  0
  6  7  1  6
  6  5  1  0
  8  6  1  0
  9  8  2  0
 11 10  1  1
 11 13  1  0
 12 11  1  0
 13 15  1  0
 13 14  1  1
 14  8  1  0
 15 16  2  0
 17 18  1  0
 17 15  1  0
 18 19  1  6
 19 20  1  0
 20 21  1  0
 21 25  1  0
 21 22  2  0
 23 24  1  0
 23 18  1  0
 26 23  2  0
M  END
$$$$
