QVE.pdb
     RDKit          3D

 26 25  0  0  1  0  0  0  0  0999 V2000
   10.8262  -17.5153   13.5025 N   0  0  0  0  0  0  0  0  0  0  0  0
    9.9289  -16.4401   13.6164 C   0  0  0  0  0  0  0  0  0  0  0  0
    9.6828  -15.6691   12.6373 O   0  0  0  0  0  0  0  0  0  0  0  0
    9.2264  -16.1489   14.8984 C   0  0  0  0  0  0  0  0  0  0  0  0
    9.4697  -17.2917   15.8271 C   0  0  0  0  0  0  0  0  0  0  0  0
    8.8715  -17.2100   17.1680 C   0  0  2  0  0  0  0  0  0  0  0  0
    7.4379  -16.9100   17.1287 N   0  0  0  0  0  0  0  0  0  0  0  0
    9.5481  -16.2781   18.1406 C   0  0  0  0  0  0  0  0  0  0  0  0
   10.7881  -16.3032   18.1626 O   0  0  0  0  0  0  0  0  0  0  0  0
    6.7985  -14.0744   19.6220 C   0  0  0  0  0  0  0  0  0  0  0  0
    8.0816  -13.5686   20.2898 C   0  0  1  0  0  0  0  0  0  0  0  0
    7.7786  -13.8146   21.7905 C   0  0  0  0  0  0  0  0  0  0  0  0
    9.2367  -14.5246   19.9870 C   0  0  2  0  0  0  0  0  0  0  0  0
    8.7773  -15.4574   18.9554 N   0  0  0  0  0  0  0  0  0  0  0  0
    9.4947  -15.3966   21.1646 C   0  0  0  0  0  0  0  0  0  0  0  0
    8.7315  -16.3791   21.3510 O   0  0  0  0  0  0  0  0  0  0  0  0
   10.5454  -15.2132   22.0967 N   0  0  0  0  0  0  0  0  0  0  0  0
   10.7627  -16.1157   23.2256 C   0  0  1  0  0  0  0  0  0  0  0  0
   12.2153  -16.0301   23.5978 C   0  0  0  0  0  0  0  0  0  0  0  0
   13.1502  -16.5559   22.5252 C   0  0  0  0  0  0  0  0  0  0  0  0
   14.5937  -16.4789   22.9644 C   0  0  0  0  0  0  0  0  0  0  0  0
   15.0527  -17.3521   23.6870 O   0  0  0  0  0  0  0  0  0  0  0  0
    9.9315  -15.7471   24.3750 C   0  0  0  0  0  0  0  0  0  0  0  0
    9.6959  -16.6363   25.4441 O   0  0  0  0  0  0  0  0  0  0  0  0
   15.3908  -15.4242   22.5451 O   0  0  0  0  0  0  0  0  0  0  0  0
    9.3699  -14.6501   24.5016 O   0  0  0  0  0  0  0  0  0  0  0  0
  2  1  1  0
  2  3  2  0
  4  5  1  0
  4  2  1  0
  6  7  1  6
  6  5  1  0
  8  6  1  0
  9  8  2  0
 11 10  1  6
 11 13  1  0
 12 11  1  0
 13 15  1  0
 13 14  1  6
 14  8  1  0
 15 16  2  0
 17 18  1  0
 17 15  1  0
 18 19  1  1
 19 20  1  0
 20 21  1  0
 21 25  1  0
 21 22  2  0
 23 24  1  0
 23 18  1  0
 26 23  2  0
M  END
$$$$
