QVE.pdb
     RDKit          3D

 26 25  0  0  1  0  0  0  0  0999 V2000
    5.5301  -19.0581   23.4168 N   0  0  0  0  0  0  0  0  0  0  0  0
    5.6070  -19.0924   22.0143 C   0  0  0  0  0  0  0  0  0  0  0  0
    5.5196  -20.1819   21.3672 O   0  0  0  0  0  0  0  0  0  0  0  0
    5.8023  -17.8476   21.2178 C   0  0  0  0  0  0  0  0  0  0  0  0
    5.7965  -16.6911   22.1612 C   0  0  0  0  0  0  0  0  0  0  0  0
    6.6564  -15.5455   21.8288 C   0  0  2  0  0  0  0  0  0  0  0  0
    7.3710  -15.7253   20.5625 N   0  0  0  0  0  0  0  0  0  0  0  0
    7.6328  -15.1176   22.8945 C   0  0  0  0  0  0  0  0  0  0  0  0
    8.7752  -15.5957   22.8252 O   0  0  0  0  0  0  0  0  0  0  0  0
    6.0158  -13.3686   26.4772 C   0  0  0  0  0  0  0  0  0  0  0  0
    7.1485  -12.6660   25.7213 C   0  0  1  0  0  0  0  0  0  0  0  0
    8.0500  -12.1735   26.8829 C   0  0  0  0  0  0  0  0  0  0  0  0
    8.0126  -13.7017   24.9998 C   0  0  2  0  0  0  0  0  0  0  0  0
    7.2231  -14.2358   23.8877 N   0  0  0  0  0  0  0  0  0  0  0  0
    8.2299  -14.8818   25.8797 C   0  0  0  0  0  0  0  0  0  0  0  0
    7.2439  -15.6217   26.1302 O   0  0  0  0  0  0  0  0  0  0  0  0
    9.4709  -15.2475   26.4564 N   0  0  0  0  0  0  0  0  0  0  0  0
    9.6397  -16.4574   27.2588 C   0  0  1  0  0  0  0  0  0  0  0  0
   10.6952  -17.2947   26.5949 C   0  0  0  0  0  0  0  0  0  0  0  0
   10.1363  -18.4539   25.7918 C   0  0  0  0  0  0  0  0  0  0  0  0
   11.0216  -19.6739   25.8932 C   0  0  0  0  0  0  0  0  0  0  0  0
   12.2118  -19.5380   26.1389 O   0  0  0  0  0  0  0  0  0  0  0  0
   10.0463  -16.1392   28.6304 C   0  0  0  0  0  0  0  0  0  0  0  0
   10.0179  -17.1009   29.6617 O   0  0  0  0  0  0  0  0  0  0  0  0
   10.4826  -20.9388   25.7117 O   0  0  0  0  0  0  0  0  0  0  0  0
   10.4344  -15.0213   28.9973 O   0  0  0  0  0  0  0  0  0  0  0  0
  2  1  1  0
  2  3  2  0
  4  5  1  0
  4  2  1  0
  6  7  1  6
  6  5  1  0
  8  6  1  0
  9  8  2  0
 11 10  1  1
 11 13  1  0
 12 11  1  0
 13 15  1  0
 13 14  1  6
 14  8  1  0
 15 16  2  0
 17 18  1  0
 17 15  1  0
 18 19  1  6
 19 20  1  0
 20 21  1  0
 21 25  1  0
 21 22  2  0
 23 24  1  0
 23 18  1  0
 26 23  2  0
M  END
$$$$
