QVE.pdb
     RDKit          3D

 26 25  0  0  1  0  0  0  0  0999 V2000
    5.5045  -17.5182   20.1606 N   0  0  0  0  0  0  0  0  0  0  0  0
    6.8472  -17.2759   19.8255 C   0  0  0  0  0  0  0  0  0  0  0  0
    7.5447  -18.1337   19.2001 O   0  0  0  0  0  0  0  0  0  0  0  0
    7.5205  -15.9985   20.1957 C   0  0  0  0  0  0  0  0  0  0  0  0
    6.5277  -15.1453   20.9129 C   0  0  0  0  0  0  0  0  0  0  0  0
    6.9608  -13.7982   21.3130 C   0  0  2  0  0  0  0  0  0  0  0  0
    7.5103  -13.0270   20.1950 N   0  0  0  0  0  0  0  0  0  0  0  0
    7.9108  -13.7265   22.4812 C   0  0  0  0  0  0  0  0  0  0  0  0
    9.1217  -13.7640   22.2152 O   0  0  0  0  0  0  0  0  0  0  0  0
    6.8623  -11.5716   25.7938 C   0  0  0  0  0  0  0  0  0  0  0  0
    7.2115  -13.0311   26.1036 C   0  0  1  0  0  0  0  0  0  0  0  0
    5.8664  -13.7483   25.8190 C   0  0  0  0  0  0  0  0  0  0  0  0
    8.1540  -13.5791   25.0307 C   0  0  2  0  0  0  0  0  0  0  0  0
    7.4059  -13.6314   23.7726 N   0  0  0  0  0  0  0  0  0  0  0  0
    8.4707  -15.0049   25.3149 C   0  0  0  0  0  0  0  0  0  0  0  0
    7.6654  -15.8816   24.9082 O   0  0  0  0  0  0  0  0  0  0  0  0
    9.6210  -15.4596   26.0053 N   0  0  0  0  0  0  0  0  0  0  0  0
    9.9482  -16.8775   26.1411 C   0  0  1  0  0  0  0  0  0  0  0  0
   11.2263  -17.1189   25.3901 C   0  0  0  0  0  0  0  0  0  0  0  0
   11.6995  -18.5592   25.4414 C   0  0  0  0  0  0  0  0  0  0  0  0
   13.0354  -18.7266   24.7561 C   0  0  0  0  0  0  0  0  0  0  0  0
   13.5437  -19.8366   24.6861 O   0  0  0  0  0  0  0  0  0  0  0  0
   10.1173  -17.2569   27.5466 C   0  0  0  0  0  0  0  0  0  0  0  0
   10.2116  -18.6046   27.9519 O   0  0  0  0  0  0  0  0  0  0  0  0
   13.6762  -17.6256   24.2077 O   0  0  0  0  0  0  0  0  0  0  0  0
   10.1831  -16.4461   28.4809 O   0  0  0  0  0  0  0  0  0  0  0  0
  2  1  1  0
  2  3  2  0
  4  5  1  0
  4  2  1  0
  6  7  1  6
  6  5  1  0
  8  6  1  0
  9  8  2  0
 11 10  1  6
 11 13  1  0
 12 11  1  0
 13 15  1  0
 13 14  1  6
 14  8  1  0
 15 16  2  0
 17 18  1  0
 17 15  1  0
 18 19  1  6
 19 20  1  0
 20 21  1  0
 21 25  1  0
 21 22  2  0
 23 24  1  0
 23 18  1  0
 26 23  2  0
M  END
$$$$
