QVE.pdb
     RDKit          3D

 26 25  0  0  1  0  0  0  0  0999 V2000
    8.7928  -18.4560   13.6814 N   0  0  0  0  0  0  0  0  0  0  0  0
    7.6488  -18.1179   14.4236 C   0  0  0  0  0  0  0  0  0  0  0  0
    6.6798  -17.4815   13.9043 O   0  0  0  0  0  0  0  0  0  0  0  0
    7.5213  -18.4859   15.8625 C   0  0  0  0  0  0  0  0  0  0  0  0
    8.4138  -17.5849   16.6494 C   0  0  0  0  0  0  0  0  0  0  0  0
    8.3826  -17.7161   18.1137 C   0  0  2  0  0  0  0  0  0  0  0  0
    7.0189  -17.7842   18.6450 N   0  0  0  0  0  0  0  0  0  0  0  0
    9.1676  -16.6887   18.8887 C   0  0  0  0  0  0  0  0  0  0  0  0
   10.3669  -16.5691   18.5955 O   0  0  0  0  0  0  0  0  0  0  0  0
    7.7105  -13.2870   19.4993 C   0  0  0  0  0  0  0  0  0  0  0  0
    8.1112  -13.7923   20.8893 C   0  0  1  0  0  0  0  0  0  0  0  0
    6.8140  -14.5014   21.3574 C   0  0  0  0  0  0  0  0  0  0  0  0
    9.1243  -14.9307   20.7564 C   0  0  2  0  0  0  0  0  0  0  0  0
    8.5357  -15.9434   19.8771 N   0  0  0  0  0  0  0  0  0  0  0  0
    9.2705  -15.6337   22.0596 C   0  0  0  0  0  0  0  0  0  0  0  0
    8.3262  -16.3715   22.4423 O   0  0  0  0  0  0  0  0  0  0  0  0
   10.4013  -15.5452   22.9081 N   0  0  0  0  0  0  0  0  0  0  0  0
   11.0795  -16.7250   23.4412 C   0  0  1  0  0  0  0  0  0  0  0  0
   11.5765  -17.5258   22.2717 C   0  0  0  0  0  0  0  0  0  0  0  0
   12.2872  -18.8057   22.6689 C   0  0  0  0  0  0  0  0  0  0  0  0
   11.3392  -19.9819   22.6850 C   0  0  0  0  0  0  0  0  0  0  0  0
   11.1307  -20.6041   21.6531 O   0  0  0  0  0  0  0  0  0  0  0  0
   12.2042  -16.3533   24.3041 C   0  0  0  0  0  0  0  0  0  0  0  0
   12.8690  -15.1160   24.1758 O   0  0  0  0  0  0  0  0  0  0  0  0
   10.7141  -20.3526   23.8662 O   0  0  0  0  0  0  0  0  0  0  0  0
   12.6637  -17.0797   25.1963 O   0  0  0  0  0  0  0  0  0  0  0  0
  2  1  1  0
  2  3  2  0
  4  5  1  0
  4  2  1  0
  6  7  1  1
  6  5  1  0
  8  6  1  0
  9  8  2  0
 11 10  1  6
 11 13  1  0
 12 11  1  0
 13 15  1  0
 13 14  1  6
 14  8  1  0
 15 16  2  0
 17 18  1  0
 17 15  1  0
 18 19  1  6
 19 20  1  0
 20 21  1  0
 21 25  1  0
 21 22  2  0
 23 24  1  0
 23 18  1  0
 26 23  2  0
M  END
$$$$
