QVE.pdb
     RDKit          3D

 26 25  0  0  1  0  0  0  0  0999 V2000
    8.0074  -17.2308   18.5768 N   0  0  0  0  0  0  0  0  0  0  0  0
    6.7273  -17.5567   19.0553 C   0  0  0  0  0  0  0  0  0  0  0  0
    5.8841  -18.1785   18.3369 O   0  0  0  0  0  0  0  0  0  0  0  0
    6.2948  -17.1805   20.4313 C   0  0  0  0  0  0  0  0  0  0  0  0
    7.4089  -16.4231   21.0736 C   0  0  0  0  0  0  0  0  0  0  0  0
    7.1665  -15.0081   21.3923 C   0  0  2  0  0  0  0  0  0  0  0  0
    7.2027  -14.1486   20.2064 N   0  0  0  0  0  0  0  0  0  0  0  0
    8.0398  -14.4110   22.4662 C   0  0  0  0  0  0  0  0  0  0  0  0
    9.2514  -14.3276   22.2140 O   0  0  0  0  0  0  0  0  0  0  0  0
    6.1585  -13.8676   26.3473 C   0  0  0  0  0  0  0  0  0  0  0  0
    7.1067  -12.8256   25.7446 C   0  0  1  0  0  0  0  0  0  0  0  0
    7.9095  -12.3669   26.9895 C   0  0  0  0  0  0  0  0  0  0  0  0
    8.1518  -13.5187   24.8687 C   0  0  2  0  0  0  0  0  0  0  0  0
    7.4695  -13.9967   23.6641 N   0  0  0  0  0  0  0  0  0  0  0  0
    8.6201  -14.7666   25.5302 C   0  0  0  0  0  0  0  0  0  0  0  0
    7.7966  -15.7077   25.6673 O   0  0  0  0  0  0  0  0  0  0  0  0
    9.9330  -14.9857   26.0147 N   0  0  0  0  0  0  0  0  0  0  0  0
   10.3467  -16.2484   26.6235 C   0  0  1  0  0  0  0  0  0  0  0  0
   11.7374  -16.5469   26.1409 C   0  0  0  0  0  0  0  0  0  0  0  0
   11.8169  -16.8323   24.6532 C   0  0  0  0  0  0  0  0  0  0  0  0
   13.1413  -16.3905   24.0760 C   0  0  0  0  0  0  0  0  0  0  0  0
   13.3721  -16.5681   22.8883 O   0  0  0  0  0  0  0  0  0  0  0  0
   10.3340  -16.1681   28.0868 C   0  0  0  0  0  0  0  0  0  0  0  0
   10.5793  -17.2939   28.9003 O   0  0  0  0  0  0  0  0  0  0  0  0
   14.0855  -15.7843   24.8912 O   0  0  0  0  0  0  0  0  0  0  0  0
   10.1044  -15.1299   28.7227 O   0  0  0  0  0  0  0  0  0  0  0  0
  2  1  1  0
  2  3  2  0
  4  5  1  0
  4  2  1  0
  6  7  1  6
  6  5  1  0
  8  6  1  0
  9  8  2  0
 11 10  1  1
 11 13  1  0
 12 11  1  0
 13 15  1  0
 13 14  1  6
 14  8  1  0
 15 16  2  0
 17 18  1  0
 17 15  1  0
 18 19  1  6
 19 20  1  0
 20 21  1  0
 21 25  1  0
 21 22  2  0
 23 24  1  0
 23 18  1  0
 26 23  2  0
M  END
$$$$
