WET.pdb
     RDKit          3D

 31 32  0  0  1  0  0  0  0  0999 V2000
   26.9755  -18.8078   -9.4533 N   0  0  0  0  0  0  0  0  0  0  0  0
   27.0571  -20.1512   -9.9137 C   0  0  1  0  0  0  0  0  0  0  0  0
   27.0319  -21.1200   -8.7878 C   0  0  0  0  0  0  0  0  0  0  0  0
   28.1880  -20.8677   -7.8928 C   0  0  0  0  0  0  0  0  0  0  0  0
   29.5373  -20.9539   -8.2347 C   0  0  0  0  0  0  0  0  0  0  0  0
   30.2965  -20.6232   -7.1861 N   0  0  0  0  0  0  0  0  0  0  0  0
   29.4772  -20.3250   -6.1710 C   0  0  0  0  0  0  0  0  0  0  0  0
   29.7528  -19.9330   -4.8707 C   0  0  0  0  0  0  0  0  0  0  0  0
   28.7129  -19.6914   -3.9982 C   0  0  0  0  0  0  0  0  0  0  0  0
   27.3952  -19.8236   -4.3643 C   0  0  0  0  0  0  0  0  0  0  0  0
   27.1319  -20.2174   -5.6726 C   0  0  0  0  0  0  0  0  0  0  0  0
   28.1521  -20.4676   -6.5769 C   0  0  0  0  0  0  0  0  0  0  0  0
   25.9975  -20.3987  -10.9239 C   0  0  0  0  0  0  0  0  0  0  0  0
   24.8192  -19.9998  -10.7445 O   0  0  0  0  0  0  0  0  0  0  0  0
   26.2524  -21.0965  -12.1437 N   0  0  0  0  0  0  0  0  0  0  0  0
   25.3850  -21.0464  -13.3003 C   0  0  1  0  0  0  0  0  0  0  0  0
   26.0356  -21.8329  -14.4072 C   0  0  0  0  0  0  0  0  0  0  0  0
   25.2667  -21.6853  -15.6894 C   0  0  0  0  0  0  0  0  0  0  0  0
   25.9951  -22.3086  -16.8380 C   0  0  0  0  0  0  0  0  0  0  0  0
   27.0920  -22.8779  -16.5911 O   0  0  0  0  0  0  0  0  0  0  0  0
   24.0297  -21.5737  -13.0507 C   0  0  0  0  0  0  0  0  0  0  0  0
   23.8089  -22.0936  -11.9343 O   0  0  0  0  0  0  0  0  0  0  0  0
   25.4678  -22.2504  -18.1090 O   0  0  0  0  0  0  0  0  0  0  0  0
   21.9970  -21.3194  -11.3570 C   0  0  0  0  0  0  0  0  0  0  0  0
   21.1064  -21.0726  -12.5798 C   0  0  1  0  0  0  0  0  0  0  0  0
   21.1846  -19.7280  -12.9482 O   0  0  0  0  0  0  0  0  0  0  0  0
   21.6005  -21.8783  -13.7624 C   0  0  2  0  0  0  0  0  0  0  0  0
   22.9785  -21.5289  -13.9881 N   0  0  0  0  0  0  0  0  0  0  0  0
   20.8094  -21.6766  -14.9816 C   0  0  0  0  0  0  0  0  0  0  0  0
   19.4863  -22.1439  -15.0999 O   0  0  0  0  0  0  0  0  0  0  0  0
   21.2760  -21.0797  -15.9712 O   0  0  0  0  0  0  0  0  0  0  0  0
  2  1  1  1
  2  3  1  0
  3  4  1  0
  4  5  2  0
  5  6  1  0
  7  6  1  0
  8  7  2  0
  9  8  1  0
 10 11  1  0
 10  9  2  0
 11 12  2  0
 12  4  1  0
 12  7  1  0
 13 14  2  0
 13  2  1  0
 15 13  1  0
 16 15  1  0
 16 17  1  6
 17 18  1  0
 18 19  1  0
 19 23  1  0
 20 19  2  0
 21 16  1  0
 22 21  2  0
 25 24  1  1
 25 27  1  0
 25 26  1  0
 27 28  1  6
 28 21  1  0
 29 27  1  0
 29 30  1  0
 31 29  2  0
M  END
$$$$
