WET.pdb
     RDKit          3D

 31 32  0  0  1  0  0  0  0  0999 V2000
   24.5417  -19.9779  -11.6687 N   0  0  0  0  0  0  0  0  0  0  0  0
   25.7901  -20.6146  -11.9127 C   0  0  1  0  0  0  0  0  0  0  0  0
   26.1020  -21.6285  -10.8728 C   0  0  0  0  0  0  0  0  0  0  0  0
   26.4285  -20.9440   -9.5975 C   0  0  0  0  0  0  0  0  0  0  0  0
   25.5185  -20.4574   -8.6594 C   0  0  0  0  0  0  0  0  0  0  0  0
   26.1717  -19.9347   -7.6176 N   0  0  0  0  0  0  0  0  0  0  0  0
   27.4821  -20.0676   -7.8531 C   0  0  0  0  0  0  0  0  0  0  0  0
   28.5804  -19.6862   -7.0990 C   0  0  0  0  0  0  0  0  0  0  0  0
   29.8509  -19.9306   -7.5758 C   0  0  0  0  0  0  0  0  0  0  0  0
   30.0818  -20.5442   -8.7832 C   0  0  0  0  0  0  0  0  0  0  0  0
   28.9707  -20.9225   -9.5305 C   0  0  0  0  0  0  0  0  0  0  0  0
   27.6793  -20.6937   -9.0820 C   0  0  0  0  0  0  0  0  0  0  0  0
   25.8098  -21.1643  -13.2919 C   0  0  0  0  0  0  0  0  0  0  0  0
   24.7489  -21.5030  -13.8743 O   0  0  0  0  0  0  0  0  0  0  0  0
   27.0213  -21.3384  -14.0280 N   0  0  0  0  0  0  0  0  0  0  0  0
   27.0724  -21.7265  -15.4206 C   0  0  1  0  0  0  0  0  0  0  0  0
   28.4631  -21.4561  -15.9306 C   0  0  0  0  0  0  0  0  0  0  0  0
   28.5729  -21.8012  -17.3886 C   0  0  0  0  0  0  0  0  0  0  0  0
   28.0072  -20.7173  -18.2507 C   0  0  0  0  0  0  0  0  0  0  0  0
   27.9425  -19.5582  -17.7603 O   0  0  0  0  0  0  0  0  0  0  0  0
   26.7264  -23.1413  -15.6570 C   0  0  0  0  0  0  0  0  0  0  0  0
   27.5162  -24.0092  -15.2231 O   0  0  0  0  0  0  0  0  0  0  0  0
   27.5794  -20.9984  -19.5294 O   0  0  0  0  0  0  0  0  0  0  0  0
   24.0773  -25.3052  -14.3929 C   0  0  0  0  0  0  0  0  0  0  0  0
   23.8579  -25.1749  -15.9042 C   0  0  1  0  0  0  0  0  0  0  0  0
   23.0490  -24.0664  -16.1629 O   0  0  0  0  0  0  0  0  0  0  0  0
   25.1752  -24.9273  -16.6081 C   0  0  2  0  0  0  0  0  0  0  0  0
   25.5698  -23.5694  -16.3386 N   0  0  0  0  0  0  0  0  0  0  0  0
   25.1235  -25.1737  -18.0536 C   0  0  0  0  0  0  0  0  0  0  0  0
   25.0490  -26.4745  -18.5878 O   0  0  0  0  0  0  0  0  0  0  0  0
   25.1434  -24.2379  -18.8765 O   0  0  0  0  0  0  0  0  0  0  0  0
  2  1  1  1
  2  3  1  0
  3  4  1  0
  4  5  2  0
  5  6  1  0
  7  6  1  0
  8  7  2  0
  9  8  1  0
 10 11  1  0
 10  9  2  0
 11 12  2  0
 12  4  1  0
 12  7  1  0
 13 14  2  0
 13  2  1  0
 15 13  1  0
 16 15  1  0
 16 17  1  1
 17 18  1  0
 18 19  1  0
 19 23  1  0
 20 19  2  0
 21 16  1  0
 22 21  2  0
 25 24  1  1
 25 27  1  0
 25 26  1  0
 27 28  1  6
 28 21  1  0
 29 27  1  0
 29 30  1  0
 31 29  2  0
M  END
$$$$
