WET.pdb
     RDKit          3D

 31 32  0  0  1  0  0  0  0  0999 V2000
   24.8647  -20.8822   -8.4091 N   0  0  0  0  0  0  0  0  0  0  0  0
   25.9834  -20.4082   -9.1487 C   0  0  1  0  0  0  0  0  0  0  0  0
   27.2667  -20.8678   -8.5581 C   0  0  0  0  0  0  0  0  0  0  0  0
   27.5522  -20.0880   -7.3286 C   0  0  0  0  0  0  0  0  0  0  0  0
   26.9284  -18.9055   -6.9316 C   0  0  0  0  0  0  0  0  0  0  0  0
   27.4150  -18.5054   -5.7533 N   0  0  0  0  0  0  0  0  0  0  0  0
   28.3392  -19.3955   -5.3736 C   0  0  0  0  0  0  0  0  0  0  0  0
   29.1410  -19.4417   -4.2442 C   0  0  0  0  0  0  0  0  0  0  0  0
   30.0380  -20.4772   -4.0888 C   0  0  0  0  0  0  0  0  0  0  0  0
   30.1760  -21.4810   -5.0168 C   0  0  0  0  0  0  0  0  0  0  0  0
   29.3649  -21.4232   -6.1460 C   0  0  0  0  0  0  0  0  0  0  0  0
   28.4515  -20.3979   -6.3346 C   0  0  0  0  0  0  0  0  0  0  0  0
   25.8305  -20.7782  -10.5786 C   0  0  0  0  0  0  0  0  0  0  0  0
   26.4754  -21.7345  -11.0776 O   0  0  0  0  0  0  0  0  0  0  0  0
   24.9520  -20.0769  -11.4597 N   0  0  0  0  0  0  0  0  0  0  0  0
   24.7758  -20.4068  -12.8571 C   0  0  1  0  0  0  0  0  0  0  0  0
   23.3118  -20.2819  -13.1861 C   0  0  0  0  0  0  0  0  0  0  0  0
   22.5167  -21.3532  -12.4953 C   0  0  0  0  0  0  0  0  0  0  0  0
   21.2758  -20.7965  -11.8721 C   0  0  0  0  0  0  0  0  0  0  0  0
   21.0453  -19.5679  -12.0324 O   0  0  0  0  0  0  0  0  0  0  0  0
   25.5617  -19.5574  -13.7725 C   0  0  0  0  0  0  0  0  0  0  0  0
   25.5278  -18.3209  -13.5850 O   0  0  0  0  0  0  0  0  0  0  0  0
   20.4314  -21.6145  -11.1546 O   0  0  0  0  0  0  0  0  0  0  0  0
   29.1622  -19.7854  -14.2992 C   0  0  0  0  0  0  0  0  0  0  0  0
   28.5588  -19.8959  -15.7039 C   0  0  1  0  0  0  0  0  0  0  0  0
   28.4147  -21.2427  -16.0434 O   0  0  0  0  0  0  0  0  0  0  0  0
   27.1723  -19.2885  -15.7307 C   0  0  2  0  0  0  0  0  0  0  0  0
   26.3401  -20.0519  -14.8380 N   0  0  0  0  0  0  0  0  0  0  0  0
   26.5802  -19.2365  -17.0722 C   0  0  0  0  0  0  0  0  0  0  0  0
   27.2007  -18.5552  -18.1370 O   0  0  0  0  0  0  0  0  0  0  0  0
   25.4967  -19.7959  -17.3297 O   0  0  0  0  0  0  0  0  0  0  0  0
  2  1  1  1
  2  3  1  0
  3  4  1  0
  4  5  2  0
  5  6  1  0
  7  6  1  0
  8  7  2  0
  9  8  1  0
 10 11  1  0
 10  9  2  0
 11 12  2  0
 12  4  1  0
 12  7  1  0
 13 14  2  0
 13  2  1  0
 15 13  1  0
 16 15  1  0
 16 17  1  6
 17 18  1  0
 18 19  1  0
 19 23  1  0
 20 19  2  0
 21 16  1  0
 22 21  2  0
 25 24  1  1
 25 27  1  0
 25 26  1  0
 27 28  1  1
 28 21  1  0
 29 27  1  0
 29 30  1  0
 31 29  2  0
M  END
$$$$
