WET.pdb
     RDKit          3D

 31 32  0  0  1  0  0  0  0  0999 V2000
   18.8542  -29.8681  -10.9079 N   0  0  0  0  0  0  0  0  0  0  0  0
   20.2598  -29.6521  -10.9367 C   0  0  1  0  0  0  0  0  0  0  0  0
   20.6346  -28.3849  -10.2581 C   0  0  0  0  0  0  0  0  0  0  0  0
   20.0933  -27.2353  -11.0241 C   0  0  0  0  0  0  0  0  0  0  0  0
   19.0711  -26.3763  -10.6213 C   0  0  0  0  0  0  0  0  0  0  0  0
   18.8732  -25.4350  -11.5488 N   0  0  0  0  0  0  0  0  0  0  0  0
   19.7387  -25.6591  -12.5443 C   0  0  0  0  0  0  0  0  0  0  0  0
   19.9399  -24.9840  -13.7377 C   0  0  0  0  0  0  0  0  0  0  0  0
   20.9050  -25.4285  -14.6163 C   0  0  0  0  0  0  0  0  0  0  0  0
   21.6888  -26.5274  -14.3592 C   0  0  0  0  0  0  0  0  0  0  0  0
   21.4771  -27.1961  -13.1574 C   0  0  0  0  0  0  0  0  0  0  0  0
   20.5167  -26.7768  -12.2503 C   0  0  0  0  0  0  0  0  0  0  0  0
   20.9596  -30.8406  -10.3868 C   0  0  0  0  0  0  0  0  0  0  0  0
   20.4772  -31.4967   -9.4295 O   0  0  0  0  0  0  0  0  0  0  0  0
   22.2071  -31.3018  -10.9074 N   0  0  0  0  0  0  0  0  0  0  0  0
   22.9268  -32.4444  -10.3886 C   0  0  1  0  0  0  0  0  0  0  0  0
   24.0575  -32.7532  -11.3338 C   0  0  0  0  0  0  0  0  0  0  0  0
   24.8206  -33.9633  -10.8750 C   0  0  0  0  0  0  0  0  0  0  0  0
   24.4547  -35.1748  -11.6729 C   0  0  0  0  0  0  0  0  0  0  0  0
   24.9813  -36.2706  -11.3411 O   0  0  0  0  0  0  0  0  0  0  0  0
   23.4616  -32.2430   -9.0283 C   0  0  0  0  0  0  0  0  0  0  0  0
   23.9785  -31.1334   -8.7694 O   0  0  0  0  0  0  0  0  0  0  0  0
   23.5733  -35.0729  -12.7263 O   0  0  0  0  0  0  0  0  0  0  0  0
   23.1087  -35.3822   -6.0765 C   0  0  0  0  0  0  0  0  0  0  0  0
   22.9277  -33.8900   -5.7769 C   0  0  1  0  0  0  0  0  0  0  0  0
   23.2862  -33.6348   -4.4517 O   0  0  0  0  0  0  0  0  0  0  0  0
   23.8512  -33.0626   -6.6456 C   0  0  2  0  0  0  0  0  0  0  0  0
   23.4269  -33.2188   -8.0123 N   0  0  0  0  0  0  0  0  0  0  0  0
   25.2676  -33.4169   -6.5000 C   0  0  0  0  0  0  0  0  0  0  0  0
   26.0069  -33.9890   -7.5531 O   0  0  0  0  0  0  0  0  0  0  0  0
   25.8818  -33.2262   -5.4325 O   0  0  0  0  0  0  0  0  0  0  0  0
  2  1  1  1
  2  3  1  0
  3  4  1  0
  4  5  2  0
  5  6  1  0
  7  6  1  0
  8  7  2  0
  9  8  1  0
 10 11  1  0
 10  9  2  0
 11 12  2  0
 12  4  1  0
 12  7  1  0
 13 14  2  0
 13  2  1  0
 15 13  1  0
 16 15  1  0
 16 17  1  6
 17 18  1  0
 18 19  1  0
 19 23  1  0
 20 19  2  0
 21 16  1  0
 22 21  2  0
 25 24  1  6
 25 27  1  0
 25 26  1  0
 27 28  1  6
 28 21  1  0
 29 27  1  0
 29 30  1  0
 31 29  2  0
M  END
$$$$
