WET.pdb
     RDKit          3D

 31 32  0  0  1  0  0  0  0  0999 V2000
   28.0270  -21.2957  -14.2774 N   0  0  0  0  0  0  0  0  0  0  0  0
   27.0312  -21.3276  -13.2621 C   0  0  1  0  0  0  0  0  0  0  0  0
   27.0775  -20.1122  -12.4093 C   0  0  0  0  0  0  0  0  0  0  0  0
   27.9230  -20.3756  -11.2188 C   0  0  0  0  0  0  0  0  0  0  0  0
   29.2965  -20.6175  -11.2128 C   0  0  0  0  0  0  0  0  0  0  0  0
   29.7270  -20.7764   -9.9580 N   0  0  0  0  0  0  0  0  0  0  0  0
   28.6703  -20.6449   -9.1476 C   0  0  0  0  0  0  0  0  0  0  0  0
   28.5721  -20.7279   -7.7678 C   0  0  0  0  0  0  0  0  0  0  0  0
   27.3446  -20.5626   -7.1621 C   0  0  0  0  0  0  0  0  0  0  0  0
   26.1961  -20.3158   -7.8747 C   0  0  0  0  0  0  0  0  0  0  0  0
   26.3082  -20.2346   -9.2593 C   0  0  0  0  0  0  0  0  0  0  0  0
   27.5259  -20.3944   -9.9017 C   0  0  0  0  0  0  0  0  0  0  0  0
   25.6996  -21.5632  -13.8751 C   0  0  0  0  0  0  0  0  0  0  0  0
   25.2214  -20.7675  -14.7223 O   0  0  0  0  0  0  0  0  0  0  0  0
   24.8940  -22.6945  -13.5415 N   0  0  0  0  0  0  0  0  0  0  0  0
   23.6041  -22.9716  -14.1349 C   0  0  1  0  0  0  0  0  0  0  0  0
   23.3887  -24.4616  -14.1106 C   0  0  0  0  0  0  0  0  0  0  0  0
   22.0503  -24.8165  -14.6933 C   0  0  0  0  0  0  0  0  0  0  0  0
   21.8647  -26.2989  -14.7728 C   0  0  0  0  0  0  0  0  0  0  0  0
   22.8244  -27.0260  -14.4004 O   0  0  0  0  0  0  0  0  0  0  0  0
   22.4800  -22.2991  -13.4557 C   0  0  0  0  0  0  0  0  0  0  0  0
   22.5120  -22.2404  -12.2063 O   0  0  0  0  0  0  0  0  0  0  0  0
   20.6811  -26.8271  -15.2385 O   0  0  0  0  0  0  0  0  0  0  0  0
   21.2333  -18.9396  -13.2016 C   0  0  0  0  0  0  0  0  0  0  0  0
   20.1081  -19.7199  -13.8904 C   0  0  1  0  0  0  0  0  0  0  0  0
   20.2664  -19.6391  -15.2754 O   0  0  0  0  0  0  0  0  0  0  0  0
   20.1865  -21.1876  -13.5274 C   0  0  2  0  0  0  0  0  0  0  0  0
   21.3805  -21.7256  -14.1250 N   0  0  0  0  0  0  0  0  0  0  0  0
   19.0085  -21.9582  -13.9414 C   0  0  0  0  0  0  0  0  0  0  0  0
   17.7501  -21.7838  -13.3340 O   0  0  0  0  0  0  0  0  0  0  0  0
   19.0701  -22.8054  -14.8534 O   0  0  0  0  0  0  0  0  0  0  0  0
  2  1  1  6
  2  3  1  0
  3  4  1  0
  4  5  2  0
  5  6  1  0
  7  6  1  0
  8  7  2  0
  9  8  1  0
 10 11  1  0
 10  9  2  0
 11 12  2  0
 12  4  1  0
 12  7  1  0
 13 14  2  0
 13  2  1  0
 15 13  1  0
 16 15  1  0
 16 17  1  1
 17 18  1  0
 18 19  1  0
 19 23  1  0
 20 19  2  0
 21 16  1  0
 22 21  2  0
 25 24  1  1
 25 27  1  0
 25 26  1  0
 27 28  1  6
 28 21  1  0
 29 27  1  0
 29 30  1  0
 31 29  2  0
M  END
$$$$
