WET.pdb
     RDKit          3D

 31 32  0  0  1  0  0  0  0  0999 V2000
   27.7475  -21.8091  -13.5952 N   0  0  0  0  0  0  0  0  0  0  0  0
   26.6434  -21.4295  -12.7826 C   0  0  1  0  0  0  0  0  0  0  0  0
   26.9244  -20.1855  -12.0207 C   0  0  0  0  0  0  0  0  0  0  0  0
   27.9476  -20.4625  -10.9825 C   0  0  0  0  0  0  0  0  0  0  0  0
   29.3070  -20.6893  -11.1958 C   0  0  0  0  0  0  0  0  0  0  0  0
   29.9294  -20.8674  -10.0270 N   0  0  0  0  0  0  0  0  0  0  0  0
   29.0113  -20.7633   -9.0592 C   0  0  0  0  0  0  0  0  0  0  0  0
   29.1305  -20.8738   -7.6830 C   0  0  0  0  0  0  0  0  0  0  0  0
   28.0114  -20.7337   -6.8899 C   0  0  0  0  0  0  0  0  0  0  0  0
   26.7637  -20.4860   -7.4093 C   0  0  0  0  0  0  0  0  0  0  0  0
   26.6576  -20.3770   -8.7925 C   0  0  0  0  0  0  0  0  0  0  0  0
   27.7612  -20.5109   -9.6202 C   0  0  0  0  0  0  0  0  0  0  0  0
   25.4168  -21.3427  -13.6148 C   0  0  0  0  0  0  0  0  0  0  0  0
   25.4171  -20.7372  -14.7162 O   0  0  0  0  0  0  0  0  0  0  0  0
   24.1795  -21.9349  -13.2165 N   0  0  0  0  0  0  0  0  0  0  0  0
   22.9589  -21.8537  -13.9886 C   0  0  1  0  0  0  0  0  0  0  0  0
   22.2349  -23.1674  -13.8582 C   0  0  0  0  0  0  0  0  0  0  0  0
   21.0993  -23.2501  -14.8382 C   0  0  0  0  0  0  0  0  0  0  0  0
   20.4278  -24.5860  -14.7848 C   0  0  0  0  0  0  0  0  0  0  0  0
   21.0428  -25.5664  -15.2836 O   0  0  0  0  0  0  0  0  0  0  0  0
   22.0655  -20.7546  -13.5752 C   0  0  0  0  0  0  0  0  0  0  0  0
   21.9441  -20.5394  -12.3487 O   0  0  0  0  0  0  0  0  0  0  0  0
   19.1841  -24.7160  -14.2075 O   0  0  0  0  0  0  0  0  0  0  0  0
   21.7775  -17.0776  -15.1749 C   0  0  0  0  0  0  0  0  0  0  0  0
   20.4614  -17.8607  -15.2394 C   0  0  1  0  0  0  0  0  0  0  0  0
   20.3922  -18.5550  -16.4489 O   0  0  0  0  0  0  0  0  0  0  0  0
   20.4112  -18.8978  -14.1377 C   0  0  2  0  0  0  0  0  0  0  0  0
   21.3452  -19.9408  -14.4722 N   0  0  0  0  0  0  0  0  0  0  0  0
   19.0717  -19.4544  -13.9163 C   0  0  0  0  0  0  0  0  0  0  0  0
   18.0072  -18.6701  -13.4322 O   0  0  0  0  0  0  0  0  0  0  0  0
   18.8160  -20.6520  -14.1482 O   0  0  0  0  0  0  0  0  0  0  0  0
  2  1  1  6
  2  3  1  0
  3  4  1  0
  4  5  2  0
  5  6  1  0
  7  6  1  0
  8  7  2  0
  9  8  1  0
 10 11  1  0
 10  9  2  0
 11 12  2  0
 12  4  1  0
 12  7  1  0
 13 14  2  0
 13  2  1  0
 15 13  1  0
 16 15  1  0
 16 17  1  1
 17 18  1  0
 18 19  1  0
 19 23  1  0
 20 19  2  0
 21 16  1  0
 22 21  2  0
 25 24  1  6
 25 27  1  0
 25 26  1  0
 27 28  1  6
 28 21  1  0
 29 27  1  0
 29 30  1  0
 31 29  2  0
M  END
$$$$
