WET.pdb
     RDKit          3D

 31 32  0  0  1  0  0  0  0  0999 V2000
   28.2574  -21.4277  -14.2975 N   0  0  0  0  0  0  0  0  0  0  0  0
   27.1765  -21.0581  -13.4500 C   0  0  1  0  0  0  0  0  0  0  0  0
   27.4658  -19.8053  -12.7058 C   0  0  0  0  0  0  0  0  0  0  0  0
   28.2217  -20.1277  -11.4705 C   0  0  0  0  0  0  0  0  0  0  0  0
   29.6088  -20.1617  -11.3307 C   0  0  0  0  0  0  0  0  0  0  0  0
   29.9338  -20.4536  -10.0679 N   0  0  0  0  0  0  0  0  0  0  0  0
   28.7953  -20.6112   -9.3828 C   0  0  0  0  0  0  0  0  0  0  0  0
   28.5766  -20.9273   -8.0514 C   0  0  0  0  0  0  0  0  0  0  0  0
   27.2850  -21.0443   -7.5834 C   0  0  0  0  0  0  0  0  0  0  0  0
   26.1874  -20.8594   -8.3889 C   0  0  0  0  0  0  0  0  0  0  0  0
   26.4206  -20.5423   -9.7236 C   0  0  0  0  0  0  0  0  0  0  0  0
   27.7053  -20.4154  -10.2281 C   0  0  0  0  0  0  0  0  0  0  0  0
   25.9210  -20.9939  -14.2401 C   0  0  0  0  0  0  0  0  0  0  0  0
   25.8908  -20.4528  -15.3740 O   0  0  0  0  0  0  0  0  0  0  0  0
   24.6891  -21.5367  -13.7629 N   0  0  0  0  0  0  0  0  0  0  0  0
   23.4690  -21.5770  -14.5391 C   0  0  1  0  0  0  0  0  0  0  0  0
   22.9358  -22.9846  -14.4992 C   0  0  0  0  0  0  0  0  0  0  0  0
   23.8821  -23.9327  -15.1794 C   0  0  0  0  0  0  0  0  0  0  0  0
   23.3561  -25.3331  -15.1656 C   0  0  0  0  0  0  0  0  0  0  0  0
   23.7634  -26.0985  -14.2510 O   0  0  0  0  0  0  0  0  0  0  0  0
   22.4308  -20.6422  -14.0642 C   0  0  0  0  0  0  0  0  0  0  0  0
   22.3249  -20.4758  -12.8287 O   0  0  0  0  0  0  0  0  0  0  0  0
   22.4609  -25.7487  -16.1264 O   0  0  0  0  0  0  0  0  0  0  0  0
   21.8455  -17.0633  -15.5218 C   0  0  0  0  0  0  0  0  0  0  0  0
   20.5457  -17.8742  -15.5714 C   0  0  1  0  0  0  0  0  0  0  0  0
   20.4408  -18.5093  -16.8105 O   0  0  0  0  0  0  0  0  0  0  0  0
   20.5655  -18.9654  -14.5222 C   0  0  2  0  0  0  0  0  0  0  0  0
   21.5570  -19.9333  -14.9125 N   0  0  0  0  0  0  0  0  0  0  0  0
   19.2631  -19.6110  -14.3224 C   0  0  0  0  0  0  0  0  0  0  0  0
   18.1631  -18.9216  -13.7769 O   0  0  0  0  0  0  0  0  0  0  0  0
   19.0721  -20.8040  -14.6282 O   0  0  0  0  0  0  0  0  0  0  0  0
  2  1  1  6
  2  3  1  0
  3  4  1  0
  4  5  2  0
  5  6  1  0
  7  6  1  0
  8  7  2  0
  9  8  1  0
 10 11  1  0
 10  9  2  0
 11 12  2  0
 12  4  1  0
 12  7  1  0
 13 14  2  0
 13  2  1  0
 15 13  1  0
 16 15  1  0
 16 17  1  1
 17 18  1  0
 18 19  1  0
 19 23  1  0
 20 19  2  0
 21 16  1  0
 22 21  2  0
 25 24  1  6
 25 27  1  0
 25 26  1  0
 27 28  1  6
 28 21  1  0
 29 27  1  0
 29 30  1  0
 31 29  2  0
M  END
$$$$
