WET.pdb
     RDKit          3D

 31 32  0  0  1  0  0  0  0  0999 V2000
   27.1101  -21.7324  -15.2399 N   0  0  0  0  0  0  0  0  0  0  0  0
   26.2177  -21.3062  -14.2175 C   0  0  1  0  0  0  0  0  0  0  0  0
   26.5643  -19.9517  -13.7156 C   0  0  0  0  0  0  0  0  0  0  0  0
   27.7832  -20.0337  -12.8736 C   0  0  0  0  0  0  0  0  0  0  0  0
   29.0812  -19.6965  -13.2563 C   0  0  0  0  0  0  0  0  0  0  0  0
   29.9184  -19.8624  -12.2283 N   0  0  0  0  0  0  0  0  0  0  0  0
   29.1999  -20.2991  -11.1873 C   0  0  0  0  0  0  0  0  0  0  0  0
   29.5842  -20.6303   -9.8977 C   0  0  0  0  0  0  0  0  0  0  0  0
   28.6375  -21.0735   -8.9986 C   0  0  0  0  0  0  0  0  0  0  0  0
   27.3099  -21.2043   -9.3275 C   0  0  0  0  0  0  0  0  0  0  0  0
   26.9371  -20.8683  -10.6253 C   0  0  0  0  0  0  0  0  0  0  0  0
   27.8614  -20.4183  -11.5549 C   0  0  0  0  0  0  0  0  0  0  0  0
   24.8175  -21.4119  -14.7002 C   0  0  0  0  0  0  0  0  0  0  0  0
   24.4707  -20.9276  -15.8069 O   0  0  0  0  0  0  0  0  0  0  0  0
   23.7953  -22.0620  -13.9437 N   0  0  0  0  0  0  0  0  0  0  0  0
   22.4363  -22.2400  -14.4066 C   0  0  1  0  0  0  0  0  0  0  0  0
   21.9508  -23.5820  -13.9264 C   0  0  0  0  0  0  0  0  0  0  0  0
   21.8507  -24.5528  -15.0685 C   0  0  0  0  0  0  0  0  0  0  0  0
   23.0591  -25.4314  -15.1462 C   0  0  0  0  0  0  0  0  0  0  0  0
   23.9583  -25.2618  -14.2797 O   0  0  0  0  0  0  0  0  0  0  0  0
   21.5094  -21.1871  -13.9493 C   0  0  0  0  0  0  0  0  0  0  0  0
   21.5566  -20.8605  -12.7424 O   0  0  0  0  0  0  0  0  0  0  0  0
   23.1637  -26.3832  -16.1362 O   0  0  0  0  0  0  0  0  0  0  0  0
   21.1328  -17.6780  -15.1703 C   0  0  0  0  0  0  0  0  0  0  0  0
   19.7749  -18.3629  -15.3609 C   0  0  1  0  0  0  0  0  0  0  0  0
   19.6999  -18.8966  -16.6490 O   0  0  0  0  0  0  0  0  0  0  0  0
   19.6307  -19.5231  -14.3990 C   0  0  2  0  0  0  0  0  0  0  0  0
   20.5802  -20.5343  -14.7837 N   0  0  0  0  0  0  0  0  0  0  0  0
   18.2738  -20.0795  -14.3499 C   0  0  0  0  0  0  0  0  0  0  0  0
   17.1874  -19.3546  -13.8235 O   0  0  0  0  0  0  0  0  0  0  0  0
   18.0219  -21.2240  -14.7740 O   0  0  0  0  0  0  0  0  0  0  0  0
  2  1  1  6
  2  3  1  0
  3  4  1  0
  4  5  2  0
  5  6  1  0
  7  6  1  0
  8  7  2  0
  9  8  1  0
 10 11  1  0
 10  9  2  0
 11 12  2  0
 12  4  1  0
 12  7  1  0
 13 14  2  0
 13  2  1  0
 15 13  1  0
 16 15  1  0
 16 17  1  1
 17 18  1  0
 18 19  1  0
 19 23  1  0
 20 19  2  0
 21 16  1  0
 22 21  2  0
 25 24  1  6
 25 27  1  0
 25 26  1  0
 27 28  1  6
 28 21  1  0
 29 27  1  0
 29 30  1  0
 31 29  2  0
M  END
$$$$
