WET.pdb
     RDKit          3D

 31 32  0  0  1  0  0  0  0  0999 V2000
   23.8430  -20.2044  -10.9165 N   0  0  0  0  0  0  0  0  0  0  0  0
   25.2206  -20.3381  -11.2449 C   0  0  1  0  0  0  0  0  0  0  0  0
   25.8891  -21.3623  -10.4019 C   0  0  0  0  0  0  0  0  0  0  0  0
   26.4206  -20.7213   -9.1738 C   0  0  0  0  0  0  0  0  0  0  0  0
   25.6835  -20.0328   -8.2108 C   0  0  0  0  0  0  0  0  0  0  0  0
   26.4882  -19.6232   -7.2259 N   0  0  0  0  0  0  0  0  0  0  0  0
   27.7291  -20.0262   -7.5229 C   0  0  0  0  0  0  0  0  0  0  0  0
   28.9239  -19.8537   -6.8422 C   0  0  0  0  0  0  0  0  0  0  0  0
   30.0891  -20.3648   -7.3733 C   0  0  0  0  0  0  0  0  0  0  0  0
   30.1209  -21.0477   -8.5651 C   0  0  0  0  0  0  0  0  0  0  0  0
   28.9147  -21.2143   -9.2385 C   0  0  0  0  0  0  0  0  0  0  0  0
   27.7242  -20.7151   -8.7338 C   0  0  0  0  0  0  0  0  0  0  0  0
   25.3651  -20.5919  -12.7007 C   0  0  0  0  0  0  0  0  0  0  0  0
   24.5008  -21.2449  -13.3380 O   0  0  0  0  0  0  0  0  0  0  0  0
   26.4817  -20.1145  -13.4526 N   0  0  0  0  0  0  0  0  0  0  0  0
   26.5737  -20.1824  -14.8947 C   0  0  1  0  0  0  0  0  0  0  0  0
   27.6644  -19.2438  -15.3382 C   0  0  0  0  0  0  0  0  0  0  0  0
   27.7499  -19.1961  -16.8373 C   0  0  0  0  0  0  0  0  0  0  0  0
   28.7521  -18.1842  -17.2955 C   0  0  0  0  0  0  0  0  0  0  0  0
   28.3164  -17.1618  -17.8896 O   0  0  0  0  0  0  0  0  0  0  0  0
   26.8486  -21.5373  -15.4101 C   0  0  0  0  0  0  0  0  0  0  0  0
   27.9744  -22.0284  -15.1719 O   0  0  0  0  0  0  0  0  0  0  0  0
   30.0954  -18.3833  -17.0657 O   0  0  0  0  0  0  0  0  0  0  0  0
   25.3456  -24.9021  -14.8145 C   0  0  0  0  0  0  0  0  0  0  0  0
   25.0998  -24.5390  -16.2832 C   0  0  1  0  0  0  0  0  0  0  0  0
   23.8761  -23.8767  -16.4001 O   0  0  0  0  0  0  0  0  0  0  0  0
   26.1634  -23.5798  -16.7737 C   0  0  2  0  0  0  0  0  0  0  0  0
   25.9267  -22.3041  -16.1504 N   0  0  0  0  0  0  0  0  0  0  0  0
   26.2018  -23.4428  -18.2341 C   0  0  0  0  0  0  0  0  0  0  0  0
   26.6483  -24.4836  -19.0709 O   0  0  0  0  0  0  0  0  0  0  0  0
   25.8389  -22.3939  -18.8010 O   0  0  0  0  0  0  0  0  0  0  0  0
  2  1  1  1
  2  3  1  0
  3  4  1  0
  4  5  2  0
  5  6  1  0
  7  6  1  0
  8  7  2  0
  9  8  1  0
 10 11  1  0
 10  9  2  0
 11 12  2  0
 12  4  1  0
 12  7  1  0
 13 14  2  0
 13  2  1  0
 15 13  1  0
 16 15  1  0
 16 17  1  1
 17 18  1  0
 18 19  1  0
 19 23  1  0
 20 19  2  0
 21 16  1  0
 22 21  2  0
 25 24  1  1
 25 27  1  0
 25 26  1  0
 27 28  1  1
 28 21  1  0
 29 27  1  0
 29 30  1  0
 31 29  2  0
M  END
$$$$
