WET.pdb
     RDKit          3D

 31 32  0  0  1  0  0  0  0  0999 V2000
   26.5412  -19.9964  -16.3823 N   0  0  0  0  0  0  0  0  0  0  0  0
   25.8823  -20.2621  -15.1500 C   0  0  1  0  0  0  0  0  0  0  0  0
   26.2182  -19.2478  -14.1179 C   0  0  0  0  0  0  0  0  0  0  0  0
   27.6085  -19.4636  -13.6470 C   0  0  0  0  0  0  0  0  0  0  0  0
   28.7597  -18.8601  -14.1526 C   0  0  0  0  0  0  0  0  0  0  0  0
   29.8290  -19.2643  -13.4608 N   0  0  0  0  0  0  0  0  0  0  0  0
   29.4043  -20.1150  -12.5193 C   0  0  0  0  0  0  0  0  0  0  0  0
   30.1051  -20.8180  -11.5522 C   0  0  0  0  0  0  0  0  0  0  0  0
   29.4249  -21.6541  -10.6924 C   0  0  0  0  0  0  0  0  0  0  0  0
   28.0629  -21.8253  -10.7513 C   0  0  0  0  0  0  0  0  0  0  0  0
   27.3710  -21.1137  -11.7265 C   0  0  0  0  0  0  0  0  0  0  0  0
   28.0218  -20.2636  -12.6067 C   0  0  0  0  0  0  0  0  0  0  0  0
   24.4224  -20.3999  -15.3832 C   0  0  0  0  0  0  0  0  0  0  0  0
   23.7664  -19.4980  -15.9625 O   0  0  0  0  0  0  0  0  0  0  0  0
   23.6874  -21.5518  -14.9672 N   0  0  0  0  0  0  0  0  0  0  0  0
   22.2553  -21.6935  -15.1145 C   0  0  1  0  0  0  0  0  0  0  0  0
   21.9877  -22.9583  -15.8865 C   0  0  0  0  0  0  0  0  0  0  0  0
   20.5125  -23.1564  -16.0907 C   0  0  0  0  0  0  0  0  0  0  0  0
   20.0400  -24.4288  -15.4615 C   0  0  0  0  0  0  0  0  0  0  0  0
   20.5282  -25.5074  -15.8931 O   0  0  0  0  0  0  0  0  0  0  0  0
   21.5266  -21.7343  -13.8322 C   0  0  0  0  0  0  0  0  0  0  0  0
   22.0814  -22.3115  -12.8708 O   0  0  0  0  0  0  0  0  0  0  0  0
   19.1057  -24.3986  -14.4499 O   0  0  0  0  0  0  0  0  0  0  0  0
   21.8152  -20.7036  -11.4311 C   0  0  0  0  0  0  0  0  0  0  0  0
   20.3565  -20.2330  -11.4349 C   0  0  1  0  0  0  0  0  0  0  0  0
   20.2927  -18.9199  -11.9055 O   0  0  0  0  0  0  0  0  0  0  0  0
   19.5333  -21.0771  -12.3846 C   0  0  2  0  0  0  0  0  0  0  0  0
   20.2523  -21.1683  -13.6283 N   0  0  0  0  0  0  0  0  0  0  0  0
   18.1788  -20.5585  -12.6070 C   0  0  0  0  0  0  0  0  0  0  0  0
   17.2134  -20.5262  -11.5824 O   0  0  0  0  0  0  0  0  0  0  0  0
   17.8214  -20.1216  -13.7181 O   0  0  0  0  0  0  0  0  0  0  0  0
  2  1  1  6
  2  3  1  0
  3  4  1  0
  4  5  2  0
  5  6  1  0
  7  6  1  0
  8  7  2  0
  9  8  1  0
 10 11  1  0
 10  9  2  0
 11 12  2  0
 12  4  1  0
 12  7  1  0
 13 14  2  0
 13  2  1  0
 15 13  1  0
 16 15  1  0
 16 17  1  1
 17 18  1  0
 18 19  1  0
 19 23  1  0
 20 19  2  0
 21 16  1  0
 22 21  2  0
 25 24  1  6
 25 27  1  0
 25 26  1  0
 27 28  1  6
 28 21  1  0
 29 27  1  0
 29 30  1  0
 31 29  2  0
M  END
$$$$
