WET.pdb
     RDKit          3D

 31 32  0  0  1  0  0  0  0  0999 V2000
   27.0821  -22.0497  -14.0035 N   0  0  0  0  0  0  0  0  0  0  0  0
   26.2074  -21.3110  -13.1594 C   0  0  1  0  0  0  0  0  0  0  0  0
   26.8339  -20.0485  -12.6898 C   0  0  0  0  0  0  0  0  0  0  0  0
   27.7225  -20.3368  -11.5371 C   0  0  0  0  0  0  0  0  0  0  0  0
   29.1113  -20.4597  -11.5696 C   0  0  0  0  0  0  0  0  0  0  0  0
   29.5790  -20.6850  -10.3385 N   0  0  0  0  0  0  0  0  0  0  0  0
   28.5317  -20.7128   -9.5062 C   0  0  0  0  0  0  0  0  0  0  0  0
   28.4688  -20.9186   -8.1371 C   0  0  0  0  0  0  0  0  0  0  0  0
   27.2442  -20.9103   -7.5036 C   0  0  0  0  0  0  0  0  0  0  0  0
   26.0648  -20.7044   -8.1776 C   0  0  0  0  0  0  0  0  0  0  0  0
   26.1416  -20.4987   -9.5517 C   0  0  0  0  0  0  0  0  0  0  0  0
   27.3552  -20.4993  -10.2212 C   0  0  0  0  0  0  0  0  0  0  0  0
   24.9085  -21.1002  -13.8473 C   0  0  0  0  0  0  0  0  0  0  0  0
   24.8469  -20.9536  -15.0940 O   0  0  0  0  0  0  0  0  0  0  0  0
   23.6683  -21.0522  -13.1405 N   0  0  0  0  0  0  0  0  0  0  0  0
   22.3754  -20.9558  -13.7822 C   0  0  1  0  0  0  0  0  0  0  0  0
   21.3846  -21.7328  -12.9565 C   0  0  0  0  0  0  0  0  0  0  0  0
   20.0566  -21.8142  -13.6542 C   0  0  0  0  0  0  0  0  0  0  0  0
   19.0937  -22.6734  -12.8974 C   0  0  0  0  0  0  0  0  0  0  0  0
   19.3075  -23.9154  -12.8856 O   0  0  0  0  0  0  0  0  0  0  0  0
   21.8974  -19.5703  -13.9522 C   0  0  0  0  0  0  0  0  0  0  0  0
   21.8795  -18.8372  -12.9385 O   0  0  0  0  0  0  0  0  0  0  0  0
   18.0209  -22.1069  -12.2454 O   0  0  0  0  0  0  0  0  0  0  0  0
   23.0242  -16.9637  -16.6685 C   0  0  0  0  0  0  0  0  0  0  0  0
   21.5193  -17.2406  -16.7577 C   0  0  1  0  0  0  0  0  0  0  0  0
   21.2913  -18.2882  -17.6523 O   0  0  0  0  0  0  0  0  0  0  0  0
   20.9861  -17.6907  -15.4141 C   0  0  2  0  0  0  0  0  0  0  0  0
   21.4614  -19.0288  -15.1779 N   0  0  0  0  0  0  0  0  0  0  0  0
   19.5232  -17.6364  -15.3152 C   0  0  0  0  0  0  0  0  0  0  0  0
   18.8191  -16.4169  -15.3107 O   0  0  0  0  0  0  0  0  0  0  0  0
   18.8358  -18.6725  -15.2304 O   0  0  0  0  0  0  0  0  0  0  0  0
  2  1  1  6
  2  3  1  0
  3  4  1  0
  4  5  2  0
  5  6  1  0
  7  6  1  0
  8  7  2  0
  9  8  1  0
 10 11  1  0
 10  9  2  0
 11 12  2  0
 12  4  1  0
 12  7  1  0
 13 14  2  0
 13  2  1  0
 15 13  1  0
 16 15  1  0
 16 17  1  1
 17 18  1  0
 18 19  1  0
 19 23  1  0
 20 19  2  0
 21 16  1  0
 22 21  2  0
 25 24  1  1
 25 27  1  0
 25 26  1  0
 27 28  1  6
 28 21  1  0
 29 27  1  0
 29 30  1  0
 31 29  2  0
M  END
$$$$
