WET.pdb
     RDKit          3D

 31 32  0  0  1  0  0  0  0  0999 V2000
   17.0766  -10.1506  -14.2432 N   0  0  0  0  0  0  0  0  0  0  0  0
   17.2635   -9.1375  -15.2242 C   0  0  1  0  0  0  0  0  0  0  0  0
   16.0881   -9.0223  -16.1253 C   0  0  0  0  0  0  0  0  0  0  0  0
   15.8989  -10.2994  -16.8565 C   0  0  0  0  0  0  0  0  0  0  0  0
   16.9041  -11.1277  -17.3550 C   0  0  0  0  0  0  0  0  0  0  0  0
   16.3644  -12.2098  -17.9235 N   0  0  0  0  0  0  0  0  0  0  0  0
   15.0352  -12.1072  -17.8089 C   0  0  0  0  0  0  0  0  0  0  0  0
   14.0222  -12.9510  -18.2358 C   0  0  0  0  0  0  0  0  0  0  0  0
   12.7075  -12.6083  -18.0013 C   0  0  0  0  0  0  0  0  0  0  0  0
   12.3497  -11.4504  -17.3539 C   0  0  0  0  0  0  0  0  0  0  0  0
   13.3761  -10.6120  -16.9302 C   0  0  0  0  0  0  0  0  0  0  0  0
   14.7087  -10.9251  -17.1477 C   0  0  0  0  0  0  0  0  0  0  0  0
   17.6206   -7.8584  -14.5601 C   0  0  0  0  0  0  0  0  0  0  0  0
   17.0533   -7.4933  -13.4998 O   0  0  0  0  0  0  0  0  0  0  0  0
   18.6177   -6.9788  -15.0819 N   0  0  0  0  0  0  0  0  0  0  0  0
   18.9721   -5.7116  -14.4809 C   0  0  1  0  0  0  0  0  0  0  0  0
   20.4741   -5.6083  -14.4593 C   0  0  0  0  0  0  0  0  0  0  0  0
   20.9131   -4.3709  -13.7292 C   0  0  0  0  0  0  0  0  0  0  0  0
   22.4021   -4.3152  -13.5947 C   0  0  0  0  0  0  0  0  0  0  0  0
   22.9275   -4.9838  -12.6645 O   0  0  0  0  0  0  0  0  0  0  0  0
   18.4070   -4.5423  -15.1812 C   0  0  0  0  0  0  0  0  0  0  0  0
   18.6257   -4.4433  -16.4091 O   0  0  0  0  0  0  0  0  0  0  0  0
   23.1506   -3.5553  -14.4660 O   0  0  0  0  0  0  0  0  0  0  0  0
   14.7669   -3.4033  -15.1553 C   0  0  0  0  0  0  0  0  0  0  0  0
   15.6378   -2.2475  -14.6503 C   0  0  1  0  0  0  0  0  0  0  0  0
   15.7210   -2.3021  -13.2575 O   0  0  0  0  0  0  0  0  0  0  0  0
   17.0505   -2.3834  -15.1773 C   0  0  2  0  0  0  0  0  0  0  0  0
   17.6436   -3.5375  -14.5540 N   0  0  0  0  0  0  0  0  0  0  0  0
   17.8775   -1.1923  -14.9532 C   0  0  0  0  0  0  0  0  0  0  0  0
   17.5523    0.0591  -15.5111 O   0  0  0  0  0  0  0  0  0  0  0  0
   18.9095   -1.2359  -14.2558 O   0  0  0  0  0  0  0  0  0  0  0  0
  2  1  1  1
  2  3  1  0
  3  4  1  0
  4  5  2  0
  5  6  1  0
  7  6  1  0
  8  7  2  0
  9  8  1  0
 10 11  1  0
 10  9  2  0
 11 12  2  0
 12  4  1  0
 12  7  1  0
 13 14  2  0
 13  2  1  0
 15 13  1  0
 16 15  1  0
 16 17  1  6
 17 18  1  0
 18 19  1  0
 19 23  1  0
 20 19  2  0
 21 16  1  0
 22 21  2  0
 25 24  1  6
 25 27  1  0
 25 26  1  0
 27 28  1  1
 28 21  1  0
 29 27  1  0
 29 30  1  0
 31 29  2  0
M  END
$$$$
