WET.pdb
     RDKit          3D

 31 32  0  0  1  0  0  0  0  0999 V2000
   24.5711  -21.6359   -7.7669 N   0  0  0  0  0  0  0  0  0  0  0  0
   25.3075  -20.6609   -8.4954 C   0  0  1  0  0  0  0  0  0  0  0  0
   26.7367  -20.6372   -8.0912 C   0  0  0  0  0  0  0  0  0  0  0  0
   26.8311  -20.5008   -6.6168 C   0  0  0  0  0  0  0  0  0  0  0  0
   26.0254  -21.1342   -5.6709 C   0  0  0  0  0  0  0  0  0  0  0  0
   26.4219  -20.8041   -4.4384 N   0  0  0  0  0  0  0  0  0  0  0  0
   27.4635  -19.9725   -4.5572 C   0  0  0  0  0  0  0  0  0  0  0  0
   28.2301  -19.3386   -3.5923 C   0  0  0  0  0  0  0  0  0  0  0  0
   29.2596  -18.5072   -3.9795 C   0  0  0  0  0  0  0  0  0  0  0  0
   29.5651  -18.2743   -5.2987 C   0  0  0  0  0  0  0  0  0  0  0  0
   28.7881  -18.9170   -6.2576 C   0  0  0  0  0  0  0  0  0  0  0  0
   27.7463  -19.7603   -5.9047 C   0  0  0  0  0  0  0  0  0  0  0  0
   25.1138  -20.8737   -9.9521 C   0  0  0  0  0  0  0  0  0  0  0  0
   25.3613  -21.9833  -10.4878 O   0  0  0  0  0  0  0  0  0  0  0  0
   24.6407  -19.8418  -10.8190 N   0  0  0  0  0  0  0  0  0  0  0  0
   24.5195  -19.9836  -12.2535 C   0  0  1  0  0  0  0  0  0  0  0  0
   23.3171  -19.1955  -12.7012 C   0  0  0  0  0  0  0  0  0  0  0  0
   22.0593  -19.9991  -12.5310 C   0  0  0  0  0  0  0  0  0  0  0  0
   22.1124  -21.2702  -13.3183 C   0  0  0  0  0  0  0  0  0  0  0  0
   21.7783  -22.3333  -12.7296 O   0  0  0  0  0  0  0  0  0  0  0  0
   25.7106  -19.5328  -12.9985 C   0  0  0  0  0  0  0  0  0  0  0  0
   26.1307  -18.3765  -12.7710 O   0  0  0  0  0  0  0  0  0  0  0  0
   22.5142  -21.2555  -14.6356 O   0  0  0  0  0  0  0  0  0  0  0  0
   28.9658  -21.3806  -13.1131 C   0  0  0  0  0  0  0  0  0  0  0  0
   28.5482  -21.1428  -14.5685 C   0  0  1  0  0  0  0  0  0  0  0  0
   27.8559  -22.2591  -15.0421 O   0  0  0  0  0  0  0  0  0  0  0  0
   27.5964  -19.9689  -14.6582 C   0  0  2  0  0  0  0  0  0  0  0  0
   26.3962  -20.3200  -13.9451 N   0  0  0  0  0  0  0  0  0  0  0  0
   27.2823  -19.5719  -16.0354 C   0  0  0  0  0  0  0  0  0  0  0  0
   28.2771  -19.1425  -16.9347 O   0  0  0  0  0  0  0  0  0  0  0  0
   26.1153  -19.5974  -16.4721 O   0  0  0  0  0  0  0  0  0  0  0  0
  2  1  1  1
  2  3  1  0
  3  4  1  0
  4  5  2  0
  5  6  1  0
  7  6  1  0
  8  7  2  0
  9  8  1  0
 10 11  1  0
 10  9  2  0
 11 12  2  0
 12  4  1  0
 12  7  1  0
 13 14  2  0
 13  2  1  0
 15 13  1  0
 16 15  1  0
 16 17  1  6
 17 18  1  0
 18 19  1  0
 19 23  1  0
 20 19  2  0
 21 16  1  0
 22 21  2  0
 25 24  1  1
 25 27  1  0
 25 26  1  0
 27 28  1  6
 28 21  1  0
 29 27  1  0
 29 30  1  0
 31 29  2  0
M  END
$$$$
