VYF.pdb
     RDKit          3D

 31 32  0  0  1  0  0  0  0  0999 V2000
   25.6466  -19.3768  -19.8866 C   0  0  0  0  0  0  0  0  0  0  0  0
   26.7705  -18.5557  -19.3194 C   0  0  1  0  0  0  0  0  0  0  0  0
   26.3011  -17.3709  -18.5404 C   0  0  0  0  0  0  0  0  0  0  0  0
   27.7142  -19.3631  -18.4710 C   0  0  2  0  0  0  0  0  0  0  0  0
   28.3333  -20.3588  -19.2870 N   0  0  0  0  0  0  0  0  0  0  0  0
   27.1012  -19.9534  -17.2852 C   0  0  0  0  0  0  0  0  0  0  0  0
   26.3434  -20.9575  -17.2886 O   0  0  0  0  0  0  0  0  0  0  0  0
   25.3042  -20.4833   -8.4891 O   0  0  0  0  0  0  0  0  0  0  0  0
   25.8516  -20.2086   -9.7386 C   0  0  0  0  0  0  0  0  0  0  0  0
   26.5173  -21.1828  -10.4399 C   0  0  0  0  0  0  0  0  0  0  0  0
   27.0600  -20.9063  -11.6816 C   0  0  0  0  0  0  0  0  0  0  0  0
   26.9649  -19.6600  -12.2741 C   0  0  0  0  0  0  0  0  0  0  0  0
   27.5399  -19.3210  -13.5795 C   0  0  0  0  0  0  0  0  0  0  0  0
   26.7922  -19.8331  -14.7724 C   0  0  2  0  0  0  0  0  0  0  0  0
   27.3682  -19.3635  -16.0200 N   0  0  0  0  0  0  0  0  0  0  0  0
   25.3963  -19.3574  -14.7049 C   0  0  0  0  0  0  0  0  0  0  0  0
   25.0452  -18.1505  -14.8397 O   0  0  0  0  0  0  0  0  0  0  0  0
   26.2953  -18.6909  -11.5612 C   0  0  0  0  0  0  0  0  0  0  0  0
   25.7428  -18.9571  -10.3070 C   0  0  0  0  0  0  0  0  0  0  0  0
   24.3343  -20.2711  -14.4753 N   0  0  0  0  0  0  0  0  0  0  0  0
   22.9554  -19.8370  -14.1959 C   0  0  1  0  0  0  0  0  0  0  0  0
   22.2093  -19.9583  -15.5003 C   0  0  0  0  0  0  0  0  0  0  0  0
   21.7351  -18.6484  -15.9859 C   0  0  0  0  0  0  0  0  0  0  0  0
   22.3777  -17.9580  -16.9893 C   0  0  0  0  0  0  0  0  0  0  0  0
   21.9340  -16.7281  -17.4542 C   0  0  0  0  0  0  0  0  0  0  0  0
   20.8096  -16.1415  -16.9155 C   0  0  0  0  0  0  0  0  0  0  0  0
   20.1553  -16.8222  -15.9086 C   0  0  0  0  0  0  0  0  0  0  0  0
   20.5949  -18.0415  -15.4476 C   0  0  0  0  0  0  0  0  0  0  0  0
   22.3654  -20.6864  -13.1700 C   0  0  0  0  0  0  0  0  0  0  0  0
   21.3190  -20.2090  -12.3918 O   0  0  0  0  0  0  0  0  0  0  0  0
   22.8213  -21.8564  -13.0013 O   0  0  0  0  0  0  0  0  0  0  0  0
  2  1  1  1
  3  2  1  0
  4  5  1  6
  4  2  1  0
  6  4  1  0
  7  6  2  0
  8  9  1  0
  9 10  2  0
 10 11  1  0
 12 11  2  0
 12 13  1  0
 14 13  1  1
 14 15  1  0
 15  6  1  0
 16 14  1  0
 16 20  1  0
 17 16  2  0
 18 12  1  0
 19 18  2  0
 19  9  1  0
 21 22  1  6
 21 20  1  0
 21 29  1  0
 23 28  1  0
 23 22  1  0
 24 23  2  0
 25 26  2  0
 25 24  1  0
 26 27  1  0
 27 28  2  0
 29 30  1  0
 31 29  2  0
M  END
$$$$
