VYF.pdb
     RDKit          3D

 31 32  0  0  1  0  0  0  0  0999 V2000
   28.5819  -18.5127  -15.3689 C   0  0  0  0  0  0  0  0  0  0  0  0
   28.4129  -18.3413  -16.8525 C   0  0  1  0  0  0  0  0  0  0  0  0
   29.6968  -18.4451  -17.6087 C   0  0  0  0  0  0  0  0  0  0  0  0
   27.4132  -19.2983  -17.4416 C   0  0  2  0  0  0  0  0  0  0  0  0
   27.3482  -19.0887  -18.8531 N   0  0  0  0  0  0  0  0  0  0  0  0
   26.0881  -19.2336  -16.8329 C   0  0  0  0  0  0  0  0  0  0  0  0
   25.3243  -18.2348  -16.8717 O   0  0  0  0  0  0  0  0  0  0  0  0
   18.1679  -21.0064  -13.5900 O   0  0  0  0  0  0  0  0  0  0  0  0
   19.4211  -21.0296  -14.1945 C   0  0  0  0  0  0  0  0  0  0  0  0
   19.8398  -19.9817  -14.9762 C   0  0  0  0  0  0  0  0  0  0  0  0
   21.0860  -20.0080  -15.5753 C   0  0  0  0  0  0  0  0  0  0  0  0
   21.9617  -21.0680  -15.4244 C   0  0  0  0  0  0  0  0  0  0  0  0
   23.2832  -21.1427  -16.0551 C   0  0  0  0  0  0  0  0  0  0  0  0
   24.3779  -20.3901  -15.3627 C   0  0  2  0  0  0  0  0  0  0  0  0
   25.6053  -20.3759  -16.1386 N   0  0  0  0  0  0  0  0  0  0  0  0
   24.6625  -21.0395  -14.0678 C   0  0  0  0  0  0  0  0  0  0  0  0
   25.2213  -22.1662  -13.9407 O   0  0  0  0  0  0  0  0  0  0  0  0
   21.5308  -22.1131  -14.6386 C   0  0  0  0  0  0  0  0  0  0  0  0
   20.2753  -22.0989  -14.0280 C   0  0  0  0  0  0  0  0  0  0  0  0
   24.3071  -20.4031  -12.8495 N   0  0  0  0  0  0  0  0  0  0  0  0
   24.2352  -21.1213  -11.5662 C   0  0  1  0  0  0  0  0  0  0  0  0
   25.0715  -20.3250  -10.5970 C   0  0  0  0  0  0  0  0  0  0  0  0
   26.4532  -20.1457  -11.0819 C   0  0  0  0  0  0  0  0  0  0  0  0
   27.4812  -20.9801  -10.7029 C   0  0  0  0  0  0  0  0  0  0  0  0
   28.7818  -20.8201  -11.1594 C   0  0  0  0  0  0  0  0  0  0  0  0
   29.0971  -19.7975  -12.0273 C   0  0  0  0  0  0  0  0  0  0  0  0
   28.0767  -18.9530  -12.4157 C   0  0  0  0  0  0  0  0  0  0  0  0
   26.7872  -19.1115  -11.9634 C   0  0  0  0  0  0  0  0  0  0  0  0
   22.8506  -21.2067  -11.1215 C   0  0  0  0  0  0  0  0  0  0  0  0
   22.5088  -22.0554  -10.0769 O   0  0  0  0  0  0  0  0  0  0  0  0
   21.9725  -20.5007  -11.7009 O   0  0  0  0  0  0  0  0  0  0  0  0
  2  1  1  1
  3  2  1  0
  4  5  1  6
  4  2  1  0
  6  4  1  0
  7  6  2  0
  8  9  1  0
  9 10  2  0
 10 11  1  0
 12 11  2  0
 12 13  1  0
 14 13  1  6
 14 15  1  0
 15  6  1  0
 16 14  1  0
 16 20  1  0
 17 16  2  0
 18 12  1  0
 19 18  2  0
 19  9  1  0
 21 22  1  1
 21 20  1  0
 21 29  1  0
 23 28  1  0
 23 22  1  0
 24 23  2  0
 25 26  2  0
 25 24  1  0
 26 27  1  0
 27 28  2  0
 29 30  1  0
 31 29  2  0
M  END
$$$$
