VYF.pdb
     RDKit          3D

 31 32  0  0  1  0  0  0  0  0999 V2000
   29.2983  -18.5055  -16.0759 C   0  0  0  0  0  0  0  0  0  0  0  0
   28.4215  -18.3465  -14.8657 C   0  0  1  0  0  0  0  0  0  0  0  0
   27.7261  -17.0258  -14.8099 C   0  0  0  0  0  0  0  0  0  0  0  0
   27.4048  -19.4468  -14.7316 C   0  0  2  0  0  0  0  0  0  0  0  0
   26.6299  -19.5092  -15.9300 N   0  0  0  0  0  0  0  0  0  0  0  0
   26.5519  -19.3366  -13.5521 C   0  0  0  0  0  0  0  0  0  0  0  0
   25.8662  -18.3264  -13.2493 O   0  0  0  0  0  0  0  0  0  0  0  0
   20.2351  -19.8870  -15.1079 O   0  0  0  0  0  0  0  0  0  0  0  0
   21.2829  -20.2815  -14.2814 C   0  0  0  0  0  0  0  0  0  0  0  0
   22.3144  -21.0411  -14.7744 C   0  0  0  0  0  0  0  0  0  0  0  0
   23.3542  -21.4313  -13.9502 C   0  0  0  0  0  0  0  0  0  0  0  0
   23.4125  -21.0860  -12.6120 C   0  0  0  0  0  0  0  0  0  0  0  0
   24.4868  -21.4926  -11.7010 C   0  0  0  0  0  0  0  0  0  0  0  0
   25.5924  -20.4991  -11.5145 C   0  0  2  0  0  0  0  0  0  0  0  0
   26.4766  -20.4445  -12.6651 N   0  0  0  0  0  0  0  0  0  0  0  0
   26.3950  -20.8888  -10.3383 C   0  0  0  0  0  0  0  0  0  0  0  0
   27.2790  -21.7924  -10.3439 O   0  0  0  0  0  0  0  0  0  0  0  0
   22.3722  -20.3243  -12.1288 C   0  0  0  0  0  0  0  0  0  0  0  0
   21.3168  -19.9238  -12.9503 C   0  0  0  0  0  0  0  0  0  0  0  0
   26.2053  -20.2401   -9.0899 N   0  0  0  0  0  0  0  0  0  0  0  0
   26.9335  -20.6287   -7.8707 C   0  0  1  0  0  0  0  0  0  0  0  0
   27.7508  -19.4257   -7.4736 C   0  0  0  0  0  0  0  0  0  0  0  0
   28.3692  -19.5957   -6.1451 C   0  0  0  0  0  0  0  0  0  0  0  0
   27.8862  -18.9632   -5.0212 C   0  0  0  0  0  0  0  0  0  0  0  0
   28.4599  -19.1229   -3.7678 C   0  0  0  0  0  0  0  0  0  0  0  0
   29.5580  -19.9382   -3.6005 C   0  0  0  0  0  0  0  0  0  0  0  0
   30.0532  -20.5786   -4.7185 C   0  0  0  0  0  0  0  0  0  0  0  0
   29.4845  -20.4205   -5.9611 C   0  0  0  0  0  0  0  0  0  0  0  0
   25.9894  -20.9938   -6.8231 C   0  0  0  0  0  0  0  0  0  0  0  0
   26.4229  -21.7180   -5.7204 O   0  0  0  0  0  0  0  0  0  0  0  0
   24.7771  -20.6436   -6.9366 O   0  0  0  0  0  0  0  0  0  0  0  0
  2  1  1  6
  3  2  1  0
  4  5  1  6
  4  2  1  0
  6  4  1  0
  7  6  2  0
  8  9  1  0
  9 10  2  0
 10 11  1  0
 12 11  2  0
 12 13  1  0
 14 13  1  6
 14 15  1  0
 15  6  1  0
 16 14  1  0
 16 20  1  0
 17 16  2  0
 18 12  1  0
 19 18  2  0
 19  9  1  0
 21 22  1  1
 21 20  1  0
 21 29  1  0
 23 28  1  0
 23 22  1  0
 24 23  2  0
 25 26  2  0
 25 24  1  0
 26 27  1  0
 27 28  2  0
 29 30  1  0
 31 29  2  0
M  END
$$$$
