VYF.pdb
     RDKit          3D

 31 32  0  0  1  0  0  0  0  0999 V2000
   21.7284   -5.5867  -22.0218 C   0  0  0  0  0  0  0  0  0  0  0  0
   20.2523   -5.6809  -22.2886 C   0  0  1  0  0  0  0  0  0  0  0  0
   19.9295   -6.0297  -23.7046 C   0  0  0  0  0  0  0  0  0  0  0  0
   19.5523   -6.6444  -21.3700 C   0  0  2  0  0  0  0  0  0  0  0  0
   18.1473   -6.5847  -21.6206 N   0  0  0  0  0  0  0  0  0  0  0  0
   19.8487   -6.4483  -19.9542 C   0  0  0  0  0  0  0  0  0  0  0  0
   20.9993   -6.4790  -19.4469 O   0  0  0  0  0  0  0  0  0  0  0  0
   21.7334   -0.1519  -18.4595 O   0  0  0  0  0  0  0  0  0  0  0  0
   20.9173   -1.2378  -18.1574 C   0  0  0  0  0  0  0  0  0  0  0  0
   21.1760   -2.0236  -17.0620 C   0  0  0  0  0  0  0  0  0  0  0  0
   20.3627   -3.1020  -16.7646 C   0  0  0  0  0  0  0  0  0  0  0  0
   19.2668   -3.4424  -17.5369 C   0  0  0  0  0  0  0  0  0  0  0  0
   18.3901   -4.5861  -17.2664 C   0  0  0  0  0  0  0  0  0  0  0  0
   18.9355   -5.9282  -17.6478 C   0  0  2  0  0  0  0  0  0  0  0  0
   18.7684   -6.2025  -19.0640 N   0  0  0  0  0  0  0  0  0  0  0  0
   18.2156   -6.9717  -16.8913 C   0  0  0  0  0  0  0  0  0  0  0  0
   17.0187   -7.3152  -17.1093 O   0  0  0  0  0  0  0  0  0  0  0  0
   19.0175   -2.6474  -18.6330 C   0  0  0  0  0  0  0  0  0  0  0  0
   19.8306   -1.5559  -18.9441 C   0  0  0  0  0  0  0  0  0  0  0  0
   18.8599   -7.6706  -15.8368 N   0  0  0  0  0  0  0  0  0  0  0  0
   18.1786   -8.6921  -15.0243 C   0  0  1  0  0  0  0  0  0  0  0  0
   18.9726   -9.9614  -15.2015 C   0  0  0  0  0  0  0  0  0  0  0  0
   20.3372   -9.8367  -14.6549 C   0  0  0  0  0  0  0  0  0  0  0  0
   21.3275   -9.1299  -15.3001 C   0  0  0  0  0  0  0  0  0  0  0  0
   22.6115   -9.0044  -14.7890 C   0  0  0  0  0  0  0  0  0  0  0  0
   22.9479   -9.5962  -13.5910 C   0  0  0  0  0  0  0  0  0  0  0  0
   21.9652  -10.3081  -12.9332 C   0  0  0  0  0  0  0  0  0  0  0  0
   20.6922  -10.4326  -13.4397 C   0  0  0  0  0  0  0  0  0  0  0  0
   18.1502   -8.2785  -13.6278 C   0  0  0  0  0  0  0  0  0  0  0  0
   17.3870   -8.9880  -12.7098 O   0  0  0  0  0  0  0  0  0  0  0  0
   18.8263   -7.2685  -13.2702 O   0  0  0  0  0  0  0  0  0  0  0  0
  2  1  1  6
  3  2  1  0
  4  5  1  1
  4  2  1  0
  6  4  1  0
  7  6  2  0
  8  9  1  0
  9 10  2  0
 10 11  1  0
 12 11  2  0
 12 13  1  0
 14 13  1  6
 14 15  1  0
 15  6  1  0
 16 14  1  0
 16 20  1  0
 17 16  2  0
 18 12  1  0
 19 18  2  0
 19  9  1  0
 21 22  1  1
 21 20  1  0
 21 29  1  0
 23 28  1  0
 23 22  1  0
 24 23  2  0
 25 26  2  0
 25 24  1  0
 26 27  1  0
 27 28  2  0
 29 30  1  0
 31 29  2  0
M  END
$$$$
