VYF.pdb
     RDKit          3D

 31 32  0  0  1  0  0  0  0  0999 V2000
   25.1491  -22.7702  -20.2206 C   0  0  0  0  0  0  0  0  0  0  0  0
   26.0996  -21.6781  -19.8174 C   0  0  1  0  0  0  0  0  0  0  0  0
   26.6957  -20.9551  -20.9806 C   0  0  0  0  0  0  0  0  0  0  0  0
   25.4789  -20.6793  -18.8796 C   0  0  2  0  0  0  0  0  0  0  0  0
   26.3330  -19.5379  -18.7879 N   0  0  0  0  0  0  0  0  0  0  0  0
   25.1602  -21.2123  -17.5587 C   0  0  0  0  0  0  0  0  0  0  0  0
   24.6408  -22.3370  -17.3406 O   0  0  0  0  0  0  0  0  0  0  0  0
   24.5727  -21.1591   -8.6209 O   0  0  0  0  0  0  0  0  0  0  0  0
   24.9386  -20.9838   -9.9520 C   0  0  0  0  0  0  0  0  0  0  0  0
   25.6574  -21.9488  -10.6125 C   0  0  0  0  0  0  0  0  0  0  0  0
   26.0192  -21.7713  -11.9355 C   0  0  0  0  0  0  0  0  0  0  0  0
   25.6848  -20.6366  -12.6523 C   0  0  0  0  0  0  0  0  0  0  0  0
   26.0627  -20.4020  -14.0494 C   0  0  0  0  0  0  0  0  0  0  0  0
   25.0226  -20.7462  -15.0712 C   0  0  2  0  0  0  0  0  0  0  0  0
   25.4512  -20.4152  -16.4186 N   0  0  0  0  0  0  0  0  0  0  0  0
   23.7931  -19.9823  -14.7811 C   0  0  0  0  0  0  0  0  0  0  0  0
   23.7191  -18.7204  -14.7806 O   0  0  0  0  0  0  0  0  0  0  0  0
   24.9641  -19.6757  -11.9794 C   0  0  0  0  0  0  0  0  0  0  0  0
   24.5925  -19.8426  -10.6440 C   0  0  0  0  0  0  0  0  0  0  0  0
   22.5817  -20.6564  -14.4754 N   0  0  0  0  0  0  0  0  0  0  0  0
   21.3665  -19.9517  -14.0344 C   0  0  1  0  0  0  0  0  0  0  0  0
   20.9060  -19.1377  -15.2169 C   0  0  0  0  0  0  0  0  0  0  0  0
   20.5779  -19.9894  -16.3758 C   0  0  0  0  0  0  0  0  0  0  0  0
   21.4188  -20.1154  -17.4591 C   0  0  0  0  0  0  0  0  0  0  0  0
   21.1186  -20.9187  -18.5500 C   0  0  0  0  0  0  0  0  0  0  0  0
   19.9418  -21.6345  -18.5882 C   0  0  0  0  0  0  0  0  0  0  0  0
   19.0890  -21.5178  -17.5092 C   0  0  0  0  0  0  0  0  0  0  0  0
   19.3864  -20.7215  -16.4275 C   0  0  0  0  0  0  0  0  0  0  0  0
   20.3519  -20.9158  -13.6305 C   0  0  0  0  0  0  0  0  0  0  0  0
   20.6288  -22.2757  -13.6799 O   0  0  0  0  0  0  0  0  0  0  0  0
   19.2228  -20.4949  -13.2392 O   0  0  0  0  0  0  0  0  0  0  0  0
  2  1  1  6
  3  2  1  0
  4  5  1  1
  4  2  1  0
  6  4  1  0
  7  6  2  0
  8  9  1  0
  9 10  2  0
 10 11  1  0
 12 11  2  0
 12 13  1  0
 14 13  1  1
 14 15  1  0
 15  6  1  0
 16 14  1  0
 16 20  1  0
 17 16  2  0
 18 12  1  0
 19 18  2  0
 19  9  1  0
 21 22  1  6
 21 20  1  0
 21 29  1  0
 23 28  1  0
 23 22  1  0
 24 23  2  0
 25 26  2  0
 25 24  1  0
 26 27  1  0
 27 28  2  0
 29 30  1  0
 31 29  2  0
M  END
$$$$
