VYF.pdb
     RDKit          3D

 31 32  0  0  1  0  0  0  0  0999 V2000
   30.0550  -16.8116  -18.9179 C   0  0  0  0  0  0  0  0  0  0  0  0
   28.8327  -16.7816  -18.0438 C   0  0  1  0  0  0  0  0  0  0  0  0
   27.5727  -16.5140  -18.7999 C   0  0  0  0  0  0  0  0  0  0  0  0
   28.6645  -18.0356  -17.2304 C   0  0  2  0  0  0  0  0  0  0  0  0
   28.6104  -19.1565  -18.1142 N   0  0  0  0  0  0  0  0  0  0  0  0
   27.5193  -18.0161  -16.3256 C   0  0  0  0  0  0  0  0  0  0  0  0
   27.3796  -17.2276  -15.3555 O   0  0  0  0  0  0  0  0  0  0  0  0
   19.0699  -19.6141  -13.9066 O   0  0  0  0  0  0  0  0  0  0  0  0
   20.2850  -19.4577  -14.5664 C   0  0  0  0  0  0  0  0  0  0  0  0
   20.7657  -18.2056  -14.8589 C   0  0  0  0  0  0  0  0  0  0  0  0
   21.9740  -18.0538  -15.5146 C   0  0  0  0  0  0  0  0  0  0  0  0
   22.7493  -19.1310  -15.9042 C   0  0  0  0  0  0  0  0  0  0  0  0
   24.0262  -19.0142  -16.6153 C   0  0  0  0  0  0  0  0  0  0  0  0
   25.2511  -18.9916  -15.7532 C   0  0  2  0  0  0  0  0  0  0  0  0
   26.4711  -18.9516  -16.5399 N   0  0  0  0  0  0  0  0  0  0  0  0
   25.2792  -20.2143  -14.9265 C   0  0  0  0  0  0  0  0  0  0  0  0
   25.8461  -21.2926  -15.2642 O   0  0  0  0  0  0  0  0  0  0  0  0
   22.2569  -20.3816  -15.6058 C   0  0  0  0  0  0  0  0  0  0  0  0
   21.0389  -20.5486  -14.9442 C   0  0  0  0  0  0  0  0  0  0  0  0
   24.6437  -20.2404  -13.6573 N   0  0  0  0  0  0  0  0  0  0  0  0
   24.6975  -21.4085  -12.7626 C   0  0  1  0  0  0  0  0  0  0  0  0
   26.0621  -21.3787  -12.1222 C   0  0  0  0  0  0  0  0  0  0  0  0
   26.0453  -20.6755  -10.8255 C   0  0  0  0  0  0  0  0  0  0  0  0
   26.7767  -19.5309  -10.5985 C   0  0  0  0  0  0  0  0  0  0  0  0
   26.7614  -18.8618   -9.3830 C   0  0  0  0  0  0  0  0  0  0  0  0
   25.9965  -19.3301   -8.3369 C   0  0  0  0  0  0  0  0  0  0  0  0
   25.2582  -20.4767   -8.5500 C   0  0  0  0  0  0  0  0  0  0  0  0
   25.2731  -21.1402   -9.7550 C   0  0  0  0  0  0  0  0  0  0  0  0
   23.6432  -21.3166  -11.7616 C   0  0  0  0  0  0  0  0  0  0  0  0
   23.3050  -22.4317  -11.0062 O   0  0  0  0  0  0  0  0  0  0  0  0
   23.0452  -20.2120  -11.5959 O   0  0  0  0  0  0  0  0  0  0  0  0
  2  1  1  6
  3  2  1  0
  4  5  1  6
  4  2  1  0
  6  4  1  0
  7  6  2  0
  8  9  1  0
  9 10  2  0
 10 11  1  0
 12 11  2  0
 12 13  1  0
 14 13  1  6
 14 15  1  0
 15  6  1  0
 16 14  1  0
 16 20  1  0
 17 16  2  0
 18 12  1  0
 19 18  2  0
 19  9  1  0
 21 22  1  1
 21 20  1  0
 21 29  1  0
 23 28  1  0
 23 22  1  0
 24 23  2  0
 25 26  2  0
 25 24  1  0
 26 27  1  0
 27 28  2  0
 29 30  1  0
 31 29  2  0
M  END
$$$$
