VYF.pdb
     RDKit          3D

 31 32  0  0  1  0  0  0  0  0999 V2000
   23.6186  -38.1560   -8.4554 C   0  0  0  0  0  0  0  0  0  0  0  0
   23.5358  -37.5847   -9.8431 C   0  0  1  0  0  0  0  0  0  0  0  0
   22.5615  -38.3015  -10.7194 C   0  0  0  0  0  0  0  0  0  0  0  0
   23.2202  -36.1141   -9.8521 C   0  0  2  0  0  0  0  0  0  0  0  0
   23.3118  -35.6295  -11.1928 N   0  0  0  0  0  0  0  0  0  0  0  0
   24.0381  -35.3182   -8.9421 C   0  0  0  0  0  0  0  0  0  0  0  0
   25.0941  -34.7141   -9.2621 O   0  0  0  0  0  0  0  0  0  0  0  0
   22.4372  -29.2451  -10.0861 O   0  0  0  0  0  0  0  0  0  0  0  0
   22.6827  -30.2256   -9.1296 C   0  0  0  0  0  0  0  0  0  0  0  0
   21.7721  -31.2282   -8.9064 C   0  0  0  0  0  0  0  0  0  0  0  0
   22.0194  -32.2011   -7.9551 C   0  0  0  0  0  0  0  0  0  0  0  0
   23.1726  -32.2188   -7.1915 C   0  0  0  0  0  0  0  0  0  0  0  0
   23.4654  -33.2211   -6.1623 C   0  0  0  0  0  0  0  0  0  0  0  0
   24.3068  -34.3795   -6.6032 C   0  0  2  0  0  0  0  0  0  0  0  0
   23.6272  -35.2043   -7.5864 N   0  0  0  0  0  0  0  0  0  0  0  0
   24.6141  -35.2234   -5.4315 C   0  0  0  0  0  0  0  0  0  0  0  0
   23.8573  -36.1336   -4.9880 O   0  0  0  0  0  0  0  0  0  0  0  0
   24.0783  -31.2082   -7.4240 C   0  0  0  0  0  0  0  0  0  0  0  0
   23.8408  -30.2202   -8.3815 C   0  0  0  0  0  0  0  0  0  0  0  0
   25.8266  -35.0463   -4.7145 N   0  0  0  0  0  0  0  0  0  0  0  0
   26.2362  -35.9299   -3.6104 C   0  0  1  0  0  0  0  0  0  0  0  0
   27.7438  -35.9280   -3.6141 C   0  0  0  0  0  0  0  0  0  0  0  0
   28.2970  -36.7635   -2.5314 C   0  0  0  0  0  0  0  0  0  0  0  0
   28.5766  -38.1010   -2.7026 C   0  0  0  0  0  0  0  0  0  0  0  0
   29.1018  -38.8913   -1.6901 C   0  0  0  0  0  0  0  0  0  0  0  0
   29.3676  -38.3530   -0.4499 C   0  0  0  0  0  0  0  0  0  0  0  0
   29.0921  -37.0133   -0.2637 C   0  0  0  0  0  0  0  0  0  0  0  0
   28.5716  -36.2296   -1.2674 C   0  0  0  0  0  0  0  0  0  0  0  0
   25.7113  -35.4248   -2.3488 C   0  0  0  0  0  0  0  0  0  0  0  0
   25.2975  -34.1030   -2.2495 O   0  0  0  0  0  0  0  0  0  0  0  0
   25.6419  -36.2055   -1.3534 O   0  0  0  0  0  0  0  0  0  0  0  0
  2  1  1  1
  3  2  1  0
  4  5  1  6
  4  2  1  0
  6  4  1  0
  7  6  2  0
  8  9  1  0
  9 10  2  0
 10 11  1  0
 12 11  2  0
 12 13  1  0
 14 13  1  1
 14 15  1  0
 15  6  1  0
 16 14  1  0
 16 20  1  0
 17 16  2  0
 18 12  1  0
 19 18  2  0
 19  9  1  0
 21 22  1  1
 21 20  1  0
 21 29  1  0
 23 28  1  0
 23 22  1  0
 24 23  2  0
 25 26  2  0
 25 24  1  0
 26 27  1  0
 27 28  2  0
 29 30  1  0
 31 29  2  0
M  END
$$$$
