VYF.pdb
     RDKit          3D

 31 32  0  0  1  0  0  0  0  0999 V2000
   28.9315  -18.5185  -15.1637 C   0  0  0  0  0  0  0  0  0  0  0  0
   28.1004  -19.5226  -14.4153 C   0  0  1  0  0  0  0  0  0  0  0  0
   28.2386  -19.4150  -12.9320 C   0  0  0  0  0  0  0  0  0  0  0  0
   26.6427  -19.4644  -14.7816 C   0  0  2  0  0  0  0  0  0  0  0  0
   26.1695  -18.1308  -14.5864 N   0  0  0  0  0  0  0  0  0  0  0  0
   25.8072  -20.4333  -14.0789 C   0  0  0  0  0  0  0  0  0  0  0  0
   25.8584  -21.6800  -14.2383 O   0  0  0  0  0  0  0  0  0  0  0  0
   28.9390  -21.0270   -8.1493 O   0  0  0  0  0  0  0  0  0  0  0  0
   27.7307  -20.8944   -8.8267 C   0  0  0  0  0  0  0  0  0  0  0  0
   27.4567  -21.6695   -9.9260 C   0  0  0  0  0  0  0  0  0  0  0  0
   26.2547  -21.5352  -10.5968 C   0  0  0  0  0  0  0  0  0  0  0  0
   25.2821  -20.6323  -10.2068 C   0  0  0  0  0  0  0  0  0  0  0  0
   24.0031  -20.4469  -10.8994 C   0  0  0  0  0  0  0  0  0  0  0  0
   23.9911  -20.8126  -12.3521 C   0  0  2  0  0  0  0  0  0  0  0  0
   24.8567  -19.9516  -13.1385 N   0  0  0  0  0  0  0  0  0  0  0  0
   22.6157  -20.6755  -12.8705 C   0  0  0  0  0  0  0  0  0  0  0  0
   21.9799  -19.5845  -12.9304 O   0  0  0  0  0  0  0  0  0  0  0  0
   25.5682  -19.8602   -9.1034 C   0  0  0  0  0  0  0  0  0  0  0  0
   26.7776  -19.9861   -8.4172 C   0  0  0  0  0  0  0  0  0  0  0  0
   21.9093  -21.8107  -13.3475 N   0  0  0  0  0  0  0  0  0  0  0  0
   20.5187  -21.7412  -13.8264 C   0  0  1  0  0  0  0  0  0  0  0  0
   20.4888  -22.5022  -15.1276 C   0  0  0  0  0  0  0  0  0  0  0  0
   19.1177  -22.6339  -15.6557 C   0  0  0  0  0  0  0  0  0  0  0  0
   18.4923  -21.6179  -16.3436 C   0  0  0  0  0  0  0  0  0  0  0  0
   17.2048  -21.7372  -16.8473 C   0  0  0  0  0  0  0  0  0  0  0  0
   16.4911  -22.9028  -16.6726 C   0  0  0  0  0  0  0  0  0  0  0  0
   17.1053  -23.9298  -15.9847 C   0  0  0  0  0  0  0  0  0  0  0  0
   18.3817  -23.8118  -15.4853 C   0  0  0  0  0  0  0  0  0  0  0  0
   19.6246  -22.3403  -12.8446 C   0  0  0  0  0  0  0  0  0  0  0  0
   20.0283  -23.4619  -12.1323 O   0  0  0  0  0  0  0  0  0  0  0  0
   18.4825  -21.8253  -12.6560 O   0  0  0  0  0  0  0  0  0  0  0  0
  2  1  1  6
  3  2  1  0
  4  5  1  1
  4  2  1  0
  6  4  1  0
  7  6  2  0
  8  9  1  0
  9 10  2  0
 10 11  1  0
 12 11  2  0
 12 13  1  0
 14 13  1  1
 14 15  1  0
 15  6  1  0
 16 14  1  0
 16 20  1  0
 17 16  2  0
 18 12  1  0
 19 18  2  0
 19  9  1  0
 21 22  1  6
 21 20  1  0
 21 29  1  0
 23 28  1  0
 23 22  1  0
 24 23  2  0
 25 26  2  0
 25 24  1  0
 26 27  1  0
 27 28  2  0
 29 30  1  0
 31 29  2  0
M  END
$$$$
