VYF.pdb
     RDKit          3D

 31 32  0  0  1  0  0  0  0  0999 V2000
   22.8791  -12.1260  -19.3978 C   0  0  0  0  0  0  0  0  0  0  0  0
   23.2509  -13.5381  -19.0420 C   0  0  1  0  0  0  0  0  0  0  0  0
   23.5235  -14.3951  -20.2346 C   0  0  0  0  0  0  0  0  0  0  0  0
   24.4208  -13.6152  -18.0998 C   0  0  2  0  0  0  0  0  0  0  0  0
   24.7330  -14.9885  -17.8612 N   0  0  0  0  0  0  0  0  0  0  0  0
   24.2338  -12.8872  -16.8485 C   0  0  0  0  0  0  0  0  0  0  0  0
   23.6079  -13.3218  -15.8476 O   0  0  0  0  0  0  0  0  0  0  0  0
   30.3702   -9.7461  -18.4762 O   0  0  0  0  0  0  0  0  0  0  0  0
   29.2927   -9.9131  -17.6116 C   0  0  0  0  0  0  0  0  0  0  0  0
   28.3307   -8.9406  -17.4973 C   0  0  0  0  0  0  0  0  0  0  0  0
   27.2610   -9.1099  -16.6371 C   0  0  0  0  0  0  0  0  0  0  0  0
   27.1033  -10.2435  -15.8604 C   0  0  0  0  0  0  0  0  0  0  0  0
   25.9945  -10.4549  -14.9246 C   0  0  0  0  0  0  0  0  0  0  0  0
   24.6658  -10.7552  -15.5478 C   0  0  2  0  0  0  0  0  0  0  0  0
   24.7940  -11.5863  -16.7318 N   0  0  0  0  0  0  0  0  0  0  0  0
   24.0243   -9.4867  -15.9462 C   0  0  0  0  0  0  0  0  0  0  0  0
   24.2370   -8.8911  -17.0407 O   0  0  0  0  0  0  0  0  0  0  0  0
   28.0745  -11.2117  -15.9832 C   0  0  0  0  0  0  0  0  0  0  0  0
   29.1591  -11.0532  -16.8479 C   0  0  0  0  0  0  0  0  0  0  0  0
   23.0976   -8.8459  -15.0825 N   0  0  0  0  0  0  0  0  0  0  0  0
   22.3571   -7.6327  -15.4666 C   0  0  1  0  0  0  0  0  0  0  0  0
   21.5839   -7.9939  -16.7095 C   0  0  0  0  0  0  0  0  0  0  0  0
   20.5779   -9.0403  -16.4461 C   0  0  0  0  0  0  0  0  0  0  0  0
   20.7160  -10.3290  -16.9118 C   0  0  0  0  0  0  0  0  0  0  0  0
   19.7762  -11.3192  -16.6632 C   0  0  0  0  0  0  0  0  0  0  0  0
   18.6463  -11.0411  -15.9252 C   0  0  0  0  0  0  0  0  0  0  0  0
   18.4945   -9.7533  -15.4520 C   0  0  0  0  0  0  0  0  0  0  0  0
   19.4262   -8.7715  -15.6982 C   0  0  0  0  0  0  0  0  0  0  0  0
   21.4638   -7.2332  -14.3874 C   0  0  0  0  0  0  0  0  0  0  0  0
   20.6762   -6.0977  -14.5236 O   0  0  0  0  0  0  0  0  0  0  0  0
   21.4208   -7.9329  -13.3321 O   0  0  0  0  0  0  0  0  0  0  0  0
  2  1  1  6
  3  2  1  0
  4  5  1  1
  4  2  1  0
  6  4  1  0
  7  6  2  0
  8  9  1  0
  9 10  2  0
 10 11  1  0
 12 11  2  0
 12 13  1  0
 14 13  1  6
 14 15  1  0
 15  6  1  0
 16 14  1  0
 16 20  1  0
 17 16  2  0
 18 12  1  0
 19 18  2  0
 19  9  1  0
 21 22  1  6
 21 20  1  0
 21 29  1  0
 23 28  1  0
 23 22  1  0
 24 23  2  0
 25 26  2  0
 25 24  1  0
 26 27  1  0
 27 28  2  0
 29 30  1  0
 31 29  2  0
M  END
$$$$
