VYF.pdb
     RDKit          3D

 31 32  0  0  1  0  0  0  0  0999 V2000
   29.3057  -18.9853  -13.1557 C   0  0  0  0  0  0  0  0  0  0  0  0
   28.5280  -18.6515  -14.3977 C   0  0  1  0  0  0  0  0  0  0  0  0
   29.3493  -18.7158  -15.6435 C   0  0  0  0  0  0  0  0  0  0  0  0
   27.3029  -19.5074  -14.5682 C   0  0  2  0  0  0  0  0  0  0  0  0
   26.6753  -19.1751  -15.8077 N   0  0  0  0  0  0  0  0  0  0  0  0
   26.3587  -19.4336  -13.4576 C   0  0  0  0  0  0  0  0  0  0  0  0
   25.6422  -18.4363  -13.1847 O   0  0  0  0  0  0  0  0  0  0  0  0
   20.1089  -19.2439  -14.8581 O   0  0  0  0  0  0  0  0  0  0  0  0
   21.1020  -19.7787  -14.0430 C   0  0  0  0  0  0  0  0  0  0  0  0
   21.1340  -19.4929  -12.7008 C   0  0  0  0  0  0  0  0  0  0  0  0
   22.1223  -20.0262  -11.8936 C   0  0  0  0  0  0  0  0  0  0  0  0
   23.1126  -20.8594  -12.3820 C   0  0  0  0  0  0  0  0  0  0  0  0
   24.1868  -21.4315  -11.5646 C   0  0  0  0  0  0  0  0  0  0  0  0
   25.4081  -20.5786  -11.4059 C   0  0  2  0  0  0  0  0  0  0  0  0
   26.2234  -20.5645  -12.6075 N   0  0  0  0  0  0  0  0  0  0  0  0
   26.2286  -21.1153  -10.3022 C   0  0  0  0  0  0  0  0  0  0  0  0
   27.3479  -21.6827  -10.4542 O   0  0  0  0  0  0  0  0  0  0  0  0
   23.0704  -21.1386  -13.7296 C   0  0  0  0  0  0  0  0  0  0  0  0
   22.0781  -20.6068  -14.5553 C   0  0  0  0  0  0  0  0  0  0  0  0
   25.7816  -21.0161   -8.9584 N   0  0  0  0  0  0  0  0  0  0  0  0
   26.5774  -21.4953   -7.8161 C   0  0  1  0  0  0  0  0  0  0  0  0
   27.8606  -20.7043   -7.8426 C   0  0  0  0  0  0  0  0  0  0  0  0
   28.1183  -20.0320   -6.5550 C   0  0  0  0  0  0  0  0  0  0  0  0
   29.1598  -19.1480   -6.3809 C   0  0  0  0  0  0  0  0  0  0  0  0
   29.4047  -18.5084   -5.1740 C   0  0  0  0  0  0  0  0  0  0  0  0
   28.5959  -18.7410   -4.0830 C   0  0  0  0  0  0  0  0  0  0  0  0
   27.5479  -19.6250   -4.2428 C   0  0  0  0  0  0  0  0  0  0  0  0
   27.3050  -20.2591   -5.4392 C   0  0  0  0  0  0  0  0  0  0  0  0
   25.8476  -21.2748   -6.5747 C   0  0  0  0  0  0  0  0  0  0  0  0
   26.2721  -21.8866   -5.4026 O   0  0  0  0  0  0  0  0  0  0  0  0
   24.8275  -20.5235   -6.5847 O   0  0  0  0  0  0  0  0  0  0  0  0
  2  1  1  1
  3  2  1  0
  4  5  1  6
  4  2  1  0
  6  4  1  0
  7  6  2  0
  8  9  1  0
  9 10  2  0
 10 11  1  0
 12 11  2  0
 12 13  1  0
 14 13  1  6
 14 15  1  0
 15  6  1  0
 16 14  1  0
 16 20  1  0
 17 16  2  0
 18 12  1  0
 19 18  2  0
 19  9  1  0
 21 22  1  1
 21 20  1  0
 21 29  1  0
 23 28  1  0
 23 22  1  0
 24 23  2  0
 25 26  2  0
 25 24  1  0
 26 27  1  0
 27 28  2  0
 29 30  1  0
 31 29  2  0
M  END
$$$$
