VYF.pdb
     RDKit          3D

 31 32  0  0  1  0  0  0  0  0999 V2000
   31.0568  -22.0618  -21.6650 C   0  0  0  0  0  0  0  0  0  0  0  0
   29.9113  -22.8611  -21.1104 C   0  0  1  0  0  0  0  0  0  0  0  0
   28.9208  -23.2728  -22.1498 C   0  0  0  0  0  0  0  0  0  0  0  0
   30.3616  -24.0767  -20.3474 C   0  0  2  0  0  0  0  0  0  0  0  0
   31.0878  -24.9338  -21.2297 N   0  0  0  0  0  0  0  0  0  0  0  0
   29.2853  -24.7962  -19.6735 C   0  0  0  0  0  0  0  0  0  0  0  0
   28.6359  -25.7528  -20.1691 O   0  0  0  0  0  0  0  0  0  0  0  0
   30.5800  -30.8311  -17.6499 O   0  0  0  0  0  0  0  0  0  0  0  0
   30.0169  -29.5960  -17.3438 C   0  0  0  0  0  0  0  0  0  0  0  0
   28.7040  -29.5033  -16.9540 C   0  0  0  0  0  0  0  0  0  0  0  0
   28.1477  -28.2741  -16.6504 C   0  0  0  0  0  0  0  0  0  0  0  0
   28.8665  -27.0944  -16.7207 C   0  0  0  0  0  0  0  0  0  0  0  0
   28.3107  -25.7706  -16.4240 C   0  0  0  0  0  0  0  0  0  0  0  0
   27.8303  -24.9868  -17.6069 C   0  0  2  0  0  0  0  0  0  0  0  0
   28.9282  -24.4014  -18.3557 N   0  0  0  0  0  0  0  0  0  0  0  0
   26.9614  -23.8902  -17.1357 C   0  0  0  0  0  0  0  0  0  0  0  0
   27.3837  -22.7932  -16.6708 O   0  0  0  0  0  0  0  0  0  0  0  0
   30.1820  -27.1998  -17.1131 C   0  0  0  0  0  0  0  0  0  0  0  0
   30.7557  -28.4345  -17.4222 C   0  0  0  0  0  0  0  0  0  0  0  0
   25.5485  -24.0196  -17.1836 N   0  0  0  0  0  0  0  0  0  0  0  0
   24.6353  -22.9822  -16.6760 C   0  0  1  0  0  0  0  0  0  0  0  0
   24.1328  -22.2412  -17.8891 C   0  0  0  0  0  0  0  0  0  0  0  0
   23.0607  -21.2879  -17.5456 C   0  0  0  0  0  0  0  0  0  0  0  0
   23.3190  -19.9756  -17.2174 C   0  0  0  0  0  0  0  0  0  0  0  0
   22.3150  -19.0725  -16.8983 C   0  0  0  0  0  0  0  0  0  0  0  0
   20.9946  -19.4664  -16.8986 C   0  0  0  0  0  0  0  0  0  0  0  0
   20.7207  -20.7792  -17.2255 C   0  0  0  0  0  0  0  0  0  0  0  0
   21.7159  -21.6746  -17.5420 C   0  0  0  0  0  0  0  0  0  0  0  0
   23.5381  -23.6009  -15.9442 C   0  0  0  0  0  0  0  0  0  0  0  0
   23.1620  -24.9064  -16.2314 O   0  0  0  0  0  0  0  0  0  0  0  0
   22.9383  -22.9319  -15.0511 O   0  0  0  0  0  0  0  0  0  0  0  0
  2  1  1  6
  3  2  1  0
  4  5  1  6
  4  2  1  0
  6  4  1  0
  7  6  2  0
  8  9  1  0
  9 10  2  0
 10 11  1  0
 12 11  2  0
 12 13  1  0
 14 13  1  1
 14 15  1  0
 15  6  1  0
 16 14  1  0
 16 20  1  0
 17 16  2  0
 18 12  1  0
 19 18  2  0
 19  9  1  0
 21 22  1  6
 21 20  1  0
 21 29  1  0
 23 28  1  0
 23 22  1  0
 24 23  2  0
 25 26  2  0
 25 24  1  0
 26 27  1  0
 27 28  2  0
 29 30  1  0
 31 29  2  0
M  END
$$$$
