VYF.pdb
     RDKit          3D

 31 32  0  0  1  0  0  0  0  0999 V2000
   27.5681  -24.4359  -19.3361 C   0  0  0  0  0  0  0  0  0  0  0  0
   27.3172  -23.8347  -17.9817 C   0  0  1  0  0  0  0  0  0  0  0  0
   27.5788  -24.7828  -16.8575 C   0  0  0  0  0  0  0  0  0  0  0  0
   28.0944  -22.5678  -17.7511 C   0  0  2  0  0  0  0  0  0  0  0  0
   29.4889  -22.8514  -17.8753 N   0  0  0  0  0  0  0  0  0  0  0  0
   27.7978  -21.9024  -16.4863 C   0  0  0  0  0  0  0  0  0  0  0  0
   28.5425  -21.9146  -15.4725 O   0  0  0  0  0  0  0  0  0  0  0  0
   22.7929  -17.6054  -19.9162 O   0  0  0  0  0  0  0  0  0  0  0  0
   23.6084  -17.9327  -18.8371 C   0  0  0  0  0  0  0  0  0  0  0  0
   24.9201  -18.2860  -19.0339 C   0  0  0  0  0  0  0  0  0  0  0  0
   25.7278  -18.6106  -17.9592 C   0  0  0  0  0  0  0  0  0  0  0  0
   25.2699  -18.5979  -16.6540 C   0  0  0  0  0  0  0  0  0  0  0  0
   26.0876  -18.9510  -15.4893 C   0  0  0  0  0  0  0  0  0  0  0  0
   26.2024  -20.4153  -15.1951 C   0  0  2  0  0  0  0  0  0  0  0  0
   26.5793  -21.1800  -16.3706 N   0  0  0  0  0  0  0  0  0  0  0  0
   24.8953  -20.9144  -14.7239 C   0  0  0  0  0  0  0  0  0  0  0  0
   24.0466  -21.4978  -15.4569 O   0  0  0  0  0  0  0  0  0  0  0  0
   23.9528  -18.2423  -16.4691 C   0  0  0  0  0  0  0  0  0  0  0  0
   23.1269  -17.9123  -17.5453 C   0  0  0  0  0  0  0  0  0  0  0  0
   24.5110  -20.7569  -13.3664 N   0  0  0  0  0  0  0  0  0  0  0  0
   23.2782  -21.3422  -12.8137 C   0  0  1  0  0  0  0  0  0  0  0  0
   23.6800  -22.0199  -11.5283 C   0  0  0  0  0  0  0  0  0  0  0  0
   24.3602  -21.0905  -10.6064 C   0  0  0  0  0  0  0  0  0  0  0  0
   23.6696  -20.3001   -9.7148 C   0  0  0  0  0  0  0  0  0  0  0  0
   24.3035  -19.4277   -8.8416 C   0  0  0  0  0  0  0  0  0  0  0  0
   25.6771  -19.3192   -8.8362 C   0  0  0  0  0  0  0  0  0  0  0  0
   26.3824  -20.1054   -9.7248 C   0  0  0  0  0  0  0  0  0  0  0  0
   25.7542  -20.9705  -10.5906 C   0  0  0  0  0  0  0  0  0  0  0  0
   22.2955  -20.2943  -12.5725 C   0  0  0  0  0  0  0  0  0  0  0  0
   20.9970  -20.6308  -12.2132 O   0  0  0  0  0  0  0  0  0  0  0  0
   22.6434  -19.0825  -12.6972 O   0  0  0  0  0  0  0  0  0  0  0  0
  2  1  1  6
  3  2  1  0
  4  5  1  1
  4  2  1  0
  6  4  1  0
  7  6  2  0
  8  9  1  0
  9 10  2  0
 10 11  1  0
 12 11  2  0
 12 13  1  0
 14 13  1  6
 14 15  1  0
 15  6  1  0
 16 14  1  0
 16 20  1  0
 17 16  2  0
 18 12  1  0
 19 18  2  0
 19  9  1  0
 21 22  1  1
 21 20  1  0
 21 29  1  0
 23 28  1  0
 23 22  1  0
 24 23  2  0
 25 26  2  0
 25 24  1  0
 26 27  1  0
 27 28  2  0
 29 30  1  0
 31 29  2  0
M  END
$$$$
