VYF.pdb
     RDKit          3D

 31 32  0  0  1  0  0  0  0  0999 V2000
   27.4818  -11.2591  -16.5701 C   0  0  0  0  0  0  0  0  0  0  0  0
   28.7752  -11.4667  -17.3069 C   0  0  1  0  0  0  0  0  0  0  0  0
   29.2152  -12.8937  -17.3367 C   0  0  0  0  0  0  0  0  0  0  0  0
   28.7404  -10.9305  -18.7118 C   0  0  2  0  0  0  0  0  0  0  0  0
   30.0403  -11.0619  -19.2894 N   0  0  0  0  0  0  0  0  0  0  0  0
   28.2463   -9.5613  -18.8206 C   0  0  0  0  0  0  0  0  0  0  0  0
   28.9185   -8.5292  -18.5655 O   0  0  0  0  0  0  0  0  0  0  0  0
   30.0969   -6.6662  -24.4079 O   0  0  0  0  0  0  0  0  0  0  0  0
   29.0632   -6.9405  -23.5176 C   0  0  0  0  0  0  0  0  0  0  0  0
   28.3926   -8.1369  -23.5719 C   0  0  0  0  0  0  0  0  0  0  0  0
   27.3658   -8.4062  -22.6853 C   0  0  0  0  0  0  0  0  0  0  0  0
   26.9653   -7.5053  -21.7152 C   0  0  0  0  0  0  0  0  0  0  0  0
   25.8719   -7.7445  -20.7681 C   0  0  0  0  0  0  0  0  0  0  0  0
   26.2853   -8.0492  -19.3608 C   0  0  2  0  0  0  0  0  0  0  0  0
   26.9055   -9.3572  -19.2455 N   0  0  0  0  0  0  0  0  0  0  0  0
   25.0900   -8.0313  -18.4946 C   0  0  0  0  0  0  0  0  0  0  0  0
   24.1856   -8.9144  -18.5062 O   0  0  0  0  0  0  0  0  0  0  0  0
   27.6449   -6.3088  -21.6706 C   0  0  0  0  0  0  0  0  0  0  0  0
   28.6832   -6.0246  -22.5596 C   0  0  0  0  0  0  0  0  0  0  0  0
   24.8890   -6.9762  -17.5663 N   0  0  0  0  0  0  0  0  0  0  0  0
   23.7324   -6.9240  -16.6567 C   0  0  1  0  0  0  0  0  0  0  0  0
   24.3022   -6.8918  -15.2613 C   0  0  0  0  0  0  0  0  0  0  0  0
   23.2431   -6.8190  -14.2369 C   0  0  0  0  0  0  0  0  0  0  0  0
   22.7184   -5.6218  -13.8036 C   0  0  0  0  0  0  0  0  0  0  0  0
   21.7186   -5.5465  -12.8442 C   0  0  0  0  0  0  0  0  0  0  0  0
   21.2047   -6.6931  -12.2788 C   0  0  0  0  0  0  0  0  0  0  0  0
   21.7214   -7.9006  -12.7035 C   0  0  0  0  0  0  0  0  0  0  0  0
   22.7125   -7.9754  -13.6546 C   0  0  0  0  0  0  0  0  0  0  0  0
   22.9388   -5.7333  -16.9299 C   0  0  0  0  0  0  0  0  0  0  0  0
   21.5728   -5.7380  -16.6804 O   0  0  0  0  0  0  0  0  0  0  0  0
   23.5121   -4.7043  -17.3964 O   0  0  0  0  0  0  0  0  0  0  0  0
  2  1  1  6
  3  2  1  0
  4  5  1  1
  4  2  1  0
  6  4  1  0
  7  6  2  0
  8  9  1  0
  9 10  2  0
 10 11  1  0
 12 11  2  0
 12 13  1  0
 14 13  1  6
 14 15  1  0
 15  6  1  0
 16 14  1  0
 16 20  1  0
 17 16  2  0
 18 12  1  0
 19 18  2  0
 19  9  1  0
 21 22  1  1
 21 20  1  0
 21 29  1  0
 23 28  1  0
 23 22  1  0
 24 23  2  0
 25 26  2  0
 25 24  1  0
 26 27  1  0
 27 28  2  0
 29 30  1  0
 31 29  2  0
M  END
$$$$
