YYK.pdb
     RDKit          3D

 34 35  0  0  1  0  0  0  0  0999 V2000
   31.2203  -15.5011  -20.8442 O   0  0  0  0  0  0  0  0  0  0  0  0
   30.3359  -16.2531  -20.0677 C   0  0  0  0  0  0  0  0  0  0  0  0
   29.2656  -16.9049  -20.6463 C   0  0  0  0  0  0  0  0  0  0  0  0
   28.3825  -17.6518  -19.8954 C   0  0  0  0  0  0  0  0  0  0  0  0
   28.5320  -17.7793  -18.5306 C   0  0  0  0  0  0  0  0  0  0  0  0
   27.5678  -18.5920  -17.7267 C   0  0  0  0  0  0  0  0  0  0  0  0
   28.3179  -19.8427  -17.2510 C   0  0  2  0  0  0  0  0  0  0  0  0
   28.3381  -20.7962  -18.3467 N   0  0  0  0  0  0  0  0  0  0  0  0
   27.5699  -20.4412  -16.1035 C   0  0  0  0  0  0  0  0  0  0  0  0
   26.6269  -21.2717  -16.3234 O   0  0  0  0  0  0  0  0  0  0  0  0
   29.6046  -17.1266  -17.9477 C   0  0  0  0  0  0  0  0  0  0  0  0
   30.4903  -16.3774  -18.7020 C   0  0  0  0  0  0  0  0  0  0  0  0
   23.7130  -21.1618   -8.2664 O   0  0  0  0  0  0  0  0  0  0  0  0
   24.6395  -20.8770   -9.2616 C   0  0  0  0  0  0  0  0  0  0  0  0
   24.7925  -19.5884   -9.7274 C   0  0  0  0  0  0  0  0  0  0  0  0
   25.7275  -19.3072  -10.7302 C   0  0  0  0  0  0  0  0  0  0  0  0
   26.5219  -20.2785  -11.2885 C   0  0  0  0  0  0  0  0  0  0  0  0
   27.5243  -20.0341  -12.3518 C   0  0  0  0  0  0  0  0  0  0  0  0
   27.0166  -20.5007  -13.7088 C   0  0  2  0  0  0  0  0  0  0  0  0
   27.8878  -20.1038  -14.7666 N   0  0  0  0  0  0  0  0  0  0  0  0
   25.6154  -20.0519  -13.8479 C   0  0  0  0  0  0  0  0  0  0  0  0
   25.3524  -18.8447  -14.1714 O   0  0  0  0  0  0  0  0  0  0  0  0
   26.3425  -21.5775  -10.7937 C   0  0  0  0  0  0  0  0  0  0  0  0
   25.4259  -21.8705   -9.8064 C   0  0  0  0  0  0  0  0  0  0  0  0
   24.4998  -20.8956  -13.6450 N   0  0  0  0  0  0  0  0  0  0  0  0
   23.1217  -20.4390  -13.8287 C   0  0  1  0  0  0  0  0  0  0  0  0
   22.7475  -20.5616  -15.2788 C   0  0  0  0  0  0  0  0  0  0  0  0
   21.3648  -20.2172  -15.6445 C   0  0  0  0  0  0  0  0  0  0  0  0
   21.0571  -20.3190  -17.0928 C   0  0  0  0  0  0  0  0  0  0  0  0
   19.6097  -19.9088  -17.3323 C   0  0  0  0  0  0  0  0  0  0  0  0
   19.6337  -18.5018  -17.7597 N   0  0  0  0  0  0  0  0  0  0  0  0
   22.2534  -21.0658  -12.8450 C   0  0  0  0  0  0  0  0  0  0  0  0
   22.5033  -22.3236  -12.2584 O   0  0  0  0  0  0  0  0  0  0  0  0
   21.1985  -20.4921  -12.4552 O   0  0  0  0  0  0  0  0  0  0  0  0
  2  1  1  0
  3  2  2  0
  4  3  1  0
  5  4  2  0
  5 11  1  0
  6  5  1  0
  7  8  1  6
  7  6  1  0
  9  7  1  0
  9 10  2  0
 11 12  2  0
 12  2  1  0
 14 24  2  0
 14 13  1  0
 15 14  1  0
 16 17  1  0
 16 15  2  0
 17 23  2  0
 18 17  1  0
 19 18  1  1
 19 20  1  0
 20  9  1  0
 21 19  1  0
 22 21  2  0
 23 24  1  0
 25 21  1  0
 26 25  1  0
 26 27  1  6
 27 28  1  0
 28 29  1  0
 29 30  1  0
 30 31  1  0
 32 26  1  0
 33 32  1  0
 34 32  2  0
M  END
$$$$
