YYK.pdb
     RDKit          3D

 34 35  0  0  1  0  0  0  0  0999 V2000
   29.8246  -19.6707   -3.5644 O   0  0  0  0  0  0  0  0  0  0  0  0
   29.0298  -19.9886   -4.6680 C   0  0  0  0  0  0  0  0  0  0  0  0
   29.6022  -20.3238   -5.8785 C   0  0  0  0  0  0  0  0  0  0  0  0
   28.8333  -20.6404   -6.9785 C   0  0  0  0  0  0  0  0  0  0  0  0
   27.4559  -20.6356   -6.9153 C   0  0  0  0  0  0  0  0  0  0  0  0
   26.6324  -20.9808   -8.1150 C   0  0  0  0  0  0  0  0  0  0  0  0
   26.8172  -19.8468   -9.1314 C   0  0  2  0  0  0  0  0  0  0  0  0
   26.2910  -18.6277   -8.5423 N   0  0  0  0  0  0  0  0  0  0  0  0
   26.0270  -20.1708  -10.3582 C   0  0  0  0  0  0  0  0  0  0  0  0
   24.7803  -19.9038  -10.4000 O   0  0  0  0  0  0  0  0  0  0  0  0
   26.8792  -20.2998   -5.7025 C   0  0  0  0  0  0  0  0  0  0  0  0
   27.6516  -19.9822   -4.5992 C   0  0  0  0  0  0  0  0  0  0  0  0
   28.2086  -16.2840  -16.6993 O   0  0  0  0  0  0  0  0  0  0  0  0
   27.9020  -17.4522  -16.0129 C   0  0  0  0  0  0  0  0  0  0  0  0
   28.8977  -18.1927  -15.4120 C   0  0  0  0  0  0  0  0  0  0  0  0
   28.5832  -19.3689  -14.7217 C   0  0  0  0  0  0  0  0  0  0  0  0
   27.2960  -19.8346  -14.6104 C   0  0  0  0  0  0  0  0  0  0  0  0
   26.9104  -21.0725  -13.8932 C   0  0  0  0  0  0  0  0  0  0  0  0
   25.9621  -20.7719  -12.7412 C   0  0  2  0  0  0  0  0  0  0  0  0
   26.6370  -20.7725  -11.4842 N   0  0  0  0  0  0  0  0  0  0  0  0
   24.8185  -21.7030  -12.8399 C   0  0  0  0  0  0  0  0  0  0  0  0
   24.9330  -22.9117  -12.4439 O   0  0  0  0  0  0  0  0  0  0  0  0
   26.3071  -19.0597  -15.2318 C   0  0  0  0  0  0  0  0  0  0  0  0
   26.6008  -17.8991  -15.9153 C   0  0  0  0  0  0  0  0  0  0  0  0
   23.5551  -21.3380  -13.3577 N   0  0  0  0  0  0  0  0  0  0  0  0
   22.4427  -22.2830  -13.4626 C   0  0  1  0  0  0  0  0  0  0  0  0
   21.3724  -21.9005  -12.4797 C   0  0  0  0  0  0  0  0  0  0  0  0
   20.1368  -22.6989  -12.4916 C   0  0  0  0  0  0  0  0  0  0  0  0
   19.0732  -22.2187  -11.5747 C   0  0  0  0  0  0  0  0  0  0  0  0
   17.8688  -23.1469  -11.6671 C   0  0  0  0  0  0  0  0  0  0  0  0
   16.8400  -22.5956  -10.7723 N   0  0  0  0  0  0  0  0  0  0  0  0
   22.0608  -22.4512  -14.8555 C   0  0  0  0  0  0  0  0  0  0  0  0
   22.3084  -21.4961  -15.8632 O   0  0  0  0  0  0  0  0  0  0  0  0
   21.4702  -23.4980  -15.2420 O   0  0  0  0  0  0  0  0  0  0  0  0
  2  1  1  0
  3  2  2  0
  4  3  1  0
  5  4  2  0
  5 11  1  0
  6  5  1  0
  7  8  1  1
  7  6  1  0
  9  7  1  0
  9 10  2  0
 11 12  2  0
 12  2  1  0
 14 24  2  0
 14 13  1  0
 15 14  1  0
 16 17  1  0
 16 15  2  0
 17 23  2  0
 18 17  1  0
 19 18  1  6
 19 20  1  0
 20  9  1  0
 21 19  1  0
 22 21  2  0
 23 24  1  0
 25 21  1  0
 26 25  1  0
 26 27  1  1
 27 28  1  0
 28 29  1  0
 29 30  1  0
 30 31  1  0
 32 26  1  0
 33 32  1  0
 34 32  2  0
M  END
$$$$
