YYK.pdb
     RDKit          3D

 34 35  0  0  1  0  0  0  0  0999 V2000
   20.7406  -24.1840  -26.3004 O   0  0  0  0  0  0  0  0  0  0  0  0
   20.7006  -24.1375  -24.9052 C   0  0  0  0  0  0  0  0  0  0  0  0
   21.2558  -23.0777  -24.2169 C   0  0  0  0  0  0  0  0  0  0  0  0
   21.2256  -23.0150  -22.8397 C   0  0  0  0  0  0  0  0  0  0  0  0
   20.6376  -24.0116  -22.0898 C   0  0  0  0  0  0  0  0  0  0  0  0
   20.6109  -23.9326  -20.5966 C   0  0  0  0  0  0  0  0  0  0  0  0
   22.0358  -24.2151  -20.1037 C   0  0  2  0  0  0  0  0  0  0  0  0
   22.3088  -25.6270  -20.3092 N   0  0  0  0  0  0  0  0  0  0  0  0
   22.1031  -23.9181  -18.6402 C   0  0  0  0  0  0  0  0  0  0  0  0
   21.5870  -24.7299  -17.8025 O   0  0  0  0  0  0  0  0  0  0  0  0
   20.0800  -25.0757  -22.7775 C   0  0  0  0  0  0  0  0  0  0  0  0
   20.1108  -25.1377  -24.1595 C   0  0  0  0  0  0  0  0  0  0  0  0
   27.4422  -26.7975  -16.8990 O   0  0  0  0  0  0  0  0  0  0  0  0
   26.6264  -25.6868  -16.7245 C   0  0  0  0  0  0  0  0  0  0  0  0
   25.6353  -25.6900  -15.7660 C   0  0  0  0  0  0  0  0  0  0  0  0
   24.8162  -24.5681  -15.5945 C   0  0  0  0  0  0  0  0  0  0  0  0
   24.9550  -23.4329  -16.3548 C   0  0  0  0  0  0  0  0  0  0  0  0
   24.1144  -22.2208  -16.2145 C   0  0  0  0  0  0  0  0  0  0  0  0
   22.7137  -22.4522  -16.7633 C   0  0  2  0  0  0  0  0  0  0  0  0
   22.7325  -22.7455  -18.1595 N   0  0  0  0  0  0  0  0  0  0  0  0
   21.8779  -21.2965  -16.3761 C   0  0  0  0  0  0  0  0  0  0  0  0
   22.0381  -20.1637  -16.9437 O   0  0  0  0  0  0  0  0  0  0  0  0
   25.9710  -23.4610  -17.3199 C   0  0  0  0  0  0  0  0  0  0  0  0
   26.7858  -24.5581  -17.5011 C   0  0  0  0  0  0  0  0  0  0  0  0
   20.8706  -21.3562  -15.3864 N   0  0  0  0  0  0  0  0  0  0  0  0
   19.9640  -20.2400  -15.1153 C   0  0  1  0  0  0  0  0  0  0  0  0
   18.5629  -20.7629  -14.9699 C   0  0  0  0  0  0  0  0  0  0  0  0
   17.5155  -19.7859  -14.6339 C   0  0  0  0  0  0  0  0  0  0  0  0
   16.1460  -20.3482  -14.5301 C   0  0  0  0  0  0  0  0  0  0  0  0
   15.1390  -19.2103  -14.4215 C   0  0  0  0  0  0  0  0  0  0  0  0
   13.8242  -19.8288  -14.1943 N   0  0  0  0  0  0  0  0  0  0  0  0
   20.4976  -19.4127  -14.0451 C   0  0  0  0  0  0  0  0  0  0  0  0
   20.1659  -18.0551  -13.8561 O   0  0  0  0  0  0  0  0  0  0  0  0
   21.3104  -19.8884  -13.2044 O   0  0  0  0  0  0  0  0  0  0  0  0
  2  1  1  0
  3  2  2  0
  4  3  1  0
  5  4  2  0
  5 11  1  0
  6  5  1  0
  7  8  1  1
  7  6  1  0
  9  7  1  0
  9 10  2  0
 11 12  2  0
 12  2  1  0
 14 24  2  0
 14 13  1  0
 15 14  1  0
 16 17  1  0
 16 15  2  0
 17 23  2  0
 18 17  1  0
 19 18  1  6
 19 20  1  0
 20  9  1  0
 21 19  1  0
 22 21  2  0
 23 24  1  0
 25 21  1  0
 26 25  1  0
 26 27  1  1
 27 28  1  0
 28 29  1  0
 29 30  1  0
 30 31  1  0
 32 26  1  0
 33 32  1  0
 34 32  2  0
M  END
$$$$
