YYK.pdb
     RDKit          3D

 34 35  0  0  1  0  0  0  0  0999 V2000
   28.2625  -21.0074  -23.3715 O   0  0  0  0  0  0  0  0  0  0  0  0
   27.5632  -21.3327  -22.2072 C   0  0  0  0  0  0  0  0  0  0  0  0
   27.2065  -20.3554  -21.3001 C   0  0  0  0  0  0  0  0  0  0  0  0
   26.5161  -20.6582  -20.1456 C   0  0  0  0  0  0  0  0  0  0  0  0
   26.1517  -21.9542  -19.8476 C   0  0  0  0  0  0  0  0  0  0  0  0
   25.4029  -22.2704  -18.5922 C   0  0  0  0  0  0  0  0  0  0  0  0
   26.4347  -22.3572  -17.4605 C   0  0  2  0  0  0  0  0  0  0  0  0
   27.1635  -23.6044  -17.6138 N   0  0  0  0  0  0  0  0  0  0  0  0
   25.7099  -22.3788  -16.1533 C   0  0  0  0  0  0  0  0  0  0  0  0
   25.1847  -23.4637  -15.7357 O   0  0  0  0  0  0  0  0  0  0  0  0
   26.5081  -22.9364  -20.7555 C   0  0  0  0  0  0  0  0  0  0  0  0
   27.2010  -22.6317  -21.9139 C   0  0  0  0  0  0  0  0  0  0  0  0
   22.9111  -20.6862   -8.0467 O   0  0  0  0  0  0  0  0  0  0  0  0
   23.5204  -20.5680   -9.2895 C   0  0  0  0  0  0  0  0  0  0  0  0
   24.7431  -21.1586   -9.5286 C   0  0  0  0  0  0  0  0  0  0  0  0
   25.3523  -21.0363  -10.7827 C   0  0  0  0  0  0  0  0  0  0  0  0
   24.7763  -20.3376  -11.8153 C   0  0  0  0  0  0  0  0  0  0  0  0
   25.3792  -20.1771  -13.1592 C   0  0  0  0  0  0  0  0  0  0  0  0
   24.9108  -21.2696  -14.1099 C   0  0  2  0  0  0  0  0  0  0  0  0
   25.5925  -21.2117  -15.3620 N   0  0  0  0  0  0  0  0  0  0  0  0
   23.4371  -21.1972  -14.1938 C   0  0  0  0  0  0  0  0  0  0  0  0
   22.8742  -20.3376  -14.9524 O   0  0  0  0  0  0  0  0  0  0  0  0
   23.5341  -19.7493  -11.5406 C   0  0  0  0  0  0  0  0  0  0  0  0
   22.9213  -19.8608  -10.3109 C   0  0  0  0  0  0  0  0  0  0  0  0
   22.5697  -22.0463  -13.4698 N   0  0  0  0  0  0  0  0  0  0  0  0
   21.1129  -21.9710  -13.5870 C   0  0  1  0  0  0  0  0  0  0  0  0
   20.5207  -23.3190  -13.2866 C   0  0  0  0  0  0  0  0  0  0  0  0
   19.0579  -23.4434  -13.3815 C   0  0  0  0  0  0  0  0  0  0  0  0
   18.5397  -24.8296  -13.2704 C   0  0  0  0  0  0  0  0  0  0  0  0
   17.0259  -24.8187  -13.4401 C   0  0  0  0  0  0  0  0  0  0  0  0
   16.6028  -26.2225  -13.5562 N   0  0  0  0  0  0  0  0  0  0  0  0
   20.6115  -20.8253  -12.8453 C   0  0  0  0  0  0  0  0  0  0  0  0
   21.0521  -20.4656  -11.5548 O   0  0  0  0  0  0  0  0  0  0  0  0
   19.7280  -20.0714  -13.3400 O   0  0  0  0  0  0  0  0  0  0  0  0
  2  1  1  0
  3  2  2  0
  4  3  1  0
  5  4  2  0
  5 11  1  0
  6  5  1  0
  7  8  1  6
  7  6  1  0
  9  7  1  0
  9 10  2  0
 11 12  2  0
 12  2  1  0
 14 24  2  0
 14 13  1  0
 15 14  1  0
 16 17  1  0
 16 15  2  0
 17 23  2  0
 18 17  1  0
 19 18  1  1
 19 20  1  0
 20  9  1  0
 21 19  1  0
 22 21  2  0
 23 24  1  0
 25 21  1  0
 26 25  1  0
 26 27  1  1
 27 28  1  0
 28 29  1  0
 29 30  1  0
 30 31  1  0
 32 26  1  0
 33 32  1  0
 34 32  2  0
M  END
$$$$
