YYK.pdb
     RDKit          3D

 34 35  0  0  1  0  0  0  0  0999 V2000
   32.9772  -31.3252  -17.4576 O   0  0  0  0  0  0  0  0  0  0  0  0
   31.7932  -31.5951  -16.7678 C   0  0  0  0  0  0  0  0  0  0  0  0
   31.6081  -32.8033  -16.1267 C   0  0  0  0  0  0  0  0  0  0  0  0
   30.4459  -33.0871  -15.4409 C   0  0  0  0  0  0  0  0  0  0  0  0
   29.4164  -32.1728  -15.3665 C   0  0  0  0  0  0  0  0  0  0  0  0
   28.1605  -32.4918  -14.6198 C   0  0  0  0  0  0  0  0  0  0  0  0
   27.3945  -33.5316  -15.4475 C   0  0  2  0  0  0  0  0  0  0  0  0
   26.6985  -32.8311  -16.5129 N   0  0  0  0  0  0  0  0  0  0  0  0
   26.3859  -34.1954  -14.5663 C   0  0  0  0  0  0  0  0  0  0  0  0
   25.2116  -33.7077  -14.4650 O   0  0  0  0  0  0  0  0  0  0  0  0
   29.5993  -30.9602  -16.0086 C   0  0  0  0  0  0  0  0  0  0  0  0
   30.7660  -30.6763  -16.6965 C   0  0  0  0  0  0  0  0  0  0  0  0
   22.3841  -37.6383  -18.2150 O   0  0  0  0  0  0  0  0  0  0  0  0
   23.1382  -37.5823  -17.0497 C   0  0  0  0  0  0  0  0  0  0  0  0
   24.5156  -37.5665  -17.1075 C   0  0  0  0  0  0  0  0  0  0  0  0
   25.2705  -37.5100  -15.9302 C   0  0  0  0  0  0  0  0  0  0  0  0
   24.6907  -37.4685  -14.6860 C   0  0  0  0  0  0  0  0  0  0  0  0
   25.4431  -37.4097  -13.4110 C   0  0  0  0  0  0  0  0  0  0  0  0
   25.7241  -35.9712  -13.0002 C   0  0  2  0  0  0  0  0  0  0  0  0
   26.7082  -35.3633  -13.8354 N   0  0  0  0  0  0  0  0  0  0  0  0
   26.0362  -35.9645  -11.5556 C   0  0  0  0  0  0  0  0  0  0  0  0
   27.1772  -36.3589  -11.1389 O   0  0  0  0  0  0  0  0  0  0  0  0
   23.2893  -37.4859  -14.6610 C   0  0  0  0  0  0  0  0  0  0  0  0
   22.5320  -37.5413  -15.8115 C   0  0  0  0  0  0  0  0  0  0  0  0
   25.1294  -35.5322  -10.5614 N   0  0  0  0  0  0  0  0  0  0  0  0
   25.4790  -35.4863   -9.1412 C   0  0  1  0  0  0  0  0  0  0  0  0
   25.1901  -34.1133   -8.6033 C   0  0  0  0  0  0  0  0  0  0  0  0
   25.3431  -33.9168   -7.1533 C   0  0  0  0  0  0  0  0  0  0  0  0
   26.4017  -32.9534   -6.7611 C   0  0  0  0  0  0  0  0  0  0  0  0
   26.5207  -32.9233   -5.2427 C   0  0  0  0  0  0  0  0  0  0  0  0
   27.5921  -31.9686   -4.9209 N   0  0  0  0  0  0  0  0  0  0  0  0
   24.9004  -36.6259   -8.4479 C   0  0  0  0  0  0  0  0  0  0  0  0
   24.1332  -37.6274   -9.0782 O   0  0  0  0  0  0  0  0  0  0  0  0
   25.0647  -36.7783   -7.2055 O   0  0  0  0  0  0  0  0  0  0  0  0
  2  1  1  0
  3  2  2  0
  4  3  1  0
  5  4  2  0
  5 11  1  0
  6  5  1  0
  7  8  1  6
  7  6  1  0
  9  7  1  0
  9 10  2  0
 11 12  2  0
 12  2  1  0
 14 24  2  0
 14 13  1  0
 15 14  1  0
 16 17  1  0
 16 15  2  0
 17 23  2  0
 18 17  1  0
 19 18  1  6
 19 20  1  0
 20  9  1  0
 21 19  1  0
 22 21  2  0
 23 24  1  0
 25 21  1  0
 26 25  1  0
 26 27  1  1
 27 28  1  0
 28 29  1  0
 29 30  1  0
 30 31  1  0
 32 26  1  0
 33 32  1  0
 34 32  2  0
M  END
$$$$
