YYK.pdb
     RDKit          3D

 34 35  0  0  1  0  0  0  0  0999 V2000
   26.3662  -11.3852  -14.4749 O   0  0  0  0  0  0  0  0  0  0  0  0
   25.7299  -10.2010  -14.8533 C   0  0  0  0  0  0  0  0  0  0  0  0
   24.4425   -9.9262  -14.4381 C   0  0  0  0  0  0  0  0  0  0  0  0
   23.7987   -8.7624  -14.8019 C   0  0  0  0  0  0  0  0  0  0  0  0
   24.4158   -7.8210  -15.5984 C   0  0  0  0  0  0  0  0  0  0  0  0
   23.7075   -6.5624  -15.9865 C   0  0  0  0  0  0  0  0  0  0  0  0
   22.4499   -6.9728  -16.7631 C   0  0  2  0  0  0  0  0  0  0  0  0
   22.8738   -7.6677  -17.9663 N   0  0  0  0  0  0  0  0  0  0  0  0
   21.7059   -5.7371  -17.1557 C   0  0  0  0  0  0  0  0  0  0  0  0
   22.0755   -5.0708  -18.1787 O   0  0  0  0  0  0  0  0  0  0  0  0
   25.7070   -8.0940  -16.0163 C   0  0  0  0  0  0  0  0  0  0  0  0
   26.3523   -9.2623  -15.6507 C   0  0  0  0  0  0  0  0  0  0  0  0
   18.2465   -7.0744  -22.3052 O   0  0  0  0  0  0  0  0  0  0  0  0
   18.2922   -6.4522  -21.0640 C   0  0  0  0  0  0  0  0  0  0  0  0
   18.2701   -7.1992  -19.9054 C   0  0  0  0  0  0  0  0  0  0  0  0
   18.3163   -6.5670  -18.6575 C   0  0  0  0  0  0  0  0  0  0  0  0
   18.3846   -5.2016  -18.5268 C   0  0  0  0  0  0  0  0  0  0  0  0
   18.4342   -4.4839  -17.2315 C   0  0  0  0  0  0  0  0  0  0  0  0
   19.8651   -4.1373  -16.8454 C   0  0  2  0  0  0  0  0  0  0  0  0
   20.5907   -5.2863  -16.4106 N   0  0  0  0  0  0  0  0  0  0  0  0
   19.8164   -3.0223  -15.8766 C   0  0  0  0  0  0  0  0  0  0  0  0
   19.6619   -3.2550  -14.6304 O   0  0  0  0  0  0  0  0  0  0  0  0
   18.4055   -4.4708  -19.7227 C   0  0  0  0  0  0  0  0  0  0  0  0
   18.3606   -5.0786  -20.9592 C   0  0  0  0  0  0  0  0  0  0  0  0
   19.9372   -1.6624  -16.2423 N   0  0  0  0  0  0  0  0  0  0  0  0
   19.8906   -0.5753  -15.2638 C   0  0  1  0  0  0  0  0  0  0  0  0
   20.6105    0.6218  -15.8175 C   0  0  0  0  0  0  0  0  0  0  0  0
   20.7480    1.7886  -14.9320 C   0  0  0  0  0  0  0  0  0  0  0  0
   21.4870    2.9345  -15.5179 C   0  0  0  0  0  0  0  0  0  0  0  0
   21.6397    4.0277  -14.4681 C   0  0  0  0  0  0  0  0  0  0  0  0
   22.2712    5.1739  -15.1392 N   0  0  0  0  0  0  0  0  0  0  0  0
   18.5294   -0.3919  -14.7864 C   0  0  0  0  0  0  0  0  0  0  0  0
   18.2010    0.1128  -13.5111 O   0  0  0  0  0  0  0  0  0  0  0  0
   17.5430   -0.6849  -15.5178 O   0  0  0  0  0  0  0  0  0  0  0  0
  2  1  1  0
  3  2  2  0
  4  3  1  0
  5  4  2  0
  5 11  1  0
  6  5  1  0
  7  8  1  6
  7  6  1  0
  9  7  1  0
  9 10  2  0
 11 12  2  0
 12  2  1  0
 14 24  2  0
 14 13  1  0
 15 14  1  0
 16 17  1  0
 16 15  2  0
 17 23  2  0
 18 17  1  0
 19 18  1  1
 19 20  1  0
 20  9  1  0
 21 19  1  0
 22 21  2  0
 23 24  1  0
 25 21  1  0
 26 25  1  0
 26 27  1  6
 27 28  1  0
 28 29  1  0
 29 30  1  0
 30 31  1  0
 32 26  1  0
 33 32  1  0
 34 32  2  0
M  END
$$$$
