YYK.pdb
     RDKit          3D

 34 35  0  0  1  0  0  0  0  0999 V2000
   22.3282  -16.7955  -24.9182 O   0  0  0  0  0  0  0  0  0  0  0  0
   21.9829  -17.4213  -23.7183 C   0  0  0  0  0  0  0  0  0  0  0  0
   22.0747  -18.7919  -23.5837 C   0  0  0  0  0  0  0  0  0  0  0  0
   21.7381  -19.4266  -22.4068 C   0  0  0  0  0  0  0  0  0  0  0  0
   21.2943  -18.7166  -21.3113 C   0  0  0  0  0  0  0  0  0  0  0  0
   20.9321  -19.4161  -20.0400 C   0  0  0  0  0  0  0  0  0  0  0  0
   22.1133  -19.2430  -19.0768 C   0  0  2  0  0  0  0  0  0  0  0  0
   23.2008  -20.0838  -19.5466 N   0  0  0  0  0  0  0  0  0  0  0  0
   21.6951  -19.7079  -17.7190 C   0  0  0  0  0  0  0  0  0  0  0  0
   21.7705  -20.9457  -17.4199 O   0  0  0  0  0  0  0  0  0  0  0  0
   21.2012  -17.3418  -21.4434 C   0  0  0  0  0  0  0  0  0  0  0  0
   21.5392  -16.7057  -22.6249 C   0  0  0  0  0  0  0  0  0  0  0  0
   19.9069  -20.1474   -9.1779 O   0  0  0  0  0  0  0  0  0  0  0  0
   20.1809  -19.6586  -10.4491 C   0  0  0  0  0  0  0  0  0  0  0  0
   19.2896  -18.8195  -11.0834 C   0  0  0  0  0  0  0  0  0  0  0  0
   19.5707  -18.3301  -12.3642 C   0  0  0  0  0  0  0  0  0  0  0  0
   20.7223  -18.6536  -13.0389 C   0  0  0  0  0  0  0  0  0  0  0  0
   21.0664  -18.1644  -14.3944 C   0  0  0  0  0  0  0  0  0  0  0  0
   20.8957  -19.2595  -15.4378 C   0  0  2  0  0  0  0  0  0  0  0  0
   21.2132  -18.7969  -16.7496 N   0  0  0  0  0  0  0  0  0  0  0  0
   19.5395  -19.8261  -15.2833 C   0  0  0  0  0  0  0  0  0  0  0  0
   18.5198  -19.1886  -15.7130 O   0  0  0  0  0  0  0  0  0  0  0  0
   21.6075  -19.5081  -12.3675 C   0  0  0  0  0  0  0  0  0  0  0  0
   21.3450  -19.9984  -11.1061 C   0  0  0  0  0  0  0  0  0  0  0  0
   19.2780  -21.0742  -14.6738 N   0  0  0  0  0  0  0  0  0  0  0  0
   17.9208  -21.5719  -14.4463 C   0  0  1  0  0  0  0  0  0  0  0  0
   17.9686  -23.0561  -14.2164 C   0  0  0  0  0  0  0  0  0  0  0  0
   16.6871  -23.7377  -13.9768 C   0  0  0  0  0  0  0  0  0  0  0  0
   16.7997  -25.1745  -13.6225 C   0  0  0  0  0  0  0  0  0  0  0  0
   15.4303  -25.7041  -13.2165 C   0  0  0  0  0  0  0  0  0  0  0  0
   15.6054  -27.1287  -12.8961 N   0  0  0  0  0  0  0  0  0  0  0  0
   17.2478  -20.7495  -13.4538 C   0  0  0  0  0  0  0  0  0  0  0  0
   15.9463  -20.2295  -13.6101 O   0  0  0  0  0  0  0  0  0  0  0  0
   17.8168  -20.4532  -12.3665 O   0  0  0  0  0  0  0  0  0  0  0  0
  2  1  1  0
  3  2  2  0
  4  3  1  0
  5  4  2  0
  5 11  1  0
  6  5  1  0
  7  8  1  6
  7  6  1  0
  9  7  1  0
  9 10  2  0
 11 12  2  0
 12  2  1  0
 14 24  2  0
 14 13  1  0
 15 14  1  0
 16 17  1  0
 16 15  2  0
 17 23  2  0
 18 17  1  0
 19 18  1  1
 19 20  1  0
 20  9  1  0
 21 19  1  0
 22 21  2  0
 23 24  1  0
 25 21  1  0
 26 25  1  0
 26 27  1  1
 27 28  1  0
 28 29  1  0
 29 30  1  0
 30 31  1  0
 32 26  1  0
 33 32  1  0
 34 32  2  0
M  END
$$$$
