YYK.pdb
     RDKit          3D

 34 35  0  0  1  0  0  0  0  0999 V2000
   15.4604  -21.9048  -15.5356 O   0  0  0  0  0  0  0  0  0  0  0  0
   16.8022  -21.5173  -15.5366 C   0  0  0  0  0  0  0  0  0  0  0  0
   17.8082  -22.4520  -15.3968 C   0  0  0  0  0  0  0  0  0  0  0  0
   19.1381  -22.0878  -15.3956 C   0  0  0  0  0  0  0  0  0  0  0  0
   19.5203  -20.7703  -15.5343 C   0  0  0  0  0  0  0  0  0  0  0  0
   20.9659  -20.3872  -15.5315 C   0  0  0  0  0  0  0  0  0  0  0  0
   21.5005  -20.6512  -14.1181 C   0  0  2  0  0  0  0  0  0  0  0  0
   20.9249  -19.6571  -13.2290 N   0  0  0  0  0  0  0  0  0  0  0  0
   22.9862  -20.4861  -14.1303 C   0  0  0  0  0  0  0  0  0  0  0  0
   23.4953  -19.3197  -14.2162 O   0  0  0  0  0  0  0  0  0  0  0  0
   18.5135  -19.8307  -15.6746 C   0  0  0  0  0  0  0  0  0  0  0  0
   17.1791  -20.1971  -15.6757 C   0  0  0  0  0  0  0  0  0  0  0  0
   25.1777  -19.4702   -7.9197 O   0  0  0  0  0  0  0  0  0  0  0  0
   25.3506  -20.1298   -9.1300 C   0  0  0  0  0  0  0  0  0  0  0  0
   24.3667  -20.9619   -9.6204 C   0  0  0  0  0  0  0  0  0  0  0  0
   24.5462  -21.6240  -10.8404 C   0  0  0  0  0  0  0  0  0  0  0  0
   25.6857  -21.4818  -11.5937 C   0  0  0  0  0  0  0  0  0  0  0  0
   25.9256  -22.1603  -12.8889 C   0  0  0  0  0  0  0  0  0  0  0  0
   25.2614  -21.4127  -14.0364 C   0  0  2  0  0  0  0  0  0  0  0  0
   23.8478  -21.6054  -14.0478 N   0  0  0  0  0  0  0  0  0  0  0  0
   25.9561  -21.7889  -15.2855 C   0  0  0  0  0  0  0  0  0  0  0  0
   25.5458  -22.7787  -15.9805 O   0  0  0  0  0  0  0  0  0  0  0  0
   26.6665  -20.6296  -11.0682 C   0  0  0  0  0  0  0  0  0  0  0  0
   26.5046  -19.9704   -9.8683 C   0  0  0  0  0  0  0  0  0  0  0  0
   27.0845  -21.1034  -15.7900 N   0  0  0  0  0  0  0  0  0  0  0  0
   27.7345  -21.4728  -17.0479 C   0  0  1  0  0  0  0  0  0  0  0  0
   28.7651  -20.4365  -17.3969 C   0  0  0  0  0  0  0  0  0  0  0  0
   29.4760  -20.6033  -18.6740 C   0  0  0  0  0  0  0  0  0  0  0  0
   30.5297  -19.5925  -18.9398 C   0  0  0  0  0  0  0  0  0  0  0  0
   31.1063  -19.8171  -20.3318 C   0  0  0  0  0  0  0  0  0  0  0  0
   32.2974  -18.9612  -20.4397 N   0  0  0  0  0  0  0  0  0  0  0  0
   28.1547  -22.8641  -17.0024 C   0  0  0  0  0  0  0  0  0  0  0  0
   28.8452  -23.4454  -15.9188 O   0  0  0  0  0  0  0  0  0  0  0  0
   27.9111  -23.6447  -17.9642 O   0  0  0  0  0  0  0  0  0  0  0  0
  2  1  1  0
  3  2  2  0
  4  3  1  0
  5  4  2  0
  5 11  1  0
  6  5  1  0
  7  8  1  1
  7  6  1  0
  9  7  1  0
  9 10  2  0
 11 12  2  0
 12  2  1  0
 14 24  2  0
 14 13  1  0
 15 14  1  0
 16 17  1  0
 16 15  2  0
 17 23  2  0
 18 17  1  0
 19 18  1  1
 19 20  1  0
 20  9  1  0
 21 19  1  0
 22 21  2  0
 23 24  1  0
 25 21  1  0
 26 25  1  0
 26 27  1  1
 27 28  1  0
 28 29  1  0
 29 30  1  0
 30 31  1  0
 32 26  1  0
 33 32  1  0
 34 32  2  0
M  END
$$$$
