YYK.pdb
     RDKit          3D

 34 35  0  0  1  0  0  0  0  0999 V2000
   30.9111  -16.3329  -21.4771 O   0  0  0  0  0  0  0  0  0  0  0  0
   30.0362  -17.0327  -20.6432 C   0  0  0  0  0  0  0  0  0  0  0  0
   29.0685  -17.8632  -21.1713 C   0  0  0  0  0  0  0  0  0  0  0  0
   28.1963  -18.5617  -20.3633 C   0  0  0  0  0  0  0  0  0  0  0  0
   28.2542  -18.4596  -18.9895 C   0  0  0  0  0  0  0  0  0  0  0  0
   27.3029  -19.2220  -18.1234 C   0  0  0  0  0  0  0  0  0  0  0  0
   28.1020  -20.3499  -17.4584 C   0  0  2  0  0  0  0  0  0  0  0  0
   28.1882  -21.4527  -18.4000 N   0  0  0  0  0  0  0  0  0  0  0  0
   27.3615  -20.8086  -16.2436 C   0  0  0  0  0  0  0  0  0  0  0  0
   26.4927  -21.7374  -16.3419 O   0  0  0  0  0  0  0  0  0  0  0  0
   29.2238  -17.6272  -18.4571 C   0  0  0  0  0  0  0  0  0  0  0  0
   30.0987  -16.9267  -19.2687 C   0  0  0  0  0  0  0  0  0  0  0  0
   23.7965  -21.0209   -8.2190 O   0  0  0  0  0  0  0  0  0  0  0  0
   24.6783  -20.8060   -9.2706 C   0  0  0  0  0  0  0  0  0  0  0  0
   25.7631  -21.6368   -9.4553 C   0  0  0  0  0  0  0  0  0  0  0  0
   26.6484  -21.4156  -10.5166 C   0  0  0  0  0  0  0  0  0  0  0  0
   26.4853  -20.3832  -11.4075 C   0  0  0  0  0  0  0  0  0  0  0  0
   27.3930  -20.1051  -12.5451 C   0  0  0  0  0  0  0  0  0  0  0  0
   26.8108  -20.6163  -13.8553 C   0  0  2  0  0  0  0  0  0  0  0  0
   27.6053  -20.2299  -14.9756 N   0  0  0  0  0  0  0  0  0  0  0  0
   25.3945  -20.1984  -13.9163 C   0  0  0  0  0  0  0  0  0  0  0  0
   25.0898  -18.9731  -14.1085 O   0  0  0  0  0  0  0  0  0  0  0  0
   25.3736  -19.5570  -11.1928 C   0  0  0  0  0  0  0  0  0  0  0  0
   24.4927  -19.7618  -10.1523 C   0  0  0  0  0  0  0  0  0  0  0  0
   24.3085  -21.0919  -13.7759 N   0  0  0  0  0  0  0  0  0  0  0  0
   22.9156  -20.6709  -13.9307 C   0  0  1  0  0  0  0  0  0  0  0  0
   22.4262  -21.0671  -15.2951 C   0  0  0  0  0  0  0  0  0  0  0  0
   21.0263  -20.7536  -15.6210 C   0  0  0  0  0  0  0  0  0  0  0  0
   20.5954  -21.1584  -16.9823 C   0  0  0  0  0  0  0  0  0  0  0  0
   19.1533  -20.7222  -17.2069 C   0  0  0  0  0  0  0  0  0  0  0  0
   18.8081  -21.0956  -18.5869 N   0  0  0  0  0  0  0  0  0  0  0  0
   22.1361  -21.0922  -12.7778 C   0  0  0  0  0  0  0  0  0  0  0  0
   21.0636  -20.3533  -12.2369 O   0  0  0  0  0  0  0  0  0  0  0  0
   22.3911  -22.1784  -12.1871 O   0  0  0  0  0  0  0  0  0  0  0  0
  2  1  1  0
  3  2  2  0
  4  3  1  0
  5  4  2  0
  5 11  1  0
  6  5  1  0
  7  8  1  6
  7  6  1  0
  9  7  1  0
  9 10  2  0
 11 12  2  0
 12  2  1  0
 14 24  2  0
 14 13  1  0
 15 14  1  0
 16 17  1  0
 16 15  2  0
 17 23  2  0
 18 17  1  0
 19 18  1  1
 19 20  1  0
 20  9  1  0
 21 19  1  0
 22 21  2  0
 23 24  1  0
 25 21  1  0
 26 25  1  0
 26 27  1  6
 27 28  1  0
 28 29  1  0
 29 30  1  0
 30 31  1  0
 32 26  1  0
 33 32  1  0
 34 32  2  0
M  END
$$$$
