YYK.pdb
     RDKit          3D

 34 35  0  0  1  0  0  0  0  0999 V2000
   15.9365  -19.0909  -29.8963 O   0  0  0  0  0  0  0  0  0  0  0  0
   16.6548  -19.2764  -28.7129 C   0  0  0  0  0  0  0  0  0  0  0  0
   17.7445  -20.1226  -28.6726 C   0  0  0  0  0  0  0  0  0  0  0  0
   18.4653  -20.3179  -27.5134 C   0  0  0  0  0  0  0  0  0  0  0  0
   18.1268  -19.6741  -26.3420 C   0  0  0  0  0  0  0  0  0  0  0  0
   18.9161  -19.8938  -25.0909 C   0  0  0  0  0  0  0  0  0  0  0  0
   19.9497  -18.7637  -25.0045 C   0  0  2  0  0  0  0  0  0  0  0  0
   21.0855  -19.1318  -25.8321 N   0  0  0  0  0  0  0  0  0  0  0  0
   20.4054  -18.6399  -23.5862 C   0  0  0  0  0  0  0  0  0  0  0  0
   21.3478  -19.3831  -23.1543 O   0  0  0  0  0  0  0  0  0  0  0  0
   17.0343  -18.8248  -26.3796 C   0  0  0  0  0  0  0  0  0  0  0  0
   16.3115  -18.6294  -27.5434 C   0  0  0  0  0  0  0  0  0  0  0  0
   24.4807  -13.8469  -23.6141 O   0  0  0  0  0  0  0  0  0  0  0  0
   23.4813  -14.4839  -22.8894 C   0  0  0  0  0  0  0  0  0  0  0  0
   23.6654  -14.7818  -21.5558 C   0  0  0  0  0  0  0  0  0  0  0  0
   22.6551  -15.4238  -20.8305 C   0  0  0  0  0  0  0  0  0  0  0  0
   21.4564  -15.7815  -21.3973 C   0  0  0  0  0  0  0  0  0  0  0  0
   20.3567  -16.4629  -20.6751 C   0  0  0  0  0  0  0  0  0  0  0  0
   20.0377  -17.8136  -21.3001 C   0  0  2  0  0  0  0  0  0  0  0  0
   19.8088  -17.7079  -22.7044 N   0  0  0  0  0  0  0  0  0  0  0  0
   18.9336  -18.4215  -20.5282 C   0  0  0  0  0  0  0  0  0  0  0  0
   17.7276  -18.0486  -20.7221 O   0  0  0  0  0  0  0  0  0  0  0  0
   21.3003  -15.4651  -22.7538 C   0  0  0  0  0  0  0  0  0  0  0  0
   22.2857  -14.8331  -23.4818 C   0  0  0  0  0  0  0  0  0  0  0  0
   19.1215  -19.4287  -19.5547 N   0  0  0  0  0  0  0  0  0  0  0  0
   18.0047  -20.1115  -18.9004 C   0  0  1  0  0  0  0  0  0  0  0  0
   18.3666  -21.5527  -18.6771 C   0  0  0  0  0  0  0  0  0  0  0  0
   17.2799  -22.4619  -18.2813 C   0  0  0  0  0  0  0  0  0  0  0  0
   17.5931  -23.9064  -18.4154 C   0  0  0  0  0  0  0  0  0  0  0  0
   16.3756  -24.7275  -18.0102 C   0  0  0  0  0  0  0  0  0  0  0  0
   16.6927  -26.1316  -18.3117 N   0  0  0  0  0  0  0  0  0  0  0  0
   17.5482  -19.3380  -17.7570 C   0  0  0  0  0  0  0  0  0  0  0  0
   18.4055  -18.7949  -16.7777 O   0  0  0  0  0  0  0  0  0  0  0  0
   16.3195  -19.1068  -17.5820 O   0  0  0  0  0  0  0  0  0  0  0  0
  2  1  1  0
  3  2  2  0
  4  3  1  0
  5  4  2  0
  5 11  1  0
  6  5  1  0
  7  8  1  6
  7  6  1  0
  9  7  1  0
  9 10  2  0
 11 12  2  0
 12  2  1  0
 14 24  2  0
 14 13  1  0
 15 14  1  0
 16 17  1  0
 16 15  2  0
 17 23  2  0
 18 17  1  0
 19 18  1  1
 19 20  1  0
 20  9  1  0
 21 19  1  0
 22 21  2  0
 23 24  1  0
 25 21  1  0
 26 25  1  0
 26 27  1  1
 27 28  1  0
 28 29  1  0
 29 30  1  0
 30 31  1  0
 32 26  1  0
 33 32  1  0
 34 32  2  0
M  END
$$$$
