YYK.pdb
     RDKit          3D

 34 35  0  0  1  0  0  0  0  0999 V2000
   20.4436   -5.9560  -22.1157 O   0  0  0  0  0  0  0  0  0  0  0  0
   21.6120   -5.8406  -21.3594 C   0  0  0  0  0  0  0  0  0  0  0  0
   21.5586   -5.7693  -19.9820 C   0  0  0  0  0  0  0  0  0  0  0  0
   22.7017   -5.6552  -19.2194 C   0  0  0  0  0  0  0  0  0  0  0  0
   23.9503   -5.6073  -19.8025 C   0  0  0  0  0  0  0  0  0  0  0  0
   25.1831   -5.4835  -18.9649 C   0  0  0  0  0  0  0  0  0  0  0  0
   25.7977   -6.8847  -18.8556 C   0  0  2  0  0  0  0  0  0  0  0  0
   25.9531   -7.4114  -20.2004 N   0  0  0  0  0  0  0  0  0  0  0  0
   24.8540   -7.7629  -18.0988 C   0  0  0  0  0  0  0  0  0  0  0  0
   24.0727   -8.5491  -18.7301 O   0  0  0  0  0  0  0  0  0  0  0  0
   24.0069   -5.6786  -21.1837 C   0  0  0  0  0  0  0  0  0  0  0  0
   22.8592   -5.7931  -21.9483 C   0  0  0  0  0  0  0  0  0  0  0  0
   28.3556  -13.2434  -17.0471 O   0  0  0  0  0  0  0  0  0  0  0  0
   27.4791  -12.2999  -16.5261 C   0  0  0  0  0  0  0  0  0  0  0  0
   27.7650  -10.9541  -16.6161 C   0  0  0  0  0  0  0  0  0  0  0  0
   26.8784  -10.0078  -16.0894 C   0  0  0  0  0  0  0  0  0  0  0  0
   25.7053  -10.3636  -15.4703 C   0  0  0  0  0  0  0  0  0  0  0  0
   24.7346   -9.4029  -14.8957 C   0  0  0  0  0  0  0  0  0  0  0  0
   23.9736   -8.6651  -15.9881 C   0  0  2  0  0  0  0  0  0  0  0  0
   24.8080   -7.7410  -16.6848 N   0  0  0  0  0  0  0  0  0  0  0  0
   22.7603   -8.0800  -15.3800 C   0  0  0  0  0  0  0  0  0  0  0  0
   22.8254   -6.9764  -14.7408 O   0  0  0  0  0  0  0  0  0  0  0  0
   25.4436  -11.7386  -15.3948 C   0  0  0  0  0  0  0  0  0  0  0  0
   26.3067  -12.6827  -15.9086 C   0  0  0  0  0  0  0  0  0  0  0  0
   21.4804   -8.6743  -15.4607 N   0  0  0  0  0  0  0  0  0  0  0  0
   20.2949   -8.0811  -14.8410 C   0  0  1  0  0  0  0  0  0  0  0  0
   19.2774   -7.7795  -15.9048 C   0  0  0  0  0  0  0  0  0  0  0  0
   18.0166   -7.1596  -15.4683 C   0  0  0  0  0  0  0  0  0  0  0  0
   17.0976   -6.7710  -16.5669 C   0  0  0  0  0  0  0  0  0  0  0  0
   15.8878   -6.0521  -15.9838 C   0  0  0  0  0  0  0  0  0  0  0  0
   15.1006   -5.5560  -17.1227 N   0  0  0  0  0  0  0  0  0  0  0  0
   19.8741   -8.8814  -13.7022 C   0  0  0  0  0  0  0  0  0  0  0  0
   20.3082  -10.2013  -13.4610 O   0  0  0  0  0  0  0  0  0  0  0  0
   19.0732   -8.4149  -12.8450 O   0  0  0  0  0  0  0  0  0  0  0  0
  2  1  1  0
  3  2  2  0
  4  3  1  0
  5  4  2  0
  5 11  1  0
  6  5  1  0
  7  8  1  6
  7  6  1  0
  9  7  1  0
  9 10  2  0
 11 12  2  0
 12  2  1  0
 14 24  2  0
 14 13  1  0
 15 14  1  0
 16 17  1  0
 16 15  2  0
 17 23  2  0
 18 17  1  0
 19 18  1  1
 19 20  1  0
 20  9  1  0
 21 19  1  0
 22 21  2  0
 23 24  1  0
 25 21  1  0
 26 25  1  0
 26 27  1  6
 27 28  1  0
 28 29  1  0
 29 30  1  0
 30 31  1  0
 32 26  1  0
 33 32  1  0
 34 32  2  0
M  END
$$$$
