YYK.pdb
     RDKit          3D

 34 35  0  0  1  0  0  0  0  0999 V2000
   26.0411  -20.8985   -7.4960 O   0  0  0  0  0  0  0  0  0  0  0  0
   26.1996  -20.5485   -8.8387 C   0  0  0  0  0  0  0  0  0  0  0  0
   25.1173  -20.1541   -9.5991 C   0  0  0  0  0  0  0  0  0  0  0  0
   25.2550  -19.8050  -10.9260 C   0  0  0  0  0  0  0  0  0  0  0  0
   26.4837  -19.8353  -11.5510 C   0  0  0  0  0  0  0  0  0  0  0  0
   26.6208  -19.4545  -12.9907 C   0  0  0  0  0  0  0  0  0  0  0  0
   25.8474  -20.4961  -13.8092 C   0  0  2  0  0  0  0  0  0  0  0  0
   26.6677  -21.6914  -13.9020 N   0  0  0  0  0  0  0  0  0  0  0  0
   25.6255  -19.9545  -15.1848 C   0  0  0  0  0  0  0  0  0  0  0  0
   26.5931  -19.9122  -16.0148 O   0  0  0  0  0  0  0  0  0  0  0  0
   27.5709  -20.2305  -10.7908 C   0  0  0  0  0  0  0  0  0  0  0  0
   27.4317  -20.5806   -9.4593 C   0  0  0  0  0  0  0  0  0  0  0  0
   23.8511  -18.5116  -23.3176 O   0  0  0  0  0  0  0  0  0  0  0  0
   23.9768  -18.9361  -22.0008 C   0  0  0  0  0  0  0  0  0  0  0  0
   22.9353  -19.5850  -21.3722 C   0  0  0  0  0  0  0  0  0  0  0  0
   23.0674  -20.0105  -20.0454 C   0  0  0  0  0  0  0  0  0  0  0  0
   24.2150  -19.8078  -19.3188 C   0  0  0  0  0  0  0  0  0  0  0  0
   24.4052  -20.2365  -17.9133 C   0  0  0  0  0  0  0  0  0  0  0  0
   24.1420  -19.0919  -16.9452 C   0  0  2  0  0  0  0  0  0  0  0  0
   24.3542  -19.4837  -15.5898 N   0  0  0  0  0  0  0  0  0  0  0  0
   22.7990  -18.5490  -17.2386 C   0  0  0  0  0  0  0  0  0  0  0  0
   21.7527  -19.1564  -16.8296 O   0  0  0  0  0  0  0  0  0  0  0  0
   25.2549  -19.1457  -19.9858 C   0  0  0  0  0  0  0  0  0  0  0  0
   25.1402  -18.7206  -21.2921 C   0  0  0  0  0  0  0  0  0  0  0  0
   22.5788  -17.3565  -17.9646 N   0  0  0  0  0  0  0  0  0  0  0  0
   21.2427  -16.8005  -18.1817 C   0  0  1  0  0  0  0  0  0  0  0  0
   21.3212  -15.3000  -18.1660 C   0  0  0  0  0  0  0  0  0  0  0  0
   20.5775  -14.6021  -17.1057 C   0  0  0  0  0  0  0  0  0  0  0  0
   20.7648  -13.1302  -17.0755 C   0  0  0  0  0  0  0  0  0  0  0  0
   19.9623  -12.5418  -15.9220 C   0  0  0  0  0  0  0  0  0  0  0  0
   20.3567  -11.1295  -15.8090 N   0  0  0  0  0  0  0  0  0  0  0  0
   20.6173  -17.4387  -19.3287 C   0  0  0  0  0  0  0  0  0  0  0  0
   19.3016  -17.9465  -19.3300 O   0  0  0  0  0  0  0  0  0  0  0  0
   21.2445  -17.5714  -20.4163 O   0  0  0  0  0  0  0  0  0  0  0  0
  2  1  1  0
  3  2  2  0
  4  3  1  0
  5  4  2  0
  5 11  1  0
  6  5  1  0
  7  8  1  6
  7  6  1  0
  9  7  1  0
  9 10  2  0
 11 12  2  0
 12  2  1  0
 14 24  2  0
 14 13  1  0
 15 14  1  0
 16 17  1  0
 16 15  2  0
 17 23  2  0
 18 17  1  0
 19 18  1  6
 19 20  1  0
 20  9  1  0
 21 19  1  0
 22 21  2  0
 23 24  1  0
 25 21  1  0
 26 25  1  0
 26 27  1  6
 27 28  1  0
 28 29  1  0
 29 30  1  0
 30 31  1  0
 32 26  1  0
 33 32  1  0
 34 32  2  0
M  END
$$$$
