YYK.pdb
     RDKit          3D

 34 35  0  0  1  0  0  0  0  0999 V2000
   28.8253  -21.8968  -22.5475 O   0  0  0  0  0  0  0  0  0  0  0  0
   28.1241  -21.8872  -21.3397 C   0  0  0  0  0  0  0  0  0  0  0  0
   27.0041  -22.6751  -21.1661 C   0  0  0  0  0  0  0  0  0  0  0  0
   26.2995  -22.6784  -19.9808 C   0  0  0  0  0  0  0  0  0  0  0  0
   26.6852  -21.8923  -18.9157 C   0  0  0  0  0  0  0  0  0  0  0  0
   25.9131  -21.9043  -17.6350 C   0  0  0  0  0  0  0  0  0  0  0  0
   26.7189  -22.7364  -16.6293 C   0  0  2  0  0  0  0  0  0  0  0  0
   26.5834  -24.1356  -16.9958 N   0  0  0  0  0  0  0  0  0  0  0  0
   26.1368  -22.5353  -15.2672 C   0  0  0  0  0  0  0  0  0  0  0  0
   25.0488  -23.1198  -14.9484 O   0  0  0  0  0  0  0  0  0  0  0  0
   27.8081  -21.1011  -19.0870 C   0  0  0  0  0  0  0  0  0  0  0  0
   28.5146  -21.0984  -20.2768 C   0  0  0  0  0  0  0  0  0  0  0  0
   24.4932  -19.8639   -7.0865 O   0  0  0  0  0  0  0  0  0  0  0  0
   25.1233  -20.0684   -8.3076 C   0  0  0  0  0  0  0  0  0  0  0  0
   25.3930  -19.0050   -9.1427 C   0  0  0  0  0  0  0  0  0  0  0  0
   26.0280  -19.2168  -10.3719 C   0  0  0  0  0  0  0  0  0  0  0  0
   26.4060  -20.4661  -10.7989 C   0  0  0  0  0  0  0  0  0  0  0  0
   27.0786  -20.7441  -12.0895 C   0  0  0  0  0  0  0  0  0  0  0  0
   26.1461  -21.4595  -13.0566 C   0  0  2  0  0  0  0  0  0  0  0  0
   26.7721  -21.7032  -14.3153 N   0  0  0  0  0  0  0  0  0  0  0  0
   24.8841  -20.6929  -13.1213 C   0  0  0  0  0  0  0  0  0  0  0  0
   24.8316  -19.5870  -13.7578 O   0  0  0  0  0  0  0  0  0  0  0  0
   26.1180  -21.5257   -9.9277 C   0  0  0  0  0  0  0  0  0  0  0  0
   25.4932  -21.3334   -8.7140 C   0  0  0  0  0  0  0  0  0  0  0  0
   23.6815  -21.1129  -12.5091 N   0  0  0  0  0  0  0  0  0  0  0  0
   22.4511  -20.3225  -12.5630 C   0  0  1  0  0  0  0  0  0  0  0  0
   21.8403  -20.4480  -13.9302 C   0  0  0  0  0  0  0  0  0  0  0  0
   21.7182  -19.2156  -14.7242 C   0  0  0  0  0  0  0  0  0  0  0  0
   21.2056  -19.4086  -16.1035 C   0  0  0  0  0  0  0  0  0  0  0  0
   21.1488  -18.0627  -16.8149 C   0  0  0  0  0  0  0  0  0  0  0  0
   20.6681  -18.3253  -18.1798 N   0  0  0  0  0  0  0  0  0  0  0  0
   21.6146  -20.6228  -11.4122 C   0  0  0  0  0  0  0  0  0  0  0  0
   20.6788  -19.7238  -10.8600 O   0  0  0  0  0  0  0  0  0  0  0  0
   21.6884  -21.7427  -10.8341 O   0  0  0  0  0  0  0  0  0  0  0  0
  2  1  1  0
  3  2  2  0
  4  3  1  0
  5  4  2  0
  5 11  1  0
  6  5  1  0
  7  8  1  6
  7  6  1  0
  9  7  1  0
  9 10  2  0
 11 12  2  0
 12  2  1  0
 14 24  2  0
 14 13  1  0
 15 14  1  0
 16 17  1  0
 16 15  2  0
 17 23  2  0
 18 17  1  0
 19 18  1  1
 19 20  1  0
 20  9  1  0
 21 19  1  0
 22 21  2  0
 23 24  1  0
 25 21  1  0
 26 25  1  0
 26 27  1  6
 27 28  1  0
 28 29  1  0
 29 30  1  0
 30 31  1  0
 32 26  1  0
 33 32  1  0
 34 32  2  0
M  END
$$$$
