NHY.pdb
     RDKit          3D

 31 32  0  0  1  0  0  0  0  0999 V2000
   28.7857  -23.7015  -17.6288 N   0  0  0  0  0  0  0  0  0  0  0  0
   28.8112  -22.2993  -17.7588 C   0  0  0  0  0  0  0  0  0  0  0  0
   29.4474  -21.7035  -18.6753 O   0  0  0  0  0  0  0  0  0  0  0  0
   28.0748  -21.4486  -16.8015 C   0  0  0  0  0  0  0  0  0  0  0  0
   27.4174  -22.3099  -15.7408 C   0  0  2  0  0  0  0  0  0  0  0  0
   26.3213  -23.0815  -16.2201 N   0  0  0  0  0  0  0  0  0  0  0  0
   27.1039  -21.4768  -14.5557 C   0  0  0  0  0  0  0  0  0  0  0  0
   28.0272  -20.7624  -14.0544 O   0  0  0  0  0  0  0  0  0  0  0  0
   25.8528  -21.4127  -13.9338 N   0  0  0  0  0  0  0  0  0  0  0  0
   25.5710  -20.4044  -12.8412 C   0  0  1  0  0  0  0  0  0  0  0  0
   24.1423  -20.0585  -13.0207 C   0  0  0  0  0  0  0  0  0  0  0  0
   23.7339  -19.2046  -14.1153 C   0  0  0  0  0  0  0  0  0  0  0  0
   24.3660  -17.9526  -14.2876 C   0  0  0  0  0  0  0  0  0  0  0  0
   23.8570  -17.3330  -15.3318 N   0  0  0  0  0  0  0  0  0  0  0  0
   22.9130  -18.1428  -15.8446 C   0  0  0  0  0  0  0  0  0  0  0  0
   22.8584  -19.2480  -15.1049 N   0  0  0  0  0  0  0  0  0  0  0  0
   25.7477  -21.1514  -11.5554 C   0  0  0  0  0  0  0  0  0  0  0  0
   25.5019  -22.4092  -11.5526 O   0  0  0  0  0  0  0  0  0  0  0  0
   28.3173  -17.7371   -4.2704 O   0  0  0  0  0  0  0  0  0  0  0  0
   28.1307  -18.6481   -5.3061 C   0  0  0  0  0  0  0  0  0  0  0  0
   27.4878  -19.8524   -5.1310 C   0  0  0  0  0  0  0  0  0  0  0  0
   27.3095  -20.7509   -6.1750 C   0  0  0  0  0  0  0  0  0  0  0  0
   27.7818  -20.4581   -7.4496 C   0  0  0  0  0  0  0  0  0  0  0  0
   27.5822  -21.4332   -8.5235 C   0  0  0  0  0  0  0  0  0  0  0  0
   26.1921  -21.4211   -9.1264 C   0  0  2  0  0  0  0  0  0  0  0  0
   26.1694  -20.5999  -10.3349 N   0  0  0  0  0  0  0  0  0  0  0  0
   25.1970  -20.9242   -8.1540 C   0  0  0  0  0  0  0  0  0  0  0  0
   24.8162  -21.5602   -7.1587 O   0  0  0  0  0  0  0  0  0  0  0  0
   28.4247  -19.2481   -7.6131 C   0  0  0  0  0  0  0  0  0  0  0  0
   28.5979  -18.3608   -6.5711 C   0  0  0  0  0  0  0  0  0  0  0  0
   24.6317  -19.6579   -8.3441 O   0  0  0  0  0  0  0  0  0  0  0  0
  2  3  2  0
  2  1  1  0
  4  2  1  0
  5  4  1  0
  5  6  1  6
  7  5  1  0
  8  7  2  0
  9  7  1  0
 10  9  1  0
 10 11  1  6
 12 11  1  0
 12 13  2  0
 14 13  1  0
 15 14  1  0
 16 15  2  0
 16 12  1  0
 17 10  1  0
 17 18  2  0
 20 21  2  0
 20 19  1  0
 22 21  1  0
 23 22  2  0
 24 23  1  0
 25 24  1  1
 25 26  1  0
 26 17  1  0
 27 25  1  0
 28 27  2  0
 29 23  1  0
 29 30  2  0
 30 20  1  0
 31 27  1  0
M  END
$$$$
