NHY.pdb
     RDKit          3D

 31 32  0  0  1  0  0  0  0  0999 V2000
   11.1670  -11.9098  -14.5635 N   0  0  0  0  0  0  0  0  0  0  0  0
   12.2671  -12.7814  -14.4464 C   0  0  0  0  0  0  0  0  0  0  0  0
   12.1583  -14.0402  -14.5034 O   0  0  0  0  0  0  0  0  0  0  0  0
   13.6277  -12.2416  -14.2465 C   0  0  0  0  0  0  0  0  0  0  0  0
   13.5765  -10.7295  -14.1458 C   0  0  2  0  0  0  0  0  0  0  0  0
   13.3942  -10.0726  -15.3955 N   0  0  0  0  0  0  0  0  0  0  0  0
   14.7439  -10.2487  -13.3694 C   0  0  0  0  0  0  0  0  0  0  0  0
   14.9900  -10.7884  -12.2459 O   0  0  0  0  0  0  0  0  0  0  0  0
   15.6111   -9.2312  -13.7804 N   0  0  0  0  0  0  0  0  0  0  0  0
   16.8035   -8.8298  -12.9394 C   0  0  1  0  0  0  0  0  0  0  0  0
   17.8484   -8.4788  -13.9283 C   0  0  0  0  0  0  0  0  0  0  0  0
   18.5866   -9.5226  -14.6062 C   0  0  0  0  0  0  0  0  0  0  0  0
   18.3518  -10.8720  -14.2588 C   0  0  0  0  0  0  0  0  0  0  0  0
   19.1152  -11.6615  -14.9848 N   0  0  0  0  0  0  0  0  0  0  0  0
   19.8397  -10.8680  -15.7943 C   0  0  0  0  0  0  0  0  0  0  0  0
   19.5082   -9.6021  -15.5507 N   0  0  0  0  0  0  0  0  0  0  0  0
   16.3750   -7.5973  -12.2046 C   0  0  0  0  0  0  0  0  0  0  0  0
   15.6212   -6.7628  -12.8194 O   0  0  0  0  0  0  0  0  0  0  0  0
   11.6505   -8.7449   -6.8720 O   0  0  0  0  0  0  0  0  0  0  0  0
   12.4369   -8.0015   -7.7474 C   0  0  0  0  0  0  0  0  0  0  0  0
   12.8626   -6.7239   -7.4632 C   0  0  0  0  0  0  0  0  0  0  0  0
   13.6473   -5.9950   -8.3475 C   0  0  0  0  0  0  0  0  0  0  0  0
   14.0336   -6.5409   -9.5666 C   0  0  0  0  0  0  0  0  0  0  0  0
   14.8544   -5.7395  -10.4766 C   0  0  0  0  0  0  0  0  0  0  0  0
   16.3460   -5.9645  -10.3330 C   0  0  2  0  0  0  0  0  0  0  0  0
   16.7191   -7.2652  -10.8845 N   0  0  0  0  0  0  0  0  0  0  0  0
   16.7619   -5.8726   -8.9183 C   0  0  0  0  0  0  0  0  0  0  0  0
   16.5683   -4.8813   -8.1972 O   0  0  0  0  0  0  0  0  0  0  0  0
   13.6008   -7.8221   -9.8408 C   0  0  0  0  0  0  0  0  0  0  0  0
   12.8216   -8.5399   -8.9571 C   0  0  0  0  0  0  0  0  0  0  0  0
   17.4185   -6.9592   -8.3290 O   0  0  0  0  0  0  0  0  0  0  0  0
  2  3  2  0
  2  1  1  0
  4  2  1  0
  5  4  1  0
  5  6  1  6
  7  5  1  0
  8  7  2  0
  9  7  1  0
 10  9  1  0
 10 11  1  6
 12 11  1  0
 12 13  2  0
 14 13  1  0
 15 14  1  0
 16 15  2  0
 16 12  1  0
 17 10  1  0
 17 18  2  0
 20 21  2  0
 20 19  1  0
 22 21  1  0
 23 22  2  0
 24 23  1  0
 25 24  1  1
 25 26  1  0
 26 17  1  0
 27 25  1  0
 28 27  2  0
 29 23  1  0
 29 30  2  0
 30 20  1  0
 31 27  1  0
M  END
$$$$
