NHY.pdb
     RDKit          3D

 31 32  0  0  1  0  0  0  0  0999 V2000
   27.8587  -13.3148  -24.0124 N   0  0  0  0  0  0  0  0  0  0  0  0
   28.6412  -14.4822  -23.9200 C   0  0  0  0  0  0  0  0  0  0  0  0
   29.5920  -14.7393  -24.7135 O   0  0  0  0  0  0  0  0  0  0  0  0
   28.3720  -15.4781  -22.8625 C   0  0  0  0  0  0  0  0  0  0  0  0
   27.1006  -15.1159  -22.1199 C   0  0  2  0  0  0  0  0  0  0  0  0
   27.1063  -13.8030  -21.5698 N   0  0  0  0  0  0  0  0  0  0  0  0
   26.7802  -16.1841  -21.1437 C   0  0  0  0  0  0  0  0  0  0  0  0
   26.7618  -17.3890  -21.5462 O   0  0  0  0  0  0  0  0  0  0  0  0
   26.4911  -15.9693  -19.7922 N   0  0  0  0  0  0  0  0  0  0  0  0
   26.1890  -17.1239  -18.8617 C   0  0  1  0  0  0  0  0  0  0  0  0
   27.1528  -16.9604  -17.7494 C   0  0  0  0  0  0  0  0  0  0  0  0
   28.5645  -17.1869  -17.9725 C   0  0  0  0  0  0  0  0  0  0  0  0
   29.0936  -18.4842  -17.7880 C   0  0  0  0  0  0  0  0  0  0  0  0
   30.3858  -18.4817  -18.0402 N   0  0  0  0  0  0  0  0  0  0  0  0
   30.7144  -17.2230  -18.3832 C   0  0  0  0  0  0  0  0  0  0  0  0
   29.6160  -16.4727  -18.3354 N   0  0  0  0  0  0  0  0  0  0  0  0
   24.7994  -16.8779  -18.3607 C   0  0  0  0  0  0  0  0  0  0  0  0
   24.4189  -15.6625  -18.2171 O   0  0  0  0  0  0  0  0  0  0  0  0
   16.2994  -15.7386  -18.2908 O   0  0  0  0  0  0  0  0  0  0  0  0
   17.6574  -16.0012  -18.4464 C   0  0  0  0  0  0  0  0  0  0  0  0
   18.1399  -17.2405  -18.8007 C   0  0  0  0  0  0  0  0  0  0  0  0
   19.4984  -17.4865  -18.9521 C   0  0  0  0  0  0  0  0  0  0  0  0
   20.4285  -16.4734  -18.7474 C   0  0  0  0  0  0  0  0  0  0  0  0
   21.8529  -16.7722  -18.9086 C   0  0  0  0  0  0  0  0  0  0  0  0
   22.4766  -17.4910  -17.7295 C   0  0  2  0  0  0  0  0  0  0  0  0
   23.8559  -17.8651  -18.0342 N   0  0  0  0  0  0  0  0  0  0  0  0
   21.6927  -18.6888  -17.3641 C   0  0  0  0  0  0  0  0  0  0  0  0
   20.6659  -18.6648  -16.6674 O   0  0  0  0  0  0  0  0  0  0  0  0
   19.9333  -15.2353  -18.3924 C   0  0  0  0  0  0  0  0  0  0  0  0
   18.5823  -14.9987  -18.2440 C   0  0  0  0  0  0  0  0  0  0  0  0
   22.1132  -19.9437  -17.8197 O   0  0  0  0  0  0  0  0  0  0  0  0
  2  3  2  0
  2  1  1  0
  4  2  1  0
  5  4  1  0
  5  6  1  1
  7  5  1  0
  8  7  2  0
  9  7  1  0
 10  9  1  0
 10 11  1  1
 12 11  1  0
 12 13  2  0
 14 13  1  0
 15 14  1  0
 16 15  2  0
 16 12  1  0
 17 10  1  0
 17 18  2  0
 20 21  2  0
 20 19  1  0
 22 21  1  0
 23 22  2  0
 24 23  1  0
 25 24  1  6
 25 26  1  0
 26 17  1  0
 27 25  1  0
 28 27  2  0
 29 23  1  0
 29 30  2  0
 30 20  1  0
 31 27  1  0
M  END
$$$$
