NHY.pdb
     RDKit          3D

 31 32  0  0  1  0  0  0  0  0999 V2000
   14.3121  -16.6858    1.8933 N   0  0  0  0  0  0  0  0  0  0  0  0
   13.4744  -16.9213    3.0007 C   0  0  0  0  0  0  0  0  0  0  0  0
   12.2180  -16.7826    2.9565 O   0  0  0  0  0  0  0  0  0  0  0  0
   14.0493  -17.3510    4.2920 C   0  0  0  0  0  0  0  0  0  0  0  0
   15.5632  -17.3603    4.2087 C   0  0  2  0  0  0  0  0  0  0  0  0
   16.0828  -18.2489    3.2255 N   0  0  0  0  0  0  0  0  0  0  0  0
   16.1290  -17.5541    5.5648 C   0  0  0  0  0  0  0  0  0  0  0  0
   15.4861  -17.0991    6.5617 O   0  0  0  0  0  0  0  0  0  0  0  0
   17.3342  -18.2081    5.8406 N   0  0  0  0  0  0  0  0  0  0  0  0
   17.7032  -18.6101    7.2521 C   0  0  1  0  0  0  0  0  0  0  0  0
   18.3831  -19.9163    7.0956 C   0  0  0  0  0  0  0  0  0  0  0  0
   17.6160  -21.1429    7.1284 C   0  0  0  0  0  0  0  0  0  0  0  0
   16.5715  -21.2794    8.0703 C   0  0  0  0  0  0  0  0  0  0  0  0
   15.9995  -22.4578    7.9381 N   0  0  0  0  0  0  0  0  0  0  0  0
   16.6391  -23.0927    6.9394 C   0  0  0  0  0  0  0  0  0  0  0  0
   17.5951  -22.2917    6.4745 N   0  0  0  0  0  0  0  0  0  0  0  0
   18.6910  -17.5832    7.7128 C   0  0  0  0  0  0  0  0  0  0  0  0
   19.5949  -17.2058    6.8863 O   0  0  0  0  0  0  0  0  0  0  0  0
   18.7731  -11.7725    4.4802 O   0  0  0  0  0  0  0  0  0  0  0  0
   18.8454  -12.4705    5.6823 C   0  0  0  0  0  0  0  0  0  0  0  0
   17.7904  -13.1973    6.1854 C   0  0  0  0  0  0  0  0  0  0  0  0
   17.8785  -13.8887    7.3867 C   0  0  0  0  0  0  0  0  0  0  0  0
   19.0529  -13.8684    8.1308 C   0  0  0  0  0  0  0  0  0  0  0  0
   19.1059  -14.6029    9.3964 C   0  0  0  0  0  0  0  0  0  0  0  0
   19.7354  -15.9773    9.2939 C   0  0  2  0  0  0  0  0  0  0  0  0
   18.7194  -16.9796    8.9801 N   0  0  0  0  0  0  0  0  0  0  0  0
   20.4342  -16.3348   10.5456 C   0  0  0  0  0  0  0  0  0  0  0  0
   20.1347  -17.3050   11.2593 O   0  0  0  0  0  0  0  0  0  0  0  0
   20.1037  -13.1365    7.6167 C   0  0  0  0  0  0  0  0  0  0  0  0
   20.0085  -12.4524    6.4226 C   0  0  0  0  0  0  0  0  0  0  0  0
   21.5063  -15.5452   10.9770 O   0  0  0  0  0  0  0  0  0  0  0  0
  2  3  2  0
  2  1  1  0
  4  2  1  0
  5  4  1  0
  5  6  1  6
  7  5  1  0
  8  7  2  0
  9  7  1  0
 10  9  1  0
 10 11  1  6
 12 11  1  0
 12 13  2  0
 14 13  1  0
 15 14  1  0
 16 15  2  0
 16 12  1  0
 17 10  1  0
 17 18  2  0
 20 21  2  0
 20 19  1  0
 22 21  1  0
 23 22  2  0
 24 23  1  0
 25 24  1  1
 25 26  1  0
 26 17  1  0
 27 25  1  0
 28 27  2  0
 29 23  1  0
 29 30  2  0
 30 20  1  0
 31 27  1  0
M  END
$$$$
