NHY.pdb
     RDKit          3D

 31 32  0  0  1  0  0  0  0  0999 V2000
   23.4550  -11.1084  -20.1624 N   0  0  0  0  0  0  0  0  0  0  0  0
   23.2564   -9.7645  -20.5342 C   0  0  0  0  0  0  0  0  0  0  0  0
   24.0374   -9.1413  -21.3097 O   0  0  0  0  0  0  0  0  0  0  0  0
   22.0954   -9.0118  -20.0167 C   0  0  0  0  0  0  0  0  0  0  0  0
   21.2219   -9.9202  -19.1736 C   0  0  2  0  0  0  0  0  0  0  0  0
   20.3737  -10.7746  -19.9331 N   0  0  0  0  0  0  0  0  0  0  0  0
   20.5152   -9.1124  -18.1513 C   0  0  0  0  0  0  0  0  0  0  0  0
   19.6053   -8.3119  -18.5325 O   0  0  0  0  0  0  0  0  0  0  0  0
   20.7737   -9.1608  -16.7777 N   0  0  0  0  0  0  0  0  0  0  0  0
   20.0226   -8.2757  -15.8068 C   0  0  1  0  0  0  0  0  0  0  0  0
   19.8348   -9.1236  -14.6073 C   0  0  0  0  0  0  0  0  0  0  0  0
   18.7075  -10.0272  -14.5261 C   0  0  0  0  0  0  0  0  0  0  0  0
   17.8265  -10.1333  -15.6259 C   0  0  0  0  0  0  0  0  0  0  0  0
   16.8748  -11.0020  -15.3561 N   0  0  0  0  0  0  0  0  0  0  0  0
   17.1088  -11.4650  -14.1149 C   0  0  0  0  0  0  0  0  0  0  0  0
   18.2025  -10.8711  -13.6426 N   0  0  0  0  0  0  0  0  0  0  0  0
   20.9602   -7.1532  -15.4849 C   0  0  0  0  0  0  0  0  0  0  0  0
   22.2174   -7.3637  -15.6176 O   0  0  0  0  0  0  0  0  0  0  0  0
   26.1441   -7.7653  -18.4334 O   0  0  0  0  0  0  0  0  0  0  0  0
   25.1468   -6.9395  -17.9227 C   0  0  0  0  0  0  0  0  0  0  0  0
   25.3670   -6.0594  -16.8877 C   0  0  0  0  0  0  0  0  0  0  0  0
   24.3609   -5.2418  -16.3893 C   0  0  0  0  0  0  0  0  0  0  0  0
   23.0799   -5.2871  -16.9280 C   0  0  0  0  0  0  0  0  0  0  0  0
   22.0430   -4.4159  -16.3713 C   0  0  0  0  0  0  0  0  0  0  0  0
   21.5844   -4.8026  -14.9799 C   0  0  2  0  0  0  0  0  0  0  0  0
   20.5893   -5.8703  -15.0512 N   0  0  0  0  0  0  0  0  0  0  0  0
   21.0301   -3.6368  -14.2614 C   0  0  0  0  0  0  0  0  0  0  0  0
   21.6927   -2.6401  -13.9328 O   0  0  0  0  0  0  0  0  0  0  0  0
   22.8708   -6.1732  -17.9649 C   0  0  0  0  0  0  0  0  0  0  0  0
   23.8754   -6.9821  -18.4546 C   0  0  0  0  0  0  0  0  0  0  0  0
   19.6735   -3.6302  -13.9171 O   0  0  0  0  0  0  0  0  0  0  0  0
  2  3  2  0
  2  1  1  0
  4  2  1  0
  5  4  1  0
  5  6  1  6
  7  5  1  0
  8  7  2  0
  9  7  1  0
 10  9  1  0
 10 11  1  1
 12 11  1  0
 12 13  2  0
 14 13  1  0
 15 14  1  0
 16 15  2  0
 16 12  1  0
 17 10  1  0
 17 18  2  0
 20 21  2  0
 20 19  1  0
 22 21  1  0
 23 22  2  0
 24 23  1  0
 25 24  1  6
 25 26  1  0
 26 17  1  0
 27 25  1  0
 28 27  2  0
 29 23  1  0
 29 30  2  0
 30 20  1  0
 31 27  1  0
M  END
$$$$
