NHY.pdb
     RDKit          3D

 31 32  0  0  1  0  0  0  0  0999 V2000
   20.2734  -18.5372  -15.0778 N   0  0  0  0  0  0  0  0  0  0  0  0
   20.7912  -18.4537  -13.7707 C   0  0  0  0  0  0  0  0  0  0  0  0
   20.2089  -17.8299  -12.8371 O   0  0  0  0  0  0  0  0  0  0  0  0
   22.0706  -19.1105  -13.4325 C   0  0  0  0  0  0  0  0  0  0  0  0
   22.6416  -19.7967  -14.6581 C   0  0  2  0  0  0  0  0  0  0  0  0
   21.6550  -20.3329  -15.5329 N   0  0  0  0  0  0  0  0  0  0  0  0
   23.6777  -20.7700  -14.2386 C   0  0  0  0  0  0  0  0  0  0  0  0
   23.5217  -21.9929  -14.5457 O   0  0  0  0  0  0  0  0  0  0  0  0
   24.8325  -20.4457  -13.5194 N   0  0  0  0  0  0  0  0  0  0  0  0
   25.7455  -21.5228  -12.9748 C   0  0  1  0  0  0  0  0  0  0  0  0
   26.9246  -21.4916  -13.8703 C   0  0  0  0  0  0  0  0  0  0  0  0
   27.4856  -20.2249  -14.2884 C   0  0  0  0  0  0  0  0  0  0  0  0
   26.8858  -19.0241  -13.8465 C   0  0  0  0  0  0  0  0  0  0  0  0
   27.5408  -17.9904  -14.3318 N   0  0  0  0  0  0  0  0  0  0  0  0
   28.5486  -18.4808  -15.0759 C   0  0  0  0  0  0  0  0  0  0  0  0
   28.4948  -19.8101  -15.0348 N   0  0  0  0  0  0  0  0  0  0  0  0
   26.1418  -21.0549  -11.6086 C   0  0  0  0  0  0  0  0  0  0  0  0
   26.0629  -19.8007  -11.3566 O   0  0  0  0  0  0  0  0  0  0  0  0
   28.9018  -19.0213   -3.6284 O   0  0  0  0  0  0  0  0  0  0  0  0
   28.6053  -19.3327   -4.9522 C   0  0  0  0  0  0  0  0  0  0  0  0
   27.6837  -18.6291   -5.6937 C   0  0  0  0  0  0  0  0  0  0  0  0
   27.3990  -18.9525   -7.0142 C   0  0  0  0  0  0  0  0  0  0  0  0
   28.0457  -20.0133   -7.6385 C   0  0  0  0  0  0  0  0  0  0  0  0
   27.7138  -20.3294   -9.0292 C   0  0  0  0  0  0  0  0  0  0  0  0
   26.6147  -21.3600   -9.1893 C   0  0  2  0  0  0  0  0  0  0  0  0
   26.5922  -21.8706  -10.5583 N   0  0  0  0  0  0  0  0  0  0  0  0
   25.2982  -20.7899   -8.8364 C   0  0  0  0  0  0  0  0  0  0  0  0
   24.8148  -19.7740   -9.3603 O   0  0  0  0  0  0  0  0  0  0  0  0
   28.9674  -20.7115   -6.8854 C   0  0  0  0  0  0  0  0  0  0  0  0
   29.2448  -20.3842   -5.5743 C   0  0  0  0  0  0  0  0  0  0  0  0
   24.5262  -21.4162   -7.8511 O   0  0  0  0  0  0  0  0  0  0  0  0
  2  3  2  0
  2  1  1  0
  4  2  1  0
  5  4  1  0
  5  6  1  1
  7  5  1  0
  8  7  2  0
  9  7  1  0
 10  9  1  0
 10 11  1  6
 12 11  1  0
 12 13  2  0
 14 13  1  0
 15 14  1  0
 16 15  2  0
 16 12  1  0
 17 10  1  0
 17 18  2  0
 20 21  2  0
 20 19  1  0
 22 21  1  0
 23 22  2  0
 24 23  1  0
 25 24  1  6
 25 26  1  0
 26 17  1  0
 27 25  1  0
 28 27  2  0
 29 23  1  0
 29 30  2  0
 30 20  1  0
 31 27  1  0
M  END
$$$$
