NHY.pdb
     RDKit          3D

 31 32  0  0  1  0  0  0  0  0999 V2000
   23.3750  -15.9128  -17.1653 N   0  0  0  0  0  0  0  0  0  0  0  0
   24.3928  -15.0512  -17.6185 C   0  0  0  0  0  0  0  0  0  0  0  0
   25.5618  -15.4492  -17.8921 O   0  0  0  0  0  0  0  0  0  0  0  0
   24.1246  -13.6093  -17.7958 C   0  0  0  0  0  0  0  0  0  0  0  0
   23.0789  -13.4047  -18.8746 C   0  0  2  0  0  0  0  0  0  0  0  0
   23.4629  -13.8987  -20.1532 N   0  0  0  0  0  0  0  0  0  0  0  0
   22.6431  -11.9881  -18.8745 C   0  0  0  0  0  0  0  0  0  0  0  0
   23.4556  -11.1028  -19.2873 O   0  0  0  0  0  0  0  0  0  0  0  0
   21.3886  -11.5393  -18.4492 N   0  0  0  0  0  0  0  0  0  0  0  0
   21.0012  -10.0800  -18.5529 C   0  0  1  0  0  0  0  0  0  0  0  0
   19.5310  -10.1024  -18.7287 C   0  0  0  0  0  0  0  0  0  0  0  0
   18.7800   -8.8655  -18.7225 C   0  0  0  0  0  0  0  0  0  0  0  0
   18.9495   -7.9490  -19.7847 C   0  0  0  0  0  0  0  0  0  0  0  0
   18.1827   -6.8959  -19.5952 N   0  0  0  0  0  0  0  0  0  0  0  0
   17.5190   -7.0981  -18.4426 C   0  0  0  0  0  0  0  0  0  0  0  0
   17.8907   -8.2745  -17.9430 N   0  0  0  0  0  0  0  0  0  0  0  0
   21.3374   -9.4837  -17.2210 C   0  0  0  0  0  0  0  0  0  0  0  0
   21.1057  -10.1844  -16.1732 O   0  0  0  0  0  0  0  0  0  0  0  0
   27.1025  -11.7548  -15.4774 O   0  0  0  0  0  0  0  0  0  0  0  0
   26.2261  -10.6735  -15.4637 C   0  0  0  0  0  0  0  0  0  0  0  0
   26.3196   -9.6286  -16.3545 C   0  0  0  0  0  0  0  0  0  0  0  0
   25.4369   -8.5565  -16.3277 C   0  0  0  0  0  0  0  0  0  0  0  0
   24.4153   -8.5039  -15.3859 C   0  0  0  0  0  0  0  0  0  0  0  0
   23.5088   -7.3540  -15.3833 C   0  0  0  0  0  0  0  0  0  0  0  0
   22.0580   -7.7030  -15.6463 C   0  0  2  0  0  0  0  0  0  0  0  0
   21.8966   -8.2139  -17.0058 N   0  0  0  0  0  0  0  0  0  0  0  0
   21.1843   -6.5304  -15.4356 C   0  0  0  0  0  0  0  0  0  0  0  0
   20.9918   -5.9927  -14.3337 O   0  0  0  0  0  0  0  0  0  0  0  0
   24.3316   -9.5568  -14.4980 C   0  0  0  0  0  0  0  0  0  0  0  0
   25.2121  -10.6183  -14.5309 C   0  0  0  0  0  0  0  0  0  0  0  0
   20.5189   -5.9704  -16.5323 O   0  0  0  0  0  0  0  0  0  0  0  0
  2  3  2  0
  2  1  1  0
  4  2  1  0
  5  4  1  0
  5  6  1  6
  7  5  1  0
  8  7  2  0
  9  7  1  0
 10  9  1  0
 10 11  1  1
 12 11  1  0
 12 13  2  0
 14 13  1  0
 15 14  1  0
 16 15  2  0
 16 12  1  0
 17 10  1  0
 17 18  2  0
 20 21  2  0
 20 19  1  0
 22 21  1  0
 23 22  2  0
 24 23  1  0
 25 24  1  6
 25 26  1  0
 26 17  1  0
 27 25  1  0
 28 27  2  0
 29 23  1  0
 29 30  2  0
 30 20  1  0
 31 27  1  0
M  END
$$$$
