NHY.pdb
     RDKit          3D

 31 32  0  0  1  0  0  0  0  0999 V2000
   18.7566  -19.6593  -18.7257 N   0  0  0  0  0  0  0  0  0  0  0  0
   19.6511  -20.1203  -19.7111 C   0  0  0  0  0  0  0  0  0  0  0  0
   19.2792  -20.7742  -20.7280 O   0  0  0  0  0  0  0  0  0  0  0  0
   21.0983  -19.8496  -19.5895 C   0  0  0  0  0  0  0  0  0  0  0  0
   21.4305  -19.4315  -18.1703 C   0  0  2  0  0  0  0  0  0  0  0  0
   20.8594  -18.1856  -17.7858 N   0  0  0  0  0  0  0  0  0  0  0  0
   22.8952  -19.5205  -17.9617 C   0  0  0  0  0  0  0  0  0  0  0  0
   23.4568  -20.6546  -18.0745 O   0  0  0  0  0  0  0  0  0  0  0  0
   23.7232  -18.4387  -17.6450 N   0  0  0  0  0  0  0  0  0  0  0  0
   25.2207  -18.6105  -17.5103 C   0  0  1  0  0  0  0  0  0  0  0  0
   25.7782  -17.2995  -17.9148 C   0  0  0  0  0  0  0  0  0  0  0  0
   26.2262  -17.0893  -19.2746 C   0  0  0  0  0  0  0  0  0  0  0  0
   26.0892  -18.1339  -20.2163 C   0  0  0  0  0  0  0  0  0  0  0  0
   26.5510  -17.7461  -21.3867 N   0  0  0  0  0  0  0  0  0  0  0  0
   26.9843  -16.4815  -21.2362 C   0  0  0  0  0  0  0  0  0  0  0  0
   26.7810  -16.1137  -19.9732 N   0  0  0  0  0  0  0  0  0  0  0  0
   25.4660  -18.8298  -16.0494 C   0  0  0  0  0  0  0  0  0  0  0  0
   24.7895  -18.1309  -15.2149 O   0  0  0  0  0  0  0  0  0  0  0  0
   25.9594  -20.8928   -7.7069 O   0  0  0  0  0  0  0  0  0  0  0  0
   25.8621  -20.8379   -9.0943 C   0  0  0  0  0  0  0  0  0  0  0  0
   24.6610  -20.6957   -9.7510 C   0  0  0  0  0  0  0  0  0  0  0  0
   24.5807  -20.6425  -11.1366 C   0  0  0  0  0  0  0  0  0  0  0  0
   25.7284  -20.7326  -11.9163 C   0  0  0  0  0  0  0  0  0  0  0  0
   25.6038  -20.6805  -13.3743 C   0  0  0  0  0  0  0  0  0  0  0  0
   26.6072  -19.7709  -14.0539 C   0  0  2  0  0  0  0  0  0  0  0  0
   26.3750  -19.7460  -15.4964 N   0  0  0  0  0  0  0  0  0  0  0  0
   27.9913  -20.2013  -13.7680 C   0  0  0  0  0  0  0  0  0  0  0  0
   28.5145  -21.2248  -14.2360 O   0  0  0  0  0  0  0  0  0  0  0  0
   26.9268  -20.8750  -11.2471 C   0  0  0  0  0  0  0  0  0  0  0  0
   26.9984  -20.9270   -9.8703 C   0  0  0  0  0  0  0  0  0  0  0  0
   28.7852  -19.4228  -12.9178 O   0  0  0  0  0  0  0  0  0  0  0  0
  2  3  2  0
  2  1  1  0
  4  2  1  0
  5  4  1  0
  5  6  1  6
  7  5  1  0
  8  7  2  0
  9  7  1  0
 10  9  1  0
 10 11  1  1
 12 11  1  0
 12 13  2  0
 14 13  1  0
 15 14  1  0
 16 15  2  0
 16 12  1  0
 17 10  1  0
 17 18  2  0
 20 21  2  0
 20 19  1  0
 22 21  1  0
 23 22  2  0
 24 23  1  0
 25 24  1  1
 25 26  1  0
 26 17  1  0
 27 25  1  0
 28 27  2  0
 29 23  1  0
 29 30  2  0
 30 20  1  0
 31 27  1  0
M  END
$$$$
