NHY.pdb
     RDKit          3D

 31 32  0  0  1  0  0  0  0  0999 V2000
   25.8071  -15.3159  -18.8861 N   0  0  0  0  0  0  0  0  0  0  0  0
   25.2747  -14.6503  -20.0072 C   0  0  0  0  0  0  0  0  0  0  0  0
   24.4747  -15.1989  -20.8189 O   0  0  0  0  0  0  0  0  0  0  0  0
   25.6418  -13.2464  -20.2845 C   0  0  0  0  0  0  0  0  0  0  0  0
   26.6140  -12.7470  -19.2335 C   0  0  2  0  0  0  0  0  0  0  0  0
   26.1234  -12.8415  -17.9005 N   0  0  0  0  0  0  0  0  0  0  0  0
   27.0956  -11.3971  -19.6111 C   0  0  0  0  0  0  0  0  0  0  0  0
   27.6064  -11.2349  -20.7631 O   0  0  0  0  0  0  0  0  0  0  0  0
   27.0325  -10.2682  -18.7878 N   0  0  0  0  0  0  0  0  0  0  0  0
   27.4527   -8.9049  -19.2927 C   0  0  1  0  0  0  0  0  0  0  0  0
   26.3388   -8.0102  -18.9034 C   0  0  0  0  0  0  0  0  0  0  0  0
   25.2176   -7.8151  -19.7972 C   0  0  0  0  0  0  0  0  0  0  0  0
   25.2236   -8.4472  -21.0611 C   0  0  0  0  0  0  0  0  0  0  0  0
   24.1226   -8.1475  -21.7177 N   0  0  0  0  0  0  0  0  0  0  0  0
   23.3999   -7.3399  -20.9207 C   0  0  0  0  0  0  0  0  0  0  0  0
   24.0711   -7.1570  -19.7859 N   0  0  0  0  0  0  0  0  0  0  0  0
   28.6777   -8.5503  -18.5079 C   0  0  0  0  0  0  0  0  0  0  0  0
   28.6940   -8.8349  -17.2583 O   0  0  0  0  0  0  0  0  0  0  0  0
   36.3432   -8.7447  -14.7044 O   0  0  0  0  0  0  0  0  0  0  0  0
   35.1309   -8.8061  -15.3855 C   0  0  0  0  0  0  0  0  0  0  0  0
   34.0269   -8.0767  -15.0070 C   0  0  0  0  0  0  0  0  0  0  0  0
   32.8239   -8.1490  -15.6975 C   0  0  0  0  0  0  0  0  0  0  0  0
   32.6946   -8.9731  -16.8099 C   0  0  0  0  0  0  0  0  0  0  0  0
   31.4086   -9.0293  -17.5078 C   0  0  0  0  0  0  0  0  0  0  0  0
   30.9942   -7.7248  -18.1578 C   0  0  2  0  0  0  0  0  0  0  0  0
   29.8310   -7.9324  -19.0175 N   0  0  0  0  0  0  0  0  0  0  0  0
   32.1068   -7.1443  -18.9374 C   0  0  0  0  0  0  0  0  0  0  0  0
   32.3980   -7.4821  -20.0956 O   0  0  0  0  0  0  0  0  0  0  0  0
   33.8078   -9.6997  -17.1800 C   0  0  0  0  0  0  0  0  0  0  0  0
   34.9993   -9.6224  -16.4890 C   0  0  0  0  0  0  0  0  0  0  0  0
   32.8991   -6.1477  -18.3561 O   0  0  0  0  0  0  0  0  0  0  0  0
  2  3  2  0
  2  1  1  0
  4  2  1  0
  5  4  1  0
  5  6  1  1
  7  5  1  0
  8  7  2  0
  9  7  1  0
 10  9  1  0
 10 11  1  1
 12 11  1  0
 12 13  2  0
 14 13  1  0
 15 14  1  0
 16 15  2  0
 16 12  1  0
 17 10  1  0
 17 18  2  0
 20 21  2  0
 20 19  1  0
 22 21  1  0
 23 22  2  0
 24 23  1  0
 25 24  1  6
 25 26  1  0
 26 17  1  0
 27 25  1  0
 28 27  2  0
 29 23  1  0
 29 30  2  0
 30 20  1  0
 31 27  1  0
M  END
$$$$
