NHY.pdb
     RDKit          3D

 31 32  0  0  1  0  0  0  0  0999 V2000
   15.3927   -3.3961  -18.8681 N   0  0  0  0  0  0  0  0  0  0  0  0
   14.9927   -4.7385  -19.0147 C   0  0  0  0  0  0  0  0  0  0  0  0
   13.8713   -5.0752  -19.4930 O   0  0  0  0  0  0  0  0  0  0  0  0
   15.8942   -5.8341  -18.6030 C   0  0  0  0  0  0  0  0  0  0  0  0
   17.1934   -5.2638  -18.0683 C   0  0  2  0  0  0  0  0  0  0  0  0
   18.1358   -4.9249  -19.0799 N   0  0  0  0  0  0  0  0  0  0  0  0
   17.7265   -6.1594  -17.0144 C   0  0  0  0  0  0  0  0  0  0  0  0
   16.9166   -6.6490  -16.1668 O   0  0  0  0  0  0  0  0  0  0  0  0
   19.0720   -6.5148  -16.8749 N   0  0  0  0  0  0  0  0  0  0  0  0
   19.5241   -7.4613  -15.7841 C   0  0  1  0  0  0  0  0  0  0  0  0
   20.9428   -7.7394  -16.1045 C   0  0  0  0  0  0  0  0  0  0  0  0
   21.7353   -8.5740  -15.2272 C   0  0  0  0  0  0  0  0  0  0  0  0
   21.1631   -9.0544  -14.0278 C   0  0  0  0  0  0  0  0  0  0  0  0
   22.0388   -9.7905  -13.3763 N   0  0  0  0  0  0  0  0  0  0  0  0
   23.1635   -9.8044  -14.1144 C   0  0  0  0  0  0  0  0  0  0  0  0
   22.9586   -9.0747  -15.2086 N   0  0  0  0  0  0  0  0  0  0  0  0
   19.4428   -6.6722  -14.5140 C   0  0  0  0  0  0  0  0  0  0  0  0
   19.5931   -5.4014  -14.5854 O   0  0  0  0  0  0  0  0  0  0  0  0
   17.0224   -1.7081   -8.0253 O   0  0  0  0  0  0  0  0  0  0  0  0
   17.2423   -2.5979   -9.0728 C   0  0  0  0  0  0  0  0  0  0  0  0
   17.9082   -2.2424  -10.2237 C   0  0  0  0  0  0  0  0  0  0  0  0
   18.1197   -3.1424  -11.2602 C   0  0  0  0  0  0  0  0  0  0  0  0
   17.6586   -4.4508  -11.1670 C   0  0  0  0  0  0  0  0  0  0  0  0
   17.8935   -5.3690  -12.2832 C   0  0  0  0  0  0  0  0  0  0  0  0
   19.0709   -6.3021  -12.0861 C   0  0  2  0  0  0  0  0  0  0  0  0
   19.2077   -7.1970  -13.2331 N   0  0  0  0  0  0  0  0  0  0  0  0
   18.9233   -7.0862  -10.8427 C   0  0  0  0  0  0  0  0  0  0  0  0
   19.1099   -6.6298   -9.7037 O   0  0  0  0  0  0  0  0  0  0  0  0
   16.9924   -4.7957  -10.0089 C   0  0  0  0  0  0  0  0  0  0  0  0
   16.7863   -3.8961   -8.9835 C   0  0  0  0  0  0  0  0  0  0  0  0
   18.5501   -8.4326  -10.9263 O   0  0  0  0  0  0  0  0  0  0  0  0
  2  3  2  0
  2  1  1  0
  4  2  1  0
  5  4  1  0
  5  6  1  6
  7  5  1  0
  8  7  2  0
  9  7  1  0
 10  9  1  0
 10 11  1  6
 12 11  1  0
 12 13  2  0
 14 13  1  0
 15 14  1  0
 16 15  2  0
 16 12  1  0
 17 10  1  0
 17 18  2  0
 20 21  2  0
 20 19  1  0
 22 21  1  0
 23 22  2  0
 24 23  1  0
 25 24  1  6
 25 26  1  0
 26 17  1  0
 27 25  1  0
 28 27  2  0
 29 23  1  0
 29 30  2  0
 30 20  1  0
 31 27  1  0
M  END
$$$$
