NHY.pdb
     RDKit          3D

 31 32  0  0  1  0  0  0  0  0999 V2000
   20.6879  -12.5008  -22.0799 N   0  0  0  0  0  0  0  0  0  0  0  0
   21.3347  -11.6222  -21.1893 C   0  0  0  0  0  0  0  0  0  0  0  0
   22.5485  -11.2878  -21.3107 O   0  0  0  0  0  0  0  0  0  0  0  0
   20.5981  -11.0424  -20.0475 C   0  0  0  0  0  0  0  0  0  0  0  0
   21.5504  -10.7717  -18.8991 C   0  0  2  0  0  0  0  0  0  0  0  0
   22.1363  -11.9447  -18.3449 N   0  0  0  0  0  0  0  0  0  0  0  0
   20.8860   -9.8949  -17.9057 C   0  0  0  0  0  0  0  0  0  0  0  0
   20.1927   -8.9169  -18.3266 O   0  0  0  0  0  0  0  0  0  0  0  0
   20.9621  -10.0596  -16.5189 N   0  0  0  0  0  0  0  0  0  0  0  0
   20.2171   -9.1381  -15.5777 C   0  0  1  0  0  0  0  0  0  0  0  0
   19.7845  -10.0185  -14.4683 C   0  0  0  0  0  0  0  0  0  0  0  0
   18.4984  -10.6793  -14.5249 C   0  0  0  0  0  0  0  0  0  0  0  0
   17.6245  -10.3992  -15.5995 C   0  0  0  0  0  0  0  0  0  0  0  0
   16.5156  -11.0968  -15.4694 N   0  0  0  0  0  0  0  0  0  0  0  0
   16.6404  -11.8225  -14.3435 C   0  0  0  0  0  0  0  0  0  0  0  0
   17.8263  -11.5573  -13.8004 N   0  0  0  0  0  0  0  0  0  0  0  0
   21.2421   -8.1680  -15.0768 C   0  0  0  0  0  0  0  0  0  0  0  0
   22.3278   -8.6407  -14.5866 O   0  0  0  0  0  0  0  0  0  0  0  0
   25.2286   -8.1409  -19.8428 O   0  0  0  0  0  0  0  0  0  0  0  0
   24.6312   -7.3992  -18.8277 C   0  0  0  0  0  0  0  0  0  0  0  0
   23.3495   -6.9066  -18.9215 C   0  0  0  0  0  0  0  0  0  0  0  0
   22.7675   -6.1680  -17.8994 C   0  0  0  0  0  0  0  0  0  0  0  0
   23.4716   -5.8986  -16.7311 C   0  0  0  0  0  0  0  0  0  0  0  0
   22.8281   -5.1099  -15.6785 C   0  0  0  0  0  0  0  0  0  0  0  0
   22.2090   -5.9368  -14.5699 C   0  0  2  0  0  0  0  0  0  0  0  0
   21.1300   -6.7686  -15.0983 N   0  0  0  0  0  0  0  0  0  0  0  0
   21.7013   -5.0727  -13.4845 C   0  0  0  0  0  0  0  0  0  0  0  0
   20.5079   -4.9989  -13.1517 O   0  0  0  0  0  0  0  0  0  0  0  0
   24.7556   -6.3973  -16.6483 C   0  0  0  0  0  0  0  0  0  0  0  0
   25.3268   -7.1302  -17.6679 C   0  0  0  0  0  0  0  0  0  0  0  0
   22.6029   -4.2757  -12.7696 O   0  0  0  0  0  0  0  0  0  0  0  0
  2  3  2  0
  2  1  1  0
  4  2  1  0
  5  4  1  0
  5  6  1  1
  7  5  1  0
  8  7  2  0
  9  7  1  0
 10  9  1  0
 10 11  1  1
 12 11  1  0
 12 13  2  0
 14 13  1  0
 15 14  1  0
 16 15  2  0
 16 12  1  0
 17 10  1  0
 17 18  2  0
 20 21  2  0
 20 19  1  0
 22 21  1  0
 23 22  2  0
 24 23  1  0
 25 24  1  6
 25 26  1  0
 26 17  1  0
 27 25  1  0
 28 27  2  0
 29 23  1  0
 29 30  2  0
 30 20  1  0
 31 27  1  0
M  END
$$$$
