NHY.pdb
     RDKit          3D

 31 32  0  0  1  0  0  0  0  0999 V2000
   13.9226   -9.9330   -7.6460 N   0  0  0  0  0  0  0  0  0  0  0  0
   13.5283   -9.7412   -8.9844 C   0  0  0  0  0  0  0  0  0  0  0  0
   12.5482  -10.3458   -9.5076 O   0  0  0  0  0  0  0  0  0  0  0  0
   14.2665   -8.8000   -9.8513 C   0  0  0  0  0  0  0  0  0  0  0  0
   15.4209   -8.1846   -9.0846 C   0  0  2  0  0  0  0  0  0  0  0  0
   15.0182   -7.3649   -7.9927 N   0  0  0  0  0  0  0  0  0  0  0  0
   16.3450   -7.5222  -10.0354 C   0  0  0  0  0  0  0  0  0  0  0  0
   16.1452   -6.3015  -10.3257 O   0  0  0  0  0  0  0  0  0  0  0  0
   17.4375   -8.1428  -10.6497 N   0  0  0  0  0  0  0  0  0  0  0  0
   18.3080   -7.3986  -11.6389 C   0  0  1  0  0  0  0  0  0  0  0  0
   19.4253   -8.3297  -11.9174 C   0  0  0  0  0  0  0  0  0  0  0  0
   20.4374   -7.9791  -12.8905 C   0  0  0  0  0  0  0  0  0  0  0  0
   20.2672   -6.8169  -13.6761 C   0  0  0  0  0  0  0  0  0  0  0  0
   21.2897   -6.6739  -14.4929 N   0  0  0  0  0  0  0  0  0  0  0  0
   22.1204   -7.7070  -14.2636 C   0  0  0  0  0  0  0  0  0  0  0  0
   21.5924   -8.4683  -13.3079 N   0  0  0  0  0  0  0  0  0  0  0  0
   17.4680   -7.2421  -12.8687 C   0  0  0  0  0  0  0  0  0  0  0  0
   16.7928   -8.2555  -13.2682 O   0  0  0  0  0  0  0  0  0  0  0  0
   12.2278   -4.9642  -19.5125 O   0  0  0  0  0  0  0  0  0  0  0  0
   12.9719   -5.0594  -18.3400 C   0  0  0  0  0  0  0  0  0  0  0  0
   13.6080   -3.9788  -17.7726 C   0  0  0  0  0  0  0  0  0  0  0  0
   14.3469   -4.0903  -16.6018 C   0  0  0  0  0  0  0  0  0  0  0  0
   14.4695   -5.3155  -15.9559 C   0  0  0  0  0  0  0  0  0  0  0  0
   15.2631   -5.3960  -14.7280 C   0  0  0  0  0  0  0  0  0  0  0  0
   16.5975   -6.0948  -14.8925 C   0  0  2  0  0  0  0  0  0  0  0  0
   17.3413   -6.0723  -13.6350 N   0  0  0  0  0  0  0  0  0  0  0  0
   17.3946   -5.4687  -15.9673 C   0  0  0  0  0  0  0  0  0  0  0  0
   17.3357   -5.7985  -17.1623 O   0  0  0  0  0  0  0  0  0  0  0  0
   13.8278   -6.3917  -16.5340 C   0  0  0  0  0  0  0  0  0  0  0  0
   13.0955   -6.2730  -17.6972 C   0  0  0  0  0  0  0  0  0  0  0  0
   18.2811   -4.4347  -15.6444 O   0  0  0  0  0  0  0  0  0  0  0  0
  2  3  2  0
  2  1  1  0
  4  2  1  0
  5  4  1  0
  5  6  1  1
  7  5  1  0
  8  7  2  0
  9  7  1  0
 10  9  1  0
 10 11  1  6
 12 11  1  0
 12 13  2  0
 14 13  1  0
 15 14  1  0
 16 15  2  0
 16 12  1  0
 17 10  1  0
 17 18  2  0
 20 21  2  0
 20 19  1  0
 22 21  1  0
 23 22  2  0
 24 23  1  0
 25 24  1  1
 25 26  1  0
 26 17  1  0
 27 25  1  0
 28 27  2  0
 29 23  1  0
 29 30  2  0
 30 20  1  0
 31 27  1  0
M  END
$$$$
