NHY.pdb
     RDKit          3D

 31 32  0  0  1  0  0  0  0  0999 V2000
   23.2633  -10.3450    6.7965 N   0  0  0  0  0  0  0  0  0  0  0  0
   22.5854  -10.0633    7.9984 C   0  0  0  0  0  0  0  0  0  0  0  0
   23.0042   -9.2224    8.8453 O   0  0  0  0  0  0  0  0  0  0  0  0
   21.3239  -10.7601    8.3235 C   0  0  0  0  0  0  0  0  0  0  0  0
   20.7396  -11.3863    7.0724 C   0  0  2  0  0  0  0  0  0  0  0  0
   20.5164  -10.4620    6.0131 N   0  0  0  0  0  0  0  0  0  0  0  0
   19.5516  -12.1946    7.4360 C   0  0  0  0  0  0  0  0  0  0  0  0
   19.6940  -13.1420    8.2705 O   0  0  0  0  0  0  0  0  0  0  0  0
   18.2646  -11.9956    6.9257 N   0  0  0  0  0  0  0  0  0  0  0  0
   17.1159  -12.8978    7.3217 C   0  0  1  0  0  0  0  0  0  0  0  0
   15.9319  -12.0084    7.3152 C   0  0  0  0  0  0  0  0  0  0  0  0
   14.6056  -12.5637    7.4781 C   0  0  0  0  0  0  0  0  0  0  0  0
   14.4546  -13.9615    7.6201 C   0  0  0  0  0  0  0  0  0  0  0  0
   13.1805  -14.2634    7.7567 N   0  0  0  0  0  0  0  0  0  0  0  0
   12.4972  -13.1056    7.7082 C   0  0  0  0  0  0  0  0  0  0  0  0
   13.3654  -12.1105    7.5420 N   0  0  0  0  0  0  0  0  0  0  0  0
   16.9965  -13.8988    6.2144 C   0  0  0  0  0  0  0  0  0  0  0  0
   17.3266  -13.5296    5.0324 O   0  0  0  0  0  0  0  0  0  0  0  0
   17.7972  -20.2579    0.4282 O   0  0  0  0  0  0  0  0  0  0  0  0
   17.8024  -19.3501    1.4834 C   0  0  0  0  0  0  0  0  0  0  0  0
   17.7969  -17.9871    1.2923 C   0  0  0  0  0  0  0  0  0  0  0  0
   17.8022  -17.0942    2.3561 C   0  0  0  0  0  0  0  0  0  0  0  0
   17.8135  -17.5555    3.6678 C   0  0  0  0  0  0  0  0  0  0  0  0
   17.8267  -16.5842    4.7634 C   0  0  0  0  0  0  0  0  0  0  0  0
   16.4550  -16.0884    5.1739 C   0  0  2  0  0  0  0  0  0  0  0  0
   16.5572  -15.2256    6.3489 N   0  0  0  0  0  0  0  0  0  0  0  0
   15.5436  -17.2181    5.4490 C   0  0  0  0  0  0  0  0  0  0  0  0
   14.8800  -17.8066    4.5809 O   0  0  0  0  0  0  0  0  0  0  0  0
   17.8191  -18.9237    3.8470 C   0  0  0  0  0  0  0  0  0  0  0  0
   17.8137  -19.8044    2.7852 C   0  0  0  0  0  0  0  0  0  0  0  0
   15.4009  -17.6739    6.7647 O   0  0  0  0  0  0  0  0  0  0  0  0
  2  3  2  0
  2  1  1  0
  4  2  1  0
  5  4  1  0
  5  6  1  6
  7  5  1  0
  8  7  2  0
  9  7  1  0
 10  9  1  0
 10 11  1  6
 12 11  1  0
 12 13  2  0
 14 13  1  0
 15 14  1  0
 16 15  2  0
 16 12  1  0
 17 10  1  0
 17 18  2  0
 20 21  2  0
 20 19  1  0
 22 21  1  0
 23 22  2  0
 24 23  1  0
 25 24  1  1
 25 26  1  0
 26 17  1  0
 27 25  1  0
 28 27  2  0
 29 23  1  0
 29 30  2  0
 30 20  1  0
 31 27  1  0
M  END
$$$$
