NHY.pdb
     RDKit          3D

 31 32  0  0  1  0  0  0  0  0999 V2000
   20.7448   -8.7575  -14.5464 N   0  0  0  0  0  0  0  0  0  0  0  0
   20.2358   -9.8005  -13.7486 C   0  0  0  0  0  0  0  0  0  0  0  0
   19.9189   -9.6474  -12.5337 O   0  0  0  0  0  0  0  0  0  0  0  0
   20.0482  -11.1508  -14.3179 C   0  0  0  0  0  0  0  0  0  0  0  0
   20.3794  -11.1408  -15.7975 C   0  0  2  0  0  0  0  0  0  0  0  0
   19.6328  -10.1913  -16.5508 N   0  0  0  0  0  0  0  0  0  0  0  0
   20.3140  -12.5242  -16.3253 C   0  0  0  0  0  0  0  0  0  0  0  0
   19.1768  -13.0099  -16.6166 O   0  0  0  0  0  0  0  0  0  0  0  0
   21.4219  -13.3526  -16.5316 N   0  0  0  0  0  0  0  0  0  0  0  0
   21.2649  -14.7428  -17.1086 C   0  0  1  0  0  0  0  0  0  0  0  0
   22.4302  -14.9001  -18.0088 C   0  0  0  0  0  0  0  0  0  0  0  0
   22.2308  -15.0698  -19.4319 C   0  0  0  0  0  0  0  0  0  0  0  0
   20.9152  -15.1714  -19.9379 C   0  0  0  0  0  0  0  0  0  0  0  0
   20.9478  -15.3187  -21.2457 N   0  0  0  0  0  0  0  0  0  0  0  0
   22.2436  -15.3162  -21.6070 C   0  0  0  0  0  0  0  0  0  0  0  0
   22.9862  -15.1672  -20.5125 N   0  0  0  0  0  0  0  0  0  0  0  0
   21.4021  -15.6745  -15.9442 C   0  0  0  0  0  0  0  0  0  0  0  0
   22.3403  -15.4482  -15.1010 O   0  0  0  0  0  0  0  0  0  0  0  0
   14.7292  -15.9106  -13.1544 O   0  0  0  0  0  0  0  0  0  0  0  0
   16.1023  -16.1372  -13.1781 C   0  0  0  0  0  0  0  0  0  0  0  0
   17.0182  -15.1347  -13.4026 C   0  0  0  0  0  0  0  0  0  0  0  0
   18.3856  -15.3772  -13.4231 C   0  0  0  0  0  0  0  0  0  0  0  0
   18.8805  -16.6597  -13.2143 C   0  0  0  0  0  0  0  0  0  0  0  0
   20.3279  -16.8784  -13.2509 C   0  0  0  0  0  0  0  0  0  0  0  0
   20.8183  -17.6010  -14.4891 C   0  0  2  0  0  0  0  0  0  0  0  0
   20.5856  -16.7856  -15.6791 N   0  0  0  0  0  0  0  0  0  0  0  0
   20.1562  -18.9138  -14.6337 C   0  0  0  0  0  0  0  0  0  0  0  0
   19.4105  -19.2190  -15.5777 O   0  0  0  0  0  0  0  0  0  0  0  0
   17.9531  -17.6566  -12.9904 C   0  0  0  0  0  0  0  0  0  0  0  0
   16.5963  -17.4079  -12.9715 C   0  0  0  0  0  0  0  0  0  0  0  0
   20.3664  -19.8944  -13.6572 O   0  0  0  0  0  0  0  0  0  0  0  0
  2  3  2  0
  2  1  1  0
  4  2  1  0
  5  4  1  0
  5  6  1  6
  7  5  1  0
  8  7  2  0
  9  7  1  0
 10  9  1  0
 10 11  1  6
 12 11  1  0
 12 13  2  0
 14 13  1  0
 15 14  1  0
 16 15  2  0
 16 12  1  0
 17 10  1  0
 17 18  2  0
 20 21  2  0
 20 19  1  0
 22 21  1  0
 23 22  2  0
 24 23  1  0
 25 24  1  1
 25 26  1  0
 26 17  1  0
 27 25  1  0
 28 27  2  0
 29 23  1  0
 29 30  2  0
 30 20  1  0
 31 27  1  0
M  END
$$$$
