NHY.pdb
     RDKit          3D

 31 32  0  0  1  0  0  0  0  0999 V2000
   29.1828  -17.1580  -17.1539 N   0  0  0  0  0  0  0  0  0  0  0  0
   27.9733  -16.7340  -17.7378 C   0  0  0  0  0  0  0  0  0  0  0  0
   27.8517  -15.6337  -18.3496 O   0  0  0  0  0  0  0  0  0  0  0  0
   26.7674  -17.5834  -17.6544 C   0  0  0  0  0  0  0  0  0  0  0  0
   27.0405  -18.7874  -16.7742 C   0  0  2  0  0  0  0  0  0  0  0  0
   28.1936  -19.5312  -17.1532 N   0  0  0  0  0  0  0  0  0  0  0  0
   25.8055  -19.5979  -16.6528 C   0  0  0  0  0  0  0  0  0  0  0  0
   25.0506  -19.7102  -17.6685 O   0  0  0  0  0  0  0  0  0  0  0  0
   25.3968  -20.2600  -15.4907 N   0  0  0  0  0  0  0  0  0  0  0  0
   24.1945  -21.1790  -15.4933 C   0  0  1  0  0  0  0  0  0  0  0  0
   24.6293  -22.3543  -14.7042 C   0  0  0  0  0  0  0  0  0  0  0  0
   25.4194  -23.3948  -15.3265 C   0  0  0  0  0  0  0  0  0  0  0  0
   25.7460  -23.2878  -16.6971 C   0  0  0  0  0  0  0  0  0  0  0  0
   26.4654  -24.3258  -17.0691 N   0  0  0  0  0  0  0  0  0  0  0  0
   26.6173  -25.1052  -15.9832 C   0  0  0  0  0  0  0  0  0  0  0  0
   25.9871  -24.5313  -14.9609 N   0  0  0  0  0  0  0  0  0  0  0  0
   23.1277  -20.4405  -14.7456 C   0  0  0  0  0  0  0  0  0  0  0  0
   23.4911  -19.6510  -13.8037 O   0  0  0  0  0  0  0  0  0  0  0  0
   16.9436  -14.7631  -12.6460 O   0  0  0  0  0  0  0  0  0  0  0  0
   17.8992  -15.6190  -13.1860 C   0  0  0  0  0  0  0  0  0  0  0  0
   17.6562  -16.4039  -14.2901 C   0  0  0  0  0  0  0  0  0  0  0  0
   18.6208  -17.2530  -14.8170 C   0  0  0  0  0  0  0  0  0  0  0  0
   19.8817  -17.3386  -14.2372 C   0  0  0  0  0  0  0  0  0  0  0  0
   20.8702  -18.2508  -14.8158 C   0  0  0  0  0  0  0  0  0  0  0  0
   20.8208  -19.6590  -14.2585 C   0  0  2  0  0  0  0  0  0  0  0  0
   21.7467  -20.5256  -14.9844 N   0  0  0  0  0  0  0  0  0  0  0  0
   19.4507  -20.2076  -14.3254 C   0  0  0  0  0  0  0  0  0  0  0  0
   18.9801  -20.7904  -15.3149 O   0  0  0  0  0  0  0  0  0  0  0  0
   20.1138  -16.5474  -13.1308 C   0  0  0  0  0  0  0  0  0  0  0  0
   19.1505  -15.7063  -12.6133 C   0  0  0  0  0  0  0  0  0  0  0  0
   18.6085  -20.0751  -13.2154 O   0  0  0  0  0  0  0  0  0  0  0  0
  2  3  2  0
  2  1  1  0
  4  2  1  0
  5  4  1  0
  5  6  1  6
  7  5  1  0
  8  7  2  0
  9  7  1  0
 10  9  1  0
 10 11  1  1
 12 11  1  0
 12 13  2  0
 14 13  1  0
 15 14  1  0
 16 15  2  0
 16 12  1  0
 17 10  1  0
 17 18  2  0
 20 21  2  0
 20 19  1  0
 22 21  1  0
 23 22  2  0
 24 23  1  0
 25 24  1  6
 25 26  1  0
 26 17  1  0
 27 25  1  0
 28 27  2  0
 29 23  1  0
 29 30  2  0
 30 20  1  0
 31 27  1  0
M  END
$$$$
