HAF.pdb
     RDKit          3D

 27 28  0  0  1  0  0  0  0  0999 V2000
    7.9485  -16.9874   20.3572 N   0  0  0  0  0  0  0  0  0  0  0  0
    7.6796  -16.0211   21.4062 C   0  0  1  0  0  0  0  0  0  0  0  0
    6.7127  -15.0006   20.8175 C   0  0  0  0  0  0  0  0  0  0  0  0
    7.3216  -14.2744   19.6825 C   0  0  0  0  0  0  0  0  0  0  0  0
    8.0378  -13.0852   19.7408 C   0  0  0  0  0  0  0  0  0  0  0  0
    8.4105  -12.7790   18.4713 N   0  0  0  0  0  0  0  0  0  0  0  0
    7.9554  -13.7216   17.6568 C   0  0  0  0  0  0  0  0  0  0  0  0
    7.2874  -14.6440   18.3790 N   0  0  0  0  0  0  0  0  0  0  0  0
    7.0316  -16.6906   22.5430 C   0  0  0  0  0  0  0  0  0  0  0  0
    5.9721  -17.3570   22.2836 O   0  0  0  0  0  0  0  0  0  0  0  0
    8.4291  -18.8268   23.8832 C   0  0  0  0  0  0  0  0  0  0  0  0
    7.5692  -17.8149   24.6511 C   0  0  2  0  0  0  0  0  0  0  0  0
    7.5252  -16.6247   23.8736 N   0  0  0  0  0  0  0  0  0  0  0  0
    8.1048  -17.6092   26.0209 C   0  0  0  0  0  0  0  0  0  0  0  0
    8.3119  -18.6186   26.7432 O   0  0  0  0  0  0  0  0  0  0  0  0
    8.3935  -16.3358   26.5539 N   0  0  0  0  0  0  0  0  0  0  0  0
    9.7692  -15.8298   26.6888 C   0  0  1  0  0  0  0  0  0  0  0  0
    9.7563  -14.4281   26.1740 C   0  0  0  0  0  0  0  0  0  0  0  0
    8.6880  -13.5803   26.7022 C   0  0  0  0  0  0  0  0  0  0  0  0
    7.4792  -13.5296   26.0406 C   0  0  0  0  0  0  0  0  0  0  0  0
    6.4247  -12.7434   26.4934 C   0  0  0  0  0  0  0  0  0  0  0  0
    6.5868  -11.9985   27.6255 C   0  0  0  0  0  0  0  0  0  0  0  0
    7.7789  -12.0292   28.3045 C   0  0  0  0  0  0  0  0  0  0  0  0
    8.8137  -12.8139   27.8420 C   0  0  0  0  0  0  0  0  0  0  0  0
   10.2351  -15.9562   28.0864 C   0  0  0  0  0  0  0  0  0  0  0  0
    9.4397  -16.5499   29.0545 O   0  0  0  0  0  0  0  0  0  0  0  0
   11.3730  -15.5348   28.4755 O   0  0  0  0  0  0  0  0  0  0  0  0
  2  1  1  6
  2  9  1  0
  2  3  1  0
  4  3  1  0
  5  4  2  0
  6  5  1  0
  7  6  1  0
  7  8  2  0
  8  4  1  0
  9 13  1  0
  9 10  2  0
 12 11  1  6
 13 12  1  0
 14 15  2  0
 14 12  1  0
 16 14  1  0
 17 16  1  0
 17 18  1  1
 19 20  2  0
 19 18  1  0
 21 20  1  0
 22 21  2  0
 23 22  1  0
 23 24  2  0
 24 19  1  0
 25 26  1  0
 25 17  1  0
 27 25  2  0
M  END
$$$$
