HAF.pdb
     RDKit          3D

 27 28  0  0  1  0  0  0  0  0999 V2000
    8.2746  -17.2462   19.7043 N   0  0  0  0  0  0  0  0  0  0  0  0
    8.5828  -16.2307   20.6944 C   0  0  1  0  0  0  0  0  0  0  0  0
    7.4901  -15.1739   20.5856 C   0  0  0  0  0  0  0  0  0  0  0  0
    7.8181  -14.1644   19.5560 C   0  0  0  0  0  0  0  0  0  0  0  0
    7.4529  -14.1908   18.2157 C   0  0  0  0  0  0  0  0  0  0  0  0
    7.9635  -13.0723   17.6390 N   0  0  0  0  0  0  0  0  0  0  0  0
    8.6146  -12.3784   18.5629 C   0  0  0  0  0  0  0  0  0  0  0  0
    8.5366  -13.0302   19.7409 N   0  0  0  0  0  0  0  0  0  0  0  0
    8.5420  -16.8213   22.0398 C   0  0  0  0  0  0  0  0  0  0  0  0
    7.7608  -17.8203   22.2003 O   0  0  0  0  0  0  0  0  0  0  0  0
   10.1954  -18.3950   23.9378 C   0  0  0  0  0  0  0  0  0  0  0  0
    9.4140  -17.1278   24.3076 C   0  0  2  0  0  0  0  0  0  0  0  0
    9.3138  -16.3368   23.1298 N   0  0  0  0  0  0  0  0  0  0  0  0
   10.0675  -16.4245   25.4407 C   0  0  0  0  0  0  0  0  0  0  0  0
   11.1551  -15.8274   25.2306 O   0  0  0  0  0  0  0  0  0  0  0  0
    9.5285  -16.3925   26.7436 N   0  0  0  0  0  0  0  0  0  0  0  0
   10.0663  -15.5188   27.7991 C   0  0  1  0  0  0  0  0  0  0  0  0
    8.8883  -14.8943   28.4716 C   0  0  0  0  0  0  0  0  0  0  0  0
    8.1472  -13.9291   27.6603 C   0  0  0  0  0  0  0  0  0  0  0  0
    6.8859  -14.2564   27.2092 C   0  0  0  0  0  0  0  0  0  0  0  0
    6.1310  -13.3813   26.4350 C   0  0  0  0  0  0  0  0  0  0  0  0
    6.6501  -12.1616   26.1097 C   0  0  0  0  0  0  0  0  0  0  0  0
    7.9028  -11.8089   26.5447 C   0  0  0  0  0  0  0  0  0  0  0  0
    8.6375  -12.6881   27.3113 C   0  0  0  0  0  0  0  0  0  0  0  0
   10.9466  -16.2831   28.7087 C   0  0  0  0  0  0  0  0  0  0  0  0
   11.7705  -15.6364   29.6172 O   0  0  0  0  0  0  0  0  0  0  0  0
   10.9988  -17.5562   28.7107 O   0  0  0  0  0  0  0  0  0  0  0  0
  2  1  1  6
  2  9  1  0
  2  3  1  0
  4  3  1  0
  5  4  2  0
  6  5  1  0
  7  6  1  0
  7  8  2  0
  8  4  1  0
  9 13  1  0
  9 10  2  0
 12 11  1  6
 13 12  1  0
 14 15  2  0
 14 12  1  0
 16 14  1  0
 17 16  1  0
 17 18  1  1
 19 20  2  0
 19 18  1  0
 21 20  1  0
 22 21  2  0
 23 22  1  0
 23 24  2  0
 24 19  1  0
 25 26  1  0
 25 17  1  0
 27 25  2  0
M  END
$$$$
