HAF.pdb
     RDKit          3D

 27 28  0  0  1  0  0  0  0  0999 V2000
    6.9651  -16.7763   20.6307 N   0  0  0  0  0  0  0  0  0  0  0  0
    8.1861  -16.1809   21.1418 C   0  0  1  0  0  0  0  0  0  0  0  0
    7.9386  -14.6788   21.2132 C   0  0  0  0  0  0  0  0  0  0  0  0
    8.1557  -14.0345   19.9000 C   0  0  0  0  0  0  0  0  0  0  0  0
    8.5450  -14.6562   18.7199 C   0  0  0  0  0  0  0  0  0  0  0  0
    8.6225  -13.6928   17.7660 N   0  0  0  0  0  0  0  0  0  0  0  0
    8.3005  -12.5280   18.3125 C   0  0  0  0  0  0  0  0  0  0  0  0
    8.0121  -12.7171   19.6162 N   0  0  0  0  0  0  0  0  0  0  0  0
    8.4540  -16.6843   22.4966 C   0  0  0  0  0  0  0  0  0  0  0  0
    7.4565  -16.7322   23.2945 O   0  0  0  0  0  0  0  0  0  0  0  0
   10.9136  -18.7890   24.1380 C   0  0  0  0  0  0  0  0  0  0  0  0
    9.8733  -17.6659   24.2343 C   0  0  2  0  0  0  0  0  0  0  0  0
    9.7386  -17.1048   22.9342 N   0  0  0  0  0  0  0  0  0  0  0  0
   10.2683  -16.6768   25.2692 C   0  0  0  0  0  0  0  0  0  0  0  0
   11.0760  -15.7654   24.9525 O   0  0  0  0  0  0  0  0  0  0  0  0
    9.7820  -16.7083   26.5927 N   0  0  0  0  0  0  0  0  0  0  0  0
   10.1654  -15.7044   27.5987 C   0  0  1  0  0  0  0  0  0  0  0  0
    8.8976  -15.2394   28.2362 C   0  0  0  0  0  0  0  0  0  0  0  0
    8.1436  -14.2466   27.4716 C   0  0  0  0  0  0  0  0  0  0  0  0
    6.8698  -14.5533   27.0417 C   0  0  0  0  0  0  0  0  0  0  0  0
    6.1022  -13.6516   26.3117 C   0  0  0  0  0  0  0  0  0  0  0  0
    6.6212  -12.4258   26.0098 C   0  0  0  0  0  0  0  0  0  0  0  0
    7.8862  -12.0932   26.4246 C   0  0  0  0  0  0  0  0  0  0  0  0
    8.6334  -12.9987   27.1472 C   0  0  0  0  0  0  0  0  0  0  0  0
   11.1480  -16.2690   28.5486 C   0  0  0  0  0  0  0  0  0  0  0  0
   11.4876  -17.6128   28.5119 O   0  0  0  0  0  0  0  0  0  0  0  0
   11.7289  -15.5671   29.4395 O   0  0  0  0  0  0  0  0  0  0  0  0
  2  1  1  1
  2  9  1  0
  2  3  1  0
  4  3  1  0
  5  4  2  0
  6  5  1  0
  7  6  1  0
  7  8  2  0
  8  4  1  0
  9 13  1  0
  9 10  2  0
 12 11  1  6
 13 12  1  0
 14 15  2  0
 14 12  1  0
 16 14  1  0
 17 16  1  0
 17 18  1  1
 19 20  2  0
 19 18  1  0
 21 20  1  0
 22 21  2  0
 23 22  1  0
 23 24  2  0
 24 19  1  0
 25 26  1  0
 25 17  1  0
 27 25  2  0
M  END
$$$$
