HAF.pdb
     RDKit          3D

 27 28  0  0  1  0  0  0  0  0999 V2000
    8.9632  -18.8560   20.1790 N   0  0  0  0  0  0  0  0  0  0  0  0
   10.0854  -17.9390   20.0983 C   0  0  1  0  0  0  0  0  0  0  0  0
   10.3199  -17.6709   18.6164 C   0  0  0  0  0  0  0  0  0  0  0  0
   10.6226  -18.9198   17.8847 C   0  0  0  0  0  0  0  0  0  0  0  0
   11.7819  -19.6801   17.9761 C   0  0  0  0  0  0  0  0  0  0  0  0
   11.6356  -20.7367   17.1356 N   0  0  0  0  0  0  0  0  0  0  0  0
   10.4507  -20.6489   16.5464 C   0  0  0  0  0  0  0  0  0  0  0  0
    9.8172  -19.5448   16.9918 N   0  0  0  0  0  0  0  0  0  0  0  0
    9.7408  -16.6739   20.7625 C   0  0  0  0  0  0  0  0  0  0  0  0
   10.6367  -15.7622   20.7521 O   0  0  0  0  0  0  0  0  0  0  0  0
    6.7860  -15.0705   22.3386 C   0  0  0  0  0  0  0  0  0  0  0  0
    8.2938  -15.2180   22.0981 C   0  0  2  0  0  0  0  0  0  0  0  0
    8.4900  -16.4379   21.3936 N   0  0  0  0  0  0  0  0  0  0  0  0
    9.0357  -15.1489   23.3827 C   0  0  0  0  0  0  0  0  0  0  0  0
   10.2289  -14.7496   23.3670 O   0  0  0  0  0  0  0  0  0  0  0  0
    8.4681  -15.5095   24.6224 N   0  0  0  0  0  0  0  0  0  0  0  0
    9.2617  -15.5939   25.8593 C   0  0  1  0  0  0  0  0  0  0  0  0
    9.3056  -14.2139   26.4283 C   0  0  0  0  0  0  0  0  0  0  0  0
    8.1613  -13.3662   26.0953 C   0  0  0  0  0  0  0  0  0  0  0  0
    8.3628  -12.2277   25.3440 C   0  0  0  0  0  0  0  0  0  0  0  0
    7.3153  -11.3817   24.9941 C   0  0  0  0  0  0  0  0  0  0  0  0
    6.0491  -11.6836   25.4045 C   0  0  0  0  0  0  0  0  0  0  0  0
    5.8188  -12.8102   26.1534 C   0  0  0  0  0  0  0  0  0  0  0  0
    6.8683  -13.6378   26.4913 C   0  0  0  0  0  0  0  0  0  0  0  0
    8.6931  -16.6071   26.7740 C   0  0  0  0  0  0  0  0  0  0  0  0
    9.3401  -16.9512   27.9511 O   0  0  0  0  0  0  0  0  0  0  0  0
    7.5965  -17.2117   26.5385 O   0  0  0  0  0  0  0  0  0  0  0  0
  2  1  1  6
  2  9  1  0
  2  3  1  0
  4  3  1  0
  5  4  2  0
  6  5  1  0
  7  6  1  0
  7  8  2  0
  8  4  1  0
  9 13  1  0
  9 10  2  0
 12 11  1  1
 13 12  1  0
 14 15  2  0
 14 12  1  0
 16 14  1  0
 17 16  1  0
 17 18  1  1
 19 20  2  0
 19 18  1  0
 21 20  1  0
 22 21  2  0
 23 22  1  0
 23 24  2  0
 24 19  1  0
 25 26  1  0
 25 17  1  0
 27 25  2  0
M  END
$$$$
