HAF.pdb
     RDKit          3D

 27 28  0  0  1  0  0  0  0  0999 V2000
    9.9718  -18.4516   19.4426 N   0  0  0  0  0  0  0  0  0  0  0  0
    8.9402  -18.1283   20.4111 C   0  0  1  0  0  0  0  0  0  0  0  0
    9.1480  -19.0660   21.5945 C   0  0  0  0  0  0  0  0  0  0  0  0
    8.7785  -20.4561   21.2512 C   0  0  0  0  0  0  0  0  0  0  0  0
    8.2673  -20.9088   20.0411 C   0  0  0  0  0  0  0  0  0  0  0  0
    8.0729  -22.2472   20.1637 N   0  0  0  0  0  0  0  0  0  0  0  0
    8.4405  -22.6192   21.3825 C   0  0  0  0  0  0  0  0  0  0  0  0
    8.8745  -21.5380   22.0617 N   0  0  0  0  0  0  0  0  0  0  0  0
    9.1059  -16.7411   20.8678 C   0  0  0  0  0  0  0  0  0  0  0  0
   10.2896  -16.2615   20.8161 O   0  0  0  0  0  0  0  0  0  0  0  0
    7.0093  -13.7990   21.4936 C   0  0  0  0  0  0  0  0  0  0  0  0
    8.2946  -14.6001   21.7369 C   0  0  2  0  0  0  0  0  0  0  0  0
    8.0330  -15.9430   21.3481 N   0  0  0  0  0  0  0  0  0  0  0  0
    8.7327  -14.4662   23.1496 C   0  0  0  0  0  0  0  0  0  0  0  0
    8.6944  -13.3284   23.6855 O   0  0  0  0  0  0  0  0  0  0  0  0
    9.1907  -15.5536   23.9222 N   0  0  0  0  0  0  0  0  0  0  0  0
    9.2046  -15.5259   25.3939 C   0  0  1  0  0  0  0  0  0  0  0  0
    7.7765  -15.4954   25.8295 C   0  0  0  0  0  0  0  0  0  0  0  0
    7.2014  -14.1599   25.9862 C   0  0  0  0  0  0  0  0  0  0  0  0
    7.8998  -13.2049   26.6943 C   0  0  0  0  0  0  0  0  0  0  0  0
    7.4066  -11.9171   26.8773 C   0  0  0  0  0  0  0  0  0  0  0  0
    6.1960  -11.5846   26.3418 C   0  0  0  0  0  0  0  0  0  0  0  0
    5.4788  -12.5147   25.6322 C   0  0  0  0  0  0  0  0  0  0  0  0
    5.9822  -13.7864   25.4604 C   0  0  0  0  0  0  0  0  0  0  0  0
    9.9753  -16.6690   25.9284 C   0  0  0  0  0  0  0  0  0  0  0  0
   10.3844  -16.6990   27.2529 O   0  0  0  0  0  0  0  0  0  0  0  0
   10.3024  -17.6742   25.2168 O   0  0  0  0  0  0  0  0  0  0  0  0
  2  1  1  6
  2  9  1  0
  2  3  1  0
  4  3  1  0
  5  4  2  0
  6  5  1  0
  7  6  1  0
  7  8  2  0
  8  4  1  0
  9 13  1  0
  9 10  2  0
 12 11  1  1
 13 12  1  0
 14 15  2  0
 14 12  1  0
 16 14  1  0
 17 16  1  0
 17 18  1  1
 19 20  2  0
 19 18  1  0
 21 20  1  0
 22 21  2  0
 23 22  1  0
 23 24  2  0
 24 19  1  0
 25 26  1  0
 25 17  1  0
 27 25  2  0
M  END
$$$$
