HAF.pdb
     RDKit          3D

 27 28  0  0  1  0  0  0  0  0999 V2000
    9.0438  -18.1717   18.8526 N   0  0  0  0  0  0  0  0  0  0  0  0
    8.0287  -17.5959   19.7155 C   0  0  1  0  0  0  0  0  0  0  0  0
    7.7574  -18.6217   20.8095 C   0  0  0  0  0  0  0  0  0  0  0  0
    6.8872  -19.7128   20.3206 C   0  0  0  0  0  0  0  0  0  0  0  0
    6.3529  -19.8456   19.0449 C   0  0  0  0  0  0  0  0  0  0  0  0
    5.6185  -20.9879   19.0348 N   0  0  0  0  0  0  0  0  0  0  0  0
    5.6851  -21.5454   20.2364 C   0  0  0  0  0  0  0  0  0  0  0  0
    6.4562  -20.7803   21.0357 N   0  0  0  0  0  0  0  0  0  0  0  0
    8.5428  -16.3653   20.3333 C   0  0  0  0  0  0  0  0  0  0  0  0
    9.7957  -16.3341   20.5848 O   0  0  0  0  0  0  0  0  0  0  0  0
    7.3092  -12.9439   21.0787 C   0  0  0  0  0  0  0  0  0  0  0  0
    8.3293  -14.0835   21.1966 C   0  0  2  0  0  0  0  0  0  0  0  0
    7.7236  -15.2483   20.6495 N   0  0  0  0  0  0  0  0  0  0  0  0
    8.7661  -14.2484   22.6064 C   0  0  0  0  0  0  0  0  0  0  0  0
    9.4757  -13.3479   23.1250 O   0  0  0  0  0  0  0  0  0  0  0  0
    8.4243  -15.3667   23.3948 N   0  0  0  0  0  0  0  0  0  0  0  0
    8.9225  -15.5463   24.7682 C   0  0  1  0  0  0  0  0  0  0  0  0
    7.7518  -15.3423   25.6725 C   0  0  0  0  0  0  0  0  0  0  0  0
    7.4535  -13.9486   26.0005 C   0  0  0  0  0  0  0  0  0  0  0  0
    8.4465  -13.1552   26.5351 C   0  0  0  0  0  0  0  0  0  0  0  0
    8.2253  -11.8225   26.8668 C   0  0  0  0  0  0  0  0  0  0  0  0
    6.9902  -11.2799   26.6589 C   0  0  0  0  0  0  0  0  0  0  0  0
    5.9829  -12.0458   26.1282 C   0  0  0  0  0  0  0  0  0  0  0  0
    6.2192  -13.3650   25.8050 C   0  0  0  0  0  0  0  0  0  0  0  0
    9.5779  -16.8636   24.9157 C   0  0  0  0  0  0  0  0  0  0  0  0
   10.2063  -17.2212   26.0987 O   0  0  0  0  0  0  0  0  0  0  0  0
    9.6032  -17.7304   23.9821 O   0  0  0  0  0  0  0  0  0  0  0  0
  2  1  1  6
  2  9  1  0
  2  3  1  0
  4  3  1  0
  5  4  2  0
  6  5  1  0
  7  6  1  0
  7  8  2  0
  8  4  1  0
  9 13  1  0
  9 10  2  0
 12 11  1  1
 13 12  1  0
 14 15  2  0
 14 12  1  0
 16 14  1  0
 17 16  1  0
 17 18  1  1
 19 20  2  0
 19 18  1  0
 21 20  1  0
 22 21  2  0
 23 22  1  0
 23 24  2  0
 24 19  1  0
 25 26  1  0
 25 17  1  0
 27 25  2  0
M  END
$$$$
