HAF.pdb
     RDKit          3D

 27 28  0  0  1  0  0  0  0  0999 V2000
    6.1878  -15.7704   21.5040 N   0  0  0  0  0  0  0  0  0  0  0  0
    7.5838  -15.8857   21.8842 C   0  0  1  0  0  0  0  0  0  0  0  0
    8.1381  -14.4668   21.9323 C   0  0  0  0  0  0  0  0  0  0  0  0
    8.3909  -13.9413   20.5734 C   0  0  0  0  0  0  0  0  0  0  0  0
    8.0873  -14.5632   19.3686 C   0  0  0  0  0  0  0  0  0  0  0  0
    8.4900  -13.7300   18.3747 N   0  0  0  0  0  0  0  0  0  0  0  0
    9.0182  -12.6429   18.9208 C   0  0  0  0  0  0  0  0  0  0  0  0
    8.9664  -12.7540   20.2638 N   0  0  0  0  0  0  0  0  0  0  0  0
    7.6854  -16.4824   23.2236 C   0  0  0  0  0  0  0  0  0  0  0  0
    6.6454  -16.4045   23.9627 O   0  0  0  0  0  0  0  0  0  0  0  0
    9.7035  -19.0787   24.7653 C   0  0  0  0  0  0  0  0  0  0  0  0
    8.7904  -17.8562   24.9232 C   0  0  2  0  0  0  0  0  0  0  0  0
    8.8588  -17.1205   23.7079 N   0  0  0  0  0  0  0  0  0  0  0  0
    9.1803  -17.0654   26.1183 C   0  0  0  0  0  0  0  0  0  0  0  0
    9.1498  -17.6245   27.2452 O   0  0  0  0  0  0  0  0  0  0  0  0
    9.5840  -15.7157   26.0528 N   0  0  0  0  0  0  0  0  0  0  0  0
    9.9887  -14.9540   27.2456 C   0  0  1  0  0  0  0  0  0  0  0  0
    8.7599  -14.7876   28.0777 C   0  0  0  0  0  0  0  0  0  0  0  0
    7.7285  -13.9264   27.5003 C   0  0  0  0  0  0  0  0  0  0  0  0
    8.0954  -12.7260   26.9296 C   0  0  0  0  0  0  0  0  0  0  0  0
    7.1616  -11.8641   26.3635 C   0  0  0  0  0  0  0  0  0  0  0  0
    5.8421  -12.2130   26.3709 C   0  0  0  0  0  0  0  0  0  0  0  0
    5.4479  -13.4016   26.9319 C   0  0  0  0  0  0  0  0  0  0  0  0
    6.3863  -14.2440   27.4887 C   0  0  0  0  0  0  0  0  0  0  0  0
   11.1032  -15.6316   27.9421 C   0  0  0  0  0  0  0  0  0  0  0  0
   11.6119  -16.8343   27.4762 O   0  0  0  0  0  0  0  0  0  0  0  0
   11.6507  -15.1591   28.9912 O   0  0  0  0  0  0  0  0  0  0  0  0
  2  1  1  1
  2  9  1  0
  2  3  1  0
  4  3  1  0
  5  4  2  0
  6  5  1  0
  7  6  1  0
  7  8  2  0
  8  4  1  0
  9 13  1  0
  9 10  2  0
 12 11  1  6
 13 12  1  0
 14 15  2  0
 14 12  1  0
 16 14  1  0
 17 16  1  0
 17 18  1  1
 19 20  2  0
 19 18  1  0
 21 20  1  0
 22 21  2  0
 23 22  1  0
 23 24  2  0
 24 19  1  0
 25 26  1  0
 25 17  1  0
 27 25  2  0
M  END
$$$$
