HAF.pdb
     RDKit          3D

 27 28  0  0  1  0  0  0  0  0999 V2000
   10.6225  -18.5009   18.2089 N   0  0  0  0  0  0  0  0  0  0  0  0
   11.1590  -19.0772   19.4282 C   0  0  1  0  0  0  0  0  0  0  0  0
   12.5968  -18.5850   19.5437 C   0  0  0  0  0  0  0  0  0  0  0  0
   13.4839  -19.2856   18.5902 C   0  0  0  0  0  0  0  0  0  0  0  0
   13.9989  -20.5696   18.7190 C   0  0  0  0  0  0  0  0  0  0  0  0
   14.7596  -20.8084   17.6197 N   0  0  0  0  0  0  0  0  0  0  0  0
   14.7271  -19.7358   16.8403 C   0  0  0  0  0  0  0  0  0  0  0  0
   13.9523  -18.7947   17.4170 N   0  0  0  0  0  0  0  0  0  0  0  0
   10.3945  -18.5901   20.5852 C   0  0  0  0  0  0  0  0  0  0  0  0
   10.1278  -17.3402   20.6069 O   0  0  0  0  0  0  0  0  0  0  0  0
    8.2492  -20.0436   23.1841 C   0  0  0  0  0  0  0  0  0  0  0  0
    9.1055  -18.8904   22.6457 C   0  0  2  0  0  0  0  0  0  0  0  0
    9.9571  -19.4315   21.6432 N   0  0  0  0  0  0  0  0  0  0  0  0
    9.8396  -18.2255   23.7522 C   0  0  0  0  0  0  0  0  0  0  0  0
   10.9970  -18.6309   24.0346 O   0  0  0  0  0  0  0  0  0  0  0  0
    9.3030  -17.1599   24.5041 N   0  0  0  0  0  0  0  0  0  0  0  0
    9.9765  -16.6159   25.6946 C   0  0  1  0  0  0  0  0  0  0  0  0
    9.2531  -15.3594   26.0523 C   0  0  0  0  0  0  0  0  0  0  0  0
    9.5972  -14.7920   27.3555 C   0  0  0  0  0  0  0  0  0  0  0  0
   10.9126  -14.4808   27.6284 C   0  0  0  0  0  0  0  0  0  0  0  0
   11.3027  -13.9381   28.8484 C   0  0  0  0  0  0  0  0  0  0  0  0
   10.3591  -13.7050   29.8066 C   0  0  0  0  0  0  0  0  0  0  0  0
    9.0424  -14.0049   29.5628 C   0  0  0  0  0  0  0  0  0  0  0  0
    8.6729  -14.5423   28.3483 C   0  0  0  0  0  0  0  0  0  0  0  0
   10.0120  -17.6221   26.7775 C   0  0  0  0  0  0  0  0  0  0  0  0
    8.8899  -18.3730   27.0930 O   0  0  0  0  0  0  0  0  0  0  0  0
   11.0557  -17.8535   27.4709 O   0  0  0  0  0  0  0  0  0  0  0  0
  2  1  1  6
  2  9  1  0
  2  3  1  0
  4  3  1  0
  5  4  2  0
  6  5  1  0
  7  6  1  0
  7  8  2  0
  8  4  1  0
  9 13  1  0
  9 10  2  0
 12 11  1  1
 13 12  1  0
 14 15  2  0
 14 12  1  0
 16 14  1  0
 17 16  1  0
 17 18  1  1
 19 20  2  0
 19 18  1  0
 21 20  1  0
 22 21  2  0
 23 22  1  0
 23 24  2  0
 24 19  1  0
 25 26  1  0
 25 17  1  0
 27 25  2  0
M  END
$$$$
