HAF.pdb
     RDKit          3D

 27 28  0  0  1  0  0  0  0  0999 V2000
    8.5984  -17.0618   19.0328 N   0  0  0  0  0  0  0  0  0  0  0  0
    8.8383  -16.1010   20.0939 C   0  0  1  0  0  0  0  0  0  0  0  0
    7.6774  -15.1142   20.0552 C   0  0  0  0  0  0  0  0  0  0  0  0
    7.7198  -14.2808   18.8344 C   0  0  0  0  0  0  0  0  0  0  0  0
    8.3759  -13.0664   18.6757 C   0  0  0  0  0  0  0  0  0  0  0  0
    8.1516  -12.6531   17.4017 N   0  0  0  0  0  0  0  0  0  0  0  0
    7.3964  -13.5555   16.7899 C   0  0  0  0  0  0  0  0  0  0  0  0
    7.1224  -14.5576   17.6498 N   0  0  0  0  0  0  0  0  0  0  0  0
    8.8370  -16.7870   21.3938 C   0  0  0  0  0  0  0  0  0  0  0  0
    7.7501  -17.3700   21.7297 O   0  0  0  0  0  0  0  0  0  0  0  0
   11.0579  -18.4861   23.5642 C   0  0  0  0  0  0  0  0  0  0  0  0
    9.8622  -17.5280   23.4908 C   0  0  2  0  0  0  0  0  0  0  0  0
    9.9630  -16.8232   22.2595 N   0  0  0  0  0  0  0  0  0  0  0  0
    9.8314  -16.6407   24.6813 C   0  0  0  0  0  0  0  0  0  0  0  0
    9.7977  -15.3957   24.5023 O   0  0  0  0  0  0  0  0  0  0  0  0
    9.8379  -17.1254   26.0057 N   0  0  0  0  0  0  0  0  0  0  0  0
    9.4285  -16.2970   27.1515 C   0  0  1  0  0  0  0  0  0  0  0  0
    7.9851  -15.9745   26.9455 C   0  0  0  0  0  0  0  0  0  0  0  0
    7.6963  -14.5718   26.6490 C   0  0  0  0  0  0  0  0  0  0  0  0
    7.9356  -13.6164   27.6141 C   0  0  0  0  0  0  0  0  0  0  0  0
    7.6825  -12.2666   27.3924 C   0  0  0  0  0  0  0  0  0  0  0  0
    7.1824  -11.8716   26.1854 C   0  0  0  0  0  0  0  0  0  0  0  0
    6.9345  -12.8005   25.2063 C   0  0  0  0  0  0  0  0  0  0  0  0
    7.1910  -14.1342   25.4426 C   0  0  0  0  0  0  0  0  0  0  0  0
    9.7171  -16.9912   28.4248 C   0  0  0  0  0  0  0  0  0  0  0  0
   10.2157  -16.3006   29.5188 O   0  0  0  0  0  0  0  0  0  0  0  0
    9.5281  -18.2407   28.5880 O   0  0  0  0  0  0  0  0  0  0  0  0
  2  1  1  6
  2  9  1  0
  2  3  1  0
  4  3  1  0
  5  4  2  0
  6  5  1  0
  7  6  1  0
  7  8  2  0
  8  4  1  0
  9 13  1  0
  9 10  2  0
 12 11  1  1
 13 12  1  0
 14 15  2  0
 14 12  1  0
 16 14  1  0
 17 16  1  0
 17 18  1  6
 19 20  2  0
 19 18  1  0
 21 20  1  0
 22 21  2  0
 23 22  1  0
 23 24  2  0
 24 19  1  0
 25 26  1  0
 25 17  1  0
 27 25  2  0
M  END
$$$$
