HAF.pdb
     RDKit          3D

 27 28  0  0  1  0  0  0  0  0999 V2000
    8.0243  -16.7581   20.1274 N   0  0  0  0  0  0  0  0  0  0  0  0
    8.6975  -15.8202   21.0070 C   0  0  1  0  0  0  0  0  0  0  0  0
    7.8664  -14.5428   20.9956 C   0  0  0  0  0  0  0  0  0  0  0  0
    7.9663  -13.8471   19.6945 C   0  0  0  0  0  0  0  0  0  0  0  0
    8.7411  -12.7314   19.4024 C   0  0  0  0  0  0  0  0  0  0  0  0
    8.5311  -12.4285   18.0954 N   0  0  0  0  0  0  0  0  0  0  0  0
    7.6720  -13.3036   17.5901 C   0  0  0  0  0  0  0  0  0  0  0  0
    7.3157  -14.1783   18.5527 N   0  0  0  0  0  0  0  0  0  0  0  0
    8.7271  -16.3570   22.3750 C   0  0  0  0  0  0  0  0  0  0  0  0
    7.5960  -16.5213   22.9475 O   0  0  0  0  0  0  0  0  0  0  0  0
   10.7634  -18.4801   24.3839 C   0  0  0  0  0  0  0  0  0  0  0  0
    9.8444  -17.2521   24.3619 C   0  0  2  0  0  0  0  0  0  0  0  0
    9.9276  -16.6879   23.0590 N   0  0  0  0  0  0  0  0  0  0  0  0
   10.2148  -16.3044   25.4436 C   0  0  0  0  0  0  0  0  0  0  0  0
   11.0904  -15.4327   25.2052 O   0  0  0  0  0  0  0  0  0  0  0  0
    9.6326  -16.3328   26.7278 N   0  0  0  0  0  0  0  0  0  0  0  0
   10.0298  -15.4005   27.7955 C   0  0  1  0  0  0  0  0  0  0  0  0
    8.7715  -14.7729   28.2983 C   0  0  0  0  0  0  0  0  0  0  0  0
    8.0779  -13.9135   27.3396 C   0  0  0  0  0  0  0  0  0  0  0  0
    8.5512  -12.6384   27.1130 C   0  0  0  0  0  0  0  0  0  0  0  0
    7.9361  -11.7740   26.2132 C   0  0  0  0  0  0  0  0  0  0  0  0
    6.8310  -12.1962   25.5324 C   0  0  0  0  0  0  0  0  0  0  0  0
    6.3377  -13.4600   25.7378 C   0  0  0  0  0  0  0  0  0  0  0  0
    6.9594  -14.3039   26.6331 C   0  0  0  0  0  0  0  0  0  0  0  0
   10.8122  -16.1031   28.8351 C   0  0  0  0  0  0  0  0  0  0  0  0
   10.9800  -17.4789   28.7961 O   0  0  0  0  0  0  0  0  0  0  0  0
   11.3671  -15.4970   29.8089 O   0  0  0  0  0  0  0  0  0  0  0  0
  2  1  1  6
  2  9  1  0
  2  3  1  0
  4  3  1  0
  5  4  2  0
  6  5  1  0
  7  6  1  0
  7  8  2  0
  8  4  1  0
  9 13  1  0
  9 10  2  0
 12 11  1  6
 13 12  1  0
 14 15  2  0
 14 12  1  0
 16 14  1  0
 17 16  1  0
 17 18  1  1
 19 20  2  0
 19 18  1  0
 21 20  1  0
 22 21  2  0
 23 22  1  0
 23 24  2  0
 24 19  1  0
 25 26  1  0
 25 17  1  0
 27 25  2  0
M  END
$$$$
