HAF.pdb
     RDKit          3D

 27 28  0  0  1  0  0  0  0  0999 V2000
    8.4712  -18.7464   19.1991 N   0  0  0  0  0  0  0  0  0  0  0  0
    7.6136  -18.1570   20.2108 C   0  0  1  0  0  0  0  0  0  0  0  0
    7.5551  -19.1530   21.3629 C   0  0  0  0  0  0  0  0  0  0  0  0
    6.7674  -20.3506   20.9996 C   0  0  0  0  0  0  0  0  0  0  0  0
    5.6023  -20.3849   20.2435 C   0  0  0  0  0  0  0  0  0  0  0  0
    5.2187  -21.6848   20.1569 N   0  0  0  0  0  0  0  0  0  0  0  0
    6.0922  -22.4297   20.8210 C   0  0  0  0  0  0  0  0  0  0  0  0
    7.0459  -21.6317   21.3429 N   0  0  0  0  0  0  0  0  0  0  0  0
    8.2077  -16.9028   20.6952 C   0  0  0  0  0  0  0  0  0  0  0  0
    9.4781  -16.8911   20.8365 O   0  0  0  0  0  0  0  0  0  0  0  0
    7.0417  -13.5300   21.7774 C   0  0  0  0  0  0  0  0  0  0  0  0
    8.1130  -14.5935   21.5046 C   0  0  2  0  0  0  0  0  0  0  0  0
    7.4451  -15.7437   21.0009 N   0  0  0  0  0  0  0  0  0  0  0  0
    8.9084  -14.8586   22.7305 C   0  0  0  0  0  0  0  0  0  0  0  0
   10.1105  -14.4878   22.7588 O   0  0  0  0  0  0  0  0  0  0  0  0
    8.3821  -15.5067   23.8671 N   0  0  0  0  0  0  0  0  0  0  0  0
    9.1794  -15.7413   25.0820 C   0  0  1  0  0  0  0  0  0  0  0  0
    9.4238  -14.4006   25.6926 C   0  0  0  0  0  0  0  0  0  0  0  0
    8.2238  -13.6052   25.9497 C   0  0  0  0  0  0  0  0  0  0  0  0
    8.2925  -12.2315   25.8504 C   0  0  0  0  0  0  0  0  0  0  0  0
    7.1861  -11.4206   26.0819 C   0  0  0  0  0  0  0  0  0  0  0  0
    5.9954  -11.9973   26.4174 C   0  0  0  0  0  0  0  0  0  0  0  0
    5.8976  -13.3619   26.5235 C   0  0  0  0  0  0  0  0  0  0  0  0
    7.0039  -14.1508   26.2908 C   0  0  0  0  0  0  0  0  0  0  0  0
    8.4937  -16.6975   25.9776 C   0  0  0  0  0  0  0  0  0  0  0  0
    7.2505  -17.2175   25.6513 O   0  0  0  0  0  0  0  0  0  0  0  0
    8.9955  -17.0918   27.0805 O   0  0  0  0  0  0  0  0  0  0  0  0
  2  1  1  6
  2  9  1  0
  2  3  1  0
  4  3  1  0
  5  4  2  0
  6  5  1  0
  7  6  1  0
  7  8  2  0
  8  4  1  0
  9 13  1  0
  9 10  2  0
 12 11  1  1
 13 12  1  0
 14 15  2  0
 14 12  1  0
 16 14  1  0
 17 16  1  0
 17 18  1  1
 19 20  2  0
 19 18  1  0
 21 20  1  0
 22 21  2  0
 23 22  1  0
 23 24  2  0
 24 19  1  0
 25 26  1  0
 25 17  1  0
 27 25  2  0
M  END
$$$$
