PKL.pdb
     RDKit          3D

 25 25  0  0  1  0  0  0  0  0999 V2000
   27.5524  -20.0150  -17.6747 N   0  0  0  0  0  0  0  0  0  0  0  0
   28.7721  -20.1549  -18.4502 C   0  0  0  0  0  0  0  0  0  0  0  0
   29.4899  -18.8231  -18.3644 C   0  0  0  0  0  0  0  0  0  0  0  0
   28.6627  -18.0319  -17.3430 C   0  0  0  0  0  0  0  0  0  0  0  0
   27.9916  -19.1572  -16.5905 C   0  0  1  0  0  0  0  0  0  0  0  0
   26.8430  -18.7264  -15.7916 C   0  0  0  0  0  0  0  0  0  0  0  0
   26.9001  -17.9127  -14.8384 O   0  0  0  0  0  0  0  0  0  0  0  0
   25.5372  -19.2467  -16.0843 N   0  0  0  0  0  0  0  0  0  0  0  0
   24.3562  -18.7568  -15.4109 C   0  0  1  0  0  0  0  0  0  0  0  0
   23.2802  -18.6291  -16.5069 C   0  0  0  0  0  0  0  0  0  0  0  0
   22.1017  -18.0016  -15.8418 C   0  0  0  0  0  0  0  0  0  0  0  0
   20.9442  -17.9221  -16.7955 C   0  0  0  0  0  0  0  0  0  0  0  0
   19.7869  -17.2424  -16.1086 C   0  0  0  0  0  0  0  0  0  0  0  0
   18.6540  -17.3236  -17.0338 N   0  0  0  0  0  0  0  0  0  0  0  0
   23.8696  -19.8337  -14.4973 C   0  0  0  0  0  0  0  0  0  0  0  0
   23.7542  -20.9889  -14.9604 O   0  0  0  0  0  0  0  0  0  0  0  0
   25.8697  -20.3307   -9.6131 C   0  0  0  0  0  0  0  0  0  0  0  0
   25.2428  -20.6233  -10.9228 C   0  0  1  0  0  0  0  0  0  0  0  0
   25.8971  -21.8771  -11.5246 C   0  0  0  0  0  0  0  0  0  0  0  0
   23.7842  -20.6509  -11.0271 C   0  0  0  0  0  0  0  0  0  0  0  0
   23.0937  -20.7633  -12.3320 C   0  0  2  0  0  0  0  0  0  0  0  0
   23.5414  -19.6042  -13.1586 N   0  0  0  0  0  0  0  0  0  0  0  0
   21.6433  -20.6923  -12.3313 C   0  0  0  0  0  0  0  0  0  0  0  0
   20.8815  -21.7749  -11.8897 O   0  0  0  0  0  0  0  0  0  0  0  0
   21.0087  -19.6927  -12.7129 O   0  0  0  0  0  0  0  0  0  0  0  0
  1  2  1  0
  2  3  1  0
  4  3  1  0
  5  1  1  0
  5  4  1  0
  5  6  1  6
  7  6  2  0
  8  6  1  0
  9  8  1  0
  9 10  1  6
 10 11  1  0
 11 12  1  0
 12 13  1  0
 13 14  1  0
 15 16  2  0
 15  9  1  0
 18 17  1  1
 19 18  1  0
 21 20  1  1
 20 18  1  0
 21 22  1  0
 22 15  1  0
 23 24  1  0
 23 21  1  0
 25 23  2  0
M  END
$$$$
