PKL.pdb
     RDKit          3D

 25 25  0  0  1  0  0  0  0  0999 V2000
   16.1529  -13.8324  -20.4562 N   0  0  0  0  0  0  0  0  0  0  0  0
   15.6046  -14.5186  -21.6127 C   0  0  0  0  0  0  0  0  0  0  0  0
   14.1164  -14.6572  -21.3632 C   0  0  0  0  0  0  0  0  0  0  0  0
   13.8858  -13.8371  -20.0874 C   0  0  0  0  0  0  0  0  0  0  0  0
   15.0806  -12.9131  -20.1258 C   0  0  1  0  0  0  0  0  0  0  0  0
   15.3562  -12.2560  -18.8469 C   0  0  0  0  0  0  0  0  0  0  0  0
   14.5791  -11.4561  -18.2722 O   0  0  0  0  0  0  0  0  0  0  0  0
   16.5927  -12.5160  -18.1651 N   0  0  0  0  0  0  0  0  0  0  0  0
   16.8520  -12.0008  -16.8402 C   0  0  1  0  0  0  0  0  0  0  0  0
   18.0641  -12.7971  -16.3186 C   0  0  0  0  0  0  0  0  0  0  0  0
   17.5149  -14.1008  -15.8454 C   0  0  0  0  0  0  0  0  0  0  0  0
   18.6020  -14.9327  -15.2278 C   0  0  0  0  0  0  0  0  0  0  0  0
   18.0476  -16.2930  -14.8883 C   0  0  0  0  0  0  0  0  0  0  0  0
   19.1717  -17.0791  -14.3741 N   0  0  0  0  0  0  0  0  0  0  0  0
   17.3303  -10.5928  -16.9814 C   0  0  0  0  0  0  0  0  0  0  0  0
   17.9382  -10.2813  -18.0282 O   0  0  0  0  0  0  0  0  0  0  0  0
   15.2630   -5.4639  -17.8323 C   0  0  0  0  0  0  0  0  0  0  0  0
   16.4588   -6.1019  -17.2349 C   0  0  1  0  0  0  0  0  0  0  0  0
   17.0251   -5.1834  -16.1404 C   0  0  0  0  0  0  0  0  0  0  0  0
   16.3856   -7.4988  -16.8077 C   0  0  0  0  0  0  0  0  0  0  0  0
   17.5683   -8.2226  -16.2883 C   0  0  2  0  0  0  0  0  0  0  0  0
   17.1275   -9.6190  -16.0000 N   0  0  0  0  0  0  0  0  0  0  0  0
   18.1552   -7.7454  -15.0487 C   0  0  0  0  0  0  0  0  0  0  0  0
   17.9092   -8.4103  -13.8468 O   0  0  0  0  0  0  0  0  0  0  0  0
   18.8911   -6.7446  -14.9829 O   0  0  0  0  0  0  0  0  0  0  0  0
  1  2  1  0
  2  3  1  0
  4  3  1  0
  5  1  1  0
  5  4  1  0
  5  6  1  1
  7  6  2  0
  8  6  1  0
  9  8  1  0
  9 10  1  6
 10 11  1  0
 11 12  1  0
 12 13  1  0
 13 14  1  0
 15 16  2  0
 15  9  1  0
 18 17  1  1
 19 18  1  0
 21 20  1  1
 20 18  1  0
 21 22  1  0
 22 15  1  0
 23 24  1  0
 23 21  1  0
 25 23  2  0
M  END
$$$$
