PKL.pdb
     RDKit          3D

 25 25  0  0  1  0  0  0  0  0999 V2000
   23.4982  -11.9892  -15.0303 N   0  0  0  0  0  0  0  0  0  0  0  0
   24.3099  -13.1914  -15.1009 C   0  0  0  0  0  0  0  0  0  0  0  0
   23.9666  -13.8639  -16.4147 C   0  0  0  0  0  0  0  0  0  0  0  0
   23.0594  -12.8449  -17.1162 C   0  0  0  0  0  0  0  0  0  0  0  0
   23.4742  -11.5703  -16.4189 C   0  0  1  0  0  0  0  0  0  0  0  0
   22.5267  -10.4686  -16.5967 C   0  0  0  0  0  0  0  0  0  0  0  0
   22.2894   -9.8991  -17.6890 O   0  0  0  0  0  0  0  0  0  0  0  0
   21.7935   -9.9711  -15.4668 N   0  0  0  0  0  0  0  0  0  0  0  0
   20.7550   -8.9772  -15.6136 C   0  0  1  0  0  0  0  0  0  0  0  0
   19.6146   -9.4324  -14.6820 C   0  0  0  0  0  0  0  0  0  0  0  0
   18.4151   -9.5776  -15.5567 C   0  0  0  0  0  0  0  0  0  0  0  0
   17.1969   -9.8713  -14.7287 C   0  0  0  0  0  0  0  0  0  0  0  0
   15.9913   -9.9314  -15.6319 C   0  0  0  0  0  0  0  0  0  0  0  0
   14.8287  -10.0970  -14.7561 N   0  0  0  0  0  0  0  0  0  0  0  0
   21.2594   -7.6976  -15.0312 C   0  0  0  0  0  0  0  0  0  0  0  0
   21.8093   -7.7394  -13.9094 O   0  0  0  0  0  0  0  0  0  0  0  0
   23.5074   -3.7290  -18.0779 C   0  0  0  0  0  0  0  0  0  0  0  0
   23.2282   -4.6159  -16.9248 C   0  0  1  0  0  0  0  0  0  0  0  0
   24.5317   -4.8532  -16.1458 C   0  0  0  0  0  0  0  0  0  0  0  0
   22.1004   -4.3109  -16.0450 C   0  0  0  0  0  0  0  0  0  0  0  0
   21.6536   -5.2486  -14.9898 C   0  0  2  0  0  0  0  0  0  0  0  0
   21.1427   -6.4673  -15.6833 N   0  0  0  0  0  0  0  0  0  0  0  0
   20.5677   -4.8187  -14.1269 C   0  0  0  0  0  0  0  0  0  0  0  0
   19.3060   -5.4059  -14.2304 O   0  0  0  0  0  0  0  0  0  0  0  0
   20.6904   -3.9271  -13.2680 O   0  0  0  0  0  0  0  0  0  0  0  0
  1  2  1  0
  2  3  1  0
  4  3  1  0
  5  1  1  0
  5  4  1  0
  5  6  1  1
  7  6  2  0
  8  6  1  0
  9  8  1  0
  9 10  1  1
 10 11  1  0
 11 12  1  0
 12 13  1  0
 13 14  1  0
 15 16  2  0
 15  9  1  0
 18 17  1  6
 19 18  1  0
 21 20  1  6
 20 18  1  0
 21 22  1  0
 22 15  1  0
 23 24  1  0
 23 21  1  0
 25 23  2  0
M  END
$$$$
