PKL.pdb
     RDKit          3D

 25 25  0  0  1  0  0  0  0  0999 V2000
   16.8324  -13.7904  -20.8879 N   0  0  0  0  0  0  0  0  0  0  0  0
   16.0858  -14.4872  -21.9204 C   0  0  0  0  0  0  0  0  0  0  0  0
   14.6754  -14.6526  -21.3918 C   0  0  0  0  0  0  0  0  0  0  0  0
   14.6779  -13.8360  -20.0931 C   0  0  0  0  0  0  0  0  0  0  0  0
   15.8266  -12.8905  -20.3562 C   0  0  1  0  0  0  0  0  0  0  0  0
   16.3294  -12.2276  -19.1516 C   0  0  0  0  0  0  0  0  0  0  0  0
   15.6482  -11.4787  -18.4107 O   0  0  0  0  0  0  0  0  0  0  0  0
   17.6946  -12.4199  -18.7508 N   0  0  0  0  0  0  0  0  0  0  0  0
   18.2275  -11.8104  -17.5538 C   0  0  1  0  0  0  0  0  0  0  0  0
   19.5950  -12.4827  -17.3231 C   0  0  0  0  0  0  0  0  0  0  0  0
   19.3006  -13.7555  -16.6033 C   0  0  0  0  0  0  0  0  0  0  0  0
   20.5644  -14.5374  -16.3857 C   0  0  0  0  0  0  0  0  0  0  0  0
   20.2354  -15.8069  -15.6420 C   0  0  0  0  0  0  0  0  0  0  0  0
   21.5159  -16.4528  -15.3438 N   0  0  0  0  0  0  0  0  0  0  0  0
   18.5324  -10.3814  -17.8638 C   0  0  0  0  0  0  0  0  0  0  0  0
   18.7883  -10.0794  -19.0494 O   0  0  0  0  0  0  0  0  0  0  0  0
   16.9199   -5.2331  -17.9725 C   0  0  0  0  0  0  0  0  0  0  0  0
   17.4441   -6.3190  -18.8327 C   0  0  1  0  0  0  0  0  0  0  0  0
   18.6973   -5.8177  -19.5678 C   0  0  0  0  0  0  0  0  0  0  0  0
   17.6271   -7.6548  -18.2659 C   0  0  0  0  0  0  0  0  0  0  0  0
   18.7355   -7.9661  -17.3348 C   0  0  2  0  0  0  0  0  0  0  0  0
   18.5431   -9.3780  -16.8913 N   0  0  0  0  0  0  0  0  0  0  0  0
   18.8197   -7.1908  -16.1098 C   0  0  0  0  0  0  0  0  0  0  0  0
   18.4998   -7.7705  -14.8815 O   0  0  0  0  0  0  0  0  0  0  0  0
   19.1712   -5.9979  -16.0800 O   0  0  0  0  0  0  0  0  0  0  0  0
  1  2  1  0
  2  3  1  0
  4  3  1  0
  5  1  1  0
  5  4  1  0
  5  6  1  1
  7  6  2  0
  8  6  1  0
  9  8  1  0
  9 10  1  6
 10 11  1  0
 11 12  1  0
 12 13  1  0
 13 14  1  0
 15 16  2  0
 15  9  1  0
 18 17  1  1
 19 18  1  0
 21 20  1  6
 20 18  1  0
 21 22  1  0
 22 15  1  0
 23 24  1  0
 23 21  1  0
 25 23  2  0
M  END
$$$$
