PKL.pdb
     RDKit          3D

 25 25  0  0  1  0  0  0  0  0999 V2000
   27.3772  -20.5921  -14.7702 N   0  0  0  0  0  0  0  0  0  0  0  0
   28.0209  -20.4875  -16.0677 C   0  0  0  0  0  0  0  0  0  0  0  0
   28.1491  -19.0071  -16.3646 C   0  0  0  0  0  0  0  0  0  0  0  0
   27.7001  -18.3365  -15.0599 C   0  0  0  0  0  0  0  0  0  0  0  0
   27.9412  -19.4531  -14.0710 C   0  0  1  0  0  0  0  0  0  0  0  0
   27.2596  -19.2601  -12.7897 C   0  0  0  0  0  0  0  0  0  0  0  0
   27.3573  -18.2334  -12.0756 O   0  0  0  0  0  0  0  0  0  0  0  0
   26.4076  -20.2944  -12.2741 N   0  0  0  0  0  0  0  0  0  0  0  0
   25.5434  -20.0699  -11.1379 C   0  0  1  0  0  0  0  0  0  0  0  0
   24.3290  -20.9938  -11.3552 C   0  0  0  0  0  0  0  0  0  0  0  0
   23.4914  -20.3199  -12.3892 C   0  0  0  0  0  0  0  0  0  0  0  0
   22.2441  -21.1145  -12.6507 C   0  0  0  0  0  0  0  0  0  0  0  0
   21.4872  -20.4809  -13.7903 C   0  0  0  0  0  0  0  0  0  0  0  0
   20.2995  -21.3105  -14.0073 N   0  0  0  0  0  0  0  0  0  0  0  0
   26.2351  -20.5986   -9.9243 C   0  0  0  0  0  0  0  0  0  0  0  0
   26.9450  -21.6197  -10.0509 O   0  0  0  0  0  0  0  0  0  0  0  0
   29.5211  -18.6962   -5.3719 C   0  0  0  0  0  0  0  0  0  0  0  0
   28.6789  -19.8045   -5.8783 C   0  0  1  0  0  0  0  0  0  0  0  0
   27.9512  -20.4638   -4.6959 C   0  0  0  0  0  0  0  0  0  0  0  0
   27.7915  -19.5657   -7.0161 C   0  0  0  0  0  0  0  0  0  0  0  0
   26.8741  -20.6095   -7.5271 C   0  0  2  0  0  0  0  0  0  0  0  0
   26.1220  -20.0038   -8.6649 N   0  0  0  0  0  0  0  0  0  0  0  0
   25.8554  -21.1089   -6.6207 C   0  0  0  0  0  0  0  0  0  0  0  0
   26.1539  -22.1223   -5.7090 O   0  0  0  0  0  0  0  0  0  0  0  0
   24.6886  -20.6779   -6.6012 O   0  0  0  0  0  0  0  0  0  0  0  0
  1  2  1  0
  2  3  1  0
  4  3  1  0
  5  1  1  0
  5  4  1  0
  5  6  1  1
  7  6  2  0
  8  6  1  0
  9  8  1  0
  9 10  1  6
 10 11  1  0
 11 12  1  0
 12 13  1  0
 13 14  1  0
 15 16  2  0
 15  9  1  0
 18 17  1  1
 19 18  1  0
 21 20  1  1
 20 18  1  0
 21 22  1  0
 22 15  1  0
 23 24  1  0
 23 21  1  0
 25 23  2  0
M  END
$$$$
