PKL.pdb
     RDKit          3D

 25 25  0  0  1  0  0  0  0  0999 V2000
   27.7391  -20.5563  -16.7985 N   0  0  0  0  0  0  0  0  0  0  0  0
   28.4307  -21.6053  -17.5267 C   0  0  0  0  0  0  0  0  0  0  0  0
   29.1482  -22.4456  -16.4897 C   0  0  0  0  0  0  0  0  0  0  0  0
   28.6410  -21.8837  -15.1553 C   0  0  0  0  0  0  0  0  0  0  0  0
   27.3389  -21.2533  -15.5909 C   0  0  1  0  0  0  0  0  0  0  0  0
   26.7917  -20.3047  -14.6193 C   0  0  0  0  0  0  0  0  0  0  0  0
   27.0925  -19.0882  -14.5606 O   0  0  0  0  0  0  0  0  0  0  0  0
   25.8389  -20.7549  -13.6441 N   0  0  0  0  0  0  0  0  0  0  0  0
   25.3681  -19.8896  -12.5869 C   0  0  1  0  0  0  0  0  0  0  0  0
   23.8478  -19.7621  -12.8053 C   0  0  0  0  0  0  0  0  0  0  0  0
   23.3383  -21.1600  -12.9105 C   0  0  0  0  0  0  0  0  0  0  0  0
   21.8431  -21.1622  -13.0524 C   0  0  0  0  0  0  0  0  0  0  0  0
   21.3627  -22.5861  -13.1740 C   0  0  0  0  0  0  0  0  0  0  0  0
   19.9051  -22.5191  -13.3031 N   0  0  0  0  0  0  0  0  0  0  0  0
   25.5257  -20.6192  -11.2931 C   0  0  0  0  0  0  0  0  0  0  0  0
   25.6107  -21.8658  -11.3284 O   0  0  0  0  0  0  0  0  0  0  0  0
   28.4630  -19.1963   -6.1559 C   0  0  0  0  0  0  0  0  0  0  0  0
   27.5540  -20.1511   -6.8312 C   0  0  1  0  0  0  0  0  0  0  0  0
   26.5059  -20.6470   -5.8223 C   0  0  0  0  0  0  0  0  0  0  0  0
   26.9609  -19.7860   -8.1173 C   0  0  0  0  0  0  0  0  0  0  0  0
   26.1144  -20.7271   -8.8855 C   0  0  2  0  0  0  0  0  0  0  0  0
   25.5813  -19.9709  -10.0565 N   0  0  0  0  0  0  0  0  0  0  0  0
   24.9445  -21.2724   -8.2203 C   0  0  0  0  0  0  0  0  0  0  0  0
   23.7683  -20.5267   -8.1316 O   0  0  0  0  0  0  0  0  0  0  0  0
   24.9185  -22.4037   -7.7035 O   0  0  0  0  0  0  0  0  0  0  0  0
  1  2  1  0
  2  3  1  0
  4  3  1  0
  5  1  1  0
  5  4  1  0
  5  6  1  1
  7  6  2  0
  8  6  1  0
  9  8  1  0
  9 10  1  6
 10 11  1  0
 11 12  1  0
 12 13  1  0
 13 14  1  0
 15 16  2  0
 15  9  1  0
 18 17  1  1
 19 18  1  0
 21 20  1  1
 20 18  1  0
 21 22  1  0
 22 15  1  0
 23 24  1  0
 23 21  1  0
 25 23  2  0
M  END
$$$$
