PKL.pdb
     RDKit          3D

 25 25  0  0  1  0  0  0  0  0999 V2000
   27.2578  -20.6113  -14.9932 N   0  0  0  0  0  0  0  0  0  0  0  0
   27.9136  -20.4250  -16.2754 C   0  0  0  0  0  0  0  0  0  0  0  0
   28.3402  -18.9720  -16.3316 C   0  0  0  0  0  0  0  0  0  0  0  0
   28.0323  -18.4501  -14.9222 C   0  0  0  0  0  0  0  0  0  0  0  0
   28.0387  -19.7400  -14.1356 C   0  0  1  0  0  0  0  0  0  0  0  0
   27.4062  -19.6288  -12.8200 C   0  0  0  0  0  0  0  0  0  0  0  0
   27.7179  -18.7843  -11.9462 O   0  0  0  0  0  0  0  0  0  0  0  0
   26.3482  -20.5304  -12.4605 N   0  0  0  0  0  0  0  0  0  0  0  0
   25.4392  -20.2400  -11.3753 C   0  0  1  0  0  0  0  0  0  0  0  0
   24.2037  -21.1271  -11.6243 C   0  0  0  0  0  0  0  0  0  0  0  0
   23.1258  -20.1983  -12.0720 C   0  0  0  0  0  0  0  0  0  0  0  0
   21.8484  -20.9532  -12.3041 C   0  0  0  0  0  0  0  0  0  0  0  0
   20.8205  -20.0143  -12.8830 C   0  0  0  0  0  0  0  0  0  0  0  0
   19.5987  -20.8022  -13.0633 N   0  0  0  0  0  0  0  0  0  0  0  0
   26.0521  -20.7540  -10.1140 C   0  0  0  0  0  0  0  0  0  0  0  0
   26.5512  -21.9000  -10.1281 O   0  0  0  0  0  0  0  0  0  0  0  0
   29.2481  -18.9023   -5.3379 C   0  0  0  0  0  0  0  0  0  0  0  0
   28.2822  -19.9034   -5.8467 C   0  0  1  0  0  0  0  0  0  0  0  0
   27.2913  -20.2604   -4.7273 C   0  0  0  0  0  0  0  0  0  0  0  0
   27.6156  -19.6673   -7.1270 C   0  0  0  0  0  0  0  0  0  0  0  0
   26.6780  -20.6506   -7.7155 C   0  0  2  0  0  0  0  0  0  0  0  0
   26.0899  -20.0129   -8.9299 N   0  0  0  0  0  0  0  0  0  0  0  0
   25.5399  -21.0568   -6.9103 C   0  0  0  0  0  0  0  0  0  0  0  0
   25.6595  -22.0991   -5.9901 O   0  0  0  0  0  0  0  0  0  0  0  0
   24.4215  -20.5179   -6.9884 O   0  0  0  0  0  0  0  0  0  0  0  0
  1  2  1  0
  2  3  1  0
  4  3  1  0
  5  1  1  0
  5  4  1  0
  5  6  1  1
  7  6  2  0
  8  6  1  0
  9  8  1  0
  9 10  1  6
 10 11  1  0
 11 12  1  0
 12 13  1  0
 13 14  1  0
 15 16  2  0
 15  9  1  0
 18 17  1  1
 19 18  1  0
 21 20  1  1
 20 18  1  0
 21 22  1  0
 22 15  1  0
 23 24  1  0
 23 21  1  0
 25 23  2  0
M  END
$$$$
