PKL.pdb
     RDKit          3D

 25 25  0  0  1  0  0  0  0  0999 V2000
   27.9002  -21.2369  -10.9202 N   0  0  0  0  0  0  0  0  0  0  0  0
   29.2439  -21.1499  -10.3763 C   0  0  0  0  0  0  0  0  0  0  0  0
   30.1355  -20.6828  -11.5089 C   0  0  0  0  0  0  0  0  0  0  0  0
   29.1469  -20.3515  -12.6342 C   0  0  0  0  0  0  0  0  0  0  0  0
   27.8836  -20.1151  -11.8398 C   0  0  1  0  0  0  0  0  0  0  0  0
   26.6653  -20.1463  -12.6510 C   0  0  0  0  0  0  0  0  0  0  0  0
   26.4335  -19.3866  -13.6221 O   0  0  0  0  0  0  0  0  0  0  0  0
   25.6340  -21.0988  -12.3498 N   0  0  0  0  0  0  0  0  0  0  0  0
   24.7461  -21.6049  -13.3714 C   0  0  1  0  0  0  0  0  0  0  0  0
   24.2105  -22.9431  -12.8255 C   0  0  0  0  0  0  0  0  0  0  0  0
   23.5413  -23.6091  -13.9803 C   0  0  0  0  0  0  0  0  0  0  0  0
   24.3948  -24.7280  -14.5048 C   0  0  0  0  0  0  0  0  0  0  0  0
   23.7055  -25.3594  -15.6877 C   0  0  0  0  0  0  0  0  0  0  0  0
   24.6047  -26.4073  -16.1770 N   0  0  0  0  0  0  0  0  0  0  0  0
   23.5610  -20.6983  -13.4389 C   0  0  0  0  0  0  0  0  0  0  0  0
   23.1783  -20.1523  -12.3816 O   0  0  0  0  0  0  0  0  0  0  0  0
   21.9070  -15.9867  -16.4613 C   0  0  0  0  0  0  0  0  0  0  0  0
   21.3772  -17.1156  -15.6620 C   0  0  1  0  0  0  0  0  0  0  0  0
   19.9805  -17.4893  -16.1835 C   0  0  0  0  0  0  0  0  0  0  0  0
   22.2203  -18.2891  -15.4357 C   0  0  0  0  0  0  0  0  0  0  0  0
   21.7743  -19.4246  -14.5965 C   0  0  2  0  0  0  0  0  0  0  0  0
   22.8692  -20.4383  -14.6248 N   0  0  0  0  0  0  0  0  0  0  0  0
   20.5823  -20.1403  -15.0156 C   0  0  0  0  0  0  0  0  0  0  0  0
   19.3363  -19.8171  -14.4769 O   0  0  0  0  0  0  0  0  0  0  0  0
   20.5972  -21.0583  -15.8549 O   0  0  0  0  0  0  0  0  0  0  0  0
  1  2  1  0
  2  3  1  0
  4  3  1  0
  5  1  1  0
  5  4  1  0
  5  6  1  6
  7  6  2  0
  8  6  1  0
  9  8  1  0
  9 10  1  1
 10 11  1  0
 11 12  1  0
 12 13  1  0
 13 14  1  0
 15 16  2  0
 15  9  1  0
 18 17  1  6
 19 18  1  0
 21 20  1  6
 20 18  1  0
 21 22  1  0
 22 15  1  0
 23 24  1  0
 23 21  1  0
 25 23  2  0
M  END
$$$$
