PKL.pdb
     RDKit          3D

 25 25  0  0  1  0  0  0  0  0999 V2000
   23.4852  -11.7179  -14.9258 N   0  0  0  0  0  0  0  0  0  0  0  0
   24.4643  -12.7896  -14.8851 C   0  0  0  0  0  0  0  0  0  0  0  0
   24.2714  -13.5950  -16.1541 C   0  0  0  0  0  0  0  0  0  0  0  0
   23.2533  -12.7717  -16.9535 C   0  0  0  0  0  0  0  0  0  0  0  0
   23.4528  -11.4047  -16.3418 C   0  0  1  0  0  0  0  0  0  0  0  0
   22.3631  -10.4693  -16.6264 C   0  0  0  0  0  0  0  0  0  0  0  0
   22.1791   -9.9004  -17.7293 O   0  0  0  0  0  0  0  0  0  0  0  0
   21.4125  -10.1503  -15.5987 N   0  0  0  0  0  0  0  0  0  0  0  0
   20.2841   -9.2836  -15.8509 C   0  0  1  0  0  0  0  0  0  0  0  0
   19.1093   -9.8975  -15.0645 C   0  0  0  0  0  0  0  0  0  0  0  0
   18.3875  -10.7694  -16.0359 C   0  0  0  0  0  0  0  0  0  0  0  0
   17.1219  -11.2979  -15.4239 C   0  0  0  0  0  0  0  0  0  0  0  0
   16.4594  -12.2380  -16.3987 C   0  0  0  0  0  0  0  0  0  0  0  0
   16.5365  -13.5729  -15.8003 N   0  0  0  0  0  0  0  0  0  0  0  0
   20.5598   -7.9698  -15.1959 C   0  0  0  0  0  0  0  0  0  0  0  0
   21.0158   -7.9781  -14.0321 O   0  0  0  0  0  0  0  0  0  0  0  0
   22.8985   -3.7145  -17.6497 C   0  0  0  0  0  0  0  0  0  0  0  0
   22.4677   -4.6486  -16.5840 C   0  0  1  0  0  0  0  0  0  0  0  0
   23.5682   -4.7332  -15.5143 C   0  0  0  0  0  0  0  0  0  0  0  0
   21.1341   -4.5026  -16.0015 C   0  0  0  0  0  0  0  0  0  0  0  0
   20.5817   -5.4933  -15.0499 C   0  0  2  0  0  0  0  0  0  0  0  0
   20.3308   -6.7435  -15.8253 N   0  0  0  0  0  0  0  0  0  0  0  0
   19.3141   -5.1787  -14.4150 C   0  0  0  0  0  0  0  0  0  0  0  0
   19.2626   -4.2954  -13.3359 O   0  0  0  0  0  0  0  0  0  0  0  0
   18.2284   -5.6623  -14.7821 O   0  0  0  0  0  0  0  0  0  0  0  0
  1  2  1  0
  2  3  1  0
  4  3  1  0
  5  1  1  0
  5  4  1  0
  5  6  1  1
  7  6  2  0
  8  6  1  0
  9  8  1  0
  9 10  1  1
 10 11  1  0
 11 12  1  0
 12 13  1  0
 13 14  1  0
 15 16  2  0
 15  9  1  0
 18 17  1  6
 19 18  1  0
 21 20  1  6
 20 18  1  0
 21 22  1  0
 22 15  1  0
 23 24  1  0
 23 21  1  0
 25 23  2  0
M  END
$$$$
