PKL.pdb
     RDKit          3D

 25 25  0  0  1  0  0  0  0  0999 V2000
   27.6821  -21.9700  -15.7863 N   0  0  0  0  0  0  0  0  0  0  0  0
   28.4136  -22.2914  -16.9990 C   0  0  0  0  0  0  0  0  0  0  0  0
   28.6103  -20.9844  -17.7401 C   0  0  0  0  0  0  0  0  0  0  0  0
   28.0984  -19.9282  -16.7524 C   0  0  0  0  0  0  0  0  0  0  0  0
   28.2361  -20.6734  -15.4453 C   0  0  1  0  0  0  0  0  0  0  0  0
   27.4779  -20.0749  -14.3453 C   0  0  0  0  0  0  0  0  0  0  0  0
   27.6680  -18.9211  -13.8908 O   0  0  0  0  0  0  0  0  0  0  0  0
   26.4316  -20.8259  -13.7106 N   0  0  0  0  0  0  0  0  0  0  0  0
   25.3768  -20.1780  -12.9653 C   0  0  1  0  0  0  0  0  0  0  0  0
   24.0641  -20.6153  -13.6444 C   0  0  0  0  0  0  0  0  0  0  0  0
   22.9797  -19.8745  -12.9373 C   0  0  0  0  0  0  0  0  0  0  0  0
   21.6351  -20.2886  -13.4628 C   0  0  0  0  0  0  0  0  0  0  0  0
   20.5666  -19.4804  -12.7713 C   0  0  0  0  0  0  0  0  0  0  0  0
   19.2845  -19.9669  -13.2864 N   0  0  0  0  0  0  0  0  0  0  0  0
   25.3412  -20.7836  -11.6004 C   0  0  0  0  0  0  0  0  0  0  0  0
   25.3120  -22.0301  -11.5116 O   0  0  0  0  0  0  0  0  0  0  0  0
   28.3039  -18.8243   -7.4709 C   0  0  0  0  0  0  0  0  0  0  0  0
   27.5786  -19.7963   -8.3212 C   0  0  1  0  0  0  0  0  0  0  0  0
   28.2991  -21.1526   -8.2613 C   0  0  0  0  0  0  0  0  0  0  0  0
   26.1290  -19.9283   -8.1791 C   0  0  0  0  0  0  0  0  0  0  0  0
   25.3195  -20.7356   -9.1201 C   0  0  2  0  0  0  0  0  0  0  0  0
   25.3392  -20.0205  -10.4298 N   0  0  0  0  0  0  0  0  0  0  0  0
   23.9132  -20.9189   -8.8079 C   0  0  0  0  0  0  0  0  0  0  0  0
   23.5189  -21.8231   -7.8209 O   0  0  0  0  0  0  0  0  0  0  0  0
   23.0001  -20.3006   -9.3836 O   0  0  0  0  0  0  0  0  0  0  0  0
  1  2  1  0
  2  3  1  0
  4  3  1  0
  5  1  1  0
  5  4  1  0
  5  6  1  1
  7  6  2  0
  8  6  1  0
  9  8  1  0
  9 10  1  6
 10 11  1  0
 11 12  1  0
 12 13  1  0
 13 14  1  0
 15 16  2  0
 15  9  1  0
 18 17  1  1
 19 18  1  0
 21 20  1  1
 20 18  1  0
 21 22  1  0
 22 15  1  0
 23 24  1  0
 23 21  1  0
 25 23  2  0
M  END
$$$$
