PKL.pdb
     RDKit          3D

 25 25  0  0  1  0  0  0  0  0999 V2000
   27.5922  -19.7311  -16.3582 N   0  0  0  0  0  0  0  0  0  0  0  0
   28.6503  -19.5254  -17.3314 C   0  0  0  0  0  0  0  0  0  0  0  0
   29.5801  -20.7159  -17.2118 C   0  0  0  0  0  0  0  0  0  0  0  0
   28.8458  -21.6524  -16.2438 C   0  0  0  0  0  0  0  0  0  0  0  0
   27.4233  -21.1710  -16.4095 C   0  0  1  0  0  0  0  0  0  0  0  0
   26.5258  -21.6116  -15.3401 C   0  0  0  0  0  0  0  0  0  0  0  0
   25.9458  -22.7235  -15.3065 O   0  0  0  0  0  0  0  0  0  0  0  0
   26.2611  -20.7412  -14.2293 N   0  0  0  0  0  0  0  0  0  0  0  0
   25.4368  -21.1578  -13.1180 C   0  0  1  0  0  0  0  0  0  0  0  0
   26.0791  -20.5241  -11.8685 C   0  0  0  0  0  0  0  0  0  0  0  0
   25.2917  -21.0346  -10.7091 C   0  0  0  0  0  0  0  0  0  0  0  0
   25.7855  -20.4205   -9.4307 C   0  0  0  0  0  0  0  0  0  0  0  0
   24.9625  -20.9466   -8.2823 C   0  0  0  0  0  0  0  0  0  0  0  0
   25.4592  -20.2757   -7.0785 N   0  0  0  0  0  0  0  0  0  0  0  0
   24.1054  -20.4962  -13.2615 C   0  0  0  0  0  0  0  0  0  0  0  0
   24.0776  -19.2523  -13.3821 O   0  0  0  0  0  0  0  0  0  0  0  0
   21.2844  -20.9673  -17.3613 C   0  0  0  0  0  0  0  0  0  0  0  0
   21.7298  -20.3875  -16.0731 C   0  0  1  0  0  0  0  0  0  0  0  0
   21.7166  -18.8543  -16.1803 C   0  0  0  0  0  0  0  0  0  0  0  0
   21.1282  -20.8646  -14.8283 C   0  0  0  0  0  0  0  0  0  0  0  0
   21.6366  -20.4474  -13.5017 C   0  0  2  0  0  0  0  0  0  0  0  0
   22.9009  -21.2046  -13.2664 N   0  0  0  0  0  0  0  0  0  0  0  0
   20.8039  -20.7288  -12.3458 C   0  0  0  0  0  0  0  0  0  0  0  0
   19.9720  -19.7421  -11.8153 O   0  0  0  0  0  0  0  0  0  0  0  0
   20.7812  -21.8332  -11.7736 O   0  0  0  0  0  0  0  0  0  0  0  0
  1  2  1  0
  2  3  1  0
  4  3  1  0
  5  1  1  0
  5  4  1  0
  5  6  1  1
  7  6  2  0
  8  6  1  0
  9  8  1  0
  9 10  1  1
 10 11  1  0
 11 12  1  0
 12 13  1  0
 13 14  1  0
 15 16  2  0
 15  9  1  0
 18 17  1  6
 19 18  1  0
 21 20  1  6
 20 18  1  0
 21 22  1  0
 22 15  1  0
 23 24  1  0
 23 21  1  0
 25 23  2  0
M  END
$$$$
