PKL.pdb
     RDKit          3D

 25 25  0  0  1  0  0  0  0  0999 V2000
   27.7955  -20.0751  -16.9240 N   0  0  0  0  0  0  0  0  0  0  0  0
   28.5247  -19.8253  -18.1548 C   0  0  0  0  0  0  0  0  0  0  0  0
   28.8494  -18.3453  -18.1680 C   0  0  0  0  0  0  0  0  0  0  0  0
   28.4069  -17.8658  -16.7795 C   0  0  0  0  0  0  0  0  0  0  0  0
   28.4502  -19.1627  -16.0057 C   0  0  1  0  0  0  0  0  0  0  0  0
   27.7207  -19.1144  -14.7373 C   0  0  0  0  0  0  0  0  0  0  0  0
   27.9568  -18.3062  -13.8073 O   0  0  0  0  0  0  0  0  0  0  0  0
   26.6498  -20.0400  -14.4966 N   0  0  0  0  0  0  0  0  0  0  0  0
   25.6161  -19.7688  -13.5240 C   0  0  1  0  0  0  0  0  0  0  0  0
   24.3724  -20.5312  -14.0212 C   0  0  0  0  0  0  0  0  0  0  0  0
   23.2884  -20.2096  -13.0484 C   0  0  0  0  0  0  0  0  0  0  0  0
   22.0259  -20.9364  -13.4134 C   0  0  0  0  0  0  0  0  0  0  0  0
   20.9339  -20.5381  -12.4532 C   0  0  0  0  0  0  0  0  0  0  0  0
   19.7564  -21.3298  -12.8175 N   0  0  0  0  0  0  0  0  0  0  0  0
   26.0058  -20.4324  -12.2438 C   0  0  0  0  0  0  0  0  0  0  0  0
   26.5027  -21.5777  -12.3036 O   0  0  0  0  0  0  0  0  0  0  0  0
   29.0834  -21.0390   -7.8224 C   0  0  0  0  0  0  0  0  0  0  0  0
   27.8817  -20.1730   -7.8244 C   0  0  1  0  0  0  0  0  0  0  0  0
   28.1214  -18.9781   -6.8879 C   0  0  0  0  0  0  0  0  0  0  0  0
   27.2921  -19.7713   -9.1011 C   0  0  0  0  0  0  0  0  0  0  0  0
   26.2629  -20.5900   -9.7813 C   0  0  2  0  0  0  0  0  0  0  0  0
   25.8389  -19.8304  -10.9938 N   0  0  0  0  0  0  0  0  0  0  0  0
   25.0355  -20.8629   -9.0549 C   0  0  0  0  0  0  0  0  0  0  0  0
   24.9791  -21.9017   -8.1248 O   0  0  0  0  0  0  0  0  0  0  0  0
   23.9895  -20.2080   -9.2119 O   0  0  0  0  0  0  0  0  0  0  0  0
  1  2  1  0
  2  3  1  0
  4  3  1  0
  5  1  1  0
  5  4  1  0
  5  6  1  1
  7  6  2  0
  8  6  1  0
  9  8  1  0
  9 10  1  6
 10 11  1  0
 11 12  1  0
 12 13  1  0
 13 14  1  0
 15 16  2  0
 15  9  1  0
 18 17  1  6
 19 18  1  0
 21 20  1  1
 20 18  1  0
 21 22  1  0
 22 15  1  0
 23 24  1  0
 23 21  1  0
 25 23  2  0
M  END
$$$$
