GDA.pdb
     RDKit          3D

 18 17  0  0  1  0  0  0  0  0999 V2000
    5.0075  -19.1622   22.9001 N   0  0  0  0  0  0  0  0  0  0  0  0
    5.1567  -17.7668   22.5782 C   0  0  0  0  0  0  0  0  0  0  0  0
    6.4005  -17.2265   23.1782 C   0  0  0  0  0  0  0  0  0  0  0  0
    6.6183  -17.4327   24.3935 O   0  0  0  0  0  0  0  0  0  0  0  0
    7.3561  -16.4858   22.4374 N   0  0  0  0  0  0  0  0  0  0  0  0
    8.5554  -15.9427   23.0288 C   0  0  1  0  0  0  0  0  0  0  0  0
    9.6303  -15.6779   22.0171 C   0  0  0  0  0  0  0  0  0  0  0  0
   10.1997  -16.9168   21.4478 C   0  0  0  0  0  0  0  0  0  0  0  0
   10.3706  -17.9114   22.1862 O   0  0  0  0  0  0  0  0  0  0  0  0
    8.2149  -14.7261   23.8139 C   0  0  0  0  0  0  0  0  0  0  0  0
    8.0613  -13.6348   23.2181 O   0  0  0  0  0  0  0  0  0  0  0  0
   10.5543  -17.0188   20.1160 O   0  0  0  0  0  0  0  0  0  0  0  0
    6.4365  -13.2439   26.2051 C   0  0  0  0  0  0  0  0  0  0  0  0
    7.9100  -13.5399   26.0180 C   0  0  2  0  0  0  0  0  0  0  0  0
    8.0538  -14.7414   25.2202 N   0  0  0  0  0  0  0  0  0  0  0  0
    8.6060  -13.6875   27.3370 C   0  0  0  0  0  0  0  0  0  0  0  0
    9.2787  -14.8573   27.6530 O   0  0  0  0  0  0  0  0  0  0  0  0
    8.5998  -12.7600   28.1896 O   0  0  0  0  0  0  0  0  0  0  0  0
  1  2  1  0
  3  4  2  0
  3  2  1  0
  5  3  1  0
  6 10  1  0
  6  5  1  0
  6  7  1  6
  8 12  1  0
  8  7  1  0
  9  8  2  0
 10 11  2  0
 14 13  1  1
 14 16  1  0
 15 14  1  0
 15 10  1  0
 16 17  1  0
 18 16  2  0
M  END
$$$$
