GDA.pdb
     RDKit          3D

 18 17  0  0  1  0  0  0  0  0999 V2000
    7.9065  -16.4232   19.2628 N   0  0  0  0  0  0  0  0  0  0  0  0
    8.7414  -15.8039   20.2590 C   0  0  0  0  0  0  0  0  0  0  0  0
    8.0584  -15.7954   21.5753 C   0  0  0  0  0  0  0  0  0  0  0  0
    6.8664  -15.4173   21.6295 O   0  0  0  0  0  0  0  0  0  0  0  0
    8.6947  -16.1966   22.7773 N   0  0  0  0  0  0  0  0  0  0  0  0
    8.0245  -16.1970   24.0555 C   0  0  1  0  0  0  0  0  0  0  0  0
    8.4717  -17.3203   24.9427 C   0  0  0  0  0  0  0  0  0  0  0  0
    8.0086  -18.6421   24.4719 C   0  0  0  0  0  0  0  0  0  0  0  0
    8.8355  -19.4491   23.9936 O   0  0  0  0  0  0  0  0  0  0  0  0
    8.1943  -14.8699   24.7055 C   0  0  0  0  0  0  0  0  0  0  0  0
    9.3426  -14.3795   24.8078 O   0  0  0  0  0  0  0  0  0  0  0  0
    6.6824  -19.0240   24.5409 O   0  0  0  0  0  0  0  0  0  0  0  0
    5.9236  -12.2118   26.0990 C   0  0  0  0  0  0  0  0  0  0  0  0
    7.2699  -12.8932   25.9691 C   0  0  2  0  0  0  0  0  0  0  0  0
    7.1072  -14.1240   25.2210 N   0  0  0  0  0  0  0  0  0  0  0  0
    7.8752  -13.1609   27.3137 C   0  0  0  0  0  0  0  0  0  0  0  0
    8.3481  -12.1184   28.0950 O   0  0  0  0  0  0  0  0  0  0  0  0
    7.9708  -14.3317   27.7690 O   0  0  0  0  0  0  0  0  0  0  0  0
  1  2  1  0
  3  4  2  0
  3  2  1  0
  5  3  1  0
  6 10  1  0
  6  5  1  0
  6  7  1  1
  8 12  1  0
  8  7  1  0
  9  8  2  0
 10 11  2  0
 14 13  1  1
 14 16  1  0
 15 14  1  0
 15 10  1  0
 16 17  1  0
 18 16  2  0
M  END
$$$$
