GDA.pdb
     RDKit          3D

 18 17  0  0  1  0  0  0  0  0999 V2000
    7.6146  -13.4038   16.1892 N   0  0  0  0  0  0  0  0  0  0  0  0
    8.9233  -13.8641   16.5750 C   0  0  0  0  0  0  0  0  0  0  0  0
    8.8396  -14.6986   17.7979 C   0  0  0  0  0  0  0  0  0  0  0  0
    7.7401  -14.7859   18.3897 O   0  0  0  0  0  0  0  0  0  0  0  0
    9.9497  -15.4033   18.3285 N   0  0  0  0  0  0  0  0  0  0  0  0
    9.8280  -16.3657   19.3973 C   0  0  1  0  0  0  0  0  0  0  0  0
   10.7305  -17.5495   19.2152 C   0  0  0  0  0  0  0  0  0  0  0  0
   10.3842  -18.3571   18.0273 C   0  0  0  0  0  0  0  0  0  0  0  0
    9.3556  -19.0680   18.0452 O   0  0  0  0  0  0  0  0  0  0  0  0
   10.0508  -15.6886   20.7028 C   0  0  0  0  0  0  0  0  0  0  0  0
   11.1427  -15.1127   20.9165 O   0  0  0  0  0  0  0  0  0  0  0  0
   11.1625  -18.3566   16.8854 O   0  0  0  0  0  0  0  0  0  0  0  0
    7.9003  -14.6571   23.5822 C   0  0  0  0  0  0  0  0  0  0  0  0
    9.2580  -14.9563   22.9817 C   0  0  2  0  0  0  0  0  0  0  0  0
    9.0764  -15.6628   21.7293 N   0  0  0  0  0  0  0  0  0  0  0  0
   10.1062  -15.7525   23.9266 C   0  0  0  0  0  0  0  0  0  0  0  0
   10.6867  -15.1509   25.0320 O   0  0  0  0  0  0  0  0  0  0  0  0
   10.3144  -16.9817   23.7447 O   0  0  0  0  0  0  0  0  0  0  0  0
  1  2  1  0
  3  4  2  0
  3  2  1  0
  5  3  1  0
  6 10  1  0
  6  5  1  0
  6  7  1  6
  8 12  1  0
  8  7  1  0
  9  8  2  0
 10 11  2  0
 14 13  1  1
 14 16  1  0
 15 14  1  0
 15 10  1  0
 16 17  1  0
 18 16  2  0
M  END
$$$$
