GDA.pdb
     RDKit          3D

 18 17  0  0  1  0  0  0  0  0999 V2000
   -9.5473  -22.3817   29.3015 N   0  0  0  0  0  0  0  0  0  0  0  0
   -8.2947  -22.4832   28.5987 C   0  0  0  0  0  0  0  0  0  0  0  0
   -7.7006  -23.8284   28.7899 C   0  0  0  0  0  0  0  0  0  0  0  0
   -8.4672  -24.8048   28.9503 O   0  0  0  0  0  0  0  0  0  0  0  0
   -6.3017  -24.0598   28.7994 N   0  0  0  0  0  0  0  0  0  0  0  0
   -5.7273  -25.3835   28.8315 C   0  0  1  0  0  0  0  0  0  0  0  0
   -4.3367  -25.4242   28.2714 C   0  0  0  0  0  0  0  0  0  0  0  0
   -4.3060  -25.2776   26.8014 C   0  0  0  0  0  0  0  0  0  0  0  0
   -5.2729  -25.6867   26.1220 O   0  0  0  0  0  0  0  0  0  0  0  0
   -5.7869  -25.9171   30.2186 C   0  0  0  0  0  0  0  0  0  0  0  0
   -5.3329  -25.2276   31.1610 O   0  0  0  0  0  0  0  0  0  0  0  0
   -3.2379  -24.6995   26.1422 O   0  0  0  0  0  0  0  0  0  0  0  0
   -7.3329  -28.9226   31.8767 C   0  0  0  0  0  0  0  0  0  0  0  0
   -6.4514  -27.6911   31.8828 C   0  0  2  0  0  0  0  0  0  0  0  0
   -6.3389  -27.1828   30.5301 N   0  0  0  0  0  0  0  0  0  0  0  0
   -5.0994  -27.9937   32.4544 C   0  0  0  0  0  0  0  0  0  0  0  0
   -4.0113  -28.2009   31.6214 O   0  0  0  0  0  0  0  0  0  0  0  0
   -4.9146  -28.0678   33.6984 O   0  0  0  0  0  0  0  0  0  0  0  0
  1  2  1  0
  3  4  2  0
  3  2  1  0
  5  3  1  0
  6 10  1  0
  6  5  1  0
  6  7  1  1
  8 12  1  0
  8  7  1  0
  9  8  2  0
 10 11  2  0
 14 13  1  6
 14 16  1  0
 15 14  1  0
 15 10  1  0
 16 17  1  0
 18 16  2  0
M  END
$$$$
