GDA.pdb
     RDKit          3D

 18 17  0  0  1  0  0  0  0  0999 V2000
    7.4867  -12.9644   18.6539 N   0  0  0  0  0  0  0  0  0  0  0  0
    8.5927  -13.4457   19.4404 C   0  0  0  0  0  0  0  0  0  0  0  0
    8.1064  -14.0445   20.7068 C   0  0  0  0  0  0  0  0  0  0  0  0
    6.8779  -14.0251   20.9460 O   0  0  0  0  0  0  0  0  0  0  0  0
    8.9705  -14.6392   21.6608 N   0  0  0  0  0  0  0  0  0  0  0  0
    8.4874  -15.3084   22.8448 C   0  0  1  0  0  0  0  0  0  0  0  0
    9.1745  -16.6188   23.0896 C   0  0  0  0  0  0  0  0  0  0  0  0
    8.9945  -17.5768   21.9792 C   0  0  0  0  0  0  0  0  0  0  0  0
    7.9158  -18.2006   21.8735 O   0  0  0  0  0  0  0  0  0  0  0  0
    8.5974  -14.3932   24.0122 C   0  0  0  0  0  0  0  0  0  0  0  0
    9.7143  -13.9096   24.3093 O   0  0  0  0  0  0  0  0  0  0  0  0
    9.9836  -17.8120   21.0432 O   0  0  0  0  0  0  0  0  0  0  0  0
    6.1800  -12.6220   26.2698 C   0  0  0  0  0  0  0  0  0  0  0  0
    7.5718  -13.1094   25.9249 C   0  0  2  0  0  0  0  0  0  0  0  0
    7.4868  -14.0372   24.8145 N   0  0  0  0  0  0  0  0  0  0  0  0
    8.2315  -13.7506   27.1080 C   0  0  0  0  0  0  0  0  0  0  0  0
    8.6579  -12.9830   28.1803 O   0  0  0  0  0  0  0  0  0  0  0  0
    8.4158  -14.9957   27.1616 O   0  0  0  0  0  0  0  0  0  0  0  0
  1  2  1  0
  3  4  2  0
  3  2  1  0
  5  3  1  0
  6 10  1  0
  6  5  1  0
  6  7  1  1
  8 12  1  0
  8  7  1  0
  9  8  2  0
 10 11  2  0
 14 13  1  1
 14 16  1  0
 15 14  1  0
 15 10  1  0
 16 17  1  0
 18 16  2  0
M  END
$$$$
