GDA.pdb
     RDKit          3D

 18 17  0  0  1  0  0  0  0  0999 V2000
    7.1105  -13.0139   18.4988 N   0  0  0  0  0  0  0  0  0  0  0  0
    8.5393  -12.9084   18.3549 C   0  0  0  0  0  0  0  0  0  0  0  0
    9.2074  -14.1019   18.9277 C   0  0  0  0  0  0  0  0  0  0  0  0
    8.5003  -14.9869   19.4601 O   0  0  0  0  0  0  0  0  0  0  0  0
   10.6130  -14.2870   18.8999 N   0  0  0  0  0  0  0  0  0  0  0  0
   11.2553  -15.4815   19.3934 C   0  0  1  0  0  0  0  0  0  0  0  0
   12.5101  -15.8156   18.6432 C   0  0  0  0  0  0  0  0  0  0  0  0
   12.2483  -16.2742   17.2633 C   0  0  0  0  0  0  0  0  0  0  0  0
   12.3920  -15.4756   16.3117 O   0  0  0  0  0  0  0  0  0  0  0  0
   11.4968  -15.3477   20.8550 C   0  0  0  0  0  0  0  0  0  0  0  0
   12.3668  -14.5433   21.2617 O   0  0  0  0  0  0  0  0  0  0  0  0
   11.8465  -17.5661   16.9815 O   0  0  0  0  0  0  0  0  0  0  0  0
    9.7508  -16.4274   23.9791 C   0  0  0  0  0  0  0  0  0  0  0  0
   10.9914  -15.9563   23.2493 C   0  0  2  0  0  0  0  0  0  0  0  0
   10.7821  -16.0950   21.8218 N   0  0  0  0  0  0  0  0  0  0  0  0
   12.2033  -16.7207   23.6887 C   0  0  0  0  0  0  0  0  0  0  0  0
   12.7765  -16.4832   24.9280 O   0  0  0  0  0  0  0  0  0  0  0  0
   12.7316  -17.5941   22.9503 O   0  0  0  0  0  0  0  0  0  0  0  0
  1  2  1  0
  3  4  2  0
  3  2  1  0
  5  3  1  0
  6 10  1  0
  6  5  1  0
  6  7  1  6
  8 12  1  0
  8  7  1  0
  9  8  2  0
 10 11  2  0
 14 13  1  1
 14 16  1  0
 15 14  1  0
 15 10  1  0
 16 17  1  0
 18 16  2  0
M  END
$$$$
