GDA.pdb
     RDKit          3D

 18 17  0  0  1  0  0  0  0  0999 V2000
    7.7621  -13.7572   16.4443 N   0  0  0  0  0  0  0  0  0  0  0  0
    8.4806  -13.1581   17.5389 C   0  0  0  0  0  0  0  0  0  0  0  0
    9.4966  -14.0992   18.0690 C   0  0  0  0  0  0  0  0  0  0  0  0
    9.5721  -15.2440   17.5684 O   0  0  0  0  0  0  0  0  0  0  0  0
   10.3880  -13.7614   19.1187 N   0  0  0  0  0  0  0  0  0  0  0  0
   11.3900  -14.6721   19.6185 C   0  0  1  0  0  0  0  0  0  0  0  0
   12.7641  -14.0715   19.6280 C   0  0  0  0  0  0  0  0  0  0  0  0
   13.8197  -15.0596   19.9326 C   0  0  0  0  0  0  0  0  0  0  0  0
   13.5869  -16.2778   19.7720 O   0  0  0  0  0  0  0  0  0  0  0  0
   10.9863  -15.1654   20.9624 C   0  0  0  0  0  0  0  0  0  0  0  0
   11.0242  -14.3827   21.9399 O   0  0  0  0  0  0  0  0  0  0  0  0
   15.0674  -14.6845   20.3930 O   0  0  0  0  0  0  0  0  0  0  0  0
    9.5693  -18.3533   22.3762 C   0  0  0  0  0  0  0  0  0  0  0  0
   10.2769  -17.0215   22.5149 C   0  0  2  0  0  0  0  0  0  0  0  0
   10.5558  -16.4939   21.1940 N   0  0  0  0  0  0  0  0  0  0  0  0
   11.5377  -17.1568   23.3137 C   0  0  0  0  0  0  0  0  0  0  0  0
   12.7747  -17.1358   22.6889 O   0  0  0  0  0  0  0  0  0  0  0  0
   11.5098  -17.2925   24.5659 O   0  0  0  0  0  0  0  0  0  0  0  0
  1  2  1  0
  3  4  2  0
  3  2  1  0
  5  3  1  0
  6 10  1  0
  6  5  1  0
  6  7  1  1
  8 12  1  0
  8  7  1  0
  9  8  2  0
 10 11  2  0
 14 13  1  6
 14 16  1  0
 15 14  1  0
 15 10  1  0
 16 17  1  0
 18 16  2  0
M  END
$$$$
