GDA.pdb
     RDKit          3D

 18 17  0  0  1  0  0  0  0  0999 V2000
    6.7631  -13.2113   18.7014 N   0  0  0  0  0  0  0  0  0  0  0  0
    8.1776  -13.4763   18.6531 C   0  0  0  0  0  0  0  0  0  0  0  0
    8.5459  -14.5089   19.6516 C   0  0  0  0  0  0  0  0  0  0  0  0
    7.6818  -14.8782   20.4785 O   0  0  0  0  0  0  0  0  0  0  0  0
    9.8341  -15.0983   19.7128 N   0  0  0  0  0  0  0  0  0  0  0  0
   10.1323  -16.2447   20.5373 C   0  0  1  0  0  0  0  0  0  0  0  0
   11.2876  -17.0468   20.0167 C   0  0  0  0  0  0  0  0  0  0  0  0
   11.2774  -18.4445   20.4956 C   0  0  0  0  0  0  0  0  0  0  0  0
   11.9086  -19.3173   19.8602 O   0  0  0  0  0  0  0  0  0  0  0  0
   10.3456  -15.8042   21.9419 C   0  0  0  0  0  0  0  0  0  0  0  0
   11.3969  -15.1912   22.2394 O   0  0  0  0  0  0  0  0  0  0  0  0
   10.5895  -18.8278   21.6312 O   0  0  0  0  0  0  0  0  0  0  0  0
    8.2512  -15.2872   24.9517 C   0  0  0  0  0  0  0  0  0  0  0  0
    9.5985  -15.6153   24.3428 C   0  0  2  0  0  0  0  0  0  0  0  0
    9.4062  -16.0470   22.9726 N   0  0  0  0  0  0  0  0  0  0  0  0
   10.3131  -16.6650   25.1388 C   0  0  0  0  0  0  0  0  0  0  0  0
   10.6300  -17.8884   24.5697 O   0  0  0  0  0  0  0  0  0  0  0  0
   10.6436  -16.4673   26.3383 O   0  0  0  0  0  0  0  0  0  0  0  0
  1  2  1  0
  3  4  2  0
  3  2  1  0
  5  3  1  0
  6 10  1  0
  6  5  1  0
  6  7  1  6
  8 12  1  0
  8  7  1  0
  9  8  2  0
 10 11  2  0
 14 13  1  1
 14 16  1  0
 15 14  1  0
 15 10  1  0
 16 17  1  0
 18 16  2  0
M  END
$$$$
