GDA.pdb
     RDKit          3D

 18 17  0  0  1  0  0  0  0  0999 V2000
   11.7181  -24.0375   24.5030 N   0  0  0  0  0  0  0  0  0  0  0  0
   11.0851  -25.2225   25.0209 C   0  0  0  0  0  0  0  0  0  0  0  0
   10.3770  -24.9202   26.2882 C   0  0  0  0  0  0  0  0  0  0  0  0
   10.2708  -23.7251   26.6450 O   0  0  0  0  0  0  0  0  0  0  0  0
    9.8137  -25.9243   27.1159 N   0  0  0  0  0  0  0  0  0  0  0  0
    9.0984  -25.6253   28.3332 C   0  0  1  0  0  0  0  0  0  0  0  0
    7.9369  -26.5458   28.5625 C   0  0  0  0  0  0  0  0  0  0  0  0
    6.7928  -26.2581   27.6728 C   0  0  0  0  0  0  0  0  0  0  0  0
    6.3222  -25.1002   27.6306 O   0  0  0  0  0  0  0  0  0  0  0  0
   10.0467  -25.6259   29.4792 C   0  0  0  0  0  0  0  0  0  0  0  0
   10.8055  -26.6085   29.6468 O   0  0  0  0  0  0  0  0  0  0  0  0
    6.2173  -27.2304   26.8772 O   0  0  0  0  0  0  0  0  0  0  0  0
   11.1247  -23.0983   32.0522 C   0  0  0  0  0  0  0  0  0  0  0  0
   11.1367  -24.4866   31.4469 C   0  0  2  0  0  0  0  0  0  0  0  0
   10.1346  -24.5561   30.4021 N   0  0  0  0  0  0  0  0  0  0  0  0
   10.8956  -25.5358   32.4896 C   0  0  0  0  0  0  0  0  0  0  0  0
   11.9421  -26.0207   33.2580 O   0  0  0  0  0  0  0  0  0  0  0  0
    9.7441  -26.0034   32.6959 O   0  0  0  0  0  0  0  0  0  0  0  0
  1  2  1  0
  3  4  2  0
  3  2  1  0
  5  3  1  0
  6 10  1  0
  6  5  1  0
  6  7  1  1
  8 12  1  0
  8  7  1  0
  9  8  2  0
 10 11  2  0
 14 13  1  1
 14 16  1  0
 15 14  1  0
 15 10  1  0
 16 17  1  0
 18 16  2  0
M  END
$$$$
