GDA.pdb
     RDKit          3D

 18 17  0  0  1  0  0  0  0  0999 V2000
   12.9174  -19.3996   21.0064 N   0  0  0  0  0  0  0  0  0  0  0  0
   12.5523  -20.7791   21.1986 C   0  0  0  0  0  0  0  0  0  0  0  0
   11.7458  -20.9347   22.4332 C   0  0  0  0  0  0  0  0  0  0  0  0
   10.7505  -20.1933   22.5962 O   0  0  0  0  0  0  0  0  0  0  0  0
   12.0506  -21.8863   23.4392 N   0  0  0  0  0  0  0  0  0  0  0  0
   11.2097  -22.1037   24.5919 C   0  0  1  0  0  0  0  0  0  0  0  0
   11.1243  -23.5495   24.9811 C   0  0  0  0  0  0  0  0  0  0  0  0
   10.2895  -23.7723   26.1797 C   0  0  0  0  0  0  0  0  0  0  0  0
    9.2708  -23.0695   26.3593 O   0  0  0  0  0  0  0  0  0  0  0  0
   11.6774  -21.2491   25.7159 C   0  0  0  0  0  0  0  0  0  0  0  0
   12.8765  -21.3088   26.0740 O   0  0  0  0  0  0  0  0  0  0  0  0
   10.5952  -24.7382   27.1196 O   0  0  0  0  0  0  0  0  0  0  0  0
   10.4247  -18.2159   27.4464 C   0  0  0  0  0  0  0  0  0  0  0  0
   11.2826  -19.4639   27.4525 C   0  0  2  0  0  0  0  0  0  0  0  0
   10.8224  -20.3597   26.4100 N   0  0  0  0  0  0  0  0  0  0  0  0
   11.2499  -20.1389   28.7902 C   0  0  0  0  0  0  0  0  0  0  0  0
   11.9954  -19.6443   29.8487 O   0  0  0  0  0  0  0  0  0  0  0  0
   10.5495  -21.1670   28.9895 O   0  0  0  0  0  0  0  0  0  0  0  0
  1  2  1  0
  3  4  2  0
  3  2  1  0
  5  3  1  0
  6 10  1  0
  6  5  1  0
  6  7  1  1
  8 12  1  0
  8  7  1  0
  9  8  2  0
 10 11  2  0
 14 13  1  1
 14 16  1  0
 15 14  1  0
 15 10  1  0
 16 17  1  0
 18 16  2  0
M  END
$$$$
