GDA.pdb
     RDKit          3D

 18 17  0  0  1  0  0  0  0  0999 V2000
    5.6101  -16.3704   20.0521 N   0  0  0  0  0  0  0  0  0  0  0  0
    6.6263  -15.3774   20.2857 C   0  0  0  0  0  0  0  0  0  0  0  0
    7.2322  -15.5613   21.6266 C   0  0  0  0  0  0  0  0  0  0  0  0
    6.4748  -15.7390   22.6072 O   0  0  0  0  0  0  0  0  0  0  0  0
    8.6325  -15.5449   21.8494 N   0  0  0  0  0  0  0  0  0  0  0  0
    9.2208  -15.7566   23.1503 C   0  0  1  0  0  0  0  0  0  0  0  0
   10.6644  -16.1554   23.0742 C   0  0  0  0  0  0  0  0  0  0  0  0
   10.8639  -17.4649   22.4196 C   0  0  0  0  0  0  0  0  0  0  0  0
   11.9205  -17.6819   21.7867 O   0  0  0  0  0  0  0  0  0  0  0  0
    9.0191  -14.5452   23.9895 C   0  0  0  0  0  0  0  0  0  0  0  0
    9.5972  -13.4789   23.6761 O   0  0  0  0  0  0  0  0  0  0  0  0
    9.9170  -18.4696   22.4810 O   0  0  0  0  0  0  0  0  0  0  0  0
    6.5569  -12.9455   25.9202 C   0  0  0  0  0  0  0  0  0  0  0  0
    8.0091  -13.3712   25.9794 C   0  0  2  0  0  0  0  0  0  0  0  0
    8.1948  -14.5383   25.1403 N   0  0  0  0  0  0  0  0  0  0  0  0
    8.4357  -13.6523   27.3883 C   0  0  0  0  0  0  0  0  0  0  0  0
    8.4254  -12.6474   28.3427 O   0  0  0  0  0  0  0  0  0  0  0  0
    8.8128  -14.8009   27.7429 O   0  0  0  0  0  0  0  0  0  0  0  0
  1  2  1  0
  3  4  2  0
  3  2  1  0
  5  3  1  0
  6 10  1  0
  6  5  1  0
  6  7  1  6
  8 12  1  0
  8  7  1  0
  9  8  2  0
 10 11  2  0
 14 13  1  1
 14 16  1  0
 15 14  1  0
 15 10  1  0
 16 17  1  0
 18 16  2  0
M  END
$$$$
