GDA.pdb
     RDKit          3D

 18 17  0  0  1  0  0  0  0  0999 V2000
    0.1266  -24.3462   21.8130 N   0  0  0  0  0  0  0  0  0  0  0  0
   -0.5381  -25.1899   22.7720 C   0  0  0  0  0  0  0  0  0  0  0  0
   -1.8539  -24.6157   23.1435 C   0  0  0  0  0  0  0  0  0  0  0  0
   -2.2211  -23.5533   22.5928 O   0  0  0  0  0  0  0  0  0  0  0  0
   -2.7165  -25.2157   24.0956 N   0  0  0  0  0  0  0  0  0  0  0  0
   -3.9732  -24.6280   24.4935 C   0  0  1  0  0  0  0  0  0  0  0  0
   -5.0986  -25.6192   24.5009 C   0  0  0  0  0  0  0  0  0  0  0  0
   -6.3889  -25.0187   24.8982 C   0  0  0  0  0  0  0  0  0  0  0  0
   -7.0607  -25.5508   25.8089 O   0  0  0  0  0  0  0  0  0  0  0  0
   -3.8120  -23.9556   25.8104 C   0  0  0  0  0  0  0  0  0  0  0  0
   -3.3502  -24.6042   26.7777 O   0  0  0  0  0  0  0  0  0  0  0  0
   -6.8865  -23.8794   24.2949 O   0  0  0  0  0  0  0  0  0  0  0  0
   -4.0699  -20.4329   27.0859 C   0  0  0  0  0  0  0  0  0  0  0  0
   -3.9931  -21.9300   27.3012 C   0  0  2  0  0  0  0  0  0  0  0  0
   -4.1595  -22.6006   26.0270 N   0  0  0  0  0  0  0  0  0  0  0  0
   -5.0243  -22.3907   28.2864 C   0  0  0  0  0  0  0  0  0  0  0  0
   -4.8221  -22.2275   29.6478 O   0  0  0  0  0  0  0  0  0  0  0  0
   -6.0958  -22.9350   27.9086 O   0  0  0  0  0  0  0  0  0  0  0  0
  1  2  1  0
  3  4  2  0
  3  2  1  0
  5  3  1  0
  6 10  1  0
  6  5  1  0
  6  7  1  1
  8 12  1  0
  8  7  1  0
  9  8  2  0
 10 11  2  0
 14 13  1  6
 14 16  1  0
 15 14  1  0
 15 10  1  0
 16 17  1  0
 18 16  2  0
M  END
$$$$
