GDA.pdb
     RDKit          3D

 18 17  0  0  1  0  0  0  0  0999 V2000
    8.0960  -12.4678   12.9422 N   0  0  0  0  0  0  0  0  0  0  0  0
    9.0076  -13.4153   13.5291 C   0  0  0  0  0  0  0  0  0  0  0  0
    8.3661  -14.1144   14.6687 C   0  0  0  0  0  0  0  0  0  0  0  0
    7.2418  -13.7232   15.0556 O   0  0  0  0  0  0  0  0  0  0  0  0
    8.9687  -15.2075   15.3414 N   0  0  0  0  0  0  0  0  0  0  0  0
    8.3891  -15.8227   16.5112 C   0  0  1  0  0  0  0  0  0  0  0  0
    8.6851  -17.2903   16.5996 C   0  0  0  0  0  0  0  0  0  0  0  0
    8.0848  -18.0640   15.4932 C   0  0  0  0  0  0  0  0  0  0  0  0
    6.8702  -18.3582   15.5363 O   0  0  0  0  0  0  0  0  0  0  0  0
    8.8301  -15.0894   17.7279 C   0  0  0  0  0  0  0  0  0  0  0  0
   10.0525  -14.8857   17.9118 O   0  0  0  0  0  0  0  0  0  0  0  0
    8.8228  -18.4790   14.4010 O   0  0  0  0  0  0  0  0  0  0  0  0
    7.1373  -13.2586   20.5448 C   0  0  0  0  0  0  0  0  0  0  0  0
    8.3430  -13.9155   19.9057 C   0  0  2  0  0  0  0  0  0  0  0  0
    7.9239  -14.6041   18.7011 N   0  0  0  0  0  0  0  0  0  0  0  0
    9.0139  -14.8607   20.8559 C   0  0  0  0  0  0  0  0  0  0  0  0
    9.8157  -14.3814   21.8797 O   0  0  0  0  0  0  0  0  0  0  0  0
    8.8695  -16.1079   20.7521 O   0  0  0  0  0  0  0  0  0  0  0  0
  1  2  1  0
  3  4  2  0
  3  2  1  0
  5  3  1  0
  6 10  1  0
  6  5  1  0
  6  7  1  1
  8 12  1  0
  8  7  1  0
  9  8  2  0
 10 11  2  0
 14 13  1  1
 14 16  1  0
 15 14  1  0
 15 10  1  0
 16 17  1  0
 18 16  2  0
M  END
$$$$
