GDA.pdb
     RDKit          3D

 18 17  0  0  1  0  0  0  0  0999 V2000
   10.0068  -15.2444   19.9606 N   0  0  0  0  0  0  0  0  0  0  0  0
   10.9929  -15.3306   21.0063 C   0  0  0  0  0  0  0  0  0  0  0  0
   10.3623  -15.7547   22.2797 C   0  0  0  0  0  0  0  0  0  0  0  0
    9.1327  -15.5741   22.4289 O   0  0  0  0  0  0  0  0  0  0  0  0
   11.0894  -16.3565   23.3379 N   0  0  0  0  0  0  0  0  0  0  0  0
   10.4597  -16.8499   24.5392 C   0  0  1  0  0  0  0  0  0  0  0  0
   10.8608  -18.2574   24.8662 C   0  0  0  0  0  0  0  0  0  0  0  0
   10.2177  -18.7660   26.0955 C   0  0  0  0  0  0  0  0  0  0  0  0
    8.9919  -18.5883   26.2672 O   0  0  0  0  0  0  0  0  0  0  0  0
   10.7339  -15.9151   25.6633 C   0  0  0  0  0  0  0  0  0  0  0  0
   11.9193  -15.6172   25.9379 O   0  0  0  0  0  0  0  0  0  0  0  0
   10.9273  -19.4377   27.0727 O   0  0  0  0  0  0  0  0  0  0  0  0
    8.7299  -13.5493   27.7421 C   0  0  0  0  0  0  0  0  0  0  0  0
    9.9598  -14.4072   27.5301 C   0  0  2  0  0  0  0  0  0  0  0  0
    9.7070  -15.3381   26.4483 N   0  0  0  0  0  0  0  0  0  0  0  0
   10.3370  -15.1352   28.7847 C   0  0  0  0  0  0  0  0  0  0  0  0
   10.8567  -14.4480   29.8703 O   0  0  0  0  0  0  0  0  0  0  0  0
   10.1937  -16.3826   28.8877 O   0  0  0  0  0  0  0  0  0  0  0  0
  1  2  1  0
  3  4  2  0
  3  2  1  0
  5  3  1  0
  6 10  1  0
  6  5  1  0
  6  7  1  1
  8 12  1  0
  8  7  1  0
  9  8  2  0
 10 11  2  0
 14 13  1  1
 14 16  1  0
 15 14  1  0
 15 10  1  0
 16 17  1  0
 18 16  2  0
M  END
$$$$
