WYI.pdb
     RDKit          3D

 35 37  0  0  1  0  0  0  0  0999 V2000
   22.6110  -20.7889  -10.3898 N   0  0  0  0  0  0  0  0  0  0  0  0
   23.9294  -20.5700  -10.9387 C   0  0  1  0  0  0  0  0  0  0  0  0
   24.9475  -21.5756  -10.4157 C   0  0  0  0  0  0  0  0  0  0  0  0
   25.4074  -21.1682   -9.0645 C   0  0  0  0  0  0  0  0  0  0  0  0
   24.6592  -21.0077   -7.9301 C   0  0  0  0  0  0  0  0  0  0  0  0
   25.4798  -20.6208   -6.9369 N   0  0  0  0  0  0  0  0  0  0  0  0
   26.7503  -20.5171   -7.3653 C   0  0  0  0  0  0  0  0  0  0  0  0
   27.9516  -20.1722   -6.7935 C   0  0  0  0  0  0  0  0  0  0  0  0
   29.0789  -20.1760   -7.5514 C   0  0  0  0  0  0  0  0  0  0  0  0
   29.0810  -20.5144   -8.8911 C   0  0  0  0  0  0  0  0  0  0  0  0
   27.8797  -20.8601   -9.4714 C   0  0  0  0  0  0  0  0  0  0  0  0
   26.7238  -20.8627   -8.7200 C   0  0  0  0  0  0  0  0  0  0  0  0
   23.9314  -20.5341  -12.4019 C   0  0  0  0  0  0  0  0  0  0  0  0
   23.4900  -21.5455  -13.0182 O   0  0  0  0  0  0  0  0  0  0  0  0
   20.8847  -15.9349  -19.2388 O   0  0  0  0  0  0  0  0  0  0  0  0
   21.4990  -16.3401  -18.0356 C   0  0  0  0  0  0  0  0  0  0  0  0
   21.0297  -17.4510  -17.3693 C   0  0  0  0  0  0  0  0  0  0  0  0
   21.6083  -17.8696  -16.1919 C   0  0  0  0  0  0  0  0  0  0  0  0
   22.6778  -17.1972  -15.6357 C   0  0  0  0  0  0  0  0  0  0  0  0
   23.3442  -17.5840  -14.3903 C   0  0  0  0  0  0  0  0  0  0  0  0
   23.8576  -18.9809  -14.3698 C   0  0  2  0  0  0  0  0  0  0  0  0
   24.4120  -19.4067  -13.1041 N   0  0  0  0  0  0  0  0  0  0  0  0
   24.9089  -19.1337  -15.4569 C   0  0  0  0  0  0  0  0  0  0  0  0
   24.6840  -18.6640  -16.5985 O   0  0  0  0  0  0  0  0  0  0  0  0
   23.1362  -16.0868  -16.3179 C   0  0  0  0  0  0  0  0  0  0  0  0
   22.5564  -15.6601  -17.5025 C   0  0  0  0  0  0  0  0  0  0  0  0
   29.9419  -18.9033  -13.4867 C   0  0  0  0  0  0  0  0  0  0  0  0
   28.7186  -18.7840  -14.3324 C   0  0  0  0  0  0  0  0  0  0  0  0
   28.4810  -19.8984  -15.2928 C   0  0  2  0  0  0  0  0  0  0  0  0
   29.6273  -19.9545  -16.2853 C   0  0  0  0  0  0  0  0  0  0  0  0
   27.2082  -19.8204  -16.0767 C   0  0  2  0  0  0  0  0  0  0  0  0
   26.1120  -19.8071  -15.1361 N   0  0  0  0  0  0  0  0  0  0  0  0
   27.0841  -20.9651  -17.0234 C   0  0  0  0  0  0  0  0  0  0  0  0
   27.2860  -20.8537  -18.3832 O   0  0  0  0  0  0  0  0  0  0  0  0
   26.7816  -22.0910  -16.5712 O   0  0  0  0  0  0  0  0  0  0  0  0
  2  1  1  6
  2  3  1  0
  3  4  1  0
  4  5  2  0
  5  6  1  0
  7  6  1  0
  8  7  2  0
  9  8  1  0
 10 11  1  0
 10  9  2  0
 11 12  2  0
 12  4  1  0
 12  7  1  0
 13  2  1  0
 13 22  1  0
 14 13  2  0
 15 16  1  0
 16 17  2  0
 17 18  1  0
 19 20  1  0
 19 18  2  0
 21 20  1  1
 21 22  1  0
 21 23  1  0
 23 32  1  0
 23 24  2  0
 25 19  1  0
 26 25  2  0
 26 16  1  0
 28 27  1  0
 29 28  1  0
 29 30  1  6
 31 29  1  0
 31 32  1  1
 33 31  1  0
 33 34  1  0
 35 33  2  0
M  END
$$$$
