WYI.pdb
     RDKit          3D

 35 37  0  0  1  0  0  0  0  0999 V2000
   25.5407  -20.5246  -15.5659 N   0  0  0  0  0  0  0  0  0  0  0  0
   26.2393  -21.1109  -14.4454 C   0  0  1  0  0  0  0  0  0  0  0  0
   27.6822  -21.4637  -14.7843 C   0  0  0  0  0  0  0  0  0  0  0  0
   27.7165  -22.3467  -15.9770 C   0  0  0  0  0  0  0  0  0  0  0  0
   28.2730  -22.0921  -17.2009 C   0  0  0  0  0  0  0  0  0  0  0  0
   28.0650  -23.1631  -17.9879 N   0  0  0  0  0  0  0  0  0  0  0  0
   27.3898  -24.1255  -17.3347 C   0  0  0  0  0  0  0  0  0  0  0  0
   26.9262  -25.3810  -17.6475 C   0  0  0  0  0  0  0  0  0  0  0  0
   26.2599  -26.1013  -16.7081 C   0  0  0  0  0  0  0  0  0  0  0  0
   26.0195  -25.6292  -15.4319 C   0  0  0  0  0  0  0  0  0  0  0  0
   26.4804  -24.3706  -15.1118 C   0  0  0  0  0  0  0  0  0  0  0  0
   27.1589  -23.6228  -16.0504 C   0  0  0  0  0  0  0  0  0  0  0  0
   26.1711  -20.2803  -13.2422 C   0  0  0  0  0  0  0  0  0  0  0  0
   26.2209  -19.0256  -13.3869 O   0  0  0  0  0  0  0  0  0  0  0  0
   20.0502  -22.2138  -12.4659 O   0  0  0  0  0  0  0  0  0  0  0  0
   21.1815  -21.4913  -12.0329 C   0  0  0  0  0  0  0  0  0  0  0  0
   21.3956  -21.3004  -10.6853 C   0  0  0  0  0  0  0  0  0  0  0  0
   22.4903  -20.5981  -10.2330 C   0  0  0  0  0  0  0  0  0  0  0  0
   23.4137  -20.0615  -11.1073 C   0  0  0  0  0  0  0  0  0  0  0  0
   24.6005  -19.3062  -10.7003 C   0  0  0  0  0  0  0  0  0  0  0  0
   25.8744  -20.0736  -10.7603 C   0  0  2  0  0  0  0  0  0  0  0  0
   26.0545  -20.8607  -11.9598 N   0  0  0  0  0  0  0  0  0  0  0  0
   25.9581  -20.9821   -9.5446 C   0  0  0  0  0  0  0  0  0  0  0  0
   24.9897  -21.7317   -9.2709 O   0  0  0  0  0  0  0  0  0  0  0  0
   23.1842  -20.2639  -12.4545 C   0  0  0  0  0  0  0  0  0  0  0  0
   22.0830  -20.9685  -12.9154 C   0  0  0  0  0  0  0  0  0  0  0  0
   29.1511  -19.1684   -4.6627 C   0  0  0  0  0  0  0  0  0  0  0  0
   28.1372  -20.0927   -5.2487 C   0  0  0  0  0  0  0  0  0  0  0  0
   28.0416  -20.0944   -6.7359 C   0  0  2  0  0  0  0  0  0  0  0  0
   27.6686  -18.7033   -7.2133 C   0  0  0  0  0  0  0  0  0  0  0  0
   27.0533  -21.0534   -7.3225 C   0  0  2  0  0  0  0  0  0  0  0  0
   27.1361  -20.9462   -8.7606 N   0  0  0  0  0  0  0  0  0  0  0  0
   25.6707  -20.7657   -6.8455 C   0  0  0  0  0  0  0  0  0  0  0  0
   25.1404  -21.2921   -5.6862 O   0  0  0  0  0  0  0  0  0  0  0  0
   24.9443  -20.0077   -7.5248 O   0  0  0  0  0  0  0  0  0  0  0  0
  2  1  1  6
  2  3  1  0
  3  4  1  0
  4  5  2  0
  5  6  1  0
  7  6  1  0
  8  7  2  0
  9  8  1  0
 10 11  1  0
 10  9  2  0
 11 12  2  0
 12  4  1  0
 12  7  1  0
 13  2  1  0
 13 22  1  0
 14 13  2  0
 15 16  1  0
 16 17  2  0
 17 18  1  0
 19 20  1  0
 19 18  2  0
 21 20  1  6
 21 22  1  0
 21 23  1  0
 23 32  1  0
 23 24  2  0
 25 19  1  0
 26 25  2  0
 26 16  1  0
 28 27  1  0
 29 28  1  0
 29 30  1  1
 31 29  1  0
 31 32  1  6
 33 31  1  0
 33 34  1  0
 35 33  2  0
M  END
$$$$
