WYI.pdb
     RDKit          3D

 35 37  0  0  1  0  0  0  0  0999 V2000
   23.8089  -17.5148  -17.2537 N   0  0  0  0  0  0  0  0  0  0  0  0
   24.0722  -17.7399  -15.8511 C   0  0  1  0  0  0  0  0  0  0  0  0
   24.8947  -16.6178  -15.2300 C   0  0  0  0  0  0  0  0  0  0  0  0
   26.2557  -16.6058  -15.8221 C   0  0  0  0  0  0  0  0  0  0  0  0
   26.8397  -15.6256  -16.5776 C   0  0  0  0  0  0  0  0  0  0  0  0
   28.0770  -16.0341  -16.9120 N   0  0  0  0  0  0  0  0  0  0  0  0
   28.3425  -17.2520  -16.4071 C   0  0  0  0  0  0  0  0  0  0  0  0
   29.4134  -18.1130  -16.4385 C   0  0  0  0  0  0  0  0  0  0  0  0
   29.3319  -19.3057  -15.7936 C   0  0  0  0  0  0  0  0  0  0  0  0
   28.2086  -19.7058  -15.0953 C   0  0  0  0  0  0  0  0  0  0  0  0
   27.1306  -18.8479  -15.0607 C   0  0  0  0  0  0  0  0  0  0  0  0
   27.1925  -17.6326  -15.7086 C   0  0  0  0  0  0  0  0  0  0  0  0
   22.8516  -17.9837  -15.0810 C   0  0  0  0  0  0  0  0  0  0  0  0
   21.9127  -17.1434  -15.1805 O   0  0  0  0  0  0  0  0  0  0  0  0
   21.3603  -22.7549  -18.9411 O   0  0  0  0  0  0  0  0  0  0  0  0
   21.1049  -22.0132  -17.7690 C   0  0  0  0  0  0  0  0  0  0  0  0
   21.0650  -20.6372  -17.8265 C   0  0  0  0  0  0  0  0  0  0  0  0
   20.8194  -19.8864  -16.6985 C   0  0  0  0  0  0  0  0  0  0  0  0
   20.6024  -20.4797  -15.4713 C   0  0  0  0  0  0  0  0  0  0  0  0
   20.3337  -19.7477  -14.2316 C   0  0  0  0  0  0  0  0  0  0  0  0
   21.5479  -19.3781  -13.4542 C   0  0  2  0  0  0  0  0  0  0  0  0
   22.7259  -19.1204  -14.2520 N   0  0  0  0  0  0  0  0  0  0  0  0
   21.8479  -20.4848  -12.4564 C   0  0  0  0  0  0  0  0  0  0  0  0
   22.5310  -21.4720  -12.8217 O   0  0  0  0  0  0  0  0  0  0  0  0
   20.6443  -21.8600  -15.4324 C   0  0  0  0  0  0  0  0  0  0  0  0
   20.8929  -22.6205  -16.5644 C   0  0  0  0  0  0  0  0  0  0  0  0
   25.2301  -20.1783   -9.1854 C   0  0  0  0  0  0  0  0  0  0  0  0
   24.1147  -20.7560   -9.9903 C   0  0  0  0  0  0  0  0  0  0  0  0
   22.7877  -20.8146   -9.3144 C   0  0  2  0  0  0  0  0  0  0  0  0
   22.8975  -21.6819   -8.0743 C   0  0  0  0  0  0  0  0  0  0  0  0
   21.6604  -21.3494  -10.1413 C   0  0  2  0  0  0  0  0  0  0  0  0
   21.3392  -20.3579  -11.1415 N   0  0  0  0  0  0  0  0  0  0  0  0
   20.4710  -21.6609   -9.2986 C   0  0  0  0  0  0  0  0  0  0  0  0
   20.3400  -22.8222   -8.5661 O   0  0  0  0  0  0  0  0  0  0  0  0
   19.5363  -20.8319   -9.2454 O   0  0  0  0  0  0  0  0  0  0  0  0
  2  1  1  6
  2  3  1  0
  3  4  1  0
  4  5  2  0
  5  6  1  0
  7  6  1  0
  8  7  2  0
  9  8  1  0
 10 11  1  0
 10  9  2  0
 11 12  2  0
 12  4  1  0
 12  7  1  0
 13  2  1  0
 13 22  1  0
 14 13  2  0
 15 16  1  0
 16 17  2  0
 17 18  1  0
 19 20  1  0
 19 18  2  0
 21 20  1  6
 21 22  1  0
 21 23  1  0
 23 32  1  0
 23 24  2  0
 25 19  1  0
 26 25  2  0
 26 16  1  0
 28 27  1  0
 29 28  1  0
 29 30  1  1
 31 29  1  0
 31 32  1  6
 33 31  1  0
 33 34  1  0
 35 33  2  0
M  END
$$$$
