WYI.pdb
     RDKit          3D

 35 37  0  0  1  0  0  0  0  0999 V2000
   25.7173  -19.4843  -16.0096 N   0  0  0  0  0  0  0  0  0  0  0  0
   26.5718  -19.7406  -14.8731 C   0  0  1  0  0  0  0  0  0  0  0  0
   27.8573  -18.9243  -14.9207 C   0  0  0  0  0  0  0  0  0  0  0  0
   28.6000  -19.2293  -16.1692 C   0  0  0  0  0  0  0  0  0  0  0  0
   28.8634  -18.3943  -17.2208 C   0  0  0  0  0  0  0  0  0  0  0  0
   29.5556  -19.0865  -18.1435 N   0  0  0  0  0  0  0  0  0  0  0  0
   29.7656  -20.3544  -17.7472 C   0  0  0  0  0  0  0  0  0  0  0  0
   30.3917  -21.4559  -18.2796 C   0  0  0  0  0  0  0  0  0  0  0  0
   30.4128  -22.6183  -17.5769 C   0  0  0  0  0  0  0  0  0  0  0  0
   29.8271  -22.7534  -16.3327 C   0  0  0  0  0  0  0  0  0  0  0  0
   29.1964  -21.6533  -15.7933 C   0  0  0  0  0  0  0  0  0  0  0  0
   29.1634  -20.4640  -16.4899 C   0  0  0  0  0  0  0  0  0  0  0  0
   25.8806  -19.5568  -13.5961 C   0  0  0  0  0  0  0  0  0  0  0  0
   25.5313  -18.3847  -13.2768 O   0  0  0  0  0  0  0  0  0  0  0  0
   19.9637  -19.1786  -15.5277 O   0  0  0  0  0  0  0  0  0  0  0  0
   20.8451  -19.6821  -14.5484 C   0  0  0  0  0  0  0  0  0  0  0  0
   20.8416  -19.1392  -13.2822 C   0  0  0  0  0  0  0  0  0  0  0  0
   21.6917  -19.6091  -12.3060 C   0  0  0  0  0  0  0  0  0  0  0  0
   22.5756  -20.6394  -12.5553 C   0  0  0  0  0  0  0  0  0  0  0  0
   23.5060  -21.1916  -11.5683 C   0  0  0  0  0  0  0  0  0  0  0  0
   24.8376  -20.5277  -11.5321 C   0  0  2  0  0  0  0  0  0  0  0  0
   25.6129  -20.6527  -12.7462 N   0  0  0  0  0  0  0  0  0  0  0  0
   25.6346  -21.0889  -10.3658 C   0  0  0  0  0  0  0  0  0  0  0  0
   26.2102  -22.1967  -10.4924 O   0  0  0  0  0  0  0  0  0  0  0  0
   22.5644  -21.1729  -13.8296 C   0  0  0  0  0  0  0  0  0  0  0  0
   21.7121  -20.7025  -14.8165 C   0  0  0  0  0  0  0  0  0  0  0  0
   28.7084  -18.0956   -7.0843 C   0  0  0  0  0  0  0  0  0  0  0  0
   28.0402  -19.1840   -7.8555 C   0  0  0  0  0  0  0  0  0  0  0  0
   26.8952  -19.8536   -7.1762 C   0  0  2  0  0  0  0  0  0  0  0  0
   27.3777  -20.4701   -5.8764 C   0  0  0  0  0  0  0  0  0  0  0  0
   26.2133  -20.9303   -7.9612 C   0  0  2  0  0  0  0  0  0  0  0  0
   25.6962  -20.3331   -9.1705 N   0  0  0  0  0  0  0  0  0  0  0  0
   25.1208  -21.5668   -7.1718 C   0  0  0  0  0  0  0  0  0  0  0  0
   25.3267  -22.6019   -6.2838 O   0  0  0  0  0  0  0  0  0  0  0  0
   23.9514  -21.1476   -7.3143 O   0  0  0  0  0  0  0  0  0  0  0  0
  2  1  1  6
  2  3  1  0
  3  4  1  0
  4  5  2  0
  5  6  1  0
  7  6  1  0
  8  7  2  0
  9  8  1  0
 10 11  1  0
 10  9  2  0
 11 12  2  0
 12  4  1  0
 12  7  1  0
 13  2  1  0
 13 22  1  0
 14 13  2  0
 15 16  1  0
 16 17  2  0
 17 18  1  0
 19 20  1  0
 19 18  2  0
 21 20  1  6
 21 22  1  0
 21 23  1  0
 23 32  1  0
 23 24  2  0
 25 19  1  0
 26 25  2  0
 26 16  1  0
 28 27  1  0
 29 28  1  0
 29 30  1  1
 31 29  1  0
 31 32  1  6
 33 31  1  0
 33 34  1  0
 35 33  2  0
M  END
$$$$
