WYI.pdb
     RDKit          3D

 35 37  0  0  1  0  0  0  0  0999 V2000
   27.4302  -22.2090   -9.7234 N   0  0  0  0  0  0  0  0  0  0  0  0
   26.8669  -20.8877   -9.5680 C   0  0  1  0  0  0  0  0  0  0  0  0
   27.9266  -19.8419   -9.2445 C   0  0  0  0  0  0  0  0  0  0  0  0
   28.7258  -20.2823   -8.0738 C   0  0  0  0  0  0  0  0  0  0  0  0
   29.7720  -21.1640   -8.0485 C   0  0  0  0  0  0  0  0  0  0  0  0
   30.1948  -21.2777   -6.7765 N   0  0  0  0  0  0  0  0  0  0  0  0
   29.4698  -20.5035   -5.9496 C   0  0  0  0  0  0  0  0  0  0  0  0
   29.4695  -20.2442   -4.5999 C   0  0  0  0  0  0  0  0  0  0  0  0
   28.5615  -19.3743   -4.0860 C   0  0  0  0  0  0  0  0  0  0  0  0
   27.6215  -18.7250   -4.8632 C   0  0  0  0  0  0  0  0  0  0  0  0
   27.6153  -18.9812   -6.2173 C   0  0  0  0  0  0  0  0  0  0  0  0
   28.5281  -19.8608   -6.7592 C   0  0  0  0  0  0  0  0  0  0  0  0
   26.0618  -20.4797  -10.7202 C   0  0  0  0  0  0  0  0  0  0  0  0
   26.1796  -19.2904  -11.1317 O   0  0  0  0  0  0  0  0  0  0  0  0
   28.9059  -20.1909  -16.9782 O   0  0  0  0  0  0  0  0  0  0  0  0
   27.8247  -20.5964  -16.1685 C   0  0  0  0  0  0  0  0  0  0  0  0
   28.0433  -21.4650  -15.1216 C   0  0  0  0  0  0  0  0  0  0  0  0
   27.0071  -21.8796  -14.3150 C   0  0  0  0  0  0  0  0  0  0  0  0
   25.7143  -21.4420  -14.5208 C   0  0  0  0  0  0  0  0  0  0  0  0
   24.5646  -21.8373  -13.7044 C   0  0  0  0  0  0  0  0  0  0  0  0
   24.3587  -21.0126  -12.4826 C   0  0  2  0  0  0  0  0  0  0  0  0
   25.1802  -21.3843  -11.3523 N   0  0  0  0  0  0  0  0  0  0  0  0
   22.8934  -21.0818  -12.0845 C   0  0  0  0  0  0  0  0  0  0  0  0
   22.5875  -21.0829  -10.8676 O   0  0  0  0  0  0  0  0  0  0  0  0
   25.5137  -20.5703  -15.5737 C   0  0  0  0  0  0  0  0  0  0  0  0
   26.5528  -20.1512  -16.3898 C   0  0  0  0  0  0  0  0  0  0  0  0
   19.0426  -17.3410  -12.3244 C   0  0  0  0  0  0  0  0  0  0  0  0
   19.2013  -18.7966  -12.0383 C   0  0  0  0  0  0  0  0  0  0  0  0
   20.5444  -19.3735  -12.3284 C   0  0  2  0  0  0  0  0  0  0  0  0
   21.2452  -18.5110  -13.3615 C   0  0  0  0  0  0  0  0  0  0  0  0
   20.5509  -20.7816  -12.8361 C   0  0  2  0  0  0  0  0  0  0  0  0
   21.9218  -21.1438  -13.1121 N   0  0  0  0  0  0  0  0  0  0  0  0
   19.7068  -20.9212  -14.0568 C   0  0  0  0  0  0  0  0  0  0  0  0
   20.2206  -20.9734  -15.3357 O   0  0  0  0  0  0  0  0  0  0  0  0
   18.4655  -20.9959  -13.9257 O   0  0  0  0  0  0  0  0  0  0  0  0
  2  1  1  6
  2  3  1  0
  3  4  1  0
  4  5  2  0
  5  6  1  0
  7  6  1  0
  8  7  2  0
  9  8  1  0
 10 11  1  0
 10  9  2  0
 11 12  2  0
 12  4  1  0
 12  7  1  0
 13  2  1  0
 13 22  1  0
 14 13  2  0
 15 16  1  0
 16 17  2  0
 17 18  1  0
 19 20  1  0
 19 18  2  0
 21 20  1  6
 21 22  1  0
 21 23  1  0
 23 32  1  0
 23 24  2  0
 25 19  1  0
 26 25  2  0
 26 16  1  0
 28 27  1  0
 29 28  1  0
 29 30  1  6
 31 29  1  0
 31 32  1  6
 33 31  1  0
 33 34  1  0
 35 33  2  0
M  END
$$$$
