WYI.pdb
     RDKit          3D

 35 37  0  0  1  0  0  0  0  0999 V2000
   26.9962  -19.9777  -18.7002 N   0  0  0  0  0  0  0  0  0  0  0  0
   26.9603  -19.2202  -17.4704 C   0  0  1  0  0  0  0  0  0  0  0  0
   26.1711  -17.9248  -17.6123 C   0  0  0  0  0  0  0  0  0  0  0  0
   26.8080  -17.0581  -18.6353 C   0  0  0  0  0  0  0  0  0  0  0  0
   26.2184  -16.4391  -19.7038 C   0  0  0  0  0  0  0  0  0  0  0  0
   27.1684  -15.7622  -20.3738 N   0  0  0  0  0  0  0  0  0  0  0  0
   28.3724  -15.9053  -19.7921 C   0  0  0  0  0  0  0  0  0  0  0  0
   29.6437  -15.4492  -20.0470 C   0  0  0  0  0  0  0  0  0  0  0  0
   30.6604  -15.8047  -19.2193 C   0  0  0  0  0  0  0  0  0  0  0  0
   30.4802  -16.6153  -18.1149 C   0  0  0  0  0  0  0  0  0  0  0  0
   29.2084  -17.0773  -17.8539 C   0  0  0  0  0  0  0  0  0  0  0  0
   28.1623  -16.7285  -18.6814 C   0  0  0  0  0  0  0  0  0  0  0  0
   26.4746  -20.0090  -16.3372 C   0  0  0  0  0  0  0  0  0  0  0  0
   25.5905  -20.8839  -16.5621 O   0  0  0  0  0  0  0  0  0  0  0  0
   24.3248  -21.9371   -7.9457 O   0  0  0  0  0  0  0  0  0  0  0  0
   24.9866  -21.4524   -9.0930 C   0  0  0  0  0  0  0  0  0  0  0  0
   24.7119  -20.1839   -9.5554 C   0  0  0  0  0  0  0  0  0  0  0  0
   25.3412  -19.6843  -10.6737 C   0  0  0  0  0  0  0  0  0  0  0  0
   26.2695  -20.4300  -11.3718 C   0  0  0  0  0  0  0  0  0  0  0  0
   26.9789  -19.9653  -12.5657 C   0  0  0  0  0  0  0  0  0  0  0  0
   26.3311  -20.3331  -13.8543 C   0  0  2  0  0  0  0  0  0  0  0  0
   26.9759  -19.7996  -15.0333 N   0  0  0  0  0  0  0  0  0  0  0  0
   24.8816  -19.8767  -13.8230 C   0  0  0  0  0  0  0  0  0  0  0  0
   24.6248  -18.6484  -13.8209 O   0  0  0  0  0  0  0  0  0  0  0  0
   26.5338  -21.6988  -10.8932 C   0  0  0  0  0  0  0  0  0  0  0  0
   25.9019  -22.2073   -9.7691 C   0  0  0  0  0  0  0  0  0  0  0  0
   19.7488  -20.4948  -16.4248 C   0  0  0  0  0  0  0  0  0  0  0  0
   20.3743  -20.4093  -15.0731 C   0  0  0  0  0  0  0  0  0  0  0  0
   21.8482  -20.6239  -15.0240 C   0  0  2  0  0  0  0  0  0  0  0  0
   22.1664  -22.0182  -15.5306 C   0  0  0  0  0  0  0  0  0  0  0  0
   22.4817  -20.4776  -13.6757 C   0  0  2  0  0  0  0  0  0  0  0  0
   23.8681  -20.8646  -13.7964 N   0  0  0  0  0  0  0  0  0  0  0  0
   21.7828  -21.3102  -12.6558 C   0  0  0  0  0  0  0  0  0  0  0  0
   22.3199  -22.4586  -12.1127 O   0  0  0  0  0  0  0  0  0  0  0  0
   20.6487  -20.9577  -12.2644 O   0  0  0  0  0  0  0  0  0  0  0  0
  2  1  1  6
  2  3  1  0
  3  4  1  0
  4  5  2  0
  5  6  1  0
  7  6  1  0
  8  7  2  0
  9  8  1  0
 10 11  1  0
 10  9  2  0
 11 12  2  0
 12  4  1  0
 12  7  1  0
 13  2  1  0
 13 22  1  0
 14 13  2  0
 15 16  1  0
 16 17  2  0
 17 18  1  0
 19 20  1  0
 19 18  2  0
 21 20  1  1
 21 22  1  0
 21 23  1  0
 23 32  1  0
 23 24  2  0
 25 19  1  0
 26 25  2  0
 26 16  1  0
 28 27  1  0
 29 28  1  0
 29 30  1  1
 31 29  1  0
 31 32  1  6
 33 31  1  0
 33 34  1  0
 35 33  2  0
M  END
$$$$
