WYI.pdb
     RDKit          3D

 35 37  0  0  1  0  0  0  0  0999 V2000
   24.2712  -20.0664  -16.3042 N   0  0  0  0  0  0  0  0  0  0  0  0
   24.2741  -20.2935  -14.8774 C   0  0  1  0  0  0  0  0  0  0  0  0
   25.2765  -19.4041  -14.1526 C   0  0  0  0  0  0  0  0  0  0  0  0
   26.6159  -19.5448  -14.7765 C   0  0  0  0  0  0  0  0  0  0  0  0
   27.4320  -20.6432  -14.7866 C   0  0  0  0  0  0  0  0  0  0  0  0
   28.5546  -20.3263  -15.4567 N   0  0  0  0  0  0  0  0  0  0  0  0
   28.5191  -19.0557  -15.8960 C   0  0  0  0  0  0  0  0  0  0  0  0
   29.3672  -18.2416  -16.6081 C   0  0  0  0  0  0  0  0  0  0  0  0
   28.9945  -16.9647  -16.8833 C   0  0  0  0  0  0  0  0  0  0  0  0
   27.7859  -16.4319  -16.4774 C   0  0  0  0  0  0  0  0  0  0  0  0
   26.9311  -17.2422  -15.7619 C   0  0  0  0  0  0  0  0  0  0  0  0
   27.2899  -18.5413  -15.4718 C   0  0  0  0  0  0  0  0  0  0  0  0
   22.9411  -20.1726  -14.2852 C   0  0  0  0  0  0  0  0  0  0  0  0
   22.4741  -19.0105  -14.1138 O   0  0  0  0  0  0  0  0  0  0  0  0
   20.2391  -23.0254  -19.6040 O   0  0  0  0  0  0  0  0  0  0  0  0
   20.1418  -22.4535  -18.3184 C   0  0  0  0  0  0  0  0  0  0  0  0
   20.7307  -21.2335  -18.0670 C   0  0  0  0  0  0  0  0  0  0  0  0
   20.6537  -20.6513  -16.8215 C   0  0  0  0  0  0  0  0  0  0  0  0
   19.9849  -21.2628  -15.7804 C   0  0  0  0  0  0  0  0  0  0  0  0
   19.8598  -20.7042  -14.4325 C   0  0  0  0  0  0  0  0  0  0  0  0
   20.8344  -21.2432  -13.4450 C   0  0  2  0  0  0  0  0  0  0  0  0
   22.1996  -21.3165  -13.9156 N   0  0  0  0  0  0  0  0  0  0  0  0
   20.3774  -22.6255  -13.0084 C   0  0  0  0  0  0  0  0  0  0  0  0
   20.8793  -23.6383  -13.5533 O   0  0  0  0  0  0  0  0  0  0  0  0
   19.3992  -22.4845  -16.0507 C   0  0  0  0  0  0  0  0  0  0  0  0
   19.4752  -23.0759  -17.3020 C   0  0  0  0  0  0  0  0  0  0  0  0
   18.6336  -25.2963   -7.9005 C   0  0  0  0  0  0  0  0  0  0  0  0
   18.5739  -25.2879   -9.3912 C   0  0  0  0  0  0  0  0  0  0  0  0
   19.0759  -24.0517  -10.0550 C   0  0  2  0  0  0  0  0  0  0  0  0
   18.3404  -22.8497   -9.4925 C   0  0  0  0  0  0  0  0  0  0  0  0
   18.9352  -24.0110  -11.5446 C   0  0  2  0  0  0  0  0  0  0  0  0
   19.3934  -22.7173  -11.9950 N   0  0  0  0  0  0  0  0  0  0  0  0
   17.5246  -24.2517  -11.9621 C   0  0  0  0  0  0  0  0  0  0  0  0
   16.9628  -25.5077  -12.0582 O   0  0  0  0  0  0  0  0  0  0  0  0
   16.8031  -23.2695  -12.2423 O   0  0  0  0  0  0  0  0  0  0  0  0
  2  1  1  6
  2  3  1  0
  3  4  1  0
  4  5  2  0
  5  6  1  0
  7  6  1  0
  8  7  2  0
  9  8  1  0
 10 11  1  0
 10  9  2  0
 11 12  2  0
 12  4  1  0
 12  7  1  0
 13  2  1  0
 13 22  1  0
 14 13  2  0
 15 16  1  0
 16 17  2  0
 17 18  1  0
 19 20  1  0
 19 18  2  0
 21 20  1  6
 21 22  1  0
 21 23  1  0
 23 32  1  0
 23 24  2  0
 25 19  1  0
 26 25  2  0
 26 16  1  0
 28 27  1  0
 29 28  1  0
 29 30  1  1
 31 29  1  0
 31 32  1  1
 33 31  1  0
 33 34  1  0
 35 33  2  0
M  END
$$$$
