WYI.pdb
     RDKit          3D

 35 37  0  0  1  0  0  0  0  0999 V2000
   27.7933  -22.4440  -13.7422 N   0  0  0  0  0  0  0  0  0  0  0  0
   26.8240  -21.6232  -13.0536 C   0  0  1  0  0  0  0  0  0  0  0  0
   27.3914  -20.2647  -12.6614 C   0  0  0  0  0  0  0  0  0  0  0  0
   28.2875  -20.4146  -11.4876 C   0  0  0  0  0  0  0  0  0  0  0  0
   29.6358  -20.6476  -11.4783 C   0  0  0  0  0  0  0  0  0  0  0  0
   30.0405  -20.7220  -10.1975 N   0  0  0  0  0  0  0  0  0  0  0  0
   29.0117  -20.5466   -9.3492 C   0  0  0  0  0  0  0  0  0  0  0  0
   28.8615  -20.5258   -7.9832 C   0  0  0  0  0  0  0  0  0  0  0  0
   27.6308  -20.3137   -7.4488 C   0  0  0  0  0  0  0  0  0  0  0  0
   26.5020  -20.1143   -8.2204 C   0  0  0  0  0  0  0  0  0  0  0  0
   26.6451  -20.1350   -9.5909 C   0  0  0  0  0  0  0  0  0  0  0  0
   27.8853  -20.3488  -10.1538 C   0  0  0  0  0  0  0  0  0  0  0  0
   25.5771  -21.4737  -13.8054 C   0  0  0  0  0  0  0  0  0  0  0  0
   25.6567  -21.1297  -15.0191 O   0  0  0  0  0  0  0  0  0  0  0  0
   25.1695  -26.4285  -17.7788 O   0  0  0  0  0  0  0  0  0  0  0  0
   24.4977  -25.5858  -16.8689 C   0  0  0  0  0  0  0  0  0  0  0  0
   23.6019  -24.6501  -17.3380 C   0  0  0  0  0  0  0  0  0  0  0  0
   22.9323  -23.8127  -16.4739 C   0  0  0  0  0  0  0  0  0  0  0  0
   23.1294  -23.8784  -15.1093 C   0  0  0  0  0  0  0  0  0  0  0  0
   22.4531  -23.0238  -14.1311 C   0  0  0  0  0  0  0  0  0  0  0  0
   23.0816  -21.6891  -13.9344 C   0  0  2  0  0  0  0  0  0  0  0  0
   24.3243  -21.7049  -13.1954 N   0  0  0  0  0  0  0  0  0  0  0  0
   22.0891  -20.7778  -13.2309 C   0  0  0  0  0  0  0  0  0  0  0  0
   22.0575  -20.7567  -11.9767 O   0  0  0  0  0  0  0  0  0  0  0  0
   24.0298  -24.8234  -14.6565 C   0  0  0  0  0  0  0  0  0  0  0  0
   24.7078  -25.6675  -15.5220 C   0  0  0  0  0  0  0  0  0  0  0  0
   19.1797  -15.5544  -14.4722 C   0  0  0  0  0  0  0  0  0  0  0  0
   19.2103  -16.8388  -13.7138 C   0  0  0  0  0  0  0  0  0  0  0  0
   20.2417  -17.8242  -14.1451 C   0  0  2  0  0  0  0  0  0  0  0  0
   20.0435  -18.1425  -15.6153 C   0  0  0  0  0  0  0  0  0  0  0  0
   20.2527  -19.1220  -13.3994 C   0  0  2  0  0  0  0  0  0  0  0  0
   21.2302  -19.9814  -14.0258 N   0  0  0  0  0  0  0  0  0  0  0  0
   18.9049  -19.7586  -13.4003 C   0  0  0  0  0  0  0  0  0  0  0  0
   17.8849  -19.3829  -12.5513 O   0  0  0  0  0  0  0  0  0  0  0  0
   18.6758  -20.6834  -14.2102 O   0  0  0  0  0  0  0  0  0  0  0  0
  2  1  1  6
  2  3  1  0
  3  4  1  0
  4  5  2  0
  5  6  1  0
  7  6  1  0
  8  7  2  0
  9  8  1  0
 10 11  1  0
 10  9  2  0
 11 12  2  0
 12  4  1  0
 12  7  1  0
 13  2  1  0
 13 22  1  0
 14 13  2  0
 15 16  1  0
 16 17  2  0
 17 18  1  0
 19 20  1  0
 19 18  2  0
 21 20  1  1
 21 22  1  0
 21 23  1  0
 23 32  1  0
 23 24  2  0
 25 19  1  0
 26 25  2  0
 26 16  1  0
 28 27  1  0
 29 28  1  0
 29 30  1  6
 31 29  1  0
 31 32  1  6
 33 31  1  0
 33 34  1  0
 35 33  2  0
M  END
$$$$
