WYI.pdb
     RDKit          3D

 35 37  0  0  1  0  0  0  0  0999 V2000
   26.3389  -22.7643  -13.0500 N   0  0  0  0  0  0  0  0  0  0  0  0
   25.8090  -21.7275  -12.1946 C   0  0  1  0  0  0  0  0  0  0  0  0
   26.6738  -20.4733  -12.2029 C   0  0  0  0  0  0  0  0  0  0  0  0
   27.8337  -20.6568  -11.2950 C   0  0  0  0  0  0  0  0  0  0  0  0
   29.1452  -20.8574  -11.6299 C   0  0  0  0  0  0  0  0  0  0  0  0
   29.8544  -20.9826  -10.4936 N   0  0  0  0  0  0  0  0  0  0  0  0
   29.0650  -20.8725   -9.4104 C   0  0  0  0  0  0  0  0  0  0  0  0
   29.2565  -20.9202   -8.0502 C   0  0  0  0  0  0  0  0  0  0  0  0
   28.1934  -20.7636   -7.2191 C   0  0  0  0  0  0  0  0  0  0  0  0
   26.9069  -20.5552   -7.6780 C   0  0  0  0  0  0  0  0  0  0  0  0
   26.7073  -20.5075   -9.0407 C   0  0  0  0  0  0  0  0  0  0  0  0
   27.7726  -20.6642   -9.9018 C   0  0  0  0  0  0  0  0  0  0  0  0
   24.4141  -21.4050  -12.4985 C   0  0  0  0  0  0  0  0  0  0  0  0
   23.9768  -21.6984  -13.6476 O   0  0  0  0  0  0  0  0  0  0  0  0
   15.8226  -19.5576  -11.3369 O   0  0  0  0  0  0  0  0  0  0  0  0
   17.2163  -19.6695  -11.1518 C   0  0  0  0  0  0  0  0  0  0  0  0
   18.0276  -18.5836  -11.3984 C   0  0  0  0  0  0  0  0  0  0  0  0
   19.3917  -18.6634  -11.2280 C   0  0  0  0  0  0  0  0  0  0  0  0
   19.9979  -19.8284  -10.8034 C   0  0  0  0  0  0  0  0  0  0  0  0
   21.4392  -19.9869  -10.5982 C   0  0  0  0  0  0  0  0  0  0  0  0
   22.1727  -20.5531  -11.7630 C   0  0  2  0  0  0  0  0  0  0  0  0
   23.5824  -20.7848  -11.5400 N   0  0  0  0  0  0  0  0  0  0  0  0
   21.9973  -19.6235  -12.9528 C   0  0  0  0  0  0  0  0  0  0  0  0
   22.8485  -18.7252  -13.1605 O   0  0  0  0  0  0  0  0  0  0  0  0
   19.1692  -20.9066  -10.5593 C   0  0  0  0  0  0  0  0  0  0  0  0
   17.7957  -20.8323  -10.7310 C   0  0  0  0  0  0  0  0  0  0  0  0
   22.8616  -19.0528  -18.2011 C   0  0  0  0  0  0  0  0  0  0  0  0
   21.7544  -18.7101  -17.2617 C   0  0  0  0  0  0  0  0  0  0  0  0
   21.7994  -19.3806  -15.9316 C   0  0  2  0  0  0  0  0  0  0  0  0
   21.7390  -20.8839  -16.1285 C   0  0  0  0  0  0  0  0  0  0  0  0
   20.7086  -19.0057  -14.9776 C   0  0  2  0  0  0  0  0  0  0  0  0
   20.8692  -19.8087  -13.7877 N   0  0  0  0  0  0  0  0  0  0  0  0
   19.3631  -19.2151  -15.5841 C   0  0  0  0  0  0  0  0  0  0  0  0
   18.4722  -20.1734  -15.1480 O   0  0  0  0  0  0  0  0  0  0  0  0
   19.0132  -18.4884  -16.5397 O   0  0  0  0  0  0  0  0  0  0  0  0
  2  1  1  6
  2  3  1  0
  3  4  1  0
  4  5  2  0
  5  6  1  0
  7  6  1  0
  8  7  2  0
  9  8  1  0
 10 11  1  0
 10  9  2  0
 11 12  2  0
 12  4  1  0
 12  7  1  0
 13  2  1  0
 13 22  1  0
 14 13  2  0
 15 16  1  0
 16 17  2  0
 17 18  1  0
 19 20  1  0
 19 18  2  0
 21 20  1  1
 21 22  1  0
 21 23  1  0
 23 32  1  0
 23 24  2  0
 25 19  1  0
 26 25  2  0
 26 16  1  0
 28 27  1  0
 29 28  1  0
 29 30  1  6
 31 29  1  0
 31 32  1  1
 33 31  1  0
 33 34  1  0
 35 33  2  0
M  END
$$$$
