WYI.pdb
     RDKit          3D

 35 37  0  0  1  0  0  0  0  0999 V2000
   26.2659  -19.5932  -19.2742 N   0  0  0  0  0  0  0  0  0  0  0  0
   25.7222  -19.1845  -17.9996 C   0  0  1  0  0  0  0  0  0  0  0  0
   24.2090  -19.3503  -17.9367 C   0  0  0  0  0  0  0  0  0  0  0  0
   23.5513  -18.2417  -18.6728 C   0  0  0  0  0  0  0  0  0  0  0  0
   23.5233  -18.0240  -20.0235 C   0  0  0  0  0  0  0  0  0  0  0  0
   22.8236  -16.8982  -20.2530 N   0  0  0  0  0  0  0  0  0  0  0  0
   22.3818  -16.3549  -19.1049 C   0  0  0  0  0  0  0  0  0  0  0  0
   21.6459  -15.2445  -18.7664 C   0  0  0  0  0  0  0  0  0  0  0  0
   21.3767  -14.9935  -17.4588 C   0  0  0  0  0  0  0  0  0  0  0  0
   21.8120  -15.8105  -16.4330 C   0  0  0  0  0  0  0  0  0  0  0  0
   22.5516  -16.9250  -16.7651 C   0  0  0  0  0  0  0  0  0  0  0  0
   22.8360  -17.1981  -18.0861 C   0  0  0  0  0  0  0  0  0  0  0  0
   26.3705  -19.8529  -16.8704 C   0  0  0  0  0  0  0  0  0  0  0  0
   26.6143  -21.0887  -16.9762 O   0  0  0  0  0  0  0  0  0  0  0  0
   29.1741  -21.3808   -8.5968 O   0  0  0  0  0  0  0  0  0  0  0  0
   28.8419  -20.7578   -9.8178 C   0  0  0  0  0  0  0  0  0  0  0  0
   27.7817  -19.8795   -9.8704 C   0  0  0  0  0  0  0  0  0  0  0  0
   27.4330  -19.2574  -11.0484 C   0  0  0  0  0  0  0  0  0  0  0  0
   28.1296  -19.4863  -12.2178 C   0  0  0  0  0  0  0  0  0  0  0  0
   27.8187  -18.8608  -13.5049 C   0  0  0  0  0  0  0  0  0  0  0  0
   27.2544  -19.7871  -14.5242 C   0  0  2  0  0  0  0  0  0  0  0  0
   26.7123  -19.1416  -15.6989 N   0  0  0  0  0  0  0  0  0  0  0  0
   26.1747  -20.6356  -13.8724 C   0  0  0  0  0  0  0  0  0  0  0  0
   26.5038  -21.5119  -13.0367 O   0  0  0  0  0  0  0  0  0  0  0  0
   29.1905  -20.3684  -12.1464 C   0  0  0  0  0  0  0  0  0  0  0  0
   29.5447  -20.9987  -10.9637 C   0  0  0  0  0  0  0  0  0  0  0  0
   24.5426  -20.8947   -9.7712 C   0  0  0  0  0  0  0  0  0  0  0  0
   24.7867  -21.0814  -11.2311 C   0  0  0  0  0  0  0  0  0  0  0  0
   23.7245  -20.5639  -12.1393 C   0  0  2  0  0  0  0  0  0  0  0  0
   22.3639  -20.9026  -11.5595 C   0  0  0  0  0  0  0  0  0  0  0  0
   23.7596  -21.0834  -13.5427 C   0  0  2  0  0  0  0  0  0  0  0  0
   24.8272  -20.4024  -14.2377 N   0  0  0  0  0  0  0  0  0  0  0  0
   22.4548  -20.8711  -14.2315 C   0  0  0  0  0  0  0  0  0  0  0  0
   21.4114  -21.7716  -14.1799 O   0  0  0  0  0  0  0  0  0  0  0  0
   22.2864  -19.8241  -14.8940 O   0  0  0  0  0  0  0  0  0  0  0  0
  2  1  1  6
  2  3  1  0
  3  4  1  0
  4  5  2  0
  5  6  1  0
  7  6  1  0
  8  7  2  0
  9  8  1  0
 10 11  1  0
 10  9  2  0
 11 12  2  0
 12  4  1  0
 12  7  1  0
 13  2  1  0
 13 22  1  0
 14 13  2  0
 15 16  1  0
 16 17  2  0
 17 18  1  0
 19 20  1  0
 19 18  2  0
 21 20  1  1
 21 22  1  0
 21 23  1  0
 23 32  1  0
 23 24  2  0
 25 19  1  0
 26 25  2  0
 26 16  1  0
 28 27  1  0
 29 28  1  0
 29 30  1  1
 31 29  1  0
 31 32  1  6
 33 31  1  0
 33 34  1  0
 35 33  2  0
M  END
$$$$
