WYI.pdb
     RDKit          3D

 35 37  0  0  1  0  0  0  0  0999 V2000
   27.3331  -22.8618  -11.1118 N   0  0  0  0  0  0  0  0  0  0  0  0
   26.6871  -21.6727  -10.6058 C   0  0  1  0  0  0  0  0  0  0  0  0
   27.5399  -20.4250  -10.7990 C   0  0  0  0  0  0  0  0  0  0  0  0
   28.6126  -20.3862   -9.7738 C   0  0  0  0  0  0  0  0  0  0  0  0
   29.9212  -20.7640   -9.9057 C   0  0  0  0  0  0  0  0  0  0  0  0
   30.5356  -20.5697   -8.7248 N   0  0  0  0  0  0  0  0  0  0  0  0
   29.6856  -20.0749   -7.8076 C   0  0  0  0  0  0  0  0  0  0  0  0
   29.7768  -19.7040   -6.4873 C   0  0  0  0  0  0  0  0  0  0  0  0
   28.6767  -19.2272   -5.8488 C   0  0  0  0  0  0  0  0  0  0  0  0
   27.4489  -19.0932   -6.4684 C   0  0  0  0  0  0  0  0  0  0  0  0
   27.3499  -19.4644   -7.7918 C   0  0  0  0  0  0  0  0  0  0  0  0
   28.4542  -19.9508   -8.4585 C   0  0  0  0  0  0  0  0  0  0  0  0
   25.3455  -21.4820  -11.1587 C   0  0  0  0  0  0  0  0  0  0  0  0
   25.1191  -21.9181  -12.3233 O   0  0  0  0  0  0  0  0  0  0  0  0
   16.5943  -20.0147  -11.5785 O   0  0  0  0  0  0  0  0  0  0  0  0
   17.9366  -20.0698  -11.1490 C   0  0  0  0  0  0  0  0  0  0  0  0
   18.4651  -21.2643  -10.7106 C   0  0  0  0  0  0  0  0  0  0  0  0
   19.7717  -21.3483  -10.2839 C   0  0  0  0  0  0  0  0  0  0  0  0
   20.6008  -20.2449  -10.2801 C   0  0  0  0  0  0  0  0  0  0  0  0
   21.9986  -20.2587   -9.8434 C   0  0  0  0  0  0  0  0  0  0  0  0
   22.9608  -20.7648  -10.8600 C   0  0  2  0  0  0  0  0  0  0  0  0
   24.3354  -20.8307  -10.4166 N   0  0  0  0  0  0  0  0  0  0  0  0
   22.8727  -19.8884  -12.0987 C   0  0  0  0  0  0  0  0  0  0  0  0
   23.5270  -18.8185  -12.1413 O   0  0  0  0  0  0  0  0  0  0  0  0
   20.0549  -19.0561  -10.7244 C   0  0  0  0  0  0  0  0  0  0  0  0
   18.7398  -18.9655  -11.1533 C   0  0  0  0  0  0  0  0  0  0  0  0
   24.3191  -19.3056  -17.3894 C   0  0  0  0  0  0  0  0  0  0  0  0
   23.0954  -19.1115  -16.5584 C   0  0  0  0  0  0  0  0  0  0  0  0
   23.0894  -19.8031  -15.2383 C   0  0  2  0  0  0  0  0  0  0  0  0
   23.1252  -21.3035  -15.4611 C   0  0  0  0  0  0  0  0  0  0  0  0
   21.9190  -19.5054  -14.3539 C   0  0  2  0  0  0  0  0  0  0  0  0
   22.0473  -20.3169  -13.1659 N   0  0  0  0  0  0  0  0  0  0  0  0
   20.6302  -19.7804  -15.0505 C   0  0  0  0  0  0  0  0  0  0  0  0
   19.8242  -20.8617  -14.7614 O   0  0  0  0  0  0  0  0  0  0  0  0
   20.2498  -18.9952  -15.9462 O   0  0  0  0  0  0  0  0  0  0  0  0
  2  1  1  6
  2  3  1  0
  3  4  1  0
  4  5  2  0
  5  6  1  0
  7  6  1  0
  8  7  2  0
  9  8  1  0
 10 11  1  0
 10  9  2  0
 11 12  2  0
 12  4  1  0
 12  7  1  0
 13  2  1  0
 13 22  1  0
 14 13  2  0
 15 16  1  0
 16 17  2  0
 17 18  1  0
 19 20  1  0
 19 18  2  0
 21 20  1  1
 21 22  1  0
 21 23  1  0
 23 32  1  0
 23 24  2  0
 25 19  1  0
 26 25  2  0
 26 16  1  0
 28 27  1  0
 29 28  1  0
 29 30  1  6
 31 29  1  0
 31 32  1  1
 33 31  1  0
 33 34  1  0
 35 33  2  0
M  END
$$$$
