WYI.pdb
     RDKit          3D

 35 37  0  0  1  0  0  0  0  0999 V2000
   24.2607  -18.3367  -15.4714 N   0  0  0  0  0  0  0  0  0  0  0  0
   25.3638  -18.3286  -14.5384 C   0  0  1  0  0  0  0  0  0  0  0  0
   25.9177  -16.9278  -14.3103 C   0  0  0  0  0  0  0  0  0  0  0  0
   26.5672  -16.4363  -15.5512 C   0  0  0  0  0  0  0  0  0  0  0  0
   26.1622  -15.4176  -16.3702 C   0  0  0  0  0  0  0  0  0  0  0  0
   27.0402  -15.3199  -17.3847 N   0  0  0  0  0  0  0  0  0  0  0  0
   28.0186  -16.2360  -17.2739 C   0  0  0  0  0  0  0  0  0  0  0  0
   29.1327  -16.5722  -18.0052 C   0  0  0  0  0  0  0  0  0  0  0  0
   29.9278  -17.5896  -17.5833 C   0  0  0  0  0  0  0  0  0  0  0  0
   29.6703  -18.3172  -16.4372 C   0  0  0  0  0  0  0  0  0  0  0  0
   28.5541  -17.9863  -15.6997 C   0  0  0  0  0  0  0  0  0  0  0  0
   27.7338  -16.9571  -16.1102 C   0  0  0  0  0  0  0  0  0  0  0  0
   25.0316  -18.9748  -13.2679 C   0  0  0  0  0  0  0  0  0  0  0  0
   23.9917  -18.5876  -12.6624 O   0  0  0  0  0  0  0  0  0  0  0  0
   20.2149  -22.8852  -14.3493 O   0  0  0  0  0  0  0  0  0  0  0  0
   21.4347  -22.6877  -13.6692 C   0  0  0  0  0  0  0  0  0  0  0  0
   22.6248  -22.7999  -14.3542 C   0  0  0  0  0  0  0  0  0  0  0  0
   23.8311  -22.6141  -13.7166 C   0  0  0  0  0  0  0  0  0  0  0  0
   23.8959  -22.3075  -12.3724 C   0  0  0  0  0  0  0  0  0  0  0  0
   25.1394  -22.0943  -11.6289 C   0  0  0  0  0  0  0  0  0  0  0  0
   25.5416  -20.6681  -11.4893 C   0  0  2  0  0  0  0  0  0  0  0  0
   25.8463  -19.9974  -12.7335 N   0  0  0  0  0  0  0  0  0  0  0  0
   26.7454  -20.5855  -10.5650 C   0  0  0  0  0  0  0  0  0  0  0  0
   27.8949  -20.4991  -11.0606 O   0  0  0  0  0  0  0  0  0  0  0  0
   22.6931  -22.1973  -11.7017 C   0  0  0  0  0  0  0  0  0  0  0  0
   21.4761  -22.3851  -12.3382 C   0  0  0  0  0  0  0  0  0  0  0  0
   28.0391  -18.5998   -4.9793 C   0  0  0  0  0  0  0  0  0  0  0  0
   28.1979  -19.7052   -5.9686 C   0  0  0  0  0  0  0  0  0  0  0  0
   27.4136  -19.5678   -7.2284 C   0  0  2  0  0  0  0  0  0  0  0  0
   25.9332  -19.5579   -6.8958 C   0  0  0  0  0  0  0  0  0  0  0  0
   27.6391  -20.6347   -8.2538 C   0  0  2  0  0  0  0  0  0  0  0  0
   26.5206  -20.6104   -9.1676 N   0  0  0  0  0  0  0  0  0  0  0  0
   27.7790  -21.9758   -7.6184 C   0  0  0  0  0  0  0  0  0  0  0  0
   28.8950  -22.3698   -6.9101 O   0  0  0  0  0  0  0  0  0  0  0  0
   26.8405  -22.7949   -7.7269 O   0  0  0  0  0  0  0  0  0  0  0  0
  2  1  1  6
  2  3  1  0
  3  4  1  0
  4  5  2  0
  5  6  1  0
  7  6  1  0
  8  7  2  0
  9  8  1  0
 10 11  1  0
 10  9  2  0
 11 12  2  0
 12  4  1  0
 12  7  1  0
 13  2  1  0
 13 22  1  0
 14 13  2  0
 15 16  1  0
 16 17  2  0
 17 18  1  0
 19 20  1  0
 19 18  2  0
 21 20  1  6
 21 22  1  0
 21 23  1  0
 23 32  1  0
 23 24  2  0
 25 19  1  0
 26 25  2  0
 26 16  1  0
 28 27  1  0
 29 28  1  0
 29 30  1  1
 31 29  1  0
 31 32  1  6
 33 31  1  0
 33 34  1  0
 35 33  2  0
M  END
$$$$
