FDD.pdb
     RDKit          3D

 28 28  0  0  1  0  0  0  0  0999 V2000
   21.0672  -32.0057   -2.8279 N   0  0  0  0  0  0  0  0  0  0  0  0
   22.3503  -31.3408   -2.6921 C   0  0  1  0  0  0  0  0  0  0  0  0
   22.3490  -30.7301   -1.3012 C   0  0  0  0  0  0  0  0  0  0  0  0
   21.4880  -29.5149   -1.3078 C   0  0  0  0  0  0  0  0  0  0  0  0
   21.9353  -28.3416   -1.9193 C   0  0  0  0  0  0  0  0  0  0  0  0
   21.1255  -27.2332   -1.9194 C   0  0  0  0  0  0  0  0  0  0  0  0
   19.8630  -27.2511   -1.3250 C   0  0  0  0  0  0  0  0  0  0  0  0
   19.4042  -28.3983   -0.7172 C   0  0  0  0  0  0  0  0  0  0  0  0
   20.2452  -29.5151   -0.7276 C   0  0  0  0  0  0  0  0  0  0  0  0
   23.4360  -32.3914   -2.7098 C   0  0  0  0  0  0  0  0  0  0  0  0
   23.3445  -33.4830   -2.1012 O   0  0  0  0  0  0  0  0  0  0  0  0
   24.6443  -32.1461   -3.4591 N   0  0  0  0  0  0  0  0  0  0  0  0
   25.7198  -33.0984   -3.4314 C   0  0  1  0  0  0  0  0  0  0  0  0
   26.7820  -32.6315   -4.4379 C   0  0  0  0  0  0  0  0  0  0  0  0
   27.7645  -33.7239   -4.5932 C   0  0  0  0  0  0  0  0  0  0  0  0
   28.7697  -33.9148   -3.8647 O   0  0  0  0  0  0  0  0  0  0  0  0
   26.3593  -33.2243   -2.1222 C   0  0  0  0  0  0  0  0  0  0  0  0
   26.2970  -32.3605   -1.2084 O   0  0  0  0  0  0  0  0  0  0  0  0
   27.6035  -34.6573   -5.6364 O   0  0  0  0  0  0  0  0  0  0  0  0
   27.1150  -34.3909   -1.8280 N   0  0  0  0  0  0  0  0  0  0  0  0
   27.6913  -34.6620   -0.5267 C   0  0  1  0  0  0  0  0  0  0  0  0
   26.4805  -34.8099    0.4067 C   0  0  0  0  0  0  0  0  0  0  0  0
   26.7894  -34.3592    1.7763 C   0  0  0  0  0  0  0  0  0  0  0  0
   27.9784  -34.0069    2.0568 O   0  0  0  0  0  0  0  0  0  0  0  0
   28.3375  -35.9770   -0.5568 C   0  0  0  0  0  0  0  0  0  0  0  0
   27.9791  -36.8280   -1.3955 O   0  0  0  0  0  0  0  0  0  0  0  0
   25.8453  -34.2964    2.7738 O   0  0  0  0  0  0  0  0  0  0  0  0
   29.3626  -36.3432    0.3262 O   0  0  0  0  0  0  0  0  0  0  0  0
  2  1  1  1
  3  4  1  0
  3  2  1  0
  4  9  2  0
  5  6  2  0
  5  4  1  0
  6  7  1  0
  7  8  2  0
  9  8  1  0
 10  2  1  0
 10 12  1  0
 11 10  2  0
 13 12  1  0
 13 14  1  6
 14 15  1  0
 15 16  2  0
 17 13  1  0
 18 17  2  0
 19 15  1  0
 20 17  1  0
 21 20  1  0
 21 25  1  0
 21 22  1  1
 23 24  2  0
 23 22  1  0
 25 28  1  0
 26 25  2  0
 27 23  1  0
M  END
$$$$
