FDD.pdb
     RDKit          3D

 28 28  0  0  1  0  0  0  0  0999 V2000
   24.3494   -9.8073  -17.9547 N   0  0  0  0  0  0  0  0  0  0  0  0
   23.8414   -9.0074  -16.8550 C   0  0  1  0  0  0  0  0  0  0  0  0
   24.9916   -8.1060  -16.4399 C   0  0  0  0  0  0  0  0  0  0  0  0
   26.1792   -8.9497  -16.1300 C   0  0  0  0  0  0  0  0  0  0  0  0
   27.3391   -8.8379  -16.8999 C   0  0  0  0  0  0  0  0  0  0  0  0
   28.4251   -9.6204  -16.5960 C   0  0  0  0  0  0  0  0  0  0  0  0
   28.3995  -10.5243  -15.5330 C   0  0  0  0  0  0  0  0  0  0  0  0
   27.2653  -10.6488  -14.7622 C   0  0  0  0  0  0  0  0  0  0  0  0
   26.1705   -9.8433  -15.0897 C   0  0  0  0  0  0  0  0  0  0  0  0
   22.7480   -8.1090  -17.3843 C   0  0  0  0  0  0  0  0  0  0  0  0
   22.8140   -7.5273  -18.4923 O   0  0  0  0  0  0  0  0  0  0  0  0
   21.5610   -7.8985  -16.5915 N   0  0  0  0  0  0  0  0  0  0  0  0
   20.4920   -7.0789  -17.0912 C   0  0  1  0  0  0  0  0  0  0  0  0
   19.1752   -7.6385  -16.5326 C   0  0  0  0  0  0  0  0  0  0  0  0
   18.9047   -8.9192  -17.2179 C   0  0  0  0  0  0  0  0  0  0  0  0
   18.5955   -9.9996  -16.6571 O   0  0  0  0  0  0  0  0  0  0  0  0
   20.5934   -5.6750  -16.6942 C   0  0  0  0  0  0  0  0  0  0  0  0
   20.9746   -5.2763  -15.5625 O   0  0  0  0  0  0  0  0  0  0  0  0
   18.9905   -8.9847  -18.6228 O   0  0  0  0  0  0  0  0  0  0  0  0
   20.2417   -4.6627  -17.6269 N   0  0  0  0  0  0  0  0  0  0  0  0
   20.2898   -3.2466  -17.3245 C   0  0  1  0  0  0  0  0  0  0  0  0
   20.0871   -2.5565  -18.6817 C   0  0  0  0  0  0  0  0  0  0  0  0
   20.1155   -1.0876  -18.5563 C   0  0  0  0  0  0  0  0  0  0  0  0
   20.3306   -0.5695  -17.4153 O   0  0  0  0  0  0  0  0  0  0  0  0
   19.1200   -2.8925  -16.5158 C   0  0  0  0  0  0  0  0  0  0  0  0
   17.9889   -3.3049  -16.8428 O   0  0  0  0  0  0  0  0  0  0  0  0
   19.9233   -0.2421  -19.6233 O   0  0  0  0  0  0  0  0  0  0  0  0
   19.2011   -2.0959  -15.3654 O   0  0  0  0  0  0  0  0  0  0  0  0
  2  1  1  6
  3  4  1  0
  3  2  1  0
  4  9  2  0
  5  6  2  0
  5  4  1  0
  6  7  1  0
  7  8  2  0
  9  8  1  0
 10  2  1  0
 10 12  1  0
 11 10  2  0
 13 12  1  0
 13 14  1  1
 14 15  1  0
 15 16  2  0
 17 13  1  0
 18 17  2  0
 19 15  1  0
 20 17  1  0
 21 20  1  0
 21 25  1  0
 21 22  1  6
 23 24  2  0
 23 22  1  0
 25 28  1  0
 26 25  2  0
 27 23  1  0
M  END
$$$$
