FDD.pdb
     RDKit          3D

 28 28  0  0  1  0  0  0  0  0999 V2000
   27.5824  -22.2696  -10.9151 N   0  0  0  0  0  0  0  0  0  0  0  0
   26.4527  -21.4330  -10.5533 C   0  0  1  0  0  0  0  0  0  0  0  0
   27.0171  -20.0321  -10.3903 C   0  0  0  0  0  0  0  0  0  0  0  0
   27.5842  -19.8961   -9.0199 C   0  0  0  0  0  0  0  0  0  0  0  0
   26.7719  -19.4798   -7.9628 C   0  0  0  0  0  0  0  0  0  0  0  0
   27.3113  -19.3650   -6.7058 C   0  0  0  0  0  0  0  0  0  0  0  0
   28.6532  -19.6572   -6.4575 C   0  0  0  0  0  0  0  0  0  0  0  0
   29.4701  -20.0693   -7.4866 C   0  0  0  0  0  0  0  0  0  0  0  0
   28.9006  -20.1785   -8.7588 C   0  0  0  0  0  0  0  0  0  0  0  0
   25.4981  -21.3888  -11.7236 C   0  0  0  0  0  0  0  0  0  0  0  0
   25.8756  -21.4137  -12.9184 O   0  0  0  0  0  0  0  0  0  0  0  0
   24.0787  -21.3156  -11.4752 N   0  0  0  0  0  0  0  0  0  0  0  0
   23.1495  -21.3369  -12.5708 C   0  0  1  0  0  0  0  0  0  0  0  0
   21.7662  -21.6868  -12.0022 C   0  0  0  0  0  0  0  0  0  0  0  0
   20.9552  -20.4519  -12.0018 C   0  0  0  0  0  0  0  0  0  0  0  0
   21.0860  -19.4888  -12.7972 O   0  0  0  0  0  0  0  0  0  0  0  0
   23.0413  -20.0593  -13.2742 C   0  0  0  0  0  0  0  0  0  0  0  0
   23.4318  -18.9537  -12.8156 O   0  0  0  0  0  0  0  0  0  0  0  0
   19.9347  -20.2936  -11.0431 O   0  0  0  0  0  0  0  0  0  0  0  0
   22.4564  -20.0268  -14.5685 N   0  0  0  0  0  0  0  0  0  0  0  0
   23.0611  -19.3561  -15.7015 C   0  0  1  0  0  0  0  0  0  0  0  0
   24.4574  -19.9851  -15.8201 C   0  0  0  0  0  0  0  0  0  0  0  0
   25.1919  -19.4660  -16.9886 C   0  0  0  0  0  0  0  0  0  0  0  0
   24.5938  -18.6898  -17.7988 O   0  0  0  0  0  0  0  0  0  0  0  0
   22.3435  -19.7398  -16.9204 C   0  0  0  0  0  0  0  0  0  0  0  0
   22.7543  -19.3530  -18.0329 O   0  0  0  0  0  0  0  0  0  0  0  0
   26.5056  -19.7794  -17.2458 O   0  0  0  0  0  0  0  0  0  0  0  0
   21.1912  -20.5378  -16.9076 O   0  0  0  0  0  0  0  0  0  0  0  0
  2  1  1  6
  3  4  1  0
  3  2  1  0
  4  9  2  0
  5  6  2  0
  5  4  1  0
  6  7  1  0
  7  8  2  0
  9  8  1  0
 10  2  1  0
 10 12  1  0
 11 10  2  0
 13 12  1  0
 13 14  1  1
 14 15  1  0
 15 16  2  0
 17 13  1  0
 18 17  2  0
 19 15  1  0
 20 17  1  0
 21 20  1  0
 21 25  1  0
 21 22  1  6
 23 24  2  0
 23 22  1  0
 25 28  1  0
 26 25  2  0
 27 23  1  0
M  END
$$$$
