FDD.pdb
     RDKit          3D

 28 28  0  0  1  0  0  0  0  0999 V2000
   28.5107  -21.8912  -11.7881 N   0  0  0  0  0  0  0  0  0  0  0  0
   27.2509  -21.4252  -11.2377 C   0  0  1  0  0  0  0  0  0  0  0  0
   27.5153  -20.0101  -10.7528 C   0  0  0  0  0  0  0  0  0  0  0  0
   27.7860  -20.0436   -9.2887 C   0  0  0  0  0  0  0  0  0  0  0  0
   26.7309  -19.9525   -8.3780 C   0  0  0  0  0  0  0  0  0  0  0  0
   26.9997  -19.9901   -7.0325 C   0  0  0  0  0  0  0  0  0  0  0  0
   28.3033  -20.1202   -6.5515 C   0  0  0  0  0  0  0  0  0  0  0  0
   29.3568  -20.2116   -7.4334 C   0  0  0  0  0  0  0  0  0  0  0  0
   29.0609  -20.1702   -8.7992 C   0  0  0  0  0  0  0  0  0  0  0  0
   26.2475  -21.3240  -12.3628 C   0  0  0  0  0  0  0  0  0  0  0  0
   26.5142  -20.8148  -13.4764 O   0  0  0  0  0  0  0  0  0  0  0  0
   24.9121  -21.8338  -12.1664 N   0  0  0  0  0  0  0  0  0  0  0  0
   23.9543  -21.7870  -13.2363 C   0  0  1  0  0  0  0  0  0  0  0  0
   23.4282  -23.2136  -13.4538 C   0  0  0  0  0  0  0  0  0  0  0  0
   22.5729  -23.1982  -14.6583 C   0  0  0  0  0  0  0  0  0  0  0  0
   21.3179  -23.2474  -14.6670 O   0  0  0  0  0  0  0  0  0  0  0  0
   22.8103  -20.9180  -12.9629 C   0  0  0  0  0  0  0  0  0  0  0  0
   22.3458  -20.6846  -11.8162 O   0  0  0  0  0  0  0  0  0  0  0  0
   23.1713  -23.1247  -15.9319 O   0  0  0  0  0  0  0  0  0  0  0  0
   22.1505  -20.2775  -14.0460 N   0  0  0  0  0  0  0  0  0  0  0  0
   21.0096  -19.4002  -13.8797 C   0  0  1  0  0  0  0  0  0  0  0  0
   20.7385  -18.8509  -15.2883 C   0  0  0  0  0  0  0  0  0  0  0  0
   19.6130  -17.8983  -15.2950 C   0  0  0  0  0  0  0  0  0  0  0  0
   18.8557  -17.8447  -16.3149 O   0  0  0  0  0  0  0  0  0  0  0  0
   19.8363  -20.2060  -13.5307 C   0  0  0  0  0  0  0  0  0  0  0  0
   18.8068  -19.6515  -13.0963 O   0  0  0  0  0  0  0  0  0  0  0  0
   19.3365  -17.0599  -14.2410 O   0  0  0  0  0  0  0  0  0  0  0  0
   19.8035  -21.6012  -13.6606 O   0  0  0  0  0  0  0  0  0  0  0  0
  2  1  1  6
  3  4  1  0
  3  2  1  0
  4  9  2  0
  5  6  2  0
  5  4  1  0
  6  7  1  0
  7  8  2  0
  9  8  1  0
 10  2  1  0
 10 12  1  0
 11 10  2  0
 13 12  1  0
 13 14  1  1
 14 15  1  0
 15 16  2  0
 17 13  1  0
 18 17  2  0
 19 15  1  0
 20 17  1  0
 21 20  1  0
 21 25  1  0
 21 22  1  6
 23 24  2  0
 23 22  1  0
 25 28  1  0
 26 25  2  0
 27 23  1  0
M  END
$$$$
