FDD.pdb
     RDKit          3D

 28 28  0  0  1  0  0  0  0  0999 V2000
   23.7904  -10.4342  -17.8183 N   0  0  0  0  0  0  0  0  0  0  0  0
   23.3474   -9.6424  -16.6852 C   0  0  1  0  0  0  0  0  0  0  0  0
   24.4347   -8.6056  -16.4610 C   0  0  0  0  0  0  0  0  0  0  0  0
   25.7236   -9.3053  -16.2015 C   0  0  0  0  0  0  0  0  0  0  0  0
   25.8828  -10.0772  -15.0484 C   0  0  0  0  0  0  0  0  0  0  0  0
   27.0763  -10.7186  -14.8288 C   0  0  0  0  0  0  0  0  0  0  0  0
   28.1353  -10.6204  -15.7325 C   0  0  0  0  0  0  0  0  0  0  0  0
   27.9976   -9.8644  -16.8751 C   0  0  0  0  0  0  0  0  0  0  0  0
   26.7743   -9.2188  -17.0786 C   0  0  0  0  0  0  0  0  0  0  0  0
   22.0998   -8.8910  -17.0873 C   0  0  0  0  0  0  0  0  0  0  0  0
   21.8173   -8.6170  -18.2771 O   0  0  0  0  0  0  0  0  0  0  0  0
   21.1749   -8.4602  -16.0672 N   0  0  0  0  0  0  0  0  0  0  0  0
   19.9469   -7.8090  -16.4310 C   0  0  1  0  0  0  0  0  0  0  0  0
   18.7951   -8.7734  -16.1108 C   0  0  0  0  0  0  0  0  0  0  0  0
   17.5548   -8.1909  -16.6631 C   0  0  0  0  0  0  0  0  0  0  0  0
   17.3599   -7.8875  -17.8661 O   0  0  0  0  0  0  0  0  0  0  0  0
   19.7077   -6.5603  -15.7083 C   0  0  0  0  0  0  0  0  0  0  0  0
   20.0032   -6.3638  -14.5003 O   0  0  0  0  0  0  0  0  0  0  0  0
   16.4680   -7.9333  -15.8039 O   0  0  0  0  0  0  0  0  0  0  0  0
   19.0975   -5.4714  -16.3869 N   0  0  0  0  0  0  0  0  0  0  0  0
   18.8208   -4.1944  -15.7609 C   0  0  1  0  0  0  0  0  0  0  0  0
   18.8941   -3.1787  -16.9108 C   0  0  0  0  0  0  0  0  0  0  0  0
   18.6647   -1.8013  -16.4373 C   0  0  0  0  0  0  0  0  0  0  0  0
   18.4846   -1.5974  -15.1952 O   0  0  0  0  0  0  0  0  0  0  0  0
   17.4291   -4.1809  -15.3018 C   0  0  0  0  0  0  0  0  0  0  0  0
   16.5387   -4.7099  -15.9972 O   0  0  0  0  0  0  0  0  0  0  0  0
   18.6401   -0.7151  -17.2798 O   0  0  0  0  0  0  0  0  0  0  0  0
   17.0303   -3.5920  -14.0940 O   0  0  0  0  0  0  0  0  0  0  0  0
  2  1  1  6
  3  4  1  0
  3  2  1  0
  4  9  2  0
  5  6  2  0
  5  4  1  0
  6  7  1  0
  7  8  2  0
  9  8  1  0
 10  2  1  0
 10 12  1  0
 11 10  2  0
 13 12  1  0
 13 14  1  1
 14 15  1  0
 15 16  2  0
 17 13  1  0
 18 17  2  0
 19 15  1  0
 20 17  1  0
 21 20  1  0
 21 25  1  0
 21 22  1  6
 23 24  2  0
 23 22  1  0
 25 28  1  0
 26 25  2  0
 27 23  1  0
M  END
$$$$
