FDD.pdb
     RDKit          3D

 28 28  0  0  1  0  0  0  0  0999 V2000
   21.8934  -11.0062  -15.5955 N   0  0  0  0  0  0  0  0  0  0  0  0
   20.8852  -10.0226  -15.9465 C   0  0  1  0  0  0  0  0  0  0  0  0
   19.5582  -10.7601  -15.8917 C   0  0  0  0  0  0  0  0  0  0  0  0
   19.4310  -11.6168  -17.1033 C   0  0  0  0  0  0  0  0  0  0  0  0
   19.5280  -11.0503  -18.3762 C   0  0  0  0  0  0  0  0  0  0  0  0
   19.4130  -11.8567  -19.4810 C   0  0  0  0  0  0  0  0  0  0  0  0
   19.2041  -13.2315  -19.3631 C   0  0  0  0  0  0  0  0  0  0  0  0
   19.1059  -13.8087  -18.1168 C   0  0  0  0  0  0  0  0  0  0  0  0
   19.2249  -12.9692  -17.0053 C   0  0  0  0  0  0  0  0  0  0  0  0
   20.8481   -8.9702  -14.8631 C   0  0  0  0  0  0  0  0  0  0  0  0
   20.6942   -9.2403  -13.6491 O   0  0  0  0  0  0  0  0  0  0  0  0
   20.9969   -7.5808  -15.2224 N   0  0  0  0  0  0  0  0  0  0  0  0
   21.0046   -6.5663  -14.2051 C   0  0  1  0  0  0  0  0  0  0  0  0
   21.6111   -5.2954  -14.8186 C   0  0  0  0  0  0  0  0  0  0  0  0
   21.7031   -4.2802  -13.7492 C   0  0  0  0  0  0  0  0  0  0  0  0
   21.6027   -3.0383  -13.9070 O   0  0  0  0  0  0  0  0  0  0  0  0
   19.6742   -6.2345  -13.6963 C   0  0  0  0  0  0  0  0  0  0  0  0
   18.6992   -5.8873  -14.4131 O   0  0  0  0  0  0  0  0  0  0  0  0
   21.9240   -4.6922  -12.4200 O   0  0  0  0  0  0  0  0  0  0  0  0
   19.4307   -6.2953  -12.2979 N   0  0  0  0  0  0  0  0  0  0  0  0
   18.1485   -5.9900  -11.6966 C   0  0  1  0  0  0  0  0  0  0  0  0
   18.3504   -6.2666  -10.1992 C   0  0  0  0  0  0  0  0  0  0  0  0
   17.1087   -6.0540   -9.4330 C   0  0  0  0  0  0  0  0  0  0  0  0
   16.0272   -5.8253  -10.0612 O   0  0  0  0  0  0  0  0  0  0  0  0
   17.9009   -4.5499  -11.8087 C   0  0  0  0  0  0  0  0  0  0  0  0
   16.7993   -4.1378  -12.2241 O   0  0  0  0  0  0  0  0  0  0  0  0
   17.0610   -6.0953   -8.0596 O   0  0  0  0  0  0  0  0  0  0  0  0
   18.8565   -3.5831  -11.4667 O   0  0  0  0  0  0  0  0  0  0  0  0
  2  1  1  1
  3  4  1  0
  3  2  1  0
  4  9  2  0
  5  6  2  0
  5  4  1  0
  6  7  1  0
  7  8  2  0
  9  8  1  0
 10  2  1  0
 10 12  1  0
 11 10  2  0
 13 12  1  0
 13 14  1  6
 14 15  1  0
 15 16  2  0
 17 13  1  0
 18 17  2  0
 19 15  1  0
 20 17  1  0
 21 20  1  0
 21 25  1  0
 21 22  1  1
 23 24  2  0
 23 22  1  0
 25 28  1  0
 26 25  2  0
 27 23  1  0
M  END
$$$$
