FDD.pdb
     RDKit          3D

 28 28  0  0  1  0  0  0  0  0999 V2000
   23.7217  -12.7428  -15.6833 N   0  0  0  0  0  0  0  0  0  0  0  0
   23.9947  -11.3279  -15.5087 C   0  0  1  0  0  0  0  0  0  0  0  0
   24.9772  -10.9625  -16.6082 C   0  0  0  0  0  0  0  0  0  0  0  0
   26.2524  -11.6974  -16.3806 C   0  0  0  0  0  0  0  0  0  0  0  0
   26.5461  -12.8406  -17.1273 C   0  0  0  0  0  0  0  0  0  0  0  0
   27.7287  -13.5017  -16.9067 C   0  0  0  0  0  0  0  0  0  0  0  0
   28.6474  -13.0571  -15.9549 C   0  0  0  0  0  0  0  0  0  0  0  0
   28.3760  -11.9320  -15.2088 C   0  0  0  0  0  0  0  0  0  0  0  0
   27.1657  -11.2745  -15.4489 C   0  0  0  0  0  0  0  0  0  0  0  0
   22.7230  -10.5596  -15.7826 C   0  0  0  0  0  0  0  0  0  0  0  0
   21.6842  -11.0921  -16.2385 O   0  0  0  0  0  0  0  0  0  0  0  0
   22.6810   -9.1431  -15.5114 N   0  0  0  0  0  0  0  0  0  0  0  0
   21.4568   -8.4097  -15.6773 C   0  0  1  0  0  0  0  0  0  0  0  0
   20.3955   -9.0651  -14.7810 C   0  0  0  0  0  0  0  0  0  0  0  0
   19.0880   -8.4682  -15.1229 C   0  0  0  0  0  0  0  0  0  0  0  0
   18.5049   -7.5619  -14.4780 O   0  0  0  0  0  0  0  0  0  0  0  0
   21.5609   -7.0002  -15.3015 C   0  0  0  0  0  0  0  0  0  0  0  0
   21.9802   -6.5844  -14.1896 O   0  0  0  0  0  0  0  0  0  0  0  0
   18.3951   -8.9239  -16.2620 O   0  0  0  0  0  0  0  0  0  0  0  0
   21.1665   -6.0024  -16.2329 N   0  0  0  0  0  0  0  0  0  0  0  0
   21.1455   -4.5868  -15.9255 C   0  0  1  0  0  0  0  0  0  0  0  0
   19.9185   -4.4084  -15.0188 C   0  0  0  0  0  0  0  0  0  0  0  0
   19.7123   -2.9953  -14.6518 C   0  0  0  0  0  0  0  0  0  0  0  0
   20.4846   -2.1115  -15.1408 O   0  0  0  0  0  0  0  0  0  0  0  0
   22.3085   -4.2627  -15.0949 C   0  0  0  0  0  0  0  0  0  0  0  0
   22.5024   -3.0868  -14.7263 O   0  0  0  0  0  0  0  0  0  0  0  0
   18.7139   -2.5812  -13.8021 O   0  0  0  0  0  0  0  0  0  0  0  0
   23.2405   -5.2237  -14.6796 O   0  0  0  0  0  0  0  0  0  0  0  0
  2  1  1  6
  3  4  1  0
  3  2  1  0
  4  9  2  0
  5  6  2  0
  5  4  1  0
  6  7  1  0
  7  8  2  0
  9  8  1  0
 10  2  1  0
 10 12  1  0
 11 10  2  0
 13 12  1  0
 13 14  1  1
 14 15  1  0
 15 16  2  0
 17 13  1  0
 18 17  2  0
 19 15  1  0
 20 17  1  0
 21 20  1  0
 21 25  1  0
 21 22  1  1
 23 24  2  0
 23 22  1  0
 25 28  1  0
 26 25  2  0
 27 23  1  0
M  END
$$$$
