FDD.pdb
     RDKit          3D

 28 28  0  0  1  0  0  0  0  0999 V2000
   26.7680  -18.3689   -7.8817 N   0  0  0  0  0  0  0  0  0  0  0  0
   27.2456  -19.6717   -8.3080 C   0  0  1  0  0  0  0  0  0  0  0  0
   26.8992  -20.6243   -7.1765 C   0  0  0  0  0  0  0  0  0  0  0  0
   27.7695  -20.3216   -6.0064 C   0  0  0  0  0  0  0  0  0  0  0  0
   27.2093  -19.8371   -4.8223 C   0  0  0  0  0  0  0  0  0  0  0  0
   28.0269  -19.5684   -3.7530 C   0  0  0  0  0  0  0  0  0  0  0  0
   29.4062  -19.7705   -3.8194 C   0  0  0  0  0  0  0  0  0  0  0  0
   29.9773  -20.2476   -4.9779 C   0  0  0  0  0  0  0  0  0  0  0  0
   29.1266  -20.5138   -6.0550 C   0  0  0  0  0  0  0  0  0  0  0  0
   26.4391  -20.1052   -9.5098 C   0  0  0  0  0  0  0  0  0  0  0  0
   25.1984  -19.9511   -9.5955 O   0  0  0  0  0  0  0  0  0  0  0  0
   27.1112  -20.7277  -10.6245 N   0  0  0  0  0  0  0  0  0  0  0  0
   26.5625  -20.6284  -11.9486 C   0  0  1  0  0  0  0  0  0  0  0  0
   27.6075  -21.1814  -12.9291 C   0  0  0  0  0  0  0  0  0  0  0  0
   27.1261  -20.9096  -14.2992 C   0  0  0  0  0  0  0  0  0  0  0  0
   26.0435  -20.3473  -14.5977 O   0  0  0  0  0  0  0  0  0  0  0  0
   25.3245  -21.3856  -12.1297 C   0  0  0  0  0  0  0  0  0  0  0  0
   25.1535  -22.5776  -11.7622 O   0  0  0  0  0  0  0  0  0  0  0  0
   27.9147  -21.2983  -15.4003 O   0  0  0  0  0  0  0  0  0  0  0  0
   24.2164  -20.7630  -12.7645 N   0  0  0  0  0  0  0  0  0  0  0  0
   22.9112  -21.3811  -12.8796 C   0  0  1  0  0  0  0  0  0  0  0  0
   21.9589  -20.4022  -12.1766 C   0  0  0  0  0  0  0  0  0  0  0  0
   20.5860  -20.9350  -12.1029 C   0  0  0  0  0  0  0  0  0  0  0  0
   20.3474  -22.0934  -12.5694 O   0  0  0  0  0  0  0  0  0  0  0  0
   22.5104  -21.3880  -14.2893 C   0  0  0  0  0  0  0  0  0  0  0  0
   22.6177  -20.3498  -14.9724 O   0  0  0  0  0  0  0  0  0  0  0  0
   19.5414  -20.2361  -11.5454 O   0  0  0  0  0  0  0  0  0  0  0  0
   21.9997  -22.5246  -14.9312 O   0  0  0  0  0  0  0  0  0  0  0  0
  2  1  1  1
  3  4  1  0
  3  2  1  0
  4  9  2  0
  5  6  2  0
  5  4  1  0
  6  7  1  0
  7  8  2  0
  9  8  1  0
 10  2  1  0
 10 12  1  0
 11 10  2  0
 13 12  1  0
 13 14  1  6
 14 15  1  0
 15 16  2  0
 17 13  1  0
 18 17  2  0
 19 15  1  0
 20 17  1  0
 21 20  1  0
 21 25  1  0
 21 22  1  1
 23 24  2  0
 23 22  1  0
 25 28  1  0
 26 25  2  0
 27 23  1  0
M  END
$$$$
