FDD.pdb
     RDKit          3D

 28 28  0  0  1  0  0  0  0  0999 V2000
   28.5246  -21.1307   -8.8336 N   0  0  0  0  0  0  0  0  0  0  0  0
   27.1279  -20.7627   -8.9785 C   0  0  1  0  0  0  0  0  0  0  0  0
   26.9697  -19.4538   -8.2239 C   0  0  0  0  0  0  0  0  0  0  0  0
   27.3974  -19.6554   -6.8116 C   0  0  0  0  0  0  0  0  0  0  0  0
   28.4916  -18.9521   -6.3029 C   0  0  0  0  0  0  0  0  0  0  0  0
   28.8678  -19.1476   -4.9974 C   0  0  0  0  0  0  0  0  0  0  0  0
   28.1809  -20.0313   -4.1639 C   0  0  0  0  0  0  0  0  0  0  0  0
   27.0995  -20.7338   -4.6469 C   0  0  0  0  0  0  0  0  0  0  0  0
   26.7340  -20.5204   -5.9794 C   0  0  0  0  0  0  0  0  0  0  0  0
   26.8620  -20.4648  -10.4356 C   0  0  0  0  0  0  0  0  0  0  0  0
   27.4965  -19.6021  -11.0865 O   0  0  0  0  0  0  0  0  0  0  0  0
   25.8328  -21.1993  -11.1305 N   0  0  0  0  0  0  0  0  0  0  0  0
   25.5981  -20.9702  -12.5293 C   0  0  1  0  0  0  0  0  0  0  0  0
   25.8024  -22.3051  -13.2611 C   0  0  0  0  0  0  0  0  0  0  0  0
   25.7583  -22.0330  -14.7126 C   0  0  0  0  0  0  0  0  0  0  0  0
   25.0971  -22.6823  -15.5603 O   0  0  0  0  0  0  0  0  0  0  0  0
   24.2492  -20.4906  -12.8278 C   0  0  0  0  0  0  0  0  0  0  0  0
   23.9880  -19.4683  -13.5147 O   0  0  0  0  0  0  0  0  0  0  0  0
   26.5083  -20.9630  -15.2399 O   0  0  0  0  0  0  0  0  0  0  0  0
   23.1305  -21.2040  -12.3197 N   0  0  0  0  0  0  0  0  0  0  0  0
   21.7569  -20.8534  -12.6189 C   0  0  1  0  0  0  0  0  0  0  0  0
   21.0845  -22.1913  -12.9612 C   0  0  0  0  0  0  0  0  0  0  0  0
   21.0978  -22.4529  -14.4122 C   0  0  0  0  0  0  0  0  0  0  0  0
   21.6474  -21.6076  -15.1869 O   0  0  0  0  0  0  0  0  0  0  0  0
   21.1084  -20.3807  -11.3926 C   0  0  0  0  0  0  0  0  0  0  0  0
   21.5802  -20.6893  -10.2798 O   0  0  0  0  0  0  0  0  0  0  0  0
   20.5437  -23.5787  -14.9744 O   0  0  0  0  0  0  0  0  0  0  0  0
   19.9577  -19.5805  -11.3984 O   0  0  0  0  0  0  0  0  0  0  0  0
  2  1  1  6
  3  4  1  0
  3  2  1  0
  4  9  2  0
  5  6  2  0
  5  4  1  0
  6  7  1  0
  7  8  2  0
  9  8  1  0
 10  2  1  0
 10 12  1  0
 11 10  2  0
 13 12  1  0
 13 14  1  6
 14 15  1  0
 15 16  2  0
 17 13  1  0
 18 17  2  0
 19 15  1  0
 20 17  1  0
 21 20  1  0
 21 25  1  0
 21 22  1  1
 23 24  2  0
 23 22  1  0
 25 28  1  0
 26 25  2  0
 27 23  1  0
M  END
$$$$
