FDD.pdb
     RDKit          3D

 28 28  0  0  1  0  0  0  0  0999 V2000
   24.7259  -10.2913  -17.7833 N   0  0  0  0  0  0  0  0  0  0  0  0
   24.4962   -9.7745  -16.4465 C   0  0  1  0  0  0  0  0  0  0  0  0
   25.7712   -9.0410  -16.0671 C   0  0  0  0  0  0  0  0  0  0  0  0
   26.9002  -10.0121  -16.0487 C   0  0  0  0  0  0  0  0  0  0  0  0
   26.8612  -11.1169  -15.1951 C   0  0  0  0  0  0  0  0  0  0  0  0
   27.9089  -12.0037  -15.1957 C   0  0  0  0  0  0  0  0  0  0  0  0
   29.0126  -11.8296  -16.0319 C   0  0  0  0  0  0  0  0  0  0  0  0
   29.0694  -10.7468  -16.8806 C   0  0  0  0  0  0  0  0  0  0  0  0
   27.9924   -9.8555  -16.8632 C   0  0  0  0  0  0  0  0  0  0  0  0
   23.3981   -8.7392  -16.5178 C   0  0  0  0  0  0  0  0  0  0  0  0
   23.2621   -7.9484  -17.4804 O   0  0  0  0  0  0  0  0  0  0  0  0
   22.4487   -8.6406  -15.4359 N   0  0  0  0  0  0  0  0  0  0  0  0
   21.3554   -7.7116  -15.5138 C   0  0  1  0  0  0  0  0  0  0  0  0
   20.2702   -8.1855  -14.5356 C   0  0  0  0  0  0  0  0  0  0  0  0
   19.6441   -9.3941  -15.1102 C   0  0  0  0  0  0  0  0  0  0  0  0
   19.5157  -10.5000  -14.5289 O   0  0  0  0  0  0  0  0  0  0  0  0
   21.7221   -6.3418  -15.1563 C   0  0  0  0  0  0  0  0  0  0  0  0
   22.3840   -6.0208  -14.1346 O   0  0  0  0  0  0  0  0  0  0  0  0
   19.1331   -9.3521  -16.4226 O   0  0  0  0  0  0  0  0  0  0  0  0
   21.3161   -5.2721  -15.9987 N   0  0  0  0  0  0  0  0  0  0  0  0
   21.6573   -3.8862  -15.7502 C   0  0  1  0  0  0  0  0  0  0  0  0
   21.7191   -3.2492  -17.1465 C   0  0  0  0  0  0  0  0  0  0  0  0
   22.0255   -1.8086  -17.0757 C   0  0  0  0  0  0  0  0  0  0  0  0
   21.2520   -0.9836  -17.6568 O   0  0  0  0  0  0  0  0  0  0  0  0
   20.5384   -3.2365  -15.0620 C   0  0  0  0  0  0  0  0  0  0  0  0
   20.6617   -2.0706  -14.6359 O   0  0  0  0  0  0  0  0  0  0  0  0
   23.1145   -1.3078  -16.4021 O   0  0  0  0  0  0  0  0  0  0  0  0
   19.3046   -3.8666  -14.8495 O   0  0  0  0  0  0  0  0  0  0  0  0
  2  1  1  6
  3  4  1  0
  3  2  1  0
  4  9  2  0
  5  6  2  0
  5  4  1  0
  6  7  1  0
  7  8  2  0
  9  8  1  0
 10  2  1  0
 10 12  1  0
 11 10  2  0
 13 12  1  0
 13 14  1  1
 14 15  1  0
 15 16  2  0
 17 13  1  0
 18 17  2  0
 19 15  1  0
 20 17  1  0
 21 20  1  0
 21 25  1  0
 21 22  1  6
 23 24  2  0
 23 22  1  0
 25 28  1  0
 26 25  2  0
 27 23  1  0
M  END
$$$$
