FDD.pdb
     RDKit          3D

 28 28  0  0  1  0  0  0  0  0999 V2000
   24.5530    2.8304   -1.2902 N   0  0  0  0  0  0  0  0  0  0  0  0
   25.5750    2.3179   -2.1844 C   0  0  1  0  0  0  0  0  0  0  0  0
   24.9572    1.1049   -2.8588 C   0  0  0  0  0  0  0  0  0  0  0  0
   24.8232    0.0110   -1.8570 C   0  0  0  0  0  0  0  0  0  0  0  0
   23.5572   -0.4288   -1.4639 C   0  0  0  0  0  0  0  0  0  0  0  0
   23.4538   -1.4414   -0.5430 C   0  0  0  0  0  0  0  0  0  0  0  0
   24.5847   -2.0451    0.0087 C   0  0  0  0  0  0  0  0  0  0  0  0
   25.8414   -1.6256   -0.3663 C   0  0  0  0  0  0  0  0  0  0  0  0
   25.9239   -0.5924   -1.3046 C   0  0  0  0  0  0  0  0  0  0  0  0
   25.8208    3.3442   -3.2656 C   0  0  0  0  0  0  0  0  0  0  0  0
   25.1284    4.3803   -3.3984 O   0  0  0  0  0  0  0  0  0  0  0  0
   26.9012    3.1411   -4.2001 N   0  0  0  0  0  0  0  0  0  0  0  0
   27.1955    4.1356   -5.1944 C   0  0  1  0  0  0  0  0  0  0  0  0
   28.6519    3.9339   -5.6387 C   0  0  0  0  0  0  0  0  0  0  0  0
   29.5249    4.3977   -4.5408 C   0  0  0  0  0  0  0  0  0  0  0  0
   29.2738    5.3447   -3.7549 O   0  0  0  0  0  0  0  0  0  0  0  0
   26.3433    4.0511   -6.3800 C   0  0  0  0  0  0  0  0  0  0  0  0
   25.9390    2.9764   -6.8965 O   0  0  0  0  0  0  0  0  0  0  0  0
   30.7583    3.7540   -4.3174 O   0  0  0  0  0  0  0  0  0  0  0  0
   25.9255    5.2480   -7.0213 N   0  0  0  0  0  0  0  0  0  0  0  0
   25.0681    5.2709   -8.1890 C   0  0  1  0  0  0  0  0  0  0  0  0
   24.3748    6.6402   -8.1300 C   0  0  0  0  0  0  0  0  0  0  0  0
   23.3776    6.7934   -9.2054 C   0  0  0  0  0  0  0  0  0  0  0  0
   23.1484    5.8110   -9.9793 O   0  0  0  0  0  0  0  0  0  0  0  0
   25.9037    5.2959   -9.3927 C   0  0  0  0  0  0  0  0  0  0  0  0
   26.9902    5.9089   -9.3841 O   0  0  0  0  0  0  0  0  0  0  0  0
   22.6733    7.9559   -9.4122 O   0  0  0  0  0  0  0  0  0  0  0  0
   25.5427    4.6535  -10.5850 O   0  0  0  0  0  0  0  0  0  0  0  0
  2  1  1  1
  3  4  1  0
  3  2  1  0
  4  9  2  0
  5  6  2  0
  5  4  1  0
  6  7  1  0
  7  8  2  0
  9  8  1  0
 10  2  1  0
 10 12  1  0
 11 10  2  0
 13 12  1  0
 13 14  1  6
 14 15  1  0
 15 16  2  0
 17 13  1  0
 18 17  2  0
 19 15  1  0
 20 17  1  0
 21 20  1  0
 21 25  1  0
 21 22  1  1
 23 24  2  0
 23 22  1  0
 25 28  1  0
 26 25  2  0
 27 23  1  0
M  END
$$$$
