FDD.pdb
     RDKit          3D

 28 28  0  0  1  0  0  0  0  0999 V2000
   28.3798  -21.0958  -11.0675 N   0  0  0  0  0  0  0  0  0  0  0  0
   27.0259  -21.0641  -10.5448 C   0  0  1  0  0  0  0  0  0  0  0  0
   26.9397  -19.7978   -9.7100 C   0  0  0  0  0  0  0  0  0  0  0  0
   27.5992  -20.0390   -8.3967 C   0  0  0  0  0  0  0  0  0  0  0  0
   28.9890  -20.1550   -8.3205 C   0  0  0  0  0  0  0  0  0  0  0  0
   29.5792  -20.3724   -7.1005 C   0  0  0  0  0  0  0  0  0  0  0  0
   28.8234  -20.4776   -5.9320 C   0  0  0  0  0  0  0  0  0  0  0  0
   27.4520  -20.3659   -5.9865 C   0  0  0  0  0  0  0  0  0  0  0  0
   26.8715  -20.1457   -7.2391 C   0  0  0  0  0  0  0  0  0  0  0  0
   26.0715  -20.8926  -11.7034 C   0  0  0  0  0  0  0  0  0  0  0  0
   26.2543  -20.0647  -12.6263 O   0  0  0  0  0  0  0  0  0  0  0  0
   24.8866  -21.7131  -11.7701 N   0  0  0  0  0  0  0  0  0  0  0  0
   23.9908  -21.6025  -12.8879 C   0  0  1  0  0  0  0  0  0  0  0  0
   23.7487  -23.0179  -13.4332 C   0  0  0  0  0  0  0  0  0  0  0  0
   24.7689  -23.2809  -14.4689 C   0  0  0  0  0  0  0  0  0  0  0  0
   25.4067  -24.3530  -14.6141 O   0  0  0  0  0  0  0  0  0  0  0  0
   22.6938  -21.0197  -12.5459 C   0  0  0  0  0  0  0  0  0  0  0  0
   22.0987  -21.1897  -11.4496 O   0  0  0  0  0  0  0  0  0  0  0  0
   25.0903  -22.2705  -15.3971 O   0  0  0  0  0  0  0  0  0  0  0  0
   22.0286  -20.2001  -13.4968 N   0  0  0  0  0  0  0  0  0  0  0  0
   20.7587  -19.5509  -13.2420 C   0  0  1  0  0  0  0  0  0  0  0  0
   20.6503  -18.4762  -14.3340 C   0  0  0  0  0  0  0  0  0  0  0  0
   19.4082  -17.6920  -14.2061 C   0  0  0  0  0  0  0  0  0  0  0  0
   18.7656  -17.7278  -13.1096 O   0  0  0  0  0  0  0  0  0  0  0  0
   19.6760  -20.5025  -13.5068 C   0  0  0  0  0  0  0  0  0  0  0  0
   19.7501  -21.2739  -14.4844 O   0  0  0  0  0  0  0  0  0  0  0  0
   18.9077  -16.9128  -15.2223 O   0  0  0  0  0  0  0  0  0  0  0  0
   18.5315  -20.5982  -12.7034 O   0  0  0  0  0  0  0  0  0  0  0  0
  2  1  1  6
  3  4  1  0
  3  2  1  0
  4  9  2  0
  5  6  2  0
  5  4  1  0
  6  7  1  0
  7  8  2  0
  9  8  1  0
 10  2  1  0
 10 12  1  0
 11 10  2  0
 13 12  1  0
 13 14  1  1
 14 15  1  0
 15 16  2  0
 17 13  1  0
 18 17  2  0
 19 15  1  0
 20 17  1  0
 21 20  1  0
 21 25  1  0
 21 22  1  6
 23 24  2  0
 23 22  1  0
 25 28  1  0
 26 25  2  0
 27 23  1  0
M  END
$$$$
