FDD.pdb
     RDKit          3D

 28 28  0  0  1  0  0  0  0  0999 V2000
   25.0544  -10.3066  -14.3500 N   0  0  0  0  0  0  0  0  0  0  0  0
   24.5805   -9.4341  -15.4089 C   0  0  1  0  0  0  0  0  0  0  0  0
   24.5841  -10.2821  -16.6693 C   0  0  0  0  0  0  0  0  0  0  0  0
   25.9939  -10.5488  -17.0683 C   0  0  0  0  0  0  0  0  0  0  0  0
   26.4982  -11.8508  -17.0340 C   0  0  0  0  0  0  0  0  0  0  0  0
   27.7987  -12.0777  -17.4101 C   0  0  0  0  0  0  0  0  0  0  0  0
   28.6298  -11.0379  -17.8291 C   0  0  0  0  0  0  0  0  0  0  0  0
   28.1510   -9.7475  -17.8699 C   0  0  0  0  0  0  0  0  0  0  0  0
   26.8242   -9.5385  -17.4818 C   0  0  0  0  0  0  0  0  0  0  0  0
   23.1405   -9.0769  -15.1236 C   0  0  0  0  0  0  0  0  0  0  0  0
   22.3451   -9.8484  -14.5381 O   0  0  0  0  0  0  0  0  0  0  0  0
   22.6370   -7.7892  -15.5358 N   0  0  0  0  0  0  0  0  0  0  0  0
   21.3004   -7.3899  -15.1918 C   0  0  1  0  0  0  0  0  0  0  0  0
   21.3057   -5.8671  -14.9913 C   0  0  0  0  0  0  0  0  0  0  0  0
   21.9492   -5.5874  -13.6912 C   0  0  0  0  0  0  0  0  0  0  0  0
   22.8412   -4.7277  -13.4846 O   0  0  0  0  0  0  0  0  0  0  0  0
   20.3093   -7.7092  -16.2188 C   0  0  0  0  0  0  0  0  0  0  0  0
   20.4741   -7.5294  -17.4539 O   0  0  0  0  0  0  0  0  0  0  0  0
   21.5632   -6.3250  -12.5543 O   0  0  0  0  0  0  0  0  0  0  0  0
   19.0591   -8.2605  -15.8294 N   0  0  0  0  0  0  0  0  0  0  0  0
   18.0569   -8.7121  -16.7732 C   0  0  1  0  0  0  0  0  0  0  0  0
   17.3137   -9.8364  -16.0361 C   0  0  0  0  0  0  0  0  0  0  0  0
   18.1090  -11.0772  -15.9903 C   0  0  0  0  0  0  0  0  0  0  0  0
   18.8822  -11.3511  -16.9618 O   0  0  0  0  0  0  0  0  0  0  0  0
   17.0735   -7.6437  -16.9709 C   0  0  0  0  0  0  0  0  0  0  0  0
   17.1867   -6.5696  -16.3466 O   0  0  0  0  0  0  0  0  0  0  0  0
   18.0587  -11.9594  -14.9370 O   0  0  0  0  0  0  0  0  0  0  0  0
   15.9838   -7.7624  -17.8445 O   0  0  0  0  0  0  0  0  0  0  0  0
  2  1  1  1
  3  4  1  0
  3  2  1  0
  4  9  2  0
  5  6  2  0
  5  4  1  0
  6  7  1  0
  7  8  2  0
  9  8  1  0
 10  2  1  0
 10 12  1  0
 11 10  2  0
 13 12  1  0
 13 14  1  6
 14 15  1  0
 15 16  2  0
 17 13  1  0
 18 17  2  0
 19 15  1  0
 20 17  1  0
 21 20  1  0
 21 25  1  0
 21 22  1  1
 23 24  2  0
 23 22  1  0
 25 28  1  0
 26 25  2  0
 27 23  1  0
M  END
$$$$
