WDS.pdb
     RDKit          3D

 29 30  0  0  1  0  0  0  0  0999 V2000
    6.2932  -17.8787   24.5476 N   0  0  0  0  0  0  0  0  0  0  0  0
    6.7988  -17.1962   23.3313 C   0  0  1  0  0  0  0  0  0  0  0  0
    6.5370  -15.7463   23.5578 C   0  0  0  0  0  0  0  0  0  0  0  0
    6.7471  -15.2367   24.9181 C   0  0  0  0  0  0  0  0  0  0  0  0
    6.8218  -15.9808   26.0960 C   0  0  0  0  0  0  0  0  0  0  0  0
    6.9847  -15.1234   27.0868 N   0  0  0  0  0  0  0  0  0  0  0  0
    7.0263  -13.8587   26.6689 C   0  0  0  0  0  0  0  0  0  0  0  0
    7.1905  -12.6434   27.3058 C   0  0  0  0  0  0  0  0  0  0  0  0
    7.2080  -11.4812   26.5776 C   0  0  0  0  0  0  0  0  0  0  0  0
    7.0638  -11.5001   25.2099 C   0  0  0  0  0  0  0  0  0  0  0  0
    6.9017  -12.7051   24.5919 C   0  0  0  0  0  0  0  0  0  0  0  0
    6.8750  -13.9190   25.2782 C   0  0  0  0  0  0  0  0  0  0  0  0
    8.2236  -17.4580   23.1016 C   0  0  0  0  0  0  0  0  0  0  0  0
    8.7000  -18.5046   23.6187 O   0  0  0  0  0  0  0  0  0  0  0  0
    9.1108  -16.6420   22.3534 N   0  0  0  0  0  0  0  0  0  0  0  0
   10.4837  -16.9614   22.0919 C   0  0  1  0  0  0  0  0  0  0  0  0
   11.0347  -16.1873   20.9374 C   0  0  0  0  0  0  0  0  0  0  0  0
   12.3963  -16.6012   20.5398 C   0  0  0  0  0  0  0  0  0  0  0  0
   12.8466  -17.7534   20.5336 O   0  0  0  0  0  0  0  0  0  0  0  0
   11.3407  -16.7487   23.3126 C   0  0  0  0  0  0  0  0  0  0  0  0
   12.3958  -16.0980   23.2832 O   0  0  0  0  0  0  0  0  0  0  0  0
   13.2513  -15.5661   20.1299 O   0  0  0  0  0  0  0  0  0  0  0  0
   10.0666  -17.8875   27.2516 O   0  0  0  0  0  0  0  0  0  0  0  0
   10.9855  -16.8568   26.9746 C   0  0  0  0  0  0  0  0  0  0  0  0
   11.7430  -17.2609   25.7419 C   0  0  2  0  0  0  0  0  0  0  0  0
   10.9480  -17.3047   24.5601 N   0  0  0  0  0  0  0  0  0  0  0  0
   12.4560  -18.5334   25.9077 C   0  0  0  0  0  0  0  0  0  0  0  0
   12.2224  -19.4814   25.1225 O   0  0  0  0  0  0  0  0  0  0  0  0
   13.3926  -18.7389   26.9106 O   0  0  0  0  0  0  0  0  0  0  0  0
  2  1  1  1
  3  4  1  0
  3  2  1  0
  4  5  2  0
  5  6  1  0
  7  6  1  0
  8  7  2  0
  9  8  1  0
 10 11  1  0
 10  9  2  0
 11 12  2  0
 12  4  1  0
 12  7  1  0
 13  2  1  0
 13 14  2  0
 15 13  1  0
 16 15  1  0
 16 17  1  6
 18 17  1  0
 18 22  1  0
 19 18  2  0
 20 16  1  0
 21 20  2  0
 24 23  1  0
 25 24  1  1
 25 27  1  0
 25 26  1  0
 26 20  1  0
 27 29  1  0
 28 27  2  0
M  END
$$$$
