WDS.pdb
     RDKit          3D

 29 30  0  0  1  0  0  0  0  0999 V2000
    6.9208  -17.5535   23.8369 N   0  0  0  0  0  0  0  0  0  0  0  0
    7.8027  -16.4743   23.3285 C   0  0  1  0  0  0  0  0  0  0  0  0
    8.3235  -15.7878   24.5448 C   0  0  0  0  0  0  0  0  0  0  0  0
    7.3581  -15.0202   25.3404 C   0  0  0  0  0  0  0  0  0  0  0  0
    6.2109  -15.5028   25.9711 C   0  0  0  0  0  0  0  0  0  0  0  0
    5.6199  -14.4706   26.5443 N   0  0  0  0  0  0  0  0  0  0  0  0
    6.2793  -13.3291   26.3497 C   0  0  0  0  0  0  0  0  0  0  0  0
    6.0733  -12.0227   26.7501 C   0  0  0  0  0  0  0  0  0  0  0  0
    6.9669  -11.0446   26.3948 C   0  0  0  0  0  0  0  0  0  0  0  0
    8.0772  -11.3404   25.6390 C   0  0  0  0  0  0  0  0  0  0  0  0
    8.2702  -12.6330   25.2488 C   0  0  0  0  0  0  0  0  0  0  0  0
    7.3971  -13.6695   25.5783 C   0  0  0  0  0  0  0  0  0  0  0  0
    8.8913  -16.9956   22.4951 C   0  0  0  0  0  0  0  0  0  0  0  0
    9.4363  -18.0668   22.8764 O   0  0  0  0  0  0  0  0  0  0  0  0
    9.3848  -16.4046   21.3035 N   0  0  0  0  0  0  0  0  0  0  0  0
   10.5648  -16.8339   20.6117 C   0  0  1  0  0  0  0  0  0  0  0  0
   10.5939  -16.3589   19.1942 C   0  0  0  0  0  0  0  0  0  0  0  0
    9.5789  -16.9987   18.3318 C   0  0  0  0  0  0  0  0  0  0  0  0
    8.6753  -16.4301   17.7068 O   0  0  0  0  0  0  0  0  0  0  0  0
   11.8145  -16.3948   21.3294 C   0  0  0  0  0  0  0  0  0  0  0  0
   12.4309  -15.3623   21.0272 O   0  0  0  0  0  0  0  0  0  0  0  0
    9.6660  -18.3955   18.2233 O   0  0  0  0  0  0  0  0  0  0  0  0
   13.0549  -18.7956   24.3577 O   0  0  0  0  0  0  0  0  0  0  0  0
   13.5599  -17.4889   24.5013 C   0  0  0  0  0  0  0  0  0  0  0  0
   13.4935  -16.8393   23.1485 C   0  0  2  0  0  0  0  0  0  0  0  0
   12.3294  -17.1762   22.3990 N   0  0  0  0  0  0  0  0  0  0  0  0
   14.6935  -17.0903   22.3408 C   0  0  0  0  0  0  0  0  0  0  0  0
   14.5893  -17.6926   21.2471 O   0  0  0  0  0  0  0  0  0  0  0  0
   15.9593  -16.6849   22.7389 O   0  0  0  0  0  0  0  0  0  0  0  0
  2  1  1  1
  3  4  1  0
  3  2  1  0
  4  5  2  0
  5  6  1  0
  7  6  1  0
  8  7  2  0
  9  8  1  0
 10 11  1  0
 10  9  2  0
 11 12  2  0
 12  4  1  0
 12  7  1  0
 13  2  1  0
 13 14  2  0
 15 13  1  0
 16 15  1  0
 16 17  1  6
 18 17  1  0
 18 22  1  0
 19 18  2  0
 20 16  1  0
 21 20  2  0
 24 23  1  0
 25 24  1  1
 25 27  1  0
 25 26  1  0
 26 20  1  0
 27 29  1  0
 28 27  2  0
M  END
$$$$
