WDS.pdb
     RDKit          3D

 29 30  0  0  1  0  0  0  0  0999 V2000
    6.4505  -17.7356   24.3964 N   0  0  0  0  0  0  0  0  0  0  0  0
    7.0673  -16.6396   23.6095 C   0  0  1  0  0  0  0  0  0  0  0  0
    7.9057  -15.8822   24.5819 C   0  0  0  0  0  0  0  0  0  0  0  0
    7.1988  -15.0569   25.5686 C   0  0  0  0  0  0  0  0  0  0  0  0
    6.3797  -15.4996   26.6077 C   0  0  0  0  0  0  0  0  0  0  0  0
    5.9249  -14.4261   27.2274 N   0  0  0  0  0  0  0  0  0  0  0  0
    6.3738  -13.2935   26.6874 C   0  0  0  0  0  0  0  0  0  0  0  0
    6.1968  -11.9550   26.9818 C   0  0  0  0  0  0  0  0  0  0  0  0
    6.8259  -10.9956   26.2299 C   0  0  0  0  0  0  0  0  0  0  0  0
    7.6391  -11.3421   25.1762 C   0  0  0  0  0  0  0  0  0  0  0  0
    7.8060  -12.6661   24.8943 C   0  0  0  0  0  0  0  0  0  0  0  0
    7.1927  -13.6859   25.6217 C   0  0  0  0  0  0  0  0  0  0  0  0
    7.8655  -17.1450   22.4875 C   0  0  0  0  0  0  0  0  0  0  0  0
    8.5883  -18.1533   22.7128 O   0  0  0  0  0  0  0  0  0  0  0  0
    7.8979  -16.6029   21.1769 N   0  0  0  0  0  0  0  0  0  0  0  0
    9.0242  -16.6798   20.2932 C   0  0  1  0  0  0  0  0  0  0  0  0
    8.7206  -16.1214   18.9398 C   0  0  0  0  0  0  0  0  0  0  0  0
    9.6594  -16.5660   17.8889 C   0  0  0  0  0  0  0  0  0  0  0  0
   10.6722  -17.2585   18.0472 O   0  0  0  0  0  0  0  0  0  0  0  0
   10.2304  -15.9915   20.8773 C   0  0  0  0  0  0  0  0  0  0  0  0
   10.1813  -14.8486   21.3556 O   0  0  0  0  0  0  0  0  0  0  0  0
    9.3529  -16.1498   16.5838 O   0  0  0  0  0  0  0  0  0  0  0  0
   12.2653  -17.7779   24.2654 O   0  0  0  0  0  0  0  0  0  0  0  0
   11.4237  -17.6333   23.1456 C   0  0  0  0  0  0  0  0  0  0  0  0
   12.2246  -16.9439   22.0780 C   0  0  2  0  0  0  0  0  0  0  0  0
   11.4868  -16.6555   20.8936 N   0  0  0  0  0  0  0  0  0  0  0  0
   13.4522  -17.6714   21.7331 C   0  0  0  0  0  0  0  0  0  0  0  0
   13.3750  -18.7620   21.1212 O   0  0  0  0  0  0  0  0  0  0  0  0
   14.7158  -17.1997   22.0589 O   0  0  0  0  0  0  0  0  0  0  0  0
  2  1  1  1
  3  4  1  0
  3  2  1  0
  4  5  2  0
  5  6  1  0
  7  6  1  0
  8  7  2  0
  9  8  1  0
 10 11  1  0
 10  9  2  0
 11 12  2  0
 12  4  1  0
 12  7  1  0
 13  2  1  0
 13 14  2  0
 15 13  1  0
 16 15  1  0
 16 17  1  6
 18 17  1  0
 18 22  1  0
 19 18  2  0
 20 16  1  0
 21 20  2  0
 24 23  1  0
 25 24  1  1
 25 27  1  0
 25 26  1  0
 26 20  1  0
 27 29  1  0
 28 27  2  0
M  END
$$$$
