WDS.pdb
     RDKit          3D

 29 30  0  0  1  0  0  0  0  0999 V2000
    7.9787  -18.2534   20.5997 N   0  0  0  0  0  0  0  0  0  0  0  0
    9.2264  -17.5022   20.8822 C   0  0  1  0  0  0  0  0  0  0  0  0
    8.8070  -16.3501   21.7300 C   0  0  0  0  0  0  0  0  0  0  0  0
    7.9289  -15.3515   21.1086 C   0  0  0  0  0  0  0  0  0  0  0  0
    6.5421  -15.2556   21.2288 C   0  0  0  0  0  0  0  0  0  0  0  0
    6.1576  -14.2369   20.4820 N   0  0  0  0  0  0  0  0  0  0  0  0
    7.1771  -13.6377   19.8677 C   0  0  0  0  0  0  0  0  0  0  0  0
    7.2808  -12.5526   19.0184 C   0  0  0  0  0  0  0  0  0  0  0  0
    8.5092  -12.1565   18.5542 C   0  0  0  0  0  0  0  0  0  0  0  0
    9.6541  -12.8247   18.9209 C   0  0  0  0  0  0  0  0  0  0  0  0
    9.5398  -13.8946   19.7590 C   0  0  0  0  0  0  0  0  0  0  0  0
    8.3195  -14.3445   20.2626 C   0  0  0  0  0  0  0  0  0  0  0  0
   10.2310  -18.3312   21.5566 C   0  0  0  0  0  0  0  0  0  0  0  0
    9.8127  -19.1186   22.4482 O   0  0  0  0  0  0  0  0  0  0  0  0
   11.6258  -18.3262   21.2974 N   0  0  0  0  0  0  0  0  0  0  0  0
   12.5935  -19.0774   22.0421 C   0  0  1  0  0  0  0  0  0  0  0  0
   13.9657  -18.9681   21.4583 C   0  0  0  0  0  0  0  0  0  0  0  0
   14.2171  -17.6869   20.7663 C   0  0  0  0  0  0  0  0  0  0  0  0
   13.4283  -16.7407   20.6531 O   0  0  0  0  0  0  0  0  0  0  0  0
   12.6141  -18.6655   23.4911 C   0  0  0  0  0  0  0  0  0  0  0  0
   13.0329  -17.5602   23.8657 O   0  0  0  0  0  0  0  0  0  0  0  0
   15.4870  -17.5488   20.1846 O   0  0  0  0  0  0  0  0  0  0  0  0
   10.5037  -20.9207   26.2082 O   0  0  0  0  0  0  0  0  0  0  0  0
   10.8383  -19.6017   26.5708 C   0  0  0  0  0  0  0  0  0  0  0  0
   12.1329  -19.2706   25.8844 C   0  0  2  0  0  0  0  0  0  0  0  0
   12.1409  -19.5597   24.4891 N   0  0  0  0  0  0  0  0  0  0  0  0
   13.2920  -19.9006   26.5284 C   0  0  0  0  0  0  0  0  0  0  0  0
   13.5367  -19.6621   27.7338 O   0  0  0  0  0  0  0  0  0  0  0  0
   14.1440  -20.7626   25.8529 O   0  0  0  0  0  0  0  0  0  0  0  0
  2  1  1  1
  3  4  1  0
  3  2  1  0
  4  5  2  0
  5  6  1  0
  7  6  1  0
  8  7  2  0
  9  8  1  0
 10 11  1  0
 10  9  2  0
 11 12  2  0
 12  4  1  0
 12  7  1  0
 13  2  1  0
 13 14  2  0
 15 13  1  0
 16 15  1  0
 16 17  1  6
 18 17  1  0
 18 22  1  0
 19 18  2  0
 20 16  1  0
 21 20  2  0
 24 23  1  0
 25 24  1  1
 25 27  1  0
 25 26  1  0
 26 20  1  0
 27 29  1  0
 28 27  2  0
M  END
$$$$
