WDS.pdb
     RDKit          3D

 29 30  0  0  1  0  0  0  0  0999 V2000
    6.4509  -17.8052   24.1986 N   0  0  0  0  0  0  0  0  0  0  0  0
    7.3714  -16.6813   23.8976 C   0  0  1  0  0  0  0  0  0  0  0  0
    7.7593  -16.1257   25.2253 C   0  0  0  0  0  0  0  0  0  0  0  0
    6.9547  -15.0119   25.7413 C   0  0  0  0  0  0  0  0  0  0  0  0
    5.6845  -15.0827   26.3142 C   0  0  0  0  0  0  0  0  0  0  0  0
    5.3214  -13.8473   26.6066 N   0  0  0  0  0  0  0  0  0  0  0  0
    6.2481  -12.9486   26.2760 C   0  0  0  0  0  0  0  0  0  0  0  0
    6.3358  -11.5745   26.3927 C   0  0  0  0  0  0  0  0  0  0  0  0
    7.4609  -10.9175   25.9639 C   0  0  0  0  0  0  0  0  0  0  0  0
    8.5167  -11.6060   25.4135 C   0  0  0  0  0  0  0  0  0  0  0  0
    8.4190  -12.9619   25.3026 C   0  0  0  0  0  0  0  0  0  0  0  0
    7.3014  -13.6846   25.7197 C   0  0  0  0  0  0  0  0  0  0  0  0
    8.5437  -17.1162   23.1309 C   0  0  0  0  0  0  0  0  0  0  0  0
    8.9285  -18.3042   23.3054 O   0  0  0  0  0  0  0  0  0  0  0  0
    9.2814  -16.3230   22.2148 N   0  0  0  0  0  0  0  0  0  0  0  0
   10.5495  -16.6927   21.6573 C   0  0  1  0  0  0  0  0  0  0  0  0
   10.9701  -15.7773   20.5524 C   0  0  0  0  0  0  0  0  0  0  0  0
   12.2176  -16.1932   19.8783 C   0  0  0  0  0  0  0  0  0  0  0  0
   12.9361  -17.1539   20.1800 O   0  0  0  0  0  0  0  0  0  0  0  0
   11.6203  -16.7513   22.7155 C   0  0  0  0  0  0  0  0  0  0  0  0
   12.1711  -15.7358   23.1658 O   0  0  0  0  0  0  0  0  0  0  0  0
   12.6104  -15.4045   18.7855 O   0  0  0  0  0  0  0  0  0  0  0  0
   12.4727  -20.4403   24.3937 O   0  0  0  0  0  0  0  0  0  0  0  0
   12.7424  -19.3122   25.1923 C   0  0  0  0  0  0  0  0  0  0  0  0
   13.0130  -18.1661   24.2596 C   0  0  2  0  0  0  0  0  0  0  0  0
   12.0347  -18.0072   23.2358 N   0  0  0  0  0  0  0  0  0  0  0  0
   14.3520  -18.2278   23.6611 C   0  0  0  0  0  0  0  0  0  0  0  0
   14.4726  -18.2585   22.4143 O   0  0  0  0  0  0  0  0  0  0  0  0
   15.5103  -18.2543   24.4246 O   0  0  0  0  0  0  0  0  0  0  0  0
  2  1  1  1
  3  4  1  0
  3  2  1  0
  4  5  2  0
  5  6  1  0
  7  6  1  0
  8  7  2  0
  9  8  1  0
 10 11  1  0
 10  9  2  0
 11 12  2  0
 12  4  1  0
 12  7  1  0
 13  2  1  0
 13 14  2  0
 15 13  1  0
 16 15  1  0
 16 17  1  6
 18 17  1  0
 18 22  1  0
 19 18  2  0
 20 16  1  0
 21 20  2  0
 24 23  1  0
 25 24  1  6
 25 27  1  0
 25 26  1  0
 26 20  1  0
 27 29  1  0
 28 27  2  0
M  END
$$$$
