WDS.pdb
     RDKit          3D

 29 30  0  0  1  0  0  0  0  0999 V2000
    6.7504  -17.0218   23.2248 N   0  0  0  0  0  0  0  0  0  0  0  0
    8.0297  -16.2736   23.2922 C   0  0  1  0  0  0  0  0  0  0  0  0
    8.2301  -15.9689   24.7376 C   0  0  0  0  0  0  0  0  0  0  0  0
    7.2854  -15.0321   25.3574 C   0  0  0  0  0  0  0  0  0  0  0  0
    6.1204  -15.3475   26.0573 C   0  0  0  0  0  0  0  0  0  0  0  0
    5.5595  -14.2059   26.4114 N   0  0  0  0  0  0  0  0  0  0  0  0
    6.2556  -13.1447   26.0052 C   0  0  0  0  0  0  0  0  0  0  0  0
    6.0891  -11.7797   26.1408 C   0  0  0  0  0  0  0  0  0  0  0  0
    7.0149  -10.9171   25.6114 C   0  0  0  0  0  0  0  0  0  0  0  0
    8.1192  -11.3881   24.9402 C   0  0  0  0  0  0  0  0  0  0  0  0
    8.2731  -12.7373   24.8119 C   0  0  0  0  0  0  0  0  0  0  0  0
    7.3660  -13.6628   25.3275 C   0  0  0  0  0  0  0  0  0  0  0  0
    9.1507  -17.0432   22.7423 C   0  0  0  0  0  0  0  0  0  0  0  0
    9.2264  -18.2562   23.0779 O   0  0  0  0  0  0  0  0  0  0  0  0
   10.1541  -16.5470   21.8707 N   0  0  0  0  0  0  0  0  0  0  0  0
   11.4993  -17.0397   21.8160 C   0  0  1  0  0  0  0  0  0  0  0  0
   12.3288  -16.3095   20.8088 C   0  0  0  0  0  0  0  0  0  0  0  0
   11.8766  -16.5008   19.4151 C   0  0  0  0  0  0  0  0  0  0  0  0
   11.3614  -17.5194   18.9382 O   0  0  0  0  0  0  0  0  0  0  0  0
   12.1614  -16.9846   23.1682 C   0  0  0  0  0  0  0  0  0  0  0  0
   12.7498  -15.9753   23.5835 O   0  0  0  0  0  0  0  0  0  0  0  0
   12.0587  -15.4023   18.5604 O   0  0  0  0  0  0  0  0  0  0  0  0
   11.1588  -19.6439   26.1914 O   0  0  0  0  0  0  0  0  0  0  0  0
   11.8055  -18.4176   26.4387 C   0  0  0  0  0  0  0  0  0  0  0  0
   12.7550  -18.1821   25.2987 C   0  0  2  0  0  0  0  0  0  0  0  0
   12.1255  -18.1201   24.0219 N   0  0  0  0  0  0  0  0  0  0  0  0
   13.8513  -19.1578   25.2647 C   0  0  0  0  0  0  0  0  0  0  0  0
   14.0102  -19.8760   24.2504 O   0  0  0  0  0  0  0  0  0  0  0  0
   14.7348  -19.3250   26.3214 O   0  0  0  0  0  0  0  0  0  0  0  0
  2  1  1  1
  3  4  1  0
  3  2  1  0
  4  5  2  0
  5  6  1  0
  7  6  1  0
  8  7  2  0
  9  8  1  0
 10 11  1  0
 10  9  2  0
 11 12  2  0
 12  4  1  0
 12  7  1  0
 13  2  1  0
 13 14  2  0
 15 13  1  0
 16 15  1  0
 16 17  1  6
 18 17  1  0
 18 22  1  0
 19 18  2  0
 20 16  1  0
 21 20  2  0
 24 23  1  0
 25 24  1  1
 25 27  1  0
 25 26  1  0
 26 20  1  0
 27 29  1  0
 28 27  2  0
M  END
$$$$
