WDS.pdb
     RDKit          3D

 29 30  0  0  1  0  0  0  0  0999 V2000
    7.4620  -17.7027   24.5528 N   0  0  0  0  0  0  0  0  0  0  0  0
    8.1649  -16.6586   23.7675 C   0  0  1  0  0  0  0  0  0  0  0  0
    8.4825  -15.5795   24.7455 C   0  0  0  0  0  0  0  0  0  0  0  0
    7.3463  -14.9100   25.3898 C   0  0  0  0  0  0  0  0  0  0  0  0
    6.1417  -15.4891   25.7901 C   0  0  0  0  0  0  0  0  0  0  0  0
    5.3945  -14.5229   26.2917 N   0  0  0  0  0  0  0  0  0  0  0  0
    6.0016  -13.3370   26.2615 C   0  0  0  0  0  0  0  0  0  0  0  0
    5.6448  -12.0666   26.6716 C   0  0  0  0  0  0  0  0  0  0  0  0
    6.5203  -11.0221   26.5177 C   0  0  0  0  0  0  0  0  0  0  0  0
    7.7612  -11.2149   25.9568 C   0  0  0  0  0  0  0  0  0  0  0  0
    8.1025  -12.4728   25.5549 C   0  0  0  0  0  0  0  0  0  0  0  0
    7.2554  -13.5731   25.6847 C   0  0  0  0  0  0  0  0  0  0  0  0
    9.3760  -17.1741   23.1204 C   0  0  0  0  0  0  0  0  0  0  0  0
    9.9904  -18.0989   23.7182 O   0  0  0  0  0  0  0  0  0  0  0  0
    9.9168  -16.7270   21.8874 N   0  0  0  0  0  0  0  0  0  0  0  0
   11.1582  -17.1808   21.3321 C   0  0  1  0  0  0  0  0  0  0  0  0
   11.2250  -16.9751   19.8526 C   0  0  0  0  0  0  0  0  0  0  0  0
   10.1483  -17.6604   19.1078 C   0  0  0  0  0  0  0  0  0  0  0  0
    9.7621  -18.8244   19.2703 O   0  0  0  0  0  0  0  0  0  0  0  0
   12.3351  -16.5180   21.9995 C   0  0  0  0  0  0  0  0  0  0  0  0
   12.4418  -15.2865   22.0966 O   0  0  0  0  0  0  0  0  0  0  0  0
    9.5104  -16.8950   18.1190 O   0  0  0  0  0  0  0  0  0  0  0  0
   14.4147  -18.8737   24.2958 O   0  0  0  0  0  0  0  0  0  0  0  0
   14.8803  -17.5568   24.4758 C   0  0  0  0  0  0  0  0  0  0  0  0
   14.5046  -16.7840   23.2436 C   0  0  2  0  0  0  0  0  0  0  0  0
   13.3785  -17.3117   22.5480 N   0  0  0  0  0  0  0  0  0  0  0  0
   15.6291  -16.6190   22.3144 C   0  0  0  0  0  0  0  0  0  0  0  0
   15.5153  -17.0077   21.1287 O   0  0  0  0  0  0  0  0  0  0  0  0
   16.8329  -16.0430   22.6944 O   0  0  0  0  0  0  0  0  0  0  0  0
  2  1  1  1
  3  4  1  0
  3  2  1  0
  4  5  2  0
  5  6  1  0
  7  6  1  0
  8  7  2  0
  9  8  1  0
 10 11  1  0
 10  9  2  0
 11 12  2  0
 12  4  1  0
 12  7  1  0
 13  2  1  0
 13 14  2  0
 15 13  1  0
 16 15  1  0
 16 17  1  6
 18 17  1  0
 18 22  1  0
 19 18  2  0
 20 16  1  0
 21 20  2  0
 24 23  1  0
 25 24  1  1
 25 27  1  0
 25 26  1  0
 26 20  1  0
 27 29  1  0
 28 27  2  0
M  END
$$$$
