WDS.pdb
     RDKit          3D

 29 30  0  0  1  0  0  0  0  0999 V2000
    6.7403  -18.3239   23.9054 N   0  0  0  0  0  0  0  0  0  0  0  0
    7.6999  -17.1989   23.7852 C   0  0  1  0  0  0  0  0  0  0  0  0
    7.9114  -16.7133   25.1786 C   0  0  0  0  0  0  0  0  0  0  0  0
    7.0073  -15.6628   25.6616 C   0  0  0  0  0  0  0  0  0  0  0  0
    5.7003  -15.8208   26.1238 C   0  0  0  0  0  0  0  0  0  0  0  0
    5.2472  -14.6177   26.4249 N   0  0  0  0  0  0  0  0  0  0  0  0
    6.1469  -13.6603   26.2021 C   0  0  0  0  0  0  0  0  0  0  0  0
    6.1490  -12.2887   26.3702 C   0  0  0  0  0  0  0  0  0  0  0  0
    7.2675  -11.5585   26.0584 C   0  0  0  0  0  0  0  0  0  0  0  0
    8.4009  -12.1702   25.5759 C   0  0  0  0  0  0  0  0  0  0  0  0
    8.3874  -13.5243   25.4133 C   0  0  0  0  0  0  0  0  0  0  0  0
    7.2810  -14.3193   25.7120 C   0  0  0  0  0  0  0  0  0  0  0  0
    8.9610  -17.6113   23.1600 C   0  0  0  0  0  0  0  0  0  0  0  0
    9.4050  -18.7493   23.4725 O   0  0  0  0  0  0  0  0  0  0  0  0
    9.7236  -16.8474   22.2394 N   0  0  0  0  0  0  0  0  0  0  0  0
   11.0433  -17.1897   21.7962 C   0  0  1  0  0  0  0  0  0  0  0  0
   11.4780  -16.3674   20.6255 C   0  0  0  0  0  0  0  0  0  0  0  0
   12.7951  -16.7577   20.0811 C   0  0  0  0  0  0  0  0  0  0  0  0
   13.4184  -17.7974   20.3277 O   0  0  0  0  0  0  0  0  0  0  0  0
   12.0476  -17.0703   22.9129 C   0  0  0  0  0  0  0  0  0  0  0  0
   13.2008  -16.6520   22.7326 O   0  0  0  0  0  0  0  0  0  0  0  0
   13.3827  -15.8413   19.1949 O   0  0  0  0  0  0  0  0  0  0  0  0
   10.7965  -17.5588   26.8441 O   0  0  0  0  0  0  0  0  0  0  0  0
   12.0126  -16.8901   26.6050 C   0  0  0  0  0  0  0  0  0  0  0  0
   12.5868  -17.4586   25.3386 C   0  0  2  0  0  0  0  0  0  0  0  0
   11.6855  -17.4451   24.2350 N   0  0  0  0  0  0  0  0  0  0  0  0
   13.1287  -18.8108   25.5201 C   0  0  0  0  0  0  0  0  0  0  0  0
   14.0032  -19.0157   26.3937 O   0  0  0  0  0  0  0  0  0  0  0  0
   12.7108  -19.8911   24.7562 O   0  0  0  0  0  0  0  0  0  0  0  0
  2  1  1  1
  3  4  1  0
  3  2  1  0
  4  5  2  0
  5  6  1  0
  7  6  1  0
  8  7  2  0
  9  8  1  0
 10 11  1  0
 10  9  2  0
 11 12  2  0
 12  4  1  0
 12  7  1  0
 13  2  1  0
 13 14  2  0
 15 13  1  0
 16 15  1  0
 16 17  1  6
 18 17  1  0
 18 22  1  0
 19 18  2  0
 20 16  1  0
 21 20  2  0
 24 23  1  0
 25 24  1  1
 25 27  1  0
 25 26  1  0
 26 20  1  0
 27 29  1  0
 28 27  2  0
M  END
$$$$
