WDS.pdb
     RDKit          3D

 29 30  0  0  1  0  0  0  0  0999 V2000
    6.1598  -18.1040   22.8960 N   0  0  0  0  0  0  0  0  0  0  0  0
    7.0555  -16.9288   23.0281 C   0  0  1  0  0  0  0  0  0  0  0  0
    6.3444  -15.9951   23.9471 C   0  0  0  0  0  0  0  0  0  0  0  0
    6.9432  -14.6694   24.1426 C   0  0  0  0  0  0  0  0  0  0  0  0
    7.8985  -14.0476   23.3379 C   0  0  0  0  0  0  0  0  0  0  0  0
    8.1787  -12.8846   23.8966 N   0  0  0  0  0  0  0  0  0  0  0  0
    7.4864  -12.6730   25.0154 C   0  0  0  0  0  0  0  0  0  0  0  0
    7.4222  -11.6309   25.9205 C   0  0  0  0  0  0  0  0  0  0  0  0
    6.5728  -11.7035   26.9951 C   0  0  0  0  0  0  0  0  0  0  0  0
    5.7736  -12.8052   27.1929 C   0  0  0  0  0  0  0  0  0  0  0  0
    5.8456  -13.8281   26.2936 C   0  0  0  0  0  0  0  0  0  0  0  0
    6.6896  -13.8121   25.1833 C   0  0  0  0  0  0  0  0  0  0  0  0
    8.3770  -17.2958   23.5479 C   0  0  0  0  0  0  0  0  0  0  0  0
    8.4062  -18.1499   24.4750 O   0  0  0  0  0  0  0  0  0  0  0  0
    9.6206  -16.7774   23.1036 N   0  0  0  0  0  0  0  0  0  0  0  0
   10.8950  -17.1425   23.6495 C   0  0  1  0  0  0  0  0  0  0  0  0
   12.0316  -16.6384   22.8191 C   0  0  0  0  0  0  0  0  0  0  0  0
   13.3298  -17.2644   23.1454 C   0  0  0  0  0  0  0  0  0  0  0  0
   13.5394  -18.1243   24.0097 O   0  0  0  0  0  0  0  0  0  0  0  0
   11.0423  -16.6654   25.0709 C   0  0  0  0  0  0  0  0  0  0  0  0
   11.4378  -15.5252   25.3555 O   0  0  0  0  0  0  0  0  0  0  0  0
   14.4251  -16.8249   22.3854 O   0  0  0  0  0  0  0  0  0  0  0  0
    8.8990  -18.2489   28.1547 O   0  0  0  0  0  0  0  0  0  0  0  0
    9.6122  -17.0413   28.2818 C   0  0  0  0  0  0  0  0  0  0  0  0
   10.8980  -17.2066   27.5229 C   0  0  2  0  0  0  0  0  0  0  0  0
   10.7224  -17.5360   26.1477 N   0  0  0  0  0  0  0  0  0  0  0  0
   11.8064  -18.1727   28.1525 C   0  0  0  0  0  0  0  0  0  0  0  0
   12.1887  -19.1758   27.5062 O   0  0  0  0  0  0  0  0  0  0  0  0
   12.2692  -18.0247   29.4521 O   0  0  0  0  0  0  0  0  0  0  0  0
  2  1  1  1
  3  4  1  0
  3  2  1  0
  4  5  2  0
  5  6  1  0
  7  6  1  0
  8  7  2  0
  9  8  1  0
 10 11  1  0
 10  9  2  0
 11 12  2  0
 12  4  1  0
 12  7  1  0
 13  2  1  0
 13 14  2  0
 15 13  1  0
 16 15  1  0
 16 17  1  6
 18 17  1  0
 18 22  1  0
 19 18  2  0
 20 16  1  0
 21 20  2  0
 24 23  1  0
 25 24  1  1
 25 27  1  0
 25 26  1  0
 26 20  1  0
 27 29  1  0
 28 27  2  0
M  END
$$$$
