WDS.pdb
     RDKit          3D

 29 30  0  0  1  0  0  0  0  0999 V2000
    6.5704  -18.4015   23.6671 N   0  0  0  0  0  0  0  0  0  0  0  0
    7.4554  -17.2115   23.7072 C   0  0  1  0  0  0  0  0  0  0  0  0
    7.5216  -16.8202   25.1440 C   0  0  0  0  0  0  0  0  0  0  0  0
    6.7211  -15.6607   25.5554 C   0  0  0  0  0  0  0  0  0  0  0  0
    5.3776  -15.6533   25.9317 C   0  0  0  0  0  0  0  0  0  0  0  0
    5.0540  -14.3995   26.1899 N   0  0  0  0  0  0  0  0  0  0  0  0
    6.0748  -13.5605   26.0176 C   0  0  0  0  0  0  0  0  0  0  0  0
    6.2310  -12.1962   26.1716 C   0  0  0  0  0  0  0  0  0  0  0  0
    7.4470  -11.6104   25.9272 C   0  0  0  0  0  0  0  0  0  0  0  0
    8.5274  -12.3617   25.5271 C   0  0  0  0  0  0  0  0  0  0  0  0
    8.3616  -13.7072   25.3776 C   0  0  0  0  0  0  0  0  0  0  0  0
    7.1506  -14.3589   25.6104 C   0  0  0  0  0  0  0  0  0  0  0  0
    8.7878  -17.4939   23.1627 C   0  0  0  0  0  0  0  0  0  0  0  0
    9.2263  -18.6666   23.3126 O   0  0  0  0  0  0  0  0  0  0  0  0
    9.6245  -16.5696   22.4860 N   0  0  0  0  0  0  0  0  0  0  0  0
   10.9549  -16.8566   22.0352 C   0  0  1  0  0  0  0  0  0  0  0  0
   11.3984  -15.9259   20.9523 C   0  0  0  0  0  0  0  0  0  0  0  0
   10.8291  -16.2426   19.6260 C   0  0  0  0  0  0  0  0  0  0  0  0
   10.2837  -17.3006   19.2891 O   0  0  0  0  0  0  0  0  0  0  0  0
   11.9401  -16.8303   23.1747 C   0  0  0  0  0  0  0  0  0  0  0  0
   13.1658  -16.8978   22.9999 O   0  0  0  0  0  0  0  0  0  0  0  0
   10.9268  -15.2256   18.6635 O   0  0  0  0  0  0  0  0  0  0  0  0
   10.4967  -16.4541   27.0998 O   0  0  0  0  0  0  0  0  0  0  0  0
   11.7895  -15.9667   26.8275 C   0  0  0  0  0  0  0  0  0  0  0  0
   12.3190  -16.7493   25.6597 C   0  0  2  0  0  0  0  0  0  0  0  0
   11.4737  -16.7245   24.5129 N   0  0  0  0  0  0  0  0  0  0  0  0
   12.6410  -18.1384   26.0088 C   0  0  0  0  0  0  0  0  0  0  0  0
   13.4985  -18.3725   26.8918 O   0  0  0  0  0  0  0  0  0  0  0  0
   12.0298  -19.2228   25.3959 O   0  0  0  0  0  0  0  0  0  0  0  0
  2  1  1  1
  3  4  1  0
  3  2  1  0
  4  5  2  0
  5  6  1  0
  7  6  1  0
  8  7  2  0
  9  8  1  0
 10 11  1  0
 10  9  2  0
 11 12  2  0
 12  4  1  0
 12  7  1  0
 13  2  1  0
 13 14  2  0
 15 13  1  0
 16 15  1  0
 16 17  1  6
 18 17  1  0
 18 22  1  0
 19 18  2  0
 20 16  1  0
 21 20  2  0
 24 23  1  0
 25 24  1  1
 25 27  1  0
 25 26  1  0
 26 20  1  0
 27 29  1  0
 28 27  2  0
M  END
$$$$
