WDS.pdb
     RDKit          3D

 29 30  0  0  1  0  0  0  0  0999 V2000
    6.5593  -17.4593   23.9579 N   0  0  0  0  0  0  0  0  0  0  0  0
    7.5088  -16.4366   23.4545 C   0  0  1  0  0  0  0  0  0  0  0  0
    8.0872  -15.8044   24.6743 C   0  0  0  0  0  0  0  0  0  0  0  0
    7.1914  -14.9622   25.4758 C   0  0  0  0  0  0  0  0  0  0  0  0
    6.1147  -15.3810   26.2582 C   0  0  0  0  0  0  0  0  0  0  0  0
    5.5674  -14.2972   26.7770 N   0  0  0  0  0  0  0  0  0  0  0  0
    6.1914  -13.1798   26.4060 C   0  0  0  0  0  0  0  0  0  0  0  0
    6.0078  -11.8398   26.6894 C   0  0  0  0  0  0  0  0  0  0  0  0
    6.8517  -10.9007   26.1535 C   0  0  0  0  0  0  0  0  0  0  0  0
    7.8897  -11.2692   25.3297 C   0  0  0  0  0  0  0  0  0  0  0  0
    8.0611  -12.5943   25.0562 C   0  0  0  0  0  0  0  0  0  0  0  0
    7.2358  -13.5942   25.5705 C   0  0  0  0  0  0  0  0  0  0  0  0
    8.5509  -17.0200   22.6031 C   0  0  0  0  0  0  0  0  0  0  0  0
    8.9612  -18.1709   22.9146 O   0  0  0  0  0  0  0  0  0  0  0  0
    9.1369  -16.4079   21.4653 N   0  0  0  0  0  0  0  0  0  0  0  0
   10.3331  -16.8661   20.8215 C   0  0  1  0  0  0  0  0  0  0  0  0
   10.5305  -16.2361   19.4800 C   0  0  0  0  0  0  0  0  0  0  0  0
    9.5562  -16.6843   18.4635 C   0  0  0  0  0  0  0  0  0  0  0  0
    9.1217  -17.8326   18.3115 O   0  0  0  0  0  0  0  0  0  0  0  0
   11.5462  -16.6346   21.6845 C   0  0  0  0  0  0  0  0  0  0  0  0
   11.7506  -15.5647   22.2768 O   0  0  0  0  0  0  0  0  0  0  0  0
    9.0873  -15.6902   17.5904 O   0  0  0  0  0  0  0  0  0  0  0  0
   13.1824  -19.0809   24.2879 O   0  0  0  0  0  0  0  0  0  0  0  0
   14.1374  -18.8014   23.2913 C   0  0  0  0  0  0  0  0  0  0  0  0
   13.7050  -17.5349   22.6091 C   0  0  2  0  0  0  0  0  0  0  0  0
   12.5105  -17.6664   21.8433 N   0  0  0  0  0  0  0  0  0  0  0  0
   14.7646  -16.9492   21.7789 C   0  0  0  0  0  0  0  0  0  0  0  0
   14.5614  -16.7605   20.5570 O   0  0  0  0  0  0  0  0  0  0  0  0
   16.0020  -16.5887   22.2929 O   0  0  0  0  0  0  0  0  0  0  0  0
  2  1  1  1
  3  4  1  0
  3  2  1  0
  4  5  2  0
  5  6  1  0
  7  6  1  0
  8  7  2  0
  9  8  1  0
 10 11  1  0
 10  9  2  0
 11 12  2  0
 12  4  1  0
 12  7  1  0
 13  2  1  0
 13 14  2  0
 15 13  1  0
 16 15  1  0
 16 17  1  6
 18 17  1  0
 18 22  1  0
 19 18  2  0
 20 16  1  0
 21 20  2  0
 24 23  1  0
 25 24  1  6
 25 27  1  0
 25 26  1  0
 26 20  1  0
 27 29  1  0
 28 27  2  0
M  END
$$$$
