WDS.pdb
     RDKit          3D

 29 30  0  0  1  0  0  0  0  0999 V2000
    6.8611  -17.9777   24.2774 N   0  0  0  0  0  0  0  0  0  0  0  0
    7.6288  -16.9253   23.5673 C   0  0  1  0  0  0  0  0  0  0  0  0
    8.2053  -16.0680   24.6418 C   0  0  0  0  0  0  0  0  0  0  0  0
    7.2674  -15.2334   25.4022 C   0  0  0  0  0  0  0  0  0  0  0  0
    6.1745  -15.6634   26.1554 C   0  0  0  0  0  0  0  0  0  0  0  0
    5.5893  -14.5841   26.6411 N   0  0  0  0  0  0  0  0  0  0  0  0
    6.2027  -13.4593   26.2745 C   0  0  0  0  0  0  0  0  0  0  0  0
    5.9834  -12.1197   26.5331 C   0  0  0  0  0  0  0  0  0  0  0  0
    6.8255  -11.1709   26.0113 C   0  0  0  0  0  0  0  0  0  0  0  0
    7.8967  -11.5293   25.2266 C   0  0  0  0  0  0  0  0  0  0  0  0
    8.1031  -12.8543   24.9774 C   0  0  0  0  0  0  0  0  0  0  0  0
    7.2816  -13.8636   25.4790 C   0  0  0  0  0  0  0  0  0  0  0  0
    8.6745  -17.4885   22.7067 C   0  0  0  0  0  0  0  0  0  0  0  0
    9.2159  -18.5587   23.0959 O   0  0  0  0  0  0  0  0  0  0  0  0
    9.1304  -16.9389   21.4808 N   0  0  0  0  0  0  0  0  0  0  0  0
   10.2623  -17.4213   20.7450 C   0  0  1  0  0  0  0  0  0  0  0  0
   10.3311  -16.8414   19.3685 C   0  0  0  0  0  0  0  0  0  0  0  0
   11.4432  -17.3738   18.5540 C   0  0  0  0  0  0  0  0  0  0  0  0
   12.2353  -18.2671   18.8781 O   0  0  0  0  0  0  0  0  0  0  0  0
   11.5503  -17.1588   21.4812 C   0  0  0  0  0  0  0  0  0  0  0  0
   12.6625  -17.3990   20.9885 O   0  0  0  0  0  0  0  0  0  0  0  0
   11.6002  -16.7934   17.2856 O   0  0  0  0  0  0  0  0  0  0  0  0
   11.4026  -16.5798   25.5879 O   0  0  0  0  0  0  0  0  0  0  0  0
   12.3817  -15.7993   24.9434 C   0  0  0  0  0  0  0  0  0  0  0  0
   12.6669  -16.4532   23.6214 C   0  0  2  0  0  0  0  0  0  0  0  0
   11.5184  -16.6148   22.7937 N   0  0  0  0  0  0  0  0  0  0  0  0
   13.3607  -17.7390   23.7642 C   0  0  0  0  0  0  0  0  0  0  0  0
   14.4744  -17.7820   24.3366 O   0  0  0  0  0  0  0  0  0  0  0  0
   12.8317  -18.9295   23.2864 O   0  0  0  0  0  0  0  0  0  0  0  0
  2  1  1  1
  3  4  1  0
  3  2  1  0
  4  5  2  0
  5  6  1  0
  7  6  1  0
  8  7  2  0
  9  8  1  0
 10 11  1  0
 10  9  2  0
 11 12  2  0
 12  4  1  0
 12  7  1  0
 13  2  1  0
 13 14  2  0
 15 13  1  0
 16 15  1  0
 16 17  1  6
 18 17  1  0
 18 22  1  0
 19 18  2  0
 20 16  1  0
 21 20  2  0
 24 23  1  0
 25 24  1  1
 25 27  1  0
 25 26  1  0
 26 20  1  0
 27 29  1  0
 28 27  2  0
M  END
$$$$
