WDS.pdb
     RDKit          3D

 29 30  0  0  1  0  0  0  0  0999 V2000
    6.5561  -17.8410   23.9653 N   0  0  0  0  0  0  0  0  0  0  0  0
    7.4031  -17.0056   23.0789 C   0  0  1  0  0  0  0  0  0  0  0  0
    6.8716  -15.6201   23.2205 C   0  0  0  0  0  0  0  0  0  0  0  0
    6.6903  -15.1134   24.5860 C   0  0  0  0  0  0  0  0  0  0  0  0
    6.2054  -15.8159   25.6896 C   0  0  0  0  0  0  0  0  0  0  0  0
    6.1766  -14.9720   26.7047 N   0  0  0  0  0  0  0  0  0  0  0  0
    6.6049  -13.7548   26.3719 C   0  0  0  0  0  0  0  0  0  0  0  0
    6.7694  -12.5727   27.0683 C   0  0  0  0  0  0  0  0  0  0  0  0
    7.2636  -11.4622   26.4327 C   0  0  0  0  0  0  0  0  0  0  0  0
    7.6030  -11.5009   25.1004 C   0  0  0  0  0  0  0  0  0  0  0  0
    7.4358  -12.6727   24.4228 C   0  0  0  0  0  0  0  0  0  0  0  0
    6.9376  -13.8335   25.0141 C   0  0  0  0  0  0  0  0  0  0  0  0
    8.8228  -17.0787   23.4400 C   0  0  0  0  0  0  0  0  0  0  0  0
    9.1608  -17.9979   24.2342 O   0  0  0  0  0  0  0  0  0  0  0  0
    9.8458  -16.2110   22.9785 N   0  0  0  0  0  0  0  0  0  0  0  0
   11.1948  -16.6154   22.7101 C   0  0  1  0  0  0  0  0  0  0  0  0
   11.7073  -16.0563   21.4215 C   0  0  0  0  0  0  0  0  0  0  0  0
   13.0656  -16.5204   21.0705 C   0  0  0  0  0  0  0  0  0  0  0  0
   13.5315  -17.6512   21.2564 O   0  0  0  0  0  0  0  0  0  0  0  0
   12.1177  -16.2391   23.8399 C   0  0  0  0  0  0  0  0  0  0  0  0
   13.3446  -16.4097   23.7856 O   0  0  0  0  0  0  0  0  0  0  0  0
   13.8971  -15.5654   20.4647 O   0  0  0  0  0  0  0  0  0  0  0  0
   10.0261  -15.7396   27.9183 O   0  0  0  0  0  0  0  0  0  0  0  0
   10.2872  -16.6398   26.8673 C   0  0  0  0  0  0  0  0  0  0  0  0
   11.6356  -16.2856   26.3079 C   0  0  2  0  0  0  0  0  0  0  0  0
   11.5877  -15.6641   25.0266 N   0  0  0  0  0  0  0  0  0  0  0  0
   12.5512  -17.4325   26.2693 C   0  0  0  0  0  0  0  0  0  0  0  0
   12.4570  -18.2695   25.3417 O   0  0  0  0  0  0  0  0  0  0  0  0
   13.5328  -17.6365   27.2285 O   0  0  0  0  0  0  0  0  0  0  0  0
  2  1  1  1
  3  4  1  0
  3  2  1  0
  4  5  2  0
  5  6  1  0
  7  6  1  0
  8  7  2  0
  9  8  1  0
 10 11  1  0
 10  9  2  0
 11 12  2  0
 12  4  1  0
 12  7  1  0
 13  2  1  0
 13 14  2  0
 15 13  1  0
 16 15  1  0
 16 17  1  6
 18 17  1  0
 18 22  1  0
 19 18  2  0
 20 16  1  0
 21 20  2  0
 24 23  1  0
 25 24  1  6
 25 27  1  0
 25 26  1  0
 26 20  1  0
 27 29  1  0
 28 27  2  0
M  END
$$$$
