VPK.pdb
     RDKit          3D

 24 24  0  0  1  0  0  0  0  0999 V2000
   28.9825  -28.1901  -18.0254 C   0  0  0  0  0  0  0  0  0  0  0  0
   28.5346  -26.8537  -17.4855 C   0  0  2  0  0  0  0  0  0  0  0  0
   27.5141  -26.2560  -18.4388 C   0  0  0  0  0  0  0  0  0  0  0  0
   29.6823  -25.9114  -17.2055 C   0  0  2  0  0  0  0  0  0  0  0  0
   30.5462  -26.5874  -16.2644 N   0  0  0  0  0  0  0  0  0  0  0  0
   29.2918  -24.5818  -16.7702 C   0  0  0  0  0  0  0  0  0  0  0  0
   29.0480  -24.4456  -15.5207 O   0  0  0  0  0  0  0  0  0  0  0  0
   29.1619  -23.4527  -17.5997 N   0  0  0  0  0  0  0  0  0  0  0  0
   29.4819  -23.4882  -19.0225 C   0  0  0  0  0  0  0  0  0  0  0  0
   30.1724  -22.1510  -19.1952 C   0  0  0  0  0  0  0  0  0  0  0  0
   29.3125  -21.2260  -18.3737 C   0  0  0  0  0  0  0  0  0  0  0  0
   28.7503  -22.1385  -17.2586 C   0  0  1  0  0  0  0  0  0  0  0  0
   27.3063  -21.8795  -17.1699 C   0  0  0  0  0  0  0  0  0  0  0  0
   26.4813  -22.5519  -17.8928 O   0  0  0  0  0  0  0  0  0  0  0  0
   26.6663  -20.9236  -16.3330 N   0  0  0  0  0  0  0  0  0  0  0  0
   25.2126  -20.8032  -16.2889 C   0  0  1  0  0  0  0  0  0  0  0  0
   24.7099  -20.5407  -14.9111 C   0  0  0  0  0  0  0  0  0  0  0  0
   23.2072  -20.5903  -14.8952 C   0  0  0  0  0  0  0  0  0  0  0  0
   22.6280  -20.2908  -13.5211 C   0  0  0  0  0  0  0  0  0  0  0  0
   21.1159  -20.4493  -13.5382 C   0  0  0  0  0  0  0  0  0  0  0  0
   20.6152  -20.1727  -12.1905 N   0  0  0  0  0  0  0  0  0  0  0  0
   24.6181  -19.9799  -17.3076 C   0  0  0  0  0  0  0  0  0  0  0  0
   25.2210  -19.0488  -18.1240 O   0  0  0  0  0  0  0  0  0  0  0  0
   23.3514  -20.1132  -17.5006 O   0  0  0  0  0  0  0  0  0  0  0  0
  2  3  1  6
  2  1  1  0
  4  2  1  0
  4  5  1  1
  6  4  1  0
  7  6  2  0
  8  6  1  0
  9 10  1  0
  9  8  1  0
 10 11  1  0
 12 11  1  0
 12  8  1  0
 12 13  1  6
 14 13  2  0
 15 13  1  0
 16 17  1  1
 16 15  1  0
 18 17  1  0
 19 20  1  0
 19 18  1  0
 20 21  1  0
 22 23  1  0
 22 16  1  0
 24 22  2  0
M  END
$$$$
