VPK.pdb
     RDKit          3D

 24 24  0  0  1  0  0  0  0  0999 V2000
   19.5931  -11.0876  -18.9395 C   0  0  0  0  0  0  0  0  0  0  0  0
   20.8149  -11.9317  -19.2092 C   0  0  2  0  0  0  0  0  0  0  0  0
   20.5337  -12.8377  -20.3956 C   0  0  0  0  0  0  0  0  0  0  0  0
   21.2852  -12.7004  -17.9962 C   0  0  2  0  0  0  0  0  0  0  0  0
   20.3380  -13.7743  -17.8001 N   0  0  0  0  0  0  0  0  0  0  0  0
   21.4938  -11.8971  -16.8042 C   0  0  0  0  0  0  0  0  0  0  0  0
   20.4859  -11.7708  -16.0247 O   0  0  0  0  0  0  0  0  0  0  0  0
   22.6950  -11.2577  -16.4463 N   0  0  0  0  0  0  0  0  0  0  0  0
   23.9490  -11.5009  -17.1507 C   0  0  0  0  0  0  0  0  0  0  0  0
   24.9260  -11.5388  -15.9937 C   0  0  0  0  0  0  0  0  0  0  0  0
   24.4564  -10.3997  -15.1266 C   0  0  0  0  0  0  0  0  0  0  0  0
   22.9348  -10.3342  -15.3962 C   0  0  1  0  0  0  0  0  0  0  0  0
   22.5953   -8.9250  -15.6390 C   0  0  0  0  0  0  0  0  0  0  0  0
   22.2578   -8.5329  -16.8171 O   0  0  0  0  0  0  0  0  0  0  0  0
   22.5895   -7.8765  -14.6775 N   0  0  0  0  0  0  0  0  0  0  0  0
   22.0364   -6.5623  -14.9882 C   0  0  1  0  0  0  0  0  0  0  0  0
   20.7486   -6.6537  -15.7318 C   0  0  0  0  0  0  0  0  0  0  0  0
   20.2564   -5.2753  -16.0767 C   0  0  0  0  0  0  0  0  0  0  0  0
   18.8933   -5.2943  -16.7511 C   0  0  0  0  0  0  0  0  0  0  0  0
   18.5003   -3.8923  -17.1894 C   0  0  0  0  0  0  0  0  0  0  0  0
   17.3164   -3.9992  -18.0441 N   0  0  0  0  0  0  0  0  0  0  0  0
   22.0370   -5.6086  -13.9114 C   0  0  0  0  0  0  0  0  0  0  0  0
   22.1574   -5.8365  -12.5584 O   0  0  0  0  0  0  0  0  0  0  0  0
   21.9084   -4.3673  -14.2306 O   0  0  0  0  0  0  0  0  0  0  0  0
  2  3  1  6
  2  1  1  0
  4  2  1  0
  4  5  1  1
  6  4  1  0
  7  6  2  0
  8  6  1  0
  9 10  1  0
  9  8  1  0
 10 11  1  0
 12 11  1  0
 12  8  1  0
 12 13  1  6
 14 13  2  0
 15 13  1  0
 16 17  1  1
 16 15  1  0
 18 17  1  0
 19 20  1  0
 19 18  1  0
 20 21  1  0
 22 23  1  0
 22 16  1  0
 24 22  2  0
M  END
$$$$
