VPK.pdb
     RDKit          3D

 24 24  0  0  1  0  0  0  0  0999 V2000
   22.3769  -21.8594  -11.0328 C   0  0  0  0  0  0  0  0  0  0  0  0
   23.2364  -20.9586  -11.8861 C   0  0  2  0  0  0  0  0  0  0  0  0
   23.2855  -21.5191  -13.2971 C   0  0  0  0  0  0  0  0  0  0  0  0
   24.6141  -20.7310  -11.3085 C   0  0  2  0  0  0  0  0  0  0  0  0
   24.4201  -20.3323   -9.9328 N   0  0  0  0  0  0  0  0  0  0  0  0
   25.4489  -19.8091  -12.0588 C   0  0  0  0  0  0  0  0  0  0  0  0
   25.2565  -18.5632  -11.8352 O   0  0  0  0  0  0  0  0  0  0  0  0
   26.4339  -20.1719  -12.9958 N   0  0  0  0  0  0  0  0  0  0  0  0
   26.8892  -21.5484  -13.1567 C   0  0  0  0  0  0  0  0  0  0  0  0
   28.3781  -21.3389  -13.3413 C   0  0  0  0  0  0  0  0  0  0  0  0
   28.4332  -20.1412  -14.2536 C   0  0  0  0  0  0  0  0  0  0  0  0
   27.1561  -19.3458  -13.8952 C   0  0  1  0  0  0  0  0  0  0  0  0
   26.5007  -18.9808  -15.1591 C   0  0  0  0  0  0  0  0  0  0  0  0
   26.0168  -19.8937  -15.9259 O   0  0  0  0  0  0  0  0  0  0  0  0
   26.3202  -17.6661  -15.6718 N   0  0  0  0  0  0  0  0  0  0  0  0
   25.5780  -17.4256  -16.9050 C   0  0  1  0  0  0  0  0  0  0  0  0
   24.2110  -16.8928  -16.6458 C   0  0  0  0  0  0  0  0  0  0  0  0
   23.2245  -18.0252  -16.5723 C   0  0  0  0  0  0  0  0  0  0  0  0
   21.7991  -17.5437  -16.3488 C   0  0  0  0  0  0  0  0  0  0  0  0
   20.8523  -18.7281  -16.2357 C   0  0  0  0  0  0  0  0  0  0  0  0
   19.5336  -18.2199  -15.8531 N   0  0  0  0  0  0  0  0  0  0  0  0
   26.2958  -16.7440  -17.9487 C   0  0  0  0  0  0  0  0  0  0  0  0
   27.4152  -17.1573  -18.6366 O   0  0  0  0  0  0  0  0  0  0  0  0
   25.8507  -15.5890  -18.3053 O   0  0  0  0  0  0  0  0  0  0  0  0
  2  3  1  6
  2  1  1  0
  4  2  1  0
  4  5  1  1
  6  4  1  0
  7  6  2  0
  8  6  1  0
  9 10  1  0
  9  8  1  0
 10 11  1  0
 12 11  1  0
 12  8  1  0
 12 13  1  6
 14 13  2  0
 15 13  1  0
 16 17  1  1
 16 15  1  0
 18 17  1  0
 19 20  1  0
 19 18  1  0
 20 21  1  0
 22 23  1  0
 22 16  1  0
 24 22  2  0
M  END
$$$$
