VPK.pdb
     RDKit          3D

 24 24  0  0  1  0  0  0  0  0999 V2000
   19.3413  -13.2466  -19.3772 C   0  0  0  0  0  0  0  0  0  0  0  0
   19.6542  -12.2595  -18.2790 C   0  0  2  0  0  0  0  0  0  0  0  0
   20.5185  -11.1481  -18.8493 C   0  0  0  0  0  0  0  0  0  0  0  0
   20.2740  -12.9035  -17.0606 C   0  0  2  0  0  0  0  0  0  0  0  0
   19.3722  -13.9561  -16.6510 N   0  0  0  0  0  0  0  0  0  0  0  0
   20.6081  -11.9861  -15.9852 C   0  0  0  0  0  0  0  0  0  0  0  0
   19.6244  -11.5385  -15.2986 O   0  0  0  0  0  0  0  0  0  0  0  0
   21.9048  -11.5578  -15.6460 N   0  0  0  0  0  0  0  0  0  0  0  0
   23.1010  -12.1417  -16.2428 C   0  0  0  0  0  0  0  0  0  0  0  0
   24.0162  -12.2163  -15.0380 C   0  0  0  0  0  0  0  0  0  0  0  0
   23.7674  -10.8985  -14.3514 C   0  0  0  0  0  0  0  0  0  0  0  0
   22.3003  -10.5665  -14.7112 C   0  0  1  0  0  0  0  0  0  0  0  0
   22.2657   -9.1646  -15.1510 C   0  0  0  0  0  0  0  0  0  0  0  0
   22.2494   -8.8786  -16.4053 O   0  0  0  0  0  0  0  0  0  0  0  0
   22.2437   -8.0139  -14.3147 N   0  0  0  0  0  0  0  0  0  0  0  0
   22.0328   -6.6783  -14.8635 C   0  0  1  0  0  0  0  0  0  0  0  0
   20.8438   -6.6178  -15.7593 C   0  0  0  0  0  0  0  0  0  0  0  0
   20.6509   -5.2137  -16.2616 C   0  0  0  0  0  0  0  0  0  0  0  0
   19.5242   -5.1072  -17.2778 C   0  0  0  0  0  0  0  0  0  0  0  0
   19.4011   -3.6785  -17.7833 C   0  0  0  0  0  0  0  0  0  0  0  0
   18.2069   -3.5968  -18.6265 N   0  0  0  0  0  0  0  0  0  0  0  0
   22.1302   -5.5906  -13.9273 C   0  0  0  0  0  0  0  0  0  0  0  0
   22.1087   -5.6337  -12.5508 O   0  0  0  0  0  0  0  0  0  0  0  0
   22.2547   -4.4064  -14.4188 O   0  0  0  0  0  0  0  0  0  0  0  0
  2  3  1  6
  2  1  1  0
  4  2  1  0
  4  5  1  1
  6  4  1  0
  7  6  2  0
  8  6  1  0
  9 10  1  0
  9  8  1  0
 10 11  1  0
 12 11  1  0
 12  8  1  0
 12 13  1  6
 14 13  2  0
 15 13  1  0
 16 17  1  1
 16 15  1  0
 18 17  1  0
 19 20  1  0
 19 18  1  0
 20 21  1  0
 22 23  1  0
 22 16  1  0
 24 22  2  0
M  END
$$$$
