VPK.pdb
     RDKit          3D

 24 24  0  0  1  0  0  0  0  0999 V2000
   20.0135  -19.2054  -14.1980 C   0  0  0  0  0  0  0  0  0  0  0  0
   19.9979  -20.1074  -12.9880 C   0  0  2  0  0  0  0  0  0  0  0  0
   19.2221  -19.4234  -11.8755 C   0  0  0  0  0  0  0  0  0  0  0  0
   21.3789  -20.5351  -12.5483 C   0  0  2  0  0  0  0  0  0  0  0  0
   22.0562  -21.0112  -13.7331 N   0  0  0  0  0  0  0  0  0  0  0  0
   21.4058  -21.4881  -11.4524 C   0  0  0  0  0  0  0  0  0  0  0  0
   21.1282  -22.7015  -11.7523 O   0  0  0  0  0  0  0  0  0  0  0  0
   21.7067  -21.1870  -10.1114 N   0  0  0  0  0  0  0  0  0  0  0  0
   22.1386  -19.8598   -9.6870 C   0  0  0  0  0  0  0  0  0  0  0  0
   23.2159  -20.2154   -8.6831 C   0  0  0  0  0  0  0  0  0  0  0  0
   22.6012  -21.3681   -7.9326 C   0  0  0  0  0  0  0  0  0  0  0  0
   21.6822  -22.0412   -8.9787 C   0  0  1  0  0  0  0  0  0  0  0  0
   20.3836  -22.2757   -8.3317 C   0  0  0  0  0  0  0  0  0  0  0  0
   19.3940  -21.4851   -8.5583 O   0  0  0  0  0  0  0  0  0  0  0  0
   20.0617  -23.3317   -7.4345 N   0  0  0  0  0  0  0  0  0  0  0  0
   18.7113  -23.8795   -7.3572 C   0  0  1  0  0  0  0  0  0  0  0  0
   18.3697  -24.7082   -8.5473 C   0  0  0  0  0  0  0  0  0  0  0  0
   16.9271  -25.1274   -8.4836 C   0  0  0  0  0  0  0  0  0  0  0  0
   16.5197  -25.9978   -9.6624 C   0  0  0  0  0  0  0  0  0  0  0  0
   15.0186  -26.2397   -9.6477 C   0  0  0  0  0  0  0  0  0  0  0  0
   14.6782  -27.0511  -10.8179 N   0  0  0  0  0  0  0  0  0  0  0  0
   18.3409  -24.4649   -6.0966 C   0  0  0  0  0  0  0  0  0  0  0  0
   19.1490  -24.8104   -5.0361 O   0  0  0  0  0  0  0  0  0  0  0  0
   17.0896  -24.7084   -5.9111 O   0  0  0  0  0  0  0  0  0  0  0  0
  2  3  1  1
  2  1  1  0
  4  2  1  0
  4  5  1  6
  6  4  1  0
  7  6  2  0
  8  6  1  0
  9 10  1  0
  9  8  1  0
 10 11  1  0
 12 11  1  0
 12  8  1  0
 12 13  1  1
 14 13  2  0
 15 13  1  0
 16 17  1  6
 16 15  1  0
 18 17  1  0
 19 20  1  0
 19 18  1  0
 20 21  1  0
 22 23  1  0
 22 16  1  0
 24 22  2  0
M  END
$$$$
