VPK.pdb
     RDKit          3D

 24 24  0  0  1  0  0  0  0  0999 V2000
   20.7392  -13.9472  -19.8633 C   0  0  0  0  0  0  0  0  0  0  0  0
   20.9600  -12.8451  -18.8559 C   0  0  2  0  0  0  0  0  0  0  0  0
   19.9698  -11.7257  -19.1277 C   0  0  0  0  0  0  0  0  0  0  0  0
   22.3884  -12.3536  -18.8170 C   0  0  2  0  0  0  0  0  0  0  0  0
   23.2189  -13.5238  -18.6435 N   0  0  0  0  0  0  0  0  0  0  0  0
   22.6528  -11.3144  -17.8373 C   0  0  0  0  0  0  0  0  0  0  0  0
   22.8429  -11.7079  -16.6338 O   0  0  0  0  0  0  0  0  0  0  0  0
   22.7141   -9.9340  -18.1027 N   0  0  0  0  0  0  0  0  0  0  0  0
   22.5686   -9.3904  -19.4485 C   0  0  0  0  0  0  0  0  0  0  0  0
   23.6220   -8.3018  -19.4342 C   0  0  0  0  0  0  0  0  0  0  0  0
   23.4449   -7.6879  -18.0699 C   0  0  0  0  0  0  0  0  0  0  0  0
   22.9365   -8.8617  -17.2005 C   0  0  1  0  0  0  0  0  0  0  0  0
   21.7842   -8.3686  -16.4329 C   0  0  0  0  0  0  0  0  0  0  0  0
   20.5942   -8.4717  -16.9113 O   0  0  0  0  0  0  0  0  0  0  0  0
   21.8198   -7.7573  -15.1488 N   0  0  0  0  0  0  0  0  0  0  0  0
   20.5941   -7.4285  -14.4284 C   0  0  1  0  0  0  0  0  0  0  0  0
   20.2301   -8.4717  -13.4289 C   0  0  0  0  0  0  0  0  0  0  0  0
   18.8450   -8.2165  -12.9023 C   0  0  0  0  0  0  0  0  0  0  0  0
   18.4217   -9.2356  -11.8556 C   0  0  0  0  0  0  0  0  0  0  0  0
   16.9600   -9.0385  -11.4860 C   0  0  0  0  0  0  0  0  0  0  0  0
   16.5632  -10.1367  -10.6028 N   0  0  0  0  0  0  0  0  0  0  0  0
   20.4914   -6.0776  -13.9450 C   0  0  0  0  0  0  0  0  0  0  0  0
   19.3766   -5.2727  -13.8665 O   0  0  0  0  0  0  0  0  0  0  0  0
   21.5756   -5.5244  -13.5233 O   0  0  0  0  0  0  0  0  0  0  0  0
  2  3  1  6
  2  1  1  0
  4  2  1  0
  4  5  1  1
  6  4  1  0
  7  6  2  0
  8  6  1  0
  9 10  1  0
  9  8  1  0
 10 11  1  0
 12 11  1  0
 12  8  1  0
 12 13  1  6
 14 13  2  0
 15 13  1  0
 16 17  1  1
 16 15  1  0
 18 17  1  0
 19 20  1  0
 19 18  1  0
 20 21  1  0
 22 23  1  0
 22 16  1  0
 24 22  2  0
M  END
$$$$
