VPK.pdb
     RDKit          3D

 24 24  0  0  1  0  0  0  0  0999 V2000
   21.9341  -15.3961  -18.3508 C   0  0  0  0  0  0  0  0  0  0  0  0
   22.5609  -16.4368  -17.4552 C   0  0  2  0  0  0  0  0  0  0  0  0
   22.3421  -16.0344  -16.0069 C   0  0  0  0  0  0  0  0  0  0  0  0
   24.0172  -16.6907  -17.7687 C   0  0  2  0  0  0  0  0  0  0  0  0
   24.1012  -16.8756  -19.1997 N   0  0  0  0  0  0  0  0  0  0  0  0
   24.6269  -17.7727  -17.0155 C   0  0  0  0  0  0  0  0  0  0  0  0
   24.3802  -18.9586  -17.4303 O   0  0  0  0  0  0  0  0  0  0  0  0
   25.4517  -17.6219  -15.8856 N   0  0  0  0  0  0  0  0  0  0  0  0
   25.8214  -16.3131  -15.3577 C   0  0  0  0  0  0  0  0  0  0  0  0
   27.2760  -16.5460  -15.0048 C   0  0  0  0  0  0  0  0  0  0  0  0
   27.2500  -17.9179  -14.3828 C   0  0  0  0  0  0  0  0  0  0  0  0
   26.0717  -18.6232  -15.0944 C   0  0  1  0  0  0  0  0  0  0  0  0
   25.2582  -19.2692  -14.0547 C   0  0  0  0  0  0  0  0  0  0  0  0
   24.3895  -18.5876  -13.3942 O   0  0  0  0  0  0  0  0  0  0  0  0
   25.3107  -20.6362  -13.6645 N   0  0  0  0  0  0  0  0  0  0  0  0
   24.4575  -21.1574  -12.6015 C   0  0  1  0  0  0  0  0  0  0  0  0
   24.9044  -20.7140  -11.2511 C   0  0  0  0  0  0  0  0  0  0  0  0
   23.9892  -21.2747  -10.1981 C   0  0  0  0  0  0  0  0  0  0  0  0
   24.3674  -20.8234   -8.7958 C   0  0  0  0  0  0  0  0  0  0  0  0
   23.5020  -21.5268   -7.7621 C   0  0  0  0  0  0  0  0  0  0  0  0
   23.9237  -21.0758   -6.4346 N   0  0  0  0  0  0  0  0  0  0  0  0
   23.0402  -21.0540  -12.8244 C   0  0  0  0  0  0  0  0  0  0  0  0
   22.2659  -19.9206  -12.9373 O   0  0  0  0  0  0  0  0  0  0  0  0
   22.3848  -22.1573  -12.9364 O   0  0  0  0  0  0  0  0  0  0  0  0
  2  3  1  1
  2  1  1  0
  4  2  1  0
  4  5  1  6
  6  4  1  0
  7  6  2  0
  8  6  1  0
  9 10  1  0
  9  8  1  0
 10 11  1  0
 12 11  1  0
 12  8  1  0
 12 13  1  1
 14 13  2  0
 15 13  1  0
 16 17  1  1
 16 15  1  0
 18 17  1  0
 19 20  1  0
 19 18  1  0
 20 21  1  0
 22 23  1  0
 22 16  1  0
 24 22  2  0
M  END
$$$$
