VPK.pdb
     RDKit          3D

 24 24  0  0  1  0  0  0  0  0999 V2000
   23.5301  -14.8084  -19.6930 C   0  0  0  0  0  0  0  0  0  0  0  0
   23.3899  -13.6748  -18.7063 C   0  0  2  0  0  0  0  0  0  0  0  0
   23.5240  -12.3571  -19.4500 C   0  0  0  0  0  0  0  0  0  0  0  0
   24.3476  -13.7791  -17.5421 C   0  0  2  0  0  0  0  0  0  0  0  0
   24.2081  -15.1183  -17.0165 N   0  0  0  0  0  0  0  0  0  0  0  0
   24.1964  -12.7487  -16.5296 C   0  0  0  0  0  0  0  0  0  0  0  0
   23.1693  -12.8482  -15.7716 O   0  0  0  0  0  0  0  0  0  0  0  0
   25.0741  -11.6689  -16.3212 N   0  0  0  0  0  0  0  0  0  0  0  0
   26.3690  -11.5757  -16.9864 C   0  0  0  0  0  0  0  0  0  0  0  0
   27.2334  -11.0478  -15.8600 C   0  0  0  0  0  0  0  0  0  0  0  0
   26.3468  -10.0110  -15.2205 C   0  0  0  0  0  0  0  0  0  0  0  0
   24.9166  -10.5430  -15.4724 C   0  0  1  0  0  0  0  0  0  0  0  0
   24.1155   -9.4184  -15.9761 C   0  0  0  0  0  0  0  0  0  0  0  0
   23.7316   -9.3942  -17.2039 O   0  0  0  0  0  0  0  0  0  0  0  0
   23.6821   -8.2858  -15.2321 N   0  0  0  0  0  0  0  0  0  0  0  0
   22.5845   -7.4443  -15.6976 C   0  0  1  0  0  0  0  0  0  0  0  0
   21.3631   -8.2356  -16.0164 C   0  0  0  0  0  0  0  0  0  0  0  0
   20.2731   -7.3222  -16.5050 C   0  0  0  0  0  0  0  0  0  0  0  0
   18.9874   -8.0682  -16.8270 C   0  0  0  0  0  0  0  0  0  0  0  0
   17.8984   -7.0911  -17.2413 C   0  0  0  0  0  0  0  0  0  0  0  0
   16.7260   -7.8659  -17.6522 N   0  0  0  0  0  0  0  0  0  0  0  0
   22.3392   -6.2505  -14.9336 C   0  0  0  0  0  0  0  0  0  0  0  0
   22.1802   -4.9579  -15.3819 O   0  0  0  0  0  0  0  0  0  0  0  0
   22.2528   -6.3827  -13.6552 O   0  0  0  0  0  0  0  0  0  0  0  0
  2  3  1  6
  2  1  1  0
  4  2  1  0
  4  5  1  1
  6  4  1  0
  7  6  2  0
  8  6  1  0
  9 10  1  0
  9  8  1  0
 10 11  1  0
 12 11  1  0
 12  8  1  0
 12 13  1  6
 14 13  2  0
 15 13  1  0
 16 17  1  1
 16 15  1  0
 18 17  1  0
 19 20  1  0
 19 18  1  0
 20 21  1  0
 22 23  1  0
 22 16  1  0
 24 22  2  0
M  END
$$$$
