VPK.pdb
     RDKit          3D

 24 24  0  0  1  0  0  0  0  0999 V2000
   25.8831  -17.8909  -16.1540 C   0  0  0  0  0  0  0  0  0  0  0  0
   27.1533  -18.2416  -15.4180 C   0  0  2  0  0  0  0  0  0  0  0  0
   28.3096  -17.4809  -16.0440 C   0  0  0  0  0  0  0  0  0  0  0  0
   27.4107  -19.7292  -15.3531 C   0  0  2  0  0  0  0  0  0  0  0  0
   27.7646  -20.1419  -16.6923 N   0  0  0  0  0  0  0  0  0  0  0  0
   26.3312  -20.5138  -14.7794 C   0  0  0  0  0  0  0  0  0  0  0  0
   25.5471  -21.0893  -15.6121 O   0  0  0  0  0  0  0  0  0  0  0  0
   26.0840  -20.6866  -13.4051 N   0  0  0  0  0  0  0  0  0  0  0  0
   27.0350  -20.2665  -12.3818 C   0  0  0  0  0  0  0  0  0  0  0  0
   26.9374  -21.4220  -11.4071 C   0  0  0  0  0  0  0  0  0  0  0  0
   25.4561  -21.6929  -11.3623 C   0  0  0  0  0  0  0  0  0  0  0  0
   24.9629  -21.2790  -12.7685 C   0  0  1  0  0  0  0  0  0  0  0  0
   23.7669  -20.4451  -12.5832 C   0  0  0  0  0  0  0  0  0  0  0  0
   23.8309  -19.1717  -12.7561 O   0  0  0  0  0  0  0  0  0  0  0  0
   22.4678  -20.8953  -12.2174 N   0  0  0  0  0  0  0  0  0  0  0  0
   21.2664  -20.3046  -12.7980 C   0  0  1  0  0  0  0  0  0  0  0  0
   21.4331  -19.9952  -14.2459 C   0  0  0  0  0  0  0  0  0  0  0  0
   20.2469  -19.2169  -14.7441 C   0  0  0  0  0  0  0  0  0  0  0  0
   19.5233  -19.9205  -15.8819 C   0  0  0  0  0  0  0  0  0  0  0  0
   18.4186  -19.0340  -16.4348 C   0  0  0  0  0  0  0  0  0  0  0  0
   17.7399  -19.7684  -17.5042 N   0  0  0  0  0  0  0  0  0  0  0  0
   20.0243  -20.9490  -12.4650 C   0  0  0  0  0  0  0  0  0  0  0  0
   19.6142  -22.2317  -12.7539 O   0  0  0  0  0  0  0  0  0  0  0  0
   19.1627  -20.2522  -11.8082 O   0  0  0  0  0  0  0  0  0  0  0  0
  2  3  1  6
  2  1  1  0
  4  2  1  0
  4  5  1  6
  6  4  1  0
  7  6  2  0
  8  6  1  0
  9 10  1  0
  9  8  1  0
 10 11  1  0
 12 11  1  0
 12  8  1  0
 12 13  1  1
 14 13  2  0
 15 13  1  0
 16 17  1  6
 16 15  1  0
 18 17  1  0
 19 20  1  0
 19 18  1  0
 20 21  1  0
 22 23  1  0
 22 16  1  0
 24 22  2  0
M  END
$$$$
