VPK.pdb
     RDKit          3D

 24 24  0  0  1  0  0  0  0  0999 V2000
   20.7853  -22.3218  -11.7039 C   0  0  0  0  0  0  0  0  0  0  0  0
   21.8517  -21.3536  -12.1552 C   0  0  2  0  0  0  0  0  0  0  0  0
   22.0755  -21.5300  -13.6472 C   0  0  0  0  0  0  0  0  0  0  0  0
   23.1332  -21.4701  -11.3629 C   0  0  2  0  0  0  0  0  0  0  0  0
   22.7752  -21.2786   -9.9757 N   0  0  0  0  0  0  0  0  0  0  0  0
   24.2072  -20.5964  -11.8022 C   0  0  0  0  0  0  0  0  0  0  0  0
   24.1354  -19.3767  -11.4193 O   0  0  0  0  0  0  0  0  0  0  0  0
   25.2999  -20.9787  -12.6020 N   0  0  0  0  0  0  0  0  0  0  0  0
   25.5260  -22.3623  -13.0053 C   0  0  0  0  0  0  0  0  0  0  0  0
   27.0302  -22.4627  -12.8570 C   0  0  0  0  0  0  0  0  0  0  0  0
   27.5070  -21.1516  -13.4258 C   0  0  0  0  0  0  0  0  0  0  0  0
   26.3454  -20.1754  -13.1260 C   0  0  1  0  0  0  0  0  0  0  0  0
   26.0743  -19.4276  -14.3619 C   0  0  0  0  0  0  0  0  0  0  0  0
   25.3100  -19.9277  -15.2681 O   0  0  0  0  0  0  0  0  0  0  0  0
   26.5782  -18.1415  -14.7025 N   0  0  0  0  0  0  0  0  0  0  0  0
   26.0988  -17.4237  -15.8791 C   0  0  1  0  0  0  0  0  0  0  0  0
   25.8911  -15.9732  -15.6091 C   0  0  0  0  0  0  0  0  0  0  0  0
   25.4086  -15.2835  -16.8550 C   0  0  0  0  0  0  0  0  0  0  0  0
   24.5960  -14.0338  -16.5527 C   0  0  0  0  0  0  0  0  0  0  0  0
   25.4983  -12.8102  -16.5236 C   0  0  0  0  0  0  0  0  0  0  0  0
   24.6555  -11.6294  -16.3263 N   0  0  0  0  0  0  0  0  0  0  0  0
   26.7824  -17.7089  -17.1121 C   0  0  0  0  0  0  0  0  0  0  0  0
   26.2691  -17.7658  -18.3889 O   0  0  0  0  0  0  0  0  0  0  0  0
   28.0462  -17.9469  -17.0376 O   0  0  0  0  0  0  0  0  0  0  0  0
  2  3  1  6
  2  1  1  0
  4  2  1  0
  4  5  1  1
  6  4  1  0
  7  6  2  0
  8  6  1  0
  9 10  1  0
  9  8  1  0
 10 11  1  0
 12 11  1  0
 12  8  1  0
 12 13  1  6
 14 13  2  0
 15 13  1  0
 16 17  1  1
 16 15  1  0
 18 17  1  0
 19 20  1  0
 19 18  1  0
 20 21  1  0
 22 23  1  0
 22 16  1  0
 24 22  2  0
M  END
$$$$
