VPK.pdb
     RDKit          3D

 24 24  0  0  1  0  0  0  0  0999 V2000
   23.3827  -19.7310  -10.4833 C   0  0  0  0  0  0  0  0  0  0  0  0
   24.3421  -20.8563  -10.1806 C   0  0  2  0  0  0  0  0  0  0  0  0
   24.0064  -21.4342   -8.8165 C   0  0  0  0  0  0  0  0  0  0  0  0
   25.7923  -20.4462  -10.2912 C   0  0  2  0  0  0  0  0  0  0  0  0
   26.0885  -19.6681   -9.1097 N   0  0  0  0  0  0  0  0  0  0  0  0
   26.1451  -19.7677  -11.5261 C   0  0  0  0  0  0  0  0  0  0  0  0
   26.2300  -18.4916  -11.4650 O   0  0  0  0  0  0  0  0  0  0  0  0
   26.3953  -20.3920  -12.7620 N   0  0  0  0  0  0  0  0  0  0  0  0
   26.4945  -21.8410  -12.8989 C   0  0  0  0  0  0  0  0  0  0  0  0
   27.6511  -21.9593  -13.8700 C   0  0  0  0  0  0  0  0  0  0  0  0
   27.3608  -20.8660  -14.8651 C   0  0  0  0  0  0  0  0  0  0  0  0
   26.6119  -19.7991  -14.0326 C   0  0  1  0  0  0  0  0  0  0  0  0
   25.4287  -19.3948  -14.8051 C   0  0  0  0  0  0  0  0  0  0  0  0
   24.5658  -20.2737  -15.1773 O   0  0  0  0  0  0  0  0  0  0  0  0
   25.0950  -18.0744  -15.2160 N   0  0  0  0  0  0  0  0  0  0  0  0
   24.2432  -17.8307  -16.3755 C   0  0  1  0  0  0  0  0  0  0  0  0
   25.0304  -17.4683  -17.5875 C   0  0  0  0  0  0  0  0  0  0  0  0
   24.1014  -17.1326  -18.7212 C   0  0  0  0  0  0  0  0  0  0  0  0
   24.8453  -16.7475  -19.9907 C   0  0  0  0  0  0  0  0  0  0  0  0
   23.8618  -16.3541  -21.0815 C   0  0  0  0  0  0  0  0  0  0  0  0
   24.6222  -16.0906  -22.3046 N   0  0  0  0  0  0  0  0  0  0  0  0
   23.2032  -18.7972  -16.6068 C   0  0  0  0  0  0  0  0  0  0  0  0
   23.3207  -20.1132  -16.9956 O   0  0  0  0  0  0  0  0  0  0  0  0
   21.9896  -18.4018  -16.4336 O   0  0  0  0  0  0  0  0  0  0  0  0
  2  3  1  1
  2  1  1  0
  4  2  1  0
  4  5  1  1
  6  4  1  0
  7  6  2  0
  8  6  1  0
  9 10  1  0
  9  8  1  0
 10 11  1  0
 12 11  1  0
 12  8  1  0
 12 13  1  6
 14 13  2  0
 15 13  1  0
 16 17  1  6
 16 15  1  0
 18 17  1  0
 19 20  1  0
 19 18  1  0
 20 21  1  0
 22 23  1  0
 22 16  1  0
 24 22  2  0
M  END
$$$$
