VPK.pdb
     RDKit          3D

 24 24  0  0  1  0  0  0  0  0999 V2000
   27.8320  -34.4468   -7.0332 C   0  0  0  0  0  0  0  0  0  0  0  0
   28.5594  -35.0391   -5.8508 C   0  0  2  0  0  0  0  0  0  0  0  0
   28.7929  -33.9474   -4.8206 C   0  0  0  0  0  0  0  0  0  0  0  0
   29.8358  -35.7512   -6.2346 C   0  0  2  0  0  0  0  0  0  0  0  0
   29.4709  -36.7397   -7.2240 N   0  0  0  0  0  0  0  0  0  0  0  0
   30.5869  -36.3059   -5.1220 C   0  0  0  0  0  0  0  0  0  0  0  0
   30.0695  -37.3239   -4.5430 O   0  0  0  0  0  0  0  0  0  0  0  0
   31.8159  -35.8200   -4.6392 N   0  0  0  0  0  0  0  0  0  0  0  0
   32.5421  -34.7404   -5.2988 C   0  0  0  0  0  0  0  0  0  0  0  0
   33.9673  -35.2410   -5.1847 C   0  0  0  0  0  0  0  0  0  0  0  0
   34.0160  -35.7833   -3.7800 C   0  0  0  0  0  0  0  0  0  0  0  0
   32.5663  -36.2529   -3.5155 C   0  0  1  0  0  0  0  0  0  0  0  0
   32.1746  -35.7368   -2.1964 C   0  0  0  0  0  0  0  0  0  0  0  0
   31.2282  -34.8711   -2.0935 O   0  0  0  0  0  0  0  0  0  0  0  0
   32.7416  -36.0972   -0.9424 N   0  0  0  0  0  0  0  0  0  0  0  0
   31.9519  -36.0742    0.2845 C   0  0  1  0  0  0  0  0  0  0  0  0
   30.6088  -36.6931    0.1025 C   0  0  0  0  0  0  0  0  0  0  0  0
   29.8367  -36.6313    1.3913 C   0  0  0  0  0  0  0  0  0  0  0  0
   28.4496  -37.2435    1.2703 C   0  0  0  0  0  0  0  0  0  0  0  0
   27.7172  -37.1613    2.6003 C   0  0  0  0  0  0  0  0  0  0  0  0
   26.4179  -37.8179    2.4442 N   0  0  0  0  0  0  0  0  0  0  0  0
   32.6379  -36.4794    1.4822 C   0  0  0  0  0  0  0  0  0  0  0  0
   32.6421  -35.8745    2.7195 O   0  0  0  0  0  0  0  0  0  0  0  0
   33.3515  -37.5496    1.4127 O   0  0  0  0  0  0  0  0  0  0  0  0
  2  3  1  1
  2  1  1  0
  4  2  1  0
  4  5  1  6
  6  4  1  0
  7  6  2  0
  8  6  1  0
  9 10  1  0
  9  8  1  0
 10 11  1  0
 12 11  1  0
 12  8  1  0
 12 13  1  1
 14 13  2  0
 15 13  1  0
 16 17  1  6
 16 15  1  0
 18 17  1  0
 19 20  1  0
 19 18  1  0
 20 21  1  0
 22 23  1  0
 22 16  1  0
 24 22  2  0
M  END
$$$$
