VPK.pdb
     RDKit          3D

 24 24  0  0  1  0  0  0  0  0999 V2000
   19.6271  -13.1315  -18.9710 C   0  0  0  0  0  0  0  0  0  0  0  0
   19.3997  -11.9899  -18.0102 C   0  0  2  0  0  0  0  0  0  0  0  0
   19.8083  -10.6916  -18.6845 C   0  0  0  0  0  0  0  0  0  0  0  0
   20.0867  -12.1885  -16.6789 C   0  0  2  0  0  0  0  0  0  0  0  0
   19.6700  -13.4844  -16.1930 N   0  0  0  0  0  0  0  0  0  0  0  0
   19.8768  -11.1219  -15.7155 C   0  0  0  0  0  0  0  0  0  0  0  0
   18.7102  -11.0551  -15.1922 O   0  0  0  0  0  0  0  0  0  0  0  0
   20.8378  -10.1731  -15.3206 N   0  0  0  0  0  0  0  0  0  0  0  0
   22.2530  -10.3133  -15.6453 C   0  0  0  0  0  0  0  0  0  0  0  0
   22.8919   -9.8511  -14.3519 C   0  0  0  0  0  0  0  0  0  0  0  0
   22.0529   -8.6574  -13.9765 C   0  0  0  0  0  0  0  0  0  0  0  0
   20.6602   -8.9864  -14.5635 C   0  0  1  0  0  0  0  0  0  0  0  0
   20.1933   -7.7886  -15.2758 C   0  0  0  0  0  0  0  0  0  0  0  0
   20.0431   -7.8113  -16.5535 O   0  0  0  0  0  0  0  0  0  0  0  0
   19.8636   -6.5320  -14.6962 N   0  0  0  0  0  0  0  0  0  0  0  0
   19.1622   -5.5034  -15.4574 C   0  0  1  0  0  0  0  0  0  0  0  0
   18.0554   -6.0670  -16.2804 C   0  0  0  0  0  0  0  0  0  0  0  0
   17.4522   -4.9882  -17.1367 C   0  0  0  0  0  0  0  0  0  0  0  0
   15.9885   -5.2483  -17.4579 C   0  0  0  0  0  0  0  0  0  0  0  0
   15.6636   -4.7750  -18.8659 C   0  0  0  0  0  0  0  0  0  0  0  0
   14.2378   -5.0069  -19.1050 N   0  0  0  0  0  0  0  0  0  0  0  0
   18.8185   -4.3090  -14.7333 C   0  0  0  0  0  0  0  0  0  0  0  0
   18.8107   -3.0049  -15.1761 O   0  0  0  0  0  0  0  0  0  0  0  0
   18.4674   -4.4531  -13.5023 O   0  0  0  0  0  0  0  0  0  0  0  0
  2  3  1  6
  2  1  1  0
  4  2  1  0
  4  5  1  1
  6  4  1  0
  7  6  2  0
  8  6  1  0
  9 10  1  0
  9  8  1  0
 10 11  1  0
 12 11  1  0
 12  8  1  0
 12 13  1  6
 14 13  2  0
 15 13  1  0
 16 17  1  1
 16 15  1  0
 18 17  1  0
 19 20  1  0
 19 18  1  0
 20 21  1  0
 22 23  1  0
 22 16  1  0
 24 22  2  0
M  END
$$$$
