VPK.pdb
     RDKit          3D

 24 24  0  0  1  0  0  0  0  0999 V2000
   21.7216  -21.5557   -9.7150 C   0  0  0  0  0  0  0  0  0  0  0  0
   22.3898  -20.8764  -10.8855 C   0  0  2  0  0  0  0  0  0  0  0  0
   22.0165  -21.6139  -12.1599 C   0  0  0  0  0  0  0  0  0  0  0  0
   23.8851  -20.7379  -10.7172 C   0  0  2  0  0  0  0  0  0  0  0  0
   24.0971  -20.1451   -9.4161 N   0  0  0  0  0  0  0  0  0  0  0  0
   24.5591  -20.0238  -11.7876 C   0  0  0  0  0  0  0  0  0  0  0  0
   24.3960  -18.7541  -11.8097 O   0  0  0  0  0  0  0  0  0  0  0  0
   25.3618  -20.6083  -12.7845 N   0  0  0  0  0  0  0  0  0  0  0  0
   25.7173  -22.0230  -12.7710 C   0  0  0  0  0  0  0  0  0  0  0  0
   27.1657  -21.9595  -13.2102 C   0  0  0  0  0  0  0  0  0  0  0  0
   27.1321  -20.9347  -14.3140 C   0  0  0  0  0  0  0  0  0  0  0  0
   25.9697  -19.9972  -13.9115 C   0  0  1  0  0  0  0  0  0  0  0  0
   25.1385  -19.7953  -15.1067 C   0  0  0  0  0  0  0  0  0  0  0  0
   23.9050  -20.1611  -15.1080 O   0  0  0  0  0  0  0  0  0  0  0  0
   25.5492  -19.2084  -16.3358 N   0  0  0  0  0  0  0  0  0  0  0  0
   24.5924  -18.5603  -17.2268 C   0  0  1  0  0  0  0  0  0  0  0  0
   23.6561  -17.6633  -16.4928 C   0  0  0  0  0  0  0  0  0  0  0  0
   22.5935  -17.1555  -17.4275 C   0  0  0  0  0  0  0  0  0  0  0  0
   21.6731  -16.1400  -16.7681 C   0  0  0  0  0  0  0  0  0  0  0  0
   20.2367  -16.3581  -17.2167 C   0  0  0  0  0  0  0  0  0  0  0  0
   19.3891  -15.3972  -16.5083 N   0  0  0  0  0  0  0  0  0  0  0  0
   25.1374  -17.9957  -18.4322 C   0  0  0  0  0  0  0  0  0  0  0  0
   26.1124  -17.0324  -18.5686 O   0  0  0  0  0  0  0  0  0  0  0  0
   24.6655  -18.4341  -19.5478 O   0  0  0  0  0  0  0  0  0  0  0  0
  2  3  1  6
  2  1  1  0
  4  2  1  0
  4  5  1  1
  6  4  1  0
  7  6  2  0
  8  6  1  0
  9 10  1  0
  9  8  1  0
 10 11  1  0
 12 11  1  0
 12  8  1  0
 12 13  1  6
 14 13  2  0
 15 13  1  0
 16 17  1  1
 16 15  1  0
 18 17  1  0
 19 20  1  0
 19 18  1  0
 20 21  1  0
 22 23  1  0
 22 16  1  0
 24 22  2  0
M  END
$$$$
