RWI.pdb
     RDKit          3D

 34 35  0  0  1  0  0  0  0  0999 V2000
    7.4294  -12.4572   18.6567 N   0  0  0  0  0  0  0  0  0  0  0  0
    8.0921  -13.6968   18.8899 C   0  0  0  0  0  0  0  0  0  0  0  0
    7.4456  -14.8120   18.8830 N   0  0  0  0  0  0  0  0  0  0  0  0
    9.5042  -13.7052   19.1402 N   0  0  0  0  0  0  0  0  0  0  0  0
   10.4194  -14.4316   18.2814 C   0  0  0  0  0  0  0  0  0  0  0  0
   10.5810  -15.8124   18.8098 C   0  0  0  0  0  0  0  0  0  0  0  0
   11.3756  -15.9728   20.0476 C   0  0  0  0  0  0  0  0  0  0  0  0
   10.8877  -16.9495   21.0556 C   0  0  2  0  0  0  0  0  0  0  0  0
    9.7630  -17.6962   20.5776 N   0  0  0  0  0  0  0  0  0  0  0  0
   10.5796  -16.3494   22.3701 C   0  0  0  0  0  0  0  0  0  0  0  0
   11.1097  -15.2883   22.7846 O   0  0  0  0  0  0  0  0  0  0  0  0
    7.9027  -15.7216   18.9987 N   0  0  0  0  0  0  0  0  0  0  0  0
    9.6462  -16.9781   23.2266 C   0  0  1  0  0  0  0  0  0  0  0  0
    9.2122  -16.4578   24.4885 C   0  0  0  0  0  0  0  0  0  0  0  0
    7.7810  -16.7295   24.8389 C   0  0  0  0  0  0  0  0  0  0  0  0
    6.9213  -15.6155   24.4314 C   0  0  0  0  0  0  0  0  0  0  0  0
    5.9380  -15.5520   23.4612 N   0  0  0  0  0  0  0  0  0  0  0  0
    5.4174  -14.3151   23.4490 C   0  0  0  0  0  0  0  0  0  0  0  0
    6.0028  -13.5327   24.3684 C   0  0  0  0  0  0  0  0  0  0  0  0
    5.8029  -12.2096   24.7203 C   0  0  0  0  0  0  0  0  0  0  0  0
    6.5788  -11.6666   25.7359 C   0  0  0  0  0  0  0  0  0  0  0  0
    7.5164  -12.4271   26.3694 C   0  0  0  0  0  0  0  0  0  0  0  0
    7.6910  -13.7561   25.9894 C   0  0  0  0  0  0  0  0  0  0  0  0
    6.9393  -14.3299   24.9856 C   0  0  0  0  0  0  0  0  0  0  0  0
   10.1115  -16.8656   25.6070 O   0  0  0  0  0  0  0  0  0  0  0  0
   10.9698  -17.7610   25.4260 C   0  0  0  0  0  0  0  0  0  0  0  0
   11.5883  -13.9344   27.9825 C   0  0  0  0  0  0  0  0  0  0  0  0
   10.4265  -14.3863   28.8212 C   0  0  1  0  0  0  0  0  0  0  0  0
   10.5557  -15.8305   29.2285 C   0  0  0  0  0  0  0  0  0  0  0  0
   11.4903  -16.0394   30.3748 C   0  0  2  0  0  0  0  0  0  0  0  0
   10.9268  -16.6204   27.9900 N   0  0  0  0  0  0  0  0  0  0  0  0
   10.0416  -16.2759   26.8958 C   0  0  0  0  0  0  0  0  0  0  0  0
   10.7725  -18.0521   28.2990 O   0  0  0  0  0  0  0  0  0  0  0  0
    9.5208  -18.6313   28.1964 O   0  0  0  0  0  0  0  0  0  0  0  0
  2  1  1  0
  3  2  2  0
  4  2  1  0
  5  4  1  0
  6  5  1  0
  7  6  1  0
  7  8  1  0
  8  9  1  6
 10  8  1  0
 11 10  2  0
 12 10  1  0
 13 12  1  0
 13 24  1  0
 13 14  1  6
 15 23  1  0
 15 14  1  0
 16 15  2  0
 17 16  1  0
 17 18  1  0
 18 23  2  0
 19 18  1  0
 19 20  2  0
 20 21  1  0
 21 22  2  0
 23 22  1  0
 24 31  1  0
 25 24  2  0
 26 27  1  0
 28 29  1  1
 28 27  1  0
 30 28  1  0
 30 32  1  0
 30 31  1  6
 32 34  2  0
 32 33  1  0
M  END
$$$$
