RWI.pdb
     RDKit          3D

 34 35  0  0  1  0  0  0  0  0999 V2000
   10.8287  -18.6601   15.8835 N   0  0  0  0  0  0  0  0  0  0  0  0
   11.9827  -17.8956   16.2211 C   0  0  0  0  0  0  0  0  0  0  0  0
   12.7458  -17.3987   15.3088 N   0  0  0  0  0  0  0  0  0  0  0  0
   12.3041  -17.6763   17.6015 N   0  0  0  0  0  0  0  0  0  0  0  0
   11.5053  -18.2552   18.6644 C   0  0  0  0  0  0  0  0  0  0  0  0
   10.5042  -17.2517   19.1144 C   0  0  0  0  0  0  0  0  0  0  0  0
    9.9385  -17.4237   20.4709 C   0  0  0  0  0  0  0  0  0  0  0  0
    8.8274  -16.5221   20.8714 C   0  0  2  0  0  0  0  0  0  0  0  0
    8.5847  -15.5039   19.8939 N   0  0  0  0  0  0  0  0  0  0  0  0
    9.0011  -15.9152   22.2072 C   0  0  0  0  0  0  0  0  0  0  0  0
    9.4542  -14.7567   22.3842 O   0  0  0  0  0  0  0  0  0  0  0  0
   13.5492  -16.7991   15.5203 N   0  0  0  0  0  0  0  0  0  0  0  0
    8.6491  -16.6507   23.3628 C   0  0  1  0  0  0  0  0  0  0  0  0
    8.7885  -16.1792   24.7081 C   0  0  0  0  0  0  0  0  0  0  0  0
    7.5774  -16.3404   25.5753 C   0  0  0  0  0  0  0  0  0  0  0  0
    6.5604  -15.3384   25.2463 C   0  0  0  0  0  0  0  0  0  0  0  0
    5.2764  -15.4934   24.7569 N   0  0  0  0  0  0  0  0  0  0  0  0
    4.7170  -14.2823   24.6107 C   0  0  0  0  0  0  0  0  0  0  0  0
    5.5634  -13.3086   24.9791 C   0  0  0  0  0  0  0  0  0  0  0  0
    5.4346  -11.9313   25.0053 C   0  0  0  0  0  0  0  0  0  0  0  0
    6.5082  -11.1708   25.4496 C   0  0  0  0  0  0  0  0  0  0  0  0
    7.6626  -11.7753   25.8507 C   0  0  0  0  0  0  0  0  0  0  0  0
    7.7576  -13.1647   25.8112 C   0  0  0  0  0  0  0  0  0  0  0  0
    6.7127  -13.9527   25.3762 C   0  0  0  0  0  0  0  0  0  0  0  0
    9.9939  -16.7435   25.3823 O   0  0  0  0  0  0  0  0  0  0  0  0
   10.6479  -17.6604   24.8320 C   0  0  0  0  0  0  0  0  0  0  0  0
   13.5315  -15.8227   30.4442 C   0  0  0  0  0  0  0  0  0  0  0  0
   13.1159  -16.6004   29.2278 C   0  0  2  0  0  0  0  0  0  0  0  0
   11.9949  -15.9234   28.4840 C   0  0  0  0  0  0  0  0  0  0  0  0
   10.8562  -15.5266   29.3656 C   0  0  2  0  0  0  0  0  0  0  0  0
   11.5912  -16.8346   27.3429 N   0  0  0  0  0  0  0  0  0  0  0  0
   10.4475  -16.2825   26.6454 C   0  0  0  0  0  0  0  0  0  0  0  0
   11.2207  -18.1415   27.9120 O   0  0  0  0  0  0  0  0  0  0  0  0
   12.2177  -19.0526   28.2096 O   0  0  0  0  0  0  0  0  0  0  0  0
  2  1  1  0
  3  2  2  0
  4  2  1  0
  5  4  1  0
  6  5  1  0
  7  6  1  0
  7  8  1  0
  8  9  1  6
 10  8  1  0
 11 10  2  0
 12 10  1  0
 13 12  1  0
 13 24  1  0
 13 14  1  1
 15 23  1  0
 15 14  1  0
 16 15  2  0
 17 16  1  0
 17 18  1  0
 18 23  2  0
 19 18  1  0
 19 20  2  0
 20 21  1  0
 21 22  2  0
 23 22  1  0
 24 31  1  0
 25 24  2  0
 26 27  1  0
 28 29  1  6
 28 27  1  0
 30 28  1  0
 30 32  1  0
 30 31  1  1
 32 34  2  0
 32 33  1  0
M  END
$$$$
