RWI.pdb
     RDKit          3D

 34 35  0  0  1  0  0  0  0  0999 V2000
    8.7574  -14.1434   14.3234 N   0  0  0  0  0  0  0  0  0  0  0  0
    8.1428  -13.8091   15.5646 C   0  0  0  0  0  0  0  0  0  0  0  0
    7.8706  -12.5861   15.8678 N   0  0  0  0  0  0  0  0  0  0  0  0
    7.8231  -14.8514   16.4963 N   0  0  0  0  0  0  0  0  0  0  0  0
    8.8443  -15.4655   17.3228 C   0  0  0  0  0  0  0  0  0  0  0  0
    8.9645  -14.6957   18.5896 C   0  0  0  0  0  0  0  0  0  0  0  0
    8.2421  -15.2205   19.7696 C   0  0  0  0  0  0  0  0  0  0  0  0
    8.9411  -16.2249   20.6124 C   0  0  2  0  0  0  0  0  0  0  0  0
    8.2672  -17.4886   20.6100 N   0  0  0  0  0  0  0  0  0  0  0  0
    9.1820  -15.7783   22.0000 C   0  0  0  0  0  0  0  0  0  0  0  0
    9.7848  -14.7138   22.2866 O   0  0  0  0  0  0  0  0  0  0  0  0
    7.3961  -12.3199   16.7359 N   0  0  0  0  0  0  0  0  0  0  0  0
    8.7235  -16.5676   23.0803 C   0  0  1  0  0  0  0  0  0  0  0  0
    8.7784  -16.1813   24.4585 C   0  0  0  0  0  0  0  0  0  0  0  0
    7.6152  -16.6175   25.2960 C   0  0  0  0  0  0  0  0  0  0  0  0
    6.5955  -15.5677   25.3636 C   0  0  0  0  0  0  0  0  0  0  0  0
    5.2234  -15.6411   25.2077 N   0  0  0  0  0  0  0  0  0  0  0  0
    4.7019  -14.4136   25.3574 C   0  0  0  0  0  0  0  0  0  0  0  0
    5.6583  -13.5068   25.6085 C   0  0  0  0  0  0  0  0  0  0  0  0
    5.6044  -12.1425   25.8320 C   0  0  0  0  0  0  0  0  0  0  0  0
    6.7897  -11.4600   26.0717 C   0  0  0  0  0  0  0  0  0  0  0  0
    7.9789  -12.1267   26.0855 C   0  0  0  0  0  0  0  0  0  0  0  0
    7.9963  -13.5008   25.8564 C   0  0  0  0  0  0  0  0  0  0  0  0
    6.8398  -14.2122   25.6149 C   0  0  0  0  0  0  0  0  0  0  0  0
   10.0648  -16.5739   25.1043 O   0  0  0  0  0  0  0  0  0  0  0  0
   10.8223  -17.3988   24.5411 C   0  0  0  0  0  0  0  0  0  0  0  0
   11.1185  -14.5941   30.3053 C   0  0  0  0  0  0  0  0  0  0  0  0
   10.9018  -15.5756   29.1886 C   0  0  2  0  0  0  0  0  0  0  0  0
   12.0094  -15.5209   28.1696 C   0  0  0  0  0  0  0  0  0  0  0  0
   12.2916  -14.1390   27.6777 C   0  0  1  0  0  0  0  0  0  0  0  0
   11.6608  -16.4993   27.0666 N   0  0  0  0  0  0  0  0  0  0  0  0
   10.4831  -16.0473   26.3538 C   0  0  0  0  0  0  0  0  0  0  0  0
   11.3742  -17.8037   27.6877 O   0  0  0  0  0  0  0  0  0  0  0  0
   10.0628  -18.2342   27.7733 O   0  0  0  0  0  0  0  0  0  0  0  0
  2  1  1  0
  3  2  2  0
  4  2  1  0
  5  4  1  0
  6  5  1  0
  7  6  1  0
  7  8  1  0
  8  9  1  1
 10  8  1  0
 11 10  2  0
 12 10  1  0
 13 12  1  0
 13 24  1  0
 13 14  1  1
 15 23  1  0
 15 14  1  0
 16 15  2  0
 17 16  1  0
 17 18  1  0
 18 23  2  0
 19 18  1  0
 19 20  2  0
 20 21  1  0
 21 22  2  0
 23 22  1  0
 24 31  1  0
 25 24  2  0
 26 27  1  0
 28 29  1  1
 28 27  1  0
 30 28  1  0
 30 32  1  0
 30 31  1  6
 32 34  2  0
 32 33  1  0
M  END
$$$$
