RWI.pdb
     RDKit          3D

 34 35  0  0  1  0  0  0  0  0999 V2000
    7.2105  -13.6582   15.1486 N   0  0  0  0  0  0  0  0  0  0  0  0
    8.3494  -14.3225   14.6083 C   0  0  0  0  0  0  0  0  0  0  0  0
    8.8747  -13.9481   13.4923 N   0  0  0  0  0  0  0  0  0  0  0  0
    8.9213  -15.4305   15.3170 N   0  0  0  0  0  0  0  0  0  0  0  0
    8.7762  -15.5647   16.7535 C   0  0  0  0  0  0  0  0  0  0  0  0
    8.7018  -14.2078   17.3580 C   0  0  0  0  0  0  0  0  0  0  0  0
    8.4999  -14.1310   18.8218 C   0  0  0  0  0  0  0  0  0  0  0  0
    9.1210  -15.1909   19.6577 C   0  0  2  0  0  0  0  0  0  0  0  0
    8.5658  -16.4826   19.3850 N   0  0  0  0  0  0  0  0  0  0  0  0
    9.0758  -14.9126   21.1080 C   0  0  0  0  0  0  0  0  0  0  0  0
    9.5462  -13.8681   21.6244 O   0  0  0  0  0  0  0  0  0  0  0  0
    9.7675  -14.3131   13.1468 N   0  0  0  0  0  0  0  0  0  0  0  0
    8.4804  -15.8500   21.9837 C   0  0  1  0  0  0  0  0  0  0  0  0
    8.2641  -15.6406   23.3841 C   0  0  0  0  0  0  0  0  0  0  0  0
    7.0925  -16.3676   23.9702 C   0  0  0  0  0  0  0  0  0  0  0  0
    6.3481  -15.5052   24.8913 C   0  0  0  0  0  0  0  0  0  0  0  0
    5.1512  -15.7205   25.5494 N   0  0  0  0  0  0  0  0  0  0  0  0
    4.8615  -14.6400   26.2910 C   0  0  0  0  0  0  0  0  0  0  0  0
    5.8085  -13.6977   26.1671 C   0  0  0  0  0  0  0  0  0  0  0  0
    5.9427  -12.4409   26.7297 C   0  0  0  0  0  0  0  0  0  0  0  0
    7.0594  -11.6821   26.4050 C   0  0  0  0  0  0  0  0  0  0  0  0
    8.0008  -12.1717   25.5488 C   0  0  0  0  0  0  0  0  0  0  0  0
    7.8337  -13.4416   25.0006 C   0  0  0  0  0  0  0  0  0  0  0  0
    6.7381  -14.2240   25.2996 C   0  0  0  0  0  0  0  0  0  0  0  0
    9.4940  -15.8943   24.1898 O   0  0  0  0  0  0  0  0  0  0  0  0
   10.4944  -16.4275   23.6548 C   0  0  0  0  0  0  0  0  0  0  0  0
   12.1605  -13.7229   29.3362 C   0  0  0  0  0  0  0  0  0  0  0  0
   12.0921  -14.6908   28.1892 C   0  0  2  0  0  0  0  0  0  0  0  0
   10.7762  -14.6074   27.4614 C   0  0  0  0  0  0  0  0  0  0  0  0
    9.5936  -14.7717   28.3589 C   0  0  2  0  0  0  0  0  0  0  0  0
   10.8210  -15.6089   26.3254 N   0  0  0  0  0  0  0  0  0  0  0  0
    9.5895  -15.5537   25.5640 C   0  0  0  0  0  0  0  0  0  0  0  0
   10.9643  -16.9538   26.9084 O   0  0  0  0  0  0  0  0  0  0  0  0
    9.8554  -17.7770   26.9814 O   0  0  0  0  0  0  0  0  0  0  0  0
  2  1  1  0
  3  2  2  0
  4  2  1  0
  5  4  1  0
  6  5  1  0
  7  6  1  0
  7  8  1  0
  8  9  1  1
 10  8  1  0
 11 10  2  0
 12 10  1  0
 13 12  1  0
 13 24  1  0
 13 14  1  1
 15 23  1  0
 15 14  1  0
 16 15  2  0
 17 16  1  0
 17 18  1  0
 18 23  2  0
 19 18  1  0
 19 20  2  0
 20 21  1  0
 21 22  2  0
 23 22  1  0
 24 31  1  0
 25 24  2  0
 26 27  1  0
 28 29  1  6
 28 27  1  0
 30 28  1  0
 30 32  1  0
 30 31  1  1
 32 34  2  0
 32 33  1  0
M  END
$$$$
