RWI.pdb
     RDKit          3D

 34 35  0  0  1  0  0  0  0  0999 V2000
   14.5641  -18.4054   15.9447 N   0  0  0  0  0  0  0  0  0  0  0  0
   13.1638  -18.3842   15.6828 C   0  0  0  0  0  0  0  0  0  0  0  0
   12.5852  -19.3540   15.0610 N   0  0  0  0  0  0  0  0  0  0  0  0
   12.3824  -17.2623   16.1157 N   0  0  0  0  0  0  0  0  0  0  0  0
   10.9522  -17.3742   16.3277 C   0  0  0  0  0  0  0  0  0  0  0  0
   10.7107  -18.0816   17.6133 C   0  0  0  0  0  0  0  0  0  0  0  0
   10.5395  -17.2455   18.8222 C   0  0  0  0  0  0  0  0  0  0  0  0
   10.6408  -17.9185   20.1430 C   0  0  2  0  0  0  0  0  0  0  0  0
    9.8609  -19.1185   20.1943 N   0  0  0  0  0  0  0  0  0  0  0  0
   10.3076  -17.0448   21.2869 C   0  0  0  0  0  0  0  0  0  0  0  0
   10.8878  -15.9534   21.5126 O   0  0  0  0  0  0  0  0  0  0  0  0
   11.5668  -19.4435   14.9933 N   0  0  0  0  0  0  0  0  0  0  0  0
    9.2897  -17.4298   22.1903 C   0  0  1  0  0  0  0  0  0  0  0  0
    8.7590  -16.5988   23.2292 C   0  0  0  0  0  0  0  0  0  0  0  0
    7.2759  -16.6819   23.4254 C   0  0  0  0  0  0  0  0  0  0  0  0
    6.8357  -15.7702   24.4844 C   0  0  0  0  0  0  0  0  0  0  0  0
    6.2570  -16.0366   25.7116 N   0  0  0  0  0  0  0  0  0  0  0  0
    6.0258  -14.8762   26.3452 C   0  0  0  0  0  0  0  0  0  0  0  0
    6.4216  -13.8306   25.6034 C   0  0  0  0  0  0  0  0  0  0  0  0
    6.3886  -12.4669   25.8343 C   0  0  0  0  0  0  0  0  0  0  0  0
    6.8848  -11.6143   24.8570 C   0  0  0  0  0  0  0  0  0  0  0  0
    7.3931  -12.1172   23.6961 C   0  0  0  0  0  0  0  0  0  0  0  0
    7.4107  -13.4961   23.4969 C   0  0  0  0  0  0  0  0  0  0  0  0
    6.9269  -14.3736   24.4444 C   0  0  0  0  0  0  0  0  0  0  0  0
    9.4703  -16.7927   24.5263 O   0  0  0  0  0  0  0  0  0  0  0  0
   10.0128  -17.8927   24.7850 C   0  0  0  0  0  0  0  0  0  0  0  0
   10.1413  -12.2003   27.5705 C   0  0  0  0  0  0  0  0  0  0  0  0
   10.4006  -13.4682   26.8071 C   0  0  2  0  0  0  0  0  0  0  0  0
   10.0736  -14.6916   27.6223 C   0  0  0  0  0  0  0  0  0  0  0  0
   10.8048  -14.7467   28.9237 C   0  0  2  0  0  0  0  0  0  0  0  0
   10.3095  -15.9012   26.7410 N   0  0  0  0  0  0  0  0  0  0  0  0
    9.5653  -15.7693   25.5047 C   0  0  0  0  0  0  0  0  0  0  0  0
    9.8313  -17.0922   27.4636 O   0  0  0  0  0  0  0  0  0  0  0  0
   10.7556  -17.9585   28.0183 O   0  0  0  0  0  0  0  0  0  0  0  0
  2  1  1  0
  3  2  2  0
  4  2  1  0
  5  4  1  0
  6  5  1  0
  7  6  1  0
  7  8  1  0
  8  9  1  6
 10  8  1  0
 11 10  2  0
 12 10  1  0
 13 12  1  0
 13 24  1  0
 13 14  1  1
 15 23  1  0
 15 14  1  0
 16 15  2  0
 17 16  1  0
 17 18  1  0
 18 23  2  0
 19 18  1  0
 19 20  2  0
 20 21  1  0
 21 22  2  0
 23 22  1  0
 24 31  1  0
 25 24  2  0
 26 27  1  0
 28 29  1  1
 28 27  1  0
 30 28  1  0
 30 32  1  0
 30 31  1  6
 32 34  2  0
 32 33  1  0
M  END
$$$$
