RWI.pdb
     RDKit          3D

 34 35  0  0  1  0  0  0  0  0999 V2000
    6.9814  -15.1244   16.2584 N   0  0  0  0  0  0  0  0  0  0  0  0
    8.3217  -14.6563   16.3797 C   0  0  0  0  0  0  0  0  0  0  0  0
    8.6130  -13.4119   16.2114 N   0  0  0  0  0  0  0  0  0  0  0  0
    9.3678  -15.5865   16.6918 N   0  0  0  0  0  0  0  0  0  0  0  0
    9.9413  -15.6602   18.0217 C   0  0  0  0  0  0  0  0  0  0  0  0
    9.5534  -14.4415   18.7807 C   0  0  0  0  0  0  0  0  0  0  0  0
    9.8779  -14.4133   20.2241 C   0  0  0  0  0  0  0  0  0  0  0  0
    9.8239  -15.6997   20.9657 C   0  0  2  0  0  0  0  0  0  0  0  0
    8.6693  -16.4717   20.6162 N   0  0  0  0  0  0  0  0  0  0  0  0
    9.9110  -15.5488   22.4329 C   0  0  0  0  0  0  0  0  0  0  0  0
   10.7054  -14.7564   22.9983 O   0  0  0  0  0  0  0  0  0  0  0  0
    9.5469  -13.0296   16.3884 N   0  0  0  0  0  0  0  0  0  0  0  0
    9.0715  -16.3216   23.2685 C   0  0  1  0  0  0  0  0  0  0  0  0
    8.9268  -16.1363   24.6814 C   0  0  0  0  0  0  0  0  0  0  0  0
    7.5895  -16.5076   25.2457 C   0  0  0  0  0  0  0  0  0  0  0  0
    6.6034  -15.4540   24.9928 C   0  0  0  0  0  0  0  0  0  0  0  0
    5.3934  -15.5020   24.3251 N   0  0  0  0  0  0  0  0  0  0  0  0
    4.8346  -14.2820   24.3483 C   0  0  0  0  0  0  0  0  0  0  0  0
    5.6107  -13.4046   25.0025 C   0  0  0  0  0  0  0  0  0  0  0  0
    5.4547  -12.0581   25.2799 C   0  0  0  0  0  0  0  0  0  0  0  0
    6.4505  -11.4062   25.9951 C   0  0  0  0  0  0  0  0  0  0  0  0
    7.5567  -12.0850   26.4128 C   0  0  0  0  0  0  0  0  0  0  0  0
    7.6811  -13.4405   26.1159 C   0  0  0  0  0  0  0  0  0  0  0  0
    6.7131  -14.1214   25.4080 C   0  0  0  0  0  0  0  0  0  0  0  0
   10.0214  -16.7947   25.4524 O   0  0  0  0  0  0  0  0  0  0  0  0
   10.5683  -17.8298   25.0043 C   0  0  0  0  0  0  0  0  0  0  0  0
   10.7412  -15.4973   30.8911 C   0  0  0  0  0  0  0  0  0  0  0  0
   10.6077  -16.2723   29.6109 C   0  0  2  0  0  0  0  0  0  0  0  0
   11.8124  -16.1026   28.7232 C   0  0  0  0  0  0  0  0  0  0  0  0
   12.1640  -14.6727   28.4718 C   0  0  1  0  0  0  0  0  0  0  0  0
   11.5605  -16.8979   27.4584 N   0  0  0  0  0  0  0  0  0  0  0  0
   10.4849  -16.2953   26.6971 C   0  0  0  0  0  0  0  0  0  0  0  0
   11.1659  -18.2622   27.8486 O   0  0  0  0  0  0  0  0  0  0  0  0
    9.8256  -18.6032   27.8399 O   0  0  0  0  0  0  0  0  0  0  0  0
  2  1  1  0
  3  2  2  0
  4  2  1  0
  5  4  1  0
  6  5  1  0
  7  6  1  0
  7  8  1  0
  8  9  1  1
 10  8  1  0
 11 10  2  0
 12 10  1  0
 13 12  1  0
 13 24  1  0
 13 14  1  1
 15 23  1  0
 15 14  1  0
 16 15  2  0
 17 16  1  0
 17 18  1  0
 18 23  2  0
 19 18  1  0
 19 20  2  0
 20 21  1  0
 21 22  2  0
 23 22  1  0
 24 31  1  0
 25 24  2  0
 26 27  1  0
 28 29  1  1
 28 27  1  0
 30 28  1  0
 30 32  1  0
 30 31  1  1
 32 34  2  0
 32 33  1  0
M  END
$$$$
