RWI.pdb
     RDKit          3D

 34 35  0  0  1  0  0  0  0  0999 V2000
    9.3663  -14.4712   14.8472 N   0  0  0  0  0  0  0  0  0  0  0  0
    8.2657  -13.7300   15.3663 C   0  0  0  0  0  0  0  0  0  0  0  0
    7.2378  -13.4603   14.6366 N   0  0  0  0  0  0  0  0  0  0  0  0
    8.3020  -13.2723   16.7249 N   0  0  0  0  0  0  0  0  0  0  0  0
    8.3390  -14.2040   17.8354 C   0  0  0  0  0  0  0  0  0  0  0  0
    9.6074  -14.9779   17.7715 C   0  0  0  0  0  0  0  0  0  0  0  0
   10.5499  -14.8239   18.9018 C   0  0  0  0  0  0  0  0  0  0  0  0
   10.6572  -15.9500   19.8652 C   0  0  2  0  0  0  0  0  0  0  0  0
    9.8577  -17.0708   19.4707 N   0  0  0  0  0  0  0  0  0  0  0  0
   10.3540  -15.5739   21.2615 C   0  0  0  0  0  0  0  0  0  0  0  0
   10.9294  -14.6321   21.8620 O   0  0  0  0  0  0  0  0  0  0  0  0
    6.3826  -13.0398   15.0127 N   0  0  0  0  0  0  0  0  0  0  0  0
    9.3726  -16.2917   21.9838 C   0  0  2  0  0  0  0  0  0  0  0  0
    8.8215  -15.8864   23.2422 C   0  0  0  0  0  0  0  0  0  0  0  0
    7.3448  -16.0894   23.3935 C   0  0  0  0  0  0  0  0  0  0  0  0
    6.8593  -15.4941   24.6410 C   0  0  0  0  0  0  0  0  0  0  0  0
    6.3666  -16.0926   25.7861 N   0  0  0  0  0  0  0  0  0  0  0  0
    6.0439  -15.1376   26.6722 C   0  0  0  0  0  0  0  0  0  0  0  0
    6.2951  -13.9145   26.1812 C   0  0  0  0  0  0  0  0  0  0  0  0
    6.1302  -12.6500   26.7179 C   0  0  0  0  0  0  0  0  0  0  0  0
    6.4909  -11.5496   25.9517 C   0  0  0  0  0  0  0  0  0  0  0  0
    6.9968  -11.7187   24.6969 C   0  0  0  0  0  0  0  0  0  0  0  0
    7.1494  -13.0066   24.1879 C   0  0  0  0  0  0  0  0  0  0  0  0
    6.8023  -14.1231   24.9192 C   0  0  0  0  0  0  0  0  0  0  0  0
    9.5531  -16.4829   24.3976 O   0  0  0  0  0  0  0  0  0  0  0  0
   10.1146  -17.5970   24.2757 C   0  0  0  0  0  0  0  0  0  0  0  0
   10.2014  -13.0240   28.6385 C   0  0  0  0  0  0  0  0  0  0  0  0
   10.4698  -13.9909   27.5203 C   0  0  2  0  0  0  0  0  0  0  0  0
   10.2985  -15.4209   27.9609 C   0  0  0  0  0  0  0  0  0  0  0  0
   11.1757  -15.7935   29.1111 C   0  0  2  0  0  0  0  0  0  0  0  0
   10.4906  -16.2984   26.7408 N   0  0  0  0  0  0  0  0  0  0  0  0
    9.6468  -15.8363   25.6572 C   0  0  0  0  0  0  0  0  0  0  0  0
   10.0996  -17.6719   27.1007 O   0  0  0  0  0  0  0  0  0  0  0  0
   11.0851  -18.5977   27.3908 O   0  0  0  0  0  0  0  0  0  0  0  0
  2  1  1  0
  3  2  2  0
  4  2  1  0
  5  4  1  0
  6  5  1  0
  7  6  1  0
  7  8  1  0
  8  9  1  6
 10  8  1  0
 11 10  2  0
 12 10  1  0
 13 12  1  0
 13 24  1  0
 13 14  1  1
 15 23  1  0
 15 14  1  0
 16 15  2  0
 17 16  1  0
 17 18  1  0
 18 23  2  0
 19 18  1  0
 19 20  2  0
 20 21  1  0
 21 22  2  0
 23 22  1  0
 24 31  1  0
 25 24  2  0
 26 27  1  0
 28 29  1  1
 28 27  1  0
 30 28  1  0
 30 32  1  0
 30 31  1  6
 32 34  2  0
 32 33  1  0
M  END
$$$$
