RWI.pdb
     RDKit          3D

 34 35  0  0  1  0  0  0  0  0999 V2000
    7.2590  -13.7353   15.3610 N   0  0  0  0  0  0  0  0  0  0  0  0
    8.6511  -13.9195   15.1194 C   0  0  0  0  0  0  0  0  0  0  0  0
    9.1736  -13.6408   13.9744 N   0  0  0  0  0  0  0  0  0  0  0  0
    9.4875  -14.4273   16.1680 N   0  0  0  0  0  0  0  0  0  0  0  0
    8.9322  -15.1595   17.2898 C   0  0  0  0  0  0  0  0  0  0  0  0
    8.4101  -14.1875   18.2870 C   0  0  0  0  0  0  0  0  0  0  0  0
    7.8375  -14.7414   19.5340 C   0  0  0  0  0  0  0  0  0  0  0  0
    8.6707  -15.6987   20.3067 C   0  0  2  0  0  0  0  0  0  0  0  0
    8.1558  -17.0334   20.2391 N   0  0  0  0  0  0  0  0  0  0  0  0
    8.8838  -15.3054   21.7148 C   0  0  0  0  0  0  0  0  0  0  0  0
    9.3962  -14.2096   22.0544 O   0  0  0  0  0  0  0  0  0  0  0  0
   10.1776  -13.7190   13.7864 N   0  0  0  0  0  0  0  0  0  0  0  0
    8.5027  -16.1856   22.7542 C   0  0  1  0  0  0  0  0  0  0  0  0
    8.5713  -15.8811   24.1521 C   0  0  0  0  0  0  0  0  0  0  0  0
    7.4509  -16.4250   24.9850 C   0  0  0  0  0  0  0  0  0  0  0  0
    6.4086  -15.4149   25.1849 C   0  0  0  0  0  0  0  0  0  0  0  0
    5.0320  -15.5226   25.1120 N   0  0  0  0  0  0  0  0  0  0  0  0
    4.4870  -14.3243   25.3735 C   0  0  0  0  0  0  0  0  0  0  0  0
    5.4320  -13.4046   25.6214 C   0  0  0  0  0  0  0  0  0  0  0  0
    5.3544  -12.0594   25.9356 C   0  0  0  0  0  0  0  0  0  0  0  0
    6.5332  -11.3554   26.1431 C   0  0  0  0  0  0  0  0  0  0  0  0
    7.7391  -11.9830   26.0382 C   0  0  0  0  0  0  0  0  0  0  0  0
    7.7801  -13.3389   25.7202 C   0  0  0  0  0  0  0  0  0  0  0  0
    6.6307  -14.0706   25.5072 C   0  0  0  0  0  0  0  0  0  0  0  0
    9.8903  -16.2470   24.7458 O   0  0  0  0  0  0  0  0  0  0  0  0
   10.6774  -16.9899   24.1135 C   0  0  0  0  0  0  0  0  0  0  0  0
   10.4610  -13.9359   29.5257 C   0  0  0  0  0  0  0  0  0  0  0  0
   10.4739  -14.6182   28.1871 C   0  0  2  0  0  0  0  0  0  0  0  0
   11.5790  -15.6364   28.0862 C   0  0  0  0  0  0  0  0  0  0  0  0
   12.9354  -15.0626   28.3357 C   0  0  1  0  0  0  0  0  0  0  0  0
   11.4461  -16.3193   26.7403 N   0  0  0  0  0  0  0  0  0  0  0  0
   10.3075  -15.7848   26.0209 C   0  0  0  0  0  0  0  0  0  0  0  0
   11.2314  -17.7570   26.9774 O   0  0  0  0  0  0  0  0  0  0  0  0
   12.3183  -18.5598   27.2717 O   0  0  0  0  0  0  0  0  0  0  0  0
  2  1  1  0
  3  2  2  0
  4  2  1  0
  5  4  1  0
  6  5  1  0
  7  6  1  0
  7  8  1  0
  8  9  1  1
 10  8  1  0
 11 10  2  0
 12 10  1  0
 13 12  1  0
 13 24  1  0
 13 14  1  1
 15 23  1  0
 15 14  1  0
 16 15  2  0
 17 16  1  0
 17 18  1  0
 18 23  2  0
 19 18  1  0
 19 20  2  0
 20 21  1  0
 21 22  2  0
 23 22  1  0
 24 31  1  0
 25 24  2  0
 26 27  1  0
 28 29  1  1
 28 27  1  0
 30 28  1  0
 30 32  1  0
 30 31  1  6
 32 34  2  0
 32 33  1  0
M  END
$$$$
