YLC.pdb
     RDKit          3D

 27 27  0  0  1  0  0  0  0  0999 V2000
   11.2405  -15.5713   31.9742 O   0  0  0  0  0  0  0  0  0  0  0  0
   10.8601  -15.8810   30.6741 C   0  0  0  0  0  0  0  0  0  0  0  0
   10.9883  -17.1686   30.2211 C   0  0  0  0  0  0  0  0  0  0  0  0
   10.6039  -17.4769   28.9110 C   0  0  0  0  0  0  0  0  0  0  0  0
   10.1027  -16.5034   28.0827 C   0  0  0  0  0  0  0  0  0  0  0  0
    9.7050  -16.8329   26.7095 C   0  0  0  0  0  0  0  0  0  0  0  0
    8.2201  -17.2074   26.7385 C   0  0  2  0  0  0  0  0  0  0  0  0
    8.1629  -18.6556   26.6905 N   0  0  0  0  0  0  0  0  0  0  0  0
    7.5965  -16.6082   25.5288 C   0  0  0  0  0  0  0  0  0  0  0  0
    6.9256  -17.3054   24.7309 O   0  0  0  0  0  0  0  0  0  0  0  0
    9.9824  -15.2230   28.5535 C   0  0  0  0  0  0  0  0  0  0  0  0
   10.3555  -14.8911   29.8469 C   0  0  0  0  0  0  0  0  0  0  0  0
    7.5332  -11.3361   26.2365 C   0  0  0  0  0  0  0  0  0  0  0  0
    7.1168  -12.7751   25.9488 C   0  0  1  0  0  0  0  0  0  0  0  0
    5.6122  -12.7909   26.3107 C   0  0  0  0  0  0  0  0  0  0  0  0
    7.1801  -13.0984   24.5020 C   0  0  0  0  0  0  0  0  0  0  0  0
    7.1111  -14.5606   24.1446 C   0  0  2  0  0  0  0  0  0  0  0  0
    7.7668  -15.2406   25.2850 N   0  0  0  0  0  0  0  0  0  0  0  0
    7.8331  -14.9480   22.9371 C   0  0  0  0  0  0  0  0  0  0  0  0
    7.5054  -14.3838   21.8344 O   0  0  0  0  0  0  0  0  0  0  0  0
    8.8798  -15.9013   22.8599 N   0  0  0  0  0  0  0  0  0  0  0  0
    9.4437  -16.2004   21.5555 C   0  0  1  0  0  0  0  0  0  0  0  0
   10.1542  -14.9718   21.0360 C   0  0  0  0  0  0  0  0  0  0  0  0
   11.2094  -15.3705   19.6192 S   0  0  0  0  0  0  0  0  0  0  0  0
   10.3789  -17.3400   21.6995 C   0  0  0  0  0  0  0  0  0  0  0  0
   10.8011  -17.9673   20.6896 O   0  0  0  0  0  0  0  0  0  0  0  0
   10.8312  -17.7684   22.9365 O   0  0  0  0  0  0  0  0  0  0  0  0
  2  3  2  0
  2  1  1  0
  4  3  1  0
  5  4  2  0
  6  5  1  0
  7  9  1  0
  7  6  1  0
  7  8  1  6
  9 10  2  0
 11  5  1  0
 11 12  2  0
 12  2  1  0
 14 13  1  6
 14 16  1  0
 15 14  1  0
 17 16  1  1
 18  9  1  0
 18 17  1  0
 19 21  1  0
 19 17  1  0
 20 19  2  0
 22 21  1  0
 22 23  1  1
 23 24  1  0
 25 22  1  0
 26 25  2  0
 27 25  1  0
M  END
$$$$
