YLC.pdb
     RDKit          3D

 27 27  0  0  1  0  0  0  0  0999 V2000
    6.5417  -25.1841   20.6815 O   0  0  0  0  0  0  0  0  0  0  0  0
    7.1505  -23.9484   20.8645 C   0  0  0  0  0  0  0  0  0  0  0  0
    6.4196  -22.8022   20.6869 C   0  0  0  0  0  0  0  0  0  0  0  0
    7.0362  -21.5593   20.8722 C   0  0  0  0  0  0  0  0  0  0  0  0
    8.3598  -21.4824   21.2284 C   0  0  0  0  0  0  0  0  0  0  0  0
    9.0005  -20.1762   21.4176 C   0  0  0  0  0  0  0  0  0  0  0  0
    9.0241  -19.4744   20.0563 C   0  0  2  0  0  0  0  0  0  0  0  0
    9.9712  -20.2050   19.2364 N   0  0  0  0  0  0  0  0  0  0  0  0
    9.4866  -18.0811   20.2931 C   0  0  0  0  0  0  0  0  0  0  0  0
   10.6943  -17.7676   20.1677 O   0  0  0  0  0  0  0  0  0  0  0  0
    9.0732  -22.6386   21.4010 C   0  0  0  0  0  0  0  0  0  0  0  0
    8.4866  -23.8823   21.2239 C   0  0  0  0  0  0  0  0  0  0  0  0
    8.5812  -12.7689   19.5856 C   0  0  0  0  0  0  0  0  0  0  0  0
    7.7814  -13.4455   20.6943 C   0  0  1  0  0  0  0  0  0  0  0  0
    6.3421  -12.9243   20.4659 C   0  0  0  0  0  0  0  0  0  0  0  0
    7.7040  -14.9162   20.5122 C   0  0  0  0  0  0  0  0  0  0  0  0
    8.9342  -15.6981   20.8936 C   0  0  2  0  0  0  0  0  0  0  0  0
    8.5494  -17.1092   20.6617 N   0  0  0  0  0  0  0  0  0  0  0  0
    9.3437  -15.5856   22.2897 C   0  0  0  0  0  0  0  0  0  0  0  0
    9.8743  -14.4841   22.6730 O   0  0  0  0  0  0  0  0  0  0  0  0
    9.2100  -16.5890   23.2824 N   0  0  0  0  0  0  0  0  0  0  0  0
    9.5969  -16.2659   24.6444 C   0  0  1  0  0  0  0  0  0  0  0  0
    8.3508  -15.9983   25.4567 C   0  0  0  0  0  0  0  0  0  0  0  0
    7.2057  -17.3996   25.3878 S   0  0  0  0  0  0  0  0  0  0  0  0
   10.3625  -17.4070   25.1972 C   0  0  0  0  0  0  0  0  0  0  0  0
   10.8459  -17.3635   26.3616 O   0  0  0  0  0  0  0  0  0  0  0  0
   10.5830  -18.5656   24.4708 O   0  0  0  0  0  0  0  0  0  0  0  0
  2  3  2  0
  2  1  1  0
  4  3  1  0
  5  4  2  0
  6  5  1  0
  7  9  1  0
  7  6  1  0
  7  8  1  6
  9 10  2  0
 11  5  1  0
 11 12  2  0
 12  2  1  0
 14 13  1  6
 14 16  1  0
 15 14  1  0
 17 16  1  1
 18  9  1  0
 18 17  1  0
 19 21  1  0
 19 17  1  0
 20 19  2  0
 22 21  1  0
 22 23  1  1
 23 24  1  0
 25 22  1  0
 26 25  2  0
 27 25  1  0
M  END
$$$$
