YLC.pdb
     RDKit          3D

 27 27  0  0  1  0  0  0  0  0999 V2000
    6.9051  -13.9617   15.2375 O   0  0  0  0  0  0  0  0  0  0  0  0
    7.1140  -14.3267   16.5619 C   0  0  0  0  0  0  0  0  0  0  0  0
    7.3310  -13.3551   17.5045 C   0  0  0  0  0  0  0  0  0  0  0  0
    7.5407  -13.7265   18.8376 C   0  0  0  0  0  0  0  0  0  0  0  0
    7.5306  -15.0497   19.2039 C   0  0  0  0  0  0  0  0  0  0  0  0
    7.7546  -15.4319   20.6025 C   0  0  0  0  0  0  0  0  0  0  0  0
    9.0068  -14.6939   21.0857 C   0  0  2  0  0  0  0  0  0  0  0  0
   10.1335  -15.3265   20.4274 N   0  0  0  0  0  0  0  0  0  0  0  0
    9.0782  -14.8770   22.5597 C   0  0  0  0  0  0  0  0  0  0  0  0
    9.9204  -15.6480   23.0783 O   0  0  0  0  0  0  0  0  0  0  0  0
    7.3122  -16.0056   18.2479 C   0  0  0  0  0  0  0  0  0  0  0  0
    7.1016  -15.6646   16.9206 C   0  0  0  0  0  0  0  0  0  0  0  0
    8.1193  -12.4075   27.4792 C   0  0  0  0  0  0  0  0  0  0  0  0
    6.9960  -13.1550   26.7677 C   0  0  1  0  0  0  0  0  0  0  0  0
    5.7724  -12.2265   26.9578 C   0  0  0  0  0  0  0  0  0  0  0  0
    7.2131  -13.2298   25.3017 C   0  0  0  0  0  0  0  0  0  0  0  0
    8.3584  -14.0948   24.8432 C   0  0  2  0  0  0  0  0  0  0  0  0
    8.1854  -14.1715   23.3745 N   0  0  0  0  0  0  0  0  0  0  0  0
    8.3561  -15.4629   25.3508 C   0  0  0  0  0  0  0  0  0  0  0  0
    7.3633  -16.2141   25.0481 O   0  0  0  0  0  0  0  0  0  0  0  0
    9.3600  -16.0556   26.1579 N   0  0  0  0  0  0  0  0  0  0  0  0
    9.1756  -17.4307   26.5868 C   0  0  1  0  0  0  0  0  0  0  0  0
    9.8368  -18.3487   25.5847 C   0  0  0  0  0  0  0  0  0  0  0  0
   10.0098  -20.0271   26.2427 S   0  0  0  0  0  0  0  0  0  0  0  0
    9.7742  -17.5860   27.9328 C   0  0  0  0  0  0  0  0  0  0  0  0
   10.4254  -16.6472   28.4679 O   0  0  0  0  0  0  0  0  0  0  0  0
    9.6499  -18.7567   28.6624 O   0  0  0  0  0  0  0  0  0  0  0  0
  2  3  2  0
  2  1  1  0
  4  3  1  0
  5  4  2  0
  6  5  1  0
  7  9  1  0
  7  6  1  0
  7  8  1  6
  9 10  2  0
 11  5  1  0
 11 12  2  0
 12  2  1  0
 14 13  1  1
 14 16  1  0
 15 14  1  0
 17 16  1  1
 18  9  1  0
 18 17  1  0
 19 21  1  0
 19 17  1  0
 20 19  2  0
 22 21  1  0
 22 23  1  6
 23 24  1  0
 25 22  1  0
 26 25  2  0
 27 25  1  0
M  END
$$$$
