YLC.pdb
     RDKit          3D

 27 27  0  0  1  0  0  0  0  0999 V2000
    7.4892  -22.7971   14.6955 O   0  0  0  0  0  0  0  0  0  0  0  0
    8.0581  -21.9115   15.6027 C   0  0  0  0  0  0  0  0  0  0  0  0
    9.4071  -21.9627   15.8418 C   0  0  0  0  0  0  0  0  0  0  0  0
    9.9766  -21.0689   16.7562 C   0  0  0  0  0  0  0  0  0  0  0  0
    9.1969  -20.1477   17.4106 C   0  0  0  0  0  0  0  0  0  0  0  0
    9.8001  -19.2162   18.3703 C   0  0  0  0  0  0  0  0  0  0  0  0
    9.7074  -17.8112   17.7673 C   0  0  2  0  0  0  0  0  0  0  0  0
   10.6256  -17.7868   16.6451 N   0  0  0  0  0  0  0  0  0  0  0  0
   10.1311  -16.8551   18.8245 C   0  0  0  0  0  0  0  0  0  0  0  0
   11.3368  -16.5434   18.9729 O   0  0  0  0  0  0  0  0  0  0  0  0
    7.8513  -20.1121   17.1584 C   0  0  0  0  0  0  0  0  0  0  0  0
    7.2622  -20.9859   16.2574 C   0  0  0  0  0  0  0  0  0  0  0  0
    6.5211  -12.9272   20.2876 C   0  0  0  0  0  0  0  0  0  0  0  0
    7.7726  -13.7119   19.9071 C   0  0  1  0  0  0  0  0  0  0  0  0
    8.8566  -12.6148   19.7772 C   0  0  0  0  0  0  0  0  0  0  0  0
    8.2343  -14.5975   21.0046 C   0  0  0  0  0  0  0  0  0  0  0  0
    9.5106  -15.3576   20.7523 C   0  0  2  0  0  0  0  0  0  0  0  0
    9.1595  -16.2983   19.6639 N   0  0  0  0  0  0  0  0  0  0  0  0
    9.9999  -16.1551   21.8721 C   0  0  0  0  0  0  0  0  0  0  0  0
    9.3974  -17.2551   22.1344 O   0  0  0  0  0  0  0  0  0  0  0  0
   11.0946  -15.8308   22.7126 N   0  0  0  0  0  0  0  0  0  0  0  0
   11.4672  -16.7736   23.7525 C   0  0  1  0  0  0  0  0  0  0  0  0
   12.8673  -16.4546   24.2236 C   0  0  0  0  0  0  0  0  0  0  0  0
   14.0153  -16.3133   22.8300 S   0  0  0  0  0  0  0  0  0  0  0  0
   10.4899  -16.6602   24.8598 C   0  0  0  0  0  0  0  0  0  0  0  0
    9.5222  -15.8535   24.7939 O   0  0  0  0  0  0  0  0  0  0  0  0
   10.5892  -17.4261   26.0096 O   0  0  0  0  0  0  0  0  0  0  0  0
  2  3  2  0
  2  1  1  0
  4  3  1  0
  5  4  2  0
  6  5  1  0
  7  9  1  0
  7  6  1  0
  7  8  1  6
  9 10  2  0
 11  5  1  0
 11 12  2  0
 12  2  1  0
 14 13  1  1
 14 16  1  0
 15 14  1  0
 17 16  1  1
 18  9  1  0
 18 17  1  0
 19 21  1  0
 19 17  1  0
 20 19  2  0
 22 21  1  0
 22 23  1  1
 23 24  1  0
 25 22  1  0
 26 25  2  0
 27 25  1  0
M  END
$$$$
