YLC.pdb
     RDKit          3D

 27 27  0  0  1  0  0  0  0  0999 V2000
    9.3563  -20.4955   27.3875 O   0  0  0  0  0  0  0  0  0  0  0  0
    8.4110  -19.9013   26.5603 C   0  0  0  0  0  0  0  0  0  0  0  0
    7.3733  -20.6523   26.0716 C   0  0  0  0  0  0  0  0  0  0  0  0
    6.4229  -20.0503   25.2388 C   0  0  0  0  0  0  0  0  0  0  0  0
    6.5237  -18.7209   24.9108 C   0  0  0  0  0  0  0  0  0  0  0  0
    5.5258  -18.0974   24.0345 C   0  0  0  0  0  0  0  0  0  0  0  0
    5.6707  -18.7324   22.6482 C   0  0  2  0  0  0  0  0  0  0  0  0
    5.9941  -20.1285   22.8701 N   0  0  0  0  0  0  0  0  0  0  0  0
    6.7862  -18.0287   21.9616 C   0  0  0  0  0  0  0  0  0  0  0  0
    7.7365  -18.6649   21.4470 O   0  0  0  0  0  0  0  0  0  0  0  0
    7.5675  -17.9875   25.4087 C   0  0  0  0  0  0  0  0  0  0  0  0
    8.5221  -18.5593   26.2357 C   0  0  0  0  0  0  0  0  0  0  0  0
    8.1517  -13.9480   18.7006 C   0  0  0  0  0  0  0  0  0  0  0  0
    8.0316  -13.5589   20.1706 C   0  0  1  0  0  0  0  0  0  0  0  0
    7.2061  -12.2504   20.1276 C   0  0  0  0  0  0  0  0  0  0  0  0
    7.2067  -14.5230   20.9400 C   0  0  0  0  0  0  0  0  0  0  0  0
    7.8359  -15.8643   21.2145 C   0  0  2  0  0  0  0  0  0  0  0  0
    6.7661  -16.6309   21.8934 N   0  0  0  0  0  0  0  0  0  0  0  0
    8.9893  -15.8473   22.1083 C   0  0  0  0  0  0  0  0  0  0  0  0
   10.0934  -15.3814   21.6549 O   0  0  0  0  0  0  0  0  0  0  0  0
    9.0114  -16.3007   23.4515 N   0  0  0  0  0  0  0  0  0  0  0  0
   10.2129  -16.0739   24.2350 C   0  0  1  0  0  0  0  0  0  0  0  0
    9.8147  -15.6521   25.6306 C   0  0  0  0  0  0  0  0  0  0  0  0
    8.4954  -14.4120   25.5930 S   0  0  0  0  0  0  0  0  0  0  0  0
   11.0009  -17.3278   24.2580 C   0  0  0  0  0  0  0  0  0  0  0  0
   10.6578  -18.3251   23.5657 O   0  0  0  0  0  0  0  0  0  0  0  0
   12.1411  -17.4658   25.0323 O   0  0  0  0  0  0  0  0  0  0  0  0
  2  3  2  0
  2  1  1  0
  4  3  1  0
  5  4  2  0
  6  5  1  0
  7  9  1  0
  7  6  1  0
  7  8  1  1
  9 10  2  0
 11  5  1  0
 11 12  2  0
 12  2  1  0
 14 13  1  6
 14 16  1  0
 15 14  1  0
 17 16  1  1
 18  9  1  0
 18 17  1  0
 19 21  1  0
 19 17  1  0
 20 19  2  0
 22 21  1  0
 22 23  1  1
 23 24  1  0
 25 22  1  0
 26 25  2  0
 27 25  1  0
M  END
$$$$
