YLC.pdb
     RDKit          3D

 27 27  0  0  1  0  0  0  0  0999 V2000
    9.6100  -20.8270   30.3923 O   0  0  0  0  0  0  0  0  0  0  0  0
    9.0645  -20.7007   29.1205 C   0  0  0  0  0  0  0  0  0  0  0  0
    8.1293  -21.6076   28.6933 C   0  0  0  0  0  0  0  0  0  0  0  0
    7.5820  -21.4771   27.4116 C   0  0  0  0  0  0  0  0  0  0  0  0
    7.9741  -20.4530   26.5856 C   0  0  0  0  0  0  0  0  0  0  0  0
    7.3987  -20.3243   25.2421 C   0  0  0  0  0  0  0  0  0  0  0  0
    6.1359  -19.4660   25.3633 C   0  0  2  0  0  0  0  0  0  0  0  0
    5.0827  -20.1896   24.6778 N   0  0  0  0  0  0  0  0  0  0  0  0
    6.4222  -18.1727   24.6874 C   0  0  0  0  0  0  0  0  0  0  0  0
    6.3082  -18.0503   23.4445 O   0  0  0  0  0  0  0  0  0  0  0  0
    8.9097  -19.5572   27.0303 C   0  0  0  0  0  0  0  0  0  0  0  0
    9.4673  -19.6636   28.2953 C   0  0  0  0  0  0  0  0  0  0  0  0
    6.2950  -12.6695   24.8484 C   0  0  0  0  0  0  0  0  0  0  0  0
    7.3552  -13.3803   25.6836 C   0  0  1  0  0  0  0  0  0  0  0  0
    7.2941  -12.6418   27.0424 C   0  0  0  0  0  0  0  0  0  0  0  0
    6.9858  -14.7866   25.9796 C   0  0  0  0  0  0  0  0  0  0  0  0
    7.1626  -15.7709   24.8526 C   0  0  2  0  0  0  0  0  0  0  0  0
    6.8253  -17.0782   25.4609 N   0  0  0  0  0  0  0  0  0  0  0  0
    8.5161  -15.8791   24.3181 C   0  0  0  0  0  0  0  0  0  0  0  0
    9.3744  -16.5540   24.9886 O   0  0  0  0  0  0  0  0  0  0  0  0
    8.9850  -15.3041   23.1099 N   0  0  0  0  0  0  0  0  0  0  0  0
   10.1920  -15.8469   22.5120 C   0  0  1  0  0  0  0  0  0  0  0  0
   10.2482  -15.4319   21.0599 C   0  0  0  0  0  0  0  0  0  0  0  0
    8.7149  -15.8548   20.1939 S   0  0  0  0  0  0  0  0  0  0  0  0
   11.3598  -15.3307   23.2629 C   0  0  0  0  0  0  0  0  0  0  0  0
   11.2088  -14.5847   24.2689 O   0  0  0  0  0  0  0  0  0  0  0  0
   12.6610  -15.6385   22.9015 O   0  0  0  0  0  0  0  0  0  0  0  0
  2  3  2  0
  2  1  1  0
  4  3  1  0
  5  4  2  0
  6  5  1  0
  7  9  1  0
  7  6  1  0
  7  8  1  6
  9 10  2  0
 11  5  1  0
 11 12  2  0
 12  2  1  0
 14 13  1  6
 14 16  1  0
 15 14  1  0
 17 16  1  1
 18  9  1  0
 18 17  1  0
 19 21  1  0
 19 17  1  0
 20 19  2  0
 22 21  1  0
 22 23  1  6
 23 24  1  0
 25 22  1  0
 26 25  2  0
 27 25  1  0
M  END
$$$$
