YLC.pdb
     RDKit          3D

 27 27  0  0  1  0  0  0  0  0999 V2000
    9.9828  -14.1381   31.0160 O   0  0  0  0  0  0  0  0  0  0  0  0
    9.9670  -14.5773   29.6977 C   0  0  0  0  0  0  0  0  0  0  0  0
   10.2622  -15.8866   29.4182 C   0  0  0  0  0  0  0  0  0  0  0  0
   10.2451  -16.3255   28.0892 C   0  0  0  0  0  0  0  0  0  0  0  0
    9.9365  -15.4578   27.0710 C   0  0  0  0  0  0  0  0  0  0  0  0
    9.9238  -15.9239   25.6799 C   0  0  0  0  0  0  0  0  0  0  0  0
    8.4617  -15.9766   25.2262 C   0  0  2  0  0  0  0  0  0  0  0  0
    7.8307  -17.0264   26.0025 N   0  0  0  0  0  0  0  0  0  0  0  0
    8.4674  -16.3136   23.7779 C   0  0  0  0  0  0  0  0  0  0  0  0
    8.2057  -17.4737   23.3800 O   0  0  0  0  0  0  0  0  0  0  0  0
    9.6444  -14.1537   27.3703 C   0  0  0  0  0  0  0  0  0  0  0  0
    9.6541  -13.6935   28.6781 C   0  0  0  0  0  0  0  0  0  0  0  0
    7.6427  -12.0817   20.3225 C   0  0  0  0  0  0  0  0  0  0  0  0
    7.5955  -13.4506   20.9939 C   0  0  1  0  0  0  0  0  0  0  0  0
    6.4808  -14.1915   20.2169 C   0  0  0  0  0  0  0  0  0  0  0  0
    8.8328  -14.2345   20.7561 C   0  0  0  0  0  0  0  0  0  0  0  0
    8.8914  -15.5948   21.4014 C   0  0  2  0  0  0  0  0  0  0  0  0
    8.7711  -15.3111   22.8498 N   0  0  0  0  0  0  0  0  0  0  0  0
   10.1365  -16.3305   21.2069 C   0  0  0  0  0  0  0  0  0  0  0  0
   11.1891  -15.8953   21.7936 O   0  0  0  0  0  0  0  0  0  0  0  0
   10.3015  -17.4995   20.4217 N   0  0  0  0  0  0  0  0  0  0  0  0
   11.6261  -18.0883   20.3335 C   0  0  1  0  0  0  0  0  0  0  0  0
   11.5453  -19.5392   20.7488 C   0  0  0  0  0  0  0  0  0  0  0  0
   10.9572  -19.7050   22.4536 S   0  0  0  0  0  0  0  0  0  0  0  0
   12.1059  -17.9557   18.9385 C   0  0  0  0  0  0  0  0  0  0  0  0
   11.4014  -17.3885   18.0589 O   0  0  0  0  0  0  0  0  0  0  0  0
   13.3383  -18.4424   18.5352 O   0  0  0  0  0  0  0  0  0  0  0  0
  2  3  2  0
  2  1  1  0
  4  3  1  0
  5  4  2  0
  6  5  1  0
  7  9  1  0
  7  6  1  0
  7  8  1  1
  9 10  2  0
 11  5  1  0
 11 12  2  0
 12  2  1  0
 14 13  1  6
 14 16  1  0
 15 14  1  0
 17 16  1  6
 18  9  1  0
 18 17  1  0
 19 21  1  0
 19 17  1  0
 20 19  2  0
 22 21  1  0
 22 23  1  6
 23 24  1  0
 25 22  1  0
 26 25  2  0
 27 25  1  0
M  END
$$$$
