YLC.pdb
     RDKit          3D

 27 27  0  0  1  0  0  0  0  0999 V2000
    7.7718  -14.7544   15.7685 O   0  0  0  0  0  0  0  0  0  0  0  0
    7.9512  -14.4900   17.1209 C   0  0  0  0  0  0  0  0  0  0  0  0
    7.6814  -13.2364   17.6059 C   0  0  0  0  0  0  0  0  0  0  0  0
    7.8631  -12.9739   18.9687 C   0  0  0  0  0  0  0  0  0  0  0  0
    8.3071  -13.9582   19.8166 C   0  0  0  0  0  0  0  0  0  0  0  0
    8.4985  -13.6750   21.2433 C   0  0  0  0  0  0  0  0  0  0  0  0
    8.7755  -15.0089   21.9435 C   0  0  2  0  0  0  0  0  0  0  0  0
    7.5457  -15.7735   21.8673 N   0  0  0  0  0  0  0  0  0  0  0  0
    9.1228  -14.6955   23.3550 C   0  0  0  0  0  0  0  0  0  0  0  0
   10.2646  -14.2807   23.6662 O   0  0  0  0  0  0  0  0  0  0  0  0
    8.5712  -15.2041   19.3132 C   0  0  0  0  0  0  0  0  0  0  0  0
    8.3994  -15.4905   17.9675 C   0  0  0  0  0  0  0  0  0  0  0  0
    5.7371  -11.9694   26.3692 C   0  0  0  0  0  0  0  0  0  0  0  0
    7.0508  -12.5628   25.8701 C   0  0  1  0  0  0  0  0  0  0  0  0
    8.1236  -11.7382   26.6212 C   0  0  0  0  0  0  0  0  0  0  0  0
    7.2401  -13.9639   26.3208 C   0  0  0  0  0  0  0  0  0  0  0  0
    8.4542  -14.6761   25.7834 C   0  0  2  0  0  0  0  0  0  0  0  0
    8.1509  -14.8696   24.3469 N   0  0  0  0  0  0  0  0  0  0  0  0
    8.7134  -15.9947   26.3520 C   0  0  0  0  0  0  0  0  0  0  0  0
    8.8106  -16.0908   27.6260 O   0  0  0  0  0  0  0  0  0  0  0  0
    8.8698  -17.2015   25.6245 N   0  0  0  0  0  0  0  0  0  0  0  0
    9.1944  -18.4113   26.3593 C   0  0  1  0  0  0  0  0  0  0  0  0
    8.2228  -19.4995   25.9642 C   0  0  0  0  0  0  0  0  0  0  0  0
    6.5292  -19.0781   26.4479 S   0  0  0  0  0  0  0  0  0  0  0  0
   10.5886  -18.7948   26.0383 C   0  0  0  0  0  0  0  0  0  0  0  0
   11.2827  -18.1130   25.2353 O   0  0  0  0  0  0  0  0  0  0  0  0
   11.1924  -19.9086   26.5979 O   0  0  0  0  0  0  0  0  0  0  0  0
  2  3  2  0
  2  1  1  0
  4  3  1  0
  5  4  2  0
  6  5  1  0
  7  9  1  0
  7  6  1  0
  7  8  1  1
  9 10  2  0
 11  5  1  0
 11 12  2  0
 12  2  1  0
 14 13  1  1
 14 16  1  0
 15 14  1  0
 17 16  1  1
 18  9  1  0
 18 17  1  0
 19 21  1  0
 19 17  1  0
 20 19  2  0
 22 21  1  0
 22 23  1  6
 23 24  1  0
 25 22  1  0
 26 25  2  0
 27 25  1  0
M  END
$$$$
