YLC.pdb
     RDKit          3D

 27 27  0  0  1  0  0  0  0  0999 V2000
   13.0058  -16.8899   31.5437 O   0  0  0  0  0  0  0  0  0  0  0  0
   12.3701  -17.0397   30.3171 C   0  0  0  0  0  0  0  0  0  0  0  0
   11.5650  -16.0349   29.8462 C   0  0  0  0  0  0  0  0  0  0  0  0
   10.9264  -16.1893   28.6102 C   0  0  0  0  0  0  0  0  0  0  0  0
   11.1008  -17.3336   27.8720 C   0  0  0  0  0  0  0  0  0  0  0  0
   10.4256  -17.4901   26.5789 C   0  0  0  0  0  0  0  0  0  0  0  0
    9.0373  -18.0760   26.8533 C   0  0  2  0  0  0  0  0  0  0  0  0
    9.0695  -19.4445   26.3745 N   0  0  0  0  0  0  0  0  0  0  0  0
    8.0613  -17.2629   26.0803 C   0  0  0  0  0  0  0  0  0  0  0  0
    7.2771  -17.7964   25.2598 O   0  0  0  0  0  0  0  0  0  0  0  0
   11.9089  -18.3261   28.3594 C   0  0  0  0  0  0  0  0  0  0  0  0
   12.5530  -18.1984   29.5805 C   0  0  0  0  0  0  0  0  0  0  0  0
    5.2120  -12.3900   26.2465 C   0  0  0  0  0  0  0  0  0  0  0  0
    6.5439  -12.5255   25.5155 C   0  0  1  0  0  0  0  0  0  0  0  0
    7.2880  -11.2192   25.8833 C   0  0  0  0  0  0  0  0  0  0  0  0
    7.3760  -13.6242   26.0654 C   0  0  0  0  0  0  0  0  0  0  0  0
    7.0299  -15.0153   25.6016 C   0  0  2  0  0  0  0  0  0  0  0  0
    8.0245  -15.8781   26.2794 N   0  0  0  0  0  0  0  0  0  0  0  0
    7.1592  -15.2510   24.1674 C   0  0  0  0  0  0  0  0  0  0  0  0
    6.0871  -15.4326   23.4896 O   0  0  0  0  0  0  0  0  0  0  0  0
    8.3724  -15.2985   23.4352 N   0  0  0  0  0  0  0  0  0  0  0  0
    8.3032  -15.2620   21.9851 C   0  0  1  0  0  0  0  0  0  0  0  0
    7.7683  -13.9157   21.5544 C   0  0  0  0  0  0  0  0  0  0  0  0
    7.8215  -13.7309   19.7536 S   0  0  0  0  0  0  0  0  0  0  0  0
    9.6624  -15.4967   21.4451 C   0  0  0  0  0  0  0  0  0  0  0  0
   10.6704  -15.5123   22.2035 O   0  0  0  0  0  0  0  0  0  0  0  0
    9.8912  -15.7084   20.0955 O   0  0  0  0  0  0  0  0  0  0  0  0
  2  3  2  0
  2  1  1  0
  4  3  1  0
  5  4  2  0
  6  5  1  0
  7  9  1  0
  7  6  1  0
  7  8  1  6
  9 10  2  0
 11  5  1  0
 11 12  2  0
 12  2  1  0
 14 13  1  1
 14 16  1  0
 15 14  1  0
 17 16  1  6
 18  9  1  0
 18 17  1  0
 19 21  1  0
 19 17  1  0
 20 19  2  0
 22 21  1  0
 22 23  1  1
 23 24  1  0
 25 22  1  0
 26 25  2  0
 27 25  1  0
M  END
$$$$
