YLC.pdb
     RDKit          3D

 27 27  0  0  1  0  0  0  0  0999 V2000
    6.4569  -19.0745   16.9053 O   0  0  0  0  0  0  0  0  0  0  0  0
    6.9376  -18.6158   18.1258 C   0  0  0  0  0  0  0  0  0  0  0  0
    8.1250  -19.1010   18.6098 C   0  0  0  0  0  0  0  0  0  0  0  0
    8.6060  -18.6365   19.8395 C   0  0  0  0  0  0  0  0  0  0  0  0
    7.8999  -17.7041   20.5587 C   0  0  0  0  0  0  0  0  0  0  0  0
    8.4085  -17.2243   21.8485 C   0  0  0  0  0  0  0  0  0  0  0  0
    8.4874  -15.6965   21.7717 C   0  0  2  0  0  0  0  0  0  0  0  0
    9.4483  -15.3888   20.7301 N   0  0  0  0  0  0  0  0  0  0  0  0
    8.9646  -15.2184   23.0964 C   0  0  0  0  0  0  0  0  0  0  0  0
   10.1877  -15.0744   23.3328 O   0  0  0  0  0  0  0  0  0  0  0  0
    6.7159  -17.2316   20.0585 C   0  0  0  0  0  0  0  0  0  0  0  0
    6.2172  -17.6749   18.8431 C   0  0  0  0  0  0  0  0  0  0  0  0
    5.6290  -11.8510   26.1405 C   0  0  0  0  0  0  0  0  0  0  0  0
    6.8751  -12.4380   25.4852 C   0  0  1  0  0  0  0  0  0  0  0  0
    8.0168  -11.5407   26.0204 C   0  0  0  0  0  0  0  0  0  0  0  0
    7.1785  -13.8035   25.9805 C   0  0  0  0  0  0  0  0  0  0  0  0
    8.4262  -14.4465   25.4328 C   0  0  2  0  0  0  0  0  0  0  0  0
    8.0241  -14.9261   24.0908 N   0  0  0  0  0  0  0  0  0  0  0  0
    8.9166  -15.6027   26.1760 C   0  0  0  0  0  0  0  0  0  0  0  0
    9.4188  -15.4011   27.3374 O   0  0  0  0  0  0  0  0  0  0  0  0
    8.8914  -16.9502   25.7355 N   0  0  0  0  0  0  0  0  0  0  0  0
    9.3329  -17.9835   26.6555 C   0  0  1  0  0  0  0  0  0  0  0  0
    8.4949  -19.2224   26.4386 C   0  0  0  0  0  0  0  0  0  0  0  0
    6.7366  -18.8844   26.7107 S   0  0  0  0  0  0  0  0  0  0  0  0
   10.7668  -18.2549   26.4021 C   0  0  0  0  0  0  0  0  0  0  0  0
   11.4246  -17.5628   25.5776 O   0  0  0  0  0  0  0  0  0  0  0  0
   11.4488  -19.2710   27.0510 O   0  0  0  0  0  0  0  0  0  0  0  0
  2  3  2  0
  2  1  1  0
  4  3  1  0
  5  4  2  0
  6  5  1  0
  7  9  1  0
  7  6  1  0
  7  8  1  6
  9 10  2  0
 11  5  1  0
 11 12  2  0
 12  2  1  0
 14 13  1  1
 14 16  1  0
 15 14  1  0
 17 16  1  1
 18  9  1  0
 18 17  1  0
 19 21  1  0
 19 17  1  0
 20 19  2  0
 22 21  1  0
 22 23  1  6
 23 24  1  0
 25 22  1  0
 26 25  2  0
 27 25  1  0
M  END
$$$$
