VMR.pdb
     RDKit          3D

 27 26  0  0  1  0  0  0  0  0999 V2000
   26.8529  -17.9240  -14.0572 C   0  0  0  0  0  0  0  0  0  0  0  0
   27.6342  -18.9893  -14.7708 C   0  0  1  0  0  0  0  0  0  0  0  0
   28.7921  -18.4242  -15.5568 C   0  0  0  0  0  0  0  0  0  0  0  0
   28.0743  -20.0405  -13.7692 C   0  0  2  0  0  0  0  0  0  0  0  0
   28.7381  -21.1479  -14.4443 N   0  0  0  0  0  0  0  0  0  0  0  0
   26.8556  -20.5566  -13.1198 C   0  0  0  0  0  0  0  0  0  0  0  0
   26.0796  -21.2895  -13.7639 O   0  0  0  0  0  0  0  0  0  0  0  0
   27.9225  -20.5026   -6.3749 C   0  0  0  0  0  0  0  0  0  0  0  0
   26.5619  -19.8829   -7.3922 S   0  0  0  0  0  0  0  0  0  0  0  0
   26.2413  -20.9801   -8.7562 C   0  0  0  0  0  0  0  0  0  0  0  0
   25.1320  -20.5542   -9.6872 C   0  0  0  0  0  0  0  0  0  0  0  0
   25.3426  -20.8080  -11.1150 C   0  0  2  0  0  0  0  0  0  0  0  0
   26.4609  -20.2938  -11.7847 N   0  0  0  0  0  0  0  0  0  0  0  0
   24.1212  -20.4180  -11.8687 C   0  0  0  0  0  0  0  0  0  0  0  0
   23.9387  -19.2146  -12.1777 O   0  0  0  0  0  0  0  0  0  0  0  0
   24.8829  -25.2465  -15.8406 N   0  0  0  0  0  0  0  0  0  0  0  0
   23.5878  -25.8437  -15.7790 C   0  0  0  0  0  0  0  0  0  0  0  0
   23.4556  -27.0960  -15.5826 N   0  0  0  0  0  0  0  0  0  0  0  0
   22.4001  -25.0741  -15.9325 N   0  0  0  0  0  0  0  0  0  0  0  0
   22.4314  -23.6340  -15.9052 C   0  0  0  0  0  0  0  0  0  0  0  0
   22.1911  -23.0210  -14.5764 C   0  0  0  0  0  0  0  0  0  0  0  0
   22.2012  -21.5762  -14.4018 C   0  0  0  0  0  0  0  0  0  0  0  0
   21.9548  -20.8891  -13.1211 C   0  0  2  0  0  0  0  0  0  0  0  0
   23.1327  -21.3415  -12.2666 N   0  0  0  0  0  0  0  0  0  0  0  0
   20.7529  -21.2258  -12.3609 C   0  0  0  0  0  0  0  0  0  0  0  0
   20.8703  -21.8858  -11.2529 O   0  0  0  0  0  0  0  0  0  0  0  0
   19.4600  -20.9143  -12.6797 O   0  0  0  0  0  0  0  0  0  0  0  0
  2  1  1  1
  2  3  1  0
  4  6  1  0
  4  2  1  0
  4  5  1  6
  6  7  2  0
  9  8  1  0
 10  9  1  0
 11 10  1  0
 12 11  1  1
 13  6  1  0
 13 12  1  0
 14 15  2  0
 14 12  1  0
 16 17  1  0
 17 18  2  0
 19 17  1  0
 19 20  1  0
 20 21  1  0
 21 22  1  0
 23 22  1  6
 23 24  1  0
 24 14  1  0
 25 23  1  0
 25 27  1  0
 26 25  2  0
M  END
$$$$
