VMR.pdb
     RDKit          3D

 27 26  0  0  1  0  0  0  0  0999 V2000
   28.4722  -21.6709  -13.9280 C   0  0  0  0  0  0  0  0  0  0  0  0
   28.8031  -20.2831  -13.4598 C   0  0  1  0  0  0  0  0  0  0  0  0
   29.4946  -19.4666  -14.5242 C   0  0  0  0  0  0  0  0  0  0  0  0
   27.5405  -19.6150  -12.9485 C   0  0  2  0  0  0  0  0  0  0  0  0
   27.8029  -18.2281  -12.5872 N   0  0  0  0  0  0  0  0  0  0  0  0
   27.1283  -20.3409  -11.7333 C   0  0  0  0  0  0  0  0  0  0  0  0
   26.7267  -21.5173  -11.8270 O   0  0  0  0  0  0  0  0  0  0  0  0
   27.3115  -19.5953   -4.8459 C   0  0  0  0  0  0  0  0  0  0  0  0
   28.7532  -19.7625   -5.9248 S   0  0  0  0  0  0  0  0  0  0  0  0
   28.2647  -20.2690   -7.5594 C   0  0  0  0  0  0  0  0  0  0  0  0
   26.8408  -19.9459   -7.9425 C   0  0  0  0  0  0  0  0  0  0  0  0
   26.4351  -20.2947   -9.3066 C   0  0  2  0  0  0  0  0  0  0  0  0
   27.1428  -19.8162  -10.4174 N   0  0  0  0  0  0  0  0  0  0  0  0
   24.9954  -19.9695   -9.4893 C   0  0  0  0  0  0  0  0  0  0  0  0
   24.6499  -18.7851   -9.7236 O   0  0  0  0  0  0  0  0  0  0  0  0
   19.1945  -23.1904  -13.1029 N   0  0  0  0  0  0  0  0  0  0  0  0
   19.2024  -22.1449  -14.0748 C   0  0  0  0  0  0  0  0  0  0  0  0
   18.1319  -21.8071  -14.6782 N   0  0  0  0  0  0  0  0  0  0  0  0
   20.3941  -21.4412  -14.4082 N   0  0  0  0  0  0  0  0  0  0  0  0
   21.5853  -21.5627  -13.6068 C   0  0  0  0  0  0  0  0  0  0  0  0
   21.4559  -21.0940  -12.2058 C   0  0  0  0  0  0  0  0  0  0  0  0
   22.5820  -21.1536  -11.2859 C   0  0  0  0  0  0  0  0  0  0  0  0
   22.5685  -20.6123   -9.9149 C   0  0  2  0  0  0  0  0  0  0  0  0
   23.9709  -20.9355   -9.4137 N   0  0  0  0  0  0  0  0  0  0  0  0
   21.6483  -21.1910   -8.9380 C   0  0  0  0  0  0  0  0  0  0  0  0
   20.3913  -20.8849   -8.9953 O   0  0  0  0  0  0  0  0  0  0  0  0
   21.9561  -22.0594   -7.9273 O   0  0  0  0  0  0  0  0  0  0  0  0
  2  1  1  6
  2  3  1  0
  4  6  1  0
  4  2  1  0
  4  5  1  1
  6  7  2  0
  9  8  1  0
 10  9  1  0
 11 10  1  0
 12 11  1  1
 13  6  1  0
 13 12  1  0
 14 15  2  0
 14 12  1  0
 16 17  1  0
 17 18  2  0
 19 17  1  0
 19 20  1  0
 20 21  1  0
 21 22  1  0
 23 22  1  6
 23 24  1  0
 24 14  1  0
 25 23  1  0
 25 27  1  0
 26 25  2  0
M  END
$$$$
