VMR.pdb
     RDKit          3D

 27 26  0  0  1  0  0  0  0  0999 V2000
   23.8135  -19.8279  -14.8745 C   0  0  0  0  0  0  0  0  0  0  0  0
   24.7835  -20.7593  -15.5425 C   0  0  1  0  0  0  0  0  0  0  0  0
   25.0760  -20.3595  -16.9682 C   0  0  0  0  0  0  0  0  0  0  0  0
   26.0417  -20.8570  -14.7004 C   0  0  2  0  0  0  0  0  0  0  0  0
   26.9422  -21.8692  -15.2368 N   0  0  0  0  0  0  0  0  0  0  0  0
   25.6266  -21.2748  -13.3489 C   0  0  0  0  0  0  0  0  0  0  0  0
   25.2925  -22.4588  -13.1474 O   0  0  0  0  0  0  0  0  0  0  0  0
   27.7135  -20.0316   -6.9860 C   0  0  0  0  0  0  0  0  0  0  0  0
   25.9251  -19.7627   -6.9828 S   0  0  0  0  0  0  0  0  0  0  0  0
   25.1676  -20.5299   -8.3987 C   0  0  0  0  0  0  0  0  0  0  0  0
   25.7363  -20.1288   -9.7382 C   0  0  0  0  0  0  0  0  0  0  0  0
   25.1648  -20.7881  -10.9155 C   0  0  2  0  0  0  0  0  0  0  0  0
   25.5665  -20.4337  -12.2103 N   0  0  0  0  0  0  0  0  0  0  0  0
   23.6808  -20.7171  -10.8464 C   0  0  0  0  0  0  0  0  0  0  0  0
   23.0803  -19.7391  -11.3561 O   0  0  0  0  0  0  0  0  0  0  0  0
   17.6952  -24.2442   -6.3219 N   0  0  0  0  0  0  0  0  0  0  0  0
   17.0552  -24.5326   -7.5648 C   0  0  0  0  0  0  0  0  0  0  0  0
   15.7846  -24.5216   -7.6623 N   0  0  0  0  0  0  0  0  0  0  0  0
   17.8011  -24.8417   -8.7373 N   0  0  0  0  0  0  0  0  0  0  0  0
   19.2114  -24.5599   -8.8244 C   0  0  0  0  0  0  0  0  0  0  0  0
   19.5589  -23.2503   -9.4272 C   0  0  0  0  0  0  0  0  0  0  0  0
   20.9452  -22.8283   -9.5609 C   0  0  0  0  0  0  0  0  0  0  0  0
   21.3745  -21.5536  -10.1644 C   0  0  2  0  0  0  0  0  0  0  0  0
   22.8893  -21.7069  -10.2279 N   0  0  0  0  0  0  0  0  0  0  0  0
   21.1256  -20.3107   -9.4370 C   0  0  0  0  0  0  0  0  0  0  0  0
   20.0988  -19.5879   -9.7538 O   0  0  0  0  0  0  0  0  0  0  0  0
   21.8680  -19.7904   -8.4131 O   0  0  0  0  0  0  0  0  0  0  0  0
  2  1  1  1
  2  3  1  0
  4  6  1  0
  4  2  1  0
  4  5  1  6
  6  7  2  0
  9  8  1  0
 10  9  1  0
 11 10  1  0
 12 11  1  1
 13  6  1  0
 13 12  1  0
 14 15  2  0
 14 12  1  0
 16 17  1  0
 17 18  2  0
 19 17  1  0
 19 20  1  0
 20 21  1  0
 21 22  1  0
 23 22  1  1
 23 24  1  0
 24 14  1  0
 25 23  1  0
 25 27  1  0
 26 25  2  0
M  END
$$$$
