VMR.pdb
     RDKit          3D

 27 26  0  0  1  0  0  0  0  0999 V2000
   24.6473  -10.5358  -14.5450 C   0  0  0  0  0  0  0  0  0  0  0  0
   25.7483  -10.6186  -15.5628 C   0  0  1  0  0  0  0  0  0  0  0  0
   25.4964  -11.6887  -16.5968 C   0  0  0  0  0  0  0  0  0  0  0  0
   25.9555   -9.2508  -16.1858 C   0  0  2  0  0  0  0  0  0  0  0  0
   24.7929   -8.8633  -16.9739 N   0  0  0  0  0  0  0  0  0  0  0  0
   27.1143   -9.3584  -17.0907 C   0  0  0  0  0  0  0  0  0  0  0  0
   26.9303   -9.6141  -18.2969 O   0  0  0  0  0  0  0  0  0  0  0  0
   33.4586   -7.3105  -16.0880 C   0  0  0  0  0  0  0  0  0  0  0  0
   33.6447   -8.4539  -17.4766 S   0  0  0  0  0  0  0  0  0  0  0  0
   32.0561   -9.0059  -18.0587 C   0  0  0  0  0  0  0  0  0  0  0  0
   30.9162   -8.8551  -17.0806 C   0  0  0  0  0  0  0  0  0  0  0  0
   29.5979   -9.3018  -17.5384 C   0  0  2  0  0  0  0  0  0  0  0  0
   28.4701   -9.1941  -16.7137 N   0  0  0  0  0  0  0  0  0  0  0  0
   29.6953  -10.7046  -18.0228 C   0  0  0  0  0  0  0  0  0  0  0  0
   29.6757  -11.6507  -17.1973 O   0  0  0  0  0  0  0  0  0  0  0  0
   24.5633  -14.2557  -23.7709 N   0  0  0  0  0  0  0  0  0  0  0  0
   25.4344  -15.3418  -23.4560 C   0  0  0  0  0  0  0  0  0  0  0  0
   25.1768  -16.5229  -23.8595 N   0  0  0  0  0  0  0  0  0  0  0  0
   26.6168  -15.1544  -22.6857 N   0  0  0  0  0  0  0  0  0  0  0  0
   26.8887  -13.9048  -22.0219 C   0  0  0  0  0  0  0  0  0  0  0  0
   28.1756  -13.8456  -21.2872 C   0  0  0  0  0  0  0  0  0  0  0  0
   28.5871  -12.6377  -20.5877 C   0  0  0  0  0  0  0  0  0  0  0  0
   29.8376  -12.5045  -19.8184 C   0  0  2  0  0  0  0  0  0  0  0  0
   29.8108  -11.0432  -19.3868 N   0  0  0  0  0  0  0  0  0  0  0  0
   31.1122  -12.6978  -20.5068 C   0  0  0  0  0  0  0  0  0  0  0  0
   31.8130  -11.6616  -20.8418 O   0  0  0  0  0  0  0  0  0  0  0  0
   31.6909  -13.8872  -20.8542 O   0  0  0  0  0  0  0  0  0  0  0  0
  2  1  1  1
  2  3  1  0
  4  6  1  0
  4  2  1  0
  4  5  1  6
  6  7  2  0
  9  8  1  0
 10  9  1  0
 11 10  1  0
 12 11  1  1
 13  6  1  0
 13 12  1  0
 14 15  2  0
 14 12  1  0
 16 17  1  0
 17 18  2  0
 19 17  1  0
 19 20  1  0
 20 21  1  0
 21 22  1  0
 23 22  1  6
 23 24  1  0
 24 14  1  0
 25 23  1  0
 25 27  1  0
 26 25  2  0
M  END
$$$$
