VMR.pdb
     RDKit          3D

 27 26  0  0  1  0  0  0  0  0999 V2000
   32.6541  -36.1029   -6.5508 C   0  0  0  0  0  0  0  0  0  0  0  0
   34.0168  -35.4751   -6.6104 C   0  0  1  0  0  0  0  0  0  0  0  0
   33.9888  -34.0058   -6.2663 C   0  0  0  0  0  0  0  0  0  0  0  0
   34.9659  -36.2582   -5.7226 C   0  0  2  0  0  0  0  0  0  0  0  0
   35.0689  -37.6400   -6.1729 N   0  0  0  0  0  0  0  0  0  0  0  0
   34.3912  -36.2543   -4.3650 C   0  0  0  0  0  0  0  0  0  0  0  0
   33.5353  -37.1071   -4.0578 O   0  0  0  0  0  0  0  0  0  0  0  0
   34.6477  -34.2823    3.3531 C   0  0  0  0  0  0  0  0  0  0  0  0
   35.4434  -34.0828    1.7414 S   0  0  0  0  0  0  0  0  0  0  0  0
   34.4755  -34.8480    0.4591 C   0  0  0  0  0  0  0  0  0  0  0  0
   34.9917  -34.6587   -0.9467 C   0  0  0  0  0  0  0  0  0  0  0  0
   34.2618  -35.3531   -2.0108 C   0  0  2  0  0  0  0  0  0  0  0  0
   34.7260  -35.3434   -3.3328 N   0  0  0  0  0  0  0  0  0  0  0  0
   32.8433  -34.9060   -2.0061 C   0  0  0  0  0  0  0  0  0  0  0  0
   32.4491  -34.0781   -2.8640 O   0  0  0  0  0  0  0  0  0  0  0  0
   29.4770  -33.0929   -5.8240 N   0  0  0  0  0  0  0  0  0  0  0  0
   28.3268  -33.8386   -6.2225 C   0  0  0  0  0  0  0  0  0  0  0  0
   27.4599  -33.3310   -7.0068 N   0  0  0  0  0  0  0  0  0  0  0  0
   28.1010  -35.1679   -5.7661 N   0  0  0  0  0  0  0  0  0  0  0  0
   29.0224  -35.8196   -4.8705 C   0  0  0  0  0  0  0  0  0  0  0  0
   29.2109  -35.1512   -3.5602 C   0  0  0  0  0  0  0  0  0  0  0  0
   30.1132  -35.7001   -2.5590 C   0  0  0  0  0  0  0  0  0  0  0  0
   30.4120  -35.0601   -1.2651 C   0  0  2  0  0  0  0  0  0  0  0  0
   31.8921  -35.3681   -1.0732 N   0  0  0  0  0  0  0  0  0  0  0  0
   29.7394  -35.5513   -0.0641 C   0  0  0  0  0  0  0  0  0  0  0  0
   28.5076  -35.2156    0.1523 O   0  0  0  0  0  0  0  0  0  0  0  0
   30.2652  -36.3626    0.9032 O   0  0  0  0  0  0  0  0  0  0  0  0
  2  1  1  1
  2  3  1  0
  4  6  1  0
  4  2  1  0
  4  5  1  6
  6  7  2  0
  9  8  1  0
 10  9  1  0
 11 10  1  0
 12 11  1  1
 13  6  1  0
 13 12  1  0
 14 15  2  0
 14 12  1  0
 16 17  1  0
 17 18  2  0
 19 17  1  0
 19 20  1  0
 20 21  1  0
 21 22  1  0
 23 22  1  6
 23 24  1  0
 24 14  1  0
 25 23  1  0
 25 27  1  0
 26 25  2  0
M  END
$$$$
