VMR.pdb
     RDKit          3D

 27 26  0  0  1  0  0  0  0  0999 V2000
   27.0041  -17.7667  -14.7819 C   0  0  0  0  0  0  0  0  0  0  0  0
   27.5249  -18.7617  -15.7786 C   0  0  1  0  0  0  0  0  0  0  0  0
   28.4913  -18.1423  -16.7585 C   0  0  0  0  0  0  0  0  0  0  0  0
   28.1291  -19.9400  -15.0379 C   0  0  2  0  0  0  0  0  0  0  0  0
   28.5269  -20.9852  -15.9718 N   0  0  0  0  0  0  0  0  0  0  0  0
   27.0792  -20.4812  -14.1558 C   0  0  0  0  0  0  0  0  0  0  0  0
   26.1539  -21.1579  -14.6456 O   0  0  0  0  0  0  0  0  0  0  0  0
   26.6063  -19.9007   -7.4460 C   0  0  0  0  0  0  0  0  0  0  0  0
   25.2702  -21.0590   -7.8246 S   0  0  0  0  0  0  0  0  0  0  0  0
   25.0651  -21.2351   -9.5836 C   0  0  0  0  0  0  0  0  0  0  0  0
   26.2120  -20.7319  -10.4261 C   0  0  0  0  0  0  0  0  0  0  0  0
   26.0389  -20.8078  -11.8792 C   0  0  2  0  0  0  0  0  0  0  0  0
   27.0124  -20.3032  -12.7518 N   0  0  0  0  0  0  0  0  0  0  0  0
   24.7241  -20.2190  -12.2487 C   0  0  0  0  0  0  0  0  0  0  0  0
   24.5478  -18.9796  -12.1508 O   0  0  0  0  0  0  0  0  0  0  0  0
   20.9136  -23.9126  -18.7115 N   0  0  0  0  0  0  0  0  0  0  0  0
   20.3207  -24.4400  -17.5249 C   0  0  0  0  0  0  0  0  0  0  0  0
   19.6554  -25.5265  -17.5554 N   0  0  0  0  0  0  0  0  0  0  0  0
   20.4460  -23.7818  -16.2689 N   0  0  0  0  0  0  0  0  0  0  0  0
   21.2532  -22.5976  -16.1203 C   0  0  0  0  0  0  0  0  0  0  0  0
   21.3064  -22.0361  -14.7488 C   0  0  0  0  0  0  0  0  0  0  0  0
   22.0804  -20.8390  -14.4559 C   0  0  0  0  0  0  0  0  0  0  0  0
   22.3260  -20.3158  -13.0998 C   0  0  2  0  0  0  0  0  0  0  0  0
   23.6379  -20.9886  -12.7141 N   0  0  0  0  0  0  0  0  0  0  0  0
   21.3782  -20.6422  -12.0363 C   0  0  0  0  0  0  0  0  0  0  0  0
   21.6576  -21.6023  -11.2136 O   0  0  0  0  0  0  0  0  0  0  0  0
   20.1808  -20.0324  -11.7818 O   0  0  0  0  0  0  0  0  0  0  0  0
  2  1  1  1
  2  3  1  0
  4  6  1  0
  4  2  1  0
  4  5  1  6
  6  7  2  0
  9  8  1  0
 10  9  1  0
 11 10  1  0
 12 11  1  1
 13  6  1  0
 13 12  1  0
 14 15  2  0
 14 12  1  0
 16 17  1  0
 17 18  2  0
 19 17  1  0
 19 20  1  0
 20 21  1  0
 21 22  1  0
 23 22  1  6
 23 24  1  0
 24 14  1  0
 25 23  1  0
 25 27  1  0
 26 25  2  0
M  END
$$$$
