VMR.pdb
     RDKit          3D

 27 26  0  0  1  0  0  0  0  0999 V2000
   28.3804  -17.8187  -17.4691 C   0  0  0  0  0  0  0  0  0  0  0  0
   27.9436  -18.6047  -16.2666 C   0  0  1  0  0  0  0  0  0  0  0  0
   26.5190  -19.0892  -16.3825 C   0  0  0  0  0  0  0  0  0  0  0  0
   28.9223  -19.7398  -16.0304 C   0  0  2  0  0  0  0  0  0  0  0  0
   28.8691  -20.7006  -17.1244 N   0  0  0  0  0  0  0  0  0  0  0  0
   28.5028  -20.4224  -14.7928 C   0  0  0  0  0  0  0  0  0  0  0  0
   27.6885  -21.3642  -14.8565 O   0  0  0  0  0  0  0  0  0  0  0  0
   33.2007  -22.6543  -10.0751 C   0  0  0  0  0  0  0  0  0  0  0  0
   31.7832  -21.5600   -9.8229 S   0  0  0  0  0  0  0  0  0  0  0  0
   30.6817  -21.6195  -11.2194 C   0  0  0  0  0  0  0  0  0  0  0  0
   29.4636  -20.7330  -11.1257 C   0  0  0  0  0  0  0  0  0  0  0  0
   28.5707  -20.7232  -12.2875 C   0  0  2  0  0  0  0  0  0  0  0  0
   28.9490  -20.1040  -13.4863 N   0  0  0  0  0  0  0  0  0  0  0  0
   27.2421  -20.1921  -11.8816 C   0  0  0  0  0  0  0  0  0  0  0  0
   26.8754  -19.0601  -12.2831 O   0  0  0  0  0  0  0  0  0  0  0  0
   20.2311  -21.7351  -11.8919 N   0  0  0  0  0  0  0  0  0  0  0  0
   20.0319  -21.0931  -13.1513 C   0  0  0  0  0  0  0  0  0  0  0  0
   18.8951  -20.6095  -13.4643 N   0  0  0  0  0  0  0  0  0  0  0  0
   21.0838  -20.9664  -14.1020 N   0  0  0  0  0  0  0  0  0  0  0  0
   22.4532  -21.2371  -13.7451 C   0  0  0  0  0  0  0  0  0  0  0  0
   23.0073  -20.3815  -12.6681 C   0  0  0  0  0  0  0  0  0  0  0  0
   24.4109  -20.4611  -12.2916 C   0  0  0  0  0  0  0  0  0  0  0  0
   24.9043  -20.4383  -10.9027 C   0  0  2  0  0  0  0  0  0  0  0  0
   26.3484  -20.9015  -11.0530 N   0  0  0  0  0  0  0  0  0  0  0  0
   24.2937  -21.3349   -9.9233 C   0  0  0  0  0  0  0  0  0  0  0  0
   24.8640  -22.4678   -9.6619 O   0  0  0  0  0  0  0  0  0  0  0  0
   23.1474  -21.1199   -9.2091 O   0  0  0  0  0  0  0  0  0  0  0  0
  2  1  1  6
  2  3  1  0
  4  6  1  0
  4  2  1  0
  4  5  1  6
  6  7  2  0
  9  8  1  0
 10  9  1  0
 11 10  1  0
 12 11  1  1
 13  6  1  0
 13 12  1  0
 14 15  2  0
 14 12  1  0
 16 17  1  0
 17 18  2  0
 19 17  1  0
 19 20  1  0
 20 21  1  0
 21 22  1  0
 23 22  1  6
 23 24  1  0
 24 14  1  0
 25 23  1  0
 25 27  1  0
 26 25  2  0
M  END
$$$$
