VMR.pdb
     RDKit          3D

 27 26  0  0  1  0  0  0  0  0999 V2000
   25.9131  -18.8000   -9.3016 C   0  0  0  0  0  0  0  0  0  0  0  0
   25.8134  -20.2953   -9.3957 C   0  0  1  0  0  0  0  0  0  0  0  0
   24.7137  -20.8543   -8.5262 C   0  0  0  0  0  0  0  0  0  0  0  0
   25.6579  -20.6942  -10.8513 C   0  0  2  0  0  0  0  0  0  0  0  0
   25.5147  -22.1388  -10.9761 N   0  0  0  0  0  0  0  0  0  0  0  0
   26.8936  -20.2888  -11.5455 C   0  0  0  0  0  0  0  0  0  0  0  0
   27.0701  -19.0894  -11.8357 O   0  0  0  0  0  0  0  0  0  0  0  0
   31.9234  -23.6221   -9.8367 C   0  0  0  0  0  0  0  0  0  0  0  0
   32.3520  -21.9263  -10.2961 S   0  0  0  0  0  0  0  0  0  0  0  0
   30.9109  -21.0349  -10.8400 C   0  0  0  0  0  0  0  0  0  0  0  0
   30.4125  -21.3843  -12.2213 C   0  0  0  0  0  0  0  0  0  0  0  0
   29.1191  -20.8176  -12.6129 C   0  0  2  0  0  0  0  0  0  0  0  0
   27.9430  -21.1589  -11.9319 N   0  0  0  0  0  0  0  0  0  0  0  0
   28.9040  -21.0431  -14.0671 C   0  0  0  0  0  0  0  0  0  0  0  0
   28.8783  -22.2149  -14.5180 O   0  0  0  0  0  0  0  0  0  0  0  0
   24.5043  -24.0617  -14.3577 N   0  0  0  0  0  0  0  0  0  0  0  0
   23.3773  -23.4416  -14.9767 C   0  0  0  0  0  0  0  0  0  0  0  0
   22.1990  -23.6383  -14.5328 N   0  0  0  0  0  0  0  0  0  0  0  0
   23.5197  -22.5852  -16.1048 N   0  0  0  0  0  0  0  0  0  0  0  0
   24.8052  -22.0612  -16.4906 C   0  0  0  0  0  0  0  0  0  0  0  0
   25.1521  -20.7428  -15.9069 C   0  0  0  0  0  0  0  0  0  0  0  0
   26.4604  -20.5028  -15.3162 C   0  0  0  0  0  0  0  0  0  0  0  0
   27.6570  -20.0982  -16.0761 C   0  0  2  0  0  0  0  0  0  0  0  0
   28.7226  -19.9939  -14.9917 N   0  0  0  0  0  0  0  0  0  0  0  0
   27.6529  -18.8077  -16.7621 C   0  0  0  0  0  0  0  0  0  0  0  0
   27.9365  -17.7357  -16.0933 O   0  0  0  0  0  0  0  0  0  0  0  0
   27.3814  -18.5752  -18.0822 O   0  0  0  0  0  0  0  0  0  0  0  0
  2  1  1  6
  2  3  1  0
  4  6  1  0
  4  2  1  0
  4  5  1  1
  6  7  2  0
  9  8  1  0
 10  9  1  0
 11 10  1  0
 12 11  1  1
 13  6  1  0
 13 12  1  0
 14 15  2  0
 14 12  1  0
 16 17  1  0
 17 18  2  0
 19 17  1  0
 19 20  1  0
 20 21  1  0
 21 22  1  0
 23 22  1  1
 23 24  1  0
 24 14  1  0
 25 23  1  0
 25 27  1  0
 26 25  2  0
M  END
$$$$
