VMR.pdb
     RDKit          3D

 27 26  0  0  1  0  0  0  0  0999 V2000
   28.7602  -18.4743  -16.2411 C   0  0  0  0  0  0  0  0  0  0  0  0
   27.6523  -19.0450  -15.4035 C   0  0  1  0  0  0  0  0  0  0  0  0
   26.3542  -19.1564  -16.1653 C   0  0  0  0  0  0  0  0  0  0  0  0
   28.0986  -20.3749  -14.8253 C   0  0  2  0  0  0  0  0  0  0  0  0
   28.2466  -21.3701  -15.8791 N   0  0  0  0  0  0  0  0  0  0  0  0
   27.0369  -20.8258  -13.9072 C   0  0  0  0  0  0  0  0  0  0  0  0
   26.2041  -21.6675  -14.2972 O   0  0  0  0  0  0  0  0  0  0  0  0
   26.8205  -19.9727   -7.2665 C   0  0  0  0  0  0  0  0  0  0  0  0
   25.2495  -20.8185   -7.5613 S   0  0  0  0  0  0  0  0  0  0  0  0
   25.0268  -21.1532   -9.2949 C   0  0  0  0  0  0  0  0  0  0  0  0
   26.0947  -20.5997  -10.2070 C   0  0  0  0  0  0  0  0  0  0  0  0
   25.9270  -20.8538  -11.6403 C   0  0  2  0  0  0  0  0  0  0  0  0
   26.8598  -20.3820  -12.5735 N   0  0  0  0  0  0  0  0  0  0  0  0
   24.5719  -20.4097  -12.0627 C   0  0  0  0  0  0  0  0  0  0  0  0
   24.3702  -19.2006  -12.3353 O   0  0  0  0  0  0  0  0  0  0  0  0
   19.4482  -25.6236  -12.9809 N   0  0  0  0  0  0  0  0  0  0  0  0
   18.3009  -24.7989  -13.1840 C   0  0  0  0  0  0  0  0  0  0  0  0
   17.1767  -25.1066  -12.6684 N   0  0  0  0  0  0  0  0  0  0  0  0
   18.3624  -23.6089  -13.9629 N   0  0  0  0  0  0  0  0  0  0  0  0
   19.6115  -23.1225  -14.4910 C   0  0  0  0  0  0  0  0  0  0  0  0
   20.1526  -21.9137  -13.8238 C   0  0  0  0  0  0  0  0  0  0  0  0
   21.4589  -21.9299  -13.1825 C   0  0  0  0  0  0  0  0  0  0  0  0
   22.0994  -20.7545  -12.5648 C   0  0  2  0  0  0  0  0  0  0  0  0
   23.4740  -21.2871  -12.1783 N   0  0  0  0  0  0  0  0  0  0  0  0
   21.5236  -20.2002  -11.3413 C   0  0  0  0  0  0  0  0  0  0  0  0
   21.7826  -20.7688  -10.2070 O   0  0  0  0  0  0  0  0  0  0  0  0
   20.7135  -19.1037  -11.2331 O   0  0  0  0  0  0  0  0  0  0  0  0
  2  1  1  6
  2  3  1  0
  4  6  1  0
  4  2  1  0
  4  5  1  6
  6  7  2  0
  9  8  1  0
 10  9  1  0
 11 10  1  0
 12 11  1  1
 13  6  1  0
 13 12  1  0
 14 15  2  0
 14 12  1  0
 16 17  1  0
 17 18  2  0
 19 17  1  0
 19 20  1  0
 20 21  1  0
 21 22  1  0
 23 22  1  1
 23 24  1  0
 24 14  1  0
 25 23  1  0
 25 27  1  0
 26 25  2  0
M  END
$$$$
