VMR.pdb
     RDKit          3D

 27 26  0  0  1  0  0  0  0  0999 V2000
   28.0297  -19.0813  -14.6447 C   0  0  0  0  0  0  0  0  0  0  0  0
   27.2931  -19.5506  -13.4233 C   0  0  1  0  0  0  0  0  0  0  0  0
   25.8210  -19.7581  -13.6836 C   0  0  0  0  0  0  0  0  0  0  0  0
   27.9658  -20.7992  -12.8842 C   0  0  2  0  0  0  0  0  0  0  0  0
   27.6562  -21.9517  -13.7201 N   0  0  0  0  0  0  0  0  0  0  0  0
   27.4149  -21.0409  -11.5383 C   0  0  0  0  0  0  0  0  0  0  0  0
   26.5391  -21.9140  -11.3807 O   0  0  0  0  0  0  0  0  0  0  0  0
   27.2308  -19.9346   -3.6338 C   0  0  0  0  0  0  0  0  0  0  0  0
   28.0031  -19.3792   -5.1718 S   0  0  0  0  0  0  0  0  0  0  0  0
   27.1803  -20.0843   -6.5834 C   0  0  0  0  0  0  0  0  0  0  0  0
   27.8618  -19.8625   -7.9119 C   0  0  0  0  0  0  0  0  0  0  0  0
   27.2484  -20.5051   -9.0773 C   0  0  2  0  0  0  0  0  0  0  0  0
   27.7950  -20.3543  -10.3587 N   0  0  0  0  0  0  0  0  0  0  0  0
   25.8065  -20.1451   -9.1345 C   0  0  0  0  0  0  0  0  0  0  0  0
   25.4701  -18.9632   -9.3932 O   0  0  0  0  0  0  0  0  0  0  0  0
   19.1210  -19.9364  -13.7752 N   0  0  0  0  0  0  0  0  0  0  0  0
   20.3734  -19.3074  -14.0465 C   0  0  0  0  0  0  0  0  0  0  0  0
   20.4343  -18.2610  -14.7715 N   0  0  0  0  0  0  0  0  0  0  0  0
   21.5958  -19.8163  -13.5240 N   0  0  0  0  0  0  0  0  0  0  0  0
   21.6144  -20.9296  -12.6096 C   0  0  0  0  0  0  0  0  0  0  0  0
   21.8208  -20.5745  -11.1846 C   0  0  0  0  0  0  0  0  0  0  0  0
   23.0452  -20.9405  -10.4882 C   0  0  0  0  0  0  0  0  0  0  0  0
   23.3129  -20.6565   -9.0667 C   0  0  2  0  0  0  0  0  0  0  0  0
   24.7700  -21.0747   -8.9106 N   0  0  0  0  0  0  0  0  0  0  0  0
   22.5703  -21.3964   -8.0484 C   0  0  0  0  0  0  0  0  0  0  0  0
   21.3196  -21.1223   -7.8544 O   0  0  0  0  0  0  0  0  0  0  0  0
   23.0457  -22.3917   -7.2400 O   0  0  0  0  0  0  0  0  0  0  0  0
  2  1  1  6
  2  3  1  0
  4  6  1  0
  4  2  1  0
  4  5  1  6
  6  7  2  0
  9  8  1  0
 10  9  1  0
 11 10  1  0
 12 11  1  1
 13  6  1  0
 13 12  1  0
 14 15  2  0
 14 12  1  0
 16 17  1  0
 17 18  2  0
 19 17  1  0
 19 20  1  0
 20 21  1  0
 21 22  1  0
 23 22  1  6
 23 24  1  0
 24 14  1  0
 25 23  1  0
 25 27  1  0
 26 25  2  0
M  END
$$$$
