DRT.pdb
     RDKit          3D

 27 26  0  0  1  0  0  0  0  0999 V2000
   20.3961  -13.3080  -18.3016 N   0  0  0  0  0  0  0  0  0  0  0  0
   21.2552  -12.3978  -17.5748 C   0  0  1  0  0  0  0  0  0  0  0  0
   22.5815  -12.2916  -18.2855 C   0  0  0  0  0  0  0  0  0  0  0  0
   23.2577  -13.6143  -18.2961 C   0  0  0  0  0  0  0  0  0  0  0  0
   23.1514  -14.3766  -17.2809 O   0  0  0  0  0  0  0  0  0  0  0  0
   20.6193  -11.0752  -17.3687 C   0  0  0  0  0  0  0  0  0  0  0  0
   20.1545  -10.4085  -18.3476 O   0  0  0  0  0  0  0  0  0  0  0  0
   24.0021  -14.0783  -19.3443 O   0  0  0  0  0  0  0  0  0  0  0  0
   13.9383  -10.3578  -12.9778 N   0  0  0  0  0  0  0  0  0  0  0  0
   14.0496  -10.9372  -14.2593 C   0  0  0  0  0  0  0  0  0  0  0  0
   13.0646  -11.5536  -14.8399 N   0  0  0  0  0  0  0  0  0  0  0  0
   15.2879  -10.8520  -14.9606 N   0  0  0  0  0  0  0  0  0  0  0  0
   16.4194  -10.1091  -14.4119 C   0  0  0  0  0  0  0  0  0  0  0  0
   17.5104  -10.0937  -15.4620 C   0  0  0  0  0  0  0  0  0  0  0  0
   18.6691   -9.3064  -14.9024 C   0  0  0  0  0  0  0  0  0  0  0  0
   19.8242   -9.2110  -15.8659 C   0  0  2  0  0  0  0  0  0  0  0  0
   20.4841  -10.4667  -16.0924 N   0  0  0  0  0  0  0  0  0  0  0  0
   20.7820   -8.2272  -15.3171 C   0  0  0  0  0  0  0  0  0  0  0  0
   21.5789   -8.5886  -14.3936 O   0  0  0  0  0  0  0  0  0  0  0  0
   13.1569  -11.9857  -15.7671 C   0  0  0  0  0  0  0  0  0  0  0  0
   23.0260   -3.8065  -15.6758 C   0  0  2  0  0  0  0  0  0  0  0  0
   21.9959   -4.7687  -16.1708 O   0  0  0  0  0  0  0  0  0  0  0  0
   22.3219   -5.2379  -17.4354 C   0  0  1  0  0  0  0  0  0  0  0  0
   21.8332   -5.9629  -15.2547 N   0  0  0  0  0  0  0  0  0  0  0  0
   20.8628   -6.8871  -15.7683 C   0  0  0  0  0  0  0  0  0  0  0  0
   21.4346   -5.4623  -13.9320 O   0  0  0  0  0  0  0  0  0  0  0  0
   22.3833   -5.0847  -12.9992 O   0  0  0  0  0  0  0  0  0  0  0  0
  2  1  1  6
  3  2  1  0
  3  4  1  0
  4  5  2  0
  4  8  1  0
  6  7  2  0
  6  2  1  0
  9 10  1  0
 10 12  1  0
 11 10  2  0
 12 13  1  0
 14 13  1  0
 15 14  1  0
 16 15  1  1
 16 17  1  0
 17  6  1  0
 18 16  1  0
 18 19  2  0
 21 20  1  6
 21 22  1  0
 21 23  1  0
 23 25  1  0
 23 24  1  6
 24 18  1  0
 25 26  1  0
 27 25  2  0
M  END
$$$$
