DRT.pdb
     RDKit          3D

 27 26  0  0  1  0  0  0  0  0999 V2000
   17.9778  -12.3602  -15.2652 N   0  0  0  0  0  0  0  0  0  0  0  0
   18.2394  -11.0500  -15.8217 C   0  0  1  0  0  0  0  0  0  0  0  0
   17.0286  -10.1733  -15.6197 C   0  0  0  0  0  0  0  0  0  0  0  0
   15.8689  -10.7329  -16.3606 C   0  0  0  0  0  0  0  0  0  0  0  0
   14.7936  -10.9940  -15.7296 O   0  0  0  0  0  0  0  0  0  0  0  0
   19.4723  -10.4440  -15.2660 C   0  0  0  0  0  0  0  0  0  0  0  0
   19.7034  -10.4515  -14.0149 O   0  0  0  0  0  0  0  0  0  0  0  0
   15.8786  -10.9919  -17.7026 O   0  0  0  0  0  0  0  0  0  0  0  0
   27.3527  -11.3144  -17.4132 N   0  0  0  0  0  0  0  0  0  0  0  0
   26.4835  -11.8022  -16.4148 C   0  0  0  0  0  0  0  0  0  0  0  0
   26.5538  -13.0139  -15.9525 N   0  0  0  0  0  0  0  0  0  0  0  0
   25.4798  -10.9424  -15.8799 N   0  0  0  0  0  0  0  0  0  0  0  0
   25.3508   -9.5584  -16.3282 C   0  0  0  0  0  0  0  0  0  0  0  0
   24.1389   -8.9649  -15.6409 C   0  0  0  0  0  0  0  0  0  0  0  0
   22.9186   -9.6633  -16.1876 C   0  0  0  0  0  0  0  0  0  0  0  0
   21.6411   -9.1855  -15.5461 C   0  0  2  0  0  0  0  0  0  0  0  0
   20.4656   -9.8238  -16.0699 N   0  0  0  0  0  0  0  0  0  0  0  0
   21.5585   -7.7237  -15.7527 C   0  0  0  0  0  0  0  0  0  0  0  0
   21.1361   -7.2796  -16.8674 O   0  0  0  0  0  0  0  0  0  0  0  0
   25.8698  -13.3874  -15.2833 C   0  0  0  0  0  0  0  0  0  0  0  0
   21.5755   -3.1706  -13.7534 C   0  0  2  0  0  0  0  0  0  0  0  0
   21.9227   -4.6190  -13.6374 O   0  0  0  0  0  0  0  0  0  0  0  0
   21.1589   -5.2356  -12.6565 C   0  0  1  0  0  0  0  0  0  0  0  0
   21.7137   -5.3692  -14.9356 N   0  0  0  0  0  0  0  0  0  0  0  0
   21.9283   -6.7779  -14.7654 C   0  0  0  0  0  0  0  0  0  0  0  0
   22.6412   -4.8118  -15.9297 O   0  0  0  0  0  0  0  0  0  0  0  0
   22.2102   -3.8889  -16.8651 O   0  0  0  0  0  0  0  0  0  0  0  0
  2  1  1  1
  3  2  1  0
  3  4  1  0
  4  5  2  0
  4  8  1  0
  6  7  2  0
  6  2  1  0
  9 10  1  0
 10 12  1  0
 11 10  2  0
 12 13  1  0
 14 13  1  0
 15 14  1  0
 16 15  1  6
 16 17  1  0
 17  6  1  0
 18 16  1  0
 18 19  2  0
 21 20  1  1
 21 22  1  0
 21 23  1  0
 23 25  1  0
 23 24  1  1
 24 18  1  0
 25 26  1  0
 27 25  2  0
M  END
$$$$
