DRT.pdb
     RDKit          3D

 27 26  0  0  1  0  0  0  0  0999 V2000
   19.1084  -23.4502  -13.5380 N   0  0  0  0  0  0  0  0  0  0  0  0
   19.1735  -22.2958  -12.6675 C   0  0  1  0  0  0  0  0  0  0  0  0
   19.2530  -22.7580  -11.2339 C   0  0  0  0  0  0  0  0  0  0  0  0
   17.9578  -23.3583  -10.8228 C   0  0  0  0  0  0  0  0  0  0  0  0
   16.9757  -23.3366  -11.6338 O   0  0  0  0  0  0  0  0  0  0  0  0
   20.2869  -21.3869  -13.0287 C   0  0  0  0  0  0  0  0  0  0  0  0
   20.5847  -20.3882  -12.2989 O   0  0  0  0  0  0  0  0  0  0  0  0
   17.7446  -23.9449   -9.6068 O   0  0  0  0  0  0  0  0  0  0  0  0
   27.5557  -23.6926  -16.2444 N   0  0  0  0  0  0  0  0  0  0  0  0
   26.9583  -22.4292  -16.4367 C   0  0  0  0  0  0  0  0  0  0  0  0
   27.4414  -21.5399  -17.2508 N   0  0  0  0  0  0  0  0  0  0  0  0
   25.7740  -22.0980  -15.7152 N   0  0  0  0  0  0  0  0  0  0  0  0
   25.1931  -23.0245  -14.7471 C   0  0  0  0  0  0  0  0  0  0  0  0
   24.0417  -22.3142  -14.0666 C   0  0  0  0  0  0  0  0  0  0  0  0
   23.3706  -21.4432  -15.0994 C   0  0  0  0  0  0  0  0  0  0  0  0
   22.1816  -20.6999  -14.5466 C   0  0  2  0  0  0  0  0  0  0  0  0
   21.0867  -21.5586  -14.1899 N   0  0  0  0  0  0  0  0  0  0  0  0
   21.7487  -19.7265  -15.5720 C   0  0  0  0  0  0  0  0  0  0  0  0
   21.0381  -20.1301  -16.5470 O   0  0  0  0  0  0  0  0  0  0  0  0
   26.9786  -20.6382  -17.4174 C   0  0  0  0  0  0  0  0  0  0  0  0
   20.8810  -15.0216  -16.8037 C   0  0  2  0  0  0  0  0  0  0  0  0
   21.5346  -16.0064  -15.8899 O   0  0  0  0  0  0  0  0  0  0  0  0
   20.8792  -16.0607  -14.6680 C   0  0  1  0  0  0  0  0  0  0  0  0
   21.5614  -17.4042  -16.4707 N   0  0  0  0  0  0  0  0  0  0  0  0
   22.0855  -18.3514  -15.5286 C   0  0  0  0  0  0  0  0  0  0  0  0
   22.3797  -17.3672  -17.6905 O   0  0  0  0  0  0  0  0  0  0  0  0
   21.7998  -17.1663  -18.9298 O   0  0  0  0  0  0  0  0  0  0  0  0
  2  1  1  6
  3  2  1  0
  3  4  1  0
  4  5  2  0
  4  8  1  0
  6  7  2  0
  6  2  1  0
  9 10  1  0
 10 12  1  0
 11 10  2  0
 12 13  1  0
 14 13  1  0
 15 14  1  0
 16 15  1  6
 16 17  1  0
 17  6  1  0
 18 16  1  0
 18 19  2  0
 21 20  1  1
 21 22  1  0
 21 23  1  0
 23 25  1  0
 23 24  1  1
 24 18  1  0
 25 26  1  0
 27 25  2  0
M  END
$$$$
