DRT.pdb
     RDKit          3D

 27 26  0  0  1  0  0  0  0  0999 V2000
   23.0393  -12.2630  -17.4606 N   0  0  0  0  0  0  0  0  0  0  0  0
   22.7867  -11.2961  -18.5075 C   0  0  1  0  0  0  0  0  0  0  0  0
   22.3027  -12.0151  -19.7421 C   0  0  0  0  0  0  0  0  0  0  0  0
   23.3202  -13.0031  -20.1842 C   0  0  0  0  0  0  0  0  0  0  0  0
   23.2462  -14.2038  -19.7651 O   0  0  0  0  0  0  0  0  0  0  0  0
   21.8503  -10.2335  -18.0713 C   0  0  0  0  0  0  0  0  0  0  0  0
   21.4567   -9.3313  -18.8774 O   0  0  0  0  0  0  0  0  0  0  0  0
   24.3526  -12.7039  -21.0286 O   0  0  0  0  0  0  0  0  0  0  0  0
   14.4292   -8.7544  -14.3988 N   0  0  0  0  0  0  0  0  0  0  0  0
   15.0441   -9.7078  -15.2372 C   0  0  0  0  0  0  0  0  0  0  0  0
   14.3757  -10.4444  -16.0725 N   0  0  0  0  0  0  0  0  0  0  0  0
   16.4578   -9.8831  -15.1784 N   0  0  0  0  0  0  0  0  0  0  0  0
   17.2693   -9.1679  -14.1970 C   0  0  0  0  0  0  0  0  0  0  0  0
   18.4216   -8.5224  -14.9379 C   0  0  0  0  0  0  0  0  0  0  0  0
   19.2790   -9.6297  -15.4986 C   0  0  0  0  0  0  0  0  0  0  0  0
   20.4424   -9.1107  -16.3040 C   0  0  2  0  0  0  0  0  0  0  0  0
   21.3340  -10.1446  -16.7511 N   0  0  0  0  0  0  0  0  0  0  0  0
   21.1731   -8.1425  -15.4584 C   0  0  0  0  0  0  0  0  0  0  0  0
   21.6573   -8.5327  -14.3486 O   0  0  0  0  0  0  0  0  0  0  0  0
   14.8325  -11.1196  -16.6972 C   0  0  0  0  0  0  0  0  0  0  0  0
   23.8695   -5.4150  -16.7870 C   0  0  2  0  0  0  0  0  0  0  0  0
   22.8247   -4.8369  -15.8891 O   0  0  0  0  0  0  0  0  0  0  0  0
   21.8393   -4.1931  -16.6240 C   0  0  2  0  0  0  0  0  0  0  0  0
   22.1568   -5.8879  -15.0282 N   0  0  0  0  0  0  0  0  0  0  0  0
   21.3665   -6.7868  -15.8200 C   0  0  0  0  0  0  0  0  0  0  0  0
   21.3266   -5.1926  -14.0350 O   0  0  0  0  0  0  0  0  0  0  0  0
   21.9022   -4.4192  -13.0436 O   0  0  0  0  0  0  0  0  0  0  0  0
  2  1  1  1
  3  2  1  0
  3  4  1  0
  4  5  2  0
  4  8  1  0
  6  7  2  0
  6  2  1  0
  9 10  1  0
 10 12  1  0
 11 10  2  0
 12 13  1  0
 14 13  1  0
 15 14  1  0
 16 15  1  1
 16 17  1  0
 17  6  1  0
 18 16  1  0
 18 19  2  0
 21 20  1  1
 21 22  1  0
 21 23  1  0
 23 25  1  0
 23 24  1  1
 24 18  1  0
 25 26  1  0
 27 25  2  0
M  END
$$$$
