DRT.pdb
     RDKit          3D

 27 26  0  0  1  0  0  0  0  0999 V2000
   17.1038  -10.1478  -18.5533 N   0  0  0  0  0  0  0  0  0  0  0  0
   18.0802   -9.1039  -18.7806 C   0  0  1  0  0  0  0  0  0  0  0  0
   17.3668   -7.7885  -18.9702 C   0  0  0  0  0  0  0  0  0  0  0  0
   16.7903   -7.7175  -20.3375 C   0  0  0  0  0  0  0  0  0  0  0  0
   17.3238   -8.3957  -21.2746 O   0  0  0  0  0  0  0  0  0  0  0  0
   19.0943   -9.0442  -17.7016 C   0  0  0  0  0  0  0  0  0  0  0  0
   18.9953   -9.7739  -16.6641 O   0  0  0  0  0  0  0  0  0  0  0  0
   15.7027   -6.9570  -20.6645 O   0  0  0  0  0  0  0  0  0  0  0  0
   27.1137  -11.4055  -17.0636 N   0  0  0  0  0  0  0  0  0  0  0  0
   26.8486  -10.8490  -15.7946 C   0  0  0  0  0  0  0  0  0  0  0  0
   27.6575  -10.9800  -14.7868 N   0  0  0  0  0  0  0  0  0  0  0  0
   25.6471  -10.1086  -15.5924 N   0  0  0  0  0  0  0  0  0  0  0  0
   24.6569   -9.9666  -16.6565 C   0  0  0  0  0  0  0  0  0  0  0  0
   23.5454   -9.0812  -16.1333 C   0  0  0  0  0  0  0  0  0  0  0  0
   22.4855   -9.0014  -17.2038 C   0  0  0  0  0  0  0  0  0  0  0  0
   21.2830   -8.2026  -16.7706 C   0  0  2  0  0  0  0  0  0  0  0  0
   20.2265   -8.1876  -17.7438 N   0  0  0  0  0  0  0  0  0  0  0  0
   21.7396   -6.8229  -16.4975 C   0  0  0  0  0  0  0  0  0  0  0  0
   22.5078   -6.2488  -17.3333 O   0  0  0  0  0  0  0  0  0  0  0  0
   27.4309  -10.6242  -13.8504 C   0  0  0  0  0  0  0  0  0  0  0  0
   19.6342   -3.7289  -16.0862 C   0  0  2  0  0  0  0  0  0  0  0  0
   20.5129   -3.8593  -14.8850 O   0  0  0  0  0  0  0  0  0  0  0  0
   19.8177   -4.4125  -13.8190 C   0  0  2  0  0  0  0  0  0  0  0  0
   21.7293   -4.7208  -15.1497 N   0  0  0  0  0  0  0  0  0  0  0  0
   21.3643   -6.0953  -15.3417 C   0  0  0  0  0  0  0  0  0  0  0  0
   22.6406   -4.5730  -14.0065 O   0  0  0  0  0  0  0  0  0  0  0  0
   22.8459   -5.6157  -13.1216 O   0  0  0  0  0  0  0  0  0  0  0  0
  2  1  1  1
  3  2  1  0
  3  4  1  0
  4  5  2  0
  4  8  1  0
  6  7  2  0
  6  2  1  0
  9 10  1  0
 10 12  1  0
 11 10  2  0
 12 13  1  0
 14 13  1  0
 15 14  1  0
 16 15  1  6
 16 17  1  0
 17  6  1  0
 18 16  1  0
 18 19  2  0
 21 20  1  1
 21 22  1  0
 21 23  1  0
 23 25  1  0
 23 24  1  1
 24 18  1  0
 25 26  1  0
 27 25  2  0
M  END
$$$$
