DRT.pdb
     RDKit          3D

 27 26  0  0  1  0  0  0  0  0999 V2000
   20.7740  -32.5120   -9.2924 N   0  0  0  0  0  0  0  0  0  0  0  0
   21.3154  -31.1742   -9.4014 C   0  0  1  0  0  0  0  0  0  0  0  0
   22.4550  -31.1780  -10.3897 C   0  0  0  0  0  0  0  0  0  0  0  0
   23.6543  -31.8053   -9.7773 C   0  0  0  0  0  0  0  0  0  0  0  0
   23.6052  -32.1902   -8.5639 O   0  0  0  0  0  0  0  0  0  0  0  0
   20.2743  -30.1775   -9.7461 C   0  0  0  0  0  0  0  0  0  0  0  0
   19.3200  -30.4686  -10.5356 O   0  0  0  0  0  0  0  0  0  0  0  0
   24.8321  -32.0013  -10.4426 O   0  0  0  0  0  0  0  0  0  0  0  0
   16.3869  -25.0099   -4.5815 N   0  0  0  0  0  0  0  0  0  0  0  0
   17.4984  -25.8302   -4.8679 C   0  0  0  0  0  0  0  0  0  0  0  0
   18.2647  -26.3236   -3.9425 N   0  0  0  0  0  0  0  0  0  0  0  0
   17.8079  -26.1407   -6.2245 N   0  0  0  0  0  0  0  0  0  0  0  0
   16.8202  -25.9647   -7.2859 C   0  0  0  0  0  0  0  0  0  0  0  0
   17.4777  -26.3547   -8.5932 C   0  0  0  0  0  0  0  0  0  0  0  0
   18.5586  -27.3583   -8.2769 C   0  0  0  0  0  0  0  0  0  0  0  0
   19.2362  -27.8897   -9.5140 C   0  0  2  0  0  0  0  0  0  0  0  0
   20.2640  -28.8531   -9.2330 N   0  0  0  0  0  0  0  0  0  0  0  0
   19.8087  -26.7352  -10.2391 C   0  0  0  0  0  0  0  0  0  0  0  0
   20.8357  -26.1539   -9.7639 O   0  0  0  0  0  0  0  0  0  0  0  0
   19.0549  -26.9440   -4.1562 C   0  0  0  0  0  0  0  0  0  0  0  0
   21.0452  -26.4617  -13.9864 C   0  0  2  0  0  0  0  0  0  0  0  0
   19.9626  -25.4848  -13.6614 O   0  0  0  0  0  0  0  0  0  0  0  0
   18.7230  -25.9680  -14.0561 C   0  0  2  0  0  0  0  0  0  0  0  0
   19.8939  -25.1693  -12.1824 N   0  0  0  0  0  0  0  0  0  0  0  0
   19.2703  -26.2338  -11.4494 C   0  0  0  0  0  0  0  0  0  0  0  0
   19.1460  -23.9141  -12.0260 O   0  0  0  0  0  0  0  0  0  0  0  0
   19.6264  -22.7298  -12.5545 O   0  0  0  0  0  0  0  0  0  0  0  0
  2  1  1  6
  3  2  1  0
  3  4  1  0
  4  5  2  0
  4  8  1  0
  6  7  2  0
  6  2  1  0
  9 10  1  0
 10 12  1  0
 11 10  2  0
 12 13  1  0
 14 13  1  0
 15 14  1  0
 16 15  1  1
 16 17  1  0
 17  6  1  0
 18 16  1  0
 18 19  2  0
 21 20  1  6
 21 22  1  0
 21 23  1  0
 23 25  1  0
 23 24  1  1
 24 18  1  0
 25 26  1  0
 27 25  2  0
M  END
$$$$
