DRT.pdb
     RDKit          3D

 27 26  0  0  1  0  0  0  0  0999 V2000
   25.0278  -16.4115  -18.7559 N   0  0  0  0  0  0  0  0  0  0  0  0
   24.2706  -16.3352  -17.5248 C   0  0  1  0  0  0  0  0  0  0  0  0
   23.2426  -15.2375  -17.6406 C   0  0  0  0  0  0  0  0  0  0  0  0
   23.8620  -13.9272  -17.3145 C   0  0  0  0  0  0  0  0  0  0  0  0
   25.1000  -13.8798  -17.0179 O   0  0  0  0  0  0  0  0  0  0  0  0
   23.6649  -17.6379  -17.1609 C   0  0  0  0  0  0  0  0  0  0  0  0
   23.1315  -18.3849  -18.0420 O   0  0  0  0  0  0  0  0  0  0  0  0
   23.1782  -12.7437  -17.3113 O   0  0  0  0  0  0  0  0  0  0  0  0
   26.9272  -21.4190  -10.3989 N   0  0  0  0  0  0  0  0  0  0  0  0
   25.7022  -20.8598   -9.9783 C   0  0  0  0  0  0  0  0  0  0  0  0
   25.4375  -20.6034   -8.7328 N   0  0  0  0  0  0  0  0  0  0  0  0
   24.7016  -20.5572  -10.9477 N   0  0  0  0  0  0  0  0  0  0  0  0
   24.9371  -20.7752  -12.3726 C   0  0  0  0  0  0  0  0  0  0  0  0
   23.8713  -20.0161  -13.1348 C   0  0  0  0  0  0  0  0  0  0  0  0
   24.1378  -20.2127  -14.6066 C   0  0  0  0  0  0  0  0  0  0  0  0
   23.1716  -19.4512  -15.4774 C   0  0  2  0  0  0  0  0  0  0  0  0
   23.6349  -18.1385  -15.8321 N   0  0  0  0  0  0  0  0  0  0  0  0
   21.8912  -19.3554  -14.7440 C   0  0  0  0  0  0  0  0  0  0  0  0
   21.8208  -18.6070  -13.7177 O   0  0  0  0  0  0  0  0  0  0  0  0
   24.5754  -20.1274   -8.4408 C   0  0  0  0  0  0  0  0  0  0  0  0
   18.3392  -18.3658  -16.1357 C   0  0  2  0  0  0  0  0  0  0  0  0
   18.3390  -19.7080  -15.4794 O   0  0  0  0  0  0  0  0  0  0  0  0
   18.4647  -20.7205  -16.4199 C   0  0  2  0  0  0  0  0  0  0  0  0
   19.4605  -19.8596  -14.4738 N   0  0  0  0  0  0  0  0  0  0  0  0
   20.7232  -20.0598  -15.1256 C   0  0  0  0  0  0  0  0  0  0  0  0
   19.1314  -20.9968  -13.6034 O   0  0  0  0  0  0  0  0  0  0  0  0
   18.0768  -20.9276  -12.7115 O   0  0  0  0  0  0  0  0  0  0  0  0
  2  1  1  6
  3  2  1  0
  3  4  1  0
  4  5  2  0
  4  8  1  0
  6  7  2  0
  6  2  1  0
  9 10  1  0
 10 12  1  0
 11 10  2  0
 12 13  1  0
 14 13  1  0
 15 14  1  0
 16 15  1  1
 16 17  1  0
 17  6  1  0
 18 16  1  0
 18 19  2  0
 21 20  1  6
 21 22  1  0
 21 23  1  0
 23 25  1  0
 23 24  1  1
 24 18  1  0
 25 26  1  0
 27 25  2  0
M  END
$$$$
