DRT.pdb
     RDKit          3D

 27 26  0  0  1  0  0  0  0  0999 V2000
   20.8393  -21.9165  -14.8490 N   0  0  0  0  0  0  0  0  0  0  0  0
   20.3482  -20.5559  -14.8975 C   0  0  1  0  0  0  0  0  0  0  0  0
   19.4744  -20.2995  -13.6949 C   0  0  0  0  0  0  0  0  0  0  0  0
   18.3929  -21.3158  -13.6289 C   0  0  0  0  0  0  0  0  0  0  0  0
   17.3737  -21.1909  -14.3830 O   0  0  0  0  0  0  0  0  0  0  0  0
   21.4482  -19.5698  -15.0148 C   0  0  0  0  0  0  0  0  0  0  0  0
   21.2159  -18.3190  -14.9946 O   0  0  0  0  0  0  0  0  0  0  0  0
   18.4184  -22.3989  -12.7957 O   0  0  0  0  0  0  0  0  0  0  0  0
   27.2560  -21.6101  -12.7504 N   0  0  0  0  0  0  0  0  0  0  0  0
   26.6366  -20.7107  -11.8573 C   0  0  0  0  0  0  0  0  0  0  0  0
   26.1221  -21.0865  -10.7254 N   0  0  0  0  0  0  0  0  0  0  0  0
   26.5637  -19.3275  -12.1954 N   0  0  0  0  0  0  0  0  0  0  0  0
   27.2347  -18.8015  -13.3812 C   0  0  0  0  0  0  0  0  0  0  0  0
   26.1636  -18.3461  -14.3500 C   0  0  0  0  0  0  0  0  0  0  0  0
   25.0518  -19.3650  -14.3105 C   0  0  0  0  0  0  0  0  0  0  0  0
   23.8982  -18.9991  -15.2089 C   0  0  2  0  0  0  0  0  0  0  0  0
   22.8126  -19.9385  -15.1554 N   0  0  0  0  0  0  0  0  0  0  0  0
   24.4203  -18.9065  -16.5892 C   0  0  0  0  0  0  0  0  0  0  0  0
   24.7828  -19.9699  -17.1860 O   0  0  0  0  0  0  0  0  0  0  0  0
   25.5481  -20.4605  -10.1478 C   0  0  0  0  0  0  0  0  0  0  0  0
   24.8976  -15.1279  -18.7476 C   0  0  2  0  0  0  0  0  0  0  0  0
   24.4342  -16.4070  -19.3650 O   0  0  0  0  0  0  0  0  0  0  0  0
   24.8093  -16.4788  -20.6991 C   0  0  1  0  0  0  0  0  0  0  0  0
   24.9874  -17.6247  -18.6558 N   0  0  0  0  0  0  0  0  0  0  0  0
   24.5411  -17.6835  -17.2932 C   0  0  0  0  0  0  0  0  0  0  0  0
   26.4535  -17.5575  -18.7270 O   0  0  0  0  0  0  0  0  0  0  0  0
   27.1197  -17.8030  -19.9137 O   0  0  0  0  0  0  0  0  0  0  0  0
  2  1  1  1
  3  2  1  0
  3  4  1  0
  4  5  2  0
  4  8  1  0
  6  7  2  0
  6  2  1  0
  9 10  1  0
 10 12  1  0
 11 10  2  0
 12 13  1  0
 14 13  1  0
 15 14  1  0
 16 15  1  1
 16 17  1  0
 17  6  1  0
 18 16  1  0
 18 19  2  0
 21 20  1  6
 21 22  1  0
 21 23  1  0
 23 25  1  0
 23 24  1  6
 24 18  1  0
 25 26  1  0
 27 25  2  0
M  END
$$$$
