DRT.pdb
     RDKit          3D

 27 26  0  0  1  0  0  0  0  0999 V2000
   18.9381   -9.0467  -16.4170 N   0  0  0  0  0  0  0  0  0  0  0  0
   19.2470   -8.9532  -15.0061 C   0  0  1  0  0  0  0  0  0  0  0  0
   20.4216   -8.0262  -14.8147 C   0  0  0  0  0  0  0  0  0  0  0  0
   21.6254   -8.5907  -15.4772 C   0  0  0  0  0  0  0  0  0  0  0  0
   22.4005   -7.8157  -16.1263 O   0  0  0  0  0  0  0  0  0  0  0  0
   18.0703   -8.5443  -14.2034 C   0  0  0  0  0  0  0  0  0  0  0  0
   17.3054   -7.6034  -14.5886 O   0  0  0  0  0  0  0  0  0  0  0  0
   21.9644   -9.9142  -15.4362 O   0  0  0  0  0  0  0  0  0  0  0  0
   12.1789  -13.0239   -9.4308 N   0  0  0  0  0  0  0  0  0  0  0  0
   11.7865  -11.6720   -9.3381 C   0  0  0  0  0  0  0  0  0  0  0  0
   10.6663  -11.3009   -8.7956 N   0  0  0  0  0  0  0  0  0  0  0  0
   12.6436  -10.6575   -9.8566 N   0  0  0  0  0  0  0  0  0  0  0  0
   13.9165  -10.9923  -10.4899 C   0  0  0  0  0  0  0  0  0  0  0  0
   14.5753   -9.6948  -10.9090 C   0  0  0  0  0  0  0  0  0  0  0  0
   15.8463  -10.0462  -11.6417 C   0  0  0  0  0  0  0  0  0  0  0  0
   16.5321   -8.8374  -12.2251 C   0  0  2  0  0  0  0  0  0  0  0  0
   17.7164   -9.1579  -12.9723 N   0  0  0  0  0  0  0  0  0  0  0  0
   16.8691   -7.9326  -11.1052 C   0  0  0  0  0  0  0  0  0  0  0  0
   17.6942   -8.3249  -10.2200 O   0  0  0  0  0  0  0  0  0  0  0  0
   10.3838  -10.3151   -8.7373 C   0  0  0  0  0  0  0  0  0  0  0  0
   14.5492   -4.4825  -10.0044 C   0  0  2  0  0  0  0  0  0  0  0  0
   16.0406   -4.3994  -10.0375 O   0  0  0  0  0  0  0  0  0  0  0  0
   16.5149   -3.5818   -9.0215 C   0  0  1  0  0  0  0  0  0  0  0  0
   16.6983   -5.7554   -9.8944 N   0  0  0  0  0  0  0  0  0  0  0  0
   16.3172   -6.6362  -10.9613 C   0  0  0  0  0  0  0  0  0  0  0  0
   16.3068   -6.3081   -8.5904 O   0  0  0  0  0  0  0  0  0  0  0  0
   16.8090   -5.7805   -7.4149 O   0  0  0  0  0  0  0  0  0  0  0  0
  2  1  1  6
  3  2  1  0
  3  4  1  0
  4  5  2  0
  4  8  1  0
  6  7  2  0
  6  2  1  0
  9 10  1  0
 10 12  1  0
 11 10  2  0
 12 13  1  0
 14 13  1  0
 15 14  1  0
 16 15  1  1
 16 17  1  0
 17  6  1  0
 18 16  1  0
 18 19  2  0
 21 20  1  6
 21 22  1  0
 21 23  1  0
 23 25  1  0
 23 24  1  6
 24 18  1  0
 25 26  1  0
 27 25  2  0
M  END
$$$$
