DRT.pdb
     RDKit          3D

 27 26  0  0  1  0  0  0  0  0999 V2000
   19.7879  -10.2923  -14.5631 N   0  0  0  0  0  0  0  0  0  0  0  0
   19.0708   -9.2057  -15.1953 C   0  0  1  0  0  0  0  0  0  0  0  0
   18.6005   -9.6471  -16.5589 C   0  0  0  0  0  0  0  0  0  0  0  0
   19.7433  -10.1903  -17.3373 C   0  0  0  0  0  0  0  0  0  0  0  0
   19.6243  -10.3401  -18.5967 O   0  0  0  0  0  0  0  0  0  0  0  0
   17.9602   -8.7049  -14.3516 C   0  0  0  0  0  0  0  0  0  0  0  0
   17.1770   -7.7926  -14.7676 O   0  0  0  0  0  0  0  0  0  0  0  0
   20.9395  -10.5480  -16.7809 O   0  0  0  0  0  0  0  0  0  0  0  0
   12.5133  -12.7207   -9.0502 N   0  0  0  0  0  0  0  0  0  0  0  0
   12.0803  -11.8862  -10.1020 C   0  0  0  0  0  0  0  0  0  0  0  0
   10.9228  -12.0215  -10.6755 N   0  0  0  0  0  0  0  0  0  0  0  0
   12.9366  -10.8456  -10.5674 N   0  0  0  0  0  0  0  0  0  0  0  0
   14.1958  -10.5423   -9.8924 C   0  0  0  0  0  0  0  0  0  0  0  0
   14.8078   -9.3409  -10.5819 C   0  0  0  0  0  0  0  0  0  0  0  0
   15.9658   -9.8347  -11.4131 C   0  0  0  0  0  0  0  0  0  0  0  0
   16.6091   -8.7368  -12.2209 C   0  0  2  0  0  0  0  0  0  0  0  0
   17.6929   -9.1944  -13.0453 N   0  0  0  0  0  0  0  0  0  0  0  0
   17.0925   -7.7106  -11.2724 C   0  0  0  0  0  0  0  0  0  0  0  0
   18.1338   -7.9485  -10.5816 O   0  0  0  0  0  0  0  0  0  0  0  0
   10.6331  -11.4418  -11.4724 C   0  0  0  0  0  0  0  0  0  0  0  0
   14.7851   -4.2632  -10.1000 C   0  0  2  0  0  0  0  0  0  0  0  0
   16.2459   -4.1372  -10.3868 O   0  0  0  0  0  0  0  0  0  0  0  0
   16.8373   -3.2017   -9.5496 C   0  0  1  0  0  0  0  0  0  0  0  0
   16.9829   -5.4489  -10.2196 N   0  0  0  0  0  0  0  0  0  0  0  0
   16.4522   -6.4608  -11.0878 C   0  0  0  0  0  0  0  0  0  0  0  0
   16.8684   -5.8511   -8.8110 O   0  0  0  0  0  0  0  0  0  0  0  0
   17.5248   -5.1501   -7.8159 O   0  0  0  0  0  0  0  0  0  0  0  0
  2  1  1  1
  3  2  1  0
  3  4  1  0
  4  5  2  0
  4  8  1  0
  6  7  2  0
  6  2  1  0
  9 10  1  0
 10 12  1  0
 11 10  2  0
 12 13  1  0
 14 13  1  0
 15 14  1  0
 16 15  1  1
 16 17  1  0
 17  6  1  0
 18 16  1  0
 18 19  2  0
 21 20  1  6
 21 22  1  0
 21 23  1  0
 23 25  1  0
 23 24  1  6
 24 18  1  0
 25 26  1  0
 27 25  2  0
M  END
$$$$
