DRT.pdb
     RDKit          3D

 27 26  0  0  1  0  0  0  0  0999 V2000
   15.8342  -10.7185  -15.6408 N   0  0  0  0  0  0  0  0  0  0  0  0
   16.8076  -10.6191  -14.5744 C   0  0  1  0  0  0  0  0  0  0  0  0
   18.0512  -11.3786  -14.9639 C   0  0  0  0  0  0  0  0  0  0  0  0
   17.7851  -12.8397  -14.9255 C   0  0  0  0  0  0  0  0  0  0  0  0
   16.6421  -13.2550  -14.5462 O   0  0  0  0  0  0  0  0  0  0  0  0
   17.0975   -9.2113  -14.2134 C   0  0  0  0  0  0  0  0  0  0  0  0
   17.0455   -8.2844  -15.0834 O   0  0  0  0  0  0  0  0  0  0  0  0
   18.7039  -13.7884  -15.2774 O   0  0  0  0  0  0  0  0  0  0  0  0
   14.5241   -6.3056   -6.9640 N   0  0  0  0  0  0  0  0  0  0  0  0
   14.0021   -7.2454   -7.8775 C   0  0  0  0  0  0  0  0  0  0  0  0
   13.0188   -8.0411   -7.5825 N   0  0  0  0  0  0  0  0  0  0  0  0
   14.5657   -7.3390   -9.1838 N   0  0  0  0  0  0  0  0  0  0  0  0
   15.3732   -6.2563   -9.7395 C   0  0  0  0  0  0  0  0  0  0  0  0
   15.7422   -6.6406  -11.1570 C   0  0  0  0  0  0  0  0  0  0  0  0
   17.1806   -7.0951  -11.1452 C   0  0  0  0  0  0  0  0  0  0  0  0
   17.6919   -7.4365  -12.5214 C   0  0  2  0  0  0  0  0  0  0  0  0
   17.4471   -8.8007  -12.8994 N   0  0  0  0  0  0  0  0  0  0  0  0
   19.1442   -7.1590  -12.5385 C   0  0  0  0  0  0  0  0  0  0  0  0
   19.8819   -7.6683  -11.6359 O   0  0  0  0  0  0  0  0  0  0  0  0
   12.6125   -8.6900   -8.2672 C   0  0  0  0  0  0  0  0  0  0  0  0
   23.1888   -6.0019  -15.0522 C   0  0  2  0  0  0  0  0  0  0  0  0
   21.7057   -6.1679  -14.9820 O   0  0  0  0  0  0  0  0  0  0  0  0
   21.3113   -7.3613  -15.5702 C   0  0  1  0  0  0  0  0  0  0  0  0
   21.1892   -6.1530  -13.5590 N   0  0  0  0  0  0  0  0  0  0  0  0
   19.7679   -6.3467  -13.5169 C   0  0  0  0  0  0  0  0  0  0  0  0
   21.5627   -4.8642  -12.9600 O   0  0  0  0  0  0  0  0  0  0  0  0
   20.6851   -3.7954  -12.9685 O   0  0  0  0  0  0  0  0  0  0  0  0
  2  1  1  6
  3  2  1  0
  3  4  1  0
  4  5  2  0
  4  8  1  0
  6  7  2  0
  6  2  1  0
  9 10  1  0
 10 12  1  0
 11 10  2  0
 12 13  1  0
 14 13  1  0
 15 14  1  0
 16 15  1  1
 16 17  1  0
 17  6  1  0
 18 16  1  0
 18 19  2  0
 21 20  1  6
 21 22  1  0
 21 23  1  0
 23 25  1  0
 23 24  1  6
 24 18  1  0
 25 26  1  0
 27 25  2  0
M  END
$$$$
