DRT.pdb
     RDKit          3D

 27 26  0  0  1  0  0  0  0  0999 V2000
   19.0690  -22.0979  -11.1703 N   0  0  0  0  0  0  0  0  0  0  0  0
   19.4136  -22.2140  -12.5712 C   0  0  1  0  0  0  0  0  0  0  0  0
   18.1489  -22.2903  -13.3897 C   0  0  0  0  0  0  0  0  0  0  0  0
   17.3547  -23.4787  -12.9849 C   0  0  0  0  0  0  0  0  0  0  0  0
   17.9442  -24.5963  -12.8227 O   0  0  0  0  0  0  0  0  0  0  0  0
   20.3083  -21.1203  -13.0179 C   0  0  0  0  0  0  0  0  0  0  0  0
   20.0885  -19.9123  -12.6845 O   0  0  0  0  0  0  0  0  0  0  0  0
   16.0051  -23.4530  -12.7702 O   0  0  0  0  0  0  0  0  0  0  0  0
   27.9252  -21.9926  -15.0098 N   0  0  0  0  0  0  0  0  0  0  0  0
   27.5779  -20.6272  -14.9384 C   0  0  0  0  0  0  0  0  0  0  0  0
   28.1637  -19.7147  -15.6534 N   0  0  0  0  0  0  0  0  0  0  0  0
   26.5427  -20.2140  -14.0494 N   0  0  0  0  0  0  0  0  0  0  0  0
   25.9023  -21.1611  -13.1406 C   0  0  0  0  0  0  0  0  0  0  0  0
   24.4692  -20.7120  -12.9457 C   0  0  0  0  0  0  0  0  0  0  0  0
   23.7957  -20.7423  -14.2951 C   0  0  0  0  0  0  0  0  0  0  0  0
   22.3579  -20.2941  -14.2355 C   0  0  2  0  0  0  0  0  0  0  0  0
   21.4518  -21.3336  -13.8329 N   0  0  0  0  0  0  0  0  0  0  0  0
   21.9910  -19.7943  -15.5780 C   0  0  0  0  0  0  0  0  0  0  0  0
   21.7931  -20.6302  -16.5163 O   0  0  0  0  0  0  0  0  0  0  0  0
   27.8800  -18.7279  -15.6249 C   0  0  0  0  0  0  0  0  0  0  0  0
   19.0281  -17.3707  -16.5596 C   0  0  2  0  0  0  0  0  0  0  0  0
   20.3563  -16.8573  -17.0116 O   0  0  0  0  0  0  0  0  0  0  0  0
   20.8572  -15.9215  -16.1177 C   0  0  2  0  0  0  0  0  0  0  0  0
   21.3822  -17.9606  -17.1599 N   0  0  0  0  0  0  0  0  0  0  0  0
   21.8458  -18.4185  -15.8813 C   0  0  0  0  0  0  0  0  0  0  0  0
   22.4932  -17.4345  -17.9650 O   0  0  0  0  0  0  0  0  0  0  0  0
   22.3166  -17.1185  -19.2997 O   0  0  0  0  0  0  0  0  0  0  0  0
  2  1  1  1
  3  2  1  0
  3  4  1  0
  4  5  2  0
  4  8  1  0
  6  7  2  0
  6  2  1  0
  9 10  1  0
 10 12  1  0
 11 10  2  0
 12 13  1  0
 14 13  1  0
 15 14  1  0
 16 15  1  6
 16 17  1  0
 17  6  1  0
 18 16  1  0
 18 19  2  0
 21 20  1  6
 21 22  1  0
 21 23  1  0
 23 25  1  0
 23 24  1  6
 24 18  1  0
 25 26  1  0
 27 25  2  0
M  END
$$$$
