DRT.pdb
     RDKit          3D

 27 26  0  0  1  0  0  0  0  0999 V2000
   25.5631  -21.4544  -15.8364 N   0  0  0  0  0  0  0  0  0  0  0  0
   25.1221  -22.8294  -15.7376 C   0  0  1  0  0  0  0  0  0  0  0  0
   26.2673  -23.6855  -15.2570 C   0  0  0  0  0  0  0  0  0  0  0  0
   27.3564  -23.6879  -16.2674 C   0  0  0  0  0  0  0  0  0  0  0  0
   27.2007  -23.0399  -17.3530 O   0  0  0  0  0  0  0  0  0  0  0  0
   23.9182  -22.9691  -14.8849 C   0  0  0  0  0  0  0  0  0  0  0  0
   23.4154  -24.1114  -14.6378 O   0  0  0  0  0  0  0  0  0  0  0  0
   28.5397  -24.3531  -16.1069 O   0  0  0  0  0  0  0  0  0  0  0  0
   18.6370  -20.7991   -8.7965 N   0  0  0  0  0  0  0  0  0  0  0  0
   19.8908  -21.2052   -8.2933 C   0  0  0  0  0  0  0  0  0  0  0  0
   20.0243  -21.8416   -7.1689 N   0  0  0  0  0  0  0  0  0  0  0  0
   21.0714  -20.9129   -9.0373 N   0  0  0  0  0  0  0  0  0  0  0  0
   21.0123  -20.1547  -10.2843 C   0  0  0  0  0  0  0  0  0  0  0  0
   20.8754  -21.1482  -11.4189 C   0  0  0  0  0  0  0  0  0  0  0  0
   22.0995  -21.0148  -12.2904 C   0  0  0  0  0  0  0  0  0  0  0  0
   22.0953  -21.9806  -13.4475 C   0  0  2  0  0  0  0  0  0  0  0  0
   23.2507  -21.8637  -14.2931 N   0  0  0  0  0  0  0  0  0  0  0  0
   20.8666  -21.7312  -14.2315 C   0  0  0  0  0  0  0  0  0  0  0  0
   20.7998  -20.6925  -14.9629 O   0  0  0  0  0  0  0  0  0  0  0  0
   20.9405  -22.1334   -6.8080 C   0  0  0  0  0  0  0  0  0  0  0  0
   16.4236  -23.2716  -15.8518 C   0  0  1  0  0  0  0  0  0  0  0  0
   17.6484  -23.5247  -15.0346 O   0  0  0  0  0  0  0  0  0  0  0  0
   18.3943  -24.5665  -15.5676 C   0  0  1  0  0  0  0  0  0  0  0  0
   18.5428  -22.3069  -14.9416 N   0  0  0  0  0  0  0  0  0  0  0  0
   19.7450  -22.5959  -14.2132 C   0  0  0  0  0  0  0  0  0  0  0  0
   17.7764  -21.2365  -14.2889 O   0  0  0  0  0  0  0  0  0  0  0  0
   17.0959  -20.2924  -15.0358 O   0  0  0  0  0  0  0  0  0  0  0  0
  2  1  1  1
  3  2  1  0
  3  4  1  0
  4  5  2  0
  4  8  1  0
  6  7  2  0
  6  2  1  0
  9 10  1  0
 10 12  1  0
 11 10  2  0
 12 13  1  0
 14 13  1  0
 15 14  1  0
 16 15  1  1
 16 17  1  0
 17  6  1  0
 18 16  1  0
 18 19  2  0
 21 20  1  1
 21 22  1  0
 21 23  1  0
 23 25  1  0
 23 24  1  1
 24 18  1  0
 25 26  1  0
 27 25  2  0
M  END
$$$$
