QEE.pdb
     RDKit          3D

 28 27  0  0  1  0  0  0  0  0999 V2000
    8.7815  -12.0157   18.7005 N   0  0  0  0  0  0  0  0  0  0  0  0
    7.6289  -12.7032   19.2198 C   0  0  0  0  0  0  0  0  0  0  0  0
    6.5187  -12.1608   19.0591 O   0  0  0  0  0  0  0  0  0  0  0  0
    7.7307  -13.9898   19.9146 C   0  0  0  0  0  0  0  0  0  0  0  0
    9.1199  -14.4670   20.0479 C   0  0  0  0  0  0  0  0  0  0  0  0
    9.8082  -14.9886   18.8423 C   0  0  2  0  0  0  0  0  0  0  0  0
    9.0634  -16.1954   18.3813 N   0  0  0  0  0  0  0  0  0  0  0  0
   11.2008  -15.3944   18.9912 C   0  0  0  0  0  0  0  0  0  0  0  0
   11.4466  -16.5674   19.4420 O   0  0  0  0  0  0  0  0  0  0  0  0
   12.3598  -14.6441   18.6908 N   0  0  0  0  0  0  0  0  0  0  0  0
   13.7101  -15.1766   18.8938 C   0  0  1  0  0  0  0  0  0  0  0  0
   14.5302  -14.4223   17.8311 C   0  0  0  0  0  0  0  0  0  0  0  0
   15.9755  -14.7473   17.8359 C   0  0  0  0  0  0  0  0  0  0  0  0
   16.7073  -13.9399   16.8602 C   0  0  0  0  0  0  0  0  0  0  0  0
   17.5377  -13.0893   17.2086 O   0  0  0  0  0  0  0  0  0  0  0  0
   14.2283  -14.8973   20.2436 C   0  0  0  0  0  0  0  0  0  0  0  0
   14.2521  -13.6886   20.6736 O   0  0  0  0  0  0  0  0  0  0  0  0
   16.4565  -14.1401   15.4919 O   0  0  0  0  0  0  0  0  0  0  0  0
   14.6939  -15.9397   21.0617 N   0  0  0  0  0  0  0  0  0  0  0  0
   15.2028  -15.6518   22.4175 C   0  0  1  0  0  0  0  0  0  0  0  0
   14.6208  -16.7159   23.2778 C   0  0  0  0  0  0  0  0  0  0  0  0
   13.1723  -16.6847   23.5635 C   0  0  0  0  0  0  0  0  0  0  0  0
   12.7727  -17.7933   24.4462 C   0  0  0  0  0  0  0  0  0  0  0  0
   11.5236  -18.0711   24.5194 O   0  0  0  0  0  0  0  0  0  0  0  0
   16.6457  -15.5049   22.3547 C   0  0  0  0  0  0  0  0  0  0  0  0
   17.2740  -15.1018   23.3946 O   0  0  0  0  0  0  0  0  0  0  0  0
   13.6798  -18.5237   25.1782 O   0  0  0  0  0  0  0  0  0  0  0  0
   17.4220  -15.7700   21.2379 O   0  0  0  0  0  0  0  0  0  0  0  0
  2  1  1  0
  2  3  2  0
  4  5  1  0
  4  2  1  0
  5  6  1  0
  6  7  1  1
  8  6  1  0
  8 10  1  0
  9  8  2  0
 11 10  1  0
 12 13  1  0
 11 12  1  6
 14 13  1  0
 15 14  2  0
 16 11  1  0
 17 16  2  0
 18 14  1  0
 19 16  1  0
 20 19  1  0
 20 25  1  0
 20 21  1  1
 22 21  1  0
 22 23  1  0
 23 27  1  0
 24 23  2  0
 25 28  1  0
 26 25  2  0
M  END
$$$$
