QEE.pdb
     RDKit          3D

 28 27  0  0  1  0  0  0  0  0999 V2000
    9.1731  -12.8673   16.7106 N   0  0  0  0  0  0  0  0  0  0  0  0
    7.8112  -13.3006   16.8799 C   0  0  0  0  0  0  0  0  0  0  0  0
    7.1141  -13.4105   15.8530 O   0  0  0  0  0  0  0  0  0  0  0  0
    7.2434  -13.6052   18.1963 C   0  0  0  0  0  0  0  0  0  0  0  0
    8.2159  -13.4543   19.2949 C   0  0  0  0  0  0  0  0  0  0  0  0
    8.8228  -14.6764   19.8762 C   0  0  2  0  0  0  0  0  0  0  0  0
    8.2439  -15.8524   19.1650 N   0  0  0  0  0  0  0  0  0  0  0  0
    8.6165  -14.9120   21.3003 C   0  0  0  0  0  0  0  0  0  0  0  0
    8.9621  -13.9945   22.1239 O   0  0  0  0  0  0  0  0  0  0  0  0
    8.0627  -16.0551   21.9191 N   0  0  0  0  0  0  0  0  0  0  0  0
    8.0408  -16.2227   23.3750 C   0  0  1  0  0  0  0  0  0  0  0  0
    6.7258  -16.9905   23.6035 C   0  0  0  0  0  0  0  0  0  0  0  0
    6.4845  -18.0838   22.6334 C   0  0  0  0  0  0  0  0  0  0  0  0
    5.7438  -19.1865   23.2455 C   0  0  0  0  0  0  0  0  0  0  0  0
    5.3784  -19.1499   24.4286 O   0  0  0  0  0  0  0  0  0  0  0  0
    9.1888  -17.0013   23.8692 C   0  0  0  0  0  0  0  0  0  0  0  0
    9.7825  -17.8213   23.0807 O   0  0  0  0  0  0  0  0  0  0  0  0
    5.4419  -20.3151   22.4643 O   0  0  0  0  0  0  0  0  0  0  0  0
    9.6383  -16.8535   25.1916 N   0  0  0  0  0  0  0  0  0  0  0  0
   10.9304  -17.4338   25.6083 C   0  0  1  0  0  0  0  0  0  0  0  0
   11.9598  -16.5833   24.9539 C   0  0  0  0  0  0  0  0  0  0  0  0
   12.6888  -17.1218   23.7880 C   0  0  0  0  0  0  0  0  0  0  0  0
   13.9763  -16.4346   23.5927 C   0  0  0  0  0  0  0  0  0  0  0  0
   13.9742  -15.3609   22.8928 O   0  0  0  0  0  0  0  0  0  0  0  0
   10.9395  -17.5672   27.0539 C   0  0  0  0  0  0  0  0  0  0  0  0
   11.9611  -18.0885   27.6223 O   0  0  0  0  0  0  0  0  0  0  0  0
   15.1551  -16.9004   24.1272 O   0  0  0  0  0  0  0  0  0  0  0  0
    9.9116  -17.1688   27.8935 O   0  0  0  0  0  0  0  0  0  0  0  0
  2  1  1  0
  2  3  2  0
  4  5  1  0
  4  2  1  0
  5  6  1  0
  6  7  1  6
  8  6  1  0
  8 10  1  0
  9  8  2  0
 11 10  1  0
 12 13  1  0
 11 12  1  6
 14 13  1  0
 15 14  2  0
 16 11  1  0
 17 16  2  0
 18 14  1  0
 19 16  1  0
 20 19  1  0
 20 25  1  0
 20 21  1  1
 22 21  1  0
 22 23  1  0
 23 27  1  0
 24 23  2  0
 25 28  1  0
 26 25  2  0
M  END
$$$$
