QEE.pdb
     RDKit          3D

 28 27  0  0  1  0  0  0  0  0999 V2000
   10.2286  -13.6524   19.6531 N   0  0  0  0  0  0  0  0  0  0  0  0
    9.1938  -12.9900   18.9038 C   0  0  0  0  0  0  0  0  0  0  0  0
    9.5026  -12.5252   17.7897 O   0  0  0  0  0  0  0  0  0  0  0  0
    7.8249  -12.8536   19.4094 C   0  0  0  0  0  0  0  0  0  0  0  0
    7.6223  -13.5091   20.7151 C   0  0  0  0  0  0  0  0  0  0  0  0
    7.5011  -14.9867   20.7543 C   0  0  2  0  0  0  0  0  0  0  0  0
    6.3156  -15.3664   19.9334 N   0  0  0  0  0  0  0  0  0  0  0  0
    7.3151  -15.6071   22.0607 C   0  0  0  0  0  0  0  0  0  0  0  0
    6.4262  -15.1201   22.8432 O   0  0  0  0  0  0  0  0  0  0  0  0
    8.0039  -16.7166   22.6001 N   0  0  0  0  0  0  0  0  0  0  0  0
    7.7292  -17.2286   23.9456 C   0  0  1  0  0  0  0  0  0  0  0  0
    7.3159  -18.6861   23.6709 C   0  0  0  0  0  0  0  0  0  0  0  0
    6.9956  -19.4664   24.8888 C   0  0  0  0  0  0  0  0  0  0  0  0
    6.5946  -20.8332   24.5567 C   0  0  0  0  0  0  0  0  0  0  0  0
    6.2551  -21.6440   25.4296 O   0  0  0  0  0  0  0  0  0  0  0  0
    8.9141  -17.1810   24.8187 C   0  0  0  0  0  0  0  0  0  0  0  0
   10.0758  -17.3999   24.3196 O   0  0  0  0  0  0  0  0  0  0  0  0
    6.5968  -21.2306   23.2086 O   0  0  0  0  0  0  0  0  0  0  0  0
    8.7836  -16.8981   26.1883 N   0  0  0  0  0  0  0  0  0  0  0  0
    9.9765  -16.8574   27.0573 C   0  0  1  0  0  0  0  0  0  0  0  0
    9.7455  -15.7057   27.9692 C   0  0  0  0  0  0  0  0  0  0  0  0
    9.6878  -14.3463   27.3953 C   0  0  0  0  0  0  0  0  0  0  0  0
    9.4983  -13.3271   28.4409 C   0  0  0  0  0  0  0  0  0  0  0  0
    8.3851  -13.3303   29.0761 O   0  0  0  0  0  0  0  0  0  0  0  0
   10.1873  -18.1767   27.6253 C   0  0  0  0  0  0  0  0  0  0  0  0
    9.2335  -19.0293   27.5843 O   0  0  0  0  0  0  0  0  0  0  0  0
   10.4591  -12.3924   28.7494 O   0  0  0  0  0  0  0  0  0  0  0  0
   11.3619  -18.6040   28.2236 O   0  0  0  0  0  0  0  0  0  0  0  0
  2  1  1  0
  2  3  2  0
  4  5  1  0
  4  2  1  0
  5  6  1  0
  6  7  1  6
  8  6  1  0
  8 10  1  0
  9  8  2  0
 11 10  1  0
 12 13  1  0
 11 12  1  6
 14 13  1  0
 15 14  2  0
 16 11  1  0
 17 16  2  0
 18 14  1  0
 19 16  1  0
 20 19  1  0
 20 25  1  0
 20 21  1  1
 22 21  1  0
 22 23  1  0
 23 27  1  0
 24 23  2  0
 25 28  1  0
 26 25  2  0
M  END
$$$$
