QEE.pdb
     RDKit          3D

 28 27  0  0  1  0  0  0  0  0999 V2000
    6.1495  -14.3701   15.8552 N   0  0  0  0  0  0  0  0  0  0  0  0
    7.5807  -14.5021   15.7834 C   0  0  0  0  0  0  0  0  0  0  0  0
    8.0737  -14.7908   14.6761 O   0  0  0  0  0  0  0  0  0  0  0  0
    8.4451  -14.3108   16.9515 C   0  0  0  0  0  0  0  0  0  0  0  0
    7.6943  -13.9978   18.1819 C   0  0  0  0  0  0  0  0  0  0  0  0
    8.4534  -13.7610   19.4338 C   0  0  2  0  0  0  0  0  0  0  0  0
    8.8455  -12.3226   19.4611 N   0  0  0  0  0  0  0  0  0  0  0  0
    9.6789  -14.5272   19.6269 C   0  0  0  0  0  0  0  0  0  0  0  0
    9.5790  -15.7522   19.9858 O   0  0  0  0  0  0  0  0  0  0  0  0
   11.0116  -14.0879   19.4617 N   0  0  0  0  0  0  0  0  0  0  0  0
   12.1574  -14.9864   19.6291 C   0  0  1  0  0  0  0  0  0  0  0  0
   13.1842  -14.4070   18.6388 C   0  0  0  0  0  0  0  0  0  0  0  0
   14.4473  -15.1764   18.5542 C   0  0  0  0  0  0  0  0  0  0  0  0
   15.3871  -14.5582   17.6193 C   0  0  0  0  0  0  0  0  0  0  0  0
   15.6611  -13.3513   17.6718 O   0  0  0  0  0  0  0  0  0  0  0  0
   12.6918  -14.9674   21.0011 C   0  0  0  0  0  0  0  0  0  0  0  0
   12.7238  -13.8617   21.6514 O   0  0  0  0  0  0  0  0  0  0  0  0
   15.9921  -15.3614   16.6374 O   0  0  0  0  0  0  0  0  0  0  0  0
   13.1641  -16.1458   21.6020 N   0  0  0  0  0  0  0  0  0  0  0  0
   13.5778  -16.1449   23.0193 C   0  0  1  0  0  0  0  0  0  0  0  0
   12.7761  -17.2259   23.6518 C   0  0  0  0  0  0  0  0  0  0  0  0
   11.8539  -16.8755   24.7506 C   0  0  0  0  0  0  0  0  0  0  0  0
   11.1595  -18.0647   25.2718 C   0  0  0  0  0  0  0  0  0  0  0  0
   11.8820  -19.0184   25.7312 O   0  0  0  0  0  0  0  0  0  0  0  0
   15.0266  -16.2099   23.0844 C   0  0  0  0  0  0  0  0  0  0  0  0
   15.6659  -16.7707   22.1277 O   0  0  0  0  0  0  0  0  0  0  0  0
    9.7888  -18.1800   25.2801 O   0  0  0  0  0  0  0  0  0  0  0  0
   15.7975  -15.7044   24.1191 O   0  0  0  0  0  0  0  0  0  0  0  0
  2  1  1  0
  2  3  2  0
  4  5  1  0
  4  2  1  0
  5  6  1  0
  6  7  1  6
  8  6  1  0
  8 10  1  0
  9  8  2  0
 11 10  1  0
 12 13  1  0
 11 12  1  6
 14 13  1  0
 15 14  2  0
 16 11  1  0
 17 16  2  0
 18 14  1  0
 19 16  1  0
 20 19  1  0
 20 25  1  0
 20 21  1  1
 22 21  1  0
 22 23  1  0
 23 27  1  0
 24 23  2  0
 25 28  1  0
 26 25  2  0
M  END
$$$$
