QEE.pdb
     RDKit          3D

 28 27  0  0  1  0  0  0  0  0999 V2000
    8.1816  -12.1329   18.7276 N   0  0  0  0  0  0  0  0  0  0  0  0
    7.9551  -13.2742   17.8808 C   0  0  0  0  0  0  0  0  0  0  0  0
    7.6920  -13.0545   16.6829 O   0  0  0  0  0  0  0  0  0  0  0  0
    8.0243  -14.6493   18.3836 C   0  0  0  0  0  0  0  0  0  0  0  0
    8.2016  -14.7224   19.8459 C   0  0  0  0  0  0  0  0  0  0  0  0
    9.0920  -15.7713   20.3997 C   0  0  2  0  0  0  0  0  0  0  0  0
    9.1729  -16.8727   19.3976 N   0  0  0  0  0  0  0  0  0  0  0  0
    8.6949  -16.3876   21.6601 C   0  0  0  0  0  0  0  0  0  0  0  0
    8.4919  -15.6274   22.6703 O   0  0  0  0  0  0  0  0  0  0  0  0
    8.4913  -17.7598   21.9284 N   0  0  0  0  0  0  0  0  0  0  0  0
    8.2679  -18.2662   23.2856 C   0  0  1  0  0  0  0  0  0  0  0  0
    6.9801  -19.0949   23.1255 C   0  0  0  0  0  0  0  0  0  0  0  0
    6.6063  -19.3706   21.7188 C   0  0  0  0  0  0  0  0  0  0  0  0
    5.4222  -20.2255   21.6390 C   0  0  0  0  0  0  0  0  0  0  0  0
    5.5108  -21.4601   21.5890 O   0  0  0  0  0  0  0  0  0  0  0  0
    9.3749  -19.1138   23.7594 C   0  0  0  0  0  0  0  0  0  0  0  0
    9.8093  -20.0618   23.0117 O   0  0  0  0  0  0  0  0  0  0  0  0
    4.1526  -19.6230   21.6192 O   0  0  0  0  0  0  0  0  0  0  0  0
    9.9577  -18.8931   25.0181 N   0  0  0  0  0  0  0  0  0  0  0  0
   11.4149  -19.0451   25.2010 C   0  0  1  0  0  0  0  0  0  0  0  0
   12.0228  -18.1107   24.2168 C   0  0  0  0  0  0  0  0  0  0  0  0
   13.4933  -17.9809   24.1759 C   0  0  0  0  0  0  0  0  0  0  0  0
   13.9275  -17.1136   23.0681 C   0  0  0  0  0  0  0  0  0  0  0  0
   13.9829  -15.8525   23.2902 O   0  0  0  0  0  0  0  0  0  0  0  0
   11.7288  -18.8892   26.6099 C   0  0  0  0  0  0  0  0  0  0  0  0
   10.9498  -18.1886   27.3451 O   0  0  0  0  0  0  0  0  0  0  0  0
   14.2677  -17.6055   21.8295 O   0  0  0  0  0  0  0  0  0  0  0  0
   12.8271  -19.4476   27.2441 O   0  0  0  0  0  0  0  0  0  0  0  0
  2  1  1  0
  2  3  2  0
  4  5  1  0
  4  2  1  0
  5  6  1  0
  6  7  1  6
  8  6  1  0
  8 10  1  0
  9  8  2  0
 11 10  1  0
 12 13  1  0
 11 12  1  6
 14 13  1  0
 15 14  2  0
 16 11  1  0
 17 16  2  0
 18 14  1  0
 19 16  1  0
 20 19  1  0
 20 25  1  0
 20 21  1  6
 22 21  1  0
 22 23  1  0
 23 27  1  0
 24 23  2  0
 25 28  1  0
 26 25  2  0
M  END
$$$$
