QEE.pdb
     RDKit          3D

 28 27  0  0  1  0  0  0  0  0999 V2000
    8.2910  -12.5043   16.6197 N   0  0  0  0  0  0  0  0  0  0  0  0
    7.7411  -13.5112   15.7510 C   0  0  0  0  0  0  0  0  0  0  0  0
    7.4833  -13.1766   14.5788 O   0  0  0  0  0  0  0  0  0  0  0  0
    7.4843  -14.8815   16.2033 C   0  0  0  0  0  0  0  0  0  0  0  0
    7.9071  -15.1199   17.5961 C   0  0  0  0  0  0  0  0  0  0  0  0
    9.1437  -15.9026   17.8366 C   0  0  2  0  0  0  0  0  0  0  0  0
    9.0974  -17.1054   16.9564 N   0  0  0  0  0  0  0  0  0  0  0  0
    9.3725  -16.3905   19.1915 C   0  0  0  0  0  0  0  0  0  0  0  0
    9.3721  -15.5420   20.1506 O   0  0  0  0  0  0  0  0  0  0  0  0
    9.5987  -17.7217   19.6074 N   0  0  0  0  0  0  0  0  0  0  0  0
    9.9294  -18.0620   20.9942 C   0  0  1  0  0  0  0  0  0  0  0  0
    9.4828  -19.5322   21.0933 C   0  0  0  0  0  0  0  0  0  0  0  0
    9.7876  -20.1731   22.3936 C   0  0  0  0  0  0  0  0  0  0  0  0
    9.4325  -21.5920   22.3854 C   0  0  0  0  0  0  0  0  0  0  0  0
    8.6352  -22.0699   23.2042 O   0  0  0  0  0  0  0  0  0  0  0  0
   11.3692  -17.9369   21.2765 C   0  0  0  0  0  0  0  0  0  0  0  0
   12.2005  -18.7048   20.6717 O   0  0  0  0  0  0  0  0  0  0  0  0
   10.0155  -22.4300   21.4195 O   0  0  0  0  0  0  0  0  0  0  0  0
   11.8383  -16.9866   22.1983 N   0  0  0  0  0  0  0  0  0  0  0  0
   13.2775  -16.9065   22.5181 C   0  0  1  0  0  0  0  0  0  0  0  0
   13.7798  -15.7495   21.7306 C   0  0  0  0  0  0  0  0  0  0  0  0
   13.8344  -15.8624   20.2592 C   0  0  0  0  0  0  0  0  0  0  0  0
   14.4210  -14.6584   19.6473 C   0  0  0  0  0  0  0  0  0  0  0  0
   14.9536  -13.7955   20.4311 O   0  0  0  0  0  0  0  0  0  0  0  0
   13.4370  -16.9013   23.9610 C   0  0  0  0  0  0  0  0  0  0  0  0
   14.6181  -16.8905   24.4544 O   0  0  0  0  0  0  0  0  0  0  0  0
   14.4145  -14.4371   18.2897 O   0  0  0  0  0  0  0  0  0  0  0  0
   12.3947  -16.9071   24.8741 O   0  0  0  0  0  0  0  0  0  0  0  0
  2  1  1  0
  2  3  2  0
  4  5  1  0
  4  2  1  0
  5  6  1  0
  6  7  1  6
  8  6  1  0
  8 10  1  0
  9  8  2  0
 11 10  1  0
 12 13  1  0
 11 12  1  6
 14 13  1  0
 15 14  2  0
 16 11  1  0
 17 16  2  0
 18 14  1  0
 19 16  1  0
 20 19  1  0
 20 25  1  0
 20 21  1  1
 22 21  1  0
 22 23  1  0
 23 27  1  0
 24 23  2  0
 25 28  1  0
 26 25  2  0
M  END
$$$$
