QEE.pdb
     RDKit          3D

 28 27  0  0  1  0  0  0  0  0999 V2000
    5.7730  -13.1087   19.8607 N   0  0  0  0  0  0  0  0  0  0  0  0
    7.1698  -12.7730   19.7763 C   0  0  0  0  0  0  0  0  0  0  0  0
    7.6738  -12.1746   20.7461 O   0  0  0  0  0  0  0  0  0  0  0  0
    7.9877  -13.1094   18.6074 C   0  0  0  0  0  0  0  0  0  0  0  0
    9.1728  -13.9202   18.9444 C   0  0  0  0  0  0  0  0  0  0  0  0
   10.0747  -14.3462   17.8469 C   0  0  2  0  0  0  0  0  0  0  0  0
    9.3116  -15.2797   16.9694 N   0  0  0  0  0  0  0  0  0  0  0  0
   11.3010  -15.0404   18.2214 C   0  0  0  0  0  0  0  0  0  0  0  0
   11.2071  -16.2274   18.6926 O   0  0  0  0  0  0  0  0  0  0  0  0
   12.6289  -14.5669   18.1282 N   0  0  0  0  0  0  0  0  0  0  0  0
   13.7601  -15.2909   18.7150 C   0  0  1  0  0  0  0  0  0  0  0  0
   14.9043  -14.9752   17.7342 C   0  0  0  0  0  0  0  0  0  0  0  0
   14.7593  -15.6147   16.4059 C   0  0  0  0  0  0  0  0  0  0  0  0
   15.9236  -15.3561   15.5592 C   0  0  0  0  0  0  0  0  0  0  0  0
   15.8708  -14.5775   14.5971 O   0  0  0  0  0  0  0  0  0  0  0  0
   14.0912  -14.8156   20.0688 C   0  0  0  0  0  0  0  0  0  0  0  0
   14.2389  -13.5584   20.2785 O   0  0  0  0  0  0  0  0  0  0  0  0
   17.1318  -16.0121   15.8509 O   0  0  0  0  0  0  0  0  0  0  0  0
   14.2451  -15.7240   21.1290 N   0  0  0  0  0  0  0  0  0  0  0  0
   14.5295  -15.2355   22.4930 C   0  0  1  0  0  0  0  0  0  0  0  0
   13.5591  -15.9496   23.3645 C   0  0  0  0  0  0  0  0  0  0  0  0
   13.6520  -17.4193   23.4748 C   0  0  0  0  0  0  0  0  0  0  0  0
   12.6769  -17.9502   24.4419 C   0  0  0  0  0  0  0  0  0  0  0  0
   12.4601  -17.2631   25.5019 O   0  0  0  0  0  0  0  0  0  0  0  0
   15.9505  -15.3771   22.7544 C   0  0  0  0  0  0  0  0  0  0  0  0
   16.6640  -16.0677   21.9466 O   0  0  0  0  0  0  0  0  0  0  0  0
   12.0067  -19.1354   24.2461 O   0  0  0  0  0  0  0  0  0  0  0  0
   16.6188  -14.8149   23.8303 O   0  0  0  0  0  0  0  0  0  0  0  0
  2  1  1  0
  2  3  2  0
  4  5  1  0
  4  2  1  0
  5  6  1  0
  6  7  1  6
  8  6  1  0
  8 10  1  0
  9  8  2  0
 11 10  1  0
 12 13  1  0
 11 12  1  6
 14 13  1  0
 15 14  2  0
 16 11  1  0
 17 16  2  0
 18 14  1  0
 19 16  1  0
 20 19  1  0
 20 25  1  0
 20 21  1  1
 22 21  1  0
 22 23  1  0
 23 27  1  0
 24 23  2  0
 25 28  1  0
 26 25  2  0
M  END
$$$$
