QEE.pdb
     RDKit          3D

 28 27  0  0  1  0  0  0  0  0999 V2000
    8.7030  -13.4896   17.0502 N   0  0  0  0  0  0  0  0  0  0  0  0
    8.3558  -13.0259   18.3675 C   0  0  0  0  0  0  0  0  0  0  0  0
    9.1366  -12.2248   18.9162 O   0  0  0  0  0  0  0  0  0  0  0  0
    7.1392  -13.4644   19.0575 C   0  0  0  0  0  0  0  0  0  0  0  0
    7.3708  -13.8170   20.4708 C   0  0  0  0  0  0  0  0  0  0  0  0
    8.6370  -14.4994   20.8320 C   0  0  2  0  0  0  0  0  0  0  0  0
    8.9692  -15.4506   19.7327 N   0  0  0  0  0  0  0  0  0  0  0  0
    8.6494  -15.2745   22.0670 C   0  0  0  0  0  0  0  0  0  0  0  0
    7.9767  -14.8374   23.0650 O   0  0  0  0  0  0  0  0  0  0  0  0
    9.3236  -16.4898   22.3216 N   0  0  0  0  0  0  0  0  0  0  0  0
    9.2294  -17.1808   23.6107 C   0  0  1  0  0  0  0  0  0  0  0  0
    9.7910  -18.5767   23.2836 C   0  0  0  0  0  0  0  0  0  0  0  0
    9.0559  -19.2918   22.2146 C   0  0  0  0  0  0  0  0  0  0  0  0
    9.6485  -20.6013   21.9437 C   0  0  0  0  0  0  0  0  0  0  0  0
   10.5277  -21.0829   22.6714 O   0  0  0  0  0  0  0  0  0  0  0  0
   10.0340  -16.5302   24.6583 C   0  0  0  0  0  0  0  0  0  0  0  0
   11.1835  -16.0434   24.3611 O   0  0  0  0  0  0  0  0  0  0  0  0
    9.2034  -21.3274   20.8257 O   0  0  0  0  0  0  0  0  0  0  0  0
    9.5549  -16.4375   25.9754 N   0  0  0  0  0  0  0  0  0  0  0  0
   10.2873  -15.6410   26.9800 C   0  0  1  0  0  0  0  0  0  0  0  0
    9.3183  -14.6053   27.4266 C   0  0  0  0  0  0  0  0  0  0  0  0
    8.7623  -13.6741   26.4243 C   0  0  0  0  0  0  0  0  0  0  0  0
    7.7893  -12.7491   27.0289 C   0  0  0  0  0  0  0  0  0  0  0  0
    7.5600  -12.8683   28.2842 O   0  0  0  0  0  0  0  0  0  0  0  0
   10.8618  -16.5414   27.9633 C   0  0  0  0  0  0  0  0  0  0  0  0
   10.5235  -17.7758   27.9463 O   0  0  0  0  0  0  0  0  0  0  0  0
    7.1337  -11.7823   26.3026 O   0  0  0  0  0  0  0  0  0  0  0  0
   11.7680  -16.1709   28.9439 O   0  0  0  0  0  0  0  0  0  0  0  0
  2  1  1  0
  2  3  2  0
  4  5  1  0
  4  2  1  0
  5  6  1  0
  6  7  1  6
  8  6  1  0
  8 10  1  0
  9  8  2  0
 11 10  1  0
 12 13  1  0
 11 12  1  6
 14 13  1  0
 15 14  2  0
 16 11  1  0
 17 16  2  0
 18 14  1  0
 19 16  1  0
 20 19  1  0
 20 25  1  0
 20 21  1  1
 22 21  1  0
 22 23  1  0
 23 27  1  0
 24 23  2  0
 25 28  1  0
 26 25  2  0
M  END
$$$$
