QEE.pdb
     RDKit          3D

 28 27  0  0  1  0  0  0  0  0999 V2000
    7.5036  -11.3980   20.4607 N   0  0  0  0  0  0  0  0  0  0  0  0
    7.4806  -12.7943   20.8082 C   0  0  0  0  0  0  0  0  0  0  0  0
    6.9309  -13.1076   21.8816 O   0  0  0  0  0  0  0  0  0  0  0  0
    8.0740  -13.8252   19.9518 C   0  0  0  0  0  0  0  0  0  0  0  0
    8.6466  -13.2828   18.7055 C   0  0  0  0  0  0  0  0  0  0  0  0
    9.3018  -14.2197   17.7607 C   0  0  2  0  0  0  0  0  0  0  0  0
    8.3127  -15.2809   17.4155 N   0  0  0  0  0  0  0  0  0  0  0  0
   10.5006  -14.9075   18.2255 C   0  0  0  0  0  0  0  0  0  0  0  0
   10.3852  -16.1109   18.6473 O   0  0  0  0  0  0  0  0  0  0  0  0
   11.8225  -14.4109   18.2717 N   0  0  0  0  0  0  0  0  0  0  0  0
   12.9346  -15.1975   18.8127 C   0  0  1  0  0  0  0  0  0  0  0  0
   14.1622  -14.5294   18.1667 C   0  0  0  0  0  0  0  0  0  0  0  0
   15.4568  -15.1409   18.5470 C   0  0  0  0  0  0  0  0  0  0  0  0
   16.5759  -14.4847   17.8713 C   0  0  0  0  0  0  0  0  0  0  0  0
   17.2243  -13.5786   18.4125 O   0  0  0  0  0  0  0  0  0  0  0  0
   13.0155  -15.1221   20.2811 C   0  0  0  0  0  0  0  0  0  0  0  0
   12.8231  -13.9970   20.8674 O   0  0  0  0  0  0  0  0  0  0  0  0
   16.9193  -14.8987   16.5729 O   0  0  0  0  0  0  0  0  0  0  0  0
   13.2994  -16.2677   21.0425 N   0  0  0  0  0  0  0  0  0  0  0  0
   13.4093  -16.1769   22.5120 C   0  0  1  0  0  0  0  0  0  0  0  0
   12.6417  -17.3425   23.0251 C   0  0  0  0  0  0  0  0  0  0  0  0
   12.5820  -17.5668   24.4835 C   0  0  0  0  0  0  0  0  0  0  0  0
   11.8434  -18.7980   24.8100 C   0  0  0  0  0  0  0  0  0  0  0  0
   11.2711  -19.4185   23.8457 O   0  0  0  0  0  0  0  0  0  0  0  0
   14.8098  -16.0410   22.8695 C   0  0  0  0  0  0  0  0  0  0  0  0
   15.7031  -16.3749   22.0157 O   0  0  0  0  0  0  0  0  0  0  0  0
   11.7515  -19.2911   26.0909 O   0  0  0  0  0  0  0  0  0  0  0  0
   15.2754  -15.5688   24.0862 O   0  0  0  0  0  0  0  0  0  0  0  0
  2  1  1  0
  2  3  2  0
  4  5  1  0
  4  2  1  0
  5  6  1  0
  6  7  1  1
  8  6  1  0
  8 10  1  0
  9  8  2  0
 11 10  1  0
 12 13  1  0
 11 12  1  6
 14 13  1  0
 15 14  2  0
 16 11  1  0
 17 16  2  0
 18 14  1  0
 19 16  1  0
 20 19  1  0
 20 25  1  0
 20 21  1  1
 22 21  1  0
 22 23  1  0
 23 27  1  0
 24 23  2  0
 25 28  1  0
 26 25  2  0
M  END
$$$$
