QEE.pdb
     RDKit          3D

 28 27  0  0  1  0  0  0  0  0999 V2000
    6.6440  -12.3775   20.0754 N   0  0  0  0  0  0  0  0  0  0  0  0
    6.7644  -13.6969   19.5135 C   0  0  0  0  0  0  0  0  0  0  0  0
    6.2901  -14.6437   20.1701 O   0  0  0  0  0  0  0  0  0  0  0  0
    7.4153  -13.9431   18.2236 C   0  0  0  0  0  0  0  0  0  0  0  0
    8.7174  -14.6237   18.3531 C   0  0  0  0  0  0  0  0  0  0  0  0
    9.8429  -13.8862   18.9766 C   0  0  2  0  0  0  0  0  0  0  0  0
   10.1860  -12.7425   18.0833 N   0  0  0  0  0  0  0  0  0  0  0  0
   11.0817  -14.6223   19.1998 C   0  0  0  0  0  0  0  0  0  0  0  0
   11.0245  -15.7247   19.8487 O   0  0  0  0  0  0  0  0  0  0  0  0
   12.3849  -14.2751   18.7787 N   0  0  0  0  0  0  0  0  0  0  0  0
   13.5554  -15.0964   19.1006 C   0  0  1  0  0  0  0  0  0  0  0  0
   14.5933  -14.6184   18.0687 C   0  0  0  0  0  0  0  0  0  0  0  0
   15.9031  -15.3042   18.1624 C   0  0  0  0  0  0  0  0  0  0  0  0
   16.8338  -14.8186   17.1439 C   0  0  0  0  0  0  0  0  0  0  0  0
   16.8817  -15.3193   16.0119 O   0  0  0  0  0  0  0  0  0  0  0  0
   14.0432  -14.8683   20.4712 C   0  0  0  0  0  0  0  0  0  0  0  0
   14.4647  -13.7035   20.8061 O   0  0  0  0  0  0  0  0  0  0  0  0
   17.6940  -13.7546   17.4652 O   0  0  0  0  0  0  0  0  0  0  0  0
   14.0499  -15.9114   21.4118 N   0  0  0  0  0  0  0  0  0  0  0  0
   14.5170  -15.6675   22.7910 C   0  0  1  0  0  0  0  0  0  0  0  0
   13.3876  -16.0961   23.6581 C   0  0  0  0  0  0  0  0  0  0  0  0
   12.9373  -17.5010   23.5944 C   0  0  0  0  0  0  0  0  0  0  0  0
   11.8760  -17.7724   24.5783 C   0  0  0  0  0  0  0  0  0  0  0  0
   11.6116  -16.8540   25.4323 O   0  0  0  0  0  0  0  0  0  0  0  0
   15.8160  -16.2926   22.9629 C   0  0  0  0  0  0  0  0  0  0  0  0
   16.4546  -16.1053   24.0563 O   0  0  0  0  0  0  0  0  0  0  0  0
   11.1755  -18.9558   24.6075 O   0  0  0  0  0  0  0  0  0  0  0  0
   16.4407  -17.0950   22.0216 O   0  0  0  0  0  0  0  0  0  0  0  0
  2  1  1  0
  2  3  2  0
  4  5  1  0
  4  2  1  0
  5  6  1  0
  6  7  1  6
  8  6  1  0
  8 10  1  0
  9  8  2  0
 11 10  1  0
 12 13  1  0
 11 12  1  6
 14 13  1  0
 15 14  2  0
 16 11  1  0
 17 16  2  0
 18 14  1  0
 19 16  1  0
 20 19  1  0
 20 25  1  0
 20 21  1  1
 22 21  1  0
 22 23  1  0
 23 27  1  0
 24 23  2  0
 25 28  1  0
 26 25  2  0
M  END
$$$$
