QEE.pdb
     RDKit          3D

 28 27  0  0  1  0  0  0  0  0999 V2000
    8.6489  -16.3950   15.1200 N   0  0  0  0  0  0  0  0  0  0  0  0
    8.3449  -15.0759   14.6316 C   0  0  0  0  0  0  0  0  0  0  0  0
    7.5546  -14.9892   13.6721 O   0  0  0  0  0  0  0  0  0  0  0  0
    8.9292  -13.8678   15.2210 C   0  0  0  0  0  0  0  0  0  0  0  0
    9.1722  -13.9907   16.6706 C   0  0  0  0  0  0  0  0  0  0  0  0
    8.0046  -14.1175   17.5761 C   0  0  2  0  0  0  0  0  0  0  0  0
    7.5551  -12.7410   17.9320 N   0  0  0  0  0  0  0  0  0  0  0  0
    8.2094  -14.8239   18.8353 C   0  0  0  0  0  0  0  0  0  0  0  0
    8.6427  -14.1596   19.8406 O   0  0  0  0  0  0  0  0  0  0  0  0
    7.9825  -16.1912   19.1096 N   0  0  0  0  0  0  0  0  0  0  0  0
    8.2421  -16.7776   20.4276 C   0  0  1  0  0  0  0  0  0  0  0  0
    7.4010  -18.0667   20.3915 C   0  0  0  0  0  0  0  0  0  0  0  0
    7.5960  -18.9520   21.5632 C   0  0  0  0  0  0  0  0  0  0  0  0
    6.7691  -20.1546   21.4668 C   0  0  0  0  0  0  0  0  0  0  0  0
    5.5394  -20.0919   21.3312 O   0  0  0  0  0  0  0  0  0  0  0  0
    9.6658  -17.0925   20.6330 C   0  0  0  0  0  0  0  0  0  0  0  0
   10.2798  -17.8277   19.7791 O   0  0  0  0  0  0  0  0  0  0  0  0
    7.3934  -21.4122   21.5304 O   0  0  0  0  0  0  0  0  0  0  0  0
   10.3551  -16.5956   21.7514 N   0  0  0  0  0  0  0  0  0  0  0  0
   11.8144  -16.7849   21.8714 C   0  0  1  0  0  0  0  0  0  0  0  0
   12.4032  -15.8619   20.8651 C   0  0  0  0  0  0  0  0  0  0  0  0
   13.8649  -15.6518   20.8642 C   0  0  0  0  0  0  0  0  0  0  0  0
   14.2974  -14.8754   19.6903 C   0  0  0  0  0  0  0  0  0  0  0  0
   14.5608  -15.5232   18.6162 O   0  0  0  0  0  0  0  0  0  0  0  0
   12.1920  -16.6429   23.2660 C   0  0  0  0  0  0  0  0  0  0  0  0
   13.3984  -16.8957   23.6108 O   0  0  0  0  0  0  0  0  0  0  0  0
   14.4242  -13.5059   19.7114 O   0  0  0  0  0  0  0  0  0  0  0  0
   11.3374  -16.2471   24.2826 O   0  0  0  0  0  0  0  0  0  0  0  0
  2  1  1  0
  2  3  2  0
  4  5  1  0
  4  2  1  0
  5  6  1  0
  6  7  1  1
  8  6  1  0
  8 10  1  0
  9  8  2  0
 11 10  1  0
 12 13  1  0
 11 12  1  6
 14 13  1  0
 15 14  2  0
 16 11  1  0
 17 16  2  0
 18 14  1  0
 19 16  1  0
 20 19  1  0
 20 25  1  0
 20 21  1  6
 22 21  1  0
 22 23  1  0
 23 27  1  0
 24 23  2  0
 25 28  1  0
 26 25  2  0
M  END
$$$$
