QEE.pdb
     RDKit          3D

 28 27  0  0  1  0  0  0  0  0999 V2000
    9.8708  -18.0821   16.8294 N   0  0  0  0  0  0  0  0  0  0  0  0
    9.0071  -17.8512   17.9571 C   0  0  0  0  0  0  0  0  0  0  0  0
    7.8078  -17.6108   17.7194 O   0  0  0  0  0  0  0  0  0  0  0  0
    9.4946  -17.8905   19.3388 C   0  0  0  0  0  0  0  0  0  0  0  0
   10.9190  -18.2597   19.4395 C   0  0  0  0  0  0  0  0  0  0  0  0
   11.5386  -18.3315   20.7851 C   0  0  2  0  0  0  0  0  0  0  0  0
   11.1121  -19.6152   21.4127 N   0  0  0  0  0  0  0  0  0  0  0  0
   11.2013  -17.2759   21.7329 C   0  0  0  0  0  0  0  0  0  0  0  0
   12.1498  -16.5538   22.2004 O   0  0  0  0  0  0  0  0  0  0  0  0
    9.9229  -16.9246   22.2211 N   0  0  0  0  0  0  0  0  0  0  0  0
    9.7213  -15.8145   23.1566 C   0  0  1  0  0  0  0  0  0  0  0  0
    8.4598  -15.1310   22.5976 C   0  0  0  0  0  0  0  0  0  0  0  0
    8.6588  -14.4662   21.2887 C   0  0  0  0  0  0  0  0  0  0  0  0
    7.4567  -13.7476   20.8671 C   0  0  0  0  0  0  0  0  0  0  0  0
    6.5450  -13.4784   21.6613 O   0  0  0  0  0  0  0  0  0  0  0  0
    9.4933  -16.2755   24.5364 C   0  0  0  0  0  0  0  0  0  0  0  0
    8.7317  -17.2865   24.7470 O   0  0  0  0  0  0  0  0  0  0  0  0
    7.3397  -13.3546   19.5227 O   0  0  0  0  0  0  0  0  0  0  0  0
   10.1015  -15.6206   25.6199 N   0  0  0  0  0  0  0  0  0  0  0  0
   10.1655  -16.2722   26.9433 C   0  0  1  0  0  0  0  0  0  0  0  0
   10.8392  -17.5745   26.6955 C   0  0  0  0  0  0  0  0  0  0  0  0
   11.1662  -18.4354   27.8499 C   0  0  0  0  0  0  0  0  0  0  0  0
   11.8269  -19.6805   27.4240 C   0  0  0  0  0  0  0  0  0  0  0  0
   12.9954  -19.9209   27.8926 O   0  0  0  0  0  0  0  0  0  0  0  0
   10.7503  -15.3443   27.8944 C   0  0  0  0  0  0  0  0  0  0  0  0
   11.4226  -14.3475   27.4553 O   0  0  0  0  0  0  0  0  0  0  0  0
   11.2405  -20.5734   26.5575 O   0  0  0  0  0  0  0  0  0  0  0  0
   10.6410  -15.4468   29.2720 O   0  0  0  0  0  0  0  0  0  0  0  0
  2  1  1  0
  2  3  2  0
  4  5  1  0
  4  2  1  0
  5  6  1  0
  6  7  1  1
  8  6  1  0
  8 10  1  0
  9  8  2  0
 11 10  1  0
 12 13  1  0
 11 12  1  6
 14 13  1  0
 15 14  2  0
 16 11  1  0
 17 16  2  0
 18 14  1  0
 19 16  1  0
 20 19  1  0
 20 25  1  0
 20 21  1  6
 22 21  1  0
 22 23  1  0
 23 27  1  0
 24 23  2  0
 25 28  1  0
 26 25  2  0
M  END
$$$$
