QEE.pdb
     RDKit          3D

 28 27  0  0  1  0  0  0  0  0999 V2000
    8.7205  -14.9896   14.8099 N   0  0  0  0  0  0  0  0  0  0  0  0
    7.8064  -13.9365   15.1650 C   0  0  0  0  0  0  0  0  0  0  0  0
    7.3421  -13.2452   14.2381 O   0  0  0  0  0  0  0  0  0  0  0  0
    7.4222  -13.6671   16.5536 C   0  0  0  0  0  0  0  0  0  0  0  0
    7.9869  -14.6385   17.5090 C   0  0  0  0  0  0  0  0  0  0  0  0
    8.7180  -14.1246   18.6926 C   0  0  2  0  0  0  0  0  0  0  0  0
    9.0300  -12.6877   18.4441 N   0  0  0  0  0  0  0  0  0  0  0  0
    9.9817  -14.7696   19.0292 C   0  0  0  0  0  0  0  0  0  0  0  0
    9.9697  -16.0186   19.3111 O   0  0  0  0  0  0  0  0  0  0  0  0
   11.2665  -14.1844   19.0848 N   0  0  0  0  0  0  0  0  0  0  0  0
   12.4762  -14.9758   19.3266 C   0  0  1  0  0  0  0  0  0  0  0  0
   13.4932  -14.3343   18.3649 C   0  0  0  0  0  0  0  0  0  0  0  0
   14.8703  -14.8646   18.4952 C   0  0  0  0  0  0  0  0  0  0  0  0
   15.7786  -14.2316   17.5393 C   0  0  0  0  0  0  0  0  0  0  0  0
   16.3570  -13.1666   17.7956 O   0  0  0  0  0  0  0  0  0  0  0  0
   12.9447  -14.8766   20.7190 C   0  0  0  0  0  0  0  0  0  0  0  0
   13.0356  -13.7234   21.2743 O   0  0  0  0  0  0  0  0  0  0  0  0
   15.9964  -14.8542   16.2983 O   0  0  0  0  0  0  0  0  0  0  0  0
   13.2908  -16.0299   21.4420 N   0  0  0  0  0  0  0  0  0  0  0  0
   13.7759  -15.9199   22.8322 C   0  0  1  0  0  0  0  0  0  0  0  0
   13.0260  -16.9623   23.5820 C   0  0  0  0  0  0  0  0  0  0  0  0
   13.3623  -17.1962   25.0008 C   0  0  0  0  0  0  0  0  0  0  0  0
   12.5468  -18.2784   25.5769 C   0  0  0  0  0  0  0  0  0  0  0  0
   13.1587  -19.3286   25.9836 O   0  0  0  0  0  0  0  0  0  0  0  0
   15.2271  -15.9606   22.8265 C   0  0  0  0  0  0  0  0  0  0  0  0
   15.8696  -15.2992   23.7142 O   0  0  0  0  0  0  0  0  0  0  0  0
   11.1783  -18.1975   25.6893 O   0  0  0  0  0  0  0  0  0  0  0  0
   15.9969  -16.6717   21.9198 O   0  0  0  0  0  0  0  0  0  0  0  0
  2  1  1  0
  2  3  2  0
  4  5  1  0
  4  2  1  0
  5  6  1  0
  6  7  1  6
  8  6  1  0
  8 10  1  0
  9  8  2  0
 11 10  1  0
 12 13  1  0
 11 12  1  6
 14 13  1  0
 15 14  2  0
 16 11  1  0
 17 16  2  0
 18 14  1  0
 19 16  1  0
 20 19  1  0
 20 25  1  0
 20 21  1  1
 22 21  1  0
 22 23  1  0
 23 27  1  0
 24 23  2  0
 25 28  1  0
 26 25  2  0
M  END
$$$$
