QEE.pdb
     RDKit          3D

 28 27  0  0  1  0  0  0  0  0999 V2000
    6.5412  -14.6365   17.7990 N   0  0  0  0  0  0  0  0  0  0  0  0
    6.8023  -13.8015   18.9417 C   0  0  0  0  0  0  0  0  0  0  0  0
    5.9534  -13.7984   19.8538 O   0  0  0  0  0  0  0  0  0  0  0  0
    8.0099  -12.9781   19.0513 C   0  0  0  0  0  0  0  0  0  0  0  0
    8.9138  -13.1198   17.8944 C   0  0  0  0  0  0  0  0  0  0  0  0
   10.0066  -14.1198   17.9680 C   0  0  2  0  0  0  0  0  0  0  0  0
    9.3879  -15.4743   17.8873 N   0  0  0  0  0  0  0  0  0  0  0  0
   10.8365  -14.1153   19.1669 C   0  0  0  0  0  0  0  0  0  0  0  0
   11.5670  -13.0889   19.3959 O   0  0  0  0  0  0  0  0  0  0  0  0
   10.9459  -15.1244   20.1499 N   0  0  0  0  0  0  0  0  0  0  0  0
   11.8801  -15.0221   21.2746 C   0  0  1  0  0  0  0  0  0  0  0  0
   11.1586  -15.8126   22.3815 C   0  0  0  0  0  0  0  0  0  0  0  0
   11.9119  -15.9010   23.6541 C   0  0  0  0  0  0  0  0  0  0  0  0
   11.2618  -16.8108   24.5969 C   0  0  0  0  0  0  0  0  0  0  0  0
   11.3471  -16.6511   25.8224 O   0  0  0  0  0  0  0  0  0  0  0  0
   13.1895  -15.6255   20.9754 C   0  0  0  0  0  0  0  0  0  0  0  0
   13.2415  -16.8044   20.4715 O   0  0  0  0  0  0  0  0  0  0  0  0
   10.5217  -17.8936   24.0917 O   0  0  0  0  0  0  0  0  0  0  0  0
   14.3778  -14.9232   21.2351 N   0  0  0  0  0  0  0  0  0  0  0  0
   15.6875  -15.5573   20.9852 C   0  0  1  0  0  0  0  0  0  0  0  0
   16.3520  -14.6800   19.9852 C   0  0  0  0  0  0  0  0  0  0  0  0
   15.7929  -14.6094   18.6202 C   0  0  0  0  0  0  0  0  0  0  0  0
   16.6751  -13.8548   17.7145 C   0  0  0  0  0  0  0  0  0  0  0  0
   16.9213  -12.6323   18.0102 O   0  0  0  0  0  0  0  0  0  0  0  0
   16.3418  -15.7983   22.2586 C   0  0  0  0  0  0  0  0  0  0  0  0
   15.8620  -15.2572   23.3147 O   0  0  0  0  0  0  0  0  0  0  0  0
   17.2307  -14.4106   16.5855 O   0  0  0  0  0  0  0  0  0  0  0  0
   17.4699  -16.5836   22.4344 O   0  0  0  0  0  0  0  0  0  0  0  0
  2  1  1  0
  2  3  2  0
  4  5  1  0
  4  2  1  0
  5  6  1  0
  6  7  1  1
  8  6  1  0
  8 10  1  0
  9  8  2  0
 11 10  1  0
 12 13  1  0
 11 12  1  1
 14 13  1  0
 15 14  2  0
 16 11  1  0
 17 16  2  0
 18 14  1  0
 19 16  1  0
 20 19  1  0
 20 25  1  0
 20 21  1  6
 22 21  1  0
 22 23  1  0
 23 27  1  0
 24 23  2  0
 25 28  1  0
 26 25  2  0
M  END
$$$$
