QEE.pdb
     RDKit          3D

 28 27  0  0  1  0  0  0  0  0999 V2000
    7.2159  -15.2244   17.5201 N   0  0  0  0  0  0  0  0  0  0  0  0
    7.7511  -13.9188   17.2380 C   0  0  0  0  0  0  0  0  0  0  0  0
    7.9153  -13.6141   16.0410 O   0  0  0  0  0  0  0  0  0  0  0  0
    8.0982  -12.9681   18.2983 C   0  0  0  0  0  0  0  0  0  0  0  0
    7.7188  -13.4382   19.6438 C   0  0  0  0  0  0  0  0  0  0  0  0
    8.7739  -14.0017   20.5206 C   0  0  2  0  0  0  0  0  0  0  0  0
    9.5817  -14.9529   19.7043 N   0  0  0  0  0  0  0  0  0  0  0  0
    8.3384  -14.7374   21.7018 C   0  0  0  0  0  0  0  0  0  0  0  0
    7.7572  -14.0892   22.6409 O   0  0  0  0  0  0  0  0  0  0  0  0
    8.4706  -16.1202   21.9601 N   0  0  0  0  0  0  0  0  0  0  0  0
    8.0508  -16.7221   23.2288 C   0  0  1  0  0  0  0  0  0  0  0  0
    7.5605  -18.1149   22.7920 C   0  0  0  0  0  0  0  0  0  0  0  0
    7.1961  -19.0100   23.9148 C   0  0  0  0  0  0  0  0  0  0  0  0
    6.6593  -20.2816   23.4308 C   0  0  0  0  0  0  0  0  0  0  0  0
    6.6682  -20.5782   22.2280 O   0  0  0  0  0  0  0  0  0  0  0  0
    9.1600  -16.8404   24.1900 C   0  0  0  0  0  0  0  0  0  0  0  0
   10.3568  -17.0030   23.7568 O   0  0  0  0  0  0  0  0  0  0  0  0
    6.1206  -21.1869   24.3611 O   0  0  0  0  0  0  0  0  0  0  0  0
    8.9196  -16.7759   25.5724 N   0  0  0  0  0  0  0  0  0  0  0  0
   10.0298  -16.9488   26.5302 C   0  0  1  0  0  0  0  0  0  0  0  0
   10.1852  -15.6197   27.1788 C   0  0  0  0  0  0  0  0  0  0  0  0
    8.9732  -14.8934   27.6081 C   0  0  0  0  0  0  0  0  0  0  0  0
    9.3124  -13.6966   28.3958 C   0  0  0  0  0  0  0  0  0  0  0  0
    8.3659  -12.8738   28.6601 O   0  0  0  0  0  0  0  0  0  0  0  0
    9.7582  -18.1107   27.3572 C   0  0  0  0  0  0  0  0  0  0  0  0
    8.6218  -18.6913   27.2571 O   0  0  0  0  0  0  0  0  0  0  0  0
   10.5866  -13.4409   28.8465 O   0  0  0  0  0  0  0  0  0  0  0  0
   10.6454  -18.6599   28.2691 O   0  0  0  0  0  0  0  0  0  0  0  0
  2  1  1  0
  2  3  2  0
  4  5  1  0
  4  2  1  0
  5  6  1  0
  6  7  1  6
  8  6  1  0
  8 10  1  0
  9  8  2  0
 11 10  1  0
 12 13  1  0
 11 12  1  6
 14 13  1  0
 15 14  2  0
 16 11  1  0
 17 16  2  0
 18 14  1  0
 19 16  1  0
 20 19  1  0
 20 25  1  0
 20 21  1  1
 22 21  1  0
 22 23  1  0
 23 27  1  0
 24 23  2  0
 25 28  1  0
 26 25  2  0
M  END
$$$$
