QFN.pdb
     RDKit          3D

 29 29  0  0  1  0  0  0  0  0999 V2000
   23.8534  -14.4332  -20.9508 N   0  0  0  0  0  0  0  0  0  0  0  0
   23.0059  -13.2850  -20.7892 C   0  0  0  0  0  0  0  0  0  0  0  0
   23.4597  -12.2341  -21.3428 O   0  0  0  0  0  0  0  0  0  0  0  0
   21.7529  -13.3499  -20.0527 C   0  0  0  0  0  0  0  0  0  0  0  0
   21.5907  -12.4957  -18.8547 C   0  0  0  0  0  0  0  0  0  0  0  0
   22.4364  -12.8128  -17.6757 C   0  0  2  0  0  0  0  0  0  0  0  0
   22.3399  -14.1227  -17.1237 N   0  0  0  0  0  0  0  0  0  0  0  0
   22.3164  -11.8497  -16.5525 C   0  0  0  0  0  0  0  0  0  0  0  0
   21.2658  -11.8635  -15.8660 O   0  0  0  0  0  0  0  0  0  0  0  0
   23.3557  -10.9412  -16.2681 N   0  0  0  0  0  0  0  0  0  0  0  0
   23.2776   -9.9681  -15.1875 C   0  0  1  0  0  0  0  0  0  0  0  0
   24.4950   -9.9532  -14.3334 C   0  0  0  0  0  0  0  0  0  0  0  0
   25.7346  -10.1169  -15.1789 C   0  0  0  0  0  0  0  0  0  0  0  0
   26.4178  -11.3018  -15.0855 C   0  0  0  0  0  0  0  0  0  0  0  0
   27.5796  -11.5333  -15.8253 C   0  0  0  0  0  0  0  0  0  0  0  0
   28.0659  -10.5676  -16.6685 C   0  0  0  0  0  0  0  0  0  0  0  0
   27.3545   -9.3658  -16.7497 C   0  0  0  0  0  0  0  0  0  0  0  0
   26.1968   -9.1384  -16.0121 C   0  0  0  0  0  0  0  0  0  0  0  0
   22.8429   -8.6675  -15.7050 C   0  0  0  0  0  0  0  0  0  0  0  0
   23.1873   -8.3497  -16.9056 O   0  0  0  0  0  0  0  0  0  0  0  0
   20.7399   -4.1124  -16.7641 N   0  0  0  0  0  0  0  0  0  0  0  0
   19.7857   -4.9958  -16.1350 C   0  0  0  0  0  0  0  0  0  0  0  0
   18.5994   -4.6013  -16.1413 O   0  0  0  0  0  0  0  0  0  0  0  0
   20.2117   -6.2635  -15.5358 C   0  0  0  0  0  0  0  0  0  0  0  0
   21.6977   -6.4693  -15.6651 C   0  0  2  0  0  0  0  0  0  0  0  0
   22.0788   -7.7289  -15.0068 N   0  0  0  0  0  0  0  0  0  0  0  0
   22.4627   -5.3601  -14.9985 C   0  0  0  0  0  0  0  0  0  0  0  0
   22.7778   -4.1904  -15.7151 O   0  0  0  0  0  0  0  0  0  0  0  0
   22.8596   -5.3797  -13.8234 O   0  0  0  0  0  0  0  0  0  0  0  0
  2  1  1  0
  2  3  2  0
  4  2  1  0
  5  6  1  0
  5  4  1  0
  6  7  1  1
  8  6  1  0
  8  9  2  0
 10  8  1  0
 11 10  1  0
 12 13  1  0
 11 12  1  6
 13 14  2  0
 13 18  1  0
 14 15  1  0
 15 16  2  0
 17 16  1  0
 18 17  2  0
 19 11  1  0
 20 19  2  0
 21 22  1  0
 22 23  2  0
 24 22  1  0
 25 24  1  1
 25 26  1  0
 26 19  1  0
 27 25  1  0
 28 27  1  0
 29 27  2  0
M  END
$$$$
