QFN.pdb
     RDKit          3D

 29 29  0  0  1  0  0  0  0  0999 V2000
   18.5623  -20.2699  -15.5527 N   0  0  0  0  0  0  0  0  0  0  0  0
   18.1848  -19.9004  -14.2173 C   0  0  0  0  0  0  0  0  0  0  0  0
   16.9469  -20.0604  -13.9744 O   0  0  0  0  0  0  0  0  0  0  0  0
   19.1512  -19.3908  -13.2566 C   0  0  0  0  0  0  0  0  0  0  0  0
   20.5620  -19.2456  -13.6806 C   0  0  0  0  0  0  0  0  0  0  0  0
   21.3044  -20.4904  -14.0054 C   0  0  2  0  0  0  0  0  0  0  0  0
   20.9401  -21.6798  -13.3109 N   0  0  0  0  0  0  0  0  0  0  0  0
   22.7816  -20.3669  -13.9264 C   0  0  0  0  0  0  0  0  0  0  0  0
   23.2945  -19.2343  -14.0980 O   0  0  0  0  0  0  0  0  0  0  0  0
   23.5862  -21.4949  -13.6683 N   0  0  0  0  0  0  0  0  0  0  0  0
   25.0399  -21.4295  -13.6124 C   0  0  1  0  0  0  0  0  0  0  0  0
   25.6116  -22.2169  -12.4878 C   0  0  0  0  0  0  0  0  0  0  0  0
   25.3873  -21.5033  -11.1767 C   0  0  0  0  0  0  0  0  0  0  0  0
   24.0965  -21.3761  -10.7331 C   0  0  0  0  0  0  0  0  0  0  0  0
   23.7986  -20.7220   -9.5355 C   0  0  0  0  0  0  0  0  0  0  0  0
   24.8038  -20.1868   -8.7718 C   0  0  0  0  0  0  0  0  0  0  0  0
   26.1140  -20.3271   -9.2417 C   0  0  0  0  0  0  0  0  0  0  0  0
   26.4077  -20.9801  -10.4348 C   0  0  0  0  0  0  0  0  0  0  0  0
   25.6120  -21.6951  -14.9356 C   0  0  0  0  0  0  0  0  0  0  0  0
   25.2393  -22.7645  -15.5508 O   0  0  0  0  0  0  0  0  0  0  0  0
   26.4465  -20.6623  -19.8300 N   0  0  0  0  0  0  0  0  0  0  0  0
   25.2361  -20.4251  -19.0780 C   0  0  0  0  0  0  0  0  0  0  0  0
   24.2202  -20.1651  -19.7586 O   0  0  0  0  0  0  0  0  0  0  0  0
   25.2321  -20.4902  -17.6140 C   0  0  0  0  0  0  0  0  0  0  0  0
   26.5789  -20.8872  -17.0703 C   0  0  2  0  0  0  0  0  0  0  0  0
   26.5359  -20.8840  -15.5995 N   0  0  0  0  0  0  0  0  0  0  0  0
   27.6465  -19.9174  -17.4945 C   0  0  0  0  0  0  0  0  0  0  0  0
   28.1144  -19.9191  -18.8218 O   0  0  0  0  0  0  0  0  0  0  0  0
   28.1772  -19.0780  -16.7511 O   0  0  0  0  0  0  0  0  0  0  0  0
  2  1  1  0
  2  3  2  0
  4  2  1  0
  5  6  1  0
  5  4  1  0
  6  7  1  1
  8  6  1  0
  8  9  2  0
 10  8  1  0
 11 10  1  0
 12 13  1  0
 11 12  1  1
 13 14  2  0
 13 18  1  0
 14 15  1  0
 15 16  2  0
 17 16  1  0
 18 17  2  0
 19 11  1  0
 20 19  2  0
 21 22  1  0
 22 23  2  0
 24 22  1  0
 25 24  1  6
 25 26  1  0
 26 19  1  0
 27 25  1  0
 28 27  1  0
 29 27  2  0
M  END
$$$$
