QFN.pdb
     RDKit          3D

 29 29  0  0  1  0  0  0  0  0999 V2000
   27.8901  -17.0023  -13.6724 N   0  0  0  0  0  0  0  0  0  0  0  0
   28.7389  -17.8790  -14.4297 C   0  0  0  0  0  0  0  0  0  0  0  0
   29.5022  -17.2712  -15.2450 O   0  0  0  0  0  0  0  0  0  0  0  0
   28.7027  -19.3234  -14.2589 C   0  0  0  0  0  0  0  0  0  0  0  0
   27.8894  -19.8860  -13.1576 C   0  0  0  0  0  0  0  0  0  0  0  0
   28.6203  -20.4609  -11.9995 C   0  0  2  0  0  0  0  0  0  0  0  0
   29.5326  -21.5253  -12.2536 N   0  0  0  0  0  0  0  0  0  0  0  0
   27.7544  -20.8810  -10.8693 C   0  0  0  0  0  0  0  0  0  0  0  0
   27.4607  -22.0967  -10.7641 O   0  0  0  0  0  0  0  0  0  0  0  0
   27.2725  -19.9364   -9.9410 N   0  0  0  0  0  0  0  0  0  0  0  0
   26.0231  -20.1129   -9.2140 C   0  0  1  0  0  0  0  0  0  0  0  0
   25.9073  -19.2131   -8.0356 C   0  0  0  0  0  0  0  0  0  0  0  0
   26.8477  -19.6546   -6.9405 C   0  0  0  0  0  0  0  0  0  0  0  0
   27.9547  -18.8822   -6.7013 C   0  0  0  0  0  0  0  0  0  0  0  0
   28.8813  -19.2228   -5.7133 C   0  0  0  0  0  0  0  0  0  0  0  0
   28.6999  -20.3509   -4.9552 C   0  0  0  0  0  0  0  0  0  0  0  0
   27.5644  -21.1256   -5.2147 C   0  0  0  0  0  0  0  0  0  0  0  0
   26.6425  -20.7832   -6.1991 C   0  0  0  0  0  0  0  0  0  0  0  0
   24.8888  -20.1011  -10.1422 C   0  0  0  0  0  0  0  0  0  0  0  0
   24.9335  -19.2863  -11.1399 O   0  0  0  0  0  0  0  0  0  0  0  0
   20.9110  -23.2765  -13.0802 N   0  0  0  0  0  0  0  0  0  0  0  0
   21.7176  -22.0851  -12.9503 C   0  0  0  0  0  0  0  0  0  0  0  0
   21.4034  -21.1363  -13.7012 O   0  0  0  0  0  0  0  0  0  0  0  0
   22.8259  -22.0246  -11.9935 C   0  0  0  0  0  0  0  0  0  0  0  0
   22.7153  -20.8270  -11.0877 C   0  0  2  0  0  0  0  0  0  0  0  0
   23.7489  -20.9032  -10.0433 N   0  0  0  0  0  0  0  0  0  0  0  0
   21.3789  -20.7837  -10.4004 C   0  0  0  0  0  0  0  0  0  0  0  0
   21.1745  -21.5045   -9.2089 O   0  0  0  0  0  0  0  0  0  0  0  0
   20.3957  -20.1432  -10.8026 O   0  0  0  0  0  0  0  0  0  0  0  0
  2  1  1  0
  2  3  2  0
  4  2  1  0
  5  6  1  0
  5  4  1  0
  6  7  1  6
  8  6  1  0
  8  9  2  0
 10  8  1  0
 11 10  1  0
 12 13  1  0
 11 12  1  1
 13 14  2  0
 13 18  1  0
 14 15  1  0
 15 16  2  0
 17 16  1  0
 18 17  2  0
 19 11  1  0
 20 19  2  0
 21 22  1  0
 22 23  2  0
 24 22  1  0
 25 24  1  6
 25 26  1  0
 26 19  1  0
 27 25  1  0
 28 27  1  0
 29 27  2  0
M  END
$$$$
