QFN.pdb
     RDKit          3D

 29 29  0  0  1  0  0  0  0  0999 V2000
   30.0834  -22.1457  -17.7936 N   0  0  0  0  0  0  0  0  0  0  0  0
   28.9703  -22.9520  -18.2101 C   0  0  0  0  0  0  0  0  0  0  0  0
   29.1873  -23.6091  -19.2769 O   0  0  0  0  0  0  0  0  0  0  0  0
   27.7234  -22.9895  -17.4615 C   0  0  0  0  0  0  0  0  0  0  0  0
   27.6090  -22.1688  -16.2349 C   0  0  0  0  0  0  0  0  0  0  0  0
   26.2806  -21.5749  -15.9373 C   0  0  2  0  0  0  0  0  0  0  0  0
   26.1060  -20.1831  -16.1862 N   0  0  0  0  0  0  0  0  0  0  0  0
   25.7756  -21.8461  -14.5680 C   0  0  0  0  0  0  0  0  0  0  0  0
   25.6496  -23.0412  -14.2057 O   0  0  0  0  0  0  0  0  0  0  0  0
   25.4433  -20.7870  -13.6996 N   0  0  0  0  0  0  0  0  0  0  0  0
   24.8934  -21.0027  -12.3686 C   0  0  1  0  0  0  0  0  0  0  0  0
   25.6396  -20.2731  -11.3090 C   0  0  0  0  0  0  0  0  0  0  0  0
   27.1272  -20.4482  -11.4959 C   0  0  0  0  0  0  0  0  0  0  0  0
   27.7829  -21.2898  -10.6350 C   0  0  0  0  0  0  0  0  0  0  0  0
   29.1601  -21.5020  -10.7309 C   0  0  0  0  0  0  0  0  0  0  0  0
   29.8918  -20.8637  -11.6990 C   0  0  0  0  0  0  0  0  0  0  0  0
   29.2044  -20.0093  -12.5675 C   0  0  0  0  0  0  0  0  0  0  0  0
   27.8321  -19.8006  -12.4701 C   0  0  0  0  0  0  0  0  0  0  0  0
   23.4411  -20.8047  -12.3804 C   0  0  0  0  0  0  0  0  0  0  0  0
   22.9615  -19.8131  -11.7112 O   0  0  0  0  0  0  0  0  0  0  0  0
   18.4967  -20.3470  -13.4928 N   0  0  0  0  0  0  0  0  0  0  0  0
   19.5650  -19.4774  -13.9281 C   0  0  0  0  0  0  0  0  0  0  0  0
   19.2050  -18.3996  -14.4492 O   0  0  0  0  0  0  0  0  0  0  0  0
   20.9685  -19.8627  -13.7577 C   0  0  0  0  0  0  0  0  0  0  0  0
   21.1006  -21.2065  -13.0914 C   0  0  2  0  0  0  0  0  0  0  0  0
   22.5173  -21.6028  -13.0601 N   0  0  0  0  0  0  0  0  0  0  0  0
   20.3500  -22.2671  -13.8476 C   0  0  0  0  0  0  0  0  0  0  0  0
   19.3537  -23.0228  -13.2016 O   0  0  0  0  0  0  0  0  0  0  0  0
   20.5343  -22.5511  -15.0410 O   0  0  0  0  0  0  0  0  0  0  0  0
  2  1  1  0
  2  3  2  0
  4  2  1  0
  5  6  1  0
  5  4  1  0
  6  7  1  1
  8  6  1  0
  8  9  2  0
 10  8  1  0
 11 10  1  0
 12 13  1  0
 11 12  1  1
 13 14  2  0
 13 18  1  0
 14 15  1  0
 15 16  2  0
 17 16  1  0
 18 17  2  0
 19 11  1  0
 20 19  2  0
 21 22  1  0
 22 23  2  0
 24 22  1  0
 25 24  1  6
 25 26  1  0
 26 19  1  0
 27 25  1  0
 28 27  1  0
 29 27  2  0
M  END
$$$$
