QFN.pdb
     RDKit          3D

 29 29  0  0  1  0  0  0  0  0999 V2000
   27.2181  -19.5117  -17.9377 N   0  0  0  0  0  0  0  0  0  0  0  0
   28.2941  -18.6847  -17.4676 C   0  0  0  0  0  0  0  0  0  0  0  0
   29.0181  -18.2114  -18.3996 O   0  0  0  0  0  0  0  0  0  0  0  0
   28.5108  -18.4339  -16.0510 C   0  0  0  0  0  0  0  0  0  0  0  0
   27.5426  -18.9876  -15.0777 C   0  0  0  0  0  0  0  0  0  0  0  0
   27.9567  -20.1972  -14.3219 C   0  0  2  0  0  0  0  0  0  0  0  0
   28.5457  -21.2674  -15.0550 N   0  0  0  0  0  0  0  0  0  0  0  0
   26.8970  -20.7808  -13.4617 C   0  0  0  0  0  0  0  0  0  0  0  0
   26.3438  -21.8432  -13.8366 O   0  0  0  0  0  0  0  0  0  0  0  0
   26.5208  -20.1544  -12.2566 N   0  0  0  0  0  0  0  0  0  0  0  0
   25.4348  -20.6448  -11.4195 C   0  0  1  0  0  0  0  0  0  0  0  0
   25.4558  -20.0689  -10.0485 C   0  0  0  0  0  0  0  0  0  0  0  0
   26.7527  -20.4072   -9.3541 C   0  0  0  0  0  0  0  0  0  0  0  0
   26.9479  -19.9105   -8.0914 C   0  0  0  0  0  0  0  0  0  0  0  0
   28.1228  -20.1670   -7.3810 C   0  0  0  0  0  0  0  0  0  0  0  0
   29.1162  -20.9287   -7.9405 C   0  0  0  0  0  0  0  0  0  0  0  0
   28.8979  -21.4262   -9.2296 C   0  0  0  0  0  0  0  0  0  0  0  0
   27.7259  -21.1697   -9.9345 C   0  0  0  0  0  0  0  0  0  0  0  0
   24.1588  -20.5490  -12.1344 C   0  0  0  0  0  0  0  0  0  0  0  0
   24.0716  -19.7038  -13.1035 O   0  0  0  0  0  0  0  0  0  0  0  0
   20.5861  -21.4031  -15.7123 N   0  0  0  0  0  0  0  0  0  0  0  0
   20.5740  -22.2405  -14.5352 C   0  0  0  0  0  0  0  0  0  0  0  0
   19.5109  -22.8648  -14.3281 O   0  0  0  0  0  0  0  0  0  0  0  0
   21.7461  -22.3294  -13.6602 C   0  0  0  0  0  0  0  0  0  0  0  0
   21.8277  -21.1583  -12.7173 C   0  0  2  0  0  0  0  0  0  0  0  0
   23.0137  -21.3005  -11.8580 N   0  0  0  0  0  0  0  0  0  0  0  0
   20.6231  -21.0946  -11.8201 C   0  0  0  0  0  0  0  0  0  0  0  0
   19.7997  -19.9532  -11.8243 O   0  0  0  0  0  0  0  0  0  0  0  0
   20.2708  -21.9942  -11.0420 O   0  0  0  0  0  0  0  0  0  0  0  0
  2  1  1  0
  2  3  2  0
  4  2  1  0
  5  6  1  0
  5  4  1  0
  6  7  1  6
  8  6  1  0
  8  9  2  0
 10  8  1  0
 11 10  1  0
 12 13  1  0
 11 12  1  1
 13 14  2  0
 13 18  1  0
 14 15  1  0
 15 16  2  0
 17 16  1  0
 18 17  2  0
 19 11  1  0
 20 19  2  0
 21 22  1  0
 22 23  2  0
 24 22  1  0
 25 24  1  6
 25 26  1  0
 26 19  1  0
 27 25  1  0
 28 27  1  0
 29 27  2  0
M  END
$$$$
