QFN.pdb
     RDKit          3D

 29 29  0  0  1  0  0  0  0  0999 V2000
   26.6007  -26.0831  -17.1187 N   0  0  0  0  0  0  0  0  0  0  0  0
   27.0992  -25.1634  -18.1027 C   0  0  0  0  0  0  0  0  0  0  0  0
   26.8865  -25.5333  -19.3006 O   0  0  0  0  0  0  0  0  0  0  0  0
   27.7819  -23.9334  -17.7317 C   0  0  0  0  0  0  0  0  0  0  0  0
   27.9452  -23.6202  -16.2942 C   0  0  0  0  0  0  0  0  0  0  0  0
   27.5162  -22.2727  -15.8403 C   0  0  2  0  0  0  0  0  0  0  0  0
   28.3398  -21.1631  -16.1871 N   0  0  0  0  0  0  0  0  0  0  0  0
   27.2284  -22.1729  -14.3875 C   0  0  0  0  0  0  0  0  0  0  0  0
   26.5548  -23.0853  -13.8499 O   0  0  0  0  0  0  0  0  0  0  0  0
   27.6978  -21.0787  -13.6334 N   0  0  0  0  0  0  0  0  0  0  0  0
   27.3684  -20.8918  -12.2273 C   0  0  1  0  0  0  0  0  0  0  0  0
   28.4279  -20.1670  -11.4762 C   0  0  0  0  0  0  0  0  0  0  0  0
   27.9977  -19.9361  -10.0479 C   0  0  0  0  0  0  0  0  0  0  0  0
   28.6054  -20.6816   -9.0710 C   0  0  0  0  0  0  0  0  0  0  0  0
   28.2609  -20.5386   -7.7249 C   0  0  0  0  0  0  0  0  0  0  0  0
   27.2955  -19.6397   -7.3505 C   0  0  0  0  0  0  0  0  0  0  0  0
   26.6874  -18.8888   -8.3621 C   0  0  0  0  0  0  0  0  0  0  0  0
   27.0334  -19.0329   -9.7021 C   0  0  0  0  0  0  0  0  0  0  0  0
   26.0092  -20.3606  -12.0898 C   0  0  0  0  0  0  0  0  0  0  0  0
   25.6490  -19.4110  -12.8832 O   0  0  0  0  0  0  0  0  0  0  0  0
   21.2344  -20.9048  -14.2901 N   0  0  0  0  0  0  0  0  0  0  0  0
   22.0286  -20.3437  -13.2218 C   0  0  0  0  0  0  0  0  0  0  0  0
   21.7013  -19.1953  -12.8519 O   0  0  0  0  0  0  0  0  0  0  0  0
   23.1398  -21.0957  -12.6324 C   0  0  0  0  0  0  0  0  0  0  0  0
   23.6398  -20.4509  -11.3669 C   0  0  2  0  0  0  0  0  0  0  0  0
   25.0559  -20.7959  -11.1655 N   0  0  0  0  0  0  0  0  0  0  0  0
   22.8788  -20.9413  -10.1667 C   0  0  0  0  0  0  0  0  0  0  0  0
   21.6545  -20.3429   -9.8146 O   0  0  0  0  0  0  0  0  0  0  0  0
   23.2449  -21.8655   -9.4247 O   0  0  0  0  0  0  0  0  0  0  0  0
  2  1  1  0
  2  3  2  0
  4  2  1  0
  5  6  1  0
  5  4  1  0
  6  7  1  1
  8  6  1  0
  8  9  2  0
 10  8  1  0
 11 10  1  0
 12 13  1  0
 11 12  1  6
 13 14  2  0
 13 18  1  0
 14 15  1  0
 15 16  2  0
 17 16  1  0
 18 17  2  0
 19 11  1  0
 20 19  2  0
 21 22  1  0
 22 23  2  0
 24 22  1  0
 25 24  1  6
 25 26  1  0
 26 19  1  0
 27 25  1  0
 28 27  1  0
 29 27  2  0
M  END
$$$$
