QFN.pdb
     RDKit          3D

 29 29  0  0  1  0  0  0  0  0999 V2000
   27.8266  -24.4247  -20.1957 N   0  0  0  0  0  0  0  0  0  0  0  0
   28.8872  -23.4563  -20.1912 C   0  0  0  0  0  0  0  0  0  0  0  0
   29.5047  -23.3711  -21.2995 O   0  0  0  0  0  0  0  0  0  0  0  0
   29.2027  -22.6648  -19.0120 C   0  0  0  0  0  0  0  0  0  0  0  0
   28.4060  -22.8774  -17.7826 C   0  0  0  0  0  0  0  0  0  0  0  0
   27.6198  -21.7239  -17.2756 C   0  0  2  0  0  0  0  0  0  0  0  0
   28.2726  -20.4600  -17.1969 N   0  0  0  0  0  0  0  0  0  0  0  0
   26.9506  -21.9580  -15.9714 C   0  0  0  0  0  0  0  0  0  0  0  0
   26.6473  -23.1356  -15.6607 O   0  0  0  0  0  0  0  0  0  0  0  0
   26.6609  -20.8832  -15.1069 N   0  0  0  0  0  0  0  0  0  0  0  0
   25.9411  -21.0532  -13.8525 C   0  0  1  0  0  0  0  0  0  0  0  0
   26.4933  -20.2203  -12.7511 C   0  0  0  0  0  0  0  0  0  0  0  0
   25.7060  -20.4357  -11.4814 C   0  0  0  0  0  0  0  0  0  0  0  0
   24.5355  -19.7380  -11.3312 C   0  0  0  0  0  0  0  0  0  0  0  0
   23.7503  -19.8705  -10.1837 C   0  0  0  0  0  0  0  0  0  0  0  0
   24.1407  -20.7102   -9.1725 C   0  0  0  0  0  0  0  0  0  0  0  0
   25.3378  -21.4131   -9.3448 C   0  0  0  0  0  0  0  0  0  0  0  0
   26.1175  -21.2797  -10.4896 C   0  0  0  0  0  0  0  0  0  0  0  0
   24.4967  -20.9425  -14.0763 C   0  0  0  0  0  0  0  0  0  0  0  0
   24.0570  -19.8872  -14.6713 O   0  0  0  0  0  0  0  0  0  0  0  0
   19.1843  -23.4282  -15.3436 N   0  0  0  0  0  0  0  0  0  0  0  0
   20.1531  -22.3647  -15.2122 C   0  0  0  0  0  0  0  0  0  0  0  0
   19.7183  -21.2105  -15.4163 O   0  0  0  0  0  0  0  0  0  0  0  0
   21.5470  -22.6524  -14.8633 C   0  0  0  0  0  0  0  0  0  0  0  0
   22.1145  -21.6132  -13.9332 C   0  0  2  0  0  0  0  0  0  0  0  0
   23.5407  -21.8892  -13.6989 N   0  0  0  0  0  0  0  0  0  0  0  0
   21.4229  -21.6387  -12.5986 C   0  0  0  0  0  0  0  0  0  0  0  0
   20.6225  -20.5527  -12.1978 O   0  0  0  0  0  0  0  0  0  0  0  0
   21.4943  -22.5690  -11.7812 O   0  0  0  0  0  0  0  0  0  0  0  0
  2  1  1  0
  2  3  2  0
  4  2  1  0
  5  6  1  0
  5  4  1  0
  6  7  1  1
  8  6  1  0
  8  9  2  0
 10  8  1  0
 11 10  1  0
 12 13  1  0
 11 12  1  1
 13 14  2  0
 13 18  1  0
 14 15  1  0
 15 16  2  0
 17 16  1  0
 18 17  2  0
 19 11  1  0
 20 19  2  0
 21 22  1  0
 22 23  2  0
 24 22  1  0
 25 24  1  6
 25 26  1  0
 26 19  1  0
 27 25  1  0
 28 27  1  0
 29 27  2  0
M  END
$$$$
