QFN.pdb
     RDKit          3D

 29 29  0  0  1  0  0  0  0  0999 V2000
   23.9166  -39.9729  -11.8329 N   0  0  0  0  0  0  0  0  0  0  0  0
   23.0418  -39.4444  -12.8418 C   0  0  0  0  0  0  0  0  0  0  0  0
   22.1827  -40.2825  -13.2620 O   0  0  0  0  0  0  0  0  0  0  0  0
   23.1554  -38.0749  -13.3195 C   0  0  0  0  0  0  0  0  0  0  0  0
   24.1444  -37.1805  -12.6767 C   0  0  0  0  0  0  0  0  0  0  0  0
   23.7849  -36.6115  -11.3528 C   0  0  2  0  0  0  0  0  0  0  0  0
   22.5989  -35.8266  -11.2686 N   0  0  0  0  0  0  0  0  0  0  0  0
   24.8714  -35.8430  -10.6952 C   0  0  0  0  0  0  0  0  0  0  0  0
   26.0507  -36.2545  -10.8188 O   0  0  0  0  0  0  0  0  0  0  0  0
   24.5835  -34.6828   -9.9486 N   0  0  0  0  0  0  0  0  0  0  0  0
   25.6214  -33.8312   -9.3847 C   0  0  1  0  0  0  0  0  0  0  0  0
   25.4359  -32.3941   -9.7194 C   0  0  0  0  0  0  0  0  0  0  0  0
   25.5181  -32.1854  -11.2121 C   0  0  0  0  0  0  0  0  0  0  0  0
   26.7629  -32.1737  -11.7863 C   0  0  0  0  0  0  0  0  0  0  0  0
   26.9304  -31.9774  -13.1590 C   0  0  0  0  0  0  0  0  0  0  0  0
   25.8397  -31.7889  -13.9682 C   0  0  0  0  0  0  0  0  0  0  0  0
   24.5784  -31.8042  -13.3633 C   0  0  0  0  0  0  0  0  0  0  0  0
   24.4147  -32.0010  -11.9956 C   0  0  0  0  0  0  0  0  0  0  0  0
   25.8144  -34.1377   -7.9644 C   0  0  0  0  0  0  0  0  0  0  0  0
   24.7674  -34.3660   -7.2483 O   0  0  0  0  0  0  0  0  0  0  0  0
   28.6304  -36.8515   -3.7984 N   0  0  0  0  0  0  0  0  0  0  0  0
   28.5898  -35.4467   -4.1327 C   0  0  0  0  0  0  0  0  0  0  0  0
   28.6376  -34.6596   -3.1626 O   0  0  0  0  0  0  0  0  0  0  0  0
   28.4965  -35.0051   -5.5269 C   0  0  0  0  0  0  0  0  0  0  0  0
   27.0917  -34.6047   -5.8918 C   0  0  2  0  0  0  0  0  0  0  0  0
   27.0458  -34.2065   -7.3076 N   0  0  0  0  0  0  0  0  0  0  0  0
   26.6291  -33.4300   -5.0755 C   0  0  0  0  0  0  0  0  0  0  0  0
   26.2427  -32.2362   -5.7128 O   0  0  0  0  0  0  0  0  0  0  0  0
   26.5521  -33.4138   -3.8375 O   0  0  0  0  0  0  0  0  0  0  0  0
  2  1  1  0
  2  3  2  0
  4  2  1  0
  5  6  1  0
  5  4  1  0
  6  7  1  6
  8  6  1  0
  8  9  2  0
 10  8  1  0
 11 10  1  0
 12 13  1  0
 11 12  1  1
 13 14  2  0
 13 18  1  0
 14 15  1  0
 15 16  2  0
 17 16  1  0
 18 17  2  0
 19 11  1  0
 20 19  2  0
 21 22  1  0
 22 23  2  0
 24 22  1  0
 25 24  1  1
 25 26  1  0
 26 19  1  0
 27 25  1  0
 28 27  1  0
 29 27  2  0
M  END
$$$$
