QFN.pdb
     RDKit          3D

 29 29  0  0  1  0  0  0  0  0999 V2000
   18.1900  -21.7851  -10.3790 N   0  0  0  0  0  0  0  0  0  0  0  0
   18.2727  -21.8893  -11.8090 C   0  0  0  0  0  0  0  0  0  0  0  0
   17.9742  -23.0422  -12.2545 O   0  0  0  0  0  0  0  0  0  0  0  0
   18.6673  -20.7636  -12.6419 C   0  0  0  0  0  0  0  0  0  0  0  0
   20.0134  -20.1784  -12.4502 C   0  0  0  0  0  0  0  0  0  0  0  0
   21.1550  -20.8777  -13.0934 C   0  0  2  0  0  0  0  0  0  0  0  0
   21.1495  -22.3023  -13.0850 N   0  0  0  0  0  0  0  0  0  0  0  0
   22.4927  -20.4378  -12.6236 C   0  0  0  0  0  0  0  0  0  0  0  0
   22.7136  -19.2063  -12.5242 O   0  0  0  0  0  0  0  0  0  0  0  0
   23.4892  -21.3808  -12.3011 N   0  0  0  0  0  0  0  0  0  0  0  0
   24.8220  -20.9977  -11.8566 C   0  0  1  0  0  0  0  0  0  0  0  0
   25.3244  -21.8419  -10.7401 C   0  0  0  0  0  0  0  0  0  0  0  0
   26.5895  -21.2547  -10.1629 C   0  0  0  0  0  0  0  0  0  0  0  0
   27.7804  -21.6196  -10.7354 C   0  0  0  0  0  0  0  0  0  0  0  0
   28.9986  -21.1308  -10.2579 C   0  0  0  0  0  0  0  0  0  0  0  0
   29.0270  -20.2671   -9.1933 C   0  0  0  0  0  0  0  0  0  0  0  0
   27.8014  -19.9070   -8.6231 C   0  0  0  0  0  0  0  0  0  0  0  0
   26.5893  -20.3949   -9.1016 C   0  0  0  0  0  0  0  0  0  0  0  0
   25.7202  -20.8562  -13.0063 C   0  0  0  0  0  0  0  0  0  0  0  0
   25.6980  -21.7778  -13.9069 O   0  0  0  0  0  0  0  0  0  0  0  0
   27.5566  -17.3524  -17.0095 N   0  0  0  0  0  0  0  0  0  0  0  0
   28.3457  -17.8890  -15.9250 C   0  0  0  0  0  0  0  0  0  0  0  0
   29.5513  -18.0938  -16.1848 O   0  0  0  0  0  0  0  0  0  0  0  0
   27.7430  -18.1662  -14.6183 C   0  0  0  0  0  0  0  0  0  0  0  0
   27.1056  -19.5297  -14.5766 C   0  0  2  0  0  0  0  0  0  0  0  0
   26.6094  -19.7993  -13.2179 N   0  0  0  0  0  0  0  0  0  0  0  0
   28.0970  -20.6067  -14.9190 C   0  0  0  0  0  0  0  0  0  0  0  0
   28.9470  -21.1254  -13.9244 O   0  0  0  0  0  0  0  0  0  0  0  0
   28.2424  -21.1037  -16.0463 O   0  0  0  0  0  0  0  0  0  0  0  0
  2  1  1  0
  2  3  2  0
  4  2  1  0
  5  6  1  0
  5  4  1  0
  6  7  1  1
  8  6  1  0
  8  9  2  0
 10  8  1  0
 11 10  1  0
 12 13  1  0
 11 12  1  1
 13 14  2  0
 13 18  1  0
 14 15  1  0
 15 16  2  0
 17 16  1  0
 18 17  2  0
 19 11  1  0
 20 19  2  0
 21 22  1  0
 22 23  2  0
 24 22  1  0
 25 24  1  1
 25 26  1  0
 26 19  1  0
 27 25  1  0
 28 27  1  0
 29 27  2  0
M  END
$$$$
