QFN.pdb
     RDKit          3D

 29 29  0  0  1  0  0  0  0  0999 V2000
   20.2015  -23.0690  -11.3245 N   0  0  0  0  0  0  0  0  0  0  0  0
   19.9391  -22.2105  -12.4455 C   0  0  0  0  0  0  0  0  0  0  0  0
   19.1676  -21.2372  -12.1729 O   0  0  0  0  0  0  0  0  0  0  0  0
   20.5147  -22.4599  -13.7581 C   0  0  0  0  0  0  0  0  0  0  0  0
   21.7060  -21.6828  -14.1681 C   0  0  0  0  0  0  0  0  0  0  0  0
   22.1468  -20.5894  -13.2648 C   0  0  2  0  0  0  0  0  0  0  0  0
   21.5185  -19.3186  -13.4065 N   0  0  0  0  0  0  0  0  0  0  0  0
   23.6129  -20.3581  -13.2447 C   0  0  0  0  0  0  0  0  0  0  0  0
   24.0592  -19.3182  -13.7877 O   0  0  0  0  0  0  0  0  0  0  0  0
   24.4805  -21.2857  -12.6338 N   0  0  0  0  0  0  0  0  0  0  0  0
   25.9299  -21.1494  -12.6678 C   0  0  1  0  0  0  0  0  0  0  0  0
   26.5936  -21.7257  -11.4681 C   0  0  0  0  0  0  0  0  0  0  0  0
   26.1128  -21.0335  -10.2159 C   0  0  0  0  0  0  0  0  0  0  0  0
   25.1431  -21.6579   -9.4749 C   0  0  0  0  0  0  0  0  0  0  0  0
   24.6348  -21.0833   -8.3076 C   0  0  0  0  0  0  0  0  0  0  0  0
   25.1008  -19.8681   -7.8761 C   0  0  0  0  0  0  0  0  0  0  0  0
   26.0901  -19.2472   -8.6460 C   0  0  0  0  0  0  0  0  0  0  0  0
   26.5952  -19.8225   -9.8079 C   0  0  0  0  0  0  0  0  0  0  0  0
   26.4520  -21.5936  -13.9634 C   0  0  0  0  0  0  0  0  0  0  0  0
   26.2479  -22.8183  -14.3088 O   0  0  0  0  0  0  0  0  0  0  0  0
   26.0759  -24.0663  -17.5740 N   0  0  0  0  0  0  0  0  0  0  0  0
   25.8970  -22.6496  -17.7925 C   0  0  0  0  0  0  0  0  0  0  0  0
   25.8349  -22.2917  -18.9887 O   0  0  0  0  0  0  0  0  0  0  0  0
   25.8002  -21.7184  -16.6652 C   0  0  0  0  0  0  0  0  0  0  0  0
   27.1431  -21.1428  -16.3010 C   0  0  2  0  0  0  0  0  0  0  0  0
   27.1595  -20.7999  -14.8701 N   0  0  0  0  0  0  0  0  0  0  0  0
   27.4246  -19.8832  -17.0720 C   0  0  0  0  0  0  0  0  0  0  0  0
   26.6041  -18.7527  -16.9006 O   0  0  0  0  0  0  0  0  0  0  0  0
   28.3542  -19.7404  -17.8808 O   0  0  0  0  0  0  0  0  0  0  0  0
  2  1  1  0
  2  3  2  0
  4  2  1  0
  5  6  1  0
  5  4  1  0
  6  7  1  6
  8  6  1  0
  8  9  2  0
 10  8  1  0
 11 10  1  0
 12 13  1  0
 11 12  1  1
 13 14  2  0
 13 18  1  0
 14 15  1  0
 15 16  2  0
 17 16  1  0
 18 17  2  0
 19 11  1  0
 20 19  2  0
 21 22  1  0
 22 23  2  0
 24 22  1  0
 25 24  1  6
 25 26  1  0
 26 19  1  0
 27 25  1  0
 28 27  1  0
 29 27  2  0
M  END
$$$$
