QFN.pdb
     RDKit          3D

 29 29  0  0  1  0  0  0  0  0999 V2000
   28.8326  -20.4717  -20.5783 N   0  0  0  0  0  0  0  0  0  0  0  0
   27.7745  -21.4427  -20.5812 C   0  0  0  0  0  0  0  0  0  0  0  0
   26.9682  -21.3156  -21.5562 O   0  0  0  0  0  0  0  0  0  0  0  0
   27.6613  -22.4619  -19.5491 C   0  0  0  0  0  0  0  0  0  0  0  0
   26.5939  -22.3249  -18.5328 C   0  0  0  0  0  0  0  0  0  0  0  0
   26.6994  -21.1843  -17.5874 C   0  0  2  0  0  0  0  0  0  0  0  0
   27.9738  -20.5663  -17.4340 N   0  0  0  0  0  0  0  0  0  0  0  0
   26.1746  -21.4596  -16.2264 C   0  0  0  0  0  0  0  0  0  0  0  0
   25.2402  -22.2887  -16.1049 O   0  0  0  0  0  0  0  0  0  0  0  0
   26.7112  -20.8029  -15.1007 N   0  0  0  0  0  0  0  0  0  0  0  0
   26.1354  -20.9250  -13.7687 C   0  0  1  0  0  0  0  0  0  0  0  0
   27.0722  -20.5049  -12.6928 C   0  0  0  0  0  0  0  0  0  0  0  0
   26.3948  -20.5773  -11.3458 C   0  0  0  0  0  0  0  0  0  0  0  0
   26.1685  -19.3993  -10.6822 C   0  0  0  0  0  0  0  0  0  0  0  0
   25.5560  -19.3760   -9.4271 C   0  0  0  0  0  0  0  0  0  0  0  0
   25.1658  -20.5453   -8.8268 C   0  0  0  0  0  0  0  0  0  0  0  0
   25.4056  -21.7365   -9.5200 C   0  0  0  0  0  0  0  0  0  0  0  0
   26.0151  -21.7565  -10.7707 C   0  0  0  0  0  0  0  0  0  0  0  0
   24.8037  -20.3137  -13.7325 C   0  0  0  0  0  0  0  0  0  0  0  0
   24.6608  -19.1461  -14.2591 O   0  0  0  0  0  0  0  0  0  0  0  0
   20.4072  -18.1573  -15.3969 N   0  0  0  0  0  0  0  0  0  0  0  0
   20.6280  -19.4697  -14.8349 C   0  0  0  0  0  0  0  0  0  0  0  0
   19.5991  -20.0854  -14.4814 O   0  0  0  0  0  0  0  0  0  0  0  0
   21.9816  -20.0147  -14.6995 C   0  0  0  0  0  0  0  0  0  0  0  0
   22.3750  -20.1770  -13.2552 C   0  0  2  0  0  0  0  0  0  0  0  0
   23.6601  -20.8891  -13.1726 N   0  0  0  0  0  0  0  0  0  0  0  0
   21.3586  -20.9874  -12.5001 C   0  0  0  0  0  0  0  0  0  0  0  0
   20.3412  -20.3424  -11.7724 O   0  0  0  0  0  0  0  0  0  0  0  0
   21.3310  -22.2269  -12.4567 O   0  0  0  0  0  0  0  0  0  0  0  0
  2  1  1  0
  2  3  2  0
  4  2  1  0
  5  6  1  0
  5  4  1  0
  6  7  1  1
  8  6  1  0
  8  9  2  0
 10  8  1  0
 11 10  1  0
 12 13  1  0
 11 12  1  1
 13 14  2  0
 13 18  1  0
 14 15  1  0
 15 16  2  0
 17 16  1  0
 18 17  2  0
 19 11  1  0
 20 19  2  0
 21 22  1  0
 22 23  2  0
 24 22  1  0
 25 24  1  6
 25 26  1  0
 26 19  1  0
 27 25  1  0
 28 27  1  0
 29 27  2  0
M  END
$$$$
