QFN.pdb
     RDKit          3D

 29 29  0  0  1  0  0  0  0  0999 V2000
   26.9202  -18.3743  -22.2066 N   0  0  0  0  0  0  0  0  0  0  0  0
   26.7728  -17.9850  -20.8321 C   0  0  0  0  0  0  0  0  0  0  0  0
   27.7685  -17.3395  -20.3753 O   0  0  0  0  0  0  0  0  0  0  0  0
   25.5846  -18.3163  -20.0608 C   0  0  0  0  0  0  0  0  0  0  0  0
   25.6251  -19.4981  -19.1704 C   0  0  0  0  0  0  0  0  0  0  0  0
   26.7956  -19.6259  -18.2652 C   0  0  2  0  0  0  0  0  0  0  0  0
   27.9697  -20.2447  -18.7833 N   0  0  0  0  0  0  0  0  0  0  0  0
   26.4990  -20.2646  -16.9584 C   0  0  0  0  0  0  0  0  0  0  0  0
   26.4864  -21.5181  -16.8976 O   0  0  0  0  0  0  0  0  0  0  0  0
   26.2352  -19.4812  -15.8169 N   0  0  0  0  0  0  0  0  0  0  0  0
   25.8766  -20.0603  -14.5298 C   0  0  1  0  0  0  0  0  0  0  0  0
   26.4447  -19.3090  -13.3789 C   0  0  0  0  0  0  0  0  0  0  0  0
   26.0355  -19.9517  -12.0759 C   0  0  0  0  0  0  0  0  0  0  0  0
   26.7796  -21.0120  -11.6270 C   0  0  0  0  0  0  0  0  0  0  0  0
   26.4651  -21.6708  -10.4362 C   0  0  0  0  0  0  0  0  0  0  0  0
   25.3921  -21.2655   -9.6849 C   0  0  0  0  0  0  0  0  0  0  0  0
   24.6456  -20.1821  -10.1600 C   0  0  0  0  0  0  0  0  0  0  0  0
   24.9619  -19.5272  -11.3462 C   0  0  0  0  0  0  0  0  0  0  0  0
   24.4355  -20.3226  -14.4742 C   0  0  0  0  0  0  0  0  0  0  0  0
   23.6341  -19.3535  -14.7561 O   0  0  0  0  0  0  0  0  0  0  0  0
   19.6468  -22.0805  -13.9371 N   0  0  0  0  0  0  0  0  0  0  0  0
   20.5194  -23.2233  -13.7980 C   0  0  0  0  0  0  0  0  0  0  0  0
   19.9467  -24.3263  -13.6634 O   0  0  0  0  0  0  0  0  0  0  0  0
   21.9764  -23.0669  -13.8154 C   0  0  0  0  0  0  0  0  0  0  0  0
   22.3803  -21.6301  -14.0143 C   0  0  2  0  0  0  0  0  0  0  0  0
   23.8438  -21.5435  -14.1397 N   0  0  0  0  0  0  0  0  0  0  0  0
   21.9750  -20.7815  -12.8414 C   0  0  0  0  0  0  0  0  0  0  0  0
   20.7409  -20.1049  -12.8529 O   0  0  0  0  0  0  0  0  0  0  0  0
   22.6565  -20.6146  -11.8184 O   0  0  0  0  0  0  0  0  0  0  0  0
  2  1  1  0
  2  3  2  0
  4  2  1  0
  5  6  1  0
  5  4  1  0
  6  7  1  6
  8  6  1  0
  8  9  2  0
 10  8  1  0
 11 10  1  0
 12 13  1  0
 11 12  1  1
 13 14  2  0
 13 18  1  0
 14 15  1  0
 15 16  2  0
 17 16  1  0
 18 17  2  0
 19 11  1  0
 20 19  2  0
 21 22  1  0
 22 23  2  0
 24 22  1  0
 25 24  1  1
 25 26  1  0
 26 19  1  0
 27 25  1  0
 28 27  1  0
 29 27  2  0
M  END
$$$$
