QFN.pdb
     RDKit          3D

 29 29  0  0  1  0  0  0  0  0999 V2000
   28.3544  -18.0791  -17.3209 N   0  0  0  0  0  0  0  0  0  0  0  0
   28.5121  -18.9163  -18.4771 C   0  0  0  0  0  0  0  0  0  0  0  0
   29.3713  -18.4822  -19.3079 O   0  0  0  0  0  0  0  0  0  0  0  0
   27.7435  -20.1389  -18.6535 C   0  0  0  0  0  0  0  0  0  0  0  0
   26.9593  -20.6537  -17.5084 C   0  0  0  0  0  0  0  0  0  0  0  0
   27.7090  -21.0024  -16.2746 C   0  0  2  0  0  0  0  0  0  0  0  0
   28.6754  -22.0458  -16.3588 N   0  0  0  0  0  0  0  0  0  0  0  0
   26.8563  -21.2838  -15.0925 C   0  0  0  0  0  0  0  0  0  0  0  0
   26.1477  -22.3197  -15.1025 O   0  0  0  0  0  0  0  0  0  0  0  0
   26.8417  -20.4068  -13.9894 N   0  0  0  0  0  0  0  0  0  0  0  0
   26.0031  -20.6265  -12.8193 C   0  0  1  0  0  0  0  0  0  0  0  0
   26.5675  -20.0252  -11.5817 C   0  0  0  0  0  0  0  0  0  0  0  0
   27.9055  -20.6441  -11.2574 C   0  0  0  0  0  0  0  0  0  0  0  0
   28.0260  -21.3143  -10.0676 C   0  0  0  0  0  0  0  0  0  0  0  0
   29.2306  -21.9085   -9.6847 C   0  0  0  0  0  0  0  0  0  0  0  0
   30.3296  -21.8308  -10.5009 C   0  0  0  0  0  0  0  0  0  0  0  0
   30.1862  -21.1427  -11.7104 C   0  0  0  0  0  0  0  0  0  0  0  0
   28.9846  -20.5525  -12.0896 C   0  0  0  0  0  0  0  0  0  0  0  0
   24.6104  -20.2826  -13.1203 C   0  0  0  0  0  0  0  0  0  0  0  0
   24.3862  -19.2082  -13.7960 O   0  0  0  0  0  0  0  0  0  0  0  0
   20.0958  -19.8977  -15.7193 N   0  0  0  0  0  0  0  0  0  0  0  0
   20.3441  -20.9505  -14.7618 C   0  0  0  0  0  0  0  0  0  0  0  0
   19.3267  -21.5156  -14.3052 O   0  0  0  0  0  0  0  0  0  0  0  0
   21.7103  -21.3080  -14.3705 C   0  0  0  0  0  0  0  0  0  0  0  0
   22.1479  -20.5671  -13.1349 C   0  0  2  0  0  0  0  0  0  0  0  0
   23.4891  -21.0232  -12.7372 N   0  0  0  0  0  0  0  0  0  0  0  0
   21.2193  -20.8309  -11.9824 C   0  0  0  0  0  0  0  0  0  0  0  0
   21.2314  -22.0824  -11.3386 O   0  0  0  0  0  0  0  0  0  0  0  0
   20.4075  -20.0121  -11.5248 O   0  0  0  0  0  0  0  0  0  0  0  0
  2  1  1  0
  2  3  2  0
  4  2  1  0
  5  6  1  0
  5  4  1  0
  6  7  1  6
  8  6  1  0
  8  9  2  0
 10  8  1  0
 11 10  1  0
 12 13  1  0
 11 12  1  1
 13 14  2  0
 13 18  1  0
 14 15  1  0
 15 16  2  0
 17 16  1  0
 18 17  2  0
 19 11  1  0
 20 19  2  0
 21 22  1  0
 22 23  2  0
 24 22  1  0
 25 24  1  6
 25 26  1  0
 26 19  1  0
 27 25  1  0
 28 27  1  0
 29 27  2  0
M  END
$$$$
