QFN.pdb
     RDKit          3D

 29 29  0  0  1  0  0  0  0  0999 V2000
   25.4413  -25.2539  -15.5476 N   0  0  0  0  0  0  0  0  0  0  0  0
   26.2106  -26.0114  -16.4946 C   0  0  0  0  0  0  0  0  0  0  0  0
   26.6206  -27.1269  -16.0426 O   0  0  0  0  0  0  0  0  0  0  0  0
   26.4809  -25.5194  -17.8368 C   0  0  0  0  0  0  0  0  0  0  0  0
   27.8553  -25.6424  -18.3727 C   0  0  0  0  0  0  0  0  0  0  0  0
   28.8899  -24.7442  -17.7994 C   0  0  2  0  0  0  0  0  0  0  0  0
   28.7527  -23.3446  -18.0274 N   0  0  0  0  0  0  0  0  0  0  0  0
   30.2864  -25.1133  -18.1416 C   0  0  0  0  0  0  0  0  0  0  0  0
   30.6985  -24.8726  -19.3024 O   0  0  0  0  0  0  0  0  0  0  0  0
   31.1257  -25.7216  -17.1866 N   0  0  0  0  0  0  0  0  0  0  0  0
   32.5171  -26.0540  -17.4585 C   0  0  1  0  0  0  0  0  0  0  0  0
   33.4740  -25.1582  -16.7558 C   0  0  0  0  0  0  0  0  0  0  0  0
   33.5712  -23.8297  -17.4657 C   0  0  0  0  0  0  0  0  0  0  0  0
   34.4992  -23.7089  -18.4675 C   0  0  0  0  0  0  0  0  0  0  0  0
   34.6622  -22.5124  -19.1695 C   0  0  0  0  0  0  0  0  0  0  0  0
   33.8886  -21.4219  -18.8653 C   0  0  0  0  0  0  0  0  0  0  0  0
   32.9477  -21.5654  -17.8401 C   0  0  0  0  0  0  0  0  0  0  0  0
   32.7870  -22.7590  -17.1431 C   0  0  0  0  0  0  0  0  0  0  0  0
   32.7398  -27.4921  -17.2831 C   0  0  0  0  0  0  0  0  0  0  0  0
   32.0945  -28.0927  -16.3430 O   0  0  0  0  0  0  0  0  0  0  0  0
   31.8654  -32.5295  -16.8997 N   0  0  0  0  0  0  0  0  0  0  0  0
   32.3259  -31.7952  -18.0554 C   0  0  0  0  0  0  0  0  0  0  0  0
   32.7482  -32.4913  -19.0040 O   0  0  0  0  0  0  0  0  0  0  0  0
   32.2894  -30.3305  -18.0825 C   0  0  0  0  0  0  0  0  0  0  0  0
   33.6478  -29.7343  -17.8244 C   0  0  2  0  0  0  0  0  0  0  0  0
   33.5986  -28.2815  -18.0524 N   0  0  0  0  0  0  0  0  0  0  0  0
   34.6805  -30.3046  -18.7563 C   0  0  0  0  0  0  0  0  0  0  0  0
   35.5418  -31.3263  -18.3149 O   0  0  0  0  0  0  0  0  0  0  0  0
   34.8519  -29.9431  -19.9305 O   0  0  0  0  0  0  0  0  0  0  0  0
  2  1  1  0
  2  3  2  0
  4  2  1  0
  5  6  1  0
  5  4  1  0
  6  7  1  6
  8  6  1  0
  8  9  2  0
 10  8  1  0
 11 10  1  0
 12 13  1  0
 11 12  1  1
 13 14  2  0
 13 18  1  0
 14 15  1  0
 15 16  2  0
 17 16  1  0
 18 17  2  0
 19 11  1  0
 20 19  2  0
 21 22  1  0
 22 23  2  0
 24 22  1  0
 25 24  1  6
 25 26  1  0
 26 19  1  0
 27 25  1  0
 28 27  1  0
 29 27  2  0
M  END
$$$$
