QFN.pdb
     RDKit          3D

 29 29  0  0  1  0  0  0  0  0999 V2000
   19.1661  -13.0768  -19.0091 N   0  0  0  0  0  0  0  0  0  0  0  0
   18.9952  -14.1278  -18.0454 C   0  0  0  0  0  0  0  0  0  0  0  0
   18.4145  -15.1582  -18.5122 O   0  0  0  0  0  0  0  0  0  0  0  0
   19.4520  -13.9942  -16.6706 C   0  0  0  0  0  0  0  0  0  0  0  0
   20.1221  -12.7379  -16.2661 C   0  0  0  0  0  0  0  0  0  0  0  0
   21.5547  -12.5862  -16.6274 C   0  0  2  0  0  0  0  0  0  0  0  0
   22.4645  -13.5786  -16.1614 N   0  0  0  0  0  0  0  0  0  0  0  0
   22.1380  -11.2616  -16.2975 C   0  0  0  0  0  0  0  0  0  0  0  0
   22.5718  -11.0750  -15.1347 O   0  0  0  0  0  0  0  0  0  0  0  0
   22.1991  -10.2397  -17.2662 N   0  0  0  0  0  0  0  0  0  0  0  0
   22.7338   -8.9155  -16.9816 C   0  0  1  0  0  0  0  0  0  0  0  0
   23.6208   -8.4054  -18.0609 C   0  0  0  0  0  0  0  0  0  0  0  0
   24.0273   -6.9792  -17.7796 C   0  0  0  0  0  0  0  0  0  0  0  0
   23.3906   -5.9857  -18.4773 C   0  0  0  0  0  0  0  0  0  0  0  0
   23.7118   -4.6399  -18.2857 C   0  0  0  0  0  0  0  0  0  0  0  0
   24.6829   -4.2825  -17.3861 C   0  0  0  0  0  0  0  0  0  0  0  0
   25.3207   -5.3109  -16.6843 C   0  0  0  0  0  0  0  0  0  0  0  0
   24.9979   -6.6507  -16.8766 C   0  0  0  0  0  0  0  0  0  0  0  0
   21.6591   -8.0137  -16.5567 C   0  0  0  0  0  0  0  0  0  0  0  0
   20.5555   -8.0343  -17.2220 O   0  0  0  0  0  0  0  0  0  0  0  0
   18.3340   -4.9755  -14.1315 N   0  0  0  0  0  0  0  0  0  0  0  0
   18.3317   -6.4188  -14.0708 C   0  0  0  0  0  0  0  0  0  0  0  0
   17.2998   -6.9370  -13.5917 O   0  0  0  0  0  0  0  0  0  0  0  0
   19.4797   -7.1960  -14.5457 C   0  0  0  0  0  0  0  0  0  0  0  0
   20.5431   -6.3120  -15.1414 C   0  0  2  0  0  0  0  0  0  0  0  0
   21.7226   -7.1229  -15.4821 N   0  0  0  0  0  0  0  0  0  0  0  0
   20.9851   -5.2565  -14.1663 C   0  0  0  0  0  0  0  0  0  0  0  0
   22.3366   -5.1716  -13.7830 O   0  0  0  0  0  0  0  0  0  0  0  0
   20.2369   -4.4155  -13.6450 O   0  0  0  0  0  0  0  0  0  0  0  0
  2  1  1  0
  2  3  2  0
  4  2  1  0
  5  6  1  0
  5  4  1  0
  6  7  1  1
  8  6  1  0
  8  9  2  0
 10  8  1  0
 11 10  1  0
 12 13  1  0
 11 12  1  6
 13 14  2  0
 13 18  1  0
 14 15  1  0
 15 16  2  0
 17 16  1  0
 18 17  2  0
 19 11  1  0
 20 19  2  0
 21 22  1  0
 22 23  2  0
 24 22  1  0
 25 24  1  1
 25 26  1  0
 26 19  1  0
 27 25  1  0
 28 27  1  0
 29 27  2  0
M  END
$$$$
