QHG.pdb
     RDKit          3D

 24 24  0  0  1  0  0  0  0  0999 V2000
    5.0671  -23.5290   21.5124 N   0  0  0  0  0  0  0  0  0  0  0  0
    5.5103  -22.3375   20.9017 C   0  0  0  0  0  0  0  0  0  0  0  0
    5.3512  -22.2412   19.6583 O   0  0  0  0  0  0  0  0  0  0  0  0
    6.1405  -21.2249   21.6565 C   0  0  0  0  0  0  0  0  0  0  0  0
    6.1906  -21.5647   23.1075 C   0  0  0  0  0  0  0  0  0  0  0  0
    6.3160  -20.3528   23.9911 C   0  0  2  0  0  0  0  0  0  0  0  0
    6.1866  -19.1179   23.2926 N   0  0  0  0  0  0  0  0  0  0  0  0
    7.6467  -20.3923   24.6429 C   0  0  0  0  0  0  0  0  0  0  0  0
    8.0270  -21.4272   25.2448 O   0  0  0  0  0  0  0  0  0  0  0  0
    8.5487  -19.2963   24.6287 N   0  0  0  0  0  0  0  0  0  0  0  0
    9.8388  -19.2955   25.2747 C   0  0  1  0  0  0  0  0  0  0  0  0
   10.7294  -18.3528   24.4952 C   0  0  0  0  0  0  0  0  0  0  0  0
   11.0695  -18.9046   23.1586 C   0  0  0  0  0  0  0  0  0  0  0  0
   11.5845  -20.1716   22.8925 C   0  0  0  0  0  0  0  0  0  0  0  0
   11.7628  -20.3059   21.5604 N   0  0  0  0  0  0  0  0  0  0  0  0
   11.3692  -19.1525   21.0109 C   0  0  0  0  0  0  0  0  0  0  0  0
   10.9489  -18.2983   21.9608 N   0  0  0  0  0  0  0  0  0  0  0  0
    9.7410  -18.9477   26.6921 C   0  0  0  0  0  0  0  0  0  0  0  0
    9.2513  -17.8066   26.9931 O   0  0  0  0  0  0  0  0  0  0  0  0
   10.1630  -19.8170   27.7242 N   0  0  0  0  0  0  0  0  0  0  0  0
   10.0222  -19.4022   29.0899 C   0  0  0  0  0  0  0  0  0  0  0  0
   10.6144  -20.4375   29.9955 C   0  0  0  0  0  0  0  0  0  0  0  0
   10.7074  -20.2057   31.3434 O   0  0  0  0  0  0  0  0  0  0  0  0
   11.0392  -21.5355   29.5576 O   0  0  0  0  0  0  0  0  0  0  0  0
  2  4  1  0
  2  1  1  0
  3  2  2  0
  5  6  1  0
  5  4  1  0
  6  7  1  6
  6  8  1  0
  8  9  2  0
 10  8  1  0
 10 11  1  0
 11 18  1  0
 12 13  1  0
 11 12  1  6
 13 17  1  0
 13 14  2  0
 14 15  1  0
 16 15  1  0
 17 16  2  0
 18 19  2  0
 20 18  1  0
 20 21  1  0
 22 23  1  0
 22 21  1  0
 24 22  2  0
M  END
$$$$
