QHG.pdb
     RDKit          3D

 24 24  0  0  1  0  0  0  0  0999 V2000
   12.2682  -17.3478   14.7349 N   0  0  0  0  0  0  0  0  0  0  0  0
   10.8815  -17.2387   14.9683 C   0  0  0  0  0  0  0  0  0  0  0  0
   10.1174  -17.5734   14.0277 O   0  0  0  0  0  0  0  0  0  0  0  0
   10.3104  -16.7556   16.2509 C   0  0  0  0  0  0  0  0  0  0  0  0
   11.4115  -16.4194   17.1984 C   0  0  0  0  0  0  0  0  0  0  0  0
   11.2383  -17.0565   18.5509 C   0  0  2  0  0  0  0  0  0  0  0  0
   10.1950  -18.0255   18.5990 N   0  0  0  0  0  0  0  0  0  0  0  0
   10.9370  -15.9856   19.5305 C   0  0  0  0  0  0  0  0  0  0  0  0
   11.7157  -15.0085   19.6607 O   0  0  0  0  0  0  0  0  0  0  0  0
    9.7842  -15.9957   20.3586 N   0  0  0  0  0  0  0  0  0  0  0  0
    9.4511  -14.9569   21.3029 C   0  0  1  0  0  0  0  0  0  0  0  0
    7.9851  -14.6331   21.1140 C   0  0  0  0  0  0  0  0  0  0  0  0
    7.6982  -14.1963   19.7235 C   0  0  0  0  0  0  0  0  0  0  0  0
    7.8692  -12.9137   19.2066 C   0  0  0  0  0  0  0  0  0  0  0  0
    7.5013  -12.9077   17.9071 N   0  0  0  0  0  0  0  0  0  0  0  0
    7.1112  -14.1542   17.6217 C   0  0  0  0  0  0  0  0  0  0  0  0
    7.2241  -14.9421   18.7058 N   0  0  0  0  0  0  0  0  0  0  0  0
    9.7791  -15.3395   22.6760 C   0  0  0  0  0  0  0  0  0  0  0  0
    9.4371  -14.5427   23.6144 O   0  0  0  0  0  0  0  0  0  0  0  0
   10.4510  -16.5418   22.9956 N   0  0  0  0  0  0  0  0  0  0  0  0
   10.6991  -16.8605   24.3719 C   0  0  0  0  0  0  0  0  0  0  0  0
   12.1739  -16.9736   24.6059 C   0  0  0  0  0  0  0  0  0  0  0  0
   12.6530  -17.3283   25.8403 O   0  0  0  0  0  0  0  0  0  0  0  0
   13.0083  -16.7508   23.6937 O   0  0  0  0  0  0  0  0  0  0  0  0
  2  4  1  0
  2  1  1  0
  3  2  2  0
  5  6  1  0
  5  4  1  0
  6  7  1  6
  6  8  1  0
  8  9  2  0
 10  8  1  0
 10 11  1  0
 11 18  1  0
 12 13  1  0
 11 12  1  1
 13 17  1  0
 13 14  2  0
 14 15  1  0
 16 15  1  0
 17 16  2  0
 18 19  2  0
 20 18  1  0
 20 21  1  0
 22 23  1  0
 22 21  1  0
 24 22  2  0
M  END
$$$$
