QHG.pdb
     RDKit          3D

 24 24  0  0  1  0  0  0  0  0999 V2000
    7.1328  -12.6296   17.3024 N   0  0  0  0  0  0  0  0  0  0  0  0
    8.0802  -13.5621   16.8312 C   0  0  0  0  0  0  0  0  0  0  0  0
    7.9647  -13.9377   15.6369 O   0  0  0  0  0  0  0  0  0  0  0  0
    9.1780  -14.0996   17.6741 C   0  0  0  0  0  0  0  0  0  0  0  0
    9.1573  -13.4389   19.0107 C   0  0  0  0  0  0  0  0  0  0  0  0
   10.1613  -14.0202   19.9695 C   0  0  2  0  0  0  0  0  0  0  0  0
   10.9997  -15.0148   19.3887 N   0  0  0  0  0  0  0  0  0  0  0  0
    9.4212  -14.6256   21.1022 C   0  0  0  0  0  0  0  0  0  0  0  0
    8.2151  -14.3349   21.2987 O   0  0  0  0  0  0  0  0  0  0  0  0
   10.0106  -15.5445   22.0094 N   0  0  0  0  0  0  0  0  0  0  0  0
    9.3582  -16.0534   23.1914 C   0  0  1  0  0  0  0  0  0  0  0  0
    7.9961  -16.5591   22.7686 C   0  0  0  0  0  0  0  0  0  0  0  0
    8.0981  -17.5243   21.6441 C   0  0  0  0  0  0  0  0  0  0  0  0
    9.2591  -17.8795   20.9605 C   0  0  0  0  0  0  0  0  0  0  0  0
    8.9510  -18.7829   20.0049 N   0  0  0  0  0  0  0  0  0  0  0  0
    7.6324  -18.9854   20.0910 C   0  0  0  0  0  0  0  0  0  0  0  0
    7.1044  -18.2343   21.0738 N   0  0  0  0  0  0  0  0  0  0  0  0
   10.1623  -17.0730   23.8645 C   0  0  0  0  0  0  0  0  0  0  0  0
    9.7552  -17.5008   24.9976 O   0  0  0  0  0  0  0  0  0  0  0  0
   11.3558  -17.5934   23.3133 N   0  0  0  0  0  0  0  0  0  0  0  0
   12.5384  -17.6410   24.1233 C   0  0  0  0  0  0  0  0  0  0  0  0
   12.5140  -18.8686   24.9807 C   0  0  0  0  0  0  0  0  0  0  0  0
   13.5872  -19.1789   25.7750 O   0  0  0  0  0  0  0  0  0  0  0  0
   11.5252  -19.6431   25.0004 O   0  0  0  0  0  0  0  0  0  0  0  0
  2  4  1  0
  2  1  1  0
  3  2  2  0
  5  6  1  0
  5  4  1  0
  6  7  1  6
  6  8  1  0
  8  9  2  0
 10  8  1  0
 10 11  1  0
 11 18  1  0
 12 13  1  0
 11 12  1  6
 13 17  1  0
 13 14  2  0
 14 15  1  0
 16 15  1  0
 17 16  2  0
 18 19  2  0
 20 18  1  0
 20 21  1  0
 22 23  1  0
 22 21  1  0
 24 22  2  0
M  END
$$$$
