QHG.pdb
     RDKit          3D

 24 24  0  0  1  0  0  0  0  0999 V2000
   14.0611  -14.3325   16.2848 N   0  0  0  0  0  0  0  0  0  0  0  0
   13.3717  -15.5523   16.1232 C   0  0  0  0  0  0  0  0  0  0  0  0
   13.2518  -15.9878   14.9499 O   0  0  0  0  0  0  0  0  0  0  0  0
   12.7994  -16.3173   17.2597 C   0  0  0  0  0  0  0  0  0  0  0  0
   12.9687  -15.5448   18.5238 C   0  0  0  0  0  0  0  0  0  0  0  0
   12.4547  -16.2774   19.7339 C   0  0  2  0  0  0  0  0  0  0  0  0
   11.6147  -17.3844   19.4201 N   0  0  0  0  0  0  0  0  0  0  0  0
   11.6860  -15.3182   20.5623 C   0  0  0  0  0  0  0  0  0  0  0  0
   12.2269  -14.2624   20.9754 O   0  0  0  0  0  0  0  0  0  0  0  0
   10.3309  -15.5255   20.9303 N   0  0  0  0  0  0  0  0  0  0  0  0
    9.5646  -14.6238   21.7559 C   0  0  1  0  0  0  0  0  0  0  0  0
    8.1977  -14.4876   21.1213 C   0  0  0  0  0  0  0  0  0  0  0  0
    8.2957  -14.0555   19.7035 C   0  0  0  0  0  0  0  0  0  0  0  0
    8.5327  -12.7605   19.2471 C   0  0  0  0  0  0  0  0  0  0  0  0
    8.5522  -12.7640   17.8966 N   0  0  0  0  0  0  0  0  0  0  0  0
    8.3331  -14.0283   17.5214 C   0  0  0  0  0  0  0  0  0  0  0  0
    8.1767  -14.8182   18.5986 N   0  0  0  0  0  0  0  0  0  0  0  0
    9.5062  -15.0714   23.1472 C   0  0  0  0  0  0  0  0  0  0  0  0
    8.7095  -14.4598   23.9369 O   0  0  0  0  0  0  0  0  0  0  0  0
   10.2887  -16.1407   23.6406 N   0  0  0  0  0  0  0  0  0  0  0  0
   10.2059  -16.4857   25.0303 C   0  0  0  0  0  0  0  0  0  0  0  0
   11.1339  -17.6237   25.3241 C   0  0  0  0  0  0  0  0  0  0  0  0
   11.2380  -18.1201   26.5976 O   0  0  0  0  0  0  0  0  0  0  0  0
   11.8370  -18.1533   24.4278 O   0  0  0  0  0  0  0  0  0  0  0  0
  2  4  1  0
  2  1  1  0
  3  2  2  0
  5  6  1  0
  5  4  1  0
  6  7  1  6
  6  8  1  0
  8  9  2  0
 10  8  1  0
 10 11  1  0
 11 18  1  0
 12 13  1  0
 11 12  1  6
 13 17  1  0
 13 14  2  0
 14 15  1  0
 16 15  1  0
 17 16  2  0
 18 19  2  0
 20 18  1  0
 20 21  1  0
 22 23  1  0
 22 21  1  0
 24 22  2  0
M  END
$$$$
