QHG.pdb
     RDKit          3D

 24 24  0  0  1  0  0  0  0  0999 V2000
   13.6821  -16.5856   13.9440 N   0  0  0  0  0  0  0  0  0  0  0  0
   12.2727  -16.6384   13.9389 C   0  0  0  0  0  0  0  0  0  0  0  0
   11.7192  -16.9755   12.8615 O   0  0  0  0  0  0  0  0  0  0  0  0
   11.4446  -16.3185   15.1291 C   0  0  0  0  0  0  0  0  0  0  0  0
   12.3250  -15.9091   16.2607 C   0  0  0  0  0  0  0  0  0  0  0  0
   12.1581  -16.7768   17.4791 C   0  0  2  0  0  0  0  0  0  0  0  0
   10.9865  -17.5867   17.4502 N   0  0  0  0  0  0  0  0  0  0  0  0
   12.0964  -15.8950   18.6689 C   0  0  0  0  0  0  0  0  0  0  0  0
   13.0096  -15.0605   18.8873 O   0  0  0  0  0  0  0  0  0  0  0  0
   11.0335  -15.9361   19.6089 N   0  0  0  0  0  0  0  0  0  0  0  0
   10.9646  -15.1190   20.7960 C   0  0  1  0  0  0  0  0  0  0  0  0
    9.5033  -14.8183   21.0486 C   0  0  0  0  0  0  0  0  0  0  0  0
    8.9369  -13.9406   19.9925 C   0  0  0  0  0  0  0  0  0  0  0  0
    9.6300  -13.3819   18.9206 C   0  0  0  0  0  0  0  0  0  0  0  0
    8.7762  -12.6451   18.1775 N   0  0  0  0  0  0  0  0  0  0  0  0
    7.5821  -12.7423   18.7709 C   0  0  0  0  0  0  0  0  0  0  0  0
    7.6629  -13.5194   19.8655 N   0  0  0  0  0  0  0  0  0  0  0  0
   11.6224  -15.7549   21.9372 C   0  0  0  0  0  0  0  0  0  0  0  0
   10.9255  -16.5410   22.6645 O   0  0  0  0  0  0  0  0  0  0  0  0
   12.9814  -15.5332   22.2582 N   0  0  0  0  0  0  0  0  0  0  0  0
   13.5622  -16.2342   23.3665 C   0  0  0  0  0  0  0  0  0  0  0  0
   15.0004  -15.8435   23.5132 C   0  0  0  0  0  0  0  0  0  0  0  0
   15.7315  -16.2860   24.5850 O   0  0  0  0  0  0  0  0  0  0  0  0
   15.5762  -15.1088   22.6726 O   0  0  0  0  0  0  0  0  0  0  0  0
  2  4  1  0
  2  1  1  0
  3  2  2  0
  5  6  1  0
  5  4  1  0
  6  7  1  6
  6  8  1  0
  8  9  2  0
 10  8  1  0
 10 11  1  0
 11 18  1  0
 12 13  1  0
 11 12  1  1
 13 17  1  0
 13 14  2  0
 14 15  1  0
 16 15  1  0
 17 16  2  0
 18 19  2  0
 20 18  1  0
 20 21  1  0
 22 23  1  0
 22 21  1  0
 24 22  2  0
M  END
$$$$
