QHG.pdb
     RDKit          3D

 24 24  0  0  1  0  0  0  0  0999 V2000
    8.8946  -16.9413   14.8940 N   0  0  0  0  0  0  0  0  0  0  0  0
   10.0491  -17.3068   15.6170 C   0  0  0  0  0  0  0  0  0  0  0  0
   11.1443  -17.2642   15.0012 O   0  0  0  0  0  0  0  0  0  0  0  0
   10.0151  -17.7282   17.0404 C   0  0  0  0  0  0  0  0  0  0  0  0
   10.9439  -16.8789   17.8400 C   0  0  0  0  0  0  0  0  0  0  0  0
   10.9384  -17.2208   19.3058 C   0  0  2  0  0  0  0  0  0  0  0  0
    9.9924  -18.2266   19.6565 N   0  0  0  0  0  0  0  0  0  0  0  0
   10.6241  -15.9878   20.0662 C   0  0  0  0  0  0  0  0  0  0  0  0
   11.3926  -14.9958   20.0105 O   0  0  0  0  0  0  0  0  0  0  0  0
    9.4696  -15.8538   20.8811 N   0  0  0  0  0  0  0  0  0  0  0  0
    9.1525  -14.6791   21.6566 C   0  0  1  0  0  0  0  0  0  0  0  0
    7.7353  -14.2807   21.3069 C   0  0  0  0  0  0  0  0  0  0  0  0
    7.6082  -13.9235   19.8706 C   0  0  0  0  0  0  0  0  0  0  0  0
    7.9955  -12.7232   19.2785 C   0  0  0  0  0  0  0  0  0  0  0  0
    7.7206  -12.7728   17.9571 N   0  0  0  0  0  0  0  0  0  0  0  0
    7.1761  -13.9728   17.7318 C   0  0  0  0  0  0  0  0  0  0  0  0
    7.1017  -14.6776   18.8748 N   0  0  0  0  0  0  0  0  0  0  0  0
    9.3466  -14.9003   23.0893 C   0  0  0  0  0  0  0  0  0  0  0  0
    8.8175  -14.0646   23.8982 O   0  0  0  0  0  0  0  0  0  0  0  0
   10.0878  -15.9897   23.6020 N   0  0  0  0  0  0  0  0  0  0  0  0
   10.1946  -16.1570   25.0225 C   0  0  0  0  0  0  0  0  0  0  0  0
   10.9552  -17.4105   25.3274 C   0  0  0  0  0  0  0  0  0  0  0  0
   11.2163  -17.7624   26.6263 O   0  0  0  0  0  0  0  0  0  0  0  0
   11.3730  -18.1694   24.4178 O   0  0  0  0  0  0  0  0  0  0  0  0
  2  4  1  0
  2  1  1  0
  3  2  2  0
  5  6  1  0
  5  4  1  0
  6  7  1  6
  6  8  1  0
  8  9  2  0
 10  8  1  0
 10 11  1  0
 11 18  1  0
 12 13  1  0
 11 12  1  1
 13 17  1  0
 13 14  2  0
 14 15  1  0
 16 15  1  0
 17 16  2  0
 18 19  2  0
 20 18  1  0
 20 21  1  0
 22 23  1  0
 22 21  1  0
 24 22  2  0
M  END
$$$$
