QHG.pdb
     RDKit          3D

 24 24  0  0  1  0  0  0  0  0999 V2000
   14.8897  -14.9420   14.8949 N   0  0  0  0  0  0  0  0  0  0  0  0
   13.6091  -15.4865   14.6650 C   0  0  0  0  0  0  0  0  0  0  0  0
   13.4367  -16.0989   13.5806 O   0  0  0  0  0  0  0  0  0  0  0  0
   12.4900  -15.3642   15.6331 C   0  0  0  0  0  0  0  0  0  0  0  0
   12.9300  -14.5684   16.8148 C   0  0  0  0  0  0  0  0  0  0  0  0
   12.8735  -15.3467   18.1018 C   0  0  2  0  0  0  0  0  0  0  0  0
   12.3396  -16.6593   17.9552 N   0  0  0  0  0  0  0  0  0  0  0  0
   12.0281  -14.5946   19.0593 C   0  0  0  0  0  0  0  0  0  0  0  0
   12.3024  -13.4028   19.3464 O   0  0  0  0  0  0  0  0  0  0  0  0
   10.8893  -15.1563   19.6937 N   0  0  0  0  0  0  0  0  0  0  0  0
   10.1156  -14.4920   20.7143 C   0  0  1  0  0  0  0  0  0  0  0  0
    8.6558  -14.7384   20.4012 C   0  0  0  0  0  0  0  0  0  0  0  0
    8.2880  -14.2068   19.0638 C   0  0  0  0  0  0  0  0  0  0  0  0
    7.9655  -12.8862   18.7578 C   0  0  0  0  0  0  0  0  0  0  0  0
    7.6884  -12.7927   17.4392 N   0  0  0  0  0  0  0  0  0  0  0  0
    7.8344  -14.0229   16.9368 C   0  0  0  0  0  0  0  0  0  0  0  0
    8.1954  -14.8858   17.9032 N   0  0  0  0  0  0  0  0  0  0  0  0
   10.4929  -14.9285   22.0583 C   0  0  0  0  0  0  0  0  0  0  0  0
    9.7360  -14.5881   23.0298 O   0  0  0  0  0  0  0  0  0  0  0  0
   11.6482  -15.7019   22.3156 N   0  0  0  0  0  0  0  0  0  0  0  0
   11.9131  -16.1402   23.6553 C   0  0  0  0  0  0  0  0  0  0  0  0
   13.2065  -16.8942   23.6933 C   0  0  0  0  0  0  0  0  0  0  0  0
   13.7303  -17.3090   24.8902 O   0  0  0  0  0  0  0  0  0  0  0  0
   13.8447  -17.1676   22.6465 O   0  0  0  0  0  0  0  0  0  0  0  0
  2  4  1  0
  2  1  1  0
  3  2  2  0
  5  6  1  0
  5  4  1  0
  6  7  1  6
  6  8  1  0
  8  9  2  0
 10  8  1  0
 10 11  1  0
 11 18  1  0
 12 13  1  0
 11 12  1  6
 13 17  1  0
 13 14  2  0
 14 15  1  0
 16 15  1  0
 17 16  2  0
 18 19  2  0
 20 18  1  0
 20 21  1  0
 22 23  1  0
 22 21  1  0
 24 22  2  0
M  END
$$$$
