QHG.pdb
     RDKit          3D

 24 24  0  0  1  0  0  0  0  0999 V2000
   14.2641  -15.9945   14.9073 N   0  0  0  0  0  0  0  0  0  0  0  0
   12.9662  -16.5421   14.9774 C   0  0  0  0  0  0  0  0  0  0  0  0
   12.7451  -17.5730   14.2926 O   0  0  0  0  0  0  0  0  0  0  0  0
   11.8834  -15.9585   15.8089 C   0  0  0  0  0  0  0  0  0  0  0  0
   12.4610  -15.3826   17.0572 C   0  0  0  0  0  0  0  0  0  0  0  0
   12.2243  -16.2458   18.2672 C   0  0  2  0  0  0  0  0  0  0  0  0
   11.2616  -17.2748   18.0581 N   0  0  0  0  0  0  0  0  0  0  0  0
   11.7559  -15.3747   19.3713 C   0  0  0  0  0  0  0  0  0  0  0  0
   12.4480  -14.3942   19.7421 O   0  0  0  0  0  0  0  0  0  0  0  0
   10.5323  -15.5867   20.0589 N   0  0  0  0  0  0  0  0  0  0  0  0
   10.0348  -14.7391   21.1152 C   0  0  1  0  0  0  0  0  0  0  0  0
    8.5548  -14.5406   20.8706 C   0  0  0  0  0  0  0  0  0  0  0  0
    8.2947  -13.9979   19.5126 C   0  0  0  0  0  0  0  0  0  0  0  0
    8.1947  -12.6526   19.1638 C   0  0  0  0  0  0  0  0  0  0  0  0
    7.9528  -12.5560   17.8385 N   0  0  0  0  0  0  0  0  0  0  0  0
    7.9034  -13.8086   17.3737 C   0  0  0  0  0  0  0  0  0  0  0  0
    8.1075  -14.6883   18.3703 N   0  0  0  0  0  0  0  0  0  0  0  0
   10.3264  -15.2869   22.4397 C   0  0  0  0  0  0  0  0  0  0  0  0
    9.8862  -14.6516   23.4572 O   0  0  0  0  0  0  0  0  0  0  0  0
   11.0668  -16.4762   22.6299 N   0  0  0  0  0  0  0  0  0  0  0  0
   11.3017  -16.9488   23.9636 C   0  0  0  0  0  0  0  0  0  0  0  0
   12.7695  -16.9170   24.2592 C   0  0  0  0  0  0  0  0  0  0  0  0
   13.4502  -18.0805   24.5078 O   0  0  0  0  0  0  0  0  0  0  0  0
   13.4159  -15.8403   24.2888 O   0  0  0  0  0  0  0  0  0  0  0  0
  2  4  1  0
  2  1  1  0
  3  2  2  0
  5  6  1  0
  5  4  1  0
  6  7  1  6
  6  8  1  0
  8  9  2  0
 10  8  1  0
 10 11  1  0
 11 18  1  0
 12 13  1  0
 11 12  1  6
 13 17  1  0
 13 14  2  0
 14 15  1  0
 16 15  1  0
 17 16  2  0
 18 19  2  0
 20 18  1  0
 20 21  1  0
 22 23  1  0
 22 21  1  0
 24 22  2  0
M  END
$$$$
