QHG.pdb
     RDKit          3D

 24 24  0  0  1  0  0  0  0  0999 V2000
   13.2154  -15.4802   14.0842 N   0  0  0  0  0  0  0  0  0  0  0  0
   12.1656  -15.4849   15.0261 C   0  0  0  0  0  0  0  0  0  0  0  0
   11.1792  -14.7440   14.7835 O   0  0  0  0  0  0  0  0  0  0  0  0
   12.1857  -16.3119   16.2591 C   0  0  0  0  0  0  0  0  0  0  0  0
   12.4585  -15.4465   17.4423 C   0  0  0  0  0  0  0  0  0  0  0  0
   12.4212  -16.2013   18.7439 C   0  0  2  0  0  0  0  0  0  0  0  0
   11.6020  -17.3663   18.7078 N   0  0  0  0  0  0  0  0  0  0  0  0
   11.9038  -15.2895   19.7917 C   0  0  0  0  0  0  0  0  0  0  0  0
   12.5251  -14.2360   20.0781 O   0  0  0  0  0  0  0  0  0  0  0  0
   10.7094  -15.5411   20.5162 N   0  0  0  0  0  0  0  0  0  0  0  0
   10.1403  -14.6377   21.4866 C   0  0  1  0  0  0  0  0  0  0  0  0
    8.6538  -14.5652   21.2134 C   0  0  0  0  0  0  0  0  0  0  0  0
    8.3762  -14.1333   19.8195 C   0  0  0  0  0  0  0  0  0  0  0  0
    8.8512  -12.9791   19.2002 C   0  0  0  0  0  0  0  0  0  0  0  0
    8.3842  -12.9323   17.9338 N   0  0  0  0  0  0  0  0  0  0  0  0
    7.6377  -14.0290   17.7683 C   0  0  0  0  0  0  0  0  0  0  0  0
    7.6232  -14.7625   18.8955 N   0  0  0  0  0  0  0  0  0  0  0  0
   10.4499  -15.0415   22.8580 C   0  0  0  0  0  0  0  0  0  0  0  0
    9.9127  -14.3794   23.8097 O   0  0  0  0  0  0  0  0  0  0  0  0
   11.3096  -16.1220   23.1619 N   0  0  0  0  0  0  0  0  0  0  0  0
   11.5453  -16.4642   24.5347 C   0  0  0  0  0  0  0  0  0  0  0  0
   10.9153  -17.7880   24.8403 C   0  0  0  0  0  0  0  0  0  0  0  0
   11.0100  -18.3251   26.0979 O   0  0  0  0  0  0  0  0  0  0  0  0
   10.2889  -18.4403   23.9685 O   0  0  0  0  0  0  0  0  0  0  0  0
  2  4  1  0
  2  1  1  0
  3  2  2  0
  5  6  1  0
  5  4  1  0
  6  7  1  6
  6  8  1  0
  8  9  2  0
 10  8  1  0
 10 11  1  0
 11 18  1  0
 12 13  1  0
 11 12  1  1
 13 17  1  0
 13 14  2  0
 14 15  1  0
 16 15  1  0
 17 16  2  0
 18 19  2  0
 20 18  1  0
 20 21  1  0
 22 23  1  0
 22 21  1  0
 24 22  2  0
M  END
$$$$
