QHG.pdb
     RDKit          3D

 24 24  0  0  1  0  0  0  0  0999 V2000
    8.3004  -12.2532   18.6742 N   0  0  0  0  0  0  0  0  0  0  0  0
    8.0798  -13.4671   17.9908 C   0  0  0  0  0  0  0  0  0  0  0  0
    7.6968  -13.3868   16.7960 O   0  0  0  0  0  0  0  0  0  0  0  0
    8.2790  -14.7985   18.6173 C   0  0  0  0  0  0  0  0  0  0  0  0
    8.6481  -14.6305   20.0521 C   0  0  0  0  0  0  0  0  0  0  0  0
    8.9220  -15.9378   20.7457 C   0  0  2  0  0  0  0  0  0  0  0  0
    7.8003  -16.8155   20.7788 N   0  0  0  0  0  0  0  0  0  0  0  0
    9.3359  -15.6438   22.1383 C   0  0  0  0  0  0  0  0  0  0  0  0
   10.2924  -14.8613   22.3633 O   0  0  0  0  0  0  0  0  0  0  0  0
    8.6969  -16.2107   23.2720 N   0  0  0  0  0  0  0  0  0  0  0  0
    9.0328  -15.8938   24.6390 C   0  0  1  0  0  0  0  0  0  0  0  0
    7.7338  -15.6392   25.3719 C   0  0  0  0  0  0  0  0  0  0  0  0
    7.2484  -14.2521   25.1553 C   0  0  0  0  0  0  0  0  0  0  0  0
    6.3010  -13.5772   25.9223 C   0  0  0  0  0  0  0  0  0  0  0  0
    6.1229  -12.3380   25.4155 N   0  0  0  0  0  0  0  0  0  0  0  0
    6.9381  -12.2433   24.3602 C   0  0  0  0  0  0  0  0  0  0  0  0
    7.6228  -13.3884   24.1906 N   0  0  0  0  0  0  0  0  0  0  0  0
    9.8435  -16.9407   25.2603 C   0  0  0  0  0  0  0  0  0  0  0  0
   10.1189  -16.8227   26.5024 O   0  0  0  0  0  0  0  0  0  0  0  0
   10.3253  -18.0612   24.5452 N   0  0  0  0  0  0  0  0  0  0  0  0
   11.0427  -19.0848   25.2485 C   0  0  0  0  0  0  0  0  0  0  0  0
   12.5156  -18.8858   25.0649 C   0  0  0  0  0  0  0  0  0  0  0  0
   13.4088  -19.7237   25.6808 O   0  0  0  0  0  0  0  0  0  0  0  0
   12.9750  -17.9593   24.3519 O   0  0  0  0  0  0  0  0  0  0  0  0
  2  4  1  0
  2  1  1  0
  3  2  2  0
  5  6  1  0
  5  4  1  0
  6  7  1  1
  6  8  1  0
  8  9  2  0
 10  8  1  0
 10 11  1  0
 11 18  1  0
 12 13  1  0
 11 12  1  1
 13 17  1  0
 13 14  2  0
 14 15  1  0
 16 15  1  0
 17 16  2  0
 18 19  2  0
 20 18  1  0
 20 21  1  0
 22 23  1  0
 22 21  1  0
 24 22  2  0
M  END
$$$$
