QHG.pdb
     RDKit          3D

 24 24  0  0  1  0  0  0  0  0999 V2000
    8.3934  -19.8162   16.6800 N   0  0  0  0  0  0  0  0  0  0  0  0
    8.5372  -21.1337   17.1624 C   0  0  0  0  0  0  0  0  0  0  0  0
    8.6974  -22.0398   16.3057 O   0  0  0  0  0  0  0  0  0  0  0  0
    8.5066  -21.4765   18.6067 C   0  0  0  0  0  0  0  0  0  0  0  0
    8.2715  -20.2442   19.4127 C   0  0  0  0  0  0  0  0  0  0  0  0
    8.2066  -20.5128   20.8922 C   0  0  2  0  0  0  0  0  0  0  0  0
    7.5135  -21.7115   21.2275 N   0  0  0  0  0  0  0  0  0  0  0  0
    7.5189  -19.3701   21.5391 C   0  0  0  0  0  0  0  0  0  0  0  0
    7.6910  -18.2019   21.1105 O   0  0  0  0  0  0  0  0  0  0  0  0
    6.6484  -19.5187   22.6504 N   0  0  0  0  0  0  0  0  0  0  0  0
    5.9475  -18.4298   23.2867 C   0  0  1  0  0  0  0  0  0  0  0  0
    4.5118  -18.8696   23.4736 C   0  0  0  0  0  0  0  0  0  0  0  0
    3.8026  -18.9823   22.1733 C   0  0  0  0  0  0  0  0  0  0  0  0
    4.3007  -18.6177   20.9242 C   0  0  0  0  0  0  0  0  0  0  0  0
    3.3643  -18.8690   19.9839 N   0  0  0  0  0  0  0  0  0  0  0  0
    2.3101  -19.3770   20.6304 C   0  0  0  0  0  0  0  0  0  0  0  0
    2.5589  -19.4515   21.9500 N   0  0  0  0  0  0  0  0  0  0  0  0
    6.5878  -18.0233   24.5374 C   0  0  0  0  0  0  0  0  0  0  0  0
    6.0266  -17.1019   25.2220 O   0  0  0  0  0  0  0  0  0  0  0  0
    7.7873  -18.6057   25.0076 N   0  0  0  0  0  0  0  0  0  0  0  0
    8.2760  -18.2485   26.3079 C   0  0  0  0  0  0  0  0  0  0  0  0
    8.0996  -19.4011   27.2476 C   0  0  0  0  0  0  0  0  0  0  0  0
    8.4707  -19.2848   28.5621 O   0  0  0  0  0  0  0  0  0  0  0  0
    7.6136  -20.4958   26.8690 O   0  0  0  0  0  0  0  0  0  0  0  0
  2  4  1  0
  2  1  1  0
  3  2  2  0
  5  6  1  0
  5  4  1  0
  6  7  1  6
  6  8  1  0
  8  9  2  0
 10  8  1  0
 10 11  1  0
 11 18  1  0
 12 13  1  0
 11 12  1  1
 13 17  1  0
 13 14  2  0
 14 15  1  0
 16 15  1  0
 17 16  2  0
 18 19  2  0
 20 18  1  0
 20 21  1  0
 22 23  1  0
 22 21  1  0
 24 22  2  0
M  END
$$$$
