QHG.pdb
     RDKit          3D

 24 24  0  0  1  0  0  0  0  0999 V2000
   14.9164  -14.2511   18.2963 N   0  0  0  0  0  0  0  0  0  0  0  0
   13.8080  -14.8878   17.7002 C   0  0  0  0  0  0  0  0  0  0  0  0
   13.8875  -15.1370   16.4705 O   0  0  0  0  0  0  0  0  0  0  0  0
   12.5855  -15.2627   18.4548 C   0  0  0  0  0  0  0  0  0  0  0  0
   12.7309  -14.8598   19.8830 C   0  0  0  0  0  0  0  0  0  0  0  0
   12.0413  -15.8019   20.8328 C   0  0  2  0  0  0  0  0  0  0  0  0
   11.4160  -16.9087   20.1898 N   0  0  0  0  0  0  0  0  0  0  0  0
   11.0090  -15.0377   21.5728 C   0  0  0  0  0  0  0  0  0  0  0  0
   11.3221  -13.9997   22.2071 O   0  0  0  0  0  0  0  0  0  0  0  0
    9.6421  -15.4188   21.6105 N   0  0  0  0  0  0  0  0  0  0  0  0
    8.6186  -14.7076   22.3373 C   0  0  1  0  0  0  0  0  0  0  0  0
    7.4096  -14.6139   21.4322 C   0  0  0  0  0  0  0  0  0  0  0  0
    7.7353  -13.9247   20.1573 C   0  0  0  0  0  0  0  0  0  0  0  0
    7.4520  -14.3832   18.8724 C   0  0  0  0  0  0  0  0  0  0  0  0
    7.9016  -13.4824   17.9720 N   0  0  0  0  0  0  0  0  0  0  0  0
    8.4507  -12.4884   18.6777 C   0  0  0  0  0  0  0  0  0  0  0  0
    8.3582  -12.7404   19.9955 N   0  0  0  0  0  0  0  0  0  0  0  0
    8.3218  -15.3382   23.6232 C   0  0  0  0  0  0  0  0  0  0  0  0
    7.3247  -14.8952   24.2881 O   0  0  0  0  0  0  0  0  0  0  0  0
    9.0882  -16.4043   24.1477 N   0  0  0  0  0  0  0  0  0  0  0  0
    8.7278  -16.9675   25.4165 C   0  0  0  0  0  0  0  0  0  0  0  0
    8.9207  -18.4523   25.3829 C   0  0  0  0  0  0  0  0  0  0  0  0
    8.7115  -19.2026   26.5109 O   0  0  0  0  0  0  0  0  0  0  0  0
    9.2751  -19.0505   24.3368 O   0  0  0  0  0  0  0  0  0  0  0  0
  2  4  1  0
  2  1  1  0
  3  2  2  0
  5  6  1  0
  5  4  1  0
  6  7  1  6
  6  8  1  0
  8  9  2  0
 10  8  1  0
 10 11  1  0
 11 18  1  0
 12 13  1  0
 11 12  1  6
 13 17  1  0
 13 14  2  0
 14 15  1  0
 16 15  1  0
 17 16  2  0
 18 19  2  0
 20 18  1  0
 20 21  1  0
 22 23  1  0
 22 21  1  0
 24 22  2  0
M  END
$$$$
