MFC.pdb
     RDKit          3D

 26 26  0  0  1  0  0  0  0  0999 V2000
    8.8599  -21.4253   20.6434 C   0  0  0  0  0  0  0  0  0  0  0  0
    8.6053  -20.4793   19.1672 S   0  0  0  0  0  0  0  0  0  0  0  0
    8.5182  -18.7178   19.3135 C   0  0  0  0  0  0  0  0  0  0  0  0
    9.0281  -18.2025   20.6183 C   0  0  0  0  0  0  0  0  0  0  0  0
    8.7178  -16.7678   20.8280 C   0  0  2  0  0  0  0  0  0  0  0  0
    9.4831  -15.9511   19.9405 N   0  0  0  0  0  0  0  0  0  0  0  0
    9.0219  -16.3365   22.2386 C   0  0  0  0  0  0  0  0  0  0  0  0
   10.1725  -15.9465   22.5031 O   0  0  0  0  0  0  0  0  0  0  0  0
    7.9934  -16.3925   23.1971 N   0  0  0  0  0  0  0  0  0  0  0  0
    8.2346  -16.0032   24.6019 C   0  0  1  0  0  0  0  0  0  0  0  0
    6.9527  -15.4314   25.1661 C   0  0  0  0  0  0  0  0  0  0  0  0
    7.0561  -14.0943   25.7503 C   0  0  0  0  0  0  0  0  0  0  0  0
    8.0226  -13.7263   26.6679 C   0  0  0  0  0  0  0  0  0  0  0  0
    8.1239  -12.4474   27.1864 C   0  0  0  0  0  0  0  0  0  0  0  0
    7.2219  -11.4997   26.7697 C   0  0  0  0  0  0  0  0  0  0  0  0
    6.2459  -11.8049   25.8657 C   0  0  0  0  0  0  0  0  0  0  0  0
    6.1681  -13.0797   25.3679 C   0  0  0  0  0  0  0  0  0  0  0  0
    8.6322  -17.2161   25.3467 C   0  0  0  0  0  0  0  0  0  0  0  0
    8.3438  -18.3417   24.8630 O   0  0  0  0  0  0  0  0  0  0  0  0
    9.3274  -17.1833   26.5799 N   0  0  0  0  0  0  0  0  0  0  0  0
   10.4399  -18.0261   26.9331 C   0  0  1  0  0  0  0  0  0  0  0  0
   11.4829  -17.9986   25.8653 C   0  0  0  0  0  0  0  0  0  0  0  0
   12.8768  -19.1091   26.2605 S   0  0  0  0  0  0  0  0  0  0  0  0
   10.9981  -17.6945   28.2878 C   0  0  0  0  0  0  0  0  0  0  0  0
   11.3528  -18.7197   29.1324 O   0  0  0  0  0  0  0  0  0  0  0  0
   11.1385  -16.4916   28.6388 O   0  0  0  0  0  0  0  0  0  0  0  0
  2  1  1  0
  3  2  1  0
  3  4  1  0
  4  5  1  0
  5  7  1  0
  5  6  1  6
  7  8  2  0
  9  7  1  0
  9 10  1  0
 10 11  1  1
 11 12  1  0
 12 17  2  0
 13 12  1  0
 13 14  2  0
 14 15  1  0
 15 16  2  0
 17 16  1  0
 18 20  1  0
 18 10  1  0
 19 18  2  0
 21 22  1  6
 21 20  1  0
 23 22  1  0
 24 21  1  0
 24 25  1  0
 26 24  2  0
M  END
$$$$
