MFC.pdb
     RDKit          3D

 26 26  0  0  1  0  0  0  0  0999 V2000
    8.1681  -11.6245   19.6224 C   0  0  0  0  0  0  0  0  0  0  0  0
    6.8678  -12.8214   19.4982 S   0  0  0  0  0  0  0  0  0  0  0  0
    7.0874  -14.3752   20.3164 C   0  0  0  0  0  0  0  0  0  0  0  0
    8.4866  -14.6119   20.7795 C   0  0  0  0  0  0  0  0  0  0  0  0
    8.6258  -15.8617   21.5655 C   0  0  2  0  0  0  0  0  0  0  0  0
    7.3460  -16.4426   21.8203 N   0  0  0  0  0  0  0  0  0  0  0  0
    9.2965  -15.6101   22.8902 C   0  0  0  0  0  0  0  0  0  0  0  0
   10.4064  -15.0498   22.8946 O   0  0  0  0  0  0  0  0  0  0  0  0
    8.6407  -16.0186   24.0662 N   0  0  0  0  0  0  0  0  0  0  0  0
    9.2411  -15.7886   25.3965 C   0  0  1  0  0  0  0  0  0  0  0  0
    8.1396  -15.3965   26.3564 C   0  0  0  0  0  0  0  0  0  0  0  0
    7.5974  -14.0487   26.1855 C   0  0  0  0  0  0  0  0  0  0  0  0
    6.3088  -13.7840   25.7600 C   0  0  0  0  0  0  0  0  0  0  0  0
    5.8032  -12.5022   25.6341 C   0  0  0  0  0  0  0  0  0  0  0  0
    6.6200  -11.4437   25.9465 C   0  0  0  0  0  0  0  0  0  0  0  0
    7.9014  -11.6437   26.3718 C   0  0  0  0  0  0  0  0  0  0  0  0
    8.3772  -12.9240   26.4877 C   0  0  0  0  0  0  0  0  0  0  0  0
    9.8806  -17.0486   25.8294 C   0  0  0  0  0  0  0  0  0  0  0  0
    9.1860  -17.8942   26.4512 O   0  0  0  0  0  0  0  0  0  0  0  0
   11.2386  -17.3622   25.5788 N   0  0  0  0  0  0  0  0  0  0  0  0
   11.7837  -18.6911   25.4813 C   0  0  1  0  0  0  0  0  0  0  0  0
   11.0215  -19.5027   24.4867 C   0  0  0  0  0  0  0  0  0  0  0  0
    9.7069  -20.4837   25.2878 S   0  0  0  0  0  0  0  0  0  0  0  0
   13.2599  -18.6823   25.2028 C   0  0  0  0  0  0  0  0  0  0  0  0
   13.8768  -17.4885   24.9121 O   0  0  0  0  0  0  0  0  0  0  0  0
   13.9183  -19.7570   25.2382 O   0  0  0  0  0  0  0  0  0  0  0  0
  2  1  1  0
  3  2  1  0
  3  4  1  0
  4  5  1  0
  5  7  1  0
  5  6  1  1
  7  8  2  0
  9  7  1  0
  9 10  1  0
 10 11  1  1
 11 12  1  0
 12 17  2  0
 13 12  1  0
 13 14  2  0
 14 15  1  0
 15 16  2  0
 17 16  1  0
 18 20  1  0
 18 10  1  0
 19 18  2  0
 21 22  1  6
 21 20  1  0
 23 22  1  0
 24 21  1  0
 24 25  1  0
 26 24  2  0
M  END
$$$$
