MFC.pdb
     RDKit          3D

 26 26  0  0  1  0  0  0  0  0999 V2000
    9.9051  -21.6435   20.1423 C   0  0  0  0  0  0  0  0  0  0  0  0
   10.4605  -20.6528   18.7826 S   0  0  0  0  0  0  0  0  0  0  0  0
    9.8761  -18.9857   18.6755 C   0  0  0  0  0  0  0  0  0  0  0  0
    9.2159  -18.5046   19.9249 C   0  0  0  0  0  0  0  0  0  0  0  0
    8.6624  -17.1356   19.7892 C   0  0  2  0  0  0  0  0  0  0  0  0
    9.1422  -16.5133   18.5964 N   0  0  0  0  0  0  0  0  0  0  0  0
    9.0468  -16.2655   20.9569 C   0  0  0  0  0  0  0  0  0  0  0  0
   10.2298  -15.8959   21.0553 O   0  0  0  0  0  0  0  0  0  0  0  0
    8.0531  -15.9073   21.8864 N   0  0  0  0  0  0  0  0  0  0  0  0
    8.3754  -15.0895   23.0741 C   0  0  1  0  0  0  0  0  0  0  0  0
    7.1447  -14.2975   23.4570 C   0  0  0  0  0  0  0  0  0  0  0  0
    7.2541  -13.5056   24.6821 C   0  0  0  0  0  0  0  0  0  0  0  0
    8.0064  -12.3505   24.7891 C   0  0  0  0  0  0  0  0  0  0  0  0
    8.0730  -11.5971   25.9478 C   0  0  0  0  0  0  0  0  0  0  0  0
    7.3582  -12.0168   27.0424 C   0  0  0  0  0  0  0  0  0  0  0  0
    6.5979  -13.1494   26.9958 C   0  0  0  0  0  0  0  0  0  0  0  0
    6.5497  -13.8772   25.8353 C   0  0  0  0  0  0  0  0  0  0  0  0
    8.7605  -16.0077   24.1661 C   0  0  0  0  0  0  0  0  0  0  0  0
    8.0511  -17.0261   24.3752 O   0  0  0  0  0  0  0  0  0  0  0  0
    9.8922  -15.8074   24.9932 N   0  0  0  0  0  0  0  0  0  0  0  0
   10.3371  -16.7021   26.0296 C   0  0  1  0  0  0  0  0  0  0  0  0
   11.7471  -17.1295   25.7887 C   0  0  0  0  0  0  0  0  0  0  0  0
   12.3087  -18.3286   27.0454 S   0  0  0  0  0  0  0  0  0  0  0  0
   10.1398  -16.1262   27.4029 C   0  0  0  0  0  0  0  0  0  0  0  0
   10.2713  -16.9488   28.4965 O   0  0  0  0  0  0  0  0  0  0  0  0
    9.8594  -14.9050   27.5442 O   0  0  0  0  0  0  0  0  0  0  0  0
  2  1  1  0
  3  2  1  0
  3  4  1  0
  4  5  1  0
  5  7  1  0
  5  6  1  6
  7  8  2  0
  9  7  1  0
  9 10  1  0
 10 11  1  1
 11 12  1  0
 12 17  2  0
 13 12  1  0
 13 14  2  0
 14 15  1  0
 15 16  2  0
 17 16  1  0
 18 20  1  0
 18 10  1  0
 19 18  2  0
 21 22  1  6
 21 20  1  0
 23 22  1  0
 24 21  1  0
 24 25  1  0
 26 24  2  0
M  END
$$$$
