MFC.pdb
     RDKit          3D

 26 26  0  0  1  0  0  0  0  0999 V2000
    7.3527  -13.0961   19.2264 C   0  0  0  0  0  0  0  0  0  0  0  0
    7.1889  -14.2614   17.9020 S   0  0  0  0  0  0  0  0  0  0  0  0
    7.7905  -15.9054   18.1621 C   0  0  0  0  0  0  0  0  0  0  0  0
    8.1182  -16.2010   19.5881 C   0  0  0  0  0  0  0  0  0  0  0  0
    9.3577  -15.5257   20.0425 C   0  0  2  0  0  0  0  0  0  0  0  0
   10.5122  -16.2541   19.6220 N   0  0  0  0  0  0  0  0  0  0  0  0
    9.4031  -15.4042   21.5429 C   0  0  0  0  0  0  0  0  0  0  0  0
   10.3007  -16.0054   22.1584 O   0  0  0  0  0  0  0  0  0  0  0  0
    8.4298  -14.6168   22.1852 N   0  0  0  0  0  0  0  0  0  0  0  0
    8.4749  -14.3833   23.6435 C   0  0  1  0  0  0  0  0  0  0  0  0
    7.3833  -13.3999   24.0037 C   0  0  0  0  0  0  0  0  0  0  0  0
    7.2829  -13.0526   25.4212 C   0  0  0  0  0  0  0  0  0  0  0  0
    6.1776  -13.3258   26.2057 C   0  0  0  0  0  0  0  0  0  0  0  0
    6.1130  -13.0178   27.5531 C   0  0  0  0  0  0  0  0  0  0  0  0
    7.1977  -12.4125   28.1381 C   0  0  0  0  0  0  0  0  0  0  0  0
    8.3165  -12.1185   27.4137 C   0  0  0  0  0  0  0  0  0  0  0  0
    8.3541  -12.4344   26.0804 C   0  0  0  0  0  0  0  0  0  0  0  0
    8.2476  -15.6786   24.3175 C   0  0  0  0  0  0  0  0  0  0  0  0
    7.3144  -16.4162   23.9062 O   0  0  0  0  0  0  0  0  0  0  0  0
    9.0282  -16.1418   25.4044 N   0  0  0  0  0  0  0  0  0  0  0  0
    8.9425  -17.4521   25.9946 C   0  0  1  0  0  0  0  0  0  0  0  0
    9.3914  -18.4970   25.0274 C   0  0  0  0  0  0  0  0  0  0  0  0
    9.5153  -20.1364   25.8207 S   0  0  0  0  0  0  0  0  0  0  0  0
    9.6704  -17.5349   27.3061 C   0  0  0  0  0  0  0  0  0  0  0  0
   10.3155  -16.4183   27.7827 O   0  0  0  0  0  0  0  0  0  0  0  0
    9.6846  -18.6150   27.9564 O   0  0  0  0  0  0  0  0  0  0  0  0
  2  1  1  0
  3  2  1  0
  3  4  1  0
  4  5  1  0
  5  7  1  0
  5  6  1  1
  7  8  2  0
  9  7  1  0
  9 10  1  0
 10 11  1  1
 11 12  1  0
 12 17  2  0
 13 12  1  0
 13 14  2  0
 14 15  1  0
 15 16  2  0
 17 16  1  0
 18 20  1  0
 18 10  1  0
 19 18  2  0
 21 22  1  6
 21 20  1  0
 23 22  1  0
 24 21  1  0
 24 25  1  0
 26 24  2  0
M  END
$$$$
