MFC.pdb
     RDKit          3D

 26 26  0  0  1  0  0  0  0  0999 V2000
    8.3779  -11.6080   20.2224 C   0  0  0  0  0  0  0  0  0  0  0  0
    7.5200  -12.9446   19.4374 S   0  0  0  0  0  0  0  0  0  0  0  0
    8.3090  -14.5282   19.3955 C   0  0  0  0  0  0  0  0  0  0  0  0
    9.1548  -14.8041   20.5940 C   0  0  0  0  0  0  0  0  0  0  0  0
    8.7645  -16.0508   21.2955 C   0  0  2  0  0  0  0  0  0  0  0  0
    7.3657  -16.2978   21.1448 N   0  0  0  0  0  0  0  0  0  0  0  0
    9.0692  -15.9753   22.7684 C   0  0  0  0  0  0  0  0  0  0  0  0
   10.1450  -15.4638   23.1246 O   0  0  0  0  0  0  0  0  0  0  0  0
    8.1258  -16.4857   23.6791 N   0  0  0  0  0  0  0  0  0  0  0  0
    8.3966  -16.5046   25.1314 C   0  0  1  0  0  0  0  0  0  0  0  0
    7.1903  -15.9412   25.8497 C   0  0  0  0  0  0  0  0  0  0  0  0
    7.1692  -14.4877   26.0132 C   0  0  0  0  0  0  0  0  0  0  0  0
    8.1759  -13.7661   26.6278 C   0  0  0  0  0  0  0  0  0  0  0  0
    8.1533  -12.3877   26.7456 C   0  0  0  0  0  0  0  0  0  0  0  0
    7.0806  -11.7048   26.2277 C   0  0  0  0  0  0  0  0  0  0  0  0
    6.0571  -12.3636   25.6100 C   0  0  0  0  0  0  0  0  0  0  0  0
    6.1047  -13.7297   25.5070 C   0  0  0  0  0  0  0  0  0  0  0  0
    8.6283  -17.9082   25.5314 C   0  0  0  0  0  0  0  0  0  0  0  0
    8.0627  -18.8224   24.8768 O   0  0  0  0  0  0  0  0  0  0  0  0
    9.4594  -18.2855   26.6140 N   0  0  0  0  0  0  0  0  0  0  0  0
   10.6845  -19.0335   26.5041 C   0  0  1  0  0  0  0  0  0  0  0  0
   11.5821  -18.4284   25.4760 C   0  0  0  0  0  0  0  0  0  0  0  0
   13.1681  -19.3247   25.3590 S   0  0  0  0  0  0  0  0  0  0  0  0
   11.3677  -19.2059   27.8309 C   0  0  0  0  0  0  0  0  0  0  0  0
   11.6814  -20.4738   28.2599 O   0  0  0  0  0  0  0  0  0  0  0  0
   11.6482  -18.1985   28.5354 O   0  0  0  0  0  0  0  0  0  0  0  0
  2  1  1  0
  3  2  1  0
  3  4  1  0
  4  5  1  0
  5  7  1  0
  5  6  1  1
  7  8  2  0
  9  7  1  0
  9 10  1  0
 10 11  1  1
 11 12  1  0
 12 17  2  0
 13 12  1  0
 13 14  2  0
 14 15  1  0
 15 16  2  0
 17 16  1  0
 18 20  1  0
 18 10  1  0
 19 18  2  0
 21 22  1  6
 21 20  1  0
 23 22  1  0
 24 21  1  0
 24 25  1  0
 26 24  2  0
M  END
$$$$
