MFC.pdb
     RDKit          3D

 26 26  0  0  1  0  0  0  0  0999 V2000
    8.0263  -11.8565   18.9295 C   0  0  0  0  0  0  0  0  0  0  0  0
    7.2931  -13.3702   18.3729 S   0  0  0  0  0  0  0  0  0  0  0  0
    7.6703  -14.8529   19.2624 C   0  0  0  0  0  0  0  0  0  0  0  0
    9.1254  -15.0213   19.5497 C   0  0  0  0  0  0  0  0  0  0  0  0
    9.4057  -16.1882   20.4207 C   0  0  2  0  0  0  0  0  0  0  0  0
    8.3263  -17.1226   20.3753 N   0  0  0  0  0  0  0  0  0  0  0  0
    9.6040  -15.7730   21.8547 C   0  0  0  0  0  0  0  0  0  0  0  0
   10.7160  -15.3333   22.1951 O   0  0  0  0  0  0  0  0  0  0  0  0
    8.5247  -15.8996   22.7485 N   0  0  0  0  0  0  0  0  0  0  0  0
    8.6273  -15.4256   24.1442 C   0  0  1  0  0  0  0  0  0  0  0  0
    7.3199  -14.7648   24.5216 C   0  0  0  0  0  0  0  0  0  0  0  0
    7.2860  -14.1287   25.8385 C   0  0  0  0  0  0  0  0  0  0  0  0
    7.0825  -14.8150   27.0214 C   0  0  0  0  0  0  0  0  0  0  0  0
    7.0848  -14.2005   28.2612 C   0  0  0  0  0  0  0  0  0  0  0  0
    7.2992  -12.8456   28.3187 C   0  0  0  0  0  0  0  0  0  0  0  0
    7.5059  -12.1157   27.1840 C   0  0  0  0  0  0  0  0  0  0  0  0
    7.4985  -12.7496   25.9686 C   0  0  0  0  0  0  0  0  0  0  0  0
    8.8809  -16.6001   25.0045 C   0  0  0  0  0  0  0  0  0  0  0  0
    8.5351  -17.7369   24.5894 O   0  0  0  0  0  0  0  0  0  0  0  0
    9.4988  -16.5188   26.2760 N   0  0  0  0  0  0  0  0  0  0  0  0
   10.4462  -17.4648   26.8052 C   0  0  1  0  0  0  0  0  0  0  0  0
   11.5558  -17.7001   25.8344 C   0  0  0  0  0  0  0  0  0  0  0  0
   12.3837  -19.2987   26.1366 S   0  0  0  0  0  0  0  0  0  0  0  0
   10.9487  -17.0683   28.1642 C   0  0  0  0  0  0  0  0  0  0  0  0
   11.3446  -18.0498   29.0417 O   0  0  0  0  0  0  0  0  0  0  0  0
   11.0057  -15.8513   28.4890 O   0  0  0  0  0  0  0  0  0  0  0  0
  2  1  1  0
  3  2  1  0
  3  4  1  0
  4  5  1  0
  5  7  1  0
  5  6  1  1
  7  8  2  0
  9  7  1  0
  9 10  1  0
 10 11  1  1
 11 12  1  0
 12 17  2  0
 13 12  1  0
 13 14  2  0
 14 15  1  0
 15 16  2  0
 17 16  1  0
 18 20  1  0
 18 10  1  0
 19 18  2  0
 21 22  1  6
 21 20  1  0
 23 22  1  0
 24 21  1  0
 24 25  1  0
 26 24  2  0
M  END
$$$$
