MFC.pdb
     RDKit          3D

 26 26  0  0  1  0  0  0  0  0999 V2000
    8.8685  -12.3620   18.0539 C   0  0  0  0  0  0  0  0  0  0  0  0
    7.5958  -13.4725   18.5887 S   0  0  0  0  0  0  0  0  0  0  0  0
    7.9911  -14.6399   19.8587 C   0  0  0  0  0  0  0  0  0  0  0  0
    9.3190  -15.2958   19.6725 C   0  0  0  0  0  0  0  0  0  0  0  0
    9.6351  -16.2646   20.7497 C   0  0  2  0  0  0  0  0  0  0  0  0
    8.6017  -17.2437   20.8670 N   0  0  0  0  0  0  0  0  0  0  0  0
    9.7834  -15.5802   22.0830 C   0  0  0  0  0  0  0  0  0  0  0  0
   10.6884  -14.7385   22.2187 O   0  0  0  0  0  0  0  0  0  0  0  0
    8.8934  -15.9208   23.1183 N   0  0  0  0  0  0  0  0  0  0  0  0
    8.8104  -15.1131   24.3527 C   0  0  1  0  0  0  0  0  0  0  0  0
    7.3532  -14.9693   24.7325 C   0  0  0  0  0  0  0  0  0  0  0  0
    7.0113  -13.7715   25.4995 C   0  0  0  0  0  0  0  0  0  0  0  0
    5.7428  -13.4972   25.9765 C   0  0  0  0  0  0  0  0  0  0  0  0
    5.4449  -12.3738   26.7273 C   0  0  0  0  0  0  0  0  0  0  0  0
    6.4567  -11.4903   27.0117 C   0  0  0  0  0  0  0  0  0  0  0  0
    7.7287  -11.7086   26.5675 C   0  0  0  0  0  0  0  0  0  0  0  0
    7.9965  -12.8296   25.8255 C   0  0  0  0  0  0  0  0  0  0  0  0
    9.5535  -15.8266   25.4123 C   0  0  0  0  0  0  0  0  0  0  0  0
    9.6093  -17.0832   25.3673 O   0  0  0  0  0  0  0  0  0  0  0  0
   10.2139  -15.1719   26.4801 N   0  0  0  0  0  0  0  0  0  0  0  0
   10.8250  -15.8243   27.6086 C   0  0  1  0  0  0  0  0  0  0  0  0
   10.9225  -14.8904   28.7692 C   0  0  0  0  0  0  0  0  0  0  0  0
   11.4519  -15.7579   30.2857 S   0  0  0  0  0  0  0  0  0  0  0  0
   10.1358  -17.1107   27.9648 C   0  0  0  0  0  0  0  0  0  0  0  0
   10.8953  -18.2341   28.1912 O   0  0  0  0  0  0  0  0  0  0  0  0
    8.8788  -17.1529   28.0550 O   0  0  0  0  0  0  0  0  0  0  0  0
  2  1  1  0
  3  2  1  0
  3  4  1  0
  4  5  1  0
  5  7  1  0
  5  6  1  1
  7  8  2  0
  9  7  1  0
  9 10  1  0
 10 11  1  1
 11 12  1  0
 12 17  2  0
 13 12  1  0
 13 14  2  0
 14 15  1  0
 15 16  2  0
 17 16  1  0
 18 20  1  0
 18 10  1  0
 19 18  2  0
 21 22  1  1
 21 20  1  0
 23 22  1  0
 24 21  1  0
 24 25  1  0
 26 24  2  0
M  END
$$$$
