MFC.pdb
     RDKit          3D

 26 26  0  0  1  0  0  0  0  0999 V2000
    8.4877  -12.4273   18.9044 C   0  0  0  0  0  0  0  0  0  0  0  0
    7.4519  -13.8388   18.6332 S   0  0  0  0  0  0  0  0  0  0  0  0
    8.0241  -15.4122   19.2068 C   0  0  0  0  0  0  0  0  0  0  0  0
    9.4669  -15.4180   19.5893 C   0  0  0  0  0  0  0  0  0  0  0  0
    9.7618  -16.3586   20.6970 C   0  0  2  0  0  0  0  0  0  0  0  0
    8.7772  -17.3917   20.7573 N   0  0  0  0  0  0  0  0  0  0  0  0
    9.7831  -15.6556   22.0287 C   0  0  0  0  0  0  0  0  0  0  0  0
   10.6585  -14.7959   22.2300 O   0  0  0  0  0  0  0  0  0  0  0  0
    8.8134  -16.0000   22.9883 N   0  0  0  0  0  0  0  0  0  0  0  0
    8.7454  -15.3055   24.2907 C   0  0  1  0  0  0  0  0  0  0  0  0
    7.2897  -15.0924   24.6430 C   0  0  0  0  0  0  0  0  0  0  0  0
    7.0314  -14.1649   25.7443 C   0  0  0  0  0  0  0  0  0  0  0  0
    7.2131  -14.4815   27.0779 C   0  0  0  0  0  0  0  0  0  0  0  0
    6.9933  -13.5806   28.1049 C   0  0  0  0  0  0  0  0  0  0  0  0
    6.5752  -12.3128   27.7839 C   0  0  0  0  0  0  0  0  0  0  0  0
    6.3789  -11.9430   26.4848 C   0  0  0  0  0  0  0  0  0  0  0  0
    6.6039  -12.8553   25.4868 C   0  0  0  0  0  0  0  0  0  0  0  0
    9.4011  -16.1655   25.2980 C   0  0  0  0  0  0  0  0  0  0  0  0
    9.3926  -17.4119   25.1234 O   0  0  0  0  0  0  0  0  0  0  0  0
   10.0462  -15.6628   26.4539 N   0  0  0  0  0  0  0  0  0  0  0  0
   10.7993  -16.4477   27.3970 C   0  0  1  0  0  0  0  0  0  0  0  0
   11.5003  -15.5661   28.3769 C   0  0  0  0  0  0  0  0  0  0  0  0
   11.3055  -13.8017   27.9508 S   0  0  0  0  0  0  0  0  0  0  0  0
    9.9565  -17.4942   28.0688 C   0  0  0  0  0  0  0  0  0  0  0  0
   10.5521  -18.3669   28.9484 O   0  0  0  0  0  0  0  0  0  0  0  0
    8.7212  -17.5651   27.8265 O   0  0  0  0  0  0  0  0  0  0  0  0
  2  1  1  0
  3  2  1  0
  3  4  1  0
  4  5  1  0
  5  7  1  0
  5  6  1  1
  7  8  2  0
  9  7  1  0
  9 10  1  0
 10 11  1  1
 11 12  1  0
 12 17  2  0
 13 12  1  0
 13 14  2  0
 14 15  1  0
 15 16  2  0
 17 16  1  0
 18 20  1  0
 18 10  1  0
 19 18  2  0
 21 22  1  1
 21 20  1  0
 23 22  1  0
 24 21  1  0
 24 25  1  0
 26 24  2  0
M  END
$$$$
