MFC.pdb
     RDKit          3D

 26 26  0  0  1  0  0  0  0  0999 V2000
    9.2499  -11.9467   19.8547 C   0  0  0  0  0  0  0  0  0  0  0  0
    7.9261  -12.7724   19.0152 S   0  0  0  0  0  0  0  0  0  0  0  0
    7.7933  -14.5278   19.1969 C   0  0  0  0  0  0  0  0  0  0  0  0
    9.1046  -15.2361   19.1133 C   0  0  0  0  0  0  0  0  0  0  0  0
    9.2639  -16.2715   20.1628 C   0  0  2  0  0  0  0  0  0  0  0  0
    8.1005  -17.0968   20.2382 N   0  0  0  0  0  0  0  0  0  0  0  0
    9.4878  -15.6551   21.5185 C   0  0  0  0  0  0  0  0  0  0  0  0
   10.5684  -15.0798   21.7358 O   0  0  0  0  0  0  0  0  0  0  0  0
    8.4668  -15.7553   22.4815 N   0  0  0  0  0  0  0  0  0  0  0  0
    8.5653  -15.0519   23.7771 C   0  0  1  0  0  0  0  0  0  0  0  0
    7.2260  -14.4165   24.0787 C   0  0  0  0  0  0  0  0  0  0  0  0
    7.1522  -13.6483   25.3214 C   0  0  0  0  0  0  0  0  0  0  0  0
    7.8602  -12.4830   25.5508 C   0  0  0  0  0  0  0  0  0  0  0  0
    7.7538  -11.7526   26.7213 C   0  0  0  0  0  0  0  0  0  0  0  0
    6.9052  -12.2069   27.7004 C   0  0  0  0  0  0  0  0  0  0  0  0
    6.1807  -13.3510   27.5302 C   0  0  0  0  0  0  0  0  0  0  0  0
    6.3051  -14.0555   26.3609 C   0  0  0  0  0  0  0  0  0  0  0  0
    8.9086  -16.0509   24.8106 C   0  0  0  0  0  0  0  0  0  0  0  0
    8.2055  -17.0909   24.9003 O   0  0  0  0  0  0  0  0  0  0  0  0
    9.9936  -15.9051   25.7087 N   0  0  0  0  0  0  0  0  0  0  0  0
   10.3312  -16.8229   26.7653 C   0  0  1  0  0  0  0  0  0  0  0  0
   11.6464  -17.4763   26.4967 C   0  0  0  0  0  0  0  0  0  0  0  0
   12.2388  -17.1219   24.8068 S   0  0  0  0  0  0  0  0  0  0  0  0
   10.2790  -16.1761   28.1201 C   0  0  0  0  0  0  0  0  0  0  0  0
   10.5007  -16.9473   29.2365 O   0  0  0  0  0  0  0  0  0  0  0  0
   10.0365  -14.9433   28.2254 O   0  0  0  0  0  0  0  0  0  0  0  0
  2  1  1  0
  3  2  1  0
  3  4  1  0
  4  5  1  0
  5  7  1  0
  5  6  1  1
  7  8  2  0
  9  7  1  0
  9 10  1  0
 10 11  1  1
 11 12  1  0
 12 17  2  0
 13 12  1  0
 13 14  2  0
 14 15  1  0
 15 16  2  0
 17 16  1  0
 18 20  1  0
 18 10  1  0
 19 18  2  0
 21 22  1  6
 21 20  1  0
 23 22  1  0
 24 21  1  0
 24 25  1  0
 26 24  2  0
M  END
$$$$
