MFC.pdb
     RDKit          3D

 26 26  0  0  1  0  0  0  0  0999 V2000
    8.4392  -11.6348   19.3085 C   0  0  0  0  0  0  0  0  0  0  0  0
    7.1128  -12.8035   19.1925 S   0  0  0  0  0  0  0  0  0  0  0  0
    7.2628  -14.3225   20.0882 C   0  0  0  0  0  0  0  0  0  0  0  0
    8.6639  -14.6385   20.4945 C   0  0  0  0  0  0  0  0  0  0  0  0
    8.7810  -15.9524   21.1719 C   0  0  2  0  0  0  0  0  0  0  0  0
    7.5206  -16.6242   21.1914 N   0  0  0  0  0  0  0  0  0  0  0  0
    9.2516  -15.8012   22.5945 C   0  0  0  0  0  0  0  0  0  0  0  0
   10.3835  -15.3280   22.7962 O   0  0  0  0  0  0  0  0  0  0  0  0
    8.3926  -16.2008   23.6348 N   0  0  0  0  0  0  0  0  0  0  0  0
    8.7810  -16.0422   25.0515 C   0  0  1  0  0  0  0  0  0  0  0  0
    7.5596  -15.6192   25.8373 C   0  0  0  0  0  0  0  0  0  0  0  0
    7.4083  -14.1800   26.0513 C   0  0  0  0  0  0  0  0  0  0  0  0
    8.4554  -13.3325   26.3630 C   0  0  0  0  0  0  0  0  0  0  0  0
    8.2983  -11.9681   26.5312 C   0  0  0  0  0  0  0  0  0  0  0  0
    7.0435  -11.4312   26.3815 C   0  0  0  0  0  0  0  0  0  0  0  0
    5.9719  -12.2187   26.0740 C   0  0  0  0  0  0  0  0  0  0  0  0
    6.1555  -13.5675   25.9129 C   0  0  0  0  0  0  0  0  0  0  0  0
    9.2804  -17.3469   25.5336 C   0  0  0  0  0  0  0  0  0  0  0  0
    8.5323  -18.3538   25.4301 O   0  0  0  0  0  0  0  0  0  0  0  0
   10.5628  -17.5302   26.1053 N   0  0  0  0  0  0  0  0  0  0  0  0
   11.0690  -18.7675   26.6396 C   0  0  1  0  0  0  0  0  0  0  0  0
   12.5099  -18.9429   26.2907 C   0  0  0  0  0  0  0  0  0  0  0  0
   13.2278  -20.4027   27.1189 S   0  0  0  0  0  0  0  0  0  0  0  0
   10.8171  -18.8963   28.1150 C   0  0  0  0  0  0  0  0  0  0  0  0
   10.3375  -17.8096   28.8072 O   0  0  0  0  0  0  0  0  0  0  0  0
   11.0426  -19.9882   28.7039 O   0  0  0  0  0  0  0  0  0  0  0  0
  2  1  1  0
  3  2  1  0
  3  4  1  0
  4  5  1  0
  5  7  1  0
  5  6  1  1
  7  8  2  0
  9  7  1  0
  9 10  1  0
 10 11  1  1
 11 12  1  0
 12 17  2  0
 13 12  1  0
 13 14  2  0
 14 15  1  0
 15 16  2  0
 17 16  1  0
 18 20  1  0
 18 10  1  0
 19 18  2  0
 21 22  1  1
 21 20  1  0
 23 22  1  0
 24 21  1  0
 24 25  1  0
 26 24  2  0
M  END
$$$$
