MFC.pdb
     RDKit          3D

 26 26  0  0  1  0  0  0  0  0999 V2000
    8.2563  -11.4486   19.8465 C   0  0  0  0  0  0  0  0  0  0  0  0
    7.3664  -12.8697   19.2743 S   0  0  0  0  0  0  0  0  0  0  0  0
    7.5581  -14.3856   20.1672 C   0  0  0  0  0  0  0  0  0  0  0  0
    8.5371  -14.2954   21.2905 C   0  0  0  0  0  0  0  0  0  0  0  0
    8.7435  -15.5943   21.9756 C   0  0  2  0  0  0  0  0  0  0  0  0
    7.4907  -16.2117   22.2746 N   0  0  0  0  0  0  0  0  0  0  0  0
    9.5004  -15.4245   23.2665 C   0  0  0  0  0  0  0  0  0  0  0  0
   10.5810  -14.8101   23.2425 O   0  0  0  0  0  0  0  0  0  0  0  0
    8.9544  -15.9670   24.4444 N   0  0  0  0  0  0  0  0  0  0  0  0
    9.5719  -15.7119   25.7622 C   0  0  1  0  0  0  0  0  0  0  0  0
    8.4805  -15.3192   26.7333 C   0  0  0  0  0  0  0  0  0  0  0  0
    7.8313  -14.0341   26.4743 C   0  0  0  0  0  0  0  0  0  0  0  0
    6.5233  -13.9034   26.0456 C   0  0  0  0  0  0  0  0  0  0  0  0
    5.9162  -12.6779   25.8358 C   0  0  0  0  0  0  0  0  0  0  0  0
    6.6474  -11.5385   26.0641 C   0  0  0  0  0  0  0  0  0  0  0  0
    7.9430  -11.6055   26.4882 C   0  0  0  0  0  0  0  0  0  0  0  0
    8.5202  -12.8326   26.6882 C   0  0  0  0  0  0  0  0  0  0  0  0
   10.2325  -16.9584   26.2024 C   0  0  0  0  0  0  0  0  0  0  0  0
   10.6236  -17.0440   27.3956 O   0  0  0  0  0  0  0  0  0  0  0  0
   10.4479  -18.0708   25.3531 N   0  0  0  0  0  0  0  0  0  0  0  0
   11.1483  -19.2748   25.7168 C   0  0  1  0  0  0  0  0  0  0  0  0
   10.5001  -20.4696   25.0994 C   0  0  0  0  0  0  0  0  0  0  0  0
    8.7054  -20.5056   25.4316 S   0  0  0  0  0  0  0  0  0  0  0  0
   12.6162  -19.1956   25.4072 C   0  0  0  0  0  0  0  0  0  0  0  0
   13.1098  -18.0653   24.7999 O   0  0  0  0  0  0  0  0  0  0  0  0
   13.3796  -20.1542   25.7040 O   0  0  0  0  0  0  0  0  0  0  0  0
  2  1  1  0
  3  2  1  0
  3  4  1  0
  4  5  1  0
  5  7  1  0
  5  6  1  1
  7  8  2  0
  9  7  1  0
  9 10  1  0
 10 11  1  1
 11 12  1  0
 12 17  2  0
 13 12  1  0
 13 14  2  0
 14 15  1  0
 15 16  2  0
 17 16  1  0
 18 20  1  0
 18 10  1  0
 19 18  2  0
 21 22  1  6
 21 20  1  0
 23 22  1  0
 24 21  1  0
 24 25  1  0
 26 24  2  0
M  END
$$$$
