FME.pdb
     RDKit          3D

 29 29  0  0  1  0  0  0  0  0999 V2000
   28.7579  -19.1775  -15.7520 N   0  0  0  0  0  0  0  0  0  0  0  0
   27.7472  -18.8139  -14.7850 C   0  0  1  0  0  0  0  0  0  0  0  0
   26.5679  -18.1284  -15.4195 C   0  0  0  0  0  0  0  0  0  0  0  0
   26.9139  -16.7937  -15.9146 C   0  0  0  0  0  0  0  0  0  0  0  0
   27.0175  -15.7570  -15.0250 C   0  0  0  0  0  0  0  0  0  0  0  0
   27.3452  -14.4861  -15.4699 C   0  0  0  0  0  0  0  0  0  0  0  0
   27.5731  -14.2460  -16.8237 C   0  0  0  0  0  0  0  0  0  0  0  0
   27.4652  -15.2970  -17.7047 C   0  0  0  0  0  0  0  0  0  0  0  0
   27.1399  -16.5654  -17.2736 C   0  0  0  0  0  0  0  0  0  0  0  0
   27.2177  -20.0147  -14.0788 C   0  0  0  0  0  0  0  0  0  0  0  0
   27.5521  -21.1501  -14.5019 O   0  0  0  0  0  0  0  0  0  0  0  0
   25.0229  -21.7863   -8.4067 C   0  0  0  0  0  0  0  0  0  0  0  0
   25.2241  -20.0340   -8.7312 S   0  0  0  0  0  0  0  0  0  0  0  0
   26.1933  -19.7091  -10.2308 C   0  0  0  0  0  0  0  0  0  0  0  0
   26.5632  -21.0500  -10.8016 C   0  0  0  0  0  0  0  0  0  0  0  0
   26.0768  -21.1711  -12.2133 C   0  0  2  0  0  0  0  0  0  0  0  0
   26.3620  -19.9384  -12.9622 N   0  0  0  0  0  0  0  0  0  0  0  0
   24.6385  -21.4346  -12.3699 C   0  0  0  0  0  0  0  0  0  0  0  0
   24.0223  -22.3823  -11.7688 O   0  0  0  0  0  0  0  0  0  0  0  0
   23.8430  -20.6182  -13.2266 N   0  0  0  0  0  0  0  0  0  0  0  0
   22.5686  -21.1432  -13.7205 C   0  0  1  0  0  0  0  0  0  0  0  0
   21.4491  -20.2057  -13.3590 C   0  0  0  0  0  0  0  0  0  0  0  0
   21.2208  -20.1925  -11.8861 C   0  0  0  0  0  0  0  0  0  0  0  0
   20.0661  -19.2933  -11.5388 C   0  0  0  0  0  0  0  0  0  0  0  0
   19.1676  -19.7454  -10.7943 O   0  0  0  0  0  0  0  0  0  0  0  0
   22.6827  -21.4536  -15.1584 C   0  0  0  0  0  0  0  0  0  0  0  0
   23.6725  -21.2387  -15.8634 O   0  0  0  0  0  0  0  0  0  0  0  0
   19.9791  -18.0024  -12.0162 O   0  0  0  0  0  0  0  0  0  0  0  0
   21.5669  -22.0473  -15.7858 O   0  0  0  0  0  0  0  0  0  0  0  0
  2  1  1  6
  2  3  1  0
  3  4  1  0
  4  9  2  0
  5  4  1  0
  5  6  2  0
  6  7  1  0
  7  8  2  0
  9  8  1  0
 10 11  2  0
 10  2  1  0
 13 12  1  0
 14 15  1  0
 14 13  1  0
 16 15  1  1
 16 17  1  0
 17 10  1  0
 18 16  1  0
 18 20  1  0
 19 18  2  0
 21 20  1  0
 21 26  1  0
 21 22  1  6
 23 22  1  0
 24 23  1  0
 25 24  2  0
 26 27  2  0
 26 29  1  0
 28 24  1  0
M  END
$$$$
