FME.pdb
     RDKit          3D

 29 29  0  0  1  0  0  0  0  0999 V2000
   24.9776  -19.8754   -7.9811 N   0  0  0  0  0  0  0  0  0  0  0  0
   26.3245  -20.0009   -8.4895 C   0  0  1  0  0  0  0  0  0  0  0  0
   27.1621  -20.9413   -7.6664 C   0  0  0  0  0  0  0  0  0  0  0  0
   27.5563  -20.3443   -6.3879 C   0  0  0  0  0  0  0  0  0  0  0  0
   27.2758  -21.0109   -5.2244 C   0  0  0  0  0  0  0  0  0  0  0  0
   27.6405  -20.4665   -4.0032 C   0  0  0  0  0  0  0  0  0  0  0  0
   28.2953  -19.2377   -3.9423 C   0  0  0  0  0  0  0  0  0  0  0  0
   28.5699  -18.5804   -5.1192 C   0  0  0  0  0  0  0  0  0  0  0  0
   28.2120  -19.1123   -6.3396 C   0  0  0  0  0  0  0  0  0  0  0  0
   26.3294  -20.5288   -9.8833 C   0  0  0  0  0  0  0  0  0  0  0  0
   25.3860  -20.2024  -10.6469 O   0  0  0  0  0  0  0  0  0  0  0  0
   32.0361  -23.1847  -10.8126 C   0  0  0  0  0  0  0  0  0  0  0  0
   31.9631  -21.5454  -10.0890 S   0  0  0  0  0  0  0  0  0  0  0  0
   30.2880  -20.8473  -10.1106 C   0  0  0  0  0  0  0  0  0  0  0  0
   29.5942  -21.4335  -11.3087 C   0  0  0  0  0  0  0  0  0  0  0  0
   28.2162  -20.8626  -11.4478 C   0  0  2  0  0  0  0  0  0  0  0  0
   27.3387  -21.3741  -10.3848 N   0  0  0  0  0  0  0  0  0  0  0  0
   27.5381  -21.1412  -12.7227 C   0  0  0  0  0  0  0  0  0  0  0  0
   27.6129  -22.2634  -13.3344 O   0  0  0  0  0  0  0  0  0  0  0  0
   26.7421  -20.1395  -13.3521 N   0  0  0  0  0  0  0  0  0  0  0  0
   25.6817  -20.5540  -14.2725 C   0  0  1  0  0  0  0  0  0  0  0  0
   24.7846  -21.5614  -13.6067 C   0  0  0  0  0  0  0  0  0  0  0  0
   23.6539  -21.9402  -14.5010 C   0  0  0  0  0  0  0  0  0  0  0  0
   22.7622  -22.9469  -13.8274 C   0  0  0  0  0  0  0  0  0  0  0  0
   21.8885  -22.5271  -13.0361 O   0  0  0  0  0  0  0  0  0  0  0  0
   24.9938  -19.3631  -14.8069 C   0  0  0  0  0  0  0  0  0  0  0  0
   24.5679  -19.2356  -15.9581 O   0  0  0  0  0  0  0  0  0  0  0  0
   22.8862  -24.3006  -14.0602 O   0  0  0  0  0  0  0  0  0  0  0  0
   24.8043  -18.2738  -13.9301 O   0  0  0  0  0  0  0  0  0  0  0  0
  2  1  1  1
  2  3  1  0
  3  4  1  0
  4  9  2  0
  5  4  1  0
  5  6  2  0
  6  7  1  0
  7  8  2  0
  9  8  1  0
 10 11  2  0
 10  2  1  0
 13 12  1  0
 14 15  1  0
 14 13  1  0
 16 15  1  6
 16 17  1  0
 17 10  1  0
 18 16  1  0
 18 20  1  0
 19 18  2  0
 21 20  1  0
 21 26  1  0
 21 22  1  1
 23 22  1  0
 24 23  1  0
 25 24  2  0
 26 27  2  0
 26 29  1  0
 28 24  1  0
M  END
$$$$
