FME.pdb
     RDKit          3D

 29 29  0  0  1  0  0  0  0  0999 V2000
   18.2386   -3.7863  -19.1866 N   0  0  0  0  0  0  0  0  0  0  0  0
   19.0774   -3.8199  -18.0102 C   0  0  1  0  0  0  0  0  0  0  0  0
   18.5563   -2.9362  -16.9097 C   0  0  0  0  0  0  0  0  0  0  0  0
   18.6894   -1.5154  -17.2415 C   0  0  0  0  0  0  0  0  0  0  0  0
   17.6245   -0.8561  -17.7962 C   0  0  0  0  0  0  0  0  0  0  0  0
   17.7265    0.4884  -18.1168 C   0  0  0  0  0  0  0  0  0  0  0  0
   18.9098    1.1855  -17.8801 C   0  0  0  0  0  0  0  0  0  0  0  0
   19.9704    0.5097  -17.3227 C   0  0  0  0  0  0  0  0  0  0  0  0
   19.8804   -0.8275  -16.9997 C   0  0  0  0  0  0  0  0  0  0  0  0
   19.1671   -5.1976  -17.4491 C   0  0  0  0  0  0  0  0  0  0  0  0
   18.2881   -6.0333  -17.7790 O   0  0  0  0  0  0  0  0  0  0  0  0
   23.5628  -11.1590  -14.9856 C   0  0  0  0  0  0  0  0  0  0  0  0
   23.3576   -9.4687  -15.5485 S   0  0  0  0  0  0  0  0  0  0  0  0
   21.6227   -8.9360  -15.5390 C   0  0  0  0  0  0  0  0  0  0  0  0
   21.6040   -7.5255  -16.0594 C   0  0  0  0  0  0  0  0  0  0  0  0
   20.2002   -7.0053  -16.1134 C   0  0  2  0  0  0  0  0  0  0  0  0
   20.1878   -5.6074  -16.5686 N   0  0  0  0  0  0  0  0  0  0  0  0
   19.4598   -7.0402  -14.8432 C   0  0  0  0  0  0  0  0  0  0  0  0
   19.7441   -6.3015  -13.8370 O   0  0  0  0  0  0  0  0  0  0  0  0
   18.3570   -7.9281  -14.6735 N   0  0  0  0  0  0  0  0  0  0  0  0
   17.6113   -7.8967  -13.4139 C   0  0  1  0  0  0  0  0  0  0  0  0
   16.1676   -8.2404  -13.6598 C   0  0  0  0  0  0  0  0  0  0  0  0
   15.9623   -9.7167  -13.6454 C   0  0  0  0  0  0  0  0  0  0  0  0
   14.5262  -10.0530  -13.9407 C   0  0  0  0  0  0  0  0  0  0  0  0
   13.7135   -9.1108  -14.0733 O   0  0  0  0  0  0  0  0  0  0  0  0
   18.2916   -8.7400  -12.4124 C   0  0  0  0  0  0  0  0  0  0  0  0
   19.2112   -9.5298  -12.6437 O   0  0  0  0  0  0  0  0  0  0  0  0
   14.0945  -11.3568  -14.0660 O   0  0  0  0  0  0  0  0  0  0  0  0
   17.8570   -8.6382  -11.0738 O   0  0  0  0  0  0  0  0  0  0  0  0
  2  1  1  6
  2  3  1  0
  3  4  1  0
  4  9  2  0
  5  4  1  0
  5  6  2  0
  6  7  1  0
  7  8  2  0
  9  8  1  0
 10 11  2  0
 10  2  1  0
 13 12  1  0
 14 15  1  0
 14 13  1  0
 16 15  1  1
 16 17  1  0
 17 10  1  0
 18 16  1  0
 18 20  1  0
 19 18  2  0
 21 20  1  0
 21 26  1  0
 21 22  1  6
 23 22  1  0
 24 23  1  0
 25 24  2  0
 26 27  2  0
 26 29  1  0
 28 24  1  0
M  END
$$$$
