FME.pdb
     RDKit          3D

 29 29  0  0  1  0  0  0  0  0999 V2000
   27.9418  -20.2334  -16.2085 N   0  0  0  0  0  0  0  0  0  0  0  0
   27.4387  -19.4380  -15.1117 C   0  0  1  0  0  0  0  0  0  0  0  0
   26.5818  -18.2936  -15.5800 C   0  0  0  0  0  0  0  0  0  0  0  0
   27.3822  -17.1117  -15.9098 C   0  0  0  0  0  0  0  0  0  0  0  0
   27.9200  -16.9976  -17.1646 C   0  0  0  0  0  0  0  0  0  0  0  0
   28.6793  -15.8878  -17.4999 C   0  0  0  0  0  0  0  0  0  0  0  0
   28.9054  -14.8761  -16.5684 C   0  0  0  0  0  0  0  0  0  0  0  0
   28.3589  -15.0051  -15.3126 C   0  0  0  0  0  0  0  0  0  0  0  0
   27.6020  -16.1044  -14.9678 C   0  0  0  0  0  0  0  0  0  0  0  0
   26.5986  -20.2557  -14.1916 C   0  0  0  0  0  0  0  0  0  0  0  0
   26.0346  -21.2801  -14.6524 O   0  0  0  0  0  0  0  0  0  0  0  0
   26.8093  -20.6659   -7.7877 C   0  0  0  0  0  0  0  0  0  0  0  0
   25.0651  -21.0013   -8.0360 S   0  0  0  0  0  0  0  0  0  0  0  0
   24.6470  -21.2637   -9.7824 C   0  0  0  0  0  0  0  0  0  0  0  0
   25.7327  -20.6049  -10.5873 C   0  0  0  0  0  0  0  0  0  0  0  0
   25.4530  -20.7385  -12.0530 C   0  0  2  0  0  0  0  0  0  0  0  0
   26.4067  -19.9362  -12.8329 N   0  0  0  0  0  0  0  0  0  0  0  0
   24.1080  -20.3286  -12.4837 C   0  0  0  0  0  0  0  0  0  0  0  0
   23.7917  -19.1202  -12.7647 O   0  0  0  0  0  0  0  0  0  0  0  0
   23.0646  -21.2921  -12.6108 N   0  0  0  0  0  0  0  0  0  0  0  0
   21.7313  -20.8414  -13.0143 C   0  0  1  0  0  0  0  0  0  0  0  0
   21.5209  -21.0995  -14.4813 C   0  0  0  0  0  0  0  0  0  0  0  0
   21.5610  -22.5601  -14.7757 C   0  0  0  0  0  0  0  0  0  0  0  0
   20.4345  -22.9445  -15.6955 C   0  0  0  0  0  0  0  0  0  0  0  0
   19.6430  -22.0494  -16.0672 O   0  0  0  0  0  0  0  0  0  0  0  0
   20.7154  -21.4356  -12.1244 C   0  0  0  0  0  0  0  0  0  0  0  0
   20.9204  -22.3233  -11.2920 O   0  0  0  0  0  0  0  0  0  0  0  0
   20.2594  -24.2416  -16.1300 O   0  0  0  0  0  0  0  0  0  0  0  0
   19.3946  -20.9504  -12.2304 O   0  0  0  0  0  0  0  0  0  0  0  0
  2  1  1  6
  2  3  1  0
  3  4  1  0
  4  9  2  0
  5  4  1  0
  5  6  2  0
  6  7  1  0
  7  8  2  0
  9  8  1  0
 10 11  2  0
 10  2  1  0
 13 12  1  0
 14 15  1  0
 14 13  1  0
 16 15  1  1
 16 17  1  0
 17 10  1  0
 18 16  1  0
 18 20  1  0
 19 18  2  0
 21 20  1  0
 21 26  1  0
 21 22  1  6
 23 22  1  0
 24 23  1  0
 25 24  2  0
 26 27  2  0
 26 29  1  0
 28 24  1  0
M  END
$$$$
