FME.pdb
     RDKit          3D

 29 29  0  0  1  0  0  0  0  0999 V2000
   23.5837  -22.4873    8.9392 N   0  0  0  0  0  0  0  0  0  0  0  0
   24.2716  -22.5676   10.2076 C   0  0  1  0  0  0  0  0  0  0  0  0
   23.6029  -23.5185   11.1626 C   0  0  0  0  0  0  0  0  0  0  0  0
   22.2807  -23.0396   11.5733 C   0  0  0  0  0  0  0  0  0  0  0  0
   21.1728  -23.7786   11.2523 C   0  0  0  0  0  0  0  0  0  0  0  0
   19.9119  -23.3464   11.6316 C   0  0  0  0  0  0  0  0  0  0  0  0
   19.7543  -22.1580   12.3425 C   0  0  0  0  0  0  0  0  0  0  0  0
   20.8762  -21.4270   12.6574 C   0  0  0  0  0  0  0  0  0  0  0  0
   22.1353  -21.8471   12.2854 C   0  0  0  0  0  0  0  0  0  0  0  0
   25.6721  -23.0468   10.0339 C   0  0  0  0  0  0  0  0  0  0  0  0
   25.8945  -23.9372    9.1751 O   0  0  0  0  0  0  0  0  0  0  0  0
   30.8295  -19.5723   10.6623 C   0  0  0  0  0  0  0  0  0  0  0  0
   30.1501  -19.9049    9.0363 S   0  0  0  0  0  0  0  0  0  0  0  0
   28.9526  -21.2684    9.0462 C   0  0  0  0  0  0  0  0  0  0  0  0
   29.0834  -21.9448   10.3826 C   0  0  0  0  0  0  0  0  0  0  0  0
   28.1016  -23.0703   10.4988 C   0  0  2  0  0  0  0  0  0  0  0  0
   26.7562  -22.5507   10.7845 N   0  0  0  0  0  0  0  0  0  0  0  0
   28.3968  -24.0669   11.5392 C   0  0  0  0  0  0  0  0  0  0  0  0
   27.4966  -24.6454   12.2419 O   0  0  0  0  0  0  0  0  0  0  0  0
   29.7436  -24.4433   11.8183 N   0  0  0  0  0  0  0  0  0  0  0  0
   30.0223  -25.8211   12.2275 C   0  0  1  0  0  0  0  0  0  0  0  0
   29.4102  -26.7846   11.2478 C   0  0  0  0  0  0  0  0  0  0  0  0
   29.6889  -28.1945   11.6433 C   0  0  0  0  0  0  0  0  0  0  0  0
   29.1277  -29.1492   10.6254 C   0  0  0  0  0  0  0  0  0  0  0  0
   29.7817  -29.3478    9.5772 O   0  0  0  0  0  0  0  0  0  0  0  0
   31.4714  -25.9908   12.4470 C   0  0  0  0  0  0  0  0  0  0  0  0
   32.3622  -25.6359   11.6702 O   0  0  0  0  0  0  0  0  0  0  0  0
   27.9271  -29.7992   10.8208 O   0  0  0  0  0  0  0  0  0  0  0  0
   31.8788  -26.6118   13.6468 O   0  0  0  0  0  0  0  0  0  0  0  0
  2  1  1  6
  2  3  1  0
  3  4  1  0
  4  9  2  0
  5  4  1  0
  5  6  2  0
  6  7  1  0
  7  8  2  0
  9  8  1  0
 10 11  2  0
 10  2  1  0
 13 12  1  0
 14 15  1  0
 14 13  1  0
 16 15  1  1
 16 17  1  0
 17 10  1  0
 18 16  1  0
 18 20  1  0
 19 18  2  0
 21 20  1  0
 21 26  1  0
 21 22  1  6
 23 22  1  0
 24 23  1  0
 25 24  2  0
 26 27  2  0
 26 29  1  0
 28 24  1  0
M  END
$$$$
