FME.pdb
     RDKit          3D

 29 29  0  0  1  0  0  0  0  0999 V2000
   20.6054  -13.2083  -16.1356 N   0  0  0  0  0  0  0  0  0  0  0  0
   21.0993  -12.3010  -17.1464 C   0  0  1  0  0  0  0  0  0  0  0  0
   20.0122  -11.8300  -18.0737 C   0  0  0  0  0  0  0  0  0  0  0  0
   19.5040  -12.9164  -18.9150 C   0  0  0  0  0  0  0  0  0  0  0  0
   20.2413  -13.3269  -19.9942 C   0  0  0  0  0  0  0  0  0  0  0  0
   19.7815  -14.3537  -20.8034 C   0  0  0  0  0  0  0  0  0  0  0  0
   18.5668  -14.9805  -20.5314 C   0  0  0  0  0  0  0  0  0  0  0  0
   17.8377  -14.5571  -19.4444 C   0  0  0  0  0  0  0  0  0  0  0  0
   18.2852  -13.5368  -18.6325 C   0  0  0  0  0  0  0  0  0  0  0  0
   21.6988  -11.0824  -16.5328 C   0  0  0  0  0  0  0  0  0  0  0  0
   21.1714  -10.6198  -15.4899 O   0  0  0  0  0  0  0  0  0  0  0  0
   27.6133  -11.7688  -14.0553 C   0  0  0  0  0  0  0  0  0  0  0  0
   27.0069  -10.5251  -15.1962 S   0  0  0  0  0  0  0  0  0  0  0  0
   25.1946  -10.4791  -15.2792 C   0  0  0  0  0  0  0  0  0  0  0  0
   24.8359   -9.3478  -16.2023 C   0  0  0  0  0  0  0  0  0  0  0  0
   23.3491   -9.2481  -16.3562 C   0  0  2  0  0  0  0  0  0  0  0  0
   22.8261  -10.4255  -17.0645 N   0  0  0  0  0  0  0  0  0  0  0  0
   22.8630   -8.0680  -17.0866 C   0  0  0  0  0  0  0  0  0  0  0  0
   22.7619   -8.0162  -18.3618 O   0  0  0  0  0  0  0  0  0  0  0  0
   22.4708   -6.8922  -16.3815 N   0  0  0  0  0  0  0  0  0  0  0  0
   21.9913   -5.7377  -17.1436 C   0  0  1  0  0  0  0  0  0  0  0  0
   20.8805   -5.0512  -16.3967 C   0  0  0  0  0  0  0  0  0  0  0  0
   20.3378   -3.9075  -17.1835 C   0  0  0  0  0  0  0  0  0  0  0  0
   19.1638   -3.2891  -16.4751 C   0  0  0  0  0  0  0  0  0  0  0  0
   19.3871   -2.5792  -15.4691 O   0  0  0  0  0  0  0  0  0  0  0  0
   23.1304   -4.8712  -17.5024 C   0  0  0  0  0  0  0  0  0  0  0  0
   24.1060   -4.6334  -16.7852 O   0  0  0  0  0  0  0  0  0  0  0  0
   17.8681   -3.4854  -16.9047 O   0  0  0  0  0  0  0  0  0  0  0  0
   23.1066   -4.2597  -18.7739 O   0  0  0  0  0  0  0  0  0  0  0  0
  2  1  1  1
  2  3  1  0
  3  4  1  0
  4  9  2  0
  5  4  1  0
  5  6  2  0
  6  7  1  0
  7  8  2  0
  9  8  1  0
 10 11  2  0
 10  2  1  0
 13 12  1  0
 14 15  1  0
 14 13  1  0
 16 15  1  6
 16 17  1  0
 17 10  1  0
 18 16  1  0
 18 20  1  0
 19 18  2  0
 21 20  1  0
 21 26  1  0
 21 22  1  1
 23 22  1  0
 24 23  1  0
 25 24  2  0
 26 27  2  0
 26 29  1  0
 28 24  1  0
M  END
$$$$
