FME.pdb
     RDKit          3D

 29 29  0  0  1  0  0  0  0  0999 V2000
   18.4524  -23.4915  -11.2189 N   0  0  0  0  0  0  0  0  0  0  0  0
   19.0112  -23.5233   -9.8865 C   0  0  1  0  0  0  0  0  0  0  0  0
   19.1119  -22.1525   -9.2748 C   0  0  0  0  0  0  0  0  0  0  0  0
   19.6763  -21.1772  -10.2110 C   0  0  0  0  0  0  0  0  0  0  0  0
   18.8633  -20.2086  -10.7379 C   0  0  0  0  0  0  0  0  0  0  0  0
   19.3752  -19.2742  -11.6242 C   0  0  0  0  0  0  0  0  0  0  0  0
   20.7195  -19.3071  -11.9904 C   0  0  0  0  0  0  0  0  0  0  0  0
   21.5232  -20.2857  -11.4531 C   0  0  0  0  0  0  0  0  0  0  0  0
   21.0250  -21.2203  -10.5705 C   0  0  0  0  0  0  0  0  0  0  0  0
   18.1722  -24.3435   -8.9677 C   0  0  0  0  0  0  0  0  0  0  0  0
   16.9239  -24.3081   -9.1101 O   0  0  0  0  0  0  0  0  0  0  0  0
   18.8921  -30.1284   -8.5582 C   0  0  0  0  0  0  0  0  0  0  0  0
   17.5371  -30.0824   -7.3843 S   0  0  0  0  0  0  0  0  0  0  0  0
   17.1522  -28.3982   -6.8288 C   0  0  0  0  0  0  0  0  0  0  0  0
   18.1076  -27.4822   -7.5421 C   0  0  0  0  0  0  0  0  0  0  0  0
   17.8040  -26.0517   -7.2167 C   0  0  2  0  0  0  0  0  0  0  0  0
   18.7101  -25.1550   -7.9493 N   0  0  0  0  0  0  0  0  0  0  0  0
   17.9092  -25.6865   -5.7961 C   0  0  0  0  0  0  0  0  0  0  0  0
   19.0102  -25.3663   -5.2266 O   0  0  0  0  0  0  0  0  0  0  0  0
   16.7503  -25.6733   -4.9653 N   0  0  0  0  0  0  0  0  0  0  0  0
   16.9024  -25.3537   -3.5447 C   0  0  1  0  0  0  0  0  0  0  0  0
   15.6290  -24.7574   -3.0103 C   0  0  0  0  0  0  0  0  0  0  0  0
   15.3600  -23.4306   -3.6340 C   0  0  0  0  0  0  0  0  0  0  0  0
   14.0513  -22.8729   -3.1454 C   0  0  0  0  0  0  0  0  0  0  0  0
   13.3816  -23.5563   -2.3390 O   0  0  0  0  0  0  0  0  0  0  0  0
   17.3882  -26.5419   -2.8172 C   0  0  0  0  0  0  0  0  0  0  0  0
   17.1749  -27.7153   -3.1342 O   0  0  0  0  0  0  0  0  0  0  0  0
   13.5824  -21.6444   -3.5613 O   0  0  0  0  0  0  0  0  0  0  0  0
   18.1639  -26.3228   -1.6590 O   0  0  0  0  0  0  0  0  0  0  0  0
  2  1  1  6
  2  3  1  0
  3  4  1  0
  4  9  2  0
  5  4  1  0
  5  6  2  0
  6  7  1  0
  7  8  2  0
  9  8  1  0
 10 11  2  0
 10  2  1  0
 13 12  1  0
 14 15  1  0
 14 13  1  0
 16 15  1  1
 16 17  1  0
 17 10  1  0
 18 16  1  0
 18 20  1  0
 19 18  2  0
 21 20  1  0
 21 26  1  0
 21 22  1  1
 23 22  1  0
 24 23  1  0
 25 24  2  0
 26 27  2  0
 26 29  1  0
 28 24  1  0
M  END
$$$$
