FME.pdb
     RDKit          3D

 29 29  0  0  1  0  0  0  0  0999 V2000
   28.0662  -21.4738  -15.5126 N   0  0  0  0  0  0  0  0  0  0  0  0
   27.3367  -20.4509  -14.7984 C   0  0  1  0  0  0  0  0  0  0  0  0
   26.2973  -19.7834  -15.6571 C   0  0  0  0  0  0  0  0  0  0  0  0
   26.9020  -18.9134  -16.6689 C   0  0  0  0  0  0  0  0  0  0  0  0
   26.9383  -19.3304  -17.9733 C   0  0  0  0  0  0  0  0  0  0  0  0
   27.5038  -18.5238  -18.9481 C   0  0  0  0  0  0  0  0  0  0  0  0
   28.0414  -17.2816  -18.6159 C   0  0  0  0  0  0  0  0  0  0  0  0
   27.9976  -16.8769  -17.3019 C   0  0  0  0  0  0  0  0  0  0  0  0
   27.4376  -17.6707  -16.3238 C   0  0  0  0  0  0  0  0  0  0  0  0
   26.6213  -21.0193  -13.6210 C   0  0  0  0  0  0  0  0  0  0  0  0
   26.3074  -22.2361  -13.6454 O   0  0  0  0  0  0  0  0  0  0  0  0
   27.9156  -20.3004   -7.3156 C   0  0  0  0  0  0  0  0  0  0  0  0
   26.1237  -20.2856   -7.3881 S   0  0  0  0  0  0  0  0  0  0  0  0
   25.4800  -21.0709   -8.8923 C   0  0  0  0  0  0  0  0  0  0  0  0
   26.1354  -20.3759  -10.0534 C   0  0  0  0  0  0  0  0  0  0  0  0
   25.6445  -20.9444  -11.3496 C   0  0  2  0  0  0  0  0  0  0  0  0
   26.2808  -20.2596  -12.4844 N   0  0  0  0  0  0  0  0  0  0  0  0
   24.1928  -20.8635  -11.5702 C   0  0  0  0  0  0  0  0  0  0  0  0
   23.3252  -21.3391  -10.7578 O   0  0  0  0  0  0  0  0  0  0  0  0
   23.6732  -20.2307  -12.7377 N   0  0  0  0  0  0  0  0  0  0  0  0
   22.2224  -20.0989  -12.8841 C   0  0  1  0  0  0  0  0  0  0  0  0
   21.8977  -19.3223  -14.1308 C   0  0  0  0  0  0  0  0  0  0  0  0
   21.7849  -20.2292  -15.3083 C   0  0  0  0  0  0  0  0  0  0  0  0
   21.2759  -19.4770  -16.5073 C   0  0  0  0  0  0  0  0  0  0  0  0
   21.1561  -20.0973  -17.5875 O   0  0  0  0  0  0  0  0  0  0  0  0
   21.5911  -21.4296  -12.7958 C   0  0  0  0  0  0  0  0  0  0  0  0
   20.4371  -21.6537  -12.4207 O   0  0  0  0  0  0  0  0  0  0  0  0
   20.9443  -18.1400  -16.4414 O   0  0  0  0  0  0  0  0  0  0  0  0
   22.3699  -22.5447  -13.1715 O   0  0  0  0  0  0  0  0  0  0  0  0
  2  1  1  6
  2  3  1  0
  3  4  1  0
  4  9  2  0
  5  4  1  0
  5  6  2  0
  6  7  1  0
  7  8  2  0
  9  8  1  0
 10 11  2  0
 10  2  1  0
 13 12  1  0
 14 15  1  0
 14 13  1  0
 16 15  1  1
 16 17  1  0
 17 10  1  0
 18 16  1  0
 18 20  1  0
 19 18  2  0
 21 20  1  0
 21 26  1  0
 21 22  1  6
 23 22  1  0
 24 23  1  0
 25 24  2  0
 26 27  2  0
 26 29  1  0
 28 24  1  0
M  END
$$$$
