FME.pdb
     RDKit          3D

 29 29  0  0  1  0  0  0  0  0999 V2000
   15.0295  -10.9590  -12.6293 N   0  0  0  0  0  0  0  0  0  0  0  0
   16.0132   -9.9825  -12.2202 C   0  0  1  0  0  0  0  0  0  0  0  0
   16.7388   -9.3757  -13.3902 C   0  0  0  0  0  0  0  0  0  0  0  0
   17.4564  -10.3864  -14.1711 C   0  0  0  0  0  0  0  0  0  0  0  0
   17.0264  -10.6815  -15.4380 C   0  0  0  0  0  0  0  0  0  0  0  0
   17.6904  -11.6328  -16.1961 C   0  0  0  0  0  0  0  0  0  0  0  0
   18.8007  -12.3000  -15.6820 C   0  0  0  0  0  0  0  0  0  0  0  0
   19.2203  -11.9929  -14.4084 C   0  0  0  0  0  0  0  0  0  0  0  0
   18.5677  -11.0485  -13.6451 C   0  0  0  0  0  0  0  0  0  0  0  0
   15.3808   -8.8570  -11.4759 C   0  0  0  0  0  0  0  0  0  0  0  0
   14.2077   -8.5253  -11.7819 O   0  0  0  0  0  0  0  0  0  0  0  0
   12.7176   -8.4128   -6.1487 C   0  0  0  0  0  0  0  0  0  0  0  0
   13.7722   -6.9665   -6.0374 S   0  0  0  0  0  0  0  0  0  0  0  0
   14.2568   -6.3295   -7.6662 C   0  0  0  0  0  0  0  0  0  0  0  0
   15.0056   -7.4367   -8.3546 C   0  0  0  0  0  0  0  0  0  0  0  0
   15.3053   -7.0632   -9.7741 C   0  0  2  0  0  0  0  0  0  0  0  0
   16.0334   -8.1484  -10.4478 N   0  0  0  0  0  0  0  0  0  0  0  0
   16.1068   -5.8436   -9.9552 C   0  0  0  0  0  0  0  0  0  0  0  0
   17.3869   -5.8286   -9.9418 O   0  0  0  0  0  0  0  0  0  0  0  0
   15.4704   -4.5841  -10.1603 N   0  0  0  0  0  0  0  0  0  0  0  0
   16.2922   -3.4269  -10.5194 C   0  0  1  0  0  0  0  0  0  0  0  0
   17.1570   -3.7557  -11.7055 C   0  0  0  0  0  0  0  0  0  0  0  0
   16.5490   -3.2425  -12.9659 C   0  0  0  0  0  0  0  0  0  0  0  0
   17.3055   -3.7510  -14.1624 C   0  0  0  0  0  0  0  0  0  0  0  0
   18.5549   -3.7845  -14.1015 O   0  0  0  0  0  0  0  0  0  0  0  0
   15.4327   -2.2389  -10.6842 C   0  0  0  0  0  0  0  0  0  0  0  0
   14.1991   -2.2346  -10.6516 O   0  0  0  0  0  0  0  0  0  0  0  0
   16.6608   -4.1738  -15.3058 O   0  0  0  0  0  0  0  0  0  0  0  0
   16.0716   -0.9989  -10.8974 O   0  0  0  0  0  0  0  0  0  0  0  0
  2  1  1  6
  2  3  1  0
  3  4  1  0
  4  9  2  0
  5  4  1  0
  5  6  2  0
  6  7  1  0
  7  8  2  0
  9  8  1  0
 10 11  2  0
 10  2  1  0
 13 12  1  0
 14 15  1  0
 14 13  1  0
 16 15  1  1
 16 17  1  0
 17 10  1  0
 18 16  1  0
 18 20  1  0
 19 18  2  0
 21 20  1  0
 21 26  1  0
 21 22  1  6
 23 22  1  0
 24 23  1  0
 25 24  2  0
 26 27  2  0
 26 29  1  0
 28 24  1  0
M  END
$$$$
