FME.pdb
     RDKit          3D

 29 29  0  0  1  0  0  0  0  0999 V2000
   24.6767  -12.1041  -18.3183 N   0  0  0  0  0  0  0  0  0  0  0  0
   24.1538  -11.6359  -17.0550 C   0  0  1  0  0  0  0  0  0  0  0  0
   25.1710  -10.8548  -16.2683 C   0  0  0  0  0  0  0  0  0  0  0  0
   26.4000  -11.6222  -16.0518 C   0  0  0  0  0  0  0  0  0  0  0  0
   26.3494  -12.7675  -15.3018 C   0  0  0  0  0  0  0  0  0  0  0  0
   27.4989  -13.5107  -15.0850 C   0  0  0  0  0  0  0  0  0  0  0  0
   28.7178  -13.1045  -15.6249 C   0  0  0  0  0  0  0  0  0  0  0  0
   28.7526  -11.9522  -16.3755 C   0  0  0  0  0  0  0  0  0  0  0  0
   27.6157  -11.2050  -16.5980 C   0  0  0  0  0  0  0  0  0  0  0  0
   22.9820  -10.7369  -17.2545 C   0  0  0  0  0  0  0  0  0  0  0  0
   22.8867  -10.1157  -18.3430 O   0  0  0  0  0  0  0  0  0  0  0  0
   17.7715  -14.0851  -17.6376 C   0  0  0  0  0  0  0  0  0  0  0  0
   17.8966  -12.4618  -16.8855 S   0  0  0  0  0  0  0  0  0  0  0  0
   19.4518  -11.6211  -17.2954 C   0  0  0  0  0  0  0  0  0  0  0  0
   19.5455  -10.4258  -16.3881 C   0  0  0  0  0  0  0  0  0  0  0  0
   20.8317   -9.6929  -16.6178 C   0  0  2  0  0  0  0  0  0  0  0  0
   21.9782  -10.5506  -16.2837 N   0  0  0  0  0  0  0  0  0  0  0  0
   21.0003   -8.4489  -15.8519 C   0  0  0  0  0  0  0  0  0  0  0  0
   21.8909   -8.2897  -14.9461 O   0  0  0  0  0  0  0  0  0  0  0  0
   20.1503   -7.3299  -16.0943 N   0  0  0  0  0  0  0  0  0  0  0  0
   20.4191   -6.0729  -15.3934 C   0  0  1  0  0  0  0  0  0  0  0  0
   21.8400   -5.6415  -15.6332 C   0  0  0  0  0  0  0  0  0  0  0  0
   22.0713   -4.2618  -15.1185 C   0  0  0  0  0  0  0  0  0  0  0  0
   22.2471   -4.2782  -13.6247 C   0  0  0  0  0  0  0  0  0  0  0  0
   22.6642   -5.3298  -13.0899 O   0  0  0  0  0  0  0  0  0  0  0  0
   19.3945   -5.0741  -15.7537 C   0  0  0  0  0  0  0  0  0  0  0  0
   18.8325   -4.3059  -14.9683 O   0  0  0  0  0  0  0  0  0  0  0  0
   21.9627   -3.1762  -12.8458 O   0  0  0  0  0  0  0  0  0  0  0  0
   19.0221   -4.9859  -17.1119 O   0  0  0  0  0  0  0  0  0  0  0  0
  2  1  1  6
  2  3  1  0
  3  4  1  0
  4  9  2  0
  5  4  1  0
  5  6  2  0
  6  7  1  0
  7  8  2  0
  9  8  1  0
 10 11  2  0
 10  2  1  0
 13 12  1  0
 14 15  1  0
 14 13  1  0
 16 15  1  1
 16 17  1  0
 17 10  1  0
 18 16  1  0
 18 20  1  0
 19 18  2  0
 21 20  1  0
 21 26  1  0
 21 22  1  6
 23 22  1  0
 24 23  1  0
 25 24  2  0
 26 27  2  0
 26 29  1  0
 28 24  1  0
M  END
$$$$
