FME.pdb
     RDKit          3D

 29 29  0  0  1  0  0  0  0  0999 V2000
   21.7272  -14.1617  -16.6487 N   0  0  0  0  0  0  0  0  0  0  0  0
   21.5686  -12.8703  -17.2780 C   0  0  1  0  0  0  0  0  0  0  0  0
   20.1252  -12.4609  -17.3895 C   0  0  0  0  0  0  0  0  0  0  0  0
   19.3510  -13.4055  -18.1987 C   0  0  0  0  0  0  0  0  0  0  0  0
   19.4373  -13.3427  -19.5645 C   0  0  0  0  0  0  0  0  0  0  0  0
   18.7154  -14.2268  -20.3505 C   0  0  0  0  0  0  0  0  0  0  0  0
   17.8947  -15.1886  -19.7643 C   0  0  0  0  0  0  0  0  0  0  0  0
   17.8184  -15.2392  -18.3917 C   0  0  0  0  0  0  0  0  0  0  0  0
   18.5319  -14.3649  -17.5998 C   0  0  0  0  0  0  0  0  0  0  0  0
   22.2597  -11.8021  -16.5018 C   0  0  0  0  0  0  0  0  0  0  0  0
   22.1767  -11.8286  -15.2480 O   0  0  0  0  0  0  0  0  0  0  0  0
   27.5572  -12.3217  -14.4150 C   0  0  0  0  0  0  0  0  0  0  0  0
   26.5329  -10.8893  -14.7543 S   0  0  0  0  0  0  0  0  0  0  0  0
   25.8205  -10.9206  -16.4231 C   0  0  0  0  0  0  0  0  0  0  0  0
   25.0914   -9.6180  -16.6030 C   0  0  0  0  0  0  0  0  0  0  0  0
   23.6468   -9.7710  -16.2372 C   0  0  2  0  0  0  0  0  0  0  0  0
   23.0000  -10.7662  -17.1050 N   0  0  0  0  0  0  0  0  0  0  0  0
   22.8358   -8.5474  -16.3240 C   0  0  0  0  0  0  0  0  0  0  0  0
   22.0961   -8.2574  -17.3279 O   0  0  0  0  0  0  0  0  0  0  0  0
   22.8392   -7.6007  -15.2576 N   0  0  0  0  0  0  0  0  0  0  0  0
   21.8957   -6.4820  -15.3023 C   0  0  1  0  0  0  0  0  0  0  0  0
   20.4838   -6.9989  -15.3492 C   0  0  0  0  0  0  0  0  0  0  0  0
   19.5042   -5.8837  -15.2131 C   0  0  0  0  0  0  0  0  0  0  0  0
   18.1143   -6.4231  -15.0136 C   0  0  0  0  0  0  0  0  0  0  0  0
   17.6462   -7.1886  -15.8858 O   0  0  0  0  0  0  0  0  0  0  0  0
   22.1813   -5.5467  -14.1975 C   0  0  0  0  0  0  0  0  0  0  0  0
   22.9529   -5.7586  -13.2581 O   0  0  0  0  0  0  0  0  0  0  0  0
   17.3582   -6.0966  -13.9074 O   0  0  0  0  0  0  0  0  0  0  0  0
   21.5175   -4.3015  -14.2120 O   0  0  0  0  0  0  0  0  0  0  0  0
  2  1  1  1
  2  3  1  0
  3  4  1  0
  4  9  2  0
  5  4  1  0
  5  6  2  0
  6  7  1  0
  7  8  2  0
  9  8  1  0
 10 11  2  0
 10  2  1  0
 13 12  1  0
 14 15  1  0
 14 13  1  0
 16 15  1  6
 16 17  1  0
 17 10  1  0
 18 16  1  0
 18 20  1  0
 19 18  2  0
 21 20  1  0
 21 26  1  0
 21 22  1  1
 23 22  1  0
 24 23  1  0
 25 24  2  0
 26 27  2  0
 26 29  1  0
 28 24  1  0
M  END
$$$$
