FME.pdb
     RDKit          3D

 29 29  0  0  1  0  0  0  0  0999 V2000
   21.8828   -7.5812  -10.4725 N   0  0  0  0  0  0  0  0  0  0  0  0
   21.1223   -6.7508  -11.3785 C   0  0  1  0  0  0  0  0  0  0  0  0
   20.6913   -7.4954  -12.6127 C   0  0  0  0  0  0  0  0  0  0  0  0
   21.8315   -7.8539  -13.4599 C   0  0  0  0  0  0  0  0  0  0  0  0
   22.3600   -6.9121  -14.3028 C   0  0  0  0  0  0  0  0  0  0  0  0
   23.4397   -7.2277  -15.1123 C   0  0  0  0  0  0  0  0  0  0  0  0
   24.0005   -8.5031  -15.0803 C   0  0  0  0  0  0  0  0  0  0  0  0
   23.4587   -9.4380  -14.2289 C   0  0  0  0  0  0  0  0  0  0  0  0
   22.3849   -9.1353  -13.4190 C   0  0  0  0  0  0  0  0  0  0  0  0
   19.8819   -6.2384  -10.7304 C   0  0  0  0  0  0  0  0  0  0  0  0
   19.4008   -6.8884   -9.7682 O   0  0  0  0  0  0  0  0  0  0  0  0
   16.5102   -0.2096   -7.4326 C   0  0  0  0  0  0  0  0  0  0  0  0
   17.7026   -0.9474   -8.5507 S   0  0  0  0  0  0  0  0  0  0  0  0
   17.2779   -2.6547   -8.9959 C   0  0  0  0  0  0  0  0  0  0  0  0
   18.4216   -3.1811   -9.8177 C   0  0  0  0  0  0  0  0  0  0  0  0
   18.1137   -4.5570  -10.3240 C   0  0  2  0  0  0  0  0  0  0  0  0
   19.2243   -5.0630  -11.1437 N   0  0  0  0  0  0  0  0  0  0  0  0
   16.8984   -4.6759  -11.1434 C   0  0  0  0  0  0  0  0  0  0  0  0
   16.8798   -4.5051  -12.4121 O   0  0  0  0  0  0  0  0  0  0  0  0
   15.6475   -4.9973  -10.5389 N   0  0  0  0  0  0  0  0  0  0  0  0
   14.4526   -5.0692  -11.3819 C   0  0  1  0  0  0  0  0  0  0  0  0
   14.6416   -6.1026  -12.4586 C   0  0  0  0  0  0  0  0  0  0  0  0
   14.7167   -7.4719  -11.8744 C   0  0  0  0  0  0  0  0  0  0  0  0
   14.7518   -8.5092  -12.9631 C   0  0  0  0  0  0  0  0  0  0  0  0
   14.6106   -8.1291  -14.1469 O   0  0  0  0  0  0  0  0  0  0  0  0
   13.2586   -5.2603  -10.5364 C   0  0  0  0  0  0  0  0  0  0  0  0
   12.0973   -5.3525  -10.9434 O   0  0  0  0  0  0  0  0  0  0  0  0
   14.9333   -9.8483  -12.6876 O   0  0  0  0  0  0  0  0  0  0  0  0
   13.4566   -5.3457   -9.1419 O   0  0  0  0  0  0  0  0  0  0  0  0
  2  1  1  1
  2  3  1  0
  3  4  1  0
  4  9  2  0
  5  4  1  0
  5  6  2  0
  6  7  1  0
  7  8  2  0
  9  8  1  0
 10 11  2  0
 10  2  1  0
 13 12  1  0
 14 15  1  0
 14 13  1  0
 16 15  1  6
 16 17  1  0
 17 10  1  0
 18 16  1  0
 18 20  1  0
 19 18  2  0
 21 20  1  0
 21 26  1  0
 21 22  1  6
 23 22  1  0
 24 23  1  0
 25 24  2  0
 26 27  2  0
 26 29  1  0
 28 24  1  0
M  END
$$$$
