FME.pdb
     RDKit          3D

 29 29  0  0  1  0  0  0  0  0999 V2000
   24.3297   -7.3461  -16.4231 N   0  0  0  0  0  0  0  0  0  0  0  0
   24.3821   -8.6803  -15.8700 C   0  0  1  0  0  0  0  0  0  0  0  0
   23.0130   -9.2695  -15.6652 C   0  0  0  0  0  0  0  0  0  0  0  0
   22.2347   -8.5127  -14.6815 C   0  0  0  0  0  0  0  0  0  0  0  0
   21.4745   -7.4536  -15.1025 C   0  0  0  0  0  0  0  0  0  0  0  0
   20.7287   -6.7240  -14.1903 C   0  0  0  0  0  0  0  0  0  0  0  0
   20.7417   -7.0565  -12.8370 C   0  0  0  0  0  0  0  0  0  0  0  0
   21.5099   -8.1225  -12.4296 C   0  0  0  0  0  0  0  0  0  0  0  0
   22.2558   -8.8554  -13.3279 C   0  0  0  0  0  0  0  0  0  0  0  0
   25.1201   -9.6105  -16.7706 C   0  0  0  0  0  0  0  0  0  0  0  0
   25.9841   -9.1284  -17.5458 O   0  0  0  0  0  0  0  0  0  0  0  0
   29.4335  -15.0794  -18.2223 C   0  0  0  0  0  0  0  0  0  0  0  0
   28.2612  -13.9973  -17.4033 S   0  0  0  0  0  0  0  0  0  0  0  0
   28.0815  -12.3993  -18.2444 C   0  0  0  0  0  0  0  0  0  0  0  0
   27.2009  -11.5506  -17.3698 C   0  0  0  0  0  0  0  0  0  0  0  0
   25.7564  -11.8341  -17.6479 C   0  0  2  0  0  0  0  0  0  0  0  0
   24.8962  -11.0012  -16.7947 N   0  0  0  0  0  0  0  0  0  0  0  0
   25.3307  -13.2266  -17.4420 C   0  0  0  0  0  0  0  0  0  0  0  0
   25.2604  -13.7831  -16.2912 O   0  0  0  0  0  0  0  0  0  0  0  0
   24.9659  -14.0428  -18.5529 N   0  0  0  0  0  0  0  0  0  0  0  0
   24.4820  -15.4019  -18.3030 C   0  0  1  0  0  0  0  0  0  0  0  0
   23.3438  -15.3722  -17.3199 C   0  0  0  0  0  0  0  0  0  0  0  0
   22.2154  -14.5470  -17.8373 C   0  0  0  0  0  0  0  0  0  0  0  0
   20.8996  -15.0830  -17.3433 C   0  0  0  0  0  0  0  0  0  0  0  0
   20.9149  -16.0605  -16.5623 O   0  0  0  0  0  0  0  0  0  0  0  0
   24.1813  -16.0660  -19.5858 C   0  0  0  0  0  0  0  0  0  0  0  0
   24.1388  -15.5133  -20.6883 O   0  0  0  0  0  0  0  0  0  0  0  0
   19.6968  -14.5281  -17.7274 O   0  0  0  0  0  0  0  0  0  0  0  0
   23.9190  -17.4521  -19.5543 O   0  0  0  0  0  0  0  0  0  0  0  0
  2  1  1  6
  2  3  1  0
  3  4  1  0
  4  9  2  0
  5  4  1  0
  5  6  2  0
  6  7  1  0
  7  8  2  0
  9  8  1  0
 10 11  2  0
 10  2  1  0
 13 12  1  0
 14 15  1  0
 14 13  1  0
 16 15  1  1
 16 17  1  0
 17 10  1  0
 18 16  1  0
 18 20  1  0
 19 18  2  0
 21 20  1  0
 21 26  1  0
 21 22  1  1
 23 22  1  0
 24 23  1  0
 25 24  2  0
 26 27  2  0
 26 29  1  0
 28 24  1  0
M  END
$$$$
