FME.pdb
     RDKit          3D

 29 29  0  0  1  0  0  0  0  0999 V2000
   21.3168  -13.8142  -19.3045 N   0  0  0  0  0  0  0  0  0  0  0  0
   21.2092  -12.3774  -19.4169 C   0  0  1  0  0  0  0  0  0  0  0  0
   19.7859  -11.9213  -19.5889 C   0  0  0  0  0  0  0  0  0  0  0  0
   19.2410  -12.3125  -20.8914 C   0  0  0  0  0  0  0  0  0  0  0  0
   18.4789  -13.4471  -20.9835 C   0  0  0  0  0  0  0  0  0  0  0  0
   17.9515  -13.8360  -22.2047 C   0  0  0  0  0  0  0  0  0  0  0  0
   18.1886  -13.0808  -23.3518 C   0  0  0  0  0  0  0  0  0  0  0  0
   18.9558  -11.9441  -23.2433 C   0  0  0  0  0  0  0  0  0  0  0  0
   19.4854  -11.5475  -22.0339 C   0  0  0  0  0  0  0  0  0  0  0  0
   21.7338  -11.6989  -18.1981 C   0  0  0  0  0  0  0  0  0  0  0  0
   21.7098  -12.3273  -17.1099 O   0  0  0  0  0  0  0  0  0  0  0  0
   27.0742  -11.5392  -14.6939 C   0  0  0  0  0  0  0  0  0  0  0  0
   26.6727  -10.0980  -15.6828 S   0  0  0  0  0  0  0  0  0  0  0  0
   24.9068   -9.6836  -15.6269 C   0  0  0  0  0  0  0  0  0  0  0  0
   24.3179  -10.1370  -16.9339 C   0  0  0  0  0  0  0  0  0  0  0  0
   22.8455   -9.8627  -16.9687 C   0  0  2  0  0  0  0  0  0  0  0  0
   22.2542  -10.3897  -18.2073 N   0  0  0  0  0  0  0  0  0  0  0  0
   22.4606   -8.4456  -16.8890 C   0  0  0  0  0  0  0  0  0  0  0  0
   22.6519   -7.6052  -17.8357 O   0  0  0  0  0  0  0  0  0  0  0  0
   21.8372   -7.9308  -15.7144 N   0  0  0  0  0  0  0  0  0  0  0  0
   21.4415   -6.5215  -15.6838 C   0  0  1  0  0  0  0  0  0  0  0  0
   19.9473   -6.4018  -15.8109 C   0  0  0  0  0  0  0  0  0  0  0  0
   19.5778   -5.2446  -16.6747 C   0  0  0  0  0  0  0  0  0  0  0  0
   18.3035   -5.5289  -17.4216 C   0  0  0  0  0  0  0  0  0  0  0  0
   18.3177   -6.4240  -18.2959 O   0  0  0  0  0  0  0  0  0  0  0  0
   22.0207   -5.8684  -14.4944 C   0  0  0  0  0  0  0  0  0  0  0  0
   22.0658   -4.6517  -14.2932 O   0  0  0  0  0  0  0  0  0  0  0  0
   17.1395   -4.8346  -17.1666 O   0  0  0  0  0  0  0  0  0  0  0  0
   22.5717   -6.7025  -13.4984 O   0  0  0  0  0  0  0  0  0  0  0  0
  2  1  1  1
  2  3  1  0
  3  4  1  0
  4  9  2  0
  5  4  1  0
  5  6  2  0
  6  7  1  0
  7  8  2  0
  9  8  1  0
 10 11  2  0
 10  2  1  0
 13 12  1  0
 14 15  1  0
 14 13  1  0
 16 15  1  6
 16 17  1  0
 17 10  1  0
 18 16  1  0
 18 20  1  0
 19 18  2  0
 21 20  1  0
 21 26  1  0
 21 22  1  1
 23 22  1  0
 24 23  1  0
 25 24  2  0
 26 27  2  0
 26 29  1  0
 28 24  1  0
M  END
$$$$
