YTF.pdb
     RDKit          3D

 31 32  0  0  1  0  0  0  0  0999 V2000
   22.0732  -12.0743  -19.8303 O   0  0  0  0  0  0  0  0  0  0  0  0
   22.2126  -13.2928  -19.1946 C   0  0  0  0  0  0  0  0  0  0  0  0
   23.3515  -13.6343  -18.4944 C   0  0  0  0  0  0  0  0  0  0  0  0
   23.5157  -14.8358  -17.8549 C   0  0  0  0  0  0  0  0  0  0  0  0
   22.4961  -15.7491  -17.9120 C   0  0  0  0  0  0  0  0  0  0  0  0
   22.6319  -17.0639  -17.2330 C   0  0  0  0  0  0  0  0  0  0  0  0
   23.6112  -17.8896  -18.0293 C   0  0  2  0  0  0  0  0  0  0  0  0
   22.9683  -18.3099  -19.2568 N   0  0  0  0  0  0  0  0  0  0  0  0
   23.9212  -19.1169  -17.2127 C   0  0  0  0  0  0  0  0  0  0  0  0
   23.1038  -20.0702  -17.1409 O   0  0  0  0  0  0  0  0  0  0  0  0
   21.3417  -15.4495  -18.5999 C   0  0  0  0  0  0  0  0  0  0  0  0
   21.1910  -14.2236  -19.2444 C   0  0  0  0  0  0  0  0  0  0  0  0
   26.2135  -21.5917  -17.8593 C   0  0  0  0  0  0  0  0  0  0  0  0
   26.6504  -21.1583  -16.4618 C   0  0  1  0  0  0  0  0  0  0  0  0
   27.7571  -20.3616  -16.5961 O   0  0  0  0  0  0  0  0  0  0  0  0
   25.4796  -20.4571  -15.7584 C   0  0  2  0  0  0  0  0  0  0  0  0
   25.1379  -19.2531  -16.4935 N   0  0  0  0  0  0  0  0  0  0  0  0
   25.9483  -20.1379  -14.3852 C   0  0  0  0  0  0  0  0  0  0  0  0
   26.4122  -18.9774  -14.1769 O   0  0  0  0  0  0  0  0  0  0  0  0
   25.9172  -21.0229  -13.2968 N   0  0  0  0  0  0  0  0  0  0  0  0
   26.4275  -20.6791  -11.9658 C   0  0  1  0  0  0  0  0  0  0  0  0
   25.6040  -19.4587  -11.5305 C   0  0  0  0  0  0  0  0  0  0  0  0
   24.1832  -19.8145  -11.3599 C   0  0  0  0  0  0  0  0  0  0  0  0
   23.3101  -19.8533  -12.4147 C   0  0  0  0  0  0  0  0  0  0  0  0
   21.9910  -20.1908  -12.2073 C   0  0  0  0  0  0  0  0  0  0  0  0
   21.4858  -20.5015  -10.9559 C   0  0  0  0  0  0  0  0  0  0  0  0
   22.3893  -20.4548   -9.9072 C   0  0  0  0  0  0  0  0  0  0  0  0
   23.7140  -20.1193  -10.0934 C   0  0  0  0  0  0  0  0  0  0  0  0
   26.2770  -21.7894  -11.0261 C   0  0  0  0  0  0  0  0  0  0  0  0
   25.7664  -22.8759  -11.3914 O   0  0  0  0  0  0  0  0  0  0  0  0
   26.6891  -21.6854   -9.7066 O   0  0  0  0  0  0  0  0  0  0  0  0
  2  1  1  0
  3  2  2  0
  4  3  1  0
  5  4  2  0
  5 11  1  0
  6  5  1  0
  7  6  1  0
  7  8  1  6
  9  7  1  0
  9 17  1  0
 10  9  2  0
 11 12  2  0
 12  2  1  0
 14 13  1  6
 14 16  1  0
 15 14  1  0
 16 17  1  6
 16 18  1  0
 18 20  1  0
 19 18  2  0
 20 21  1  0
 21 29  1  0
 21 22  1  1
 23 22  1  0
 24 23  2  0
 25 24  1  0
 26 25  2  0
 26 27  1  0
 27 28  2  0
 28 23  1  0
 29 30  2  0
 29 31  1  0
M  END
$$$$
