YTF.pdb
     RDKit          3D

 31 32  0  0  1  0  0  0  0  0999 V2000
   21.2732  -16.4799  -22.7709 O   0  0  0  0  0  0  0  0  0  0  0  0
   21.3782  -15.6175  -21.6969 C   0  0  0  0  0  0  0  0  0  0  0  0
   20.8969  -15.9369  -20.4437 C   0  0  0  0  0  0  0  0  0  0  0  0
   20.9881  -15.1002  -19.3615 C   0  0  0  0  0  0  0  0  0  0  0  0
   21.5889  -13.8805  -19.5296 C   0  0  0  0  0  0  0  0  0  0  0  0
   21.7090  -12.9425  -18.3833 C   0  0  0  0  0  0  0  0  0  0  0  0
   23.1091  -13.0673  -17.8365 C   0  0  2  0  0  0  0  0  0  0  0  0
   23.2701  -14.3945  -17.2806 N   0  0  0  0  0  0  0  0  0  0  0  0
   23.2376  -12.0665  -16.7180 C   0  0  0  0  0  0  0  0  0  0  0  0
   22.7561  -12.3019  -15.5801 O   0  0  0  0  0  0  0  0  0  0  0  0
   22.0832  -13.5211  -20.7634 C   0  0  0  0  0  0  0  0  0  0  0  0
   21.9823  -14.3833  -21.8530 C   0  0  0  0  0  0  0  0  0  0  0  0
   26.1465  -11.1519  -15.0556 C   0  0  0  0  0  0  0  0  0  0  0  0
   25.6282   -9.7942  -15.5246 C   0  0  1  0  0  0  0  0  0  0  0  0
   26.3575   -9.4232  -16.6236 O   0  0  0  0  0  0  0  0  0  0  0  0
   24.1214   -9.8941  -15.8017 C   0  0  2  0  0  0  0  0  0  0  0  0
   23.9013  -10.8237  -16.8946 N   0  0  0  0  0  0  0  0  0  0  0  0
   23.6707   -8.5240  -16.1579 C   0  0  0  0  0  0  0  0  0  0  0  0
   23.5002   -8.2614  -17.3856 O   0  0  0  0  0  0  0  0  0  0  0  0
   23.4175   -7.4943  -15.2389 N   0  0  0  0  0  0  0  0  0  0  0  0
   22.9952   -6.1475  -15.6362 C   0  0  1  0  0  0  0  0  0  0  0  0
   21.6717   -6.3542  -16.3863 C   0  0  0  0  0  0  0  0  0  0  0  0
   21.1093   -5.0650  -16.8291 C   0  0  0  0  0  0  0  0  0  0  0  0
   21.7631   -4.2510  -17.7160 C   0  0  0  0  0  0  0  0  0  0  0  0
   21.1990   -3.0550  -18.1008 C   0  0  0  0  0  0  0  0  0  0  0  0
   19.9732   -2.6186  -17.6266 C   0  0  0  0  0  0  0  0  0  0  0  0
   19.3336   -3.4602  -16.7315 C   0  0  0  0  0  0  0  0  0  0  0  0
   19.8810   -4.6617  -16.3334 C   0  0  0  0  0  0  0  0  0  0  0  0
   22.8230   -5.2716  -14.4779 C   0  0  0  0  0  0  0  0  0  0  0  0
   22.4506   -5.7337  -13.3723 O   0  0  0  0  0  0  0  0  0  0  0  0
   23.0626   -3.9084  -14.5559 O   0  0  0  0  0  0  0  0  0  0  0  0
  2  1  1  0
  3  2  2  0
  4  3  1  0
  5  4  2  0
  5 11  1  0
  6  5  1  0
  7  6  1  0
  7  8  1  1
  9  7  1  0
  9 17  1  0
 10  9  2  0
 11 12  2  0
 12  2  1  0
 14 13  1  6
 14 16  1  0
 15 14  1  0
 16 17  1  6
 16 18  1  0
 18 20  1  0
 19 18  2  0
 20 21  1  0
 21 29  1  0
 21 22  1  1
 23 22  1  0
 24 23  2  0
 25 24  1  0
 26 25  2  0
 26 27  1  0
 27 28  2  0
 28 23  1  0
 29 30  2  0
 29 31  1  0
M  END
$$$$
