YTF.pdb
     RDKit          3D

 31 32  0  0  1  0  0  0  0  0999 V2000
   13.1954  -11.1358  -21.2919 O   0  0  0  0  0  0  0  0  0  0  0  0
   14.3030  -10.7827  -20.5458 C   0  0  0  0  0  0  0  0  0  0  0  0
   14.7401  -11.5322  -19.4728 C   0  0  0  0  0  0  0  0  0  0  0  0
   15.8353  -11.2045  -18.7160 C   0  0  0  0  0  0  0  0  0  0  0  0
   16.5360  -10.0726  -19.0396 C   0  0  0  0  0  0  0  0  0  0  0  0
   17.7294   -9.6803  -18.2459 C   0  0  0  0  0  0  0  0  0  0  0  0
   18.9516  -10.0162  -19.0634 C   0  0  2  0  0  0  0  0  0  0  0  0
   19.2075  -11.4366  -18.9472 N   0  0  0  0  0  0  0  0  0  0  0  0
   20.1107   -9.2744  -18.4508 C   0  0  0  0  0  0  0  0  0  0  0  0
   20.9163   -9.8556  -17.6792 O   0  0  0  0  0  0  0  0  0  0  0  0
   16.1347   -9.2953  -20.1029 C   0  0  0  0  0  0  0  0  0  0  0  0
   15.0192   -9.6426  -20.8618 C   0  0  0  0  0  0  0  0  0  0  0  0
   22.5157   -6.8154  -20.3700 C   0  0  0  0  0  0  0  0  0  0  0  0
   21.9463   -6.1168  -19.1373 C   0  0  1  0  0  0  0  0  0  0  0  0
   20.9534   -5.2703  -19.5555 O   0  0  0  0  0  0  0  0  0  0  0  0
   21.4609   -7.1728  -18.1341 C   0  0  2  0  0  0  0  0  0  0  0  0
   20.3453   -7.8988  -18.7132 N   0  0  0  0  0  0  0  0  0  0  0  0
   21.0491   -6.4316  -16.9141 C   0  0  0  0  0  0  0  0  0  0  0  0
   19.8165   -6.1769  -16.7685 O   0  0  0  0  0  0  0  0  0  0  0  0
   21.9203   -5.9901  -15.9066 N   0  0  0  0  0  0  0  0  0  0  0  0
   21.4692   -5.2687  -14.7124 C   0  0  1  0  0  0  0  0  0  0  0  0
   20.5424   -6.2522  -13.9839 C   0  0  0  0  0  0  0  0  0  0  0  0
   21.3099   -7.3697  -13.4040 C   0  0  0  0  0  0  0  0  0  0  0  0
   21.5511   -7.4675  -12.0591 C   0  0  0  0  0  0  0  0  0  0  0  0
   22.2738   -8.5296  -11.5625 C   0  0  0  0  0  0  0  0  0  0  0  0
   22.7838   -9.5314  -12.3714 C   0  0  0  0  0  0  0  0  0  0  0  0
   22.5257   -9.4083  -13.7266 C   0  0  0  0  0  0  0  0  0  0  0  0
   21.8044   -8.3530  -14.2441 C   0  0  0  0  0  0  0  0  0  0  0  0
   22.5930   -4.8662  -13.8677 C   0  0  0  0  0  0  0  0  0  0  0  0
   22.3993   -4.2599  -12.7862 O   0  0  0  0  0  0  0  0  0  0  0  0
   23.9046   -5.1365  -14.2260 O   0  0  0  0  0  0  0  0  0  0  0  0
  2  1  1  0
  3  2  2  0
  4  3  1  0
  5  4  2  0
  5 11  1  0
  6  5  1  0
  7  6  1  0
  7  8  1  1
  9  7  1  0
  9 17  1  0
 10  9  2  0
 11 12  2  0
 12  2  1  0
 14 13  1  6
 14 16  1  0
 15 14  1  0
 16 17  1  6
 16 18  1  0
 18 20  1  0
 19 18  2  0
 20 21  1  0
 21 29  1  0
 21 22  1  1
 23 22  1  0
 24 23  2  0
 25 24  1  0
 26 25  2  0
 26 27  1  0
 27 28  2  0
 28 23  1  0
 29 30  2  0
 29 31  1  0
M  END
$$$$
