YTF.pdb
     RDKit          3D

 31 32  0  0  1  0  0  0  0  0999 V2000
   19.7944  -19.9748  -20.2104 O   0  0  0  0  0  0  0  0  0  0  0  0
   20.7234  -20.4455  -19.3029 C   0  0  0  0  0  0  0  0  0  0  0  0
   21.2573  -21.7154  -19.3841 C   0  0  0  0  0  0  0  0  0  0  0  0
   22.1800  -22.2071  -18.4974 C   0  0  0  0  0  0  0  0  0  0  0  0
   22.5968  -21.3970  -17.4742 C   0  0  0  0  0  0  0  0  0  0  0  0
   23.5956  -21.8898  -16.4905 C   0  0  0  0  0  0  0  0  0  0  0  0
   24.8806  -21.1371  -16.7290 C   0  0  2  0  0  0  0  0  0  0  0  0
   25.4989  -21.6511  -17.9333 N   0  0  0  0  0  0  0  0  0  0  0  0
   25.7899  -21.4351  -15.5656 C   0  0  0  0  0  0  0  0  0  0  0  0
   26.4084  -22.5279  -15.4905 O   0  0  0  0  0  0  0  0  0  0  0  0
   22.0898  -20.1224  -17.3555 C   0  0  0  0  0  0  0  0  0  0  0  0
   21.1525  -19.6380  -18.2654 C   0  0  0  0  0  0  0  0  0  0  0  0
   28.8056  -19.6169  -14.2433 C   0  0  0  0  0  0  0  0  0  0  0  0
   27.7850  -19.6540  -13.1080 C   0  0  1  0  0  0  0  0  0  0  0  0
   27.1765  -18.4276  -13.0503 O   0  0  0  0  0  0  0  0  0  0  0  0
   26.8018  -20.8087  -13.3467 C   0  0  2  0  0  0  0  0  0  0  0  0
   25.9890  -20.5059  -14.5106 N   0  0  0  0  0  0  0  0  0  0  0  0
   25.9716  -20.9107  -12.1188 C   0  0  0  0  0  0  0  0  0  0  0  0
   24.7525  -20.5760  -12.2035 O   0  0  0  0  0  0  0  0  0  0  0  0
   26.4323  -21.3503  -10.8685 N   0  0  0  0  0  0  0  0  0  0  0  0
   25.5790  -21.4274   -9.6785 C   0  0  1  0  0  0  0  0  0  0  0  0
   26.4956  -21.9637   -8.5698 C   0  0  0  0  0  0  0  0  0  0  0  0
   27.3674  -20.8970   -8.0440 C   0  0  0  0  0  0  0  0  0  0  0  0
   28.7033  -20.8353   -8.3409 C   0  0  0  0  0  0  0  0  0  0  0  0
   29.4790  -19.8203   -7.8263 C   0  0  0  0  0  0  0  0  0  0  0  0
   28.9676  -18.8317   -7.0022 C   0  0  0  0  0  0  0  0  0  0  0  0
   27.6147  -18.9175   -6.7178 C   0  0  0  0  0  0  0  0  0  0  0  0
   26.8205  -19.9255   -7.2229 C   0  0  0  0  0  0  0  0  0  0  0  0
   25.0217  -20.1217   -9.3277 C   0  0  0  0  0  0  0  0  0  0  0  0
   25.6211  -19.0632   -9.6360 O   0  0  0  0  0  0  0  0  0  0  0  0
   23.8200  -20.0038   -8.6468 O   0  0  0  0  0  0  0  0  0  0  0  0
  2  1  1  0
  3  2  2  0
  4  3  1  0
  5  4  2  0
  5 11  1  0
  6  5  1  0
  7  6  1  0
  7  8  1  6
  9  7  1  0
  9 17  1  0
 10  9  2  0
 11 12  2  0
 12  2  1  0
 14 13  1  6
 14 16  1  0
 15 14  1  0
 16 17  1  6
 16 18  1  0
 18 20  1  0
 19 18  2  0
 20 21  1  0
 21 29  1  0
 21 22  1  1
 23 22  1  0
 24 23  2  0
 25 24  1  0
 26 25  2  0
 26 27  1  0
 27 28  2  0
 28 23  1  0
 29 30  2  0
 29 31  1  0
M  END
$$$$
