YTF.pdb
     RDKit          3D

 31 32  0  0  1  0  0  0  0  0999 V2000
   25.7193    3.3829  -20.9778 O   0  0  0  0  0  0  0  0  0  0  0  0
   25.0872    2.6548  -19.9886 C   0  0  0  0  0  0  0  0  0  0  0  0
   24.4865    3.2540  -18.9003 C   0  0  0  0  0  0  0  0  0  0  0  0
   23.8529    2.5555  -17.9052 C   0  0  0  0  0  0  0  0  0  0  0  0
   23.8120    1.1889  -17.9927 C   0  0  0  0  0  0  0  0  0  0  0  0
   23.1355    0.3926  -16.9360 C   0  0  0  0  0  0  0  0  0  0  0  0
   21.7663    0.0232  -17.4494 C   0  0  2  0  0  0  0  0  0  0  0  0
   20.9055    1.1825  -17.3414 N   0  0  0  0  0  0  0  0  0  0  0  0
   21.2290   -1.0519  -16.5413 C   0  0  0  0  0  0  0  0  0  0  0  0
   20.8510   -0.7828  -15.3722 O   0  0  0  0  0  0  0  0  0  0  0  0
   24.3987    0.5499  -19.0619 C   0  0  0  0  0  0  0  0  0  0  0  0
   25.0387    1.2748  -20.0648 C   0  0  0  0  0  0  0  0  0  0  0  0
   18.2441   -3.0312  -16.6886 C   0  0  0  0  0  0  0  0  0  0  0  0
   19.3663   -4.0667  -16.7063 C   0  0  1  0  0  0  0  0  0  0  0  0
   19.5409   -4.4745  -18.0027 O   0  0  0  0  0  0  0  0  0  0  0  0
   20.6311   -3.4553  -16.0870 C   0  0  2  0  0  0  0  0  0  0  0  0
   21.1254   -2.4052  -16.9587 N   0  0  0  0  0  0  0  0  0  0  0  0
   21.6133   -4.5633  -15.9640 C   0  0  0  0  0  0  0  0  0  0  0  0
   22.5903   -4.5754  -16.7705 O   0  0  0  0  0  0  0  0  0  0  0  0
   21.5444   -5.6006  -15.0217 N   0  0  0  0  0  0  0  0  0  0  0  0
   22.5759   -6.6338  -14.8860 C   0  0  1  0  0  0  0  0  0  0  0  0
   22.6331   -6.9395  -13.3826 C   0  0  0  0  0  0  0  0  0  0  0  0
   21.5062   -7.7991  -12.9757 C   0  0  0  0  0  0  0  0  0  0  0  0
   21.6262   -9.1602  -12.8783 C   0  0  0  0  0  0  0  0  0  0  0  0
   20.5457   -9.9231  -12.4946 C   0  0  0  0  0  0  0  0  0  0  0  0
   19.3106   -9.3736  -12.1936 C   0  0  0  0  0  0  0  0  0  0  0  0
   19.2164   -7.9959  -12.3000 C   0  0  0  0  0  0  0  0  0  0  0  0
   20.2861   -7.2139  -12.6824 C   0  0  0  0  0  0  0  0  0  0  0  0
   22.2494   -7.8287  -15.6632 C   0  0  0  0  0  0  0  0  0  0  0  0
   21.0908   -8.0075  -16.1109 O   0  0  0  0  0  0  0  0  0  0  0  0
   23.1990   -8.8018  -15.9332 O   0  0  0  0  0  0  0  0  0  0  0  0
  2  1  1  0
  3  2  2  0
  4  3  1  0
  5  4  2  0
  5 11  1  0
  6  5  1  0
  7  6  1  0
  7  8  1  1
  9  7  1  0
  9 17  1  0
 10  9  2  0
 11 12  2  0
 12  2  1  0
 14 13  1  6
 14 16  1  0
 15 14  1  0
 16 17  1  6
 16 18  1  0
 18 20  1  0
 19 18  2  0
 20 21  1  0
 21 29  1  0
 21 22  1  1
 23 22  1  0
 24 23  2  0
 25 24  1  0
 26 25  2  0
 26 27  1  0
 27 28  2  0
 28 23  1  0
 29 30  2  0
 29 31  1  0
M  END
$$$$
