YTF.pdb
     RDKit          3D

 31 32  0  0  1  0  0  0  0  0999 V2000
   30.4378  -16.5909  -18.8286 O   0  0  0  0  0  0  0  0  0  0  0  0
   29.7039  -16.8002  -17.6772 C   0  0  0  0  0  0  0  0  0  0  0  0
   28.7835  -15.8837  -17.2113 C   0  0  0  0  0  0  0  0  0  0  0  0
   28.0425  -16.0664  -16.0725 C   0  0  0  0  0  0  0  0  0  0  0  0
   28.2228  -17.2200  -15.3558 C   0  0  0  0  0  0  0  0  0  0  0  0
   27.4403  -17.4588  -14.1153 C   0  0  0  0  0  0  0  0  0  0  0  0
   26.4495  -18.5583  -14.4054 C   0  0  2  0  0  0  0  0  0  0  0  0
   25.4768  -18.0627  -15.3568 N   0  0  0  0  0  0  0  0  0  0  0  0
   25.7362  -18.8627  -13.1140 C   0  0  0  0  0  0  0  0  0  0  0  0
   24.5738  -18.4327  -12.8994 O   0  0  0  0  0  0  0  0  0  0  0  0
   29.1310  -18.1617  -15.7847 C   0  0  0  0  0  0  0  0  0  0  0  0
   29.8762  -17.9604  -16.9444 C   0  0  0  0  0  0  0  0  0  0  0  0
   23.5862  -20.4183  -12.3503 C   0  0  0  0  0  0  0  0  0  0  0  0
   24.5267  -21.0895  -11.3518 C   0  0  1  0  0  0  0  0  0  0  0  0
   25.0388  -22.2125  -11.9469 O   0  0  0  0  0  0  0  0  0  0  0  0
   25.6056  -20.0872  -10.9177 C   0  0  2  0  0  0  0  0  0  0  0  0
   26.3369  -19.6411  -12.0895 N   0  0  0  0  0  0  0  0  0  0  0  0
   26.4917  -20.8116   -9.9704 C   0  0  0  0  0  0  0  0  0  0  0  0
   27.3299  -21.6280  -10.4564 O   0  0  0  0  0  0  0  0  0  0  0  0
   26.4739  -20.6624   -8.5753 N   0  0  0  0  0  0  0  0  0  0  0  0
   27.1710  -21.5715   -7.6602 C   0  0  1  0  0  0  0  0  0  0  0  0
   28.4809  -20.8513   -7.3103 C   0  0  0  0  0  0  0  0  0  0  0  0
   28.3235  -20.0303   -6.0956 C   0  0  0  0  0  0  0  0  0  0  0  0
   27.7663  -18.7793   -6.1288 C   0  0  0  0  0  0  0  0  0  0  0  0
   27.6401  -18.0485   -4.9682 C   0  0  0  0  0  0  0  0  0  0  0  0
   28.0574  -18.5229   -3.7359 C   0  0  0  0  0  0  0  0  0  0  0  0
   28.6170  -19.7899   -3.7303 C   0  0  0  0  0  0  0  0  0  0  0  0
   28.7525  -20.5380   -4.8809 C   0  0  0  0  0  0  0  0  0  0  0  0
   26.3763  -21.8484   -6.4643 C   0  0  0  0  0  0  0  0  0  0  0  0
   26.8399  -22.5498   -5.5327 O   0  0  0  0  0  0  0  0  0  0  0  0
   25.0910  -21.3511   -6.3147 O   0  0  0  0  0  0  0  0  0  0  0  0
  2  1  1  0
  3  2  2  0
  4  3  1  0
  5  4  2  0
  5 11  1  0
  6  5  1  0
  7  6  1  0
  7  8  1  6
  9  7  1  0
  9 17  1  0
 10  9  2  0
 11 12  2  0
 12  2  1  0
 14 13  1  6
 14 16  1  0
 15 14  1  0
 16 17  1  6
 16 18  1  0
 18 20  1  0
 19 18  2  0
 20 21  1  0
 21 29  1  0
 21 22  1  1
 23 22  1  0
 24 23  2  0
 25 24  1  0
 26 25  2  0
 26 27  1  0
 27 28  2  0
 28 23  1  0
 29 30  2  0
 29 31  1  0
M  END
$$$$
