YTF.pdb
     RDKit          3D

 31 32  0  0  1  0  0  0  0  0999 V2000
   15.5955  -22.8649    0.2574 O   0  0  0  0  0  0  0  0  0  0  0  0
   15.9576  -21.8217    1.0874 C   0  0  0  0  0  0  0  0  0  0  0  0
   15.8968  -21.9170    2.4627 C   0  0  0  0  0  0  0  0  0  0  0  0
   16.2498  -20.8978    3.3088 C   0  0  0  0  0  0  0  0  0  0  0  0
   16.6870  -19.7196    2.7631 C   0  0  0  0  0  0  0  0  0  0  0  0
   17.0798  -18.5888    3.6435 C   0  0  0  0  0  0  0  0  0  0  0  0
   15.8670  -18.1955    4.4494 C   0  0  2  0  0  0  0  0  0  0  0  0
   14.9405  -17.5022    3.5790 N   0  0  0  0  0  0  0  0  0  0  0  0
   16.3338  -17.2312    5.5084 C   0  0  0  0  0  0  0  0  0  0  0  0
   16.4491  -16.0034    5.2607 O   0  0  0  0  0  0  0  0  0  0  0  0
   16.7632  -19.5812    1.3954 C   0  0  0  0  0  0  0  0  0  0  0  0
   16.4005  -20.6271    0.5495 C   0  0  0  0  0  0  0  0  0  0  0  0
   14.7614  -16.6113    8.8293 C   0  0  0  0  0  0  0  0  0  0  0  0
   16.2116  -16.9927    9.1180 C   0  0  1  0  0  0  0  0  0  0  0  0
   16.2287  -18.3011    9.5246 O   0  0  0  0  0  0  0  0  0  0  0  0
   17.0632  -16.7349    7.8668 C   0  0  2  0  0  0  0  0  0  0  0  0
   16.6619  -17.6592    6.8220 N   0  0  0  0  0  0  0  0  0  0  0  0
   18.4759  -16.9551    8.2705 C   0  0  0  0  0  0  0  0  0  0  0  0
   19.0520  -18.0017    7.8486 O   0  0  0  0  0  0  0  0  0  0  0  0
   19.2254  -16.0923    9.0847 N   0  0  0  0  0  0  0  0  0  0  0  0
   20.5765  -16.4064    9.5598 C   0  0  1  0  0  0  0  0  0  0  0  0
   21.4952  -15.4314    8.8097 C   0  0  0  0  0  0  0  0  0  0  0  0
   22.8804  -15.5234    9.3067 C   0  0  0  0  0  0  0  0  0  0  0  0
   23.4206  -14.5776   10.1376 C   0  0  0  0  0  0  0  0  0  0  0  0
   24.7198  -14.7050   10.5764 C   0  0  0  0  0  0  0  0  0  0  0  0
   25.5319  -15.7664   10.2133 C   0  0  0  0  0  0  0  0  0  0  0  0
   24.9614  -16.7081    9.3729 C   0  0  0  0  0  0  0  0  0  0  0  0
   23.6625  -16.5992    8.9221 C   0  0  0  0  0  0  0  0  0  0  0  0
   20.6914  -16.2431   11.0085 C   0  0  0  0  0  0  0  0  0  0  0  0
   21.4384  -16.9929   11.6826 O   0  0  0  0  0  0  0  0  0  0  0  0
   19.9855  -15.2620   11.6873 O   0  0  0  0  0  0  0  0  0  0  0  0
  2  1  1  0
  3  2  2  0
  4  3  1  0
  5  4  2  0
  5 11  1  0
  6  5  1  0
  7  6  1  0
  7  8  1  6
  9  7  1  0
  9 17  1  0
 10  9  2  0
 11 12  2  0
 12  2  1  0
 14 13  1  6
 14 16  1  0
 15 14  1  0
 16 17  1  6
 16 18  1  0
 18 20  1  0
 19 18  2  0
 20 21  1  0
 21 29  1  0
 21 22  1  6
 23 22  1  0
 24 23  2  0
 25 24  1  0
 26 25  2  0
 26 27  1  0
 27 28  2  0
 28 23  1  0
 29 30  2  0
 29 31  1  0
M  END
$$$$
