YTF.pdb
     RDKit          3D

 31 32  0  0  1  0  0  0  0  0999 V2000
   14.2093  -17.4793  -16.5191 O   0  0  0  0  0  0  0  0  0  0  0  0
   15.2929  -16.6230  -16.5437 C   0  0  0  0  0  0  0  0  0  0  0  0
   16.5888  -17.0758  -16.6850 C   0  0  0  0  0  0  0  0  0  0  0  0
   17.6814  -16.2482  -16.7125 C   0  0  0  0  0  0  0  0  0  0  0  0
   17.4797  -14.8984  -16.5937 C   0  0  0  0  0  0  0  0  0  0  0  0
   18.6359  -13.9652  -16.6184 C   0  0  0  0  0  0  0  0  0  0  0  0
   18.6469  -13.2881  -17.9661 C   0  0  2  0  0  0  0  0  0  0  0  0
   19.1387  -14.2293  -18.9505 N   0  0  0  0  0  0  0  0  0  0  0  0
   19.6214  -12.1429  -17.8775 C   0  0  0  0  0  0  0  0  0  0  0  0
   20.8521  -12.3241  -18.0639 O   0  0  0  0  0  0  0  0  0  0  0  0
   16.2029  -14.4033  -16.4508 C   0  0  0  0  0  0  0  0  0  0  0  0
   15.1032  -15.2583  -16.4248 C   0  0  0  0  0  0  0  0  0  0  0  0
   19.8447   -9.1218  -19.9358 C   0  0  0  0  0  0  0  0  0  0  0  0
   19.6632   -8.6168  -18.5061 C   0  0  1  0  0  0  0  0  0  0  0  0
   18.3480   -8.2662  -18.3485 O   0  0  0  0  0  0  0  0  0  0  0  0
   20.1242   -9.7014  -17.5222 C   0  0  2  0  0  0  0  0  0  0  0  0
   19.2004  -10.8193  -17.5824 N   0  0  0  0  0  0  0  0  0  0  0  0
   20.1243   -9.0716  -16.1765 C   0  0  0  0  0  0  0  0  0  0  0  0
   19.1083   -9.2536  -15.4419 O   0  0  0  0  0  0  0  0  0  0  0  0
   21.1645   -8.2889  -15.6530 N   0  0  0  0  0  0  0  0  0  0  0  0
   21.0794   -7.5967  -14.3631 C   0  0  1  0  0  0  0  0  0  0  0  0
   22.5267   -7.5291  -13.8553 C   0  0  0  0  0  0  0  0  0  0  0  0
   23.3688   -6.7319  -14.7662 C   0  0  0  0  0  0  0  0  0  0  0  0
   23.4572   -5.3682  -14.6705 C   0  0  0  0  0  0  0  0  0  0  0  0
   24.2567   -4.6650  -15.5441 C   0  0  0  0  0  0  0  0  0  0  0  0
   24.9963   -5.2786  -16.5412 C   0  0  0  0  0  0  0  0  0  0  0  0
   24.8890   -6.6575  -16.6160 C   0  0  0  0  0  0  0  0  0  0  0  0
   24.0943   -7.3803  -15.7512 C   0  0  0  0  0  0  0  0  0  0  0  0
   20.4983   -6.2621  -14.5034 C   0  0  0  0  0  0  0  0  0  0  0  0
   20.3282   -5.7510  -15.6368 O   0  0  0  0  0  0  0  0  0  0  0  0
   20.1161   -5.5163  -13.3992 O   0  0  0  0  0  0  0  0  0  0  0  0
  2  1  1  0
  3  2  2  0
  4  3  1  0
  5  4  2  0
  5 11  1  0
  6  5  1  0
  7  6  1  0
  7  8  1  6
  9  7  1  0
  9 17  1  0
 10  9  2  0
 11 12  2  0
 12  2  1  0
 14 13  1  6
 14 16  1  0
 15 14  1  0
 16 17  1  1
 16 18  1  0
 18 20  1  0
 19 18  2  0
 20 21  1  0
 21 29  1  0
 21 22  1  6
 23 22  1  0
 24 23  2  0
 25 24  1  0
 26 25  2  0
 26 27  1  0
 27 28  2  0
 28 23  1  0
 29 30  2  0
 29 31  1  0
M  END
$$$$
