YTF.pdb
     RDKit          3D

 31 32  0  0  1  0  0  0  0  0999 V2000
   22.8462   -4.7041  -27.5186 O   0  0  0  0  0  0  0  0  0  0  0  0
   23.1959   -4.9778  -26.2106 C   0  0  0  0  0  0  0  0  0  0  0  0
   23.9190   -6.0992  -25.8588 C   0  0  0  0  0  0  0  0  0  0  0  0
   24.2790   -6.3945  -24.5693 C   0  0  0  0  0  0  0  0  0  0  0  0
   23.9022   -5.5320  -23.5737 C   0  0  0  0  0  0  0  0  0  0  0  0
   24.2713   -5.8136  -22.1621 C   0  0  0  0  0  0  0  0  0  0  0  0
   25.3391   -4.8256  -21.7640 C   0  0  2  0  0  0  0  0  0  0  0  0
   26.5890   -5.2270  -22.3748 N   0  0  0  0  0  0  0  0  0  0  0  0
   25.4916   -4.9184  -20.2682 C   0  0  0  0  0  0  0  0  0  0  0  0
   26.4114   -5.6041  -19.7525 O   0  0  0  0  0  0  0  0  0  0  0  0
   23.1796   -4.4008  -23.8802 C   0  0  0  0  0  0  0  0  0  0  0  0
   22.8219   -4.1155  -25.1961 C   0  0  0  0  0  0  0  0  0  0  0  0
   23.7777   -1.9994  -17.8510 C   0  0  0  0  0  0  0  0  0  0  0  0
   24.9602   -2.8590  -17.4098 C   0  0  1  0  0  0  0  0  0  0  0  0
   25.0407   -2.7930  -16.0436 O   0  0  0  0  0  0  0  0  0  0  0  0
   24.7741   -4.2884  -17.9384 C   0  0  2  0  0  0  0  0  0  0  0  0
   24.6132   -4.2431  -19.3802 N   0  0  0  0  0  0  0  0  0  0  0  0
   23.5573   -4.8238  -17.2749 C   0  0  0  0  0  0  0  0  0  0  0  0
   22.4354   -4.5557  -17.7989 O   0  0  0  0  0  0  0  0  0  0  0  0
   23.5525   -5.6059  -16.1099 N   0  0  0  0  0  0  0  0  0  0  0  0
   22.3267   -6.1219  -15.4926 C   0  0  1  0  0  0  0  0  0  0  0  0
   22.2524   -7.5913  -15.9311 C   0  0  0  0  0  0  0  0  0  0  0  0
   23.4139   -8.3503  -15.4319 C   0  0  0  0  0  0  0  0  0  0  0  0
   23.3628   -9.0836  -14.2759 C   0  0  0  0  0  0  0  0  0  0  0  0
   24.4735   -9.7766  -13.8480 C   0  0  0  0  0  0  0  0  0  0  0  0
   25.6719   -9.7720  -14.5420 C   0  0  0  0  0  0  0  0  0  0  0  0
   25.6965   -9.0230  -15.7068 C   0  0  0  0  0  0  0  0  0  0  0  0
   24.5957   -8.3220  -16.1527 C   0  0  0  0  0  0  0  0  0  0  0  0
   22.3621   -5.9990  -14.0359 C   0  0  0  0  0  0  0  0  0  0  0  0
   23.3652   -5.5175  -13.4557 O   0  0  0  0  0  0  0  0  0  0  0  0
   21.2980   -6.4063  -13.2463 O   0  0  0  0  0  0  0  0  0  0  0  0
  2  1  1  0
  3  2  2  0
  4  3  1  0
  5  4  2  0
  5 11  1  0
  6  5  1  0
  7  6  1  0
  7  8  1  6
  9  7  1  0
  9 17  1  0
 10  9  2  0
 11 12  2  0
 12  2  1  0
 14 13  1  1
 14 16  1  0
 15 14  1  0
 16 17  1  6
 16 18  1  0
 18 20  1  0
 19 18  2  0
 20 21  1  0
 21 29  1  0
 21 22  1  1
 23 22  1  0
 24 23  2  0
 25 24  1  0
 26 25  2  0
 26 27  1  0
 27 28  2  0
 28 23  1  0
 29 30  2  0
 29 31  1  0
M  END
$$$$
