YTF.pdb
     RDKit          3D

 31 32  0  0  1  0  0  0  0  0999 V2000
   14.3249  -12.9563  -21.2176 O   0  0  0  0  0  0  0  0  0  0  0  0
   15.5102  -12.4639  -20.7070 C   0  0  0  0  0  0  0  0  0  0  0  0
   15.7219  -11.1160  -20.5007 C   0  0  0  0  0  0  0  0  0  0  0  0
   16.8878  -10.6011  -19.9956 C   0  0  0  0  0  0  0  0  0  0  0  0
   17.8994  -11.4684  -19.6774 C   0  0  0  0  0  0  0  0  0  0  0  0
   19.1800  -10.9532  -19.1272 C   0  0  0  0  0  0  0  0  0  0  0  0
   20.0218  -10.4888  -20.2894 C   0  0  2  0  0  0  0  0  0  0  0  0
   20.6020  -11.6500  -20.9310 N   0  0  0  0  0  0  0  0  0  0  0  0
   21.1392   -9.6543  -19.7201 C   0  0  0  0  0  0  0  0  0  0  0  0
   22.2318  -10.1785  -19.3829 O   0  0  0  0  0  0  0  0  0  0  0  0
   17.7307  -12.8217  -19.8673 C   0  0  0  0  0  0  0  0  0  0  0  0
   16.5393  -13.3286  -20.3816 C   0  0  0  0  0  0  0  0  0  0  0  0
   22.8667   -6.7012  -21.3609 C   0  0  0  0  0  0  0  0  0  0  0  0
   22.2603   -6.2248  -20.0429 C   0  0  1  0  0  0  0  0  0  0  0  0
   21.0695   -5.6092  -20.3269 O   0  0  0  0  0  0  0  0  0  0  0  0
   22.1136   -7.4196  -19.0901 C   0  0  2  0  0  0  0  0  0  0  0  0
   21.0124   -8.2516  -19.5396 N   0  0  0  0  0  0  0  0  0  0  0  0
   21.8469   -6.8501  -17.7441 C   0  0  0  0  0  0  0  0  0  0  0  0
   20.6679   -6.9421  -17.2895 O   0  0  0  0  0  0  0  0  0  0  0  0
   22.8010   -6.2164  -16.9335 N   0  0  0  0  0  0  0  0  0  0  0  0
   22.4776   -5.5981  -15.6439 C   0  0  1  0  0  0  0  0  0  0  0  0
   22.0371   -6.7636  -14.7469 C   0  0  0  0  0  0  0  0  0  0  0  0
   22.9560   -7.9090  -14.8807 C   0  0  0  0  0  0  0  0  0  0  0  0
   22.5144   -9.2053  -14.8459 C   0  0  0  0  0  0  0  0  0  0  0  0
   23.4101  -10.2436  -14.9746 C   0  0  0  0  0  0  0  0  0  0  0  0
   24.7700  -10.0427  -15.1420 C   0  0  0  0  0  0  0  0  0  0  0  0
   25.1898   -8.7231  -15.1737 C   0  0  0  0  0  0  0  0  0  0  0  0
   24.3096   -7.6691  -15.0467 C   0  0  0  0  0  0  0  0  0  0  0  0
   23.6275   -4.8929  -15.0793 C   0  0  0  0  0  0  0  0  0  0  0  0
   24.7097   -4.8194  -15.7103 O   0  0  0  0  0  0  0  0  0  0  0  0
   23.5670   -4.2833  -13.8357 O   0  0  0  0  0  0  0  0  0  0  0  0
  2  1  1  0
  3  2  2  0
  4  3  1  0
  5  4  2  0
  5 11  1  0
  6  5  1  0
  7  6  1  0
  7  8  1  1
  9  7  1  0
  9 17  1  0
 10  9  2  0
 11 12  2  0
 12  2  1  0
 14 13  1  6
 14 16  1  0
 15 14  1  0
 16 17  1  6
 16 18  1  0
 18 20  1  0
 19 18  2  0
 20 21  1  0
 21 29  1  0
 21 22  1  1
 23 22  1  0
 24 23  2  0
 25 24  1  0
 26 25  2  0
 26 27  1  0
 27 28  2  0
 28 23  1  0
 29 30  2  0
 29 31  1  0
M  END
$$$$
