YTF.pdb
     RDKit          3D

 31 32  0  0  1  0  0  0  0  0999 V2000
   14.7414  -10.3806  -23.9236 O   0  0  0  0  0  0  0  0  0  0  0  0
   15.8365  -10.2683  -23.0892 C   0  0  0  0  0  0  0  0  0  0  0  0
   16.6015  -11.3572  -22.7243 C   0  0  0  0  0  0  0  0  0  0  0  0
   17.6925  -11.2736  -21.8983 C   0  0  0  0  0  0  0  0  0  0  0  0
   18.0453  -10.0444  -21.4069 C   0  0  0  0  0  0  0  0  0  0  0  0
   19.2209   -9.9083  -20.5083 C   0  0  0  0  0  0  0  0  0  0  0  0
   20.3865   -9.4495  -21.3483 C   0  0  2  0  0  0  0  0  0  0  0  0
   21.0232  -10.6137  -21.9279 N   0  0  0  0  0  0  0  0  0  0  0  0
   21.3683   -8.7869  -20.4176 C   0  0  0  0  0  0  0  0  0  0  0  0
   22.4652   -9.3348  -20.1366 O   0  0  0  0  0  0  0  0  0  0  0  0
   17.3095   -8.9310  -21.7456 C   0  0  0  0  0  0  0  0  0  0  0  0
   16.2034   -9.0333  -22.5863 C   0  0  0  0  0  0  0  0  0  0  0  0
   23.5867   -6.1666  -20.7413 C   0  0  0  0  0  0  0  0  0  0  0  0
   22.6681   -5.6729  -19.6258 C   0  0  1  0  0  0  0  0  0  0  0  0
   21.7442   -4.8296  -20.1851 O   0  0  0  0  0  0  0  0  0  0  0  0
   22.0373   -6.8794  -18.9162 C   0  0  2  0  0  0  0  0  0  0  0  0
   21.1039   -7.5260  -19.8205 N   0  0  0  0  0  0  0  0  0  0  0  0
   21.3444   -6.3428  -17.7165 C   0  0  0  0  0  0  0  0  0  0  0  0
   20.2025   -5.8194  -17.8816 O   0  0  0  0  0  0  0  0  0  0  0  0
   21.8563   -6.3705  -16.4103 N   0  0  0  0  0  0  0  0  0  0  0  0
   21.1772   -5.7527  -15.2670 C   0  0  1  0  0  0  0  0  0  0  0  0
   20.3390   -6.8809  -14.6493 C   0  0  0  0  0  0  0  0  0  0  0  0
   21.2036   -7.9533  -14.1232 C   0  0  0  0  0  0  0  0  0  0  0  0
   21.4453   -8.1028  -12.7831 C   0  0  0  0  0  0  0  0  0  0  0  0
   22.2606   -9.1196  -12.3376 C   0  0  0  0  0  0  0  0  0  0  0  0
   22.8657  -10.0237  -13.1946 C   0  0  0  0  0  0  0  0  0  0  0  0
   22.6048   -9.8501  -14.5437 C   0  0  0  0  0  0  0  0  0  0  0  0
   21.7916   -8.8388  -15.0104 C   0  0  0  0  0  0  0  0  0  0  0  0
   22.1311   -5.2052  -14.3033 C   0  0  0  0  0  0  0  0  0  0  0  0
   23.3668   -5.2800  -14.5086 O   0  0  0  0  0  0  0  0  0  0  0  0
   21.7107   -4.5875  -13.1357 O   0  0  0  0  0  0  0  0  0  0  0  0
  2  1  1  0
  3  2  2  0
  4  3  1  0
  5  4  2  0
  5 11  1  0
  6  5  1  0
  7  6  1  0
  7  8  1  1
  9  7  1  0
  9 17  1  0
 10  9  2  0
 11 12  2  0
 12  2  1  0
 14 13  1  6
 14 16  1  0
 15 14  1  0
 16 17  1  6
 16 18  1  0
 18 20  1  0
 19 18  2  0
 20 21  1  0
 21 29  1  0
 21 22  1  1
 23 22  1  0
 24 23  2  0
 25 24  1  0
 26 25  2  0
 26 27  1  0
 27 28  2  0
 28 23  1  0
 29 30  2  0
 29 31  1  0
M  END
$$$$
