YTF.pdb
     RDKit          3D

 31 32  0  0  1  0  0  0  0  0999 V2000
   21.2315  -24.8797  -19.5114 O   0  0  0  0  0  0  0  0  0  0  0  0
   22.3206  -24.7039  -18.6800 C   0  0  0  0  0  0  0  0  0  0  0  0
   22.2199  -24.0804  -17.4531 C   0  0  0  0  0  0  0  0  0  0  0  0
   23.2839  -23.8932  -16.6092 C   0  0  0  0  0  0  0  0  0  0  0  0
   24.5150  -24.3483  -17.0017 C   0  0  0  0  0  0  0  0  0  0  0  0
   25.6956  -24.1662  -16.1178 C   0  0  0  0  0  0  0  0  0  0  0  0
   26.2034  -22.7603  -16.3187 C   0  0  2  0  0  0  0  0  0  0  0  0
   27.1557  -22.7659  -17.4094 N   0  0  0  0  0  0  0  0  0  0  0  0
   26.9292  -22.3682  -15.0583 C   0  0  0  0  0  0  0  0  0  0  0  0
   28.1850  -22.3032  -15.0278 O   0  0  0  0  0  0  0  0  0  0  0  0
   24.6607  -24.9763  -18.2183 C   0  0  0  0  0  0  0  0  0  0  0  0
   23.5689  -25.1586  -19.0642 C   0  0  0  0  0  0  0  0  0  0  0  0
   28.2809  -20.0451  -14.2399 C   0  0  0  0  0  0  0  0  0  0  0  0
   27.2997  -20.0157  -13.0701 C   0  0  1  0  0  0  0  0  0  0  0  0
   26.2399  -19.2255  -13.4308 O   0  0  0  0  0  0  0  0  0  0  0  0
   26.8919  -21.4521  -12.7132 C   0  0  2  0  0  0  0  0  0  0  0  0
   26.2366  -22.0570  -13.8584 N   0  0  0  0  0  0  0  0  0  0  0  0
   25.9683  -21.3481  -11.5540 C   0  0  0  0  0  0  0  0  0  0  0  0
   24.7316  -21.2194  -11.7971 O   0  0  0  0  0  0  0  0  0  0  0  0
   26.3588  -21.3818  -10.2067 N   0  0  0  0  0  0  0  0  0  0  0  0
   25.4074  -21.3324   -9.0921 C   0  0  1  0  0  0  0  0  0  0  0  0
   26.2452  -21.6448   -7.8441 C   0  0  0  0  0  0  0  0  0  0  0  0
   27.1245  -20.5116   -7.5016 C   0  0  0  0  0  0  0  0  0  0  0  0
   26.6855  -19.4472   -6.7594 C   0  0  0  0  0  0  0  0  0  0  0  0
   27.5429  -18.4105   -6.4643 C   0  0  0  0  0  0  0  0  0  0  0  0
   28.8608  -18.3853   -6.8890 C   0  0  0  0  0  0  0  0  0  0  0  0
   29.2789  -19.4732   -7.6374 C   0  0  0  0  0  0  0  0  0  0  0  0
   28.4365  -20.5212   -7.9438 C   0  0  0  0  0  0  0  0  0  0  0  0
   24.7620  -20.0242   -8.9901 C   0  0  0  0  0  0  0  0  0  0  0  0
   23.7260  -19.8707   -8.2989 O   0  0  0  0  0  0  0  0  0  0  0  0
   25.2655  -18.9124   -9.6475 O   0  0  0  0  0  0  0  0  0  0  0  0
  2  1  1  0
  3  2  2  0
  4  3  1  0
  5  4  2  0
  5 11  1  0
  6  5  1  0
  7  6  1  0
  7  8  1  6
  9  7  1  0
  9 17  1  0
 10  9  2  0
 11 12  2  0
 12  2  1  0
 14 13  1  6
 14 16  1  0
 15 14  1  0
 16 17  1  6
 16 18  1  0
 18 20  1  0
 19 18  2  0
 20 21  1  0
 21 29  1  0
 21 22  1  1
 23 22  1  0
 24 23  2  0
 25 24  1  0
 26 25  2  0
 26 27  1  0
 27 28  2  0
 28 23  1  0
 29 30  2  0
 29 31  1  0
M  END
$$$$
