YTF.pdb
     RDKit          3D

 31 32  0  0  1  0  0  0  0  0999 V2000
   17.6117  -16.2672  -15.2201 O   0  0  0  0  0  0  0  0  0  0  0  0
   18.4606  -17.1774  -14.6208 C   0  0  0  0  0  0  0  0  0  0  0  0
   19.8340  -17.0651  -14.6938 C   0  0  0  0  0  0  0  0  0  0  0  0
   20.6987  -17.9536  -14.1088 C   0  0  0  0  0  0  0  0  0  0  0  0
   20.1746  -19.0113  -13.4134 C   0  0  0  0  0  0  0  0  0  0  0  0
   21.0756  -19.9983  -12.7636 C   0  0  0  0  0  0  0  0  0  0  0  0
   22.3295  -20.0892  -13.5969 C   0  0  2  0  0  0  0  0  0  0  0  0
   21.9967  -20.7053  -14.8643 N   0  0  0  0  0  0  0  0  0  0  0  0
   23.2822  -20.9974  -12.8644 C   0  0  0  0  0  0  0  0  0  0  0  0
   23.3139  -22.2317  -13.1046 O   0  0  0  0  0  0  0  0  0  0  0  0
   18.8095  -19.1617  -13.3153 C   0  0  0  0  0  0  0  0  0  0  0  0
   17.9446  -18.2495  -13.9159 C   0  0  0  0  0  0  0  0  0  0  0  0
   25.5462  -22.4160  -13.4940 C   0  0  0  0  0  0  0  0  0  0  0  0
   26.2412  -21.7186  -12.3267 C   0  0  1  0  0  0  0  0  0  0  0  0
   26.9198  -20.6384  -12.8270 O   0  0  0  0  0  0  0  0  0  0  0  0
   25.1972  -21.3414  -11.2662 C   0  0  2  0  0  0  0  0  0  0  0  0
   24.1794  -20.5075  -11.8789 N   0  0  0  0  0  0  0  0  0  0  0  0
   25.9294  -20.6073  -10.2020 C   0  0  0  0  0  0  0  0  0  0  0  0
   25.9174  -19.3412  -10.2460 O   0  0  0  0  0  0  0  0  0  0  0  0
   26.6353  -21.2075   -9.1483 N   0  0  0  0  0  0  0  0  0  0  0  0
   27.4953  -20.4585   -8.2267 C   0  0  1  0  0  0  0  0  0  0  0  0
   26.8706  -20.6738   -6.8409 C   0  0  0  0  0  0  0  0  0  0  0  0
   27.6320  -19.9565   -5.8017 C   0  0  0  0  0  0  0  0  0  0  0  0
   27.4362  -18.6256   -5.5430 C   0  0  0  0  0  0  0  0  0  0  0  0
   28.1714  -17.9972   -4.5625 C   0  0  0  0  0  0  0  0  0  0  0  0
   29.1240  -18.6559   -3.8032 C   0  0  0  0  0  0  0  0  0  0  0  0
   29.3021  -20.0003   -4.0850 C   0  0  0  0  0  0  0  0  0  0  0  0
   28.5764  -20.6483   -5.0624 C   0  0  0  0  0  0  0  0  0  0  0  0
   28.8775  -20.9337   -8.2706 C   0  0  0  0  0  0  0  0  0  0  0  0
   29.1442  -22.1012   -8.6454 O   0  0  0  0  0  0  0  0  0  0  0  0
   29.9377  -20.1198   -7.9030 O   0  0  0  0  0  0  0  0  0  0  0  0
  2  1  1  0
  3  2  2  0
  4  3  1  0
  5  4  2  0
  5 11  1  0
  6  5  1  0
  7  6  1  0
  7  8  1  6
  9  7  1  0
  9 17  1  0
 10  9  2  0
 11 12  2  0
 12  2  1  0
 14 13  1  6
 14 16  1  0
 15 14  1  0
 16 17  1  6
 16 18  1  0
 18 20  1  0
 19 18  2  0
 20 21  1  0
 21 29  1  0
 21 22  1  1
 23 22  1  0
 24 23  2  0
 25 24  1  0
 26 25  2  0
 26 27  1  0
 27 28  2  0
 28 23  1  0
 29 30  2  0
 29 31  1  0
M  END
$$$$
