YTF.pdb
     RDKit          3D

 31 32  0  0  1  0  0  0  0  0999 V2000
   18.1224  -21.0969  -17.1697 O   0  0  0  0  0  0  0  0  0  0  0  0
   19.2621  -21.4361  -16.4668 C   0  0  0  0  0  0  0  0  0  0  0  0
   19.9794  -22.5845  -16.7328 C   0  0  0  0  0  0  0  0  0  0  0  0
   21.1129  -22.9445  -16.0509 C   0  0  0  0  0  0  0  0  0  0  0  0
   21.5606  -22.1222  -15.0507 C   0  0  0  0  0  0  0  0  0  0  0  0
   22.7851  -22.4743  -14.2861 C   0  0  0  0  0  0  0  0  0  0  0  0
   23.8936  -21.5659  -14.7563 C   0  0  2  0  0  0  0  0  0  0  0  0
   24.3101  -21.9922  -16.0759 N   0  0  0  0  0  0  0  0  0  0  0  0
   25.0507  -21.7543  -13.8105 C   0  0  0  0  0  0  0  0  0  0  0  0
   26.0925  -22.3582  -14.1741 O   0  0  0  0  0  0  0  0  0  0  0  0
   20.8752  -20.9661  -14.7519 C   0  0  0  0  0  0  0  0  0  0  0  0
   19.7248  -20.6148  -15.4548 C   0  0  0  0  0  0  0  0  0  0  0  0
   27.5776  -20.4282  -13.6141 C   0  0  0  0  0  0  0  0  0  0  0  0
   27.1093  -20.0475  -12.2114 C   0  0  1  0  0  0  0  0  0  0  0  0
   26.4781  -18.8341  -12.2944 O   0  0  0  0  0  0  0  0  0  0  0  0
   26.2113  -21.1619  -11.6559 C   0  0  2  0  0  0  0  0  0  0  0  0
   25.0195  -21.2641  -12.4782 N   0  0  0  0  0  0  0  0  0  0  0  0
   25.8751  -20.7716  -10.2623 C   0  0  0  0  0  0  0  0  0  0  0  0
   24.9655  -19.9052  -10.0973 O   0  0  0  0  0  0  0  0  0  0  0  0
   26.4871  -21.2888   -9.1105 N   0  0  0  0  0  0  0  0  0  0  0  0
   26.0955  -20.9054   -7.7504 C   0  0  1  0  0  0  0  0  0  0  0  0
   27.0506  -21.6802   -6.8315 C   0  0  0  0  0  0  0  0  0  0  0  0
   28.0479  -20.7783   -6.2261 C   0  0  0  0  0  0  0  0  0  0  0  0
   29.2912  -20.5958   -6.7714 C   0  0  0  0  0  0  0  0  0  0  0  0
   30.1905  -19.7432   -6.1704 C   0  0  0  0  0  0  0  0  0  0  0  0
   29.8979  -19.0413   -5.0130 C   0  0  0  0  0  0  0  0  0  0  0  0
   28.6345  -19.2439   -4.4826 C   0  0  0  0  0  0  0  0  0  0  0  0
   27.7194  -20.0930   -5.0687 C   0  0  0  0  0  0  0  0  0  0  0  0
   26.2060  -19.4621   -7.5430 C   0  0  0  0  0  0  0  0  0  0  0  0
   27.0379  -18.7815   -8.1906 O   0  0  0  0  0  0  0  0  0  0  0  0
   25.4030  -18.7956   -6.6305 O   0  0  0  0  0  0  0  0  0  0  0  0
  2  1  1  0
  3  2  2  0
  4  3  1  0
  5  4  2  0
  5 11  1  0
  6  5  1  0
  7  6  1  0
  7  8  1  6
  9  7  1  0
  9 17  1  0
 10  9  2  0
 11 12  2  0
 12  2  1  0
 14 13  1  6
 14 16  1  0
 15 14  1  0
 16 17  1  6
 16 18  1  0
 18 20  1  0
 19 18  2  0
 20 21  1  0
 21 29  1  0
 21 22  1  1
 23 22  1  0
 24 23  2  0
 25 24  1  0
 26 25  2  0
 26 27  1  0
 27 28  2  0
 28 23  1  0
 29 30  2  0
 29 31  1  0
M  END
$$$$
