WMR.pdb
     RDKit          3D

 34 35  0  0  1  0  0  0  0  0999 V2000
    8.9807  -16.7008   22.2891 N   0  0  0  0  0  0  0  0  0  0  0  0
    8.9831  -15.3544   22.8461 C   0  0  1  0  0  0  0  0  0  0  0  0
    7.5751  -14.7911   22.7543 C   0  0  0  0  0  0  0  0  0  0  0  0
    7.0944  -14.6080   21.3822 C   0  0  0  0  0  0  0  0  0  0  0  0
    6.1099  -15.3025   20.7188 C   0  0  0  0  0  0  0  0  0  0  0  0
    5.9700  -14.8172   19.4782 N   0  0  0  0  0  0  0  0  0  0  0  0
    6.8634  -13.7986   19.3188 C   0  0  0  0  0  0  0  0  0  0  0  0
    7.1495  -12.9614   18.2621 C   0  0  0  0  0  0  0  0  0  0  0  0
    8.1172  -11.9863   18.3389 C   0  0  0  0  0  0  0  0  0  0  0  0
    8.8236  -11.8539   19.5327 C   0  0  0  0  0  0  0  0  0  0  0  0
    8.5453  -12.6867   20.5956 C   0  0  0  0  0  0  0  0  0  0  0  0
    7.5643  -13.6638   20.4966 C   0  0  0  0  0  0  0  0  0  0  0  0
    9.3360  -15.4125   24.2999 C   0  0  0  0  0  0  0  0  0  0  0  0
    9.1256  -14.4664   25.0911 O   0  0  0  0  0  0  0  0  0  0  0  0
    9.6857  -13.5683   29.8564 C   0  0  0  0  0  0  0  0  0  0  0  0
   10.8846  -14.3862   28.8247 S   0  0  0  0  0  0  0  0  0  0  0  0
   10.2387  -15.6842   27.8418 C   0  0  0  0  0  0  0  0  0  0  0  0
   11.1102  -16.5152   27.0217 C   0  0  0  0  0  0  0  0  0  0  0  0
   11.1412  -16.5546   25.5710 C   0  0  2  0  0  0  0  0  0  0  0  0
    9.9542  -16.6357   24.8107 N   0  0  0  0  0  0  0  0  0  0  0  0
   12.0405  -17.7243   25.1710 C   0  0  0  0  0  0  0  0  0  0  0  0
   11.5464  -18.8636   25.2780 O   0  0  0  0  0  0  0  0  0  0  0  0
   13.1300  -14.2807   18.8497 N   0  0  0  0  0  0  0  0  0  0  0  0
   14.1182  -15.1626   19.3361 C   0  0  0  0  0  0  0  0  0  0  0  0
   15.3568  -14.8261   19.2433 N   0  0  0  0  0  0  0  0  0  0  0  0
   13.7361  -16.4000   19.9171 N   0  0  0  0  0  0  0  0  0  0  0  0
   14.6312  -17.0709   20.8297 C   0  0  0  0  0  0  0  0  0  0  0  0
   13.9187  -17.5427   22.0871 C   0  0  0  0  0  0  0  0  0  0  0  0
   14.8795  -18.2247   23.0322 C   0  0  0  0  0  0  0  0  0  0  0  0
   14.2186  -18.6718   24.3149 C   0  0  2  0  0  0  0  0  0  0  0  0
   13.3461  -17.5538   24.7079 N   0  0  0  0  0  0  0  0  0  0  0  0
   15.1347  -19.0333   25.3884 C   0  0  0  0  0  0  0  0  0  0  0  0
   15.2663  -18.2596   26.5330 O   0  0  0  0  0  0  0  0  0  0  0  0
   15.8387  -20.0627   25.3132 O   0  0  0  0  0  0  0  0  0  0  0  0
  2  1  1  1
  3  2  1  0
  4  5  2  0
  4  3  1  0
  6  5  1  0
  7 12  2  0
  7  6  1  0
  8  7  1  0
  9 10  1  0
  9  8  2  0
 10 11  2  0
 11 12  1  0
 12  4  1  0
 13  2  1  0
 14 13  2  0
 16 15  1  0
 17 16  1  0
 17 18  1  0
 19 18  1  1
 19 20  1  0
 20 13  1  0
 21 19  1  0
 22 21  2  0
 23 24  1  0
 24 25  2  0
 24 26  1  0
 26 27  1  0
 27 28  1  0
 29 28  1  0
 30 29  1  6
 30 31  1  0
 31 21  1  0
 32 30  1  0
 32 33  1  0
 34 32  2  0
M  END
$$$$
