WMR.pdb
     RDKit          3D

 34 35  0  0  1  0  0  0  0  0999 V2000
    8.2424  -17.7224   22.8225 N   0  0  0  0  0  0  0  0  0  0  0  0
    8.9498  -16.4886   22.5058 C   0  0  1  0  0  0  0  0  0  0  0  0
    7.9285  -15.3775   22.3305 C   0  0  0  0  0  0  0  0  0  0  0  0
    7.2369  -15.0029   23.5669 C   0  0  0  0  0  0  0  0  0  0  0  0
    6.4473  -15.7840   24.3780 C   0  0  0  0  0  0  0  0  0  0  0  0
    6.0098  -15.0611   25.4173 N   0  0  0  0  0  0  0  0  0  0  0  0
    6.5105  -13.7980   25.2951 C   0  0  0  0  0  0  0  0  0  0  0  0
    6.3846  -12.6626   26.0661 C   0  0  0  0  0  0  0  0  0  0  0  0
    6.9969  -11.4766   25.7321 C   0  0  0  0  0  0  0  0  0  0  0  0
    7.7670  -11.4384   24.5714 C   0  0  0  0  0  0  0  0  0  0  0  0
    7.8991  -12.5687   23.7930 C   0  0  0  0  0  0  0  0  0  0  0  0
    7.2727  -13.7553   24.1488 C   0  0  0  0  0  0  0  0  0  0  0  0
    9.8236  -16.1004   23.6578 C   0  0  0  0  0  0  0  0  0  0  0  0
   10.3227  -14.9598   23.7812 O   0  0  0  0  0  0  0  0  0  0  0  0
   10.6124  -13.8494   30.6451 C   0  0  0  0  0  0  0  0  0  0  0  0
    9.8789  -14.1338   29.0476 S   0  0  0  0  0  0  0  0  0  0  0  0
   10.6547  -15.3859   28.0996 C   0  0  0  0  0  0  0  0  0  0  0  0
   10.1452  -15.7644   26.7883 C   0  0  0  0  0  0  0  0  0  0  0  0
   10.7434  -16.7263   25.8807 C   0  0  2  0  0  0  0  0  0  0  0  0
   10.1009  -17.1069   24.6824 N   0  0  0  0  0  0  0  0  0  0  0  0
   11.0265  -17.9928   26.6888 C   0  0  0  0  0  0  0  0  0  0  0  0
   11.6140  -17.8349   27.7767 O   0  0  0  0  0  0  0  0  0  0  0  0
   16.1692  -18.8366   21.8456 N   0  0  0  0  0  0  0  0  0  0  0  0
   14.8755  -18.4557   21.4306 C   0  0  0  0  0  0  0  0  0  0  0  0
   14.7499  -17.5255   20.5503 N   0  0  0  0  0  0  0  0  0  0  0  0
   13.7381  -19.0987   21.9853 N   0  0  0  0  0  0  0  0  0  0  0  0
   13.9022  -20.0377   23.0695 C   0  0  0  0  0  0  0  0  0  0  0  0
   12.6031  -20.7487   23.4126 C   0  0  0  0  0  0  0  0  0  0  0  0
   11.6823  -19.8471   24.2006 C   0  0  0  0  0  0  0  0  0  0  0  0
   11.6031  -20.2256   25.6608 C   0  0  2  0  0  0  0  0  0  0  0  0
   10.6578  -19.2673   26.2557 N   0  0  0  0  0  0  0  0  0  0  0  0
   12.8761  -20.2251   26.3691 C   0  0  0  0  0  0  0  0  0  0  0  0
   13.5519  -19.0493   26.6639 O   0  0  0  0  0  0  0  0  0  0  0  0
   13.4064  -21.2943   26.7388 O   0  0  0  0  0  0  0  0  0  0  0  0
  2  1  1  1
  3  2  1  0
  4  5  2  0
  4  3  1  0
  6  5  1  0
  7 12  2  0
  7  6  1  0
  8  7  1  0
  9 10  1  0
  9  8  2  0
 10 11  2  0
 11 12  1  0
 12  4  1  0
 13  2  1  0
 14 13  2  0
 16 15  1  0
 17 16  1  0
 17 18  1  0
 19 18  1  1
 19 20  1  0
 20 13  1  0
 21 19  1  0
 22 21  2  0
 23 24  1  0
 24 25  2  0
 24 26  1  0
 26 27  1  0
 27 28  1  0
 29 28  1  0
 30 29  1  6
 30 31  1  0
 31 21  1  0
 32 30  1  0
 32 33  1  0
 34 32  2  0
M  END
$$$$
