WMR.pdb
     RDKit          3D

 34 35  0  0  1  0  0  0  0  0999 V2000
    6.9215  -19.8274   26.7422 N   0  0  0  0  0  0  0  0  0  0  0  0
    7.5445  -18.5189   26.8919 C   0  0  1  0  0  0  0  0  0  0  0  0
    9.0467  -18.7103   27.0149 C   0  0  0  0  0  0  0  0  0  0  0  0
    9.6486  -17.9942   28.1428 C   0  0  0  0  0  0  0  0  0  0  0  0
   10.1351  -18.5070   29.3226 C   0  0  0  0  0  0  0  0  0  0  0  0
   10.6098  -17.5147   30.0868 N   0  0  0  0  0  0  0  0  0  0  0  0
   10.4379  -16.3414   29.4122 C   0  0  0  0  0  0  0  0  0  0  0  0
   10.7380  -15.0320   29.7203 C   0  0  0  0  0  0  0  0  0  0  0  0
   10.4629  -13.9938   28.8604 C   0  0  0  0  0  0  0  0  0  0  0  0
    9.8597  -14.2930   27.6403 C   0  0  0  0  0  0  0  0  0  0  0  0
    9.5552  -15.5996   27.3228 C   0  0  0  0  0  0  0  0  0  0  0  0
    9.8418  -16.6321   28.2052 C   0  0  0  0  0  0  0  0  0  0  0  0
    7.3079  -17.7054   25.6575 C   0  0  0  0  0  0  0  0  0  0  0  0
    6.9006  -18.1996   24.5827 O   0  0  0  0  0  0  0  0  0  0  0  0
    6.9014  -10.6523   25.8468 C   0  0  0  0  0  0  0  0  0  0  0  0
    6.4144  -12.0946   26.7706 S   0  0  0  0  0  0  0  0  0  0  0  0
    5.9734  -13.4767   25.7890 C   0  0  0  0  0  0  0  0  0  0  0  0
    6.9002  -14.0366   24.8143 C   0  0  0  0  0  0  0  0  0  0  0  0
    7.2056  -15.4437   24.6311 C   0  0  2  0  0  0  0  0  0  0  0  0
    7.5664  -16.2671   25.7199 N   0  0  0  0  0  0  0  0  0  0  0  0
    8.3152  -15.5315   23.5831 C   0  0  0  0  0  0  0  0  0  0  0  0
    9.4595  -15.7822   24.0089 O   0  0  0  0  0  0  0  0  0  0  0  0
    8.0836  -13.7936   14.9008 N   0  0  0  0  0  0  0  0  0  0  0  0
    9.1458  -14.7184   14.9872 C   0  0  0  0  0  0  0  0  0  0  0  0
    9.7665  -15.0597   13.9128 N   0  0  0  0  0  0  0  0  0  0  0  0
    9.5132  -15.2559   16.2484 N   0  0  0  0  0  0  0  0  0  0  0  0
    8.8036  -14.8466   17.4371 C   0  0  0  0  0  0  0  0  0  0  0  0
    9.2914  -15.5800   18.6762 C   0  0  0  0  0  0  0  0  0  0  0  0
    8.4547  -15.2246   19.8823 C   0  0  0  0  0  0  0  0  0  0  0  0
    9.0582  -15.7157   21.1771 C   0  0  2  0  0  0  0  0  0  0  0  0
    8.0866  -15.3459   22.2189 N   0  0  0  0  0  0  0  0  0  0  0  0
   10.3843  -15.1928   21.4781 C   0  0  0  0  0  0  0  0  0  0  0  0
   11.5345  -15.9376   21.2581 O   0  0  0  0  0  0  0  0  0  0  0  0
   10.5310  -14.0446   21.9483 O   0  0  0  0  0  0  0  0  0  0  0  0
  2  1  1  6
  3  2  1  0
  4  5  2  0
  4  3  1  0
  6  5  1  0
  7 12  2  0
  7  6  1  0
  8  7  1  0
  9 10  1  0
  9  8  2  0
 10 11  2  0
 11 12  1  0
 12  4  1  0
 13  2  1  0
 14 13  2  0
 16 15  1  0
 17 16  1  0
 17 18  1  0
 19 18  1  1
 19 20  1  0
 20 13  1  0
 21 19  1  0
 22 21  2  0
 23 24  1  0
 24 25  2  0
 24 26  1  0
 26 27  1  0
 27 28  1  0
 29 28  1  0
 30 29  1  6
 30 31  1  0
 31 21  1  0
 32 30  1  0
 32 33  1  0
 34 32  2  0
M  END
$$$$
