WMR.pdb
     RDKit          3D

 34 35  0  0  1  0  0  0  0  0999 V2000
    8.0711  -16.9178   21.4308 N   0  0  0  0  0  0  0  0  0  0  0  0
    7.6797  -15.5778   21.8479 C   0  0  1  0  0  0  0  0  0  0  0  0
    6.4855  -15.1423   21.0159 C   0  0  0  0  0  0  0  0  0  0  0  0
    6.8127  -14.8261   19.6229 C   0  0  0  0  0  0  0  0  0  0  0  0
    6.5848  -15.5811   18.4961 C   0  0  0  0  0  0  0  0  0  0  0  0
    7.0285  -14.9271   17.4147 N   0  0  0  0  0  0  0  0  0  0  0  0
    7.5516  -13.7359   17.8253 C   0  0  0  0  0  0  0  0  0  0  0  0
    8.1371  -12.6879   17.1485 C   0  0  0  0  0  0  0  0  0  0  0  0
    8.6004  -11.5644   17.7937 C   0  0  0  0  0  0  0  0  0  0  0  0
    8.4658  -11.4996   19.1792 C   0  0  0  0  0  0  0  0  0  0  0  0
    7.8818  -12.5429   19.8656 C   0  0  0  0  0  0  0  0  0  0  0  0
    7.4208  -13.6672   19.1946 C   0  0  0  0  0  0  0  0  0  0  0  0
    7.2295  -15.6072   23.2755 C   0  0  0  0  0  0  0  0  0  0  0  0
    6.2533  -14.9476   23.6965 O   0  0  0  0  0  0  0  0  0  0  0  0
    7.3473  -11.5114   26.9411 C   0  0  0  0  0  0  0  0  0  0  0  0
    6.3022  -12.9300   27.1981 S   0  0  0  0  0  0  0  0  0  0  0  0
    6.6020  -14.2663   26.1061 C   0  0  0  0  0  0  0  0  0  0  0  0
    7.6482  -15.2430   26.3780 C   0  0  0  0  0  0  0  0  0  0  0  0
    8.5019  -15.8819   25.3932 C   0  0  2  0  0  0  0  0  0  0  0  0
    7.9703  -16.4492   24.2146 N   0  0  0  0  0  0  0  0  0  0  0  0
    9.2988  -16.9642   26.1217 C   0  0  0  0  0  0  0  0  0  0  0  0
    8.6361  -17.8810   26.6451 O   0  0  0  0  0  0  0  0  0  0  0  0
   15.2560  -16.8514   20.9613 N   0  0  0  0  0  0  0  0  0  0  0  0
   14.0139  -16.4177   21.4713 C   0  0  0  0  0  0  0  0  0  0  0  0
   13.7632  -15.1564   21.5178 N   0  0  0  0  0  0  0  0  0  0  0  0
   13.0643  -17.3712   21.9228 N   0  0  0  0  0  0  0  0  0  0  0  0
   13.3442  -18.1617   23.0979 C   0  0  0  0  0  0  0  0  0  0  0  0
   12.1679  -18.1927   24.0604 C   0  0  0  0  0  0  0  0  0  0  0  0
   12.6360  -18.0971   25.4933 C   0  0  0  0  0  0  0  0  0  0  0  0
   11.4975  -18.1511   26.4846 C   0  0  2  0  0  0  0  0  0  0  0  0
   10.6916  -16.9506   26.2104 N   0  0  0  0  0  0  0  0  0  0  0  0
   11.8990  -18.2130   27.8837 C   0  0  0  0  0  0  0  0  0  0  0  0
   12.6245  -19.2810   28.3928 O   0  0  0  0  0  0  0  0  0  0  0  0
   11.6007  -17.2969   28.6791 O   0  0  0  0  0  0  0  0  0  0  0  0
  2  1  1  6
  3  2  1  0
  4  5  2  0
  4  3  1  0
  6  5  1  0
  7 12  2  0
  7  6  1  0
  8  7  1  0
  9 10  1  0
  9  8  2  0
 10 11  2  0
 11 12  1  0
 12  4  1  0
 13  2  1  0
 14 13  2  0
 16 15  1  0
 17 16  1  0
 17 18  1  0
 19 18  1  1
 19 20  1  0
 20 13  1  0
 21 19  1  0
 22 21  2  0
 23 24  1  0
 24 25  2  0
 24 26  1  0
 26 27  1  0
 27 28  1  0
 29 28  1  0
 30 29  1  6
 30 31  1  0
 31 21  1  0
 32 30  1  0
 32 33  1  0
 34 32  2  0
M  END
$$$$
