WMR.pdb
     RDKit          3D

 34 35  0  0  1  0  0  0  0  0999 V2000
    7.4325  -19.6886   27.0691 N   0  0  0  0  0  0  0  0  0  0  0  0
    8.0736  -18.3808   27.0321 C   0  0  1  0  0  0  0  0  0  0  0  0
    9.5774  -18.5820   26.9529 C   0  0  0  0  0  0  0  0  0  0  0  0
   10.3314  -17.8515   27.9753 C   0  0  0  0  0  0  0  0  0  0  0  0
   10.9637  -18.3469   29.0918 C   0  0  0  0  0  0  0  0  0  0  0  0
   11.5467  -17.3459   29.7644 N   0  0  0  0  0  0  0  0  0  0  0  0
   11.3004  -16.1845   29.0924 C   0  0  0  0  0  0  0  0  0  0  0  0
   11.6535  -14.8734   29.3289 C   0  0  0  0  0  0  0  0  0  0  0  0
   11.2790  -13.8493   28.4899 C   0  0  0  0  0  0  0  0  0  0  0  0
   10.5164  -14.1649   27.3671 C   0  0  0  0  0  0  0  0  0  0  0  0
   10.1577  -15.4732   27.1217 C   0  0  0  0  0  0  0  0  0  0  0  0
   10.5467  -16.4914   27.9814 C   0  0  0  0  0  0  0  0  0  0  0  0
    7.6643  -17.6554   25.7880 C   0  0  0  0  0  0  0  0  0  0  0  0
    7.4279  -18.2371   24.7059 O   0  0  0  0  0  0  0  0  0  0  0  0
    6.6240  -10.7981   25.4463 C   0  0  0  0  0  0  0  0  0  0  0  0
    5.7890  -12.0670   26.3754 S   0  0  0  0  0  0  0  0  0  0  0  0
    5.6780  -13.6148   25.5629 C   0  0  0  0  0  0  0  0  0  0  0  0
    6.7639  -14.1070   24.7255 C   0  0  0  0  0  0  0  0  0  0  0  0
    7.2551  -15.4719   24.6727 C   0  0  2  0  0  0  0  0  0  0  0  0
    7.5365  -16.1996   25.8496 N   0  0  0  0  0  0  0  0  0  0  0  0
    8.5158  -15.4641   23.8081 C   0  0  0  0  0  0  0  0  0  0  0  0
    9.4849  -14.8161   24.2491 O   0  0  0  0  0  0  0  0  0  0  0  0
    7.5641  -14.9643   16.7228 N   0  0  0  0  0  0  0  0  0  0  0  0
    7.5775  -13.6357   17.1978 C   0  0  0  0  0  0  0  0  0  0  0  0
    8.1338  -12.7217   16.4828 N   0  0  0  0  0  0  0  0  0  0  0  0
    6.9816  -13.3270   18.4485 N   0  0  0  0  0  0  0  0  0  0  0  0
    7.7926  -13.3000   19.6425 C   0  0  0  0  0  0  0  0  0  0  0  0
    8.6639  -14.5392   19.7708 C   0  0  0  0  0  0  0  0  0  0  0  0
    9.4391  -14.5262   21.0671 C   0  0  0  0  0  0  0  0  0  0  0  0
    9.6841  -15.9123   21.6151 C   0  0  2  0  0  0  0  0  0  0  0  0
    8.6036  -16.1374   22.5887 N   0  0  0  0  0  0  0  0  0  0  0  0
   10.9941  -16.1151   22.2194 C   0  0  0  0  0  0  0  0  0  0  0  0
   12.1574  -16.1301   21.4626 O   0  0  0  0  0  0  0  0  0  0  0  0
   11.1146  -16.2833   23.4515 O   0  0  0  0  0  0  0  0  0  0  0  0
  2  1  1  6
  3  2  1  0
  4  5  2  0
  4  3  1  0
  6  5  1  0
  7 12  2  0
  7  6  1  0
  8  7  1  0
  9 10  1  0
  9  8  2  0
 10 11  2  0
 11 12  1  0
 12  4  1  0
 13  2  1  0
 14 13  2  0
 16 15  1  0
 17 16  1  0
 17 18  1  0
 19 18  1  1
 19 20  1  0
 20 13  1  0
 21 19  1  0
 22 21  2  0
 23 24  1  0
 24 25  2  0
 24 26  1  0
 26 27  1  0
 27 28  1  0
 29 28  1  0
 30 29  1  1
 30 31  1  0
 31 21  1  0
 32 30  1  0
 32 33  1  0
 34 32  2  0
M  END
$$$$
