WMR.pdb
     RDKit          3D

 34 35  0  0  1  0  0  0  0  0999 V2000
    7.9065  -15.8704   20.8343 N   0  0  0  0  0  0  0  0  0  0  0  0
    8.4501  -14.6469   21.4090 C   0  0  1  0  0  0  0  0  0  0  0  0
    8.1406  -13.4931   20.4702 C   0  0  0  0  0  0  0  0  0  0  0  0
    8.9075  -13.5180   19.2218 C   0  0  0  0  0  0  0  0  0  0  0  0
    8.4610  -13.3136   17.9371 C   0  0  0  0  0  0  0  0  0  0  0  0
    9.4850  -13.4147   17.0796 N   0  0  0  0  0  0  0  0  0  0  0  0
   10.6129  -13.6865   17.7973 C   0  0  0  0  0  0  0  0  0  0  0  0
   11.9271  -13.8884   17.4346 C   0  0  0  0  0  0  0  0  0  0  0  0
   12.9112  -14.1550   18.3584 C   0  0  0  0  0  0  0  0  0  0  0  0
   12.5505  -14.2203   19.7028 C   0  0  0  0  0  0  0  0  0  0  0  0
   11.2384  -14.0203   20.0760 C   0  0  0  0  0  0  0  0  0  0  0  0
   10.2613  -13.7521   19.1272 C   0  0  0  0  0  0  0  0  0  0  0  0
    7.7618  -14.3514   22.7053 C   0  0  0  0  0  0  0  0  0  0  0  0
    7.1616  -13.2767   22.9294 O   0  0  0  0  0  0  0  0  0  0  0  0
    6.6666  -11.9578   29.3392 C   0  0  0  0  0  0  0  0  0  0  0  0
    6.8520  -12.1684   27.5808 S   0  0  0  0  0  0  0  0  0  0  0  0
    6.4213  -13.7585   26.9857 C   0  0  0  0  0  0  0  0  0  0  0  0
    6.6560  -14.1339   25.5977 C   0  0  0  0  0  0  0  0  0  0  0  0
    7.7249  -14.9854   25.1086 C   0  0  2  0  0  0  0  0  0  0  0  0
    7.7966  -15.3721   23.7525 N   0  0  0  0  0  0  0  0  0  0  0  0
    7.7178  -16.2534   25.9626 C   0  0  0  0  0  0  0  0  0  0  0  0
    6.5983  -16.7001   26.2801 O   0  0  0  0  0  0  0  0  0  0  0  0
   13.1593  -20.7312   24.3464 N   0  0  0  0  0  0  0  0  0  0  0  0
   12.7103  -19.8898   23.3064 C   0  0  0  0  0  0  0  0  0  0  0  0
   13.5766  -19.3312   22.5360 N   0  0  0  0  0  0  0  0  0  0  0  0
   11.3195  -19.6723   23.1250 N   0  0  0  0  0  0  0  0  0  0  0  0
   10.3950  -20.0234   24.1768 C   0  0  0  0  0  0  0  0  0  0  0  0
   10.1617  -18.8721   25.1417 C   0  0  0  0  0  0  0  0  0  0  0  0
    9.1427  -19.2428   26.1932 C   0  0  0  0  0  0  0  0  0  0  0  0
    8.8906  -18.1281   27.1810 C   0  0  2  0  0  0  0  0  0  0  0  0
    8.8857  -16.8955   26.3769 N   0  0  0  0  0  0  0  0  0  0  0  0
    9.8485  -18.0443   28.2755 C   0  0  0  0  0  0  0  0  0  0  0  0
    9.9643  -19.0468   29.2283 O   0  0  0  0  0  0  0  0  0  0  0  0
   10.6055  -17.0573   28.3930 O   0  0  0  0  0  0  0  0  0  0  0  0
  2  1  1  6
  3  2  1  0
  4  5  2  0
  4  3  1  0
  6  5  1  0
  7 12  2  0
  7  6  1  0
  8  7  1  0
  9 10  1  0
  9  8  2  0
 10 11  2  0
 11 12  1  0
 12  4  1  0
 13  2  1  0
 14 13  2  0
 16 15  1  0
 17 16  1  0
 17 18  1  0
 19 18  1  6
 19 20  1  0
 20 13  1  0
 21 19  1  0
 22 21  2  0
 23 24  1  0
 24 25  2  0
 24 26  1  0
 26 27  1  0
 27 28  1  0
 29 28  1  0
 30 29  1  6
 30 31  1  0
 31 21  1  0
 32 30  1  0
 32 33  1  0
 34 32  2  0
M  END
$$$$
