WMR.pdb
     RDKit          3D

 34 35  0  0  1  0  0  0  0  0999 V2000
    6.3160  -19.4026   25.2600 N   0  0  0  0  0  0  0  0  0  0  0  0
    6.7017  -17.9982   25.2992 C   0  0  1  0  0  0  0  0  0  0  0  0
    7.8308  -17.8351   26.3024 C   0  0  0  0  0  0  0  0  0  0  0  0
    7.6001  -16.7808   27.2937 C   0  0  0  0  0  0  0  0  0  0  0  0
    7.0614  -16.8923   28.5543 C   0  0  0  0  0  0  0  0  0  0  0  0
    7.0312  -15.6893   29.1425 N   0  0  0  0  0  0  0  0  0  0  0  0
    7.5510  -14.7783   28.2702 C   0  0  0  0  0  0  0  0  0  0  0  0
    7.7570  -13.4179   28.3499 C   0  0  0  0  0  0  0  0  0  0  0  0
    8.3090  -12.6970   27.3162 C   0  0  0  0  0  0  0  0  0  0  0  0
    8.6664  -13.3803   26.1555 C   0  0  0  0  0  0  0  0  0  0  0  0
    8.4641  -14.7411   26.0656 C   0  0  0  0  0  0  0  0  0  0  0  0
    7.9058  -15.4492   27.1210 C   0  0  0  0  0  0  0  0  0  0  0  0
    7.2412  -17.5877   23.9643 C   0  0  0  0  0  0  0  0  0  0  0  0
    7.5692  -18.4091   23.0793 O   0  0  0  0  0  0  0  0  0  0  0  0
    7.9120  -12.5953   18.0815 C   0  0  0  0  0  0  0  0  0  0  0  0
    7.1668  -13.2718   19.5505 S   0  0  0  0  0  0  0  0  0  0  0  0
    8.3060  -13.7831   20.7789 C   0  0  0  0  0  0  0  0  0  0  0  0
    7.8503  -14.3335   22.0485 C   0  0  0  0  0  0  0  0  0  0  0  0
    7.8674  -15.7334   22.4319 C   0  0  2  0  0  0  0  0  0  0  0  0
    7.3878  -16.1585   23.6900 N   0  0  0  0  0  0  0  0  0  0  0  0
    9.3078  -16.2236   22.2841 C   0  0  0  0  0  0  0  0  0  0  0  0
   10.0631  -16.0218   23.2549 O   0  0  0  0  0  0  0  0  0  0  0  0
    9.1939  -15.0299   15.1657 N   0  0  0  0  0  0  0  0  0  0  0  0
    9.9923  -16.1429   14.8271 C   0  0  0  0  0  0  0  0  0  0  0  0
    9.7633  -16.7640   13.7237 N   0  0  0  0  0  0  0  0  0  0  0  0
   11.0299  -16.5596   15.7014 N   0  0  0  0  0  0  0  0  0  0  0  0
   11.2604  -15.8441   16.9340 C   0  0  0  0  0  0  0  0  0  0  0  0
   10.9336  -16.6881   18.1554 C   0  0  0  0  0  0  0  0  0  0  0  0
   11.0924  -15.8881   19.4267 C   0  0  0  0  0  0  0  0  0  0  0  0
   11.1649  -16.7583   20.6593 C   0  0  2  0  0  0  0  0  0  0  0  0
    9.7770  -16.8651   21.1368 N   0  0  0  0  0  0  0  0  0  0  0  0
   12.0514  -16.2715   21.7079 C   0  0  0  0  0  0  0  0  0  0  0  0
   11.9815  -14.9691   22.1824 O   0  0  0  0  0  0  0  0  0  0  0  0
   12.9119  -17.0184   22.2202 O   0  0  0  0  0  0  0  0  0  0  0  0
  2  1  1  6
  3  2  1  0
  4  5  2  0
  4  3  1  0
  6  5  1  0
  7 12  2  0
  7  6  1  0
  8  7  1  0
  9 10  1  0
  9  8  2  0
 10 11  2  0
 11 12  1  0
 12  4  1  0
 13  2  1  0
 14 13  2  0
 16 15  1  0
 17 16  1  0
 17 18  1  0
 19 18  1  1
 19 20  1  0
 20 13  1  0
 21 19  1  0
 22 21  2  0
 23 24  1  0
 24 25  2  0
 24 26  1  0
 26 27  1  0
 27 28  1  0
 29 28  1  0
 30 29  1  6
 30 31  1  0
 31 21  1  0
 32 30  1  0
 32 33  1  0
 34 32  2  0
M  END
$$$$
