WMR.pdb
     RDKit          3D

 34 35  0  0  1  0  0  0  0  0999 V2000
    7.1108  -17.5756   25.6461 N   0  0  0  0  0  0  0  0  0  0  0  0
    7.2489  -16.3995   24.7972 C   0  0  1  0  0  0  0  0  0  0  0  0
    8.4976  -15.6435   25.2185 C   0  0  0  0  0  0  0  0  0  0  0  0
    8.3097  -14.7906   26.3952 C   0  0  0  0  0  0  0  0  0  0  0  0
    8.9081  -14.8888   27.6297 C   0  0  0  0  0  0  0  0  0  0  0  0
    8.4678  -13.9063   28.4265 N   0  0  0  0  0  0  0  0  0  0  0  0
    7.5758  -13.1549   27.7188 C   0  0  0  0  0  0  0  0  0  0  0  0
    6.8293  -12.0412   28.0380 C   0  0  0  0  0  0  0  0  0  0  0  0
    5.9775  -11.4452   27.1368 C   0  0  0  0  0  0  0  0  0  0  0  0
    5.8771  -11.9988   25.8619 C   0  0  0  0  0  0  0  0  0  0  0  0
    6.6193  -13.1131   25.5328 C   0  0  0  0  0  0  0  0  0  0  0  0
    7.4731  -13.6985   26.4576 C   0  0  0  0  0  0  0  0  0  0  0  0
    7.4554  -16.8261   23.3770 C   0  0  0  0  0  0  0  0  0  0  0  0
    7.4849  -18.0257   23.0227 O   0  0  0  0  0  0  0  0  0  0  0  0
    8.2434  -10.9347   20.3658 C   0  0  0  0  0  0  0  0  0  0  0  0
    8.6247  -12.6547   20.1072 S   0  0  0  0  0  0  0  0  0  0  0  0
    7.2382  -13.7245   20.1447 C   0  0  0  0  0  0  0  0  0  0  0  0
    7.3884  -15.1614   19.9568 C   0  0  0  0  0  0  0  0  0  0  0  0
    7.6535  -16.1391   20.9963 C   0  0  2  0  0  0  0  0  0  0  0  0
    7.6290  -15.7862   22.3632 N   0  0  0  0  0  0  0  0  0  0  0  0
    9.0164  -16.7617   20.6926 C   0  0  0  0  0  0  0  0  0  0  0  0
    9.1474  -17.2848   19.5689 O   0  0  0  0  0  0  0  0  0  0  0  0
   14.4007  -15.6887   17.0412 N   0  0  0  0  0  0  0  0  0  0  0  0
   15.1002  -15.1984   18.1643 C   0  0  0  0  0  0  0  0  0  0  0  0
   16.3737  -15.3704   18.2316 N   0  0  0  0  0  0  0  0  0  0  0  0
   14.3953  -14.5268   19.1972 N   0  0  0  0  0  0  0  0  0  0  0  0
   12.9576  -14.4145   19.1291 C   0  0  0  0  0  0  0  0  0  0  0  0
   12.2653  -15.7328   19.4355 C   0  0  0  0  0  0  0  0  0  0  0  0
   12.2039  -15.9808   20.9242 C   0  0  0  0  0  0  0  0  0  0  0  0
   11.4280  -17.2279   21.2770 C   0  0  2  0  0  0  0  0  0  0  0  0
   10.0725  -16.7577   21.6050 N   0  0  0  0  0  0  0  0  0  0  0  0
   11.9921  -18.0202   22.3617 C   0  0  0  0  0  0  0  0  0  0  0  0
   13.1333  -18.7914   22.1911 O   0  0  0  0  0  0  0  0  0  0  0  0
   11.4619  -18.0310   23.4930 O   0  0  0  0  0  0  0  0  0  0  0  0
  2  1  1  1
  3  2  1  0
  4  5  2  0
  4  3  1  0
  6  5  1  0
  7 12  2  0
  7  6  1  0
  8  7  1  0
  9 10  1  0
  9  8  2  0
 10 11  2  0
 11 12  1  0
 12  4  1  0
 13  2  1  0
 14 13  2  0
 16 15  1  0
 17 16  1  0
 17 18  1  0
 19 18  1  6
 19 20  1  0
 20 13  1  0
 21 19  1  0
 22 21  2  0
 23 24  1  0
 24 25  2  0
 24 26  1  0
 26 27  1  0
 27 28  1  0
 29 28  1  0
 30 29  1  1
 30 31  1  0
 31 21  1  0
 32 30  1  0
 32 33  1  0
 34 32  2  0
M  END
$$$$
