WMR.pdb
     RDKit          3D

 34 35  0  0  1  0  0  0  0  0999 V2000
    6.4967  -18.7942   25.5605 N   0  0  0  0  0  0  0  0  0  0  0  0
    6.8683  -17.4098   25.2991 C   0  0  1  0  0  0  0  0  0  0  0  0
    8.0764  -17.0643   26.1530 C   0  0  0  0  0  0  0  0  0  0  0  0
    7.8133  -16.0475   27.1748 C   0  0  0  0  0  0  0  0  0  0  0  0
    7.5012  -16.2267   28.5022 C   0  0  0  0  0  0  0  0  0  0  0  0
    7.3451  -15.0363   29.0961 N   0  0  0  0  0  0  0  0  0  0  0  0
    7.5542  -14.0657   28.1604 C   0  0  0  0  0  0  0  0  0  0  0  0
    7.5221  -12.6891   28.2166 C   0  0  0  0  0  0  0  0  0  0  0  0
    7.7722  -11.9032   27.1153 C   0  0  0  0  0  0  0  0  0  0  0  0
    8.0660  -12.5361   25.9091 C   0  0  0  0  0  0  0  0  0  0  0  0
    8.1002  -13.9127   25.8422 C   0  0  0  0  0  0  0  0  0  0  0  0
    7.8450  -14.6867   26.9660 C   0  0  0  0  0  0  0  0  0  0  0  0
    7.2881  -17.2635   23.8694 C   0  0  0  0  0  0  0  0  0  0  0  0
    7.6297  -18.2331   23.1563 O   0  0  0  0  0  0  0  0  0  0  0  0
    7.8336  -12.6029   17.3828 C   0  0  0  0  0  0  0  0  0  0  0  0
    7.5051  -12.6652   19.1318 S   0  0  0  0  0  0  0  0  0  0  0  0
    7.9759  -14.1616   19.9110 C   0  0  0  0  0  0  0  0  0  0  0  0
    7.5492  -14.4720   21.2690 C   0  0  0  0  0  0  0  0  0  0  0  0
    7.7210  -15.7406   21.9531 C   0  0  2  0  0  0  0  0  0  0  0  0
    7.2955  -15.9217   23.2872 N   0  0  0  0  0  0  0  0  0  0  0  0
    9.2058  -16.0962   21.8774 C   0  0  0  0  0  0  0  0  0  0  0  0
    9.9723  -15.4267   22.5971 O   0  0  0  0  0  0  0  0  0  0  0  0
   11.5425  -17.3552   15.1078 N   0  0  0  0  0  0  0  0  0  0  0  0
   10.2920  -16.7022   15.0855 C   0  0  0  0  0  0  0  0  0  0  0  0
    9.4631  -16.9711   14.1385 N   0  0  0  0  0  0  0  0  0  0  0  0
    9.9669  -15.7644   16.1002 N   0  0  0  0  0  0  0  0  0  0  0  0
   10.8531  -15.5896   17.2263 C   0  0  0  0  0  0  0  0  0  0  0  0
   10.5778  -16.5951   18.3328 C   0  0  0  0  0  0  0  0  0  0  0  0
   11.3461  -16.2475   19.5859 C   0  0  0  0  0  0  0  0  0  0  0  0
   11.1244  -17.2414   20.7016 C   0  0  2  0  0  0  0  0  0  0  0  0
    9.7023  -17.1101   21.0567 N   0  0  0  0  0  0  0  0  0  0  0  0
   11.9812  -17.0638   21.8665 C   0  0  0  0  0  0  0  0  0  0  0  0
   12.7138  -15.9026   22.0690 O   0  0  0  0  0  0  0  0  0  0  0  0
   12.0849  -17.9601   22.7307 O   0  0  0  0  0  0  0  0  0  0  0  0
  2  1  1  6
  3  2  1  0
  4  5  2  0
  4  3  1  0
  6  5  1  0
  7 12  2  0
  7  6  1  0
  8  7  1  0
  9 10  1  0
  9  8  2  0
 10 11  2  0
 11 12  1  0
 12  4  1  0
 13  2  1  0
 14 13  2  0
 16 15  1  0
 17 16  1  0
 17 18  1  0
 19 18  1  1
 19 20  1  0
 20 13  1  0
 21 19  1  0
 22 21  2  0
 23 24  1  0
 24 25  2  0
 24 26  1  0
 26 27  1  0
 27 28  1  0
 29 28  1  0
 30 29  1  6
 30 31  1  0
 31 21  1  0
 32 30  1  0
 32 33  1  0
 34 32  2  0
M  END
$$$$
