WMR.pdb
     RDKit          3D

 34 35  0  0  1  0  0  0  0  0999 V2000
    8.5469  -17.2805   21.5882 N   0  0  0  0  0  0  0  0  0  0  0  0
    9.5564  -16.2713   21.8801 C   0  0  1  0  0  0  0  0  0  0  0  0
    8.8597  -14.9375   22.0894 C   0  0  0  0  0  0  0  0  0  0  0  0
    7.9258  -14.5781   21.0189 C   0  0  0  0  0  0  0  0  0  0  0  0
    6.6820  -15.1022   20.7544 C   0  0  0  0  0  0  0  0  0  0  0  0
    6.1498  -14.4910   19.6880 N   0  0  0  0  0  0  0  0  0  0  0  0
    7.0425  -13.5596   19.2445 C   0  0  0  0  0  0  0  0  0  0  0  0
    7.0164  -12.6611   18.1998 C   0  0  0  0  0  0  0  0  0  0  0  0
    8.0605  -11.8026   17.9434 C   0  0  0  0  0  0  0  0  0  0  0  0
    9.1756  -11.8560   18.7774 C   0  0  0  0  0  0  0  0  0  0  0  0
    9.2117  -12.7516   19.8251 C   0  0  0  0  0  0  0  0  0  0  0  0
    8.1468  -13.6087   20.0661 C   0  0  0  0  0  0  0  0  0  0  0  0
   10.2479  -16.6088   23.1644 C   0  0  0  0  0  0  0  0  0  0  0  0
   11.4917  -16.5815   23.2969 O   0  0  0  0  0  0  0  0  0  0  0  0
    9.9116  -12.9390   29.4225 C   0  0  0  0  0  0  0  0  0  0  0  0
    9.8422  -13.5985   27.7699 S   0  0  0  0  0  0  0  0  0  0  0  0
    8.8372  -15.0221   27.5926 C   0  0  0  0  0  0  0  0  0  0  0  0
    8.6715  -15.6726   26.2996 C   0  0  0  0  0  0  0  0  0  0  0  0
    9.6866  -16.4185   25.5785 C   0  0  2  0  0  0  0  0  0  0  0  0
    9.4237  -16.9858   24.3125 N   0  0  0  0  0  0  0  0  0  0  0  0
   10.1704  -17.5336   26.5056 C   0  0  0  0  0  0  0  0  0  0  0  0
    9.7523  -17.4974   27.6793 O   0  0  0  0  0  0  0  0  0  0  0  0
   16.0757  -21.2757   22.1892 N   0  0  0  0  0  0  0  0  0  0  0  0
   15.5620  -20.5707   23.2982 C   0  0  0  0  0  0  0  0  0  0  0  0
   15.4393  -19.2918   23.2238 N   0  0  0  0  0  0  0  0  0  0  0  0
   15.1899  -21.2758   24.4725 N   0  0  0  0  0  0  0  0  0  0  0  0
   14.5478  -20.5735   25.5581 C   0  0  0  0  0  0  0  0  0  0  0  0
   13.1778  -20.0437   25.1662 C   0  0  0  0  0  0  0  0  0  0  0  0
   12.0926  -20.6648   26.0135 C   0  0  0  0  0  0  0  0  0  0  0  0
   11.4389  -19.6719   26.9455 C   0  0  2  0  0  0  0  0  0  0  0  0
   11.0322  -18.5483   26.0865 N   0  0  0  0  0  0  0  0  0  0  0  0
   12.2734  -19.2202   28.0509 C   0  0  0  0  0  0  0  0  0  0  0  0
   12.7183  -17.9091   28.1471 O   0  0  0  0  0  0  0  0  0  0  0  0
   12.6189  -20.0065   28.9584 O   0  0  0  0  0  0  0  0  0  0  0  0
  2  1  1  1
  3  2  1  0
  4  5  2  0
  4  3  1  0
  6  5  1  0
  7 12  2  0
  7  6  1  0
  8  7  1  0
  9 10  1  0
  9  8  2  0
 10 11  2  0
 11 12  1  0
 12  4  1  0
 13  2  1  0
 14 13  2  0
 16 15  1  0
 17 16  1  0
 17 18  1  0
 19 18  1  1
 19 20  1  0
 20 13  1  0
 21 19  1  0
 22 21  2  0
 23 24  1  0
 24 25  2  0
 24 26  1  0
 26 27  1  0
 27 28  1  0
 29 28  1  0
 30 29  1  6
 30 31  1  0
 31 21  1  0
 32 30  1  0
 32 33  1  0
 34 32  2  0
M  END
$$$$
