WMR.pdb
     RDKit          3D

 34 35  0  0  1  0  0  0  0  0999 V2000
    7.5758  -18.3582   21.7409 N   0  0  0  0  0  0  0  0  0  0  0  0
    7.8654  -16.9537   21.4835 C   0  0  1  0  0  0  0  0  0  0  0  0
    6.8225  -16.4140   20.5195 C   0  0  0  0  0  0  0  0  0  0  0  0
    7.3481  -15.4462   19.5529 C   0  0  0  0  0  0  0  0  0  0  0  0
    7.5882  -15.6199   18.2098 C   0  0  0  0  0  0  0  0  0  0  0  0
    8.0622  -14.4832   17.6832 N   0  0  0  0  0  0  0  0  0  0  0  0
    8.1364  -13.5539   18.6791 C   0  0  0  0  0  0  0  0  0  0  0  0
    8.5468  -12.2384   18.7030 C   0  0  0  0  0  0  0  0  0  0  0  0
    8.5320  -11.4854   19.8544 C   0  0  0  0  0  0  0  0  0  0  0  0
    8.0843  -12.0881   21.0284 C   0  0  0  0  0  0  0  0  0  0  0  0
    7.6720  -13.4037   21.0151 C   0  0  0  0  0  0  0  0  0  0  0  0
    7.6948  -14.1452   19.8419 C   0  0  0  0  0  0  0  0  0  0  0  0
    7.7318  -16.1720   22.7534 C   0  0  0  0  0  0  0  0  0  0  0  0
    7.4708  -14.9486   22.7770 O   0  0  0  0  0  0  0  0  0  0  0  0
    6.5494  -11.6045   26.8461 C   0  0  0  0  0  0  0  0  0  0  0  0
    7.9928  -12.6411   26.9600 S   0  0  0  0  0  0  0  0  0  0  0  0
    7.6609  -14.3608   26.9417 C   0  0  0  0  0  0  0  0  0  0  0  0
    7.4596  -15.0772   25.6892 C   0  0  0  0  0  0  0  0  0  0  0  0
    8.2829  -16.1575   25.1773 C   0  0  2  0  0  0  0  0  0  0  0  0
    7.9156  -16.8792   24.0206 N   0  0  0  0  0  0  0  0  0  0  0  0
    8.4750  -17.1573   26.3178 C   0  0  0  0  0  0  0  0  0  0  0  0
    7.4367  -17.5897   26.8549 O   0  0  0  0  0  0  0  0  0  0  0  0
   13.6053  -22.5180   24.1196 N   0  0  0  0  0  0  0  0  0  0  0  0
   13.9407  -21.2070   24.5189 C   0  0  0  0  0  0  0  0  0  0  0  0
   15.1389  -20.7808   24.3220 N   0  0  0  0  0  0  0  0  0  0  0  0
   12.9596  -20.3815   25.1278 N   0  0  0  0  0  0  0  0  0  0  0  0
   11.6193  -20.8824   25.3198 C   0  0  0  0  0  0  0  0  0  0  0  0
   10.6741  -19.8069   25.8309 C   0  0  0  0  0  0  0  0  0  0  0  0
   10.8495  -19.5906   27.3154 C   0  0  0  0  0  0  0  0  0  0  0  0
    9.9295  -18.5250   27.8632 C   0  0  2  0  0  0  0  0  0  0  0  0
    9.7321  -17.5796   26.7528 N   0  0  0  0  0  0  0  0  0  0  0  0
   10.4125  -17.8467   29.0586 C   0  0  0  0  0  0  0  0  0  0  0  0
   10.4308  -18.4689   30.2991 O   0  0  0  0  0  0  0  0  0  0  0  0
   10.8311  -16.6707   29.0056 O   0  0  0  0  0  0  0  0  0  0  0  0
  2  1  1  1
  3  2  1  0
  4  5  2  0
  4  3  1  0
  6  5  1  0
  7 12  2  0
  7  6  1  0
  8  7  1  0
  9 10  1  0
  9  8  2  0
 10 11  2  0
 11 12  1  0
 12  4  1  0
 13  2  1  0
 14 13  2  0
 16 15  1  0
 17 16  1  0
 17 18  1  0
 19 18  1  1
 19 20  1  0
 20 13  1  0
 21 19  1  0
 22 21  2  0
 23 24  1  0
 24 25  2  0
 24 26  1  0
 26 27  1  0
 27 28  1  0
 29 28  1  0
 30 29  1  6
 30 31  1  0
 31 21  1  0
 32 30  1  0
 32 33  1  0
 34 32  2  0
M  END
$$$$
