VII.pdb
     RDKit          3D

 24 23  0  0  1  0  0  0  0  0999 V2000
   20.0120  -19.0504  -16.9963 C   0  0  0  0  0  0  0  0  0  0  0  0
   20.4787  -20.0634  -15.9749 C   0  0  1  0  0  0  0  0  0  0  0  0
   20.0896  -21.4416  -16.3631 C   0  0  0  0  0  0  0  0  0  0  0  0
   21.9162  -19.8601  -15.6098 C   0  0  2  0  0  0  0  0  0  0  0  0
   22.2086  -20.7893  -14.5274 N   0  0  0  0  0  0  0  0  0  0  0  0
   22.2766  -18.4961  -15.1933 C   0  0  0  0  0  0  0  0  0  0  0  0
   21.7732  -18.0355  -14.1254 O   0  0  0  0  0  0  0  0  0  0  0  0
   26.6493  -14.3013  -15.0987 C   0  0  0  0  0  0  0  0  0  0  0  0
   25.1530  -14.5707  -15.0200 C   0  0  0  0  0  0  0  0  0  0  0  0
   24.8835  -15.9662  -15.5322 C   0  0  2  0  0  0  0  0  0  0  0  0
   25.4753  -16.2160  -16.8783 C   0  0  0  0  0  0  0  0  0  0  0  0
   23.3906  -16.2540  -15.4922 C   0  0  2  0  0  0  0  0  0  0  0  0
   23.1547  -17.6203  -15.8832 N   0  0  0  0  0  0  0  0  0  0  0  0
   22.7171  -15.2517  -16.3446 C   0  0  0  0  0  0  0  0  0  0  0  0
   22.8083  -15.3791  -17.5997 O   0  0  0  0  0  0  0  0  0  0  0  0
   17.5735  -13.2256  -17.9818 C   0  0  0  0  0  0  0  0  0  0  0  0
   19.0030  -12.8172  -17.8411 C   0  0  0  0  0  0  0  0  0  0  0  0
   19.8081  -13.5924  -16.8608 C   0  0  2  0  0  0  0  0  0  0  0  0
   19.1623  -13.5616  -15.4701 C   0  0  0  0  0  0  0  0  0  0  0  0
   21.2543  -13.2628  -16.8008 C   0  0  2  0  0  0  0  0  0  0  0  0
   21.9700  -14.1475  -15.8796 N   0  0  0  0  0  0  0  0  0  0  0  0
   21.4822  -11.8451  -16.5256 C   0  0  0  0  0  0  0  0  0  0  0  0
   21.1762  -10.9081  -17.5217 O   0  0  0  0  0  0  0  0  0  0  0  0
   21.9372  -11.4036  -15.4445 O   0  0  0  0  0  0  0  0  0  0  0  0
  2  1  1  6
  2  4  1  0
  3  2  1  0
  4  6  1  0
  4  5  1  1
  6  7  2  0
  9  8  1  0
  9 10  1  0
 10 11  1  6
 12 10  1  0
 12 13  1  6
 13  6  1  0
 14 15  2  0
 14 12  1  0
 16 17  1  0
 17 18  1  0
 18 20  1  0
 18 19  1  1
 20 21  1  1
 21 14  1  0
 22 20  1  0
 22 23  1  0
 24 22  2  0
M  END
$$$$
