VII.pdb
     RDKit          3D

 24 23  0  0  1  0  0  0  0  0999 V2000
   22.9127  -21.7943  -13.5601 C   0  0  0  0  0  0  0  0  0  0  0  0
   21.9416  -20.9012  -12.8207 C   0  0  1  0  0  0  0  0  0  0  0  0
   20.7778  -21.6698  -12.3147 C   0  0  0  0  0  0  0  0  0  0  0  0
   22.6399  -20.0269  -11.8262 C   0  0  2  0  0  0  0  0  0  0  0  0
   23.3208  -18.9886  -12.5869 N   0  0  0  0  0  0  0  0  0  0  0  0
   23.6090  -20.7088  -10.9545 C   0  0  0  0  0  0  0  0  0  0  0  0
   23.2293  -21.7312  -10.3092 O   0  0  0  0  0  0  0  0  0  0  0  0
   29.1289  -20.9165  -11.8038 C   0  0  0  0  0  0  0  0  0  0  0  0
   27.9092  -20.3615  -11.0812 C   0  0  0  0  0  0  0  0  0  0  0  0
   27.0627  -21.5166  -10.6001 C   0  0  2  0  0  0  0  0  0  0  0  0
   26.6841  -22.4559  -11.6952 C   0  0  0  0  0  0  0  0  0  0  0  0
   25.8533  -20.9926   -9.8412 C   0  0  2  0  0  0  0  0  0  0  0  0
   24.9621  -20.3288  -10.7579 N   0  0  0  0  0  0  0  0  0  0  0  0
   26.3488  -20.1344   -8.7445 C   0  0  0  0  0  0  0  0  0  0  0  0
   26.1680  -18.8860   -8.8366 O   0  0  0  0  0  0  0  0  0  0  0  0
   26.7265  -21.4447   -3.2935 C   0  0  0  0  0  0  0  0  0  0  0  0
   26.5311  -20.7226   -4.5860 C   0  0  0  0  0  0  0  0  0  0  0  0
   27.7706  -20.2930   -5.2856 C   0  0  2  0  0  0  0  0  0  0  0  0
   28.6557  -19.4424   -4.3663 C   0  0  0  0  0  0  0  0  0  0  0  0
   27.5809  -19.6515   -6.6108 C   0  0  2  0  0  0  0  0  0  0  0  0
   27.0163  -20.5868   -7.5854 N   0  0  0  0  0  0  0  0  0  0  0  0
   28.8012  -18.9997   -7.0838 C   0  0  0  0  0  0  0  0  0  0  0  0
   29.0882  -17.7027   -6.6375 O   0  0  0  0  0  0  0  0  0  0  0  0
   29.6206  -19.5290   -7.8706 O   0  0  0  0  0  0  0  0  0  0  0  0
  2  1  1  1
  2  4  1  0
  3  2  1  0
  4  6  1  0
  4  5  1  6
  6  7  2  0
  9  8  1  0
  9 10  1  0
 10 11  1  6
 12 10  1  0
 12 13  1  6
 13  6  1  0
 14 15  2  0
 14 12  1  0
 16 17  1  0
 17 18  1  0
 18 20  1  0
 18 19  1  1
 20 21  1  6
 21 14  1  0
 22 20  1  0
 22 23  1  0
 24 22  2  0
M  END
$$$$
