VII.pdb
     RDKit          3D

 24 23  0  0  1  0  0  0  0  0999 V2000
   23.6992  -14.0290  -16.6284 C   0  0  0  0  0  0  0  0  0  0  0  0
   23.5815  -15.4980  -16.2887 C   0  0  1  0  0  0  0  0  0  0  0  0
   23.2000  -16.2992  -17.4777 C   0  0  0  0  0  0  0  0  0  0  0  0
   24.7678  -15.9847  -15.5160 C   0  0  2  0  0  0  0  0  0  0  0  0
   25.9405  -15.7162  -16.3363 N   0  0  0  0  0  0  0  0  0  0  0  0
   24.7436  -17.4093  -15.1500 C   0  0  0  0  0  0  0  0  0  0  0  0
   23.6217  -17.9682  -14.9635 O   0  0  0  0  0  0  0  0  0  0  0  0
   26.9203  -21.3098  -17.7477 C   0  0  0  0  0  0  0  0  0  0  0  0
   26.1147  -20.3748  -16.8563 C   0  0  0  0  0  0  0  0  0  0  0  0
   26.6216  -20.4994  -15.4386 C   0  0  2  0  0  0  0  0  0  0  0  0
   26.6744  -21.9117  -14.9619 C   0  0  0  0  0  0  0  0  0  0  0  0
   25.8070  -19.6058  -14.5161 C   0  0  2  0  0  0  0  0  0  0  0  0
   25.8787  -18.2440  -14.9808 N   0  0  0  0  0  0  0  0  0  0  0  0
   26.3071  -19.8067  -13.1398 C   0  0  0  0  0  0  0  0  0  0  0  0
   27.5394  -19.6244  -12.9209 O   0  0  0  0  0  0  0  0  0  0  0  0
   26.1040  -17.6973   -8.6227 C   0  0  0  0  0  0  0  0  0  0  0  0
   26.5505  -18.6467   -9.6853 C   0  0  0  0  0  0  0  0  0  0  0  0
   25.9525  -20.0070   -9.6362 C   0  0  2  0  0  0  0  0  0  0  0  0
   26.3984  -20.7599   -8.3768 C   0  0  0  0  0  0  0  0  0  0  0  0
   26.1178  -20.8350  -10.8571 C   0  0  2  0  0  0  0  0  0  0  0  0
   25.5236  -20.1898  -12.0293 N   0  0  0  0  0  0  0  0  0  0  0  0
   25.6471  -22.2049  -10.6579 C   0  0  0  0  0  0  0  0  0  0  0  0
   26.4282  -23.0806   -9.8920 O   0  0  0  0  0  0  0  0  0  0  0  0
   24.5774  -22.6558  -11.1304 O   0  0  0  0  0  0  0  0  0  0  0  0
  2  1  1  6
  2  4  1  0
  3  2  1  0
  4  6  1  0
  4  5  1  6
  6  7  2  0
  9  8  1  0
  9 10  1  0
 10 11  1  1
 12 10  1  0
 12 13  1  6
 13  6  1  0
 14 15  2  0
 14 12  1  0
 16 17  1  0
 17 18  1  0
 18 20  1  0
 18 19  1  1
 20 21  1  6
 21 14  1  0
 22 20  1  0
 22 23  1  0
 24 22  2  0
M  END
$$$$
