VII.pdb
     RDKit          3D

 24 23  0  0  1  0  0  0  0  0999 V2000
   19.1928  -21.3937  -12.0835 C   0  0  0  0  0  0  0  0  0  0  0  0
   20.5107  -20.6665  -11.9358 C   0  0  1  0  0  0  0  0  0  0  0  0
   21.3509  -21.2793  -10.8777 C   0  0  0  0  0  0  0  0  0  0  0  0
   21.1724  -20.4446  -13.2602 C   0  0  2  0  0  0  0  0  0  0  0  0
   21.3025  -21.7523  -13.8875 N   0  0  0  0  0  0  0  0  0  0  0  0
   22.4910  -19.7947  -13.2079 C   0  0  0  0  0  0  0  0  0  0  0  0
   22.5634  -18.6039  -12.7804 O   0  0  0  0  0  0  0  0  0  0  0  0
   26.7407  -22.2532  -11.3144 C   0  0  0  0  0  0  0  0  0  0  0  0
   25.6786  -21.2450  -11.7308 C   0  0  0  0  0  0  0  0  0  0  0  0
   26.0669  -20.6544  -13.0660 C   0  0  2  0  0  0  0  0  0  0  0  0
   27.4209  -20.0288  -13.0535 C   0  0  0  0  0  0  0  0  0  0  0  0
   24.9882  -19.6935  -13.5415 C   0  0  2  0  0  0  0  0  0  0  0  0
   23.7235  -20.3811  -13.5969 N   0  0  0  0  0  0  0  0  0  0  0  0
   25.4299  -19.1262  -14.8330 C   0  0  0  0  0  0  0  0  0  0  0  0
   25.2298  -19.8046  -15.8815 O   0  0  0  0  0  0  0  0  0  0  0  0
   25.9201  -13.7292  -15.2914 C   0  0  0  0  0  0  0  0  0  0  0  0
   25.5463  -15.0970  -15.7598 C   0  0  0  0  0  0  0  0  0  0  0  0
   26.6499  -15.9143  -16.3295 C   0  0  2  0  0  0  0  0  0  0  0  0
   27.0605  -15.3975  -17.7138 C   0  0  0  0  0  0  0  0  0  0  0  0
   26.4364  -17.3833  -16.3341 C   0  0  2  0  0  0  0  0  0  0  0  0
   26.0650  -17.8771  -15.0068 N   0  0  0  0  0  0  0  0  0  0  0  0
   27.5710  -18.1001  -16.9143 C   0  0  0  0  0  0  0  0  0  0  0  0
   27.4576  -18.5961  -18.2200 O   0  0  0  0  0  0  0  0  0  0  0  0
   28.6538  -18.3030  -16.3167 O   0  0  0  0  0  0  0  0  0  0  0  0
  2  1  1  6
  2  4  1  0
  3  2  1  0
  4  6  1  0
  4  5  1  1
  6  7  2  0
  9  8  1  0
  9 10  1  0
 10 11  1  1
 12 10  1  0
 12 13  1  6
 13  6  1  0
 14 15  2  0
 14 12  1  0
 16 17  1  0
 17 18  1  0
 18 20  1  0
 18 19  1  6
 20 21  1  1
 21 14  1  0
 22 20  1  0
 22 23  1  0
 24 22  2  0
M  END
$$$$
