VII.pdb
     RDKit          3D

 24 23  0  0  1  0  0  0  0  0999 V2000
   28.7722  -17.3719  -16.8704 C   0  0  0  0  0  0  0  0  0  0  0  0
   27.6551  -18.0615  -16.1195 C   0  0  1  0  0  0  0  0  0  0  0  0
   26.7550  -18.7953  -17.0429 C   0  0  0  0  0  0  0  0  0  0  0  0
   28.1711  -18.8344  -14.9457 C   0  0  2  0  0  0  0  0  0  0  0  0
   28.4163  -20.1915  -15.4131 N   0  0  0  0  0  0  0  0  0  0  0  0
   27.2825  -18.8744  -13.7741 C   0  0  0  0  0  0  0  0  0  0  0  0
   27.0295  -17.7906  -13.1680 O   0  0  0  0  0  0  0  0  0  0  0  0
   22.0226  -21.3064  -12.4596 C   0  0  0  0  0  0  0  0  0  0  0  0
   23.2213  -20.5739  -11.8727 C   0  0  0  0  0  0  0  0  0  0  0  0
   24.4117  -20.7880  -12.7779 C   0  0  2  0  0  0  0  0  0  0  0  0
   24.7335  -22.2298  -12.9842 C   0  0  0  0  0  0  0  0  0  0  0  0
   25.6035  -19.9954  -12.2637 C   0  0  2  0  0  0  0  0  0  0  0  0
   26.6625  -20.0336  -13.2396 N   0  0  0  0  0  0  0  0  0  0  0  0
   25.9727  -20.5461  -10.9426 C   0  0  0  0  0  0  0  0  0  0  0  0
   26.7080  -21.5747  -10.9101 O   0  0  0  0  0  0  0  0  0  0  0  0
   28.9143  -18.7841   -7.1272 C   0  0  0  0  0  0  0  0  0  0  0  0
   28.1070  -19.7312   -7.9527 C   0  0  0  0  0  0  0  0  0  0  0  0
   26.6941  -19.9211   -7.5308 C   0  0  2  0  0  0  0  0  0  0  0  0
   26.6138  -20.4261   -6.0850 C   0  0  0  0  0  0  0  0  0  0  0  0
   25.8460  -20.7301   -8.4418 C   0  0  2  0  0  0  0  0  0  0  0  0
   25.5736  -20.0217   -9.6938 N   0  0  0  0  0  0  0  0  0  0  0  0
   24.6336  -21.2095   -7.7801 C   0  0  0  0  0  0  0  0  0  0  0  0
   23.3971  -20.6820   -8.1758 O   0  0  0  0  0  0  0  0  0  0  0  0
   24.6236  -22.0730   -6.8718 O   0  0  0  0  0  0  0  0  0  0  0  0
  2  1  1  6
  2  4  1  0
  3  2  1  0
  4  6  1  0
  4  5  1  6
  6  7  2  0
  9  8  1  0
  9 10  1  0
 10 11  1  1
 12 10  1  0
 12 13  1  6
 13  6  1  0
 14 15  2  0
 14 12  1  0
 16 17  1  0
 17 18  1  0
 18 20  1  0
 18 19  1  1
 20 21  1  6
 21 14  1  0
 22 20  1  0
 22 23  1  0
 24 22  2  0
M  END
$$$$
