VII.pdb
     RDKit          3D

 24 23  0  0  1  0  0  0  0  0999 V2000
   26.4092  -18.1765  -15.7130 C   0  0  0  0  0  0  0  0  0  0  0  0
   27.4057  -19.2111  -16.1862 C   0  0  1  0  0  0  0  0  0  0  0  0
   28.4915  -18.5907  -16.9846 C   0  0  0  0  0  0  0  0  0  0  0  0
   27.8367  -20.1150  -15.0734 C   0  0  2  0  0  0  0  0  0  0  0  0
   28.6117  -21.1874  -15.6814 N   0  0  0  0  0  0  0  0  0  0  0  0
   26.7484  -20.6936  -14.2704 C   0  0  0  0  0  0  0  0  0  0  0  0
   26.0328  -21.6038  -14.7857 O   0  0  0  0  0  0  0  0  0  0  0  0
   26.8175  -20.5950   -8.7525 C   0  0  0  0  0  0  0  0  0  0  0  0
   26.6721  -21.0621  -10.1942 C   0  0  0  0  0  0  0  0  0  0  0  0
   25.3863  -20.5040  -10.7578 C   0  0  2  0  0  0  0  0  0  0  0  0
   24.1827  -20.9167   -9.9795 C   0  0  0  0  0  0  0  0  0  0  0  0
   25.2714  -20.8547  -12.2333 C   0  0  2  0  0  0  0  0  0  0  0  0
   26.4095  -20.3274  -12.9419 N   0  0  0  0  0  0  0  0  0  0  0  0
   23.9677  -20.3511  -12.7143 C   0  0  0  0  0  0  0  0  0  0  0  0
   23.7558  -19.1050  -12.6666 O   0  0  0  0  0  0  0  0  0  0  0  0
   20.6408  -19.7172  -17.3961 C   0  0  0  0  0  0  0  0  0  0  0  0
   20.5373  -19.9131  -15.9193 C   0  0  0  0  0  0  0  0  0  0  0  0
   21.7184  -20.5303  -15.2601 C   0  0  2  0  0  0  0  0  0  0  0  0
   22.0080  -21.9210  -15.8381 C   0  0  0  0  0  0  0  0  0  0  0  0
   21.7008  -20.5465  -13.7759 C   0  0  2  0  0  0  0  0  0  0  0  0
   22.9202  -21.1452  -13.2299 N   0  0  0  0  0  0  0  0  0  0  0  0
   20.4797  -21.1540  -13.2490 C   0  0  0  0  0  0  0  0  0  0  0  0
   20.5673  -22.4003  -12.6143 O   0  0  0  0  0  0  0  0  0  0  0  0
   19.3443  -20.6289  -13.3256 O   0  0  0  0  0  0  0  0  0  0  0  0
  2  1  1  1
  2  4  1  0
  3  2  1  0
  4  6  1  0
  4  5  1  6
  6  7  2  0
  9  8  1  0
  9 10  1  0
 10 11  1  1
 12 10  1  0
 12 13  1  6
 13  6  1  0
 14 15  2  0
 14 12  1  0
 16 17  1  0
 17 18  1  0
 18 20  1  0
 18 19  1  6
 20 21  1  6
 21 14  1  0
 22 20  1  0
 22 23  1  0
 24 22  2  0
M  END
$$$$
