VII.pdb
     RDKit          3D

 24 23  0  0  1  0  0  0  0  0999 V2000
   21.0867  -19.2753  -12.0267 C   0  0  0  0  0  0  0  0  0  0  0  0
   22.1633  -19.8211  -11.1155 C   0  0  1  0  0  0  0  0  0  0  0  0
   21.5826  -20.6333  -10.0180 C   0  0  0  0  0  0  0  0  0  0  0  0
   23.2758  -20.4558  -11.8906 C   0  0  2  0  0  0  0  0  0  0  0  0
   22.6810  -21.5303  -12.6730 N   0  0  0  0  0  0  0  0  0  0  0  0
   24.3825  -20.9936  -11.0844 C   0  0  0  0  0  0  0  0  0  0  0  0
   24.2379  -22.1267  -10.5358 O   0  0  0  0  0  0  0  0  0  0  0  0
   29.2210  -21.4169  -12.7371 C   0  0  0  0  0  0  0  0  0  0  0  0
   27.8830  -21.5346  -12.0205 C   0  0  0  0  0  0  0  0  0  0  0  0
   27.9899  -20.8510  -10.6775 C   0  0  2  0  0  0  0  0  0  0  0  0
   29.0870  -21.4018   -9.8303 C   0  0  0  0  0  0  0  0  0  0  0  0
   26.6425  -20.8792   -9.9725 C   0  0  2  0  0  0  0  0  0  0  0  0
   25.6292  -20.3563  -10.8529 N   0  0  0  0  0  0  0  0  0  0  0  0
   26.7856  -20.1390   -8.7011 C   0  0  0  0  0  0  0  0  0  0  0  0
   26.4953  -18.9079   -8.6923 O   0  0  0  0  0  0  0  0  0  0  0  0
   28.6576  -20.6200   -2.7278 C   0  0  0  0  0  0  0  0  0  0  0  0
   27.9163  -19.9285   -3.8243 C   0  0  0  0  0  0  0  0  0  0  0  0
   27.8304  -20.6613   -5.1150 C   0  0  2  0  0  0  0  0  0  0  0  0
   29.0959  -21.4915   -5.3626 C   0  0  0  0  0  0  0  0  0  0  0  0
   27.4678  -19.8476   -6.3024 C   0  0  2  0  0  0  0  0  0  0  0  0
   27.2237  -20.6880   -7.4762 N   0  0  0  0  0  0  0  0  0  0  0  0
   28.4369  -18.7820   -6.5533 C   0  0  0  0  0  0  0  0  0  0  0  0
   28.2963  -17.5687   -5.8664 O   0  0  0  0  0  0  0  0  0  0  0  0
   29.3990  -18.8808   -7.3503 O   0  0  0  0  0  0  0  0  0  0  0  0
  2  1  1  6
  2  4  1  0
  3  2  1  0
  4  6  1  0
  4  5  1  1
  6  7  2  0
  9  8  1  0
  9 10  1  0
 10 11  1  1
 12 10  1  0
 12 13  1  6
 13  6  1  0
 14 15  2  0
 14 12  1  0
 16 17  1  0
 17 18  1  0
 18 20  1  0
 18 19  1  6
 20 21  1  6
 21 14  1  0
 22 20  1  0
 22 23  1  0
 24 22  2  0
M  END
$$$$
