VII.pdb
     RDKit          3D

 24 23  0  0  1  0  0  0  0  0999 V2000
   18.3536  -22.1907  -13.1590 C   0  0  0  0  0  0  0  0  0  0  0  0
   19.5602  -21.4526  -12.6235 C   0  0  1  0  0  0  0  0  0  0  0  0
   20.1251  -22.1324  -11.4319 C   0  0  0  0  0  0  0  0  0  0  0  0
   20.5296  -21.1121  -13.7123 C   0  0  2  0  0  0  0  0  0  0  0  0
   20.8697  -22.3627  -14.3763 N   0  0  0  0  0  0  0  0  0  0  0  0
   21.7630  -20.4406  -13.2745 C   0  0  0  0  0  0  0  0  0  0  0  0
   21.6824  -19.2591  -12.8233 O   0  0  0  0  0  0  0  0  0  0  0  0
   26.1133  -20.2026   -9.9192 C   0  0  0  0  0  0  0  0  0  0  0  0
   26.2202  -20.2363  -11.4376 C   0  0  0  0  0  0  0  0  0  0  0  0
   25.0926  -21.0796  -11.9849 C   0  0  2  0  0  0  0  0  0  0  0  0
   25.5628  -22.3642  -12.5794 C   0  0  0  0  0  0  0  0  0  0  0  0
   24.2579  -20.2612  -12.9579 C   0  0  2  0  0  0  0  0  0  0  0  0
   23.0686  -20.9959  -13.3058 N   0  0  0  0  0  0  0  0  0  0  0  0
   25.1192  -19.9165  -14.1086 C   0  0  0  0  0  0  0  0  0  0  0  0
   25.3417  -20.8104  -14.9753 O   0  0  0  0  0  0  0  0  0  0  0  0
   26.7705  -15.2464  -17.6397 C   0  0  0  0  0  0  0  0  0  0  0  0
   27.2932  -16.5095  -17.0386 C   0  0  0  0  0  0  0  0  0  0  0  0
   26.6783  -16.9199  -15.7488 C   0  0  2  0  0  0  0  0  0  0  0  0
   27.4220  -16.2973  -14.5609 C   0  0  0  0  0  0  0  0  0  0  0  0
   26.4699  -18.3777  -15.5618 C   0  0  2  0  0  0  0  0  0  0  0  0
   25.7265  -18.6616  -14.3329 N   0  0  0  0  0  0  0  0  0  0  0  0
   27.7216  -19.1270  -15.6593 C   0  0  0  0  0  0  0  0  0  0  0  0
   28.1294  -19.5961  -16.9153 O   0  0  0  0  0  0  0  0  0  0  0  0
   28.4662  -19.3810  -14.6837 O   0  0  0  0  0  0  0  0  0  0  0  0
  2  1  1  6
  2  4  1  0
  3  2  1  0
  4  6  1  0
  4  5  1  1
  6  7  2  0
  9  8  1  0
  9 10  1  0
 10 11  1  6
 12 10  1  0
 12 13  1  6
 13  6  1  0
 14 15  2  0
 14 12  1  0
 16 17  1  0
 17 18  1  0
 18 20  1  0
 18 19  1  1
 20 21  1  1
 21 14  1  0
 22 20  1  0
 22 23  1  0
 24 22  2  0
M  END
$$$$
