VII.pdb
     RDKit          3D

 24 23  0  0  1  0  0  0  0  0999 V2000
   12.4960  -25.4316   -8.1440 C   0  0  0  0  0  0  0  0  0  0  0  0
   12.5159  -25.6207   -9.6443 C   0  0  1  0  0  0  0  0  0  0  0  0
   11.2739  -25.1051  -10.2711 C   0  0  0  0  0  0  0  0  0  0  0  0
   13.8041  -25.1507  -10.2449 C   0  0  2  0  0  0  0  0  0  0  0  0
   13.8439  -25.6661  -11.6063 N   0  0  0  0  0  0  0  0  0  0  0  0
   15.0227  -25.5623   -9.5311 C   0  0  0  0  0  0  0  0  0  0  0  0
   15.2758  -26.7997   -9.4276 O   0  0  0  0  0  0  0  0  0  0  0  0
   19.6433  -23.1120  -10.1939 C   0  0  0  0  0  0  0  0  0  0  0  0
   18.5529  -24.1446   -9.9437 C   0  0  0  0  0  0  0  0  0  0  0  0
   18.2951  -24.2279   -8.4575 C   0  0  2  0  0  0  0  0  0  0  0  0
   19.5071  -24.6119   -7.6776 C   0  0  0  0  0  0  0  0  0  0  0  0
   17.1151  -25.1484   -8.1866 C   0  0  2  0  0  0  0  0  0  0  0  0
   15.9694  -24.6919   -8.9311 N   0  0  0  0  0  0  0  0  0  0  0  0
   16.9105  -25.1973   -6.7235 C   0  0  0  0  0  0  0  0  0  0  0  0
   16.5246  -24.1434   -6.1402 O   0  0  0  0  0  0  0  0  0  0  0  0
   13.7147  -28.2697   -4.0746 C   0  0  0  0  0  0  0  0  0  0  0  0
   14.6338  -27.1515   -4.4421 C   0  0  0  0  0  0  0  0  0  0  0  0
   16.0244  -27.2557   -3.9268 C   0  0  2  0  0  0  0  0  0  0  0  0
   16.0414  -27.3153   -2.3945 C   0  0  0  0  0  0  0  0  0  0  0  0
   16.9880  -26.2534   -4.4470 C   0  0  2  0  0  0  0  0  0  0  0  0
   17.1097  -26.3298   -5.9040 N   0  0  0  0  0  0  0  0  0  0  0  0
   18.2770  -26.3249   -3.7606 C   0  0  0  0  0  0  0  0  0  0  0  0
   18.4098  -25.7048   -2.5110 O   0  0  0  0  0  0  0  0  0  0  0  0
   19.2851  -26.9122   -4.2186 O   0  0  0  0  0  0  0  0  0  0  0  0
  2  1  1  1
  2  4  1  0
  3  2  1  0
  4  6  1  0
  4  5  1  6
  6  7  2  0
  9  8  1  0
  9 10  1  0
 10 11  1  1
 12 10  1  0
 12 13  1  6
 13  6  1  0
 14 15  2  0
 14 12  1  0
 16 17  1  0
 17 18  1  0
 18 20  1  0
 18 19  1  1
 20 21  1  6
 21 14  1  0
 22 20  1  0
 22 23  1  0
 24 22  2  0
M  END
$$$$
