VII.pdb
     RDKit          3D

 24 23  0  0  1  0  0  0  0  0999 V2000
   17.5671  -20.5390    3.3492 C   0  0  0  0  0  0  0  0  0  0  0  0
   16.4632  -21.3081    2.6585 C   0  0  1  0  0  0  0  0  0  0  0  0
   16.8871  -22.6937    2.3395 C   0  0  0  0  0  0  0  0  0  0  0  0
   15.1563  -21.1646    3.3744 C   0  0  2  0  0  0  0  0  0  0  0  0
   14.1196  -21.5826    2.4411 N   0  0  0  0  0  0  0  0  0  0  0  0
   14.8512  -19.8136    3.8701 C   0  0  0  0  0  0  0  0  0  0  0  0
   14.1711  -19.0373    3.1348 O   0  0  0  0  0  0  0  0  0  0  0  0
   13.3079  -16.7668    8.8322 C   0  0  0  0  0  0  0  0  0  0  0  0
   13.9432  -16.6497    7.4536 C   0  0  0  0  0  0  0  0  0  0  0  0
   14.3268  -18.0310    6.9770 C   0  0  2  0  0  0  0  0  0  0  0  0
   15.2329  -18.7423    7.9244 C   0  0  0  0  0  0  0  0  0  0  0  0
   14.9023  -17.9534    5.5713 C   0  0  2  0  0  0  0  0  0  0  0  0
   15.2507  -19.2769    5.1216 N   0  0  0  0  0  0  0  0  0  0  0  0
   16.0339  -17.0029    5.6014 C   0  0  0  0  0  0  0  0  0  0  0  0
   17.1604  -17.4294    5.9872 O   0  0  0  0  0  0  0  0  0  0  0  0
   18.2422  -14.9628    1.5873 C   0  0  0  0  0  0  0  0  0  0  0  0
   17.9102  -15.4078    2.9735 C   0  0  0  0  0  0  0  0  0  0  0  0
   17.5690  -14.3300    3.9391 C   0  0  2  0  0  0  0  0  0  0  0  0
   18.6836  -13.2788    4.0080 C   0  0  0  0  0  0  0  0  0  0  0  0
   17.1523  -14.7763    5.2921 C   0  0  2  0  0  0  0  0  0  0  0  0
   15.9723  -15.6410    5.2336 N   0  0  0  0  0  0  0  0  0  0  0  0
   16.9935  -13.6533    6.2148 C   0  0  0  0  0  0  0  0  0  0  0  0
   18.1202  -13.1815    6.9015 O   0  0  0  0  0  0  0  0  0  0  0  0
   15.9041  -13.0744    6.4359 O   0  0  0  0  0  0  0  0  0  0  0  0
  2  1  1  1
  2  4  1  0
  3  2  1  0
  4  6  1  0
  4  5  1  6
  6  7  2  0
  9  8  1  0
  9 10  1  0
 10 11  1  1
 12 10  1  0
 12 13  1  1
 13  6  1  0
 14 15  2  0
 14 12  1  0
 16 17  1  0
 17 18  1  0
 18 20  1  0
 18 19  1  1
 20 21  1  6
 21 14  1  0
 22 20  1  0
 22 23  1  0
 24 22  2  0
M  END
$$$$
