VII.pdb
     RDKit          3D

 24 23  0  0  1  0  0  0  0  0999 V2000
   19.4069  -18.4831  -15.0825 C   0  0  0  0  0  0  0  0  0  0  0  0
   19.6273  -19.3813  -13.8859 C   0  0  1  0  0  0  0  0  0  0  0  0
   18.6890  -20.5306  -13.8921 C   0  0  0  0  0  0  0  0  0  0  0  0
   21.0758  -19.7111  -13.7001 C   0  0  2  0  0  0  0  0  0  0  0  0
   21.5303  -20.3161  -14.9441 N   0  0  0  0  0  0  0  0  0  0  0  0
   21.3808  -20.6127  -12.5785 C   0  0  0  0  0  0  0  0  0  0  0  0
   21.2881  -21.8629  -12.7634 O   0  0  0  0  0  0  0  0  0  0  0  0
   24.7272  -21.2132   -7.5230 C   0  0  0  0  0  0  0  0  0  0  0  0
   23.4999  -21.6830   -8.2917 C   0  0  0  0  0  0  0  0  0  0  0  0
   23.1499  -20.6428   -9.3299 C   0  0  2  0  0  0  0  0  0  0  0  0
   22.8851  -19.2986   -8.7401 C   0  0  0  0  0  0  0  0  0  0  0  0
   21.9969  -21.1362  -10.1903 C   0  0  2  0  0  0  0  0  0  0  0  0
   21.7797  -20.2146  -11.2760 N   0  0  0  0  0  0  0  0  0  0  0  0
   20.8263  -21.3241   -9.3075 C   0  0  0  0  0  0  0  0  0  0  0  0
   20.0770  -20.3283   -9.0915 O   0  0  0  0  0  0  0  0  0  0  0  0
   15.7065  -23.9150   -8.9754 C   0  0  0  0  0  0  0  0  0  0  0  0
   16.8168  -23.4341   -8.1001 C   0  0  0  0  0  0  0  0  0  0  0  0
   18.1399  -23.2698   -8.7580 C   0  0  2  0  0  0  0  0  0  0  0  0
   18.6032  -24.5833   -9.3997 C   0  0  0  0  0  0  0  0  0  0  0  0
   19.2080  -22.6588   -7.9278 C   0  0  2  0  0  0  0  0  0  0  0  0
   20.4619  -22.5316   -8.6728 N   0  0  0  0  0  0  0  0  0  0  0  0
   19.3699  -23.3484   -6.6488 C   0  0  0  0  0  0  0  0  0  0  0  0
   20.5773  -24.0106   -6.3889 O   0  0  0  0  0  0  0  0  0  0  0  0
   18.4916  -23.3873   -5.7556 O   0  0  0  0  0  0  0  0  0  0  0  0
  2  1  1  6
  2  4  1  0
  3  2  1  0
  4  6  1  0
  4  5  1  6
  6  7  2  0
  9  8  1  0
  9 10  1  0
 10 11  1  1
 12 10  1  0
 12 13  1  6
 13  6  1  0
 14 15  2  0
 14 12  1  0
 16 17  1  0
 17 18  1  0
 18 20  1  0
 18 19  1  1
 20 21  1  6
 21 14  1  0
 22 20  1  0
 22 23  1  0
 24 22  2  0
M  END
$$$$
