AEA.pdb
     RDKit          3D

 20 19  0  0  1  0  0  0  0  0999 V2000
   24.7675  -11.6391  -15.2927 C   0  0  0  0  0  0  0  0  0  0  0  0
   23.3928  -12.0117  -15.8517 C   0  0  2  0  0  0  0  0  0  0  0  0
   23.5203  -12.9124  -16.9661 N   0  0  0  0  0  0  0  0  0  0  0  0
   22.6569  -10.8115  -16.2651 C   0  0  0  0  0  0  0  0  0  0  0  0
   22.8130  -10.3464  -17.4213 O   0  0  0  0  0  0  0  0  0  0  0  0
   21.7574  -10.1402  -15.3956 N   0  0  0  0  0  0  0  0  0  0  0  0
   21.0608   -8.8959  -15.8024 C   0  0  1  0  0  0  0  0  0  0  0  0
   19.6302   -9.1313  -15.4544 C   0  0  0  0  0  0  0  0  0  0  0  0
   18.7782   -7.9146  -15.6401 C   0  0  0  0  0  0  0  0  0  0  0  0
   17.3748   -8.3022  -15.2471 C   0  0  0  0  0  0  0  0  0  0  0  0
   16.7078   -7.6122  -14.4563 O   0  0  0  0  0  0  0  0  0  0  0  0
   21.7125   -7.7748  -15.1272 C   0  0  0  0  0  0  0  0  0  0  0  0
   22.0609   -7.9086  -13.9049 O   0  0  0  0  0  0  0  0  0  0  0  0
   16.8337   -9.4511  -15.7860 O   0  0  0  0  0  0  0  0  0  0  0  0
   22.9812   -4.3117  -15.8875 C   0  0  0  0  0  0  0  0  0  0  0  0
   22.5991   -5.4649  -14.9681 C   0  0  2  0  0  0  0  0  0  0  0  0
   22.0025   -6.5141  -15.7352 N   0  0  0  0  0  0  0  0  0  0  0  0
   21.6688   -4.9382  -13.9352 C   0  0  0  0  0  0  0  0  0  0  0  0
   22.0934   -4.2943  -12.7961 O   0  0  0  0  0  0  0  0  0  0  0  0
   20.4111   -5.0756  -14.0861 O   0  0  0  0  0  0  0  0  0  0  0  0
  2  1  1  6
  2  4  1  0
  3  2  1  0
  4  6  1  0
  4  5  2  0
  6  7  1  0
  7 12  1  0
  7  8  1  1
  9 10  1  0
  9  8  1  0
 10 14  1  0
 11 10  2  0
 12 17  1  0
 12 13  2  0
 16 15  1  6
 16 18  1  0
 17 16  1  0
 18 19  1  0
 20 18  2  0
M  END
$$$$
