AEA.pdb
     RDKit          3D

 20 19  0  0  1  0  0  0  0  0999 V2000
   17.2808  -11.7677  -13.9284 C   0  0  0  0  0  0  0  0  0  0  0  0
   16.7551  -11.2042  -15.2502 C   0  0  2  0  0  0  0  0  0  0  0  0
   16.6561  -12.2390  -16.2446 N   0  0  0  0  0  0  0  0  0  0  0  0
   17.6242  -10.1276  -15.7389 C   0  0  0  0  0  0  0  0  0  0  0  0
   18.6280  -10.4015  -16.4424 O   0  0  0  0  0  0  0  0  0  0  0  0
   17.3731   -8.7617  -15.4439 N   0  0  0  0  0  0  0  0  0  0  0  0
   18.2825   -7.6842  -15.9033 C   0  0  1  0  0  0  0  0  0  0  0  0
   17.4039   -6.4906  -16.0666 C   0  0  0  0  0  0  0  0  0  0  0  0
   18.1597   -5.2616  -16.4653 C   0  0  0  0  0  0  0  0  0  0  0  0
   17.1524   -4.1435  -16.5610 C   0  0  0  0  0  0  0  0  0  0  0  0
   17.3668   -3.0304  -16.0495 O   0  0  0  0  0  0  0  0  0  0  0  0
   19.3626   -7.5606  -14.9258 C   0  0  0  0  0  0  0  0  0  0  0  0
   19.0749   -7.5904  -13.6810 O   0  0  0  0  0  0  0  0  0  0  0  0
   15.9714   -4.3771  -17.2348 O   0  0  0  0  0  0  0  0  0  0  0  0
   23.0669   -7.7689  -14.6929 C   0  0  0  0  0  0  0  0  0  0  0  0
   21.7177   -7.2444  -14.2179 C   0  0  2  0  0  0  0  0  0  0  0  0
   20.7457   -7.4095  -15.2539 N   0  0  0  0  0  0  0  0  0  0  0  0
   21.8879   -5.8160  -13.8427 C   0  0  0  0  0  0  0  0  0  0  0  0
   22.3918   -5.4103  -12.6287 O   0  0  0  0  0  0  0  0  0  0  0  0
   21.5593   -4.9011  -14.6664 O   0  0  0  0  0  0  0  0  0  0  0  0
  2  1  1  1
  2  4  1  0
  3  2  1  0
  4  6  1  0
  4  5  2  0
  6  7  1  0
  7 12  1  0
  7  8  1  1
  9 10  1  0
  9  8  1  0
 10 14  1  0
 11 10  2  0
 12 17  1  0
 12 13  2  0
 16 15  1  6
 16 18  1  0
 17 16  1  0
 18 19  1  0
 20 18  2  0
M  END
$$$$
