AEA.pdb
     RDKit          3D

 20 19  0  0  1  0  0  0  0  0999 V2000
   20.1019  -11.6127  -18.8830 C   0  0  0  0  0  0  0  0  0  0  0  0
   20.3574  -11.3439  -17.3985 C   0  0  2  0  0  0  0  0  0  0  0  0
   19.5958  -12.2458  -16.5764 N   0  0  0  0  0  0  0  0  0  0  0  0
   20.0225   -9.9570  -17.0560 C   0  0  0  0  0  0  0  0  0  0  0  0
   18.8203   -9.5990  -16.9913 O   0  0  0  0  0  0  0  0  0  0  0  0
   21.0204   -8.9828  -16.7893 N   0  0  0  0  0  0  0  0  0  0  0  0
   20.6721   -7.5846  -16.4390 C   0  0  1  0  0  0  0  0  0  0  0  0
   21.4950   -7.2796  -15.2336 C   0  0  0  0  0  0  0  0  0  0  0  0
   21.3488   -5.8632  -14.7721 C   0  0  0  0  0  0  0  0  0  0  0  0
   22.1723   -5.7278  -13.5161 C   0  0  0  0  0  0  0  0  0  0  0  0
   22.0061   -6.4871  -12.5453 O   0  0  0  0  0  0  0  0  0  0  0  0
   20.9186   -6.7520  -17.6153 C   0  0  0  0  0  0  0  0  0  0  0  0
   21.9925   -6.9315  -18.2845 O   0  0  0  0  0  0  0  0  0  0  0  0
   23.1276   -4.7340  -13.4590 O   0  0  0  0  0  0  0  0  0  0  0  0
   19.1271   -4.2474  -19.7646 C   0  0  0  0  0  0  0  0  0  0  0  0
   20.3600   -4.9963  -19.2744 C   0  0  2  0  0  0  0  0  0  0  0  0
   20.0366   -5.7332  -18.0922 N   0  0  0  0  0  0  0  0  0  0  0  0
   21.4337   -3.9984  -19.0268 C   0  0  0  0  0  0  0  0  0  0  0  0
   21.9228   -3.7126  -17.7732 O   0  0  0  0  0  0  0  0  0  0  0  0
   21.9447   -3.3615  -20.0050 O   0  0  0  0  0  0  0  0  0  0  0  0
  2  1  1  6
  2  4  1  0
  3  2  1  0
  4  6  1  0
  4  5  2  0
  6  7  1  0
  7 12  1  0
  7  8  1  1
  9 10  1  0
  9  8  1  0
 10 14  1  0
 11 10  2  0
 12 17  1  0
 12 13  2  0
 16 15  1  1
 16 18  1  0
 17 16  1  0
 18 19  1  0
 20 18  2  0
M  END
$$$$
