AEA.pdb
     RDKit          3D

 20 19  0  0  1  0  0  0  0  0999 V2000
   15.6707   -9.3322  -15.3730 C   0  0  0  0  0  0  0  0  0  0  0  0
   16.6445  -10.2192  -16.1516 C   0  0  2  0  0  0  0  0  0  0  0  0
   16.3557  -11.6114  -15.9329 N   0  0  0  0  0  0  0  0  0  0  0  0
   18.0309   -9.9332  -15.7654 C   0  0  0  0  0  0  0  0  0  0  0  0
   18.4847  -10.3755  -14.6810 O   0  0  0  0  0  0  0  0  0  0  0  0
   18.8988   -9.1618  -16.5825 N   0  0  0  0  0  0  0  0  0  0  0  0
   20.2922   -8.8605  -16.1743 C   0  0  1  0  0  0  0  0  0  0  0  0
   21.1074   -9.1074  -17.3980 C   0  0  0  0  0  0  0  0  0  0  0  0
   22.5588   -8.7976  -17.2028 C   0  0  0  0  0  0  0  0  0  0  0  0
   23.2281   -8.9887  -18.5406 C   0  0  0  0  0  0  0  0  0  0  0  0
   22.5718   -9.2523  -19.5635 O   0  0  0  0  0  0  0  0  0  0  0  0
   20.3206   -7.4980  -15.6449 C   0  0  0  0  0  0  0  0  0  0  0  0
   19.6139   -6.5991  -16.2157 O   0  0  0  0  0  0  0  0  0  0  0  0
   24.6002   -8.8648  -18.6141 O   0  0  0  0  0  0  0  0  0  0  0  0
   21.6636   -5.5844  -12.7064 C   0  0  0  0  0  0  0  0  0  0  0  0
   21.0852   -5.7067  -14.1106 C   0  0  2  0  0  0  0  0  0  0  0  0
   21.0877   -7.0788  -14.5138 N   0  0  0  0  0  0  0  0  0  0  0  0
   21.9053   -4.8627  -15.0189 C   0  0  0  0  0  0  0  0  0  0  0  0
   21.8137   -3.4907  -15.0605 O   0  0  0  0  0  0  0  0  0  0  0  0
   22.7425   -5.4097  -15.8083 O   0  0  0  0  0  0  0  0  0  0  0  0
  2  1  1  1
  2  4  1  0
  3  2  1  0
  4  6  1  0
  4  5  2  0
  6  7  1  0
  7 12  1  0
  7  8  1  6
  9 10  1  0
  9  8  1  0
 10 14  1  0
 11 10  2  0
 12 17  1  0
 12 13  2  0
 16 15  1  1
 16 18  1  0
 17 16  1  0
 18 19  1  0
 20 18  2  0
M  END
$$$$
