AEA.pdb
     RDKit          3D

 20 19  0  0  1  0  0  0  0  0999 V2000
   21.0836  -12.8210  -15.1188 C   0  0  0  0  0  0  0  0  0  0  0  0
   19.8297  -12.3341  -15.8479 C   0  0  2  0  0  0  0  0  0  0  0  0
   19.4916  -13.2181  -16.9313 N   0  0  0  0  0  0  0  0  0  0  0  0
   20.0215  -10.9723  -16.3598 C   0  0  0  0  0  0  0  0  0  0  0  0
   20.5391  -10.7936  -17.4901 O   0  0  0  0  0  0  0  0  0  0  0  0
   19.6388   -9.8250  -15.6161 N   0  0  0  0  0  0  0  0  0  0  0  0
   19.7680   -8.4561  -16.1716 C   0  0  1  0  0  0  0  0  0  0  0  0
   18.3721   -7.9344  -16.2225 C   0  0  0  0  0  0  0  0  0  0  0  0
   18.2999   -6.5078  -16.6697 C   0  0  0  0  0  0  0  0  0  0  0  0
   16.8390   -6.1347  -16.6992 C   0  0  0  0  0  0  0  0  0  0  0  0
   16.3963   -5.3071  -17.5150 O   0  0  0  0  0  0  0  0  0  0  0  0
   20.7028   -7.7148  -15.3266 C   0  0  0  0  0  0  0  0  0  0  0  0
   20.6897   -7.9189  -14.0651 O   0  0  0  0  0  0  0  0  0  0  0  0
   15.9879   -6.7342  -15.7939 O   0  0  0  0  0  0  0  0  0  0  0  0
   23.6035   -5.3415  -15.6762 C   0  0  0  0  0  0  0  0  0  0  0  0
   22.5543   -6.1230  -14.8954 C   0  0  2  0  0  0  0  0  0  0  0  0
   21.6546   -6.7617  -15.8053 N   0  0  0  0  0  0  0  0  0  0  0  0
   21.8486   -5.1714  -13.9974 C   0  0  0  0  0  0  0  0  0  0  0  0
   22.3429   -4.7815  -12.7742 O   0  0  0  0  0  0  0  0  0  0  0  0
   20.7293   -4.6768  -14.3522 O   0  0  0  0  0  0  0  0  0  0  0  0
  2  1  1  6
  2  4  1  0
  3  2  1  0
  4  6  1  0
  4  5  2  0
  6  7  1  0
  7 12  1  0
  7  8  1  1
  9 10  1  0
  9  8  1  0
 10 14  1  0
 11 10  2  0
 12 17  1  0
 12 13  2  0
 16 15  1  6
 16 18  1  0
 17 16  1  0
 18 19  1  0
 20 18  2  0
M  END
$$$$
