AEA.pdb
     RDKit          3D

 20 19  0  0  1  0  0  0  0  0999 V2000
   23.4002  -11.9253  -15.8263 C   0  0  0  0  0  0  0  0  0  0  0  0
   21.8983  -11.9030  -16.1176 C   0  0  2  0  0  0  0  0  0  0  0  0
   21.6027  -12.6062  -17.3372 N   0  0  0  0  0  0  0  0  0  0  0  0
   21.4066  -10.5234  -16.2083 C   0  0  0  0  0  0  0  0  0  0  0  0
   21.6318   -9.8432  -17.2398 O   0  0  0  0  0  0  0  0  0  0  0  0
   20.6721   -9.9128  -15.1579 N   0  0  0  0  0  0  0  0  0  0  0  0
   20.1019   -8.5506  -15.2936 C   0  0  1  0  0  0  0  0  0  0  0  0
   18.7467   -8.6440  -14.6790 C   0  0  0  0  0  0  0  0  0  0  0  0
   17.7008   -9.1088  -15.6436 C   0  0  0  0  0  0  0  0  0  0  0  0
   16.3957   -9.1396  -14.8887 C   0  0  0  0  0  0  0  0  0  0  0  0
   15.8716  -10.2125  -14.5409 O   0  0  0  0  0  0  0  0  0  0  0  0
   21.0303   -7.6105  -14.6676 C   0  0  0  0  0  0  0  0  0  0  0  0
   21.5200   -7.8968  -13.5224 O   0  0  0  0  0  0  0  0  0  0  0  0
   15.7824   -7.9418  -14.5848 O   0  0  0  0  0  0  0  0  0  0  0  0
   22.8550   -4.4209  -15.4653 C   0  0  0  0  0  0  0  0  0  0  0  0
   22.3405   -5.5100  -14.5324 C   0  0  2  0  0  0  0  0  0  0  0  0
   21.4484   -6.3713  -15.2447 N   0  0  0  0  0  0  0  0  0  0  0  0
   21.6693   -4.8486  -13.3825 C   0  0  0  0  0  0  0  0  0  0  0  0
   22.3534   -4.3215  -12.3117 O   0  0  0  0  0  0  0  0  0  0  0  0
   20.3991   -4.7508  -13.3611 O   0  0  0  0  0  0  0  0  0  0  0  0
  2  1  1  6
  2  4  1  0
  3  2  1  0
  4  6  1  0
  4  5  2  0
  6  7  1  0
  7 12  1  0
  7  8  1  1
  9 10  1  0
  9  8  1  0
 10 14  1  0
 11 10  2  0
 12 17  1  0
 12 13  2  0
 16 15  1  6
 16 18  1  0
 17 16  1  0
 18 19  1  0
 20 18  2  0
M  END
$$$$
