AEA.pdb
     RDKit          3D

 20 19  0  0  1  0  0  0  0  0999 V2000
   17.4552  -12.5838  -16.2415 C   0  0  0  0  0  0  0  0  0  0  0  0
   17.4340  -11.4420  -15.2231 C   0  0  2  0  0  0  0  0  0  0  0  0
   16.0972  -10.9424  -15.0419 N   0  0  0  0  0  0  0  0  0  0  0  0
   18.3186  -10.3508  -15.6470 C   0  0  0  0  0  0  0  0  0  0  0  0
   19.5289  -10.5822  -15.8904 O   0  0  0  0  0  0  0  0  0  0  0  0
   17.8547   -9.0172  -15.7965 N   0  0  0  0  0  0  0  0  0  0  0  0
   18.7238   -7.9448  -16.3382 C   0  0  1  0  0  0  0  0  0  0  0  0
   17.8384   -7.1627  -17.2480 C   0  0  0  0  0  0  0  0  0  0  0  0
   18.4933   -5.9240  -17.7745 C   0  0  0  0  0  0  0  0  0  0  0  0
   17.4938   -5.2574  -18.6860 C   0  0  0  0  0  0  0  0  0  0  0  0
   16.6275   -4.4824  -18.2439 O   0  0  0  0  0  0  0  0  0  0  0  0
   19.2931   -7.2137  -15.2073 C   0  0  0  0  0  0  0  0  0  0  0  0
   18.5115   -6.7931  -14.2878 O   0  0  0  0  0  0  0  0  0  0  0  0
   17.5557   -5.5240  -20.0382 O   0  0  0  0  0  0  0  0  0  0  0  0
   22.5523   -6.6870  -13.5284 C   0  0  0  0  0  0  0  0  0  0  0  0
   21.1395   -6.2334  -13.8741 C   0  0  2  0  0  0  0  0  0  0  0  0
   20.6833   -6.9269  -15.0387 N   0  0  0  0  0  0  0  0  0  0  0  0
   21.1692   -4.7620  -14.0836 C   0  0  0  0  0  0  0  0  0  0  0  0
   21.2921   -3.8564  -13.0554 O   0  0  0  0  0  0  0  0  0  0  0  0
   21.0783   -4.2879  -15.2628 O   0  0  0  0  0  0  0  0  0  0  0  0
  2  1  1  6
  2  4  1  0
  3  2  1  0
  4  6  1  0
  4  5  2  0
  6  7  1  0
  7 12  1  0
  7  8  1  6
  9 10  1  0
  9  8  1  0
 10 14  1  0
 11 10  2  0
 12 17  1  0
 12 13  2  0
 16 15  1  6
 16 18  1  0
 17 16  1  0
 18 19  1  0
 20 18  2  0
M  END
$$$$
