AEA.pdb
     RDKit          3D

 20 19  0  0  1  0  0  0  0  0999 V2000
   25.0785  -31.8095   -7.3859 C   0  0  0  0  0  0  0  0  0  0  0  0
   26.0286  -32.9452   -7.7713 C   0  0  2  0  0  0  0  0  0  0  0  0
   25.6650  -33.5070   -9.0447 N   0  0  0  0  0  0  0  0  0  0  0  0
   26.0264  -33.9954   -6.7465 C   0  0  0  0  0  0  0  0  0  0  0  0
   25.1875  -34.9283   -6.8054 O   0  0  0  0  0  0  0  0  0  0  0  0
   26.9514  -34.0016   -5.6694 N   0  0  0  0  0  0  0  0  0  0  0  0
   26.8951  -35.0255   -4.5983 C   0  0  1  0  0  0  0  0  0  0  0  0
   28.2922  -35.1145   -4.0851 C   0  0  0  0  0  0  0  0  0  0  0  0
   28.4158  -35.9981   -2.8832 C   0  0  0  0  0  0  0  0  0  0  0  0
   29.8709  -35.9931   -2.4874 C   0  0  0  0  0  0  0  0  0  0  0  0
   30.6914  -35.2384   -3.0386 O   0  0  0  0  0  0  0  0  0  0  0  0
   25.8790  -34.6102   -3.6326 C   0  0  0  0  0  0  0  0  0  0  0  0
   25.8555  -33.3921   -3.2468 O   0  0  0  0  0  0  0  0  0  0  0  0
   30.2848  -36.8511   -1.4894 O   0  0  0  0  0  0  0  0  0  0  0  0
   22.7087  -35.8613   -2.1016 C   0  0  0  0  0  0  0  0  0  0  0  0
   23.9391  -34.9632   -2.1294 C   0  0  2  0  0  0  0  0  0  0  0  0
   24.8845  -35.4719   -3.0742 N   0  0  0  0  0  0  0  0  0  0  0  0
   24.5029  -34.9162   -0.7546 C   0  0  0  0  0  0  0  0  0  0  0  0
   23.9697  -34.1461    0.2529 O   0  0  0  0  0  0  0  0  0  0  0  0
   25.5300  -35.6131   -0.4668 O   0  0  0  0  0  0  0  0  0  0  0  0
  2  1  1  1
  2  4  1  0
  3  2  1  0
  4  6  1  0
  4  5  2  0
  6  7  1  0
  7 12  1  0
  7  8  1  1
  9 10  1  0
  9  8  1  0
 10 14  1  0
 11 10  2  0
 12 17  1  0
 12 13  2  0
 16 15  1  1
 16 18  1  0
 17 16  1  0
 18 19  1  0
 20 18  2  0
M  END
$$$$
