AEA.pdb
     RDKit          3D

 20 19  0  0  1  0  0  0  0  0999 V2000
   14.6823  -11.0553  -15.8632 C   0  0  0  0  0  0  0  0  0  0  0  0
   16.0574  -11.4830  -15.3461 C   0  0  2  0  0  0  0  0  0  0  0  0
   15.9330  -12.5266  -14.3637 N   0  0  0  0  0  0  0  0  0  0  0  0
   16.7743  -10.3404  -14.7685 C   0  0  0  0  0  0  0  0  0  0  0  0
   16.5946  -10.0297  -13.5649 O   0  0  0  0  0  0  0  0  0  0  0  0
   17.6809   -9.5553  -15.5284 N   0  0  0  0  0  0  0  0  0  0  0  0
   18.4165   -8.4149  -14.9306 C   0  0  1  0  0  0  0  0  0  0  0  0
   19.8493   -8.6809  -15.2460 C   0  0  0  0  0  0  0  0  0  0  0  0
   20.7581   -7.5785  -14.7992 C   0  0  0  0  0  0  0  0  0  0  0  0
   22.1657   -8.0235  -15.1070 C   0  0  0  0  0  0  0  0  0  0  0  0
   22.9008   -7.3720  -15.8695 O   0  0  0  0  0  0  0  0  0  0  0  0
   17.8543   -7.1812  -15.4777 C   0  0  0  0  0  0  0  0  0  0  0  0
   17.7411   -7.0634  -16.7452 O   0  0  0  0  0  0  0  0  0  0  0  0
   22.6330   -9.1819  -14.5210 O   0  0  0  0  0  0  0  0  0  0  0  0
   16.2240   -3.9979  -14.3328 C   0  0  0  0  0  0  0  0  0  0  0  0
   16.9742   -4.8677  -15.3337 C   0  0  2  0  0  0  0  0  0  0  0  0
   17.4069   -6.0718  -14.6949 N   0  0  0  0  0  0  0  0  0  0  0  0
   18.1195   -4.0784  -15.8584 C   0  0  0  0  0  0  0  0  0  0  0  0
   19.4339   -4.4156  -15.6323 O   0  0  0  0  0  0  0  0  0  0  0  0
   17.9029   -3.0336  -16.5547 O   0  0  0  0  0  0  0  0  0  0  0  0
  2  1  1  1
  2  4  1  0
  3  2  1  0
  4  6  1  0
  4  5  2  0
  6  7  1  0
  7 12  1  0
  7  8  1  6
  9 10  1  0
  9  8  1  0
 10 14  1  0
 11 10  2  0
 12 17  1  0
 12 13  2  0
 16 15  1  1
 16 18  1  0
 17 16  1  0
 18 19  1  0
 20 18  2  0
M  END
$$$$
