AEA.pdb
     RDKit          3D

 20 19  0  0  1  0  0  0  0  0999 V2000
   24.9233  -11.5095  -15.4090 C   0  0  0  0  0  0  0  0  0  0  0  0
   23.4978  -11.7496  -15.9105 C   0  0  2  0  0  0  0  0  0  0  0  0
   23.5010  -12.5832  -17.0829 N   0  0  0  0  0  0  0  0  0  0  0  0
   22.8300  -10.4773  -16.2079 C   0  0  0  0  0  0  0  0  0  0  0  0
   22.9474   -9.9573  -17.3451 O   0  0  0  0  0  0  0  0  0  0  0  0
   22.0405   -9.7955  -15.2447 N   0  0  0  0  0  0  0  0  0  0  0  0
   21.2350   -8.6020  -15.5994 C   0  0  1  0  0  0  0  0  0  0  0  0
   19.8483   -8.9386  -15.1669 C   0  0  0  0  0  0  0  0  0  0  0  0
   19.1959   -9.9593  -16.0460 C   0  0  0  0  0  0  0  0  0  0  0  0
   17.7850  -10.1300  -15.5415 C   0  0  0  0  0  0  0  0  0  0  0  0
   16.8208  -10.2087  -16.3228 O   0  0  0  0  0  0  0  0  0  0  0  0
   21.8465   -7.4399  -14.9567 C   0  0  0  0  0  0  0  0  0  0  0  0
   22.2369   -7.5396  -13.7439 O   0  0  0  0  0  0  0  0  0  0  0  0
   17.5767  -10.1988  -14.1794 O   0  0  0  0  0  0  0  0  0  0  0  0
   23.0040   -3.9701  -15.8513 C   0  0  0  0  0  0  0  0  0  0  0  0
   22.7444   -5.1296  -14.8977 C   0  0  2  0  0  0  0  0  0  0  0  0
   22.0524   -6.1738  -15.5876 N   0  0  0  0  0  0  0  0  0  0  0  0
   21.9568   -4.6102  -13.7488 C   0  0  0  0  0  0  0  0  0  0  0  0
   22.5232   -3.9474  -12.6847 O   0  0  0  0  0  0  0  0  0  0  0  0
   20.6933   -4.7724  -13.7218 O   0  0  0  0  0  0  0  0  0  0  0  0
  2  1  1  6
  2  4  1  0
  3  2  1  0
  4  6  1  0
  4  5  2  0
  6  7  1  0
  7 12  1  0
  7  8  1  1
  9 10  1  0
  9  8  1  0
 10 14  1  0
 11 10  2  0
 12 17  1  0
 12 13  2  0
 16 15  1  6
 16 18  1  0
 17 16  1  0
 18 19  1  0
 20 18  2  0
M  END
$$$$
