AEA.pdb
     RDKit          3D

 20 19  0  0  1  0  0  0  0  0999 V2000
   14.5118  -11.2040  -14.2463 C   0  0  0  0  0  0  0  0  0  0  0  0
   16.0198  -11.4633  -14.2538 C   0  0  2  0  0  0  0  0  0  0  0  0
   16.2985  -12.8676  -14.1133 N   0  0  0  0  0  0  0  0  0  0  0  0
   16.6813  -10.7159  -13.1782 C   0  0  0  0  0  0  0  0  0  0  0  0
   16.6655  -11.1599  -12.0034 O   0  0  0  0  0  0  0  0  0  0  0  0
   17.3522   -9.4871  -13.4144 N   0  0  0  0  0  0  0  0  0  0  0  0
   18.0195   -8.7396  -12.3213 C   0  0  1  0  0  0  0  0  0  0  0  0
   19.1645   -8.0474  -12.9794 C   0  0  0  0  0  0  0  0  0  0  0  0
   19.8872   -7.1141  -12.0590 C   0  0  0  0  0  0  0  0  0  0  0  0
   20.9898   -6.4752  -12.8653 C   0  0  0  0  0  0  0  0  0  0  0  0
   21.1467   -5.2417  -12.8883 O   0  0  0  0  0  0  0  0  0  0  0  0
   17.0207   -7.8774  -11.6916 C   0  0  0  0  0  0  0  0  0  0  0  0
   16.2390   -7.1929  -12.4358 O   0  0  0  0  0  0  0  0  0  0  0  0
   21.8348   -7.2917  -13.5882 O   0  0  0  0  0  0  0  0  0  0  0  0
   15.5725   -7.2507   -8.2827 C   0  0  0  0  0  0  0  0  0  0  0  0
   15.7481   -6.9656   -9.7690 C   0  0  2  0  0  0  0  0  0  0  0  0
   16.8389   -7.7359  -10.2808 N   0  0  0  0  0  0  0  0  0  0  0  0
   15.9786   -5.5059   -9.9312 C   0  0  0  0  0  0  0  0  0  0  0  0
   14.9967   -4.5618   -9.7395 O   0  0  0  0  0  0  0  0  0  0  0  0
   17.1325   -5.0798  -10.2635 O   0  0  0  0  0  0  0  0  0  0  0  0
  2  1  1  1
  2  4  1  0
  3  2  1  0
  4  6  1  0
  4  5  2  0
  6  7  1  0
  7 12  1  0
  7  8  1  6
  9 10  1  0
  9  8  1  0
 10 14  1  0
 11 10  2  0
 12 17  1  0
 12 13  2  0
 16 15  1  1
 16 18  1  0
 17 16  1  0
 18 19  1  0
 20 18  2  0
M  END
$$$$
