AEA.pdb
     RDKit          3D

 20 19  0  0  1  0  0  0  0  0999 V2000
   21.7136  -12.7404  -16.4754 C   0  0  0  0  0  0  0  0  0  0  0  0
   20.2211  -12.4638  -16.6678 C   0  0  2  0  0  0  0  0  0  0  0  0
   19.7022  -13.2085  -17.7839 N   0  0  0  0  0  0  0  0  0  0  0  0
   19.9798  -11.0309  -16.8718 C   0  0  0  0  0  0  0  0  0  0  0  0
   20.0103  -10.5478  -18.0307 O   0  0  0  0  0  0  0  0  0  0  0  0
   19.7078  -10.1497  -15.7923 N   0  0  0  0  0  0  0  0  0  0  0  0
   19.5356   -8.6915  -15.9996 C   0  0  1  0  0  0  0  0  0  0  0  0
   18.1481   -8.4039  -15.5356 C   0  0  0  0  0  0  0  0  0  0  0  0
   17.1192   -8.6356  -16.5978 C   0  0  0  0  0  0  0  0  0  0  0  0
   15.7761   -8.3598  -15.9700 C   0  0  0  0  0  0  0  0  0  0  0  0
   15.2740   -7.2222  -15.9836 O   0  0  0  0  0  0  0  0  0  0  0  0
   20.6099   -8.0058  -15.2834 C   0  0  0  0  0  0  0  0  0  0  0  0
   20.8506   -8.3327  -14.0716 O   0  0  0  0  0  0  0  0  0  0  0  0
   15.1023   -9.4043  -15.3713 O   0  0  0  0  0  0  0  0  0  0  0  0
   23.3351   -5.4903  -15.9007 C   0  0  0  0  0  0  0  0  0  0  0  0
   22.3938   -6.3039  -15.0213 C   0  0  2  0  0  0  0  0  0  0  0  0
   21.4350   -6.9794  -15.8395 N   0  0  0  0  0  0  0  0  0  0  0  0
   21.7433   -5.3725  -14.0624 C   0  0  0  0  0  0  0  0  0  0  0  0
   22.3307   -4.9711  -12.8850 O   0  0  0  0  0  0  0  0  0  0  0  0
   20.5849   -4.9074  -14.3178 O   0  0  0  0  0  0  0  0  0  0  0  0
  2  1  1  6
  2  4  1  0
  3  2  1  0
  4  6  1  0
  4  5  2  0
  6  7  1  0
  7 12  1  0
  7  8  1  1
  9 10  1  0
  9  8  1  0
 10 14  1  0
 11 10  2  0
 12 17  1  0
 12 13  2  0
 16 15  1  6
 16 18  1  0
 17 16  1  0
 18 19  1  0
 20 18  2  0
M  END
$$$$
