SMY.pdb
     RDKit          3D

 27 27  0  0  1  0  0  0  0  0999 V2000
    9.2776  -19.1979   21.3312 O   0  0  0  0  0  0  0  0  0  0  0  0
    8.0761  -18.8476   20.7642 C   0  0  0  0  0  0  0  0  0  0  0  0
    8.1187  -17.5596   19.9894 C   0  0  2  0  0  0  0  0  0  0  0  0
    8.9792  -17.6069   18.8524 N   0  0  0  0  0  0  0  0  0  0  0  0
    8.5859  -16.4872   20.9153 C   0  0  0  0  0  0  0  0  0  0  0  0
    9.8166  -16.2355   20.8775 O   0  0  0  0  0  0  0  0  0  0  0  0
    6.2710  -11.1916   26.3985 C   0  0  0  0  0  0  0  0  0  0  0  0
    5.9419  -12.7578   25.5568 S   0  0  0  0  0  0  0  0  0  0  0  0
    7.2627  -13.1114   24.3205 C   0  0  0  0  0  0  0  0  0  0  0  0
    6.8686  -14.3999   23.6370 C   0  0  0  0  0  0  0  0  0  0  0  0
    8.0147  -14.8230   22.7442 C   0  0  2  0  0  0  0  0  0  0  0  0
    7.7053  -15.8119   21.7660 N   0  0  0  0  0  0  0  0  0  0  0  0
    9.3029  -14.9989   23.3987 C   0  0  0  0  0  0  0  0  0  0  0  0
   10.0705  -13.9780   23.5417 O   0  0  0  0  0  0  0  0  0  0  0  0
   11.4291  -15.8373   31.5436 O   0  0  0  0  0  0  0  0  0  0  0  0
   10.9456  -15.8436   30.2466 C   0  0  0  0  0  0  0  0  0  0  0  0
   10.7671  -14.6613   29.5648 C   0  0  0  0  0  0  0  0  0  0  0  0
   10.2863  -14.6601   28.2738 C   0  0  0  0  0  0  0  0  0  0  0  0
    9.9571  -15.8349   27.5916 C   0  0  0  0  0  0  0  0  0  0  0  0
    9.4361  -15.7856   26.2103 C   0  0  0  0  0  0  0  0  0  0  0  0
   10.4259  -16.2885   25.1804 C   0  0  2  0  0  0  0  0  0  0  0  0
    9.7450  -16.2478   23.8852 N   0  0  0  0  0  0  0  0  0  0  0  0
   10.9525  -17.6181   25.4772 C   0  0  0  0  0  0  0  0  0  0  0  0
   12.1752  -17.7374   26.1187 O   0  0  0  0  0  0  0  0  0  0  0  0
   10.1432  -17.0143   28.2934 C   0  0  0  0  0  0  0  0  0  0  0  0
   10.6247  -17.0115   29.5853 C   0  0  0  0  0  0  0  0  0  0  0  0
   10.3637  -18.6907   25.1860 O   0  0  0  0  0  0  0  0  0  0  0  0
  2  1  1  0
  3  2  1  0
  3  4  1  6
  5  6  2  0
  5  3  1  0
  7  8  1  0
  8  9  1  0
  9 10  1  0
 11 10  1  1
 11 12  1  0
 12  5  1  0
 13 14  2  0
 13 11  1  0
 16 15  1  0
 17 16  2  0
 18 17  1  0
 19 18  2  0
 19 25  1  0
 20 19  1  0
 21 20  1  1
 21 22  1  0
 22 13  1  0
 23 21  1  0
 24 23  1  0
 25 26  2  0
 26 16  1  0
 27 23  2  0
M  END
$$$$
