SMY.pdb
     RDKit          3D

 27 27  0  0  1  0  0  0  0  0999 V2000
    8.1614  -18.4791   20.8941 O   0  0  0  0  0  0  0  0  0  0  0  0
    7.1939  -17.7451   20.2514 C   0  0  0  0  0  0  0  0  0  0  0  0
    7.6309  -16.3569   19.8733 C   0  0  2  0  0  0  0  0  0  0  0  0
    8.5571  -16.3267   18.7885 N   0  0  0  0  0  0  0  0  0  0  0  0
    8.2603  -15.7353   21.0746 C   0  0  0  0  0  0  0  0  0  0  0  0
    9.5164  -15.7624   21.1048 O   0  0  0  0  0  0  0  0  0  0  0  0
    5.6275  -10.9696   25.5106 C   0  0  0  0  0  0  0  0  0  0  0  0
    6.2367  -12.4618   26.3304 S   0  0  0  0  0  0  0  0  0  0  0  0
    7.5729  -13.2433   25.3295 C   0  0  0  0  0  0  0  0  0  0  0  0
    6.9035  -13.8114   24.0999 C   0  0  0  0  0  0  0  0  0  0  0  0
    7.9531  -14.5478   23.2964 C   0  0  2  0  0  0  0  0  0  0  0  0
    7.4951  -15.1626   22.0953 N   0  0  0  0  0  0  0  0  0  0  0  0
    8.9018  -15.3433   24.0619 C   0  0  0  0  0  0  0  0  0  0  0  0
    8.5966  -16.5559   24.3594 O   0  0  0  0  0  0  0  0  0  0  0  0
   12.0624  -17.1622   31.7175 O   0  0  0  0  0  0  0  0  0  0  0  0
   11.5104  -16.7949   30.5024 C   0  0  0  0  0  0  0  0  0  0  0  0
   11.4953  -15.4739   30.1160 C   0  0  0  0  0  0  0  0  0  0  0  0
   10.9477  -15.1011   28.9081 C   0  0  0  0  0  0  0  0  0  0  0  0
   10.3855  -16.0223   28.0197 C   0  0  0  0  0  0  0  0  0  0  0  0
    9.8012  -15.5764   26.7385 C   0  0  0  0  0  0  0  0  0  0  0  0
   10.8148  -15.4943   25.6163 C   0  0  2  0  0  0  0  0  0  0  0  0
   10.1472  -14.8371   24.4915 N   0  0  0  0  0  0  0  0  0  0  0  0
   11.3721  -16.7900   25.2371 C   0  0  0  0  0  0  0  0  0  0  0  0
   12.4415  -17.3056   25.9522 O   0  0  0  0  0  0  0  0  0  0  0  0
   10.4098  -17.3463   28.4255 C   0  0  0  0  0  0  0  0  0  0  0  0
   10.9588  -17.7155   29.6350 C   0  0  0  0  0  0  0  0  0  0  0  0
   10.9428  -17.4906   24.2849 O   0  0  0  0  0  0  0  0  0  0  0  0
  2  1  1  0
  3  2  1  0
  3  4  1  6
  5  6  2  0
  5  3  1  0
  7  8  1  0
  8  9  1  0
  9 10  1  0
 11 10  1  1
 11 12  1  0
 12  5  1  0
 13 14  2  0
 13 11  1  0
 16 15  1  0
 17 16  2  0
 18 17  1  0
 19 18  2  0
 19 25  1  0
 20 19  1  0
 21 20  1  1
 21 22  1  0
 22 13  1  0
 23 21  1  0
 24 23  1  0
 25 26  2  0
 26 16  1  0
 27 23  2  0
M  END
$$$$
