SMY.pdb
     RDKit          3D

 27 27  0  0  1  0  0  0  0  0999 V2000
    8.6127  -18.8501   21.3171 O   0  0  0  0  0  0  0  0  0  0  0  0
    7.5438  -18.2202   20.7269 C   0  0  0  0  0  0  0  0  0  0  0  0
    7.8927  -16.9159   20.0650 C   0  0  2  0  0  0  0  0  0  0  0  0
    8.8603  -17.0458   19.0246 N   0  0  0  0  0  0  0  0  0  0  0  0
    8.4216  -15.9995   21.1167 C   0  0  0  0  0  0  0  0  0  0  0  0
    9.6331  -15.6851   21.0036 O   0  0  0  0  0  0  0  0  0  0  0  0
    6.5342  -11.3026   27.2010 C   0  0  0  0  0  0  0  0  0  0  0  0
    6.0593  -12.6331   26.0722 S   0  0  0  0  0  0  0  0  0  0  0  0
    7.2808  -12.7757   24.6991 C   0  0  0  0  0  0  0  0  0  0  0  0
    6.7480  -13.8392   23.7675 C   0  0  0  0  0  0  0  0  0  0  0  0
    7.9308  -14.5364   23.1315 C   0  0  2  0  0  0  0  0  0  0  0  0
    7.6151  -15.5265   22.1565 N   0  0  0  0  0  0  0  0  0  0  0  0
    9.0198  -14.8936   24.0288 C   0  0  0  0  0  0  0  0  0  0  0  0
    9.1565  -14.2422   25.1283 O   0  0  0  0  0  0  0  0  0  0  0  0
   11.1419  -14.5127   30.9568 O   0  0  0  0  0  0  0  0  0  0  0  0
   10.8549  -15.1079   29.7405 C   0  0  0  0  0  0  0  0  0  0  0  0
   10.3743  -14.3546   28.6935 C   0  0  0  0  0  0  0  0  0  0  0  0
   10.0866  -14.9403   27.4802 C   0  0  0  0  0  0  0  0  0  0  0  0
   10.2614  -16.3068   27.2432 C   0  0  0  0  0  0  0  0  0  0  0  0
    9.9312  -16.8937   25.9286 C   0  0  0  0  0  0  0  0  0  0  0  0
   10.8206  -16.3920   24.8102 C   0  0  2  0  0  0  0  0  0  0  0  0
    9.9343  -15.9294   23.7410 N   0  0  0  0  0  0  0  0  0  0  0  0
   11.7760  -17.3882   24.3327 C   0  0  0  0  0  0  0  0  0  0  0  0
   13.0534  -17.4169   24.8694 O   0  0  0  0  0  0  0  0  0  0  0  0
   10.7455  -17.0482   28.3080 C   0  0  0  0  0  0  0  0  0  0  0  0
   11.0324  -16.4586   29.5207 C   0  0  0  0  0  0  0  0  0  0  0  0
   11.5191  -18.2438   23.4473 O   0  0  0  0  0  0  0  0  0  0  0  0
  2  1  1  0
  3  2  1  0
  3  4  1  6
  5  6  2  0
  5  3  1  0
  7  8  1  0
  8  9  1  0
  9 10  1  0
 11 10  1  1
 11 12  1  0
 12  5  1  0
 13 14  2  0
 13 11  1  0
 16 15  1  0
 17 16  2  0
 18 17  1  0
 19 18  2  0
 19 25  1  0
 20 19  1  0
 21 20  1  1
 21 22  1  0
 22 13  1  0
 23 21  1  0
 24 23  1  0
 25 26  2  0
 26 16  1  0
 27 23  2  0
M  END
$$$$
