SMY.pdb
     RDKit          3D

 27 27  0  0  1  0  0  0  0  0999 V2000
    8.0574  -15.1287   17.7312 O   0  0  0  0  0  0  0  0  0  0  0  0
    8.5529  -14.8903   18.9903 C   0  0  0  0  0  0  0  0  0  0  0  0
    7.7224  -13.9359   19.8029 C   0  0  2  0  0  0  0  0  0  0  0  0
    7.7564  -12.5950   19.3170 N   0  0  0  0  0  0  0  0  0  0  0  0
    8.2364  -13.9646   21.2032 C   0  0  0  0  0  0  0  0  0  0  0  0
    9.2661  -13.2767   21.4177 O   0  0  0  0  0  0  0  0  0  0  0  0
    6.2877  -11.8018   26.9414 C   0  0  0  0  0  0  0  0  0  0  0  0
    7.0091  -13.3917   26.4704 S   0  0  0  0  0  0  0  0  0  0  0  0
    6.2734  -13.9863   24.8883 C   0  0  0  0  0  0  0  0  0  0  0  0
    6.9861  -15.2743   24.5479 C   0  0  0  0  0  0  0  0  0  0  0  0
    8.0622  -14.9568   23.5326 C   0  0  2  0  0  0  0  0  0  0  0  0
    7.6075  -14.7107   22.2046 N   0  0  0  0  0  0  0  0  0  0  0  0
    9.2779  -15.7525   23.6202 C   0  0  0  0  0  0  0  0  0  0  0  0
    9.4590  -16.7035   22.7747 O   0  0  0  0  0  0  0  0  0  0  0  0
   10.2942  -15.2025   30.9470 O   0  0  0  0  0  0  0  0  0  0  0  0
   10.8039  -15.3880   29.6735 C   0  0  0  0  0  0  0  0  0  0  0  0
   10.7733  -14.3626   28.7558 C   0  0  0  0  0  0  0  0  0  0  0  0
   11.2789  -14.5399   27.4866 C   0  0  0  0  0  0  0  0  0  0  0  0
   11.8420  -15.7469   27.0620 C   0  0  0  0  0  0  0  0  0  0  0  0
   12.3640  -15.8950   25.6883 C   0  0  0  0  0  0  0  0  0  0  0  0
   11.3570  -16.4930   24.7281 C   0  0  2  0  0  0  0  0  0  0  0  0
   10.2695  -15.5219   24.5976 N   0  0  0  0  0  0  0  0  0  0  0  0
   10.8678  -17.8065   25.1385 C   0  0  0  0  0  0  0  0  0  0  0  0
    9.5508  -17.9440   25.5475 O   0  0  0  0  0  0  0  0  0  0  0  0
   11.8639  -16.7667   27.9988 C   0  0  0  0  0  0  0  0  0  0  0  0
   11.3570  -16.5854   29.2681 C   0  0  0  0  0  0  0  0  0  0  0  0
   11.5712  -18.8491   25.1490 O   0  0  0  0  0  0  0  0  0  0  0  0
  2  1  1  0
  3  2  1  0
  3  4  1  6
  5  6  2  0
  5  3  1  0
  7  8  1  0
  8  9  1  0
  9 10  1  0
 11 10  1  1
 11 12  1  0
 12  5  1  0
 13 14  2  0
 13 11  1  0
 16 15  1  0
 17 16  2  0
 18 17  1  0
 19 18  2  0
 19 25  1  0
 20 19  1  0
 21 20  1  1
 21 22  1  0
 22 13  1  0
 23 21  1  0
 24 23  1  0
 25 26  2  0
 26 16  1  0
 27 23  2  0
M  END
$$$$
