SMY.pdb
     RDKit          3D

 27 27  0  0  1  0  0  0  0  0999 V2000
    9.1137  -18.5991   22.1695 O   0  0  0  0  0  0  0  0  0  0  0  0
    8.1020  -18.5754   21.2402 C   0  0  0  0  0  0  0  0  0  0  0  0
    8.0557  -17.3162   20.4197 C   0  0  2  0  0  0  0  0  0  0  0  0
    8.9177  -17.3446   19.2832 N   0  0  0  0  0  0  0  0  0  0  0  0
    8.4473  -16.1815   21.3056 C   0  0  0  0  0  0  0  0  0  0  0  0
    9.6338  -15.7847   21.1870 O   0  0  0  0  0  0  0  0  0  0  0  0
    5.4243  -11.2065   26.6320 C   0  0  0  0  0  0  0  0  0  0  0  0
    5.9830  -12.8470   26.1158 S   0  0  0  0  0  0  0  0  0  0  0  0
    6.9683  -12.7295   24.5623 C   0  0  0  0  0  0  0  0  0  0  0  0
    6.5319  -13.8878   23.6958 C   0  0  0  0  0  0  0  0  0  0  0  0
    7.7718  -14.5123   23.0940 C   0  0  2  0  0  0  0  0  0  0  0  0
    7.5469  -15.6038   22.2060 N   0  0  0  0  0  0  0  0  0  0  0  0
    8.9013  -14.6863   23.9956 C   0  0  0  0  0  0  0  0  0  0  0  0
    9.3512  -13.6635   24.6308 O   0  0  0  0  0  0  0  0  0  0  0  0
   12.0188  -16.3140   31.6345 O   0  0  0  0  0  0  0  0  0  0  0  0
   11.3881  -16.2106   30.4067 C   0  0  0  0  0  0  0  0  0  0  0  0
   11.2728  -14.9883   29.7845 C   0  0  0  0  0  0  0  0  0  0  0  0
   10.6465  -14.8779   28.5624 C   0  0  0  0  0  0  0  0  0  0  0  0
   10.1012  -15.9776   27.8936 C   0  0  0  0  0  0  0  0  0  0  0  0
    9.4302  -15.8112   26.5883 C   0  0  0  0  0  0  0  0  0  0  0  0
   10.3309  -16.1193   25.4104 C   0  0  2  0  0  0  0  0  0  0  0  0
    9.5242  -15.9357   24.2027 N   0  0  0  0  0  0  0  0  0  0  0  0
   10.9315  -17.4493   25.4670 C   0  0  0  0  0  0  0  0  0  0  0  0
   10.2177  -18.5384   24.9922 O   0  0  0  0  0  0  0  0  0  0  0  0
   10.2267  -17.1987   28.5349 C   0  0  0  0  0  0  0  0  0  0  0  0
   10.8543  -17.3052   29.7578 C   0  0  0  0  0  0  0  0  0  0  0  0
   12.0779  -17.6862   25.9270 O   0  0  0  0  0  0  0  0  0  0  0  0
  2  1  1  0
  3  2  1  0
  3  4  1  6
  5  6  2  0
  5  3  1  0
  7  8  1  0
  8  9  1  0
  9 10  1  0
 11 10  1  1
 11 12  1  0
 12  5  1  0
 13 14  2  0
 13 11  1  0
 16 15  1  0
 17 16  2  0
 18 17  1  0
 19 18  2  0
 19 25  1  0
 20 19  1  0
 21 20  1  1
 21 22  1  0
 22 13  1  0
 23 21  1  0
 24 23  1  0
 25 26  2  0
 26 16  1  0
 27 23  2  0
M  END
$$$$
