SMY.pdb
     RDKit          3D

 27 27  0  0  1  0  0  0  0  0999 V2000
    7.3317  -18.6620   21.9202 O   0  0  0  0  0  0  0  0  0  0  0  0
    6.4508  -17.7980   21.3159 C   0  0  0  0  0  0  0  0  0  0  0  0
    7.0958  -16.5607   20.7557 C   0  0  2  0  0  0  0  0  0  0  0  0
    8.0549  -16.8306   19.7346 N   0  0  0  0  0  0  0  0  0  0  0  0
    7.7645  -15.8468   21.8821 C   0  0  0  0  0  0  0  0  0  0  0  0
    9.0138  -15.9712   21.9383 O   0  0  0  0  0  0  0  0  0  0  0  0
    6.9241  -10.4839   27.6836 C   0  0  0  0  0  0  0  0  0  0  0  0
    6.1240  -11.4763   26.4010 S   0  0  0  0  0  0  0  0  0  0  0  0
    7.3307  -12.6529   25.6545 C   0  0  0  0  0  0  0  0  0  0  0  0
    6.5776  -13.4101   24.5856 C   0  0  0  0  0  0  0  0  0  0  0  0
    7.5342  -14.3965   23.9520 C   0  0  2  0  0  0  0  0  0  0  0  0
    7.0409  -15.0912   22.8098 N   0  0  0  0  0  0  0  0  0  0  0  0
    8.3099  -15.2152   24.8722 C   0  0  0  0  0  0  0  0  0  0  0  0
    7.7237  -15.7194   25.8989 O   0  0  0  0  0  0  0  0  0  0  0  0
    7.8317  -20.9441   29.4416 O   0  0  0  0  0  0  0  0  0  0  0  0
    8.2321  -20.2008   28.3448 C   0  0  0  0  0  0  0  0  0  0  0  0
    9.2902  -19.3262   28.4456 C   0  0  0  0  0  0  0  0  0  0  0  0
    9.6943  -18.5833   27.3581 C   0  0  0  0  0  0  0  0  0  0  0  0
    9.0674  -18.6704   26.1117 C   0  0  0  0  0  0  0  0  0  0  0  0
    9.5289  -17.8477   24.9750 C   0  0  0  0  0  0  0  0  0  0  0  0
   10.2809  -16.6050   25.4037 C   0  0  2  0  0  0  0  0  0  0  0  0
    9.6832  -15.4800   24.6826 N   0  0  0  0  0  0  0  0  0  0  0  0
   11.7221  -16.6896   25.1828 C   0  0  0  0  0  0  0  0  0  0  0  0
   12.2314  -16.4442   23.9173 O   0  0  0  0  0  0  0  0  0  0  0  0
    8.0052  -19.5552   26.0294 C   0  0  0  0  0  0  0  0  0  0  0  0
    7.6038  -20.2971   27.1200 C   0  0  0  0  0  0  0  0  0  0  0  0
   12.5570  -16.9763   26.0786 O   0  0  0  0  0  0  0  0  0  0  0  0
  2  1  1  0
  3  2  1  0
  3  4  1  6
  5  6  2  0
  5  3  1  0
  7  8  1  0
  8  9  1  0
  9 10  1  0
 11 10  1  1
 11 12  1  0
 12  5  1  0
 13 14  2  0
 13 11  1  0
 16 15  1  0
 17 16  2  0
 18 17  1  0
 19 18  2  0
 19 25  1  0
 20 19  1  0
 21 20  1  6
 21 22  1  0
 22 13  1  0
 23 21  1  0
 24 23  1  0
 25 26  2  0
 26 16  1  0
 27 23  2  0
M  END
$$$$
