SMY.pdb
     RDKit          3D

 27 27  0  0  1  0  0  0  0  0999 V2000
    6.5584  -18.3826   24.2088 O   0  0  0  0  0  0  0  0  0  0  0  0
    5.6163  -17.9331   23.3155 C   0  0  0  0  0  0  0  0  0  0  0  0
    5.9834  -18.1590   21.8750 C   0  0  2  0  0  0  0  0  0  0  0  0
    6.1265  -19.5367   21.5328 N   0  0  0  0  0  0  0  0  0  0  0  0
    7.2718  -17.4522   21.6179 C   0  0  0  0  0  0  0  0  0  0  0  0
    8.2907  -18.1855   21.5575 O   0  0  0  0  0  0  0  0  0  0  0  0
    6.4331  -12.2339   17.4509 C   0  0  0  0  0  0  0  0  0  0  0  0
    7.4518  -12.2319   18.9449 S   0  0  0  0  0  0  0  0  0  0  0  0
    7.6952  -13.9534   19.5575 C   0  0  0  0  0  0  0  0  0  0  0  0
    8.2982  -13.8303   20.9373 C   0  0  0  0  0  0  0  0  0  0  0  0
    8.4843  -15.2263   21.4906 C   0  0  2  0  0  0  0  0  0  0  0  0
    7.3325  -16.0647   21.4562 N   0  0  0  0  0  0  0  0  0  0  0  0
    9.2748  -15.3307   22.7083 C   0  0  0  0  0  0  0  0  0  0  0  0
   10.4146  -14.7390   22.7605 O   0  0  0  0  0  0  0  0  0  0  0  0
   11.1378  -15.3916   31.2903 O   0  0  0  0  0  0  0  0  0  0  0  0
   10.5451  -15.3844   30.0395 C   0  0  0  0  0  0  0  0  0  0  0  0
   10.1665  -16.5653   29.4422 C   0  0  0  0  0  0  0  0  0  0  0  0
    9.5760  -16.5658   28.1975 C   0  0  0  0  0  0  0  0  0  0  0  0
    9.3305  -15.3915   27.4800 C   0  0  0  0  0  0  0  0  0  0  0  0
    8.7028  -15.4400   26.1439 C   0  0  0  0  0  0  0  0  0  0  0  0
    9.6288  -15.9676   25.0679 C   0  0  2  0  0  0  0  0  0  0  0  0
    8.8399  -16.0563   23.8380 N   0  0  0  0  0  0  0  0  0  0  0  0
   10.2518  -17.2439   25.4084 C   0  0  0  0  0  0  0  0  0  0  0  0
   11.5092  -17.2526   25.9913 O   0  0  0  0  0  0  0  0  0  0  0  0
    9.7181  -14.2136   28.0968 C   0  0  0  0  0  0  0  0  0  0  0  0
   10.3087  -14.2172   29.3426 C   0  0  0  0  0  0  0  0  0  0  0  0
    9.7185  -18.3649   25.2062 O   0  0  0  0  0  0  0  0  0  0  0  0
  2  1  1  0
  3  2  1  0
  3  4  1  1
  5  6  2  0
  5  3  1  0
  7  8  1  0
  8  9  1  0
  9 10  1  0
 11 10  1  1
 11 12  1  0
 12  5  1  0
 13 14  2  0
 13 11  1  0
 16 15  1  0
 17 16  2  0
 18 17  1  0
 19 18  2  0
 19 25  1  0
 20 19  1  0
 21 20  1  1
 21 22  1  0
 22 13  1  0
 23 21  1  0
 24 23  1  0
 25 26  2  0
 26 16  1  0
 27 23  2  0
M  END
$$$$
