SMY.pdb
     RDKit          3D

 27 27  0  0  1  0  0  0  0  0999 V2000
    9.7307  -18.4234   21.8247 O   0  0  0  0  0  0  0  0  0  0  0  0
    8.4237  -18.2419   21.4417 C   0  0  0  0  0  0  0  0  0  0  0  0
    8.1389  -16.8821   20.8666 C   0  0  2  0  0  0  0  0  0  0  0  0
    8.8661  -16.6055   19.6707 N   0  0  0  0  0  0  0  0  0  0  0  0
    8.4913  -15.8676   21.9021 C   0  0  0  0  0  0  0  0  0  0  0  0
    9.6175  -15.3257   21.7701 O   0  0  0  0  0  0  0  0  0  0  0  0
    5.9558  -10.3833   26.4394 C   0  0  0  0  0  0  0  0  0  0  0  0
    5.6822  -11.8187   25.3742 S   0  0  0  0  0  0  0  0  0  0  0  0
    6.9162  -13.1369   25.7449 C   0  0  0  0  0  0  0  0  0  0  0  0
    6.5847  -14.2954   24.8333 C   0  0  0  0  0  0  0  0  0  0  0  0
    7.7962  -14.5697   23.9693 C   0  0  2  0  0  0  0  0  0  0  0  0
    7.6197  -15.5471   22.9475 N   0  0  0  0  0  0  0  0  0  0  0  0
    9.0732  -14.6420   24.6642 C   0  0  0  0  0  0  0  0  0  0  0  0
    9.4805  -13.6155   25.3217 O   0  0  0  0  0  0  0  0  0  0  0  0
   12.4750  -17.5751   31.8213 O   0  0  0  0  0  0  0  0  0  0  0  0
   11.8237  -17.2015   30.6586 C   0  0  0  0  0  0  0  0  0  0  0  0
   11.3818  -18.1563   29.7710 C   0  0  0  0  0  0  0  0  0  0  0  0
   10.7327  -17.7918   28.6118 C   0  0  0  0  0  0  0  0  0  0  0  0
   10.4884  -16.4577   28.2732 C   0  0  0  0  0  0  0  0  0  0  0  0
    9.7963  -16.1125   27.0148 C   0  0  0  0  0  0  0  0  0  0  0  0
   10.7203  -16.0775   25.8153 C   0  0  2  0  0  0  0  0  0  0  0  0
    9.8847  -15.7966   24.6467 N   0  0  0  0  0  0  0  0  0  0  0  0
   11.5019  -17.2994   25.6448 C   0  0  0  0  0  0  0  0  0  0  0  0
   10.8626  -18.4673   25.2598 O   0  0  0  0  0  0  0  0  0  0  0  0
   10.9401  -15.5115   29.1779 C   0  0  0  0  0  0  0  0  0  0  0  0
   11.5892  -15.8802   30.3370 C   0  0  0  0  0  0  0  0  0  0  0  0
   12.7443  -17.3727   25.8265 O   0  0  0  0  0  0  0  0  0  0  0  0
  2  1  1  0
  3  2  1  0
  3  4  1  6
  5  6  2  0
  5  3  1  0
  7  8  1  0
  8  9  1  0
  9 10  1  0
 11 10  1  1
 11 12  1  0
 12  5  1  0
 13 14  2  0
 13 11  1  0
 16 15  1  0
 17 16  2  0
 18 17  1  0
 19 18  2  0
 19 25  1  0
 20 19  1  0
 21 20  1  1
 21 22  1  0
 22 13  1  0
 23 21  1  0
 24 23  1  0
 25 26  2  0
 26 16  1  0
 27 23  2  0
M  END
$$$$
