SMY.pdb
     RDKit          3D

 27 27  0  0  1  0  0  0  0  0999 V2000
    7.1923  -18.1691   23.1622 O   0  0  0  0  0  0  0  0  0  0  0  0
    6.8449  -18.0450   21.8387 C   0  0  0  0  0  0  0  0  0  0  0  0
    6.7390  -16.6216   21.3658 C   0  0  2  0  0  0  0  0  0  0  0  0
    6.6772  -16.4959   19.9460 N   0  0  0  0  0  0  0  0  0  0  0  0
    7.9324  -15.8839   21.8731 C   0  0  0  0  0  0  0  0  0  0  0  0
    8.9506  -15.9276   21.1379 O   0  0  0  0  0  0  0  0  0  0  0  0
    4.9862  -11.4487   25.6966 C   0  0  0  0  0  0  0  0  0  0  0  0
    6.7676  -11.7578   25.6638 S   0  0  0  0  0  0  0  0  0  0  0  0
    7.1501  -13.1893   24.5672 C   0  0  0  0  0  0  0  0  0  0  0  0
    8.6372  -13.4279   24.6861 C   0  0  0  0  0  0  0  0  0  0  0  0
    9.0003  -14.5725   23.7654 C   0  0  2  0  0  0  0  0  0  0  0  0
    7.9104  -15.1922   23.0882 N   0  0  0  0  0  0  0  0  0  0  0  0
   10.0104  -15.4956   24.2616 C   0  0  0  0  0  0  0  0  0  0  0  0
   11.0923  -15.0189   24.7658 O   0  0  0  0  0  0  0  0  0  0  0  0
   10.5015  -14.3534   30.2924 O   0  0  0  0  0  0  0  0  0  0  0  0
   10.4767  -15.3030   29.2856 C   0  0  0  0  0  0  0  0  0  0  0  0
    9.4095  -15.3704   28.4189 C   0  0  0  0  0  0  0  0  0  0  0  0
    9.3781  -16.3129   27.4145 C   0  0  0  0  0  0  0  0  0  0  0  0
   10.4066  -17.2390   27.2184 C   0  0  0  0  0  0  0  0  0  0  0  0
   10.3266  -18.2381   26.1335 C   0  0  0  0  0  0  0  0  0  0  0  0
   10.8850  -17.7371   24.8179 C   0  0  2  0  0  0  0  0  0  0  0  0
    9.8503  -16.8970   24.2126 N   0  0  0  0  0  0  0  0  0  0  0  0
   11.3122  -18.8068   23.9199 C   0  0  0  0  0  0  0  0  0  0  0  0
   12.3375  -19.6535   24.3106 O   0  0  0  0  0  0  0  0  0  0  0  0
   11.4716  -17.1559   28.0998 C   0  0  0  0  0  0  0  0  0  0  0  0
   11.4995  -16.2113   29.1037 C   0  0  0  0  0  0  0  0  0  0  0  0
   10.8059  -19.0220   22.7888 O   0  0  0  0  0  0  0  0  0  0  0  0
  2  1  1  0
  3  2  1  0
  3  4  1  6
  5  6  2  0
  5  3  1  0
  7  8  1  0
  8  9  1  0
  9 10  1  0
 11 10  1  1
 11 12  1  0
 12  5  1  0
 13 14  2  0
 13 11  1  0
 16 15  1  0
 17 16  2  0
 18 17  1  0
 19 18  2  0
 19 25  1  0
 20 19  1  0
 21 20  1  1
 21 22  1  0
 22 13  1  0
 23 21  1  0
 24 23  1  0
 25 26  2  0
 26 16  1  0
 27 23  2  0
M  END
$$$$
