SMY.pdb
     RDKit          3D

 27 27  0  0  1  0  0  0  0  0999 V2000
   11.1479  -18.1465   17.1414 O   0  0  0  0  0  0  0  0  0  0  0  0
   10.5551  -17.5965   18.2522 C   0  0  0  0  0  0  0  0  0  0  0  0
    9.0530  -17.5650   18.1905 C   0  0  2  0  0  0  0  0  0  0  0  0
    8.5424  -16.6962   17.1805 N   0  0  0  0  0  0  0  0  0  0  0  0
    8.5525  -17.1176   19.5228 C   0  0  0  0  0  0  0  0  0  0  0  0
    8.5214  -15.8740   19.7015 O   0  0  0  0  0  0  0  0  0  0  0  0
    2.8811  -20.1977   20.7315 C   0  0  0  0  0  0  0  0  0  0  0  0
    4.2579  -20.0346   21.8924 S   0  0  0  0  0  0  0  0  0  0  0  0
    5.4049  -18.7001   21.3436 C   0  0  0  0  0  0  0  0  0  0  0  0
    6.5738  -18.7266   22.3006 C   0  0  0  0  0  0  0  0  0  0  0  0
    7.6129  -17.7503   21.7938 C   0  0  2  0  0  0  0  0  0  0  0  0
    8.1470  -18.0292   20.5025 N   0  0  0  0  0  0  0  0  0  0  0  0
    8.5919  -17.2955   22.7703 C   0  0  0  0  0  0  0  0  0  0  0  0
    9.7975  -17.7337   22.6902 O   0  0  0  0  0  0  0  0  0  0  0  0
   10.7849  -14.8180   30.9477 O   0  0  0  0  0  0  0  0  0  0  0  0
   10.2911  -14.8624   29.6554 C   0  0  0  0  0  0  0  0  0  0  0  0
   10.2082  -13.7133   28.9023 C   0  0  0  0  0  0  0  0  0  0  0  0
    9.7178  -13.7500   27.6154 C   0  0  0  0  0  0  0  0  0  0  0  0
    9.2834  -14.9320   27.0085 C   0  0  0  0  0  0  0  0  0  0  0  0
    8.7562  -14.9230   25.6287 C   0  0  0  0  0  0  0  0  0  0  0  0
    9.3145  -16.0377   24.7689 C   0  0  2  0  0  0  0  0  0  0  0  0
    8.2714  -16.3896   23.8040 N   0  0  0  0  0  0  0  0  0  0  0  0
    9.7615  -17.1979   25.5350 C   0  0  0  0  0  0  0  0  0  0  0  0
    8.8747  -18.2350   25.7777 O   0  0  0  0  0  0  0  0  0  0  0  0
    9.3742  -16.0776   27.7813 C   0  0  0  0  0  0  0  0  0  0  0  0
    9.8657  -16.0368   29.0688 C   0  0  0  0  0  0  0  0  0  0  0  0
   10.9213  -17.3291   26.0036 O   0  0  0  0  0  0  0  0  0  0  0  0
  2  1  1  0
  3  2  1  0
  3  4  1  6
  5  6  2  0
  5  3  1  0
  7  8  1  0
  8  9  1  0
  9 10  1  0
 11 10  1  1
 11 12  1  0
 12  5  1  0
 13 14  2  0
 13 11  1  0
 16 15  1  0
 17 16  2  0
 18 17  1  0
 19 18  2  0
 19 25  1  0
 20 19  1  0
 21 20  1  1
 21 22  1  0
 22 13  1  0
 23 21  1  0
 24 23  1  0
 25 26  2  0
 26 16  1  0
 27 23  2  0
M  END
$$$$
