SMY.pdb
     RDKit          3D

 27 27  0  0  1  0  0  0  0  0999 V2000
   10.3025  -19.4003   18.8841 O   0  0  0  0  0  0  0  0  0  0  0  0
    8.9896  -19.3626   19.2874 C   0  0  0  0  0  0  0  0  0  0  0  0
    8.8108  -19.2585   20.7767 C   0  0  2  0  0  0  0  0  0  0  0  0
    7.4464  -19.3038   21.1913 N   0  0  0  0  0  0  0  0  0  0  0  0
    9.4162  -17.9685   21.2183 C   0  0  0  0  0  0  0  0  0  0  0  0
   10.6530  -17.8553   21.0262 O   0  0  0  0  0  0  0  0  0  0  0  0
    7.7661  -12.1648   18.4462 C   0  0  0  0  0  0  0  0  0  0  0  0
    7.5043  -12.6838   20.1585 S   0  0  0  0  0  0  0  0  0  0  0  0
    8.6186  -14.0904   20.5798 C   0  0  0  0  0  0  0  0  0  0  0  0
    8.2621  -14.5056   21.9881 C   0  0  0  0  0  0  0  0  0  0  0  0
    9.0986  -15.7156   22.3428 C   0  0  2  0  0  0  0  0  0  0  0  0
    8.6502  -16.9573   21.8066 N   0  0  0  0  0  0  0  0  0  0  0  0
    9.5724  -15.7838   23.7174 C   0  0  0  0  0  0  0  0  0  0  0  0
   10.4110  -14.9010   24.1290 O   0  0  0  0  0  0  0  0  0  0  0  0
    5.6581  -11.5149   25.9312 O   0  0  0  0  0  0  0  0  0  0  0  0
    6.3132  -12.7137   26.1536 C   0  0  0  0  0  0  0  0  0  0  0  0
    5.6796  -13.9098   25.9034 C   0  0  0  0  0  0  0  0  0  0  0  0
    6.3254  -15.1067   26.1223 C   0  0  0  0  0  0  0  0  0  0  0  0
    7.6364  -15.1783   26.6022 C   0  0  0  0  0  0  0  0  0  0  0  0
    8.2868  -16.4847   26.8309 C   0  0  0  0  0  0  0  0  0  0  0  0
    9.5536  -16.6708   26.0221 C   0  0  2  0  0  0  0  0  0  0  0  0
    9.1471  -16.7818   24.6202 N   0  0  0  0  0  0  0  0  0  0  0  0
   10.3557  -17.8144   26.4487 C   0  0  0  0  0  0  0  0  0  0  0  0
   10.6753  -18.8013   25.5296 O   0  0  0  0  0  0  0  0  0  0  0  0
    8.2576  -13.9652   26.8481 C   0  0  0  0  0  0  0  0  0  0  0  0
    7.6080  -12.7693   26.6276 C   0  0  0  0  0  0  0  0  0  0  0  0
   10.7888  -17.9745   27.6186 O   0  0  0  0  0  0  0  0  0  0  0  0
  2  1  1  0
  3  2  1  0
  3  4  1  6
  5  6  2  0
  5  3  1  0
  7  8  1  0
  8  9  1  0
  9 10  1  0
 11 10  1  1
 11 12  1  0
 12  5  1  0
 13 14  2  0
 13 11  1  0
 16 15  1  0
 17 16  2  0
 18 17  1  0
 19 18  2  0
 19 25  1  0
 20 19  1  0
 21 20  1  1
 21 22  1  0
 22 13  1  0
 23 21  1  0
 24 23  1  0
 25 26  2  0
 26 16  1  0
 27 23  2  0
M  END
$$$$
