SMY.pdb
     RDKit          3D

 27 27  0  0  1  0  0  0  0  0999 V2000
    8.3248  -16.6269   18.2964 O   0  0  0  0  0  0  0  0  0  0  0  0
    9.2827  -17.4251   18.8736 C   0  0  0  0  0  0  0  0  0  0  0  0
    9.0385  -17.7178   20.3281 C   0  0  2  0  0  0  0  0  0  0  0  0
    7.7340  -18.2302   20.5950 N   0  0  0  0  0  0  0  0  0  0  0  0
    9.2323  -16.4476   21.0863 C   0  0  0  0  0  0  0  0  0  0  0  0
   10.4044  -15.9944   21.0956 O   0  0  0  0  0  0  0  0  0  0  0  0
    6.4097  -11.4231   26.1840 C   0  0  0  0  0  0  0  0  0  0  0  0
    6.2008  -12.8823   25.1365 S   0  0  0  0  0  0  0  0  0  0  0  0
    7.1482  -12.6864   23.5675 C   0  0  0  0  0  0  0  0  0  0  0  0
    6.8906  -13.9363   22.7587 C   0  0  0  0  0  0  0  0  0  0  0  0
    8.2173  -14.6293   22.5370 C   0  0  2  0  0  0  0  0  0  0  0  0
    8.1737  -15.8104   21.7408 N   0  0  0  0  0  0  0  0  0  0  0  0
    9.0973  -14.7093   23.6937 C   0  0  0  0  0  0  0  0  0  0  0  0
    9.2749  -13.6582   24.4117 O   0  0  0  0  0  0  0  0  0  0  0  0
   11.6863  -16.2264   31.6423 O   0  0  0  0  0  0  0  0  0  0  0  0
   11.1408  -16.0883   30.3777 C   0  0  0  0  0  0  0  0  0  0  0  0
   10.9685  -17.1896   29.5702 C   0  0  0  0  0  0  0  0  0  0  0  0
   10.4262  -17.0597   28.3105 C   0  0  0  0  0  0  0  0  0  0  0  0
   10.0260  -15.8272   27.7862 C   0  0  0  0  0  0  0  0  0  0  0  0
    9.4573  -15.7335   26.4263 C   0  0  0  0  0  0  0  0  0  0  0  0
   10.4884  -15.9236   25.3334 C   0  0  2  0  0  0  0  0  0  0  0  0
    9.7651  -15.8971   24.0611 N   0  0  0  0  0  0  0  0  0  0  0  0
   11.2810  -17.1410   25.4840 C   0  0  0  0  0  0  0  0  0  0  0  0
   12.5137  -17.0761   26.1142 O   0  0  0  0  0  0  0  0  0  0  0  0
   10.2070  -14.7308   28.6129 C   0  0  0  0  0  0  0  0  0  0  0  0
   10.7500  -14.8648   29.8730 C   0  0  0  0  0  0  0  0  0  0  0  0
   10.9189  -18.2733   25.0732 O   0  0  0  0  0  0  0  0  0  0  0  0
  2  1  1  0
  3  2  1  0
  3  4  1  6
  5  6  2  0
  5  3  1  0
  7  8  1  0
  8  9  1  0
  9 10  1  0
 11 10  1  1
 11 12  1  0
 12  5  1  0
 13 14  2  0
 13 11  1  0
 16 15  1  0
 17 16  2  0
 18 17  1  0
 19 18  2  0
 19 25  1  0
 20 19  1  0
 21 20  1  1
 21 22  1  0
 22 13  1  0
 23 21  1  0
 24 23  1  0
 25 26  2  0
 26 16  1  0
 27 23  2  0
M  END
$$$$
