SMY.pdb
     RDKit          3D

 27 27  0  0  1  0  0  0  0  0999 V2000
    7.0876  -18.2139   21.6874 O   0  0  0  0  0  0  0  0  0  0  0  0
    6.2161  -17.2537   21.2331 C   0  0  0  0  0  0  0  0  0  0  0  0
    6.8909  -16.0401   20.6563 C   0  0  2  0  0  0  0  0  0  0  0  0
    7.5488  -16.2899   19.4151 N   0  0  0  0  0  0  0  0  0  0  0  0
    7.8899  -15.5580   21.6539 C   0  0  0  0  0  0  0  0  0  0  0  0
    9.0906  -15.8183   21.3892 O   0  0  0  0  0  0  0  0  0  0  0  0
    6.6222  -12.0240   27.1802 C   0  0  0  0  0  0  0  0  0  0  0  0
    5.4472  -12.2790   25.8296 S   0  0  0  0  0  0  0  0  0  0  0  0
    6.1835  -13.3657   24.5355 C   0  0  0  0  0  0  0  0  0  0  0  0
    7.6755  -13.1329   24.5862 C   0  0  0  0  0  0  0  0  0  0  0  0
    8.3428  -14.2053   23.7529 C   0  0  2  0  0  0  0  0  0  0  0  0
    7.5064  -14.8631   22.8051 N   0  0  0  0  0  0  0  0  0  0  0  0
    9.2652  -15.0818   24.4598 C   0  0  0  0  0  0  0  0  0  0  0  0
    9.8685  -14.6355   25.5032 O   0  0  0  0  0  0  0  0  0  0  0  0
   11.0157  -13.7672   30.2857 O   0  0  0  0  0  0  0  0  0  0  0  0
   10.6787  -14.6757   29.2973 C   0  0  0  0  0  0  0  0  0  0  0  0
    9.7810  -14.3313   28.3124 C   0  0  0  0  0  0  0  0  0  0  0  0
    9.4410  -15.2304   27.3255 C   0  0  0  0  0  0  0  0  0  0  0  0
    9.9757  -16.5206   27.2654 C   0  0  0  0  0  0  0  0  0  0  0  0
    9.5754  -17.4549   26.1938 C   0  0  0  0  0  0  0  0  0  0  0  0
   10.3493  -17.2551   24.9074 C   0  0  2  0  0  0  0  0  0  0  0  0
    9.5247  -16.4060   24.0461 N   0  0  0  0  0  0  0  0  0  0  0  0
   10.7180  -18.5049   24.2478 C   0  0  0  0  0  0  0  0  0  0  0  0
   10.2326  -18.7721   22.9775 O   0  0  0  0  0  0  0  0  0  0  0  0
   10.8768  -16.8490   28.2645 C   0  0  0  0  0  0  0  0  0  0  0  0
   11.2147  -15.9464   29.2504 C   0  0  0  0  0  0  0  0  0  0  0  0
   11.4623  -19.3797   24.7604 O   0  0  0  0  0  0  0  0  0  0  0  0
  2  1  1  0
  3  2  1  0
  3  4  1  6
  5  6  2  0
  5  3  1  0
  7  8  1  0
  8  9  1  0
  9 10  1  0
 11 10  1  1
 11 12  1  0
 12  5  1  0
 13 14  2  0
 13 11  1  0
 16 15  1  0
 17 16  2  0
 18 17  1  0
 19 18  2  0
 19 25  1  0
 20 19  1  0
 21 20  1  1
 21 22  1  0
 22 13  1  0
 23 21  1  0
 24 23  1  0
 25 26  2  0
 26 16  1  0
 27 23  2  0
M  END
$$$$
