SMY.pdb
     RDKit          3D

 27 27  0  0  1  0  0  0  0  0999 V2000
    9.1337  -19.3249   22.0265 O   0  0  0  0  0  0  0  0  0  0  0  0
    7.7827  -19.2513   22.2652 C   0  0  0  0  0  0  0  0  0  0  0  0
    7.0926  -18.1353   21.5308 C   0  0  2  0  0  0  0  0  0  0  0  0
    7.2527  -18.2005   20.1146 N   0  0  0  0  0  0  0  0  0  0  0  0
    7.6542  -16.8466   22.0304 C   0  0  0  0  0  0  0  0  0  0  0  0
    8.4512  -16.2641   21.2527 O   0  0  0  0  0  0  0  0  0  0  0  0
    6.7279  -11.9540   27.8999 C   0  0  0  0  0  0  0  0  0  0  0  0
    6.0079  -12.3102   26.2798 S   0  0  0  0  0  0  0  0  0  0  0  0
    7.2664  -13.0785   25.1736 C   0  0  0  0  0  0  0  0  0  0  0  0
    6.6957  -14.4099   24.7439 C   0  0  0  0  0  0  0  0  0  0  0  0
    7.7196  -15.0934   23.8642 C   0  0  2  0  0  0  0  0  0  0  0  0
    7.3109  -16.3286   23.2830 N   0  0  0  0  0  0  0  0  0  0  0  0
    9.0920  -15.0756   24.3490 C   0  0  0  0  0  0  0  0  0  0  0  0
    9.3572  -14.4456   25.4375 O   0  0  0  0  0  0  0  0  0  0  0  0
   10.9677  -14.4755   30.6704 O   0  0  0  0  0  0  0  0  0  0  0  0
   10.9016  -15.0817   29.4277 C   0  0  0  0  0  0  0  0  0  0  0  0
   11.4009  -16.3513   29.2455 C   0  0  0  0  0  0  0  0  0  0  0  0
   11.3384  -16.9608   28.0116 C   0  0  0  0  0  0  0  0  0  0  0  0
   10.7759  -16.3400   26.8926 C   0  0  0  0  0  0  0  0  0  0  0  0
   10.7384  -17.0281   25.5861 C   0  0  0  0  0  0  0  0  0  0  0  0
   11.2934  -16.1898   24.4535 C   0  0  2  0  0  0  0  0  0  0  0  0
   10.1468  -15.7241   23.6717 N   0  0  0  0  0  0  0  0  0  0  0  0
   12.2657  -16.8981   23.6252 C   0  0  0  0  0  0  0  0  0  0  0  0
   11.9222  -17.2590   22.3319 O   0  0  0  0  0  0  0  0  0  0  0  0
   10.2789  -15.0633   27.0951 C   0  0  0  0  0  0  0  0  0  0  0  0
   10.3432  -14.4567   28.3315 C   0  0  0  0  0  0  0  0  0  0  0  0
   13.4213  -17.2136   24.0084 O   0  0  0  0  0  0  0  0  0  0  0  0
  2  1  1  0
  3  2  1  0
  3  4  1  6
  5  6  2  0
  5  3  1  0
  7  8  1  0
  8  9  1  0
  9 10  1  0
 11 10  1  1
 11 12  1  0
 12  5  1  0
 13 14  2  0
 13 11  1  0
 16 15  1  0
 17 16  2  0
 18 17  1  0
 19 18  2  0
 19 25  1  0
 20 19  1  0
 21 20  1  1
 21 22  1  0
 22 13  1  0
 23 21  1  0
 24 23  1  0
 25 26  2  0
 26 16  1  0
 27 23  2  0
M  END
$$$$
