SMY.pdb
     RDKit          3D

 27 27  0  0  1  0  0  0  0  0999 V2000
    7.9177  -16.4578   19.0191 O   0  0  0  0  0  0  0  0  0  0  0  0
    8.1461  -15.2668   18.3732 C   0  0  0  0  0  0  0  0  0  0  0  0
    7.5435  -14.0734   19.0613 C   0  0  2  0  0  0  0  0  0  0  0  0
    7.7462  -12.8482   18.3590 N   0  0  0  0  0  0  0  0  0  0  0  0
    8.1590  -13.9710   20.4164 C   0  0  0  0  0  0  0  0  0  0  0  0
    9.3739  -13.6500   20.4380 O   0  0  0  0  0  0  0  0  0  0  0  0
    6.8138  -11.3259   27.3316 C   0  0  0  0  0  0  0  0  0  0  0  0
    6.2146  -12.5899   26.1857 S   0  0  0  0  0  0  0  0  0  0  0  0
    7.4752  -12.9241   24.8831 C   0  0  0  0  0  0  0  0  0  0  0  0
    6.8981  -14.0090   24.0040 C   0  0  0  0  0  0  0  0  0  0  0  0
    7.9067  -14.3144   22.9183 C   0  0  2  0  0  0  0  0  0  0  0  0
    7.4250  -14.2180   21.5806 N   0  0  0  0  0  0  0  0  0  0  0  0
    8.7887  -15.4457   23.1657 C   0  0  0  0  0  0  0  0  0  0  0  0
    9.7867  -15.6377   22.3789 O   0  0  0  0  0  0  0  0  0  0  0  0
   10.8365  -14.9613   30.8638 O   0  0  0  0  0  0  0  0  0  0  0  0
   10.8117  -15.2024   29.5011 C   0  0  0  0  0  0  0  0  0  0  0  0
   10.5733  -14.1747   28.6169 C   0  0  0  0  0  0  0  0  0  0  0  0
   10.5472  -14.4072   27.2593 C   0  0  0  0  0  0  0  0  0  0  0  0
   10.7567  -15.6746   26.7082 C   0  0  0  0  0  0  0  0  0  0  0  0
   10.7108  -15.8795   25.2461 C   0  0  0  0  0  0  0  0  0  0  0  0
    9.7673  -16.9878   24.8278 C   0  0  2  0  0  0  0  0  0  0  0  0
    8.5933  -16.3427   24.2376 N   0  0  0  0  0  0  0  0  0  0  0  0
    9.4033  -17.8875   25.9191 C   0  0  0  0  0  0  0  0  0  0  0  0
   10.3554  -18.7543   26.4319 O   0  0  0  0  0  0  0  0  0  0  0  0
   10.9949  -16.6958   27.6129 C   0  0  0  0  0  0  0  0  0  0  0  0
   11.0204  -16.4591   28.9709 C   0  0  0  0  0  0  0  0  0  0  0  0
    8.2602  -17.9358   26.4415 O   0  0  0  0  0  0  0  0  0  0  0  0
  2  1  1  0
  3  2  1  0
  3  4  1  6
  5  6  2  0
  5  3  1  0
  7  8  1  0
  8  9  1  0
  9 10  1  0
 11 10  1  1
 11 12  1  0
 12  5  1  0
 13 14  2  0
 13 11  1  0
 16 15  1  0
 17 16  2  0
 18 17  1  0
 19 18  2  0
 19 25  1  0
 20 19  1  0
 21 20  1  1
 21 22  1  0
 22 13  1  0
 23 21  1  0
 24 23  1  0
 25 26  2  0
 26 16  1  0
 27 23  2  0
M  END
$$$$
