ILM.pdb
     RDKit          3D

 25 24  0  0  1  0  0  0  0  0999 V2000
   20.2108  -19.4897  -17.2851 C   0  0  0  0  0  0  0  0  0  0  0  0
   20.6976  -19.2746  -15.8732 C   0  0  0  0  0  0  0  0  0  0  0  0
   21.8876  -20.0879  -15.5294 C   0  0  2  0  0  0  0  0  0  0  0  0
   21.6027  -21.5371  -15.8747 C   0  0  0  0  0  0  0  0  0  0  0  0
   22.4227  -19.9527  -14.1451 C   0  0  2  0  0  0  0  0  0  0  0  0
   22.7475  -18.6008  -13.7410 N   0  0  0  0  0  0  0  0  0  0  0  0
   23.5983  -20.8029  -13.8787 C   0  0  0  0  0  0  0  0  0  0  0  0
   23.5350  -22.0709  -13.9191 O   0  0  0  0  0  0  0  0  0  0  0  0
   26.6994  -18.5038  -15.0567 C   0  0  0  0  0  0  0  0  0  0  0  0
   27.6372  -19.2495  -14.1435 C   0  0  2  0  0  0  0  0  0  0  0  0
   29.0410  -19.1386  -14.7645 C   0  0  0  0  0  0  0  0  0  0  0  0
   27.3079  -20.6800  -14.0137 C   0  0  0  0  0  0  0  0  0  0  0  0
   26.0614  -21.0730  -13.3138 C   0  0  2  0  0  0  0  0  0  0  0  0
   24.8917  -20.2794  -13.5560 N   0  0  0  0  0  0  0  0  0  0  0  0
   26.3313  -21.2527  -11.8625 C   0  0  0  0  0  0  0  0  0  0  0  0
   27.1823  -22.1178  -11.5107 O   0  0  0  0  0  0  0  0  0  0  0  0
   28.5857  -18.3247   -7.1212 C   0  0  0  0  0  0  0  0  0  0  0  0
   27.5017  -19.4073   -6.1704 S   0  0  0  0  0  0  0  0  0  0  0  0
   26.1587  -20.0862   -7.2121 C   0  0  0  0  0  0  0  0  0  0  0  0
   26.6563  -20.2720   -8.6107 C   0  0  0  0  0  0  0  0  0  0  0  0
   25.6479  -20.9722   -9.4413 C   0  0  2  0  0  0  0  0  0  0  0  0
   25.6986  -20.5197  -10.8449 N   0  0  0  0  0  0  0  0  0  0  0  0
   24.2521  -20.7703   -8.9987 C   0  0  0  0  0  0  0  0  0  0  0  0
   23.3914  -20.1788   -9.7463 O   0  0  0  0  0  0  0  0  0  0  0  0
   23.7387  -21.1815   -7.7786 O   0  0  0  0  0  0  0  0  0  0  0  0
  2  3  1  0
  2  1  1  0
  3  5  1  0
  3  4  1  1
  5  7  1  0
  5  6  1  6
  7  8  2  0
 10 11  1  6
 10  9  1  0
 12 10  1  0
 13 12  1  6
 14 13  1  0
 14  7  1  0
 15 16  2  0
 15 13  1  0
 18 17  1  0
 19 18  1  0
 19 20  1  0
 21 20  1  1
 21 23  1  0
 21 22  1  0
 22 15  1  0
 23 25  1  0
 24 23  2  0
M  END
$$$$
