ILM.pdb
     RDKit          3D

 25 24  0  0  1  0  0  0  0  0999 V2000
   20.3392  -21.7866  -14.0163 C   0  0  0  0  0  0  0  0  0  0  0  0
   20.8384  -21.7214  -12.5939 C   0  0  0  0  0  0  0  0  0  0  0  0
   22.2188  -21.1954  -12.4769 C   0  0  2  0  0  0  0  0  0  0  0  0
   23.1200  -21.9826  -13.4090 C   0  0  0  0  0  0  0  0  0  0  0  0
   22.7959  -21.1086  -11.1057 C   0  0  2  0  0  0  0  0  0  0  0  0
   21.9361  -20.4963  -10.1146 N   0  0  0  0  0  0  0  0  0  0  0  0
   24.1045  -20.4297  -11.0556 C   0  0  0  0  0  0  0  0  0  0  0  0
   24.2409  -19.2068  -11.3711 O   0  0  0  0  0  0  0  0  0  0  0  0
   26.6952  -19.2042   -7.7380 C   0  0  0  0  0  0  0  0  0  0  0  0
   26.9674  -20.6309   -8.1379 C   0  0  2  0  0  0  0  0  0  0  0  0
   28.0260  -21.1704   -7.1597 C   0  0  0  0  0  0  0  0  0  0  0  0
   27.5022  -20.7600   -9.5050 C   0  0  0  0  0  0  0  0  0  0  0  0
   26.6141  -20.4746  -10.6573 C   0  0  2  0  0  0  0  0  0  0  0  0
   25.3147  -21.0814  -10.6536 N   0  0  0  0  0  0  0  0  0  0  0  0
   27.3450  -20.7125  -11.9303 C   0  0  0  0  0  0  0  0  0  0  0  0
   28.0002  -21.7853  -12.0573 O   0  0  0  0  0  0  0  0  0  0  0  0
   25.1396  -24.0288  -15.1129 C   0  0  0  0  0  0  0  0  0  0  0  0
   25.5205  -23.0603  -16.5852 S   0  0  0  0  0  0  0  0  0  0  0  0
   26.6872  -21.7024  -16.2054 C   0  0  0  0  0  0  0  0  0  0  0  0
   26.5718  -21.3338  -14.7599 C   0  0  0  0  0  0  0  0  0  0  0  0
   27.5239  -20.2520  -14.4131 C   0  0  2  0  0  0  0  0  0  0  0  0
   27.3577  -19.8173  -13.0128 N   0  0  0  0  0  0  0  0  0  0  0  0
   27.3829  -19.0332  -15.2372 C   0  0  0  0  0  0  0  0  0  0  0  0
   27.9639  -18.9249  -16.3776 O   0  0  0  0  0  0  0  0  0  0  0  0
   26.6375  -17.9187  -14.8856 O   0  0  0  0  0  0  0  0  0  0  0  0
  2  3  1  0
  2  1  1  0
  3  5  1  0
  3  4  1  6
  5  7  1  0
  5  6  1  1
  7  8  2  0
 10 11  1  1
 10  9  1  0
 12 10  1  0
 13 12  1  1
 14 13  1  0
 14  7  1  0
 15 16  2  0
 15 13  1  0
 18 17  1  0
 19 18  1  0
 19 20  1  0
 21 20  1  6
 21 23  1  0
 21 22  1  0
 22 15  1  0
 23 25  1  0
 24 23  2  0
M  END
$$$$
