ILM.pdb
     RDKit          3D

 25 24  0  0  1  0  0  0  0  0999 V2000
   23.1298  -20.4019  -15.2633 C   0  0  0  0  0  0  0  0  0  0  0  0
   24.5203  -20.5637  -14.7001 C   0  0  0  0  0  0  0  0  0  0  0  0
   24.5413  -20.7806  -13.2344 C   0  0  2  0  0  0  0  0  0  0  0  0
   23.7674  -19.6606  -12.5657 C   0  0  0  0  0  0  0  0  0  0  0  0
   25.8747  -20.9768  -12.5985 C   0  0  2  0  0  0  0  0  0  0  0  0
   26.6923  -22.0136  -13.1924 N   0  0  0  0  0  0  0  0  0  0  0  0
   25.8075  -21.2253  -11.1460 C   0  0  0  0  0  0  0  0  0  0  0  0
   25.4026  -22.3314  -10.6704 O   0  0  0  0  0  0  0  0  0  0  0  0
   27.5092  -18.6184   -5.6691 C   0  0  0  0  0  0  0  0  0  0  0  0
   26.9411  -19.7888   -6.4288 C   0  0  2  0  0  0  0  0  0  0  0  0
   27.8142  -21.0076   -6.0813 C   0  0  0  0  0  0  0  0  0  0  0  0
   26.9753  -19.6054   -7.8906 C   0  0  0  0  0  0  0  0  0  0  0  0
   26.1056  -20.4496   -8.7443 C   0  0  2  0  0  0  0  0  0  0  0  0
   26.1867  -20.2554  -10.1629 N   0  0  0  0  0  0  0  0  0  0  0  0
   24.7052  -20.3985   -8.2465 C   0  0  0  0  0  0  0  0  0  0  0  0
   23.9750  -19.4301   -8.6004 O   0  0  0  0  0  0  0  0  0  0  0  0
   19.4832  -25.1457   -7.2036 C   0  0  0  0  0  0  0  0  0  0  0  0
   19.5246  -23.5840   -8.1036 S   0  0  0  0  0  0  0  0  0  0  0  0
   20.4928  -22.3205   -7.2004 C   0  0  0  0  0  0  0  0  0  0  0  0
   21.9133  -22.3499   -7.6692 C   0  0  0  0  0  0  0  0  0  0  0  0
   22.7204  -21.3195   -6.9735 C   0  0  2  0  0  0  0  0  0  0  0  0
   24.1322  -21.3626   -7.4007 N   0  0  0  0  0  0  0  0  0  0  0  0
   22.7362  -21.4536   -5.5016 C   0  0  0  0  0  0  0  0  0  0  0  0
   21.6937  -21.2015   -4.7949 O   0  0  0  0  0  0  0  0  0  0  0  0
   23.8323  -21.8515   -4.7523 O   0  0  0  0  0  0  0  0  0  0  0  0
  2  3  1  0
  2  1  1  0
  3  5  1  0
  3  4  1  1
  5  7  1  0
  5  6  1  6
  7  8  2  0
 10 11  1  6
 10  9  1  0
 12 10  1  0
 13 12  1  1
 14 13  1  0
 14  7  1  0
 15 16  2  0
 15 13  1  0
 18 17  1  0
 19 18  1  0
 19 20  1  0
 21 20  1  6
 21 23  1  0
 21 22  1  0
 22 15  1  0
 23 25  1  0
 24 23  2  0
M  END
$$$$
