ILM.pdb
     RDKit          3D

 25 24  0  0  1  0  0  0  0  0999 V2000
   27.5002  -17.9603  -18.2424 C   0  0  0  0  0  0  0  0  0  0  0  0
   28.0264  -18.7908  -17.0977 C   0  0  0  0  0  0  0  0  0  0  0  0
   26.9579  -19.3894  -16.2636 C   0  0  2  0  0  0  0  0  0  0  0  0
   25.9888  -18.2961  -15.8560 C   0  0  0  0  0  0  0  0  0  0  0  0
   27.3898  -20.1998  -15.0900 C   0  0  2  0  0  0  0  0  0  0  0  0
   28.3347  -21.2560  -15.3866 N   0  0  0  0  0  0  0  0  0  0  0  0
   26.2697  -20.7898  -14.3329 C   0  0  0  0  0  0  0  0  0  0  0  0
   25.6134  -21.7861  -14.7688 O   0  0  0  0  0  0  0  0  0  0  0  0
   26.4732  -22.1658   -9.9630 C   0  0  0  0  0  0  0  0  0  0  0  0
   26.0109  -20.7343  -10.0448 C   0  0  2  0  0  0  0  0  0  0  0  0
   25.7326  -20.2760   -8.6022 C   0  0  0  0  0  0  0  0  0  0  0  0
   24.7710  -20.5669  -10.8235 C   0  0  0  0  0  0  0  0  0  0  0  0
   24.7826  -20.8744  -12.2737 C   0  0  2  0  0  0  0  0  0  0  0  0
   25.8326  -20.2967  -13.0613 N   0  0  0  0  0  0  0  0  0  0  0  0
   23.4370  -20.6228  -12.8549 C   0  0  0  0  0  0  0  0  0  0  0  0
   23.1037  -19.4308  -13.1084 O   0  0  0  0  0  0  0  0  0  0  0  0
   21.1661  -23.0968  -18.0416 C   0  0  0  0  0  0  0  0  0  0  0  0
   19.5808  -22.9242  -17.2002 S   0  0  0  0  0  0  0  0  0  0  0  0
   19.7362  -21.9011  -15.6907 C   0  0  0  0  0  0  0  0  0  0  0  0
   21.0581  -22.1652  -15.0417 C   0  0  0  0  0  0  0  0  0  0  0  0
   21.2101  -21.3601  -13.8065 C   0  0  2  0  0  0  0  0  0  0  0  0
   22.5010  -21.6294  -13.1441 N   0  0  0  0  0  0  0  0  0  0  0  0
   20.1694  -21.6110  -12.7874 C   0  0  0  0  0  0  0  0  0  0  0  0
   18.9467  -21.2684  -12.9805 O   0  0  0  0  0  0  0  0  0  0  0  0
   20.3887  -22.2201  -11.5618 O   0  0  0  0  0  0  0  0  0  0  0  0
  2  3  1  0
  2  1  1  0
  3  5  1  0
  3  4  1  1
  5  7  1  0
  5  6  1  6
  7  8  2  0
 10 11  1  1
 10  9  1  0
 12 10  1  0
 13 12  1  1
 14 13  1  0
 14  7  1  0
 15 16  2  0
 15 13  1  0
 18 17  1  0
 19 18  1  0
 19 20  1  0
 21 20  1  6
 21 23  1  0
 21 22  1  0
 22 15  1  0
 23 25  1  0
 24 23  2  0
M  END
$$$$
