ILM.pdb
     RDKit          3D

 25 24  0  0  1  0  0  0  0  0999 V2000
   28.2778  -20.5168  -15.8376 C   0  0  0  0  0  0  0  0  0  0  0  0
   27.0417  -19.9333  -15.1983 C   0  0  0  0  0  0  0  0  0  0  0  0
   26.6616  -20.6015  -13.9315 C   0  0  2  0  0  0  0  0  0  0  0  0
   26.4362  -22.0757  -14.2076 C   0  0  0  0  0  0  0  0  0  0  0  0
   25.5261  -20.0101  -13.1688 C   0  0  2  0  0  0  0  0  0  0  0  0
   25.5620  -18.5692  -13.0316 N   0  0  0  0  0  0  0  0  0  0  0  0
   25.3484  -20.5916  -11.8249 C   0  0  0  0  0  0  0  0  0  0  0  0
   25.0790  -21.8211  -11.6538 O   0  0  0  0  0  0  0  0  0  0  0  0
   28.0527  -21.0718   -8.2575 C   0  0  0  0  0  0  0  0  0  0  0  0
   27.4017  -19.7133   -8.2697 C   0  0  2  0  0  0  0  0  0  0  0  0
   27.9324  -18.9572   -7.0388 C   0  0  0  0  0  0  0  0  0  0  0  0
   25.9325  -19.7712   -8.1707 C   0  0  0  0  0  0  0  0  0  0  0  0
   25.1539  -20.3230   -9.3052 C   0  0  2  0  0  0  0  0  0  0  0  0
   25.4620  -19.8312  -10.6166 N   0  0  0  0  0  0  0  0  0  0  0  0
   23.6996  -20.2520   -9.0027 C   0  0  0  0  0  0  0  0  0  0  0  0
   23.0748  -19.1931   -9.2938 O   0  0  0  0  0  0  0  0  0  0  0  0
   19.8346  -21.3919  -12.8391 C   0  0  0  0  0  0  0  0  0  0  0  0
   19.1019  -22.4957  -11.6162 S   0  0  0  0  0  0  0  0  0  0  0  0
   19.5905  -22.0247   -9.9166 C   0  0  0  0  0  0  0  0  0  0  0  0
   21.0740  -21.8406   -9.8558 C   0  0  0  0  0  0  0  0  0  0  0  0
   21.4960  -21.3950   -8.5066 C   0  0  2  0  0  0  0  0  0  0  0  0
   22.9649  -21.2916   -8.4090 N   0  0  0  0  0  0  0  0  0  0  0  0
   21.0777  -22.2961   -7.4122 C   0  0  0  0  0  0  0  0  0  0  0  0
   21.8679  -23.1947   -6.9457 O   0  0  0  0  0  0  0  0  0  0  0  0
   19.8379  -22.2708   -6.7930 O   0  0  0  0  0  0  0  0  0  0  0  0
  2  3  1  0
  2  1  1  0
  3  5  1  0
  3  4  1  6
  5  7  1  0
  5  6  1  1
  7  8  2  0
 10 11  1  1
 10  9  1  0
 12 10  1  0
 13 12  1  1
 14 13  1  0
 14  7  1  0
 15 16  2  0
 15 13  1  0
 18 17  1  0
 19 18  1  0
 19 20  1  0
 21 20  1  6
 21 23  1  0
 21 22  1  0
 22 15  1  0
 23 25  1  0
 24 23  2  0
M  END
$$$$
