ILM.pdb
     RDKit          3D

 25 24  0  0  1  0  0  0  0  0999 V2000
   25.4035  -20.1668  -15.2502 C   0  0  0  0  0  0  0  0  0  0  0  0
   24.6758  -20.1430  -13.9285 C   0  0  0  0  0  0  0  0  0  0  0  0
   25.5168  -20.5676  -12.7847 C   0  0  2  0  0  0  0  0  0  0  0  0
   26.0022  -21.9823  -13.0365 C   0  0  0  0  0  0  0  0  0  0  0  0
   24.9275  -20.4279  -11.4231 C   0  0  2  0  0  0  0  0  0  0  0  0
   24.3696  -19.1255  -11.1253 N   0  0  0  0  0  0  0  0  0  0  0  0
   25.8579  -20.7847  -10.3355 C   0  0  0  0  0  0  0  0  0  0  0  0
   26.3291  -21.9577  -10.2105 O   0  0  0  0  0  0  0  0  0  0  0  0
   28.3672  -18.2293   -5.1256 C   0  0  0  0  0  0  0  0  0  0  0  0
   28.1187  -19.4403   -5.9865 C   0  0  2  0  0  0  0  0  0  0  0  0
   29.4940  -20.0680   -6.2749 C   0  0  0  0  0  0  0  0  0  0  0  0
   27.4857  -19.1165   -7.2773 C   0  0  0  0  0  0  0  0  0  0  0  0
   26.9146  -20.2126   -8.0961 C   0  0  2  0  0  0  0  0  0  0  0  0
   26.3021  -19.8536   -9.3422 N   0  0  0  0  0  0  0  0  0  0  0  0
   26.0300  -21.0632   -7.2563 C   0  0  0  0  0  0  0  0  0  0  0  0
   26.4898  -22.1507   -6.8068 O   0  0  0  0  0  0  0  0  0  0  0  0
   21.9085  -18.6852   -2.7003 C   0  0  0  0  0  0  0  0  0  0  0  0
   22.6216  -20.2729   -2.2297 S   0  0  0  0  0  0  0  0  0  0  0  0
   22.8759  -21.3474   -3.6892 C   0  0  0  0  0  0  0  0  0  0  0  0
   23.7740  -20.6580   -4.6671 C   0  0  0  0  0  0  0  0  0  0  0  0
   23.9303  -21.4651   -5.9005 C   0  0  2  0  0  0  0  0  0  0  0  0
   24.7042  -20.7378   -6.9251 N   0  0  0  0  0  0  0  0  0  0  0  0
   22.6543  -21.8410   -6.5447 C   0  0  0  0  0  0  0  0  0  0  0  0
   22.1346  -21.1203   -7.4722 O   0  0  0  0  0  0  0  0  0  0  0  0
   21.9090  -22.9673   -6.2331 O   0  0  0  0  0  0  0  0  0  0  0  0
  2  3  1  0
  2  1  1  0
  3  5  1  0
  3  4  1  6
  5  7  1  0
  5  6  1  1
  7  8  2  0
 10 11  1  6
 10  9  1  0
 12 10  1  0
 13 12  1  1
 14 13  1  0
 14  7  1  0
 15 16  2  0
 15 13  1  0
 18 17  1  0
 19 18  1  0
 19 20  1  0
 21 20  1  1
 21 23  1  0
 21 22  1  0
 22 15  1  0
 23 25  1  0
 24 23  2  0
M  END
$$$$
