ILM.pdb
     RDKit          3D

 25 24  0  0  1  0  0  0  0  0999 V2000
   28.3456  -19.8802   -5.7987 C   0  0  0  0  0  0  0  0  0  0  0  0
   27.0047  -20.2424   -6.3885 C   0  0  0  0  0  0  0  0  0  0  0  0
   26.8965  -19.9424   -7.8356 C   0  0  2  0  0  0  0  0  0  0  0  0
   27.2681  -18.4892   -8.0603 C   0  0  0  0  0  0  0  0  0  0  0  0
   25.6091  -20.2851   -8.5032 C   0  0  2  0  0  0  0  0  0  0  0  0
   25.1116  -21.6175   -8.2320 N   0  0  0  0  0  0  0  0  0  0  0  0
   25.6316  -20.0961   -9.9660 C   0  0  0  0  0  0  0  0  0  0  0  0
   25.8447  -18.9609  -10.4947 O   0  0  0  0  0  0  0  0  0  0  0  0
   26.7854  -23.1661  -15.2467 C   0  0  0  0  0  0  0  0  0  0  0  0
   26.3071  -21.9172  -14.5532 C   0  0  2  0  0  0  0  0  0  0  0  0
   27.4008  -20.8532  -14.7539 C   0  0  0  0  0  0  0  0  0  0  0  0
   26.1063  -22.0968  -13.1043 C   0  0  0  0  0  0  0  0  0  0  0  0
   25.4505  -21.0177  -12.3274 C   0  0  2  0  0  0  0  0  0  0  0  0
   25.4177  -21.1598  -10.9008 N   0  0  0  0  0  0  0  0  0  0  0  0
   24.1077  -20.7286  -12.8973 C   0  0  0  0  0  0  0  0  0  0  0  0
   23.1554  -21.5122  -12.6227 O   0  0  0  0  0  0  0  0  0  0  0  0
   22.5337  -15.1925  -15.9272 C   0  0  0  0  0  0  0  0  0  0  0  0
   20.8933  -15.9337  -15.8241 S   0  0  0  0  0  0  0  0  0  0  0  0
   20.9791  -17.6591  -15.2199 C   0  0  0  0  0  0  0  0  0  0  0  0
   22.3688  -17.9564  -14.7521 C   0  0  0  0  0  0  0  0  0  0  0  0
   22.4680  -19.3437  -14.2395 C   0  0  2  0  0  0  0  0  0  0  0  0
   23.8219  -19.6331  -13.7288 N   0  0  0  0  0  0  0  0  0  0  0  0
   22.1825  -20.3848  -15.2491 C   0  0  0  0  0  0  0  0  0  0  0  0
   23.0837  -20.7841  -16.0726 O   0  0  0  0  0  0  0  0  0  0  0  0
   20.9613  -21.0201  -15.4111 O   0  0  0  0  0  0  0  0  0  0  0  0
  2  3  1  0
  2  1  1  0
  3  5  1  0
  3  4  1  1
  5  7  1  0
  5  6  1  6
  7  8  2  0
 10 11  1  1
 10  9  1  0
 12 10  1  0
 13 12  1  6
 14 13  1  0
 14  7  1  0
 15 16  2  0
 15 13  1  0
 18 17  1  0
 19 18  1  0
 19 20  1  0
 21 20  1  6
 21 23  1  0
 21 22  1  0
 22 15  1  0
 23 25  1  0
 24 23  2  0
M  END
$$$$
