ILM.pdb
     RDKit          3D

 25 24  0  0  1  0  0  0  0  0999 V2000
   17.3548  -12.8456  -18.1108 C   0  0  0  0  0  0  0  0  0  0  0  0
   18.7823  -13.2575  -17.8477 C   0  0  0  0  0  0  0  0  0  0  0  0
   19.6172  -12.1680  -17.2894 C   0  0  2  0  0  0  0  0  0  0  0  0
   19.5916  -10.9945  -18.2500 C   0  0  0  0  0  0  0  0  0  0  0  0
   21.0106  -12.5181  -16.8939 C   0  0  2  0  0  0  0  0  0  0  0  0
   21.1338  -13.6828  -16.0428 N   0  0  0  0  0  0  0  0  0  0  0  0
   21.7419  -11.4076  -16.2553 C   0  0  0  0  0  0  0  0  0  0  0  0
   21.4279  -10.9678  -15.1057 O   0  0  0  0  0  0  0  0  0  0  0  0
   25.8565  -11.0409  -14.6740 C   0  0  0  0  0  0  0  0  0  0  0  0
   25.8479  -10.7503  -16.1522 C   0  0  2  0  0  0  0  0  0  0  0  0
   27.3034  -10.4515  -16.5529 C   0  0  0  0  0  0  0  0  0  0  0  0
   25.0270   -9.5800  -16.5103 C   0  0  0  0  0  0  0  0  0  0  0  0
   23.5612   -9.6335  -16.2949 C   0  0  2  0  0  0  0  0  0  0  0  0
   22.8512  -10.7400  -16.8676 N   0  0  0  0  0  0  0  0  0  0  0  0
   22.9497   -8.3253  -16.6501 C   0  0  0  0  0  0  0  0  0  0  0  0
   22.5542   -8.1477  -17.8369 O   0  0  0  0  0  0  0  0  0  0  0  0
   19.0121   -4.4668  -13.1247 C   0  0  0  0  0  0  0  0  0  0  0  0
   20.1112   -3.2566  -13.8851 S   0  0  0  0  0  0  0  0  0  0  0  0
   20.9970   -3.9701  -15.3189 C   0  0  0  0  0  0  0  0  0  0  0  0
   21.5851   -5.2914  -14.9361 C   0  0  0  0  0  0  0  0  0  0  0  0
   22.1415   -5.9852  -16.1219 C   0  0  2  0  0  0  0  0  0  0  0  0
   22.7799   -7.2620  -15.7481 N   0  0  0  0  0  0  0  0  0  0  0  0
   23.1710   -5.2127  -16.8485 C   0  0  0  0  0  0  0  0  0  0  0  0
   24.4184   -5.3264  -16.5642 O   0  0  0  0  0  0  0  0  0  0  0  0
   22.9148   -4.3181  -17.8758 O   0  0  0  0  0  0  0  0  0  0  0  0
  2  3  1  0
  2  1  1  0
  3  5  1  0
  3  4  1  6
  5  7  1  0
  5  6  1  1
  7  8  2  0
 10 11  1  1
 10  9  1  0
 12 10  1  0
 13 12  1  6
 14 13  1  0
 14  7  1  0
 15 16  2  0
 15 13  1  0
 18 17  1  0
 19 18  1  0
 19 20  1  0
 21 20  1  1
 21 23  1  0
 21 22  1  0
 22 15  1  0
 23 25  1  0
 24 23  2  0
M  END
$$$$
