ILM.pdb
     RDKit          3D

 25 24  0  0  1  0  0  0  0  0999 V2000
   29.3683  -18.3368  -17.6162 C   0  0  0  0  0  0  0  0  0  0  0  0
   28.1466  -17.7704  -16.9354 C   0  0  0  0  0  0  0  0  0  0  0  0
   27.2059  -18.8086  -16.4526 C   0  0  2  0  0  0  0  0  0  0  0  0
   26.8452  -19.7159  -17.6133 C   0  0  0  0  0  0  0  0  0  0  0  0
   25.9901  -18.3373  -15.7312 C   0  0  2  0  0  0  0  0  0  0  0  0
   26.2120  -17.2566  -14.7935 N   0  0  0  0  0  0  0  0  0  0  0  0
   25.2663  -19.4115  -15.0256 C   0  0  0  0  0  0  0  0  0  0  0  0
   24.8633  -20.4572  -15.6238 O   0  0  0  0  0  0  0  0  0  0  0  0
   26.5204  -21.8828  -11.3440 C   0  0  0  0  0  0  0  0  0  0  0  0
   25.8457  -20.5882  -10.9719 C   0  0  2  0  0  0  0  0  0  0  0  0
   25.8124  -20.5326   -9.4343 C   0  0  0  0  0  0  0  0  0  0  0  0
   24.4590  -20.4933  -11.4616 C   0  0  0  0  0  0  0  0  0  0  0  0
   24.2151  -20.3676  -12.9185 C   0  0  2  0  0  0  0  0  0  0  0  0
   24.9601  -19.3679  -13.6273 N   0  0  0  0  0  0  0  0  0  0  0  0
   22.7542  -20.2750  -13.1807 C   0  0  0  0  0  0  0  0  0  0  0  0
   22.1606  -19.1935  -12.9081 O   0  0  0  0  0  0  0  0  0  0  0  0
   19.7902  -21.4964  -18.6019 C   0  0  0  0  0  0  0  0  0  0  0  0
   18.5210  -22.0936  -17.4690 S   0  0  0  0  0  0  0  0  0  0  0  0
   18.8212  -21.5042  -15.7625 C   0  0  0  0  0  0  0  0  0  0  0  0
   20.2686  -21.6722  -15.4230 C   0  0  0  0  0  0  0  0  0  0  0  0
   20.5535  -21.1652  -14.0596 C   0  0  2  0  0  0  0  0  0  0  0  0
   21.9804  -21.3181  -13.7158 N   0  0  0  0  0  0  0  0  0  0  0  0
   19.8009  -21.8511  -12.9882 C   0  0  0  0  0  0  0  0  0  0  0  0
   20.3077  -22.8369  -12.3394 O   0  0  0  0  0  0  0  0  0  0  0  0
   18.5182  -21.5189  -12.5812 O   0  0  0  0  0  0  0  0  0  0  0  0
  2  3  1  0
  2  1  1  0
  3  5  1  0
  3  4  1  6
  5  7  1  0
  5  6  1  1
  7  8  2  0
 10 11  1  1
 10  9  1  0
 12 10  1  0
 13 12  1  1
 14 13  1  0
 14  7  1  0
 15 16  2  0
 15 13  1  0
 18 17  1  0
 19 18  1  0
 19 20  1  0
 21 20  1  6
 21 23  1  0
 21 22  1  0
 22 15  1  0
 23 25  1  0
 24 23  2  0
M  END
$$$$
