ILM.pdb
     RDKit          3D

 25 24  0  0  1  0  0  0  0  0999 V2000
   19.6704  -17.9918  -15.4223 C   0  0  0  0  0  0  0  0  0  0  0  0
   21.0063  -18.1389  -16.1085 C   0  0  0  0  0  0  0  0  0  0  0  0
   21.9866  -18.9292  -15.3273 C   0  0  2  0  0  0  0  0  0  0  0  0
   22.0958  -18.3320  -13.9374 C   0  0  0  0  0  0  0  0  0  0  0  0
   23.3298  -19.1359  -15.9387 C   0  0  2  0  0  0  0  0  0  0  0  0
   23.3178  -19.6910  -17.2758 N   0  0  0  0  0  0  0  0  0  0  0  0
   24.2367  -19.9556  -15.1131 C   0  0  0  0  0  0  0  0  0  0  0  0
   24.0576  -21.2028  -14.9520 O   0  0  0  0  0  0  0  0  0  0  0  0
   30.0663  -19.8797  -12.8277 C   0  0  0  0  0  0  0  0  0  0  0  0
   28.6842  -20.4782  -12.7932 C   0  0  2  0  0  0  0  0  0  0  0  0
   28.8111  -21.9158  -13.3277 C   0  0  0  0  0  0  0  0  0  0  0  0
   27.7177  -19.7597  -13.6425 C   0  0  0  0  0  0  0  0  0  0  0  0
   26.3002  -20.1939  -13.6489 C   0  0  2  0  0  0  0  0  0  0  0  0
   25.3787  -19.4233  -14.4323 N   0  0  0  0  0  0  0  0  0  0  0  0
   25.8261  -20.3934  -12.2536 C   0  0  0  0  0  0  0  0  0  0  0  0
   26.3766  -21.2889  -11.5525 O   0  0  0  0  0  0  0  0  0  0  0  0
   20.2981  -21.8177  -10.1002 C   0  0  0  0  0  0  0  0  0  0  0  0
   21.2776  -21.8518   -8.5869 S   0  0  0  0  0  0  0  0  0  0  0  0
   22.7223  -20.7344   -8.7037 C   0  0  0  0  0  0  0  0  0  0  0  0
   23.1681  -20.6409  -10.1288 C   0  0  0  0  0  0  0  0  0  0  0  0
   24.3961  -19.8191  -10.2452 C   0  0  2  0  0  0  0  0  0  0  0  0
   24.7973  -19.6475  -11.6549 N   0  0  0  0  0  0  0  0  0  0  0  0
   25.5728  -20.3860   -9.5532 C   0  0  0  0  0  0  0  0  0  0  0  0
   25.9275  -21.6081   -9.7271 O   0  0  0  0  0  0  0  0  0  0  0  0
   26.3907  -19.6895   -8.6773 O   0  0  0  0  0  0  0  0  0  0  0  0
  2  3  1  0
  2  1  1  0
  3  5  1  0
  3  4  1  1
  5  7  1  0
  5  6  1  6
  7  8  2  0
 10 11  1  6
 10  9  1  0
 12 10  1  0
 13 12  1  1
 14 13  1  0
 14  7  1  0
 15 16  2  0
 15 13  1  0
 18 17  1  0
 19 18  1  0
 19 20  1  0
 21 20  1  6
 21 23  1  0
 21 22  1  0
 22 15  1  0
 23 25  1  0
 24 23  2  0
M  END
$$$$
