ILM.pdb
     RDKit          3D

 25 24  0  0  1  0  0  0  0  0999 V2000
   15.3437  -13.4204  -17.8671 C   0  0  0  0  0  0  0  0  0  0  0  0
   16.6465  -12.8157  -18.3296 C   0  0  0  0  0  0  0  0  0  0  0  0
   17.0499  -11.6197  -17.5534 C   0  0  2  0  0  0  0  0  0  0  0  0
   15.9255  -10.6032  -17.6067 C   0  0  0  0  0  0  0  0  0  0  0  0
   18.3610  -11.0004  -17.8974 C   0  0  2  0  0  0  0  0  0  0  0  0
   19.4586  -11.9316  -18.0534 N   0  0  0  0  0  0  0  0  0  0  0  0
   18.7856   -9.9494  -16.9535 C   0  0  0  0  0  0  0  0  0  0  0  0
   17.9664   -9.1068  -16.4713 O   0  0  0  0  0  0  0  0  0  0  0  0
   21.5102   -9.6840  -12.7739 C   0  0  0  0  0  0  0  0  0  0  0  0
   22.1606   -9.9396  -14.1085 C   0  0  2  0  0  0  0  0  0  0  0  0
   23.6730  -10.0567  -13.8485 C   0  0  0  0  0  0  0  0  0  0  0  0
   21.9478   -8.8499  -15.0776 C   0  0  0  0  0  0  0  0  0  0  0  0
   20.6164   -8.6982  -15.7120 C   0  0  2  0  0  0  0  0  0  0  0  0
   20.1372   -9.7911  -16.5073 N   0  0  0  0  0  0  0  0  0  0  0  0
   20.5453   -7.4003  -16.4344 C   0  0  0  0  0  0  0  0  0  0  0  0
   21.0397   -7.3290  -17.5949 O   0  0  0  0  0  0  0  0  0  0  0  0
   18.5711   -3.6276  -21.8343 C   0  0  0  0  0  0  0  0  0  0  0  0
   18.1001   -4.5999  -20.3908 S   0  0  0  0  0  0  0  0  0  0  0  0
   19.2652   -4.3395  -19.0037 C   0  0  0  0  0  0  0  0  0  0  0  0
   18.8882   -5.2282  -17.8607 C   0  0  0  0  0  0  0  0  0  0  0  0
   19.7806   -5.0017  -16.6990 C   0  0  2  0  0  0  0  0  0  0  0  0
   19.9607   -6.2356  -15.9100 N   0  0  0  0  0  0  0  0  0  0  0  0
   19.2922   -3.9792  -15.7499 C   0  0  0  0  0  0  0  0  0  0  0  0
   18.5070   -4.2858  -14.7808 O   0  0  0  0  0  0  0  0  0  0  0  0
   19.6156   -2.6323  -15.7979 O   0  0  0  0  0  0  0  0  0  0  0  0
  2  3  1  0
  2  1  1  0
  3  5  1  0
  3  4  1  6
  5  7  1  0
  5  6  1  1
  7  8  2  0
 10 11  1  1
 10  9  1  0
 12 10  1  0
 13 12  1  6
 14 13  1  0
 14  7  1  0
 15 16  2  0
 15 13  1  0
 18 17  1  0
 19 18  1  0
 19 20  1  0
 21 20  1  6
 21 23  1  0
 21 22  1  0
 22 15  1  0
 23 25  1  0
 24 23  2  0
M  END
$$$$
