ILM.pdb
     RDKit          3D

 25 24  0  0  1  0  0  0  0  0999 V2000
   23.4413  -20.0668  -15.6189 C   0  0  0  0  0  0  0  0  0  0  0  0
   24.6695  -20.1940  -14.7516 C   0  0  0  0  0  0  0  0  0  0  0  0
   24.3663  -20.5762  -13.3524 C   0  0  2  0  0  0  0  0  0  0  0  0
   23.3206  -19.6243  -12.8038 C   0  0  0  0  0  0  0  0  0  0  0  0
   25.5225  -20.7104  -12.4219 C   0  0  2  0  0  0  0  0  0  0  0  0
   26.6057  -21.5418  -12.9034 N   0  0  0  0  0  0  0  0  0  0  0  0
   25.1481  -21.1840  -11.0761 C   0  0  0  0  0  0  0  0  0  0  0  0
   24.7615  -22.3755  -10.8652 O   0  0  0  0  0  0  0  0  0  0  0  0
   27.8387  -20.8974   -7.2859 C   0  0  0  0  0  0  0  0  0  0  0  0
   26.9233  -19.7302   -7.5484 C   0  0  2  0  0  0  0  0  0  0  0  0
   27.2296  -18.6762   -6.4696 C   0  0  0  0  0  0  0  0  0  0  0  0
   25.4945  -20.0784   -7.4528 C   0  0  0  0  0  0  0  0  0  0  0  0
   24.8461  -20.7827   -8.5848 C   0  0  2  0  0  0  0  0  0  0  0  0
   25.1870  -20.3535   -9.9100 N   0  0  0  0  0  0  0  0  0  0  0  0
   23.3756  -20.8386   -8.3701 C   0  0  0  0  0  0  0  0  0  0  0  0
   22.6683  -19.8808   -8.7928 O   0  0  0  0  0  0  0  0  0  0  0  0
   16.7664  -24.3619   -9.6198 C   0  0  0  0  0  0  0  0  0  0  0  0
   18.5690  -24.3473   -9.5843 S   0  0  0  0  0  0  0  0  0  0  0  0
   19.2022  -23.0610   -8.4467 C   0  0  0  0  0  0  0  0  0  0  0  0
   20.6895  -22.9658   -8.5779 C   0  0  0  0  0  0  0  0  0  0  0  0
   21.2417  -21.9767   -7.6220 C   0  0  2  0  0  0  0  0  0  0  0  0
   22.7116  -21.8936   -7.7226 N   0  0  0  0  0  0  0  0  0  0  0  0
   20.9468  -22.2736   -6.2044 C   0  0  0  0  0  0  0  0  0  0  0  0
   19.7396  -22.3353   -5.7703 O   0  0  0  0  0  0  0  0  0  0  0  0
   21.9012  -22.5102   -5.2275 O   0  0  0  0  0  0  0  0  0  0  0  0
  2  3  1  0
  2  1  1  0
  3  5  1  0
  3  4  1  1
  5  7  1  0
  5  6  1  6
  7  8  2  0
 10 11  1  1
 10  9  1  0
 12 10  1  0
 13 12  1  1
 14 13  1  0
 14  7  1  0
 15 16  2  0
 15 13  1  0
 18 17  1  0
 19 18  1  0
 19 20  1  0
 21 20  1  6
 21 23  1  0
 21 22  1  0
 22 15  1  0
 23 25  1  0
 24 23  2  0
M  END
$$$$
