ILM.pdb
     RDKit          3D

 25 24  0  0  1  0  0  0  0  0999 V2000
   15.9866  -13.9958  -15.6982 C   0  0  0  0  0  0  0  0  0  0  0  0
   16.1894  -12.5357  -16.0206 C   0  0  0  0  0  0  0  0  0  0  0  0
   16.2842  -11.6740  -14.8188 C   0  0  2  0  0  0  0  0  0  0  0  0
   15.0727  -11.9269  -13.9420 C   0  0  0  0  0  0  0  0  0  0  0  0
   16.4977  -10.2168  -15.0461 C   0  0  2  0  0  0  0  0  0  0  0  0
   17.2991   -9.8865  -16.2058 N   0  0  0  0  0  0  0  0  0  0  0  0
   17.0684   -9.5130  -13.8822 C   0  0  0  0  0  0  0  0  0  0  0  0
   16.6147   -9.6776  -12.7072 O   0  0  0  0  0  0  0  0  0  0  0  0
   21.4460   -5.1410  -12.6017 C   0  0  0  0  0  0  0  0  0  0  0  0
   20.3549   -6.0587  -12.1151 C   0  0  2  0  0  0  0  0  0  0  0  0
   20.9433   -6.8628  -10.9422 C   0  0  0  0  0  0  0  0  0  0  0  0
   19.8986   -7.0146  -13.1397 C   0  0  0  0  0  0  0  0  0  0  0  0
   18.6718   -7.8087  -12.8905 C   0  0  2  0  0  0  0  0  0  0  0  0
   18.1657   -8.5974  -13.9760 N   0  0  0  0  0  0  0  0  0  0  0  0
   17.6244   -6.9446  -12.2840 C   0  0  0  0  0  0  0  0  0  0  0  0
   16.9146   -6.2317  -13.0484 O   0  0  0  0  0  0  0  0  0  0  0  0
   13.2577   -8.4957   -8.0670 C   0  0  0  0  0  0  0  0  0  0  0  0
   13.4953   -6.8024   -7.4953 S   0  0  0  0  0  0  0  0  0  0  0  0
   14.5082   -5.8372   -8.6752 C   0  0  0  0  0  0  0  0  0  0  0  0
   15.5756   -6.7134   -9.2509 C   0  0  0  0  0  0  0  0  0  0  0  0
   16.3065   -6.0130  -10.3337 C   0  0  2  0  0  0  0  0  0  0  0  0
   17.3672   -6.8649  -10.9053 N   0  0  0  0  0  0  0  0  0  0  0  0
   16.9730   -4.7649   -9.9063 C   0  0  0  0  0  0  0  0  0  0  0  0
   18.2027   -4.7553   -9.5358 O   0  0  0  0  0  0  0  0  0  0  0  0
   16.3696   -3.5178   -9.8613 O   0  0  0  0  0  0  0  0  0  0  0  0
  2  3  1  0
  2  1  1  0
  3  5  1  0
  3  4  1  6
  5  7  1  0
  5  6  1  6
  7  8  2  0
 10 11  1  1
 10  9  1  0
 12 10  1  0
 13 12  1  6
 14 13  1  0
 14  7  1  0
 15 16  2  0
 15 13  1  0
 18 17  1  0
 19 18  1  0
 19 20  1  0
 21 20  1  1
 21 23  1  0
 21 22  1  0
 22 15  1  0
 23 25  1  0
 24 23  2  0
M  END
$$$$
