ILM.pdb
     RDKit          3D

 25 24  0  0  1  0  0  0  0  0999 V2000
   13.4971  -12.5129  -16.3065 C   0  0  0  0  0  0  0  0  0  0  0  0
   15.0038  -12.5863  -16.2680 C   0  0  0  0  0  0  0  0  0  0  0  0
   15.6116  -11.6974  -15.2501 C   0  0  2  0  0  0  0  0  0  0  0  0
   15.0895  -10.2889  -15.4601 C   0  0  0  0  0  0  0  0  0  0  0  0
   17.0973  -11.7163  -15.1357 C   0  0  2  0  0  0  0  0  0  0  0  0
   17.6829  -13.0274  -14.9503 N   0  0  0  0  0  0  0  0  0  0  0  0
   17.6216  -10.8295  -14.0800 C   0  0  0  0  0  0  0  0  0  0  0  0
   17.6066  -11.1610  -12.8538 O   0  0  0  0  0  0  0  0  0  0  0  0
   21.7477   -9.5956  -12.8279 C   0  0  0  0  0  0  0  0  0  0  0  0
   21.2341   -8.8280  -14.0181 C   0  0  2  0  0  0  0  0  0  0  0  0
   22.3656   -7.8813  -14.4561 C   0  0  0  0  0  0  0  0  0  0  0  0
   20.0469   -8.0094  -13.7142 C   0  0  0  0  0  0  0  0  0  0  0  0
   18.7770   -8.6851  -13.3554 C   0  0  2  0  0  0  0  0  0  0  0  0
   18.1830   -9.5386  -14.3430 N   0  0  0  0  0  0  0  0  0  0  0  0
   17.8118   -7.6926  -12.8125 C   0  0  0  0  0  0  0  0  0  0  0  0
   17.0581   -7.0806  -13.6212 O   0  0  0  0  0  0  0  0  0  0  0  0
   13.7023   -5.1995   -6.5027 C   0  0  0  0  0  0  0  0  0  0  0  0
   14.9993   -6.2478   -7.1879 S   0  0  0  0  0  0  0  0  0  0  0  0
   15.3018   -5.8655   -8.9519 C   0  0  0  0  0  0  0  0  0  0  0  0
   16.3019   -6.8294   -9.5079 C   0  0  0  0  0  0  0  0  0  0  0  0
   16.6123   -6.5113  -10.9220 C   0  0  2  0  0  0  0  0  0  0  0  0
   17.6789   -7.3847  -11.4484 N   0  0  0  0  0  0  0  0  0  0  0  0
   17.0746   -5.1251  -11.1440 C   0  0  0  0  0  0  0  0  0  0  0  0
   18.3240   -4.8431  -11.2397 O   0  0  0  0  0  0  0  0  0  0  0  0
   16.2449   -4.0219  -11.2698 O   0  0  0  0  0  0  0  0  0  0  0  0
  2  3  1  0
  2  1  1  0
  3  5  1  0
  3  4  1  6
  5  7  1  0
  5  6  1  1
  7  8  2  0
 10 11  1  1
 10  9  1  0
 12 10  1  0
 13 12  1  6
 14 13  1  0
 14  7  1  0
 15 16  2  0
 15 13  1  0
 18 17  1  0
 19 18  1  0
 19 20  1  0
 21 20  1  1
 21 23  1  0
 21 22  1  0
 22 15  1  0
 23 25  1  0
 24 23  2  0
M  END
$$$$
