LAL.pdb
     RDKit          3D

 22 21  0  0  1  0  0  0  0  0999 V2000
   26.6544  -33.1480   -4.3046 C   0  0  0  0  0  0  0  0  0  0  0  0
   25.3061  -33.1726   -3.6143 C   0  0  2  0  0  0  0  0  0  0  0  0
   24.3080  -32.2742   -4.3108 C   0  0  0  0  0  0  0  0  0  0  0  0
   25.4031  -32.9067   -2.1489 C   0  0  0  0  0  0  0  0  0  0  0  0
   26.4328  -33.7364   -1.4396 C   0  0  2  0  0  0  0  0  0  0  0  0
   26.4042  -35.1166   -1.7872 N   0  0  0  0  0  0  0  0  0  0  0  0
   26.2884  -33.5263    0.0265 C   0  0  0  0  0  0  0  0  0  0  0  0
   26.3662  -32.3688    0.5239 O   0  0  0  0  0  0  0  0  0  0  0  0
   25.0061  -35.4841    2.9575 C   0  0  0  0  0  0  0  0  0  0  0  0
   25.8559  -34.3732    2.3451 C   0  0  2  0  0  0  0  0  0  0  0  0
   26.0585  -34.5864    0.9471 N   0  0  0  0  0  0  0  0  0  0  0  0
   27.1510  -34.3169    3.0985 C   0  0  0  0  0  0  0  0  0  0  0  0
   28.1866  -34.8898    2.6773 O   0  0  0  0  0  0  0  0  0  0  0  0
   29.9256  -32.7026    7.6277 C   0  0  0  0  0  0  0  0  0  0  0  0
   29.8354  -31.8135    6.3838 C   0  0  2  0  0  0  0  0  0  0  0  0
   30.1681  -30.4268    6.7348 C   0  0  0  0  0  0  0  0  0  0  0  0
   28.6285  -32.1205    5.6063 C   0  0  0  0  0  0  0  0  0  0  0  0
   28.4452  -33.5066    5.1353 C   0  0  2  0  0  0  0  0  0  0  0  0
   27.2262  -33.6081    4.3109 N   0  0  0  0  0  0  0  0  0  0  0  0
   28.3638  -34.5424    6.1469 C   0  0  0  0  0  0  0  0  0  0  0  0
   27.3407  -34.8682    6.7623 O   0  0  0  0  0  0  0  0  0  0  0  0
   29.5385  -35.2604    6.4808 O   0  0  0  0  0  0  0  0  0  0  0  0
  2  1  1  6
  2  3  1  0
  4  2  1  0
  4  5  1  0
  5  6  1  1
  7  5  1  0
  8  7  2  0
 10  9  1  1
 10 11  1  0
 10 12  1  0
 11  7  1  0
 12 19  1  0
 13 12  2  0
 15 16  1  1
 15 14  1  0
 18 17  1  1
 17 15  1  0
 18 20  1  0
 19 18  1  0
 20 22  1  0
 21 20  2  0
M  END
$$$$
