LAL.pdb
     RDKit          3D

 22 21  0  0  1  0  0  0  0  0999 V2000
   13.2763  -11.2899  -15.2191 C   0  0  0  0  0  0  0  0  0  0  0  0
   12.7003  -11.1631  -13.8237 C   0  0  2  0  0  0  0  0  0  0  0  0
   11.1931  -11.2915  -13.8302 C   0  0  0  0  0  0  0  0  0  0  0  0
   13.1761   -9.9406  -13.1119 C   0  0  0  0  0  0  0  0  0  0  0  0
   14.6676   -9.7764  -13.1002 C   0  0  2  0  0  0  0  0  0  0  0  0
   15.3639  -10.8523  -12.4803 N   0  0  0  0  0  0  0  0  0  0  0  0
   14.9990   -8.4651  -12.4795 C   0  0  0  0  0  0  0  0  0  0  0  0
   14.5079   -7.3939  -12.9319 O   0  0  0  0  0  0  0  0  0  0  0  0
   16.4611   -7.2573   -9.2513 C   0  0  0  0  0  0  0  0  0  0  0  0
   16.1369   -7.0752  -10.7322 C   0  0  2  0  0  0  0  0  0  0  0  0
   15.8693   -8.3291  -11.3623 N   0  0  0  0  0  0  0  0  0  0  0  0
   17.2901   -6.3603  -11.3705 C   0  0  0  0  0  0  0  0  0  0  0  0
   17.6825   -5.2398  -10.9601 O   0  0  0  0  0  0  0  0  0  0  0  0
   21.9305   -6.7483  -11.9825 C   0  0  0  0  0  0  0  0  0  0  0  0
   21.0516   -7.8993  -12.4813 C   0  0  2  0  0  0  0  0  0  0  0  0
   21.8769   -9.0892  -12.7261 C   0  0  0  0  0  0  0  0  0  0  0  0
   20.0961   -7.4294  -13.4920 C   0  0  0  0  0  0  0  0  0  0  0  0
   19.1522   -6.3630  -13.1061 C   0  0  2  0  0  0  0  0  0  0  0  0
   17.9616   -6.9456  -12.4588 N   0  0  0  0  0  0  0  0  0  0  0  0
   18.6793   -5.4866  -14.1601 C   0  0  0  0  0  0  0  0  0  0  0  0
   19.2700   -4.4838  -14.5811 O   0  0  0  0  0  0  0  0  0  0  0  0
   17.4393   -5.7768  -14.7804 O   0  0  0  0  0  0  0  0  0  0  0  0
  2  1  1  6
  2  3  1  0
  4  2  1  0
  4  5  1  0
  5  6  1  1
  7  5  1  0
  8  7  2  0
 10  9  1  1
 10 11  1  0
 10 12  1  0
 11  7  1  0
 12 19  1  0
 13 12  2  0
 15 16  1  6
 15 14  1  0
 18 17  1  6
 17 15  1  0
 18 20  1  0
 19 18  1  0
 20 22  1  0
 21 20  2  0
M  END
$$$$
