LAL.pdb
     RDKit          3D

 22 21  0  0  1  0  0  0  0  0999 V2000
   29.0092  -18.6780  -18.7691 C   0  0  0  0  0  0  0  0  0  0  0  0
   28.8903  -17.1843  -18.5461 C   0  0  2  0  0  0  0  0  0  0  0  0
   30.1811  -16.5955  -18.0210 C   0  0  0  0  0  0  0  0  0  0  0  0
   27.7049  -16.8171  -17.7169 C   0  0  0  0  0  0  0  0  0  0  0  0
   26.4413  -17.5303  -18.0996 C   0  0  2  0  0  0  0  0  0  0  0  0
   25.8911  -17.1072  -19.3425 N   0  0  0  0  0  0  0  0  0  0  0  0
   25.4645  -17.4033  -16.9841 C   0  0  0  0  0  0  0  0  0  0  0  0
   25.2370  -16.2829  -16.4491 O   0  0  0  0  0  0  0  0  0  0  0  0
   22.3960  -17.9449  -16.0558 C   0  0  0  0  0  0  0  0  0  0  0  0
   23.7327  -18.3653  -15.4493 C   0  0  2  0  0  0  0  0  0  0  0  0
   24.7372  -18.5059  -16.4555 N   0  0  0  0  0  0  0  0  0  0  0  0
   23.5130  -19.6409  -14.6925 C   0  0  0  0  0  0  0  0  0  0  0  0
   23.4995  -20.7574  -15.2681 O   0  0  0  0  0  0  0  0  0  0  0  0
   25.9509  -21.5559  -11.8780 C   0  0  0  0  0  0  0  0  0  0  0  0
   25.2400  -20.4218  -11.1334 C   0  0  2  0  0  0  0  0  0  0  0  0
   25.9420  -20.1313   -9.8766 C   0  0  0  0  0  0  0  0  0  0  0  0
   23.7846  -20.6140  -11.1515 C   0  0  0  0  0  0  0  0  0  0  0  0
   23.1298  -20.8027  -12.4601 C   0  0  2  0  0  0  0  0  0  0  0  0
   23.3153  -19.6047  -13.3006 N   0  0  0  0  0  0  0  0  0  0  0  0
   21.7112  -21.1027  -12.4515 C   0  0  0  0  0  0  0  0  0  0  0  0
   20.7997  -20.2682  -12.3831 O   0  0  0  0  0  0  0  0  0  0  0  0
   21.3021  -22.4568  -12.5270 O   0  0  0  0  0  0  0  0  0  0  0  0
  2  1  1  1
  2  3  1  0
  4  2  1  0
  4  5  1  0
  5  6  1  6
  7  5  1  0
  8  7  2  0
 10  9  1  6
 10 11  1  0
 10 12  1  0
 11  7  1  0
 12 19  1  0
 13 12  2  0
 15 16  1  1
 15 14  1  0
 18 17  1  1
 17 15  1  0
 18 20  1  0
 19 18  1  0
 20 22  1  0
 21 20  2  0
M  END
$$$$
