LAL.pdb
     RDKit          3D

 22 21  0  0  1  0  0  0  0  0999 V2000
   21.6945  -31.3877  -11.9608 C   0  0  0  0  0  0  0  0  0  0  0  0
   21.1656  -32.6792  -11.3716 C   0  0  2  0  0  0  0  0  0  0  0  0
   19.7633  -32.5105  -10.8297 C   0  0  0  0  0  0  0  0  0  0  0  0
   22.1017  -33.2876  -10.3810 C   0  0  0  0  0  0  0  0  0  0  0  0
   23.5029  -33.4661  -10.8874 C   0  0  2  0  0  0  0  0  0  0  0  0
   23.6201  -34.4097  -11.9468 N   0  0  0  0  0  0  0  0  0  0  0  0
   24.3867  -33.8031   -9.7385 C   0  0  0  0  0  0  0  0  0  0  0  0
   24.4163  -34.9741   -9.2682 O   0  0  0  0  0  0  0  0  0  0  0  0
   27.1628  -32.1264   -7.7941 C   0  0  0  0  0  0  0  0  0  0  0  0
   26.0780  -33.1816   -7.9970 C   0  0  2  0  0  0  0  0  0  0  0  0
   25.2382  -32.8553   -9.1056 N   0  0  0  0  0  0  0  0  0  0  0  0
   25.3025  -33.2951   -6.7188 C   0  0  0  0  0  0  0  0  0  0  0  0
   24.3412  -32.5296   -6.4583 O   0  0  0  0  0  0  0  0  0  0  0  0
   24.3427  -36.4462   -2.2455 C   0  0  0  0  0  0  0  0  0  0  0  0
   23.3500  -36.0456   -3.3410 C   0  0  2  0  0  0  0  0  0  0  0  0
   22.2482  -37.0151   -3.3967 C   0  0  0  0  0  0  0  0  0  0  0  0
   24.0541  -35.6407   -4.5640 C   0  0  0  0  0  0  0  0  0  0  0  0
   24.9509  -34.4715   -4.4888 C   0  0  2  0  0  0  0  0  0  0  0  0
   25.6471  -34.2793   -5.7751 N   0  0  0  0  0  0  0  0  0  0  0  0
   25.9648  -34.4825   -3.4522 C   0  0  0  0  0  0  0  0  0  0  0  0
   27.1412  -34.8372   -3.6001 O   0  0  0  0  0  0  0  0  0  0  0  0
   25.6091  -34.0565   -2.1488 O   0  0  0  0  0  0  0  0  0  0  0  0
  2  1  1  1
  2  3  1  0
  4  2  1  0
  4  5  1  0
  5  6  1  6
  7  5  1  0
  8  7  2  0
 10  9  1  1
 10 11  1  0
 10 12  1  0
 11  7  1  0
 12 19  1  0
 13 12  2  0
 15 16  1  6
 15 14  1  0
 18 17  1  6
 17 15  1  0
 18 20  1  0
 19 18  1  0
 20 22  1  0
 21 20  2  0
M  END
$$$$
