LAL.pdb
     RDKit          3D

 22 21  0  0  1  0  0  0  0  0999 V2000
   13.3988  -10.6442  -11.8833 C   0  0  0  0  0  0  0  0  0  0  0  0
   13.7163  -11.0200  -10.4505 C   0  0  2  0  0  0  0  0  0  0  0  0
   12.4785  -11.4682   -9.7054 C   0  0  0  0  0  0  0  0  0  0  0  0
   14.4749   -9.9560   -9.7293 C   0  0  0  0  0  0  0  0  0  0  0  0
   15.7661   -9.5670  -10.3876 C   0  0  2  0  0  0  0  0  0  0  0  0
   16.8200  -10.5044  -10.1947 N   0  0  0  0  0  0  0  0  0  0  0  0
   16.1425   -8.2014   -9.9313 C   0  0  0  0  0  0  0  0  0  0  0  0
   16.6409   -8.0175   -8.7863 O   0  0  0  0  0  0  0  0  0  0  0  0
   16.7861   -4.8284  -11.3733 C   0  0  0  0  0  0  0  0  0  0  0  0
   16.2476   -5.7188  -10.2559 C   0  0  2  0  0  0  0  0  0  0  0  0
   15.9719   -7.0375  -10.7313 N   0  0  0  0  0  0  0  0  0  0  0  0
   15.0261   -5.0584   -9.6904 C   0  0  0  0  0  0  0  0  0  0  0  0
   13.8863   -5.2408  -10.1860 O   0  0  0  0  0  0  0  0  0  0  0  0
   12.8773   -1.6573   -5.9040 C   0  0  0  0  0  0  0  0  0  0  0  0
   12.8266   -3.1815   -5.7615 C   0  0  2  0  0  0  0  0  0  0  0  0
   12.5978   -3.5454   -4.3572 C   0  0  0  0  0  0  0  0  0  0  0  0
   13.9014   -3.8163   -6.5343 C   0  0  0  0  0  0  0  0  0  0  0  0
   14.0096   -3.4838   -7.9677 C   0  0  2  0  0  0  0  0  0  0  0  0
   15.1413   -4.2090   -8.5754 N   0  0  0  0  0  0  0  0  0  0  0  0
   14.1662   -2.0837   -8.3108 C   0  0  0  0  0  0  0  0  0  0  0  0
   15.2216   -1.4405   -8.2450 O   0  0  0  0  0  0  0  0  0  0  0  0
   13.0332   -1.3637   -8.7632 O   0  0  0  0  0  0  0  0  0  0  0  0
  2  1  1  6
  2  3  1  0
  4  2  1  0
  4  5  1  0
  5  6  1  1
  7  5  1  0
  8  7  2  0
 10  9  1  6
 10 11  1  0
 10 12  1  0
 11  7  1  0
 12 19  1  0
 13 12  2  0
 15 16  1  1
 15 14  1  0
 18 17  1  1
 17 15  1  0
 18 20  1  0
 19 18  1  0
 20 22  1  0
 21 20  2  0
M  END
$$$$
