LAL.pdb
     RDKit          3D

 22 21  0  0  1  0  0  0  0  0999 V2000
   15.5354  -12.5632  -15.9715 C   0  0  0  0  0  0  0  0  0  0  0  0
   16.7433  -13.4184  -15.6480 C   0  0  2  0  0  0  0  0  0  0  0  0
   16.3647  -14.6245  -14.8171 C   0  0  0  0  0  0  0  0  0  0  0  0
   17.8644  -12.6325  -15.0539 C   0  0  0  0  0  0  0  0  0  0  0  0
   18.2592  -11.4241  -15.8511 C   0  0  2  0  0  0  0  0  0  0  0  0
   18.7709  -11.7256  -17.1449 N   0  0  0  0  0  0  0  0  0  0  0  0
   19.2138  -10.6129  -15.0478 C   0  0  0  0  0  0  0  0  0  0  0  0
   18.8846  -10.1615  -13.9159 O   0  0  0  0  0  0  0  0  0  0  0  0
   22.8741  -10.0487  -14.8559 C   0  0  0  0  0  0  0  0  0  0  0  0
   21.4467   -9.5276  -14.7064 C   0  0  2  0  0  0  0  0  0  0  0  0
   20.5297  -10.2967  -15.4865 N   0  0  0  0  0  0  0  0  0  0  0  0
   21.4422   -8.0805  -15.0987 C   0  0  0  0  0  0  0  0  0  0  0  0
   22.1455   -7.2303  -14.4982 O   0  0  0  0  0  0  0  0  0  0  0  0
   18.9848   -5.0093  -19.9047 C   0  0  0  0  0  0  0  0  0  0  0  0
   19.9629   -4.9419  -18.7279 C   0  0  2  0  0  0  0  0  0  0  0  0
   21.1765   -4.2174  -19.1268 C   0  0  0  0  0  0  0  0  0  0  0  0
   20.0546   -6.2395  -18.0474 C   0  0  0  0  0  0  0  0  0  0  0  0
   20.6265   -6.2666  -16.6876 C   0  0  2  0  0  0  0  0  0  0  0  0
   20.6350   -7.6461  -16.1653 N   0  0  0  0  0  0  0  0  0  0  0  0
   19.9879   -5.4349  -15.6860 C   0  0  0  0  0  0  0  0  0  0  0  0
   20.3692   -4.3111  -15.3345 O   0  0  0  0  0  0  0  0  0  0  0  0
   18.8268   -5.9223  -15.0372 O   0  0  0  0  0  0  0  0  0  0  0  0
  2  1  1  1
  2  3  1  0
  4  2  1  0
  4  5  1  0
  5  6  1  6
  7  5  1  0
  8  7  2  0
 10  9  1  6
 10 11  1  0
 10 12  1  0
 11  7  1  0
 12 19  1  0
 13 12  2  0
 15 16  1  6
 15 14  1  0
 18 17  1  6
 17 15  1  0
 18 20  1  0
 19 18  1  0
 20 22  1  0
 21 20  2  0
M  END
$$$$
