LAL.pdb
     RDKit          3D

 22 21  0  0  1  0  0  0  0  0999 V2000
   26.5580  -14.7421  -16.9585 C   0  0  0  0  0  0  0  0  0  0  0  0
   27.1048  -13.3566  -16.6819 C   0  0  2  0  0  0  0  0  0  0  0  0
   28.0717  -13.3620  -15.5185 C   0  0  0  0  0  0  0  0  0  0  0  0
   26.0307  -12.3301  -16.5395 C   0  0  0  0  0  0  0  0  0  0  0  0
   25.0803  -12.2688  -17.6992 C   0  0  2  0  0  0  0  0  0  0  0  0
   25.7193  -12.1592  -18.9666 N   0  0  0  0  0  0  0  0  0  0  0  0
   24.1112  -11.1641  -17.4647 C   0  0  0  0  0  0  0  0  0  0  0  0
   23.4424  -11.1076  -16.3957 O   0  0  0  0  0  0  0  0  0  0  0  0
   23.1963   -7.8771  -19.0799 C   0  0  0  0  0  0  0  0  0  0  0  0
   22.9130   -9.0870  -18.1927 C   0  0  2  0  0  0  0  0  0  0  0  0
   23.8759  -10.1212  -18.4033 N   0  0  0  0  0  0  0  0  0  0  0  0
   21.5170   -9.5517  -18.4814 C   0  0  0  0  0  0  0  0  0  0  0  0
   20.5213   -8.8078  -18.2993 O   0  0  0  0  0  0  0  0  0  0  0  0
   18.2089  -13.6369  -20.1039 C   0  0  0  0  0  0  0  0  0  0  0  0
   18.6384  -12.5329  -21.0748 C   0  0  2  0  0  0  0  0  0  0  0  0
   18.4805  -12.9953  -22.4598 C   0  0  0  0  0  0  0  0  0  0  0  0
   19.8891  -11.9036  -20.6331 C   0  0  0  0  0  0  0  0  0  0  0  0
   19.9643  -11.4205  -19.2410 C   0  0  2  0  0  0  0  0  0  0  0  0
   21.2983  -10.8524  -18.9698 N   0  0  0  0  0  0  0  0  0  0  0  0
   19.6891  -12.3833  -18.1923 C   0  0  0  0  0  0  0  0  0  0  0  0
   20.3847  -13.3704  -17.9211 O   0  0  0  0  0  0  0  0  0  0  0  0
   18.5332  -12.2060  -17.3927 O   0  0  0  0  0  0  0  0  0  0  0  0
  2  1  1  1
  2  3  1  0
  4  2  1  0
  4  5  1  0
  5  6  1  6
  7  5  1  0
  8  7  2  0
 10  9  1  6
 10 11  1  0
 10 12  1  0
 11  7  1  0
 12 19  1  0
 13 12  2  0
 15 16  1  6
 15 14  1  0
 18 17  1  6
 17 15  1  0
 18 20  1  0
 19 18  1  0
 20 22  1  0
 21 20  2  0
M  END
$$$$
