LAL.pdb
     RDKit          3D

 22 21  0  0  1  0  0  0  0  0999 V2000
   28.4569  -20.2845  -16.7339 C   0  0  0  0  0  0  0  0  0  0  0  0
   27.0274  -19.7881  -16.6635 C   0  0  2  0  0  0  0  0  0  0  0  0
   26.7625  -18.7076  -17.6886 C   0  0  0  0  0  0  0  0  0  0  0  0
   26.6216  -19.3912  -15.2832 C   0  0  0  0  0  0  0  0  0  0  0  0
   27.0921  -20.3284  -14.2099 C   0  0  2  0  0  0  0  0  0  0  0  0
   26.7810  -21.6953  -14.4573 N   0  0  0  0  0  0  0  0  0  0  0  0
   26.5588  -19.8621  -12.9011 C   0  0  0  0  0  0  0  0  0  0  0  0
   26.7399  -18.6736  -12.5163 O   0  0  0  0  0  0  0  0  0  0  0  0
   23.7325  -20.4711  -10.7829 C   0  0  0  0  0  0  0  0  0  0  0  0
   25.2393  -20.2251  -10.8018 C   0  0  2  0  0  0  0  0  0  0  0  0
   25.8269  -20.6999  -12.0144 N   0  0  0  0  0  0  0  0  0  0  0  0
   25.8287  -20.8896   -9.5939 C   0  0  0  0  0  0  0  0  0  0  0  0
   26.1229  -22.1109   -9.5884 O   0  0  0  0  0  0  0  0  0  0  0  0
   29.1734  -20.8481   -6.1483 C   0  0  0  0  0  0  0  0  0  0  0  0
   28.4280  -19.5187   -6.2998 C   0  0  2  0  0  0  0  0  0  0  0  0
   29.0835  -18.4825   -5.4914 C   0  0  0  0  0  0  0  0  0  0  0  0
   26.9758  -19.7203   -6.2246 C   0  0  0  0  0  0  0  0  0  0  0  0
   26.3730  -20.7333   -7.1121 C   0  0  2  0  0  0  0  0  0  0  0  0
   26.0651  -20.1406   -8.4273 N   0  0  0  0  0  0  0  0  0  0  0  0
   25.1654  -21.3860   -6.6447 C   0  0  0  0  0  0  0  0  0  0  0  0
   24.0100  -21.0678   -6.9536 O   0  0  0  0  0  0  0  0  0  0  0  0
   25.2858  -22.4845   -5.7585 O   0  0  0  0  0  0  0  0  0  0  0  0
  2  1  1  1
  2  3  1  0
  4  2  1  0
  4  5  1  0
  5  6  1  6
  7  5  1  0
  8  7  2  0
 10  9  1  6
 10 11  1  0
 10 12  1  0
 11  7  1  0
 12 19  1  0
 13 12  2  0
 15 16  1  1
 15 14  1  0
 18 17  1  1
 17 15  1  0
 18 20  1  0
 19 18  1  0
 20 22  1  0
 21 20  2  0
M  END
$$$$
