LAL.pdb
     RDKit          3D

 22 21  0  0  1  0  0  0  0  0999 V2000
   26.1888  -21.4988  -15.2978 C   0  0  0  0  0  0  0  0  0  0  0  0
   24.7897  -21.1848  -14.8087 C   0  0  2  0  0  0  0  0  0  0  0  0
   23.9937  -20.4275  -15.8485 C   0  0  0  0  0  0  0  0  0  0  0  0
   24.7811  -20.5196  -13.4727 C   0  0  0  0  0  0  0  0  0  0  0  0
   25.6566  -21.1819  -12.4497 C   0  0  2  0  0  0  0  0  0  0  0  0
   25.4032  -22.5729  -12.2838 N   0  0  0  0  0  0  0  0  0  0  0  0
   25.5409  -20.4361  -11.1671 C   0  0  0  0  0  0  0  0  0  0  0  0
   25.6438  -19.1783  -11.1398 O   0  0  0  0  0  0  0  0  0  0  0  0
   24.2666  -21.1553   -7.7110 C   0  0  0  0  0  0  0  0  0  0  0  0
   25.0990  -20.3451   -8.7021 C   0  0  2  0  0  0  0  0  0  0  0  0
   25.3123  -21.0703   -9.9143 N   0  0  0  0  0  0  0  0  0  0  0  0
   26.3891  -19.9822   -8.0299 C   0  0  0  0  0  0  0  0  0  0  0  0
   26.4815  -18.9865   -7.2695 O   0  0  0  0  0  0  0  0  0  0  0  0
   28.9194  -18.5764   -5.4386 C   0  0  0  0  0  0  0  0  0  0  0  0
   28.5304  -20.0548   -5.3437 C   0  0  2  0  0  0  0  0  0  0  0  0
   28.6344  -20.5112   -3.9517 C   0  0  0  0  0  0  0  0  0  0  0  0
   29.1394  -20.8281   -6.4330 C   0  0  0  0  0  0  0  0  0  0  0  0
   28.8944  -20.3807   -7.8175 C   0  0  2  0  0  0  0  0  0  0  0  0
   27.5365  -20.7666   -8.2453 N   0  0  0  0  0  0  0  0  0  0  0  0
   29.8129  -20.8517   -8.8360 C   0  0  0  0  0  0  0  0  0  0  0  0
   30.9946  -20.5039   -8.9555 O   0  0  0  0  0  0  0  0  0  0  0  0
   29.3476  -21.7904   -9.7894 O   0  0  0  0  0  0  0  0  0  0  0  0
  2  1  1  6
  2  3  1  0
  4  2  1  0
  4  5  1  0
  5  6  1  1
  7  5  1  0
  8  7  2  0
 10  9  1  1
 10 11  1  0
 10 12  1  0
 11  7  1  0
 12 19  1  0
 13 12  2  0
 15 16  1  1
 15 14  1  0
 18 17  1  1
 17 15  1  0
 18 20  1  0
 19 18  1  0
 20 22  1  0
 21 20  2  0
M  END
$$$$
