LAL.pdb
     RDKit          3D

 22 21  0  0  1  0  0  0  0  0999 V2000
   16.0657  -15.0274  -16.3498 C   0  0  0  0  0  0  0  0  0  0  0  0
   17.4667  -15.2088  -15.8027 C   0  0  2  0  0  0  0  0  0  0  0  0
   17.5192  -16.3022  -14.7587 C   0  0  0  0  0  0  0  0  0  0  0  0
   18.0734  -13.9283  -15.3336 C   0  0  0  0  0  0  0  0  0  0  0  0
   18.1360  -12.8565  -16.3820 C   0  0  2  0  0  0  0  0  0  0  0  0
   18.9493  -13.1886  -17.5021 N   0  0  0  0  0  0  0  0  0  0  0  0
   18.5630  -11.5840  -15.7392 C   0  0  0  0  0  0  0  0  0  0  0  0
   18.0020  -11.1724  -14.6860 O   0  0  0  0  0  0  0  0  0  0  0  0
   21.2402   -8.9510  -16.2526 C   0  0  0  0  0  0  0  0  0  0  0  0
   19.8970   -9.4626  -15.7373 C   0  0  2  0  0  0  0  0  0  0  0  0
   19.6054  -10.7630  -16.2522 N   0  0  0  0  0  0  0  0  0  0  0  0
   18.8478   -8.4604  -16.1153 C   0  0  0  0  0  0  0  0  0  0  0  0
   18.1668   -8.5795  -17.1641 O   0  0  0  0  0  0  0  0  0  0  0  0
   15.7265   -4.1441  -14.6773 C   0  0  0  0  0  0  0  0  0  0  0  0
   15.2892   -5.5323  -15.1545 C   0  0  2  0  0  0  0  0  0  0  0  0
   13.9203   -5.8093  -14.7004 C   0  0  0  0  0  0  0  0  0  0  0  0
   16.3591   -6.5172  -14.9528 C   0  0  0  0  0  0  0  0  0  0  0  0
   17.6583   -6.2681  -15.6062 C   0  0  2  0  0  0  0  0  0  0  0  0
   18.6067   -7.3513  -15.2848 N   0  0  0  0  0  0  0  0  0  0  0  0
   18.3217   -5.0153  -15.3009 C   0  0  0  0  0  0  0  0  0  0  0  0
   19.0342   -4.8009  -14.3119 O   0  0  0  0  0  0  0  0  0  0  0  0
   18.1598   -3.9256  -16.1914 O   0  0  0  0  0  0  0  0  0  0  0  0
  2  1  1  1
  2  3  1  0
  4  2  1  0
  4  5  1  0
  5  6  1  6
  7  5  1  0
  8  7  2  0
 10  9  1  6
 10 11  1  0
 10 12  1  0
 11  7  1  0
 12 19  1  0
 13 12  2  0
 15 16  1  1
 15 14  1  0
 18 17  1  1
 17 15  1  0
 18 20  1  0
 19 18  1  0
 20 22  1  0
 21 20  2  0
M  END
$$$$
