LAL.pdb
     RDKit          3D

 22 21  0  0  1  0  0  0  0  0999 V2000
   28.7962  -28.2124  -16.0633 C   0  0  0  0  0  0  0  0  0  0  0  0
   28.3955  -28.4806  -17.4994 C   0  0  2  0  0  0  0  0  0  0  0  0
   28.5589  -27.2487  -18.3621 C   0  0  0  0  0  0  0  0  0  0  0  0
   27.0402  -29.0951  -17.6153 C   0  0  0  0  0  0  0  0  0  0  0  0
   26.8577  -30.3412  -16.7995 C   0  0  2  0  0  0  0  0  0  0  0  0
   27.8006  -31.3673  -17.0905 N   0  0  0  0  0  0  0  0  0  0  0  0
   25.4544  -30.8119  -16.9539 C   0  0  0  0  0  0  0  0  0  0  0  0
   24.4846  -30.0575  -16.6646 O   0  0  0  0  0  0  0  0  0  0  0  0
   23.7016  -33.5331  -18.8162 C   0  0  0  0  0  0  0  0  0  0  0  0
   23.7697  -32.5213  -17.6747 C   0  0  2  0  0  0  0  0  0  0  0  0
   25.1151  -32.1105  -17.4256 N   0  0  0  0  0  0  0  0  0  0  0  0
   23.1408  -33.1484  -16.4666 C   0  0  0  0  0  0  0  0  0  0  0  0
   21.9560  -33.5656  -16.4791 O   0  0  0  0  0  0  0  0  0  0  0  0
   22.4768  -36.6977  -14.0960 C   0  0  0  0  0  0  0  0  0  0  0  0
   23.9634  -36.3466  -14.2085 C   0  0  2  0  0  0  0  0  0  0  0  0
   24.7814  -37.5071  -13.8330 C   0  0  0  0  0  0  0  0  0  0  0  0
   24.2342  -35.0223  -13.6356 C   0  0  0  0  0  0  0  0  0  0  0  0
   23.3655  -33.9024  -14.0456 C   0  0  2  0  0  0  0  0  0  0  0  0
   23.8830  -33.2810  -15.2794 N   0  0  0  0  0  0  0  0  0  0  0  0
   23.1635  -32.8367  -13.0832 C   0  0  0  0  0  0  0  0  0  0  0  0
   22.7414  -32.9805  -11.9287 O   0  0  0  0  0  0  0  0  0  0  0  0
   23.4663  -31.5073  -13.4674 O   0  0  0  0  0  0  0  0  0  0  0  0
  2  1  1  1
  2  3  1  0
  4  2  1  0
  4  5  1  0
  5  6  1  6
  7  5  1  0
  8  7  2  0
 10  9  1  6
 10 11  1  0
 10 12  1  0
 11  7  1  0
 12 19  1  0
 13 12  2  0
 15 16  1  1
 15 14  1  0
 18 17  1  1
 17 15  1  0
 18 20  1  0
 19 18  1  0
 20 22  1  0
 21 20  2  0
M  END
$$$$
