LAL.pdb
     RDKit          3D

 22 21  0  0  1  0  0  0  0  0999 V2000
   18.8084  -16.7995  -17.2029 C   0  0  0  0  0  0  0  0  0  0  0  0
   18.1156  -16.1109  -18.3608 C   0  0  2  0  0  0  0  0  0  0  0  0
   18.5040  -16.7261  -19.6871 C   0  0  0  0  0  0  0  0  0  0  0  0
   18.2861  -14.6283  -18.3362 C   0  0  0  0  0  0  0  0  0  0  0  0
   17.8724  -13.9825  -17.0464 C   0  0  2  0  0  0  0  0  0  0  0  0
   16.4956  -14.1546  -16.7279 N   0  0  0  0  0  0  0  0  0  0  0  0
   18.2618  -12.5467  -17.0846 C   0  0  0  0  0  0  0  0  0  0  0  0
   19.4590  -12.2076  -17.2972 O   0  0  0  0  0  0  0  0  0  0  0  0
   16.5086   -9.1880  -16.8509 C   0  0  0  0  0  0  0  0  0  0  0  0
   17.7267  -10.1085  -16.8646 C   0  0  2  0  0  0  0  0  0  0  0  0
   17.3377  -11.4829  -16.8896 N   0  0  0  0  0  0  0  0  0  0  0  0
   18.5624   -9.7828  -15.6630 C   0  0  0  0  0  0  0  0  0  0  0  0
   18.5205  -10.4808  -14.6194 O   0  0  0  0  0  0  0  0  0  0  0  0
   23.8897   -9.0976  -15.2488 C   0  0  0  0  0  0  0  0  0  0  0  0
   22.8072   -9.6955  -14.3451 C   0  0  2  0  0  0  0  0  0  0  0  0
   23.3180  -10.9037  -13.6846 C   0  0  0  0  0  0  0  0  0  0  0  0
   21.5051   -9.7061  -15.0232 C   0  0  0  0  0  0  0  0  0  0  0  0
   20.6253   -8.5350  -14.8460 C   0  0  2  0  0  0  0  0  0  0  0  0
   19.4215   -8.6696  -15.6878 N   0  0  0  0  0  0  0  0  0  0  0  0
   21.1970   -7.2317  -15.1236 C   0  0  0  0  0  0  0  0  0  0  0  0
   21.1881   -6.6613  -16.2220 O   0  0  0  0  0  0  0  0  0  0  0  0
   21.8257   -6.5262  -14.0683 O   0  0  0  0  0  0  0  0  0  0  0  0
  2  1  1  1
  2  3  1  0
  4  2  1  0
  4  5  1  0
  5  6  1  6
  7  5  1  0
  8  7  2  0
 10  9  1  1
 10 11  1  0
 10 12  1  0
 11  7  1  0
 12 19  1  0
 13 12  2  0
 15 16  1  6
 15 14  1  0
 18 17  1  6
 17 15  1  0
 18 20  1  0
 19 18  1  0
 20 22  1  0
 21 20  2  0
M  END
$$$$
