LAL.pdb
     RDKit          3D

 22 21  0  0  1  0  0  0  0  0999 V2000
   29.0213  -17.5366  -17.1549 C   0  0  0  0  0  0  0  0  0  0  0  0
   28.4823  -18.4692  -18.2202 C   0  0  2  0  0  0  0  0  0  0  0  0
   28.5176  -17.8286  -19.5901 C   0  0  0  0  0  0  0  0  0  0  0  0
   27.1418  -19.0270  -17.8743 C   0  0  0  0  0  0  0  0  0  0  0  0
   27.1097  -19.7991  -16.5880 C   0  0  2  0  0  0  0  0  0  0  0  0
   28.3164  -20.4981  -16.3017 N   0  0  0  0  0  0  0  0  0  0  0  0
   25.9294  -20.7053  -16.6041 C   0  0  0  0  0  0  0  0  0  0  0  0
   24.7830  -20.2676  -16.8999 O   0  0  0  0  0  0  0  0  0  0  0  0
   25.2869  -24.4157  -16.4891 C   0  0  0  0  0  0  0  0  0  0  0  0
   24.8705  -22.9576  -16.3107 C   0  0  2  0  0  0  0  0  0  0  0  0
   26.0070  -22.0920  -16.2956 N   0  0  0  0  0  0  0  0  0  0  0  0
   24.0723  -22.8591  -15.0453 C   0  0  0  0  0  0  0  0  0  0  0  0
   22.9597  -23.4286  -14.9191 O   0  0  0  0  0  0  0  0  0  0  0  0
   26.6508  -20.8322  -10.2532 C   0  0  0  0  0  0  0  0  0  0  0  0
   25.3087  -20.7431  -10.9857 C   0  0  2  0  0  0  0  0  0  0  0  0
   24.3446  -19.9893  -10.1738 C   0  0  0  0  0  0  0  0  0  0  0  0
   24.9436  -22.0392  -11.5709 C   0  0  0  0  0  0  0  0  0  0  0  0
   23.9222  -22.0523  -12.6356 C   0  0  2  0  0  0  0  0  0  0  0  0
   24.5676  -22.1133  -13.9606 N   0  0  0  0  0  0  0  0  0  0  0  0
   22.9867  -20.9448  -12.6669 C   0  0  0  0  0  0  0  0  0  0  0  0
   23.1237  -19.9058  -13.3252 O   0  0  0  0  0  0  0  0  0  0  0  0
   21.8062  -21.0299  -11.8886 O   0  0  0  0  0  0  0  0  0  0  0  0
  2  1  1  1
  2  3  1  0
  4  2  1  0
  4  5  1  0
  5  6  1  6
  7  5  1  0
  8  7  2  0
 10  9  1  1
 10 11  1  0
 10 12  1  0
 11  7  1  0
 12 19  1  0
 13 12  2  0
 15 16  1  1
 15 14  1  0
 18 17  1  1
 17 15  1  0
 18 20  1  0
 19 18  1  0
 20 22  1  0
 21 20  2  0
M  END
$$$$
