PTK.pdb
     RDKit          3D

 24 24  0  0  1  0  0  0  0  0999 V2000
   27.2069  -10.3504  -15.8201 N   0  0  0  0  0  0  0  0  0  0  0  0
   27.5599  -11.7350  -15.5738 C   0  0  0  0  0  0  0  0  0  0  0  0
   28.3948  -12.0837  -16.7984 C   0  0  0  0  0  0  0  0  0  0  0  0
   27.5531  -11.4279  -17.9004 C   0  0  0  0  0  0  0  0  0  0  0  0
   26.9615  -10.2112  -17.2225 C   0  0  1  0  0  0  0  0  0  0  0  0
   25.4912  -10.1842  -17.5303 C   0  0  0  0  0  0  0  0  0  0  0  0
   25.1380  -10.0774  -18.7308 O   0  0  0  0  0  0  0  0  0  0  0  0
   22.7891  -12.2010  -15.1913 C   0  0  0  0  0  0  0  0  0  0  0  0
   22.6208  -11.7567  -16.6067 C   0  0  1  0  0  0  0  0  0  0  0  0
   21.2299  -11.7442  -16.8696 O   0  0  0  0  0  0  0  0  0  0  0  0
   23.0687  -10.3102  -16.8479 C   0  0  2  0  0  0  0  0  0  0  0  0
   24.5119  -10.2735  -16.5308 N   0  0  0  0  0  0  0  0  0  0  0  0
   22.3515   -9.3416  -15.9974 C   0  0  0  0  0  0  0  0  0  0  0  0
   22.8504   -9.1183  -14.8404 O   0  0  0  0  0  0  0  0  0  0  0  0
   21.1706   -8.6480  -16.3575 N   0  0  0  0  0  0  0  0  0  0  0  0
   20.5956   -7.6974  -15.4520 C   0  0  1  0  0  0  0  0  0  0  0  0
   19.6961   -6.7056  -16.0954 C   0  0  0  0  0  0  0  0  0  0  0  0
   19.1210   -5.6451  -15.2378 C   0  0  0  0  0  0  0  0  0  0  0  0
   18.3044   -4.6093  -15.9684 C   0  0  0  0  0  0  0  0  0  0  0  0
   17.7464   -3.5708  -15.0054 C   0  0  0  0  0  0  0  0  0  0  0  0
   16.9979   -2.6216  -15.8016 N   0  0  0  0  0  0  0  0  0  0  0  0
   20.0380   -8.3903  -14.2722 C   0  0  0  0  0  0  0  0  0  0  0  0
   20.2066   -7.8237  -13.0203 O   0  0  0  0  0  0  0  0  0  0  0  0
   19.4096   -9.4775  -14.3339 O   0  0  0  0  0  0  0  0  0  0  0  0
  1  2  1  0
  3  2  1  0
  4  3  1  0
  5  4  1  0
  5  1  1  0
  6  7  2  0
  5  6  1  1
  9  8  1  1
  9 10  1  0
  9 11  1  0
 11 12  1  1
 12  6  1  0
 13 15  1  0
 13 11  1  0
 14 13  2  0
 16 15  1  0
 16 22  1  0
 16 17  1  6
 17 18  1  0
 19 18  1  0
 20 21  1  0
 20 19  1  0
 22 23  1  0
 24 22  2  0
M  END
$$$$
