PTK.pdb
     RDKit          3D

 24 24  0  0  1  0  0  0  0  0999 V2000
   29.6550  -22.4461  -11.5637 N   0  0  0  0  0  0  0  0  0  0  0  0
   30.9882  -21.8819  -11.4816 C   0  0  0  0  0  0  0  0  0  0  0  0
   30.8151  -20.7807  -10.4442 C   0  0  0  0  0  0  0  0  0  0  0  0
   29.4809  -20.1786  -10.9029 C   0  0  0  0  0  0  0  0  0  0  0  0
   28.7227  -21.3668  -11.4537 C   0  0  1  0  0  0  0  0  0  0  0  0
   28.1649  -20.9744  -12.7923 C   0  0  0  0  0  0  0  0  0  0  0  0
   28.9195  -20.3743  -13.5970 O   0  0  0  0  0  0  0  0  0  0  0  0
   25.5934  -21.8592  -16.6711 C   0  0  0  0  0  0  0  0  0  0  0  0
   26.1715  -22.0999  -15.3157 C   0  0  1  0  0  0  0  0  0  0  0  0
   27.5090  -22.5209  -15.5097 O   0  0  0  0  0  0  0  0  0  0  0  0
   26.2902  -20.8265  -14.4698 C   0  0  2  0  0  0  0  0  0  0  0  0
   26.8431  -21.2541  -13.1674 N   0  0  0  0  0  0  0  0  0  0  0  0
   24.9921  -20.1581  -14.2598 C   0  0  0  0  0  0  0  0  0  0  0  0
   24.3392  -20.4948  -13.2120 O   0  0  0  0  0  0  0  0  0  0  0  0
   24.4207  -19.1849  -15.1151 N   0  0  0  0  0  0  0  0  0  0  0  0
   23.0954  -18.7011  -14.8628 C   0  0  1  0  0  0  0  0  0  0  0  0
   22.7416  -17.4671  -15.6102 C   0  0  0  0  0  0  0  0  0  0  0  0
   21.3697  -16.9365  -15.4457 C   0  0  0  0  0  0  0  0  0  0  0  0
   21.0407  -15.7450  -16.3092 C   0  0  0  0  0  0  0  0  0  0  0  0
   19.6182  -15.2631  -16.0611 C   0  0  0  0  0  0  0  0  0  0  0  0
   19.4172  -14.1022  -16.9019 N   0  0  0  0  0  0  0  0  0  0  0  0
   22.1213  -19.8074  -14.9644 C   0  0  0  0  0  0  0  0  0  0  0  0
   21.1719  -19.9582  -13.9680 O   0  0  0  0  0  0  0  0  0  0  0  0
   22.0986  -20.6323  -15.9129 O   0  0  0  0  0  0  0  0  0  0  0  0
  1  2  1  0
  3  2  1  0
  4  3  1  0
  5  4  1  0
  5  1  1  0
  6  7  2  0
  5  6  1  6
  9  8  1  6
  9 10  1  0
  9 11  1  0
 11 12  1  1
 12  6  1  0
 13 15  1  0
 13 11  1  0
 14 13  2  0
 16 15  1  0
 16 22  1  0
 16 17  1  6
 17 18  1  0
 19 18  1  0
 20 21  1  0
 20 19  1  0
 22 23  1  0
 24 22  2  0
M  END
$$$$
