PTK.pdb
     RDKit          3D

 24 24  0  0  1  0  0  0  0  0999 V2000
   18.6587   -9.0623  -16.4231 N   0  0  0  0  0  0  0  0  0  0  0  0
   19.8135   -8.8337  -17.2695 C   0  0  0  0  0  0  0  0  0  0  0  0
   20.3453  -10.2438  -17.4871 C   0  0  0  0  0  0  0  0  0  0  0  0
   20.2200  -10.8067  -16.0656 C   0  0  0  0  0  0  0  0  0  0  0  0
   18.9926  -10.1149  -15.5137 C   0  0  1  0  0  0  0  0  0  0  0  0
   19.3387   -9.5845  -14.1513 C   0  0  0  0  0  0  0  0  0  0  0  0
   19.7063  -10.4023  -13.2719 O   0  0  0  0  0  0  0  0  0  0  0  0
   20.9258   -5.9055  -11.3700 C   0  0  0  0  0  0  0  0  0  0  0  0
   20.6031   -6.6172  -12.6422 C   0  0  1  0  0  0  0  0  0  0  0  0
   21.7740   -7.3107  -13.0319 O   0  0  0  0  0  0  0  0  0  0  0  0
   19.5462   -7.7153  -12.4740 C   0  0  2  0  0  0  0  0  0  0  0  0
   19.2654   -8.2206  -13.8343 N   0  0  0  0  0  0  0  0  0  0  0  0
   18.2985   -7.2178  -11.8646 C   0  0  0  0  0  0  0  0  0  0  0  0
   17.4984   -6.5848  -12.6371 O   0  0  0  0  0  0  0  0  0  0  0  0
   17.9216   -7.3851  -10.5099 N   0  0  0  0  0  0  0  0  0  0  0  0
   16.6893   -6.8270  -10.0366 C   0  0  1  0  0  0  0  0  0  0  0  0
   15.7189   -7.8297   -9.5269 C   0  0  0  0  0  0  0  0  0  0  0  0
   14.4415   -7.3268   -8.9737 C   0  0  0  0  0  0  0  0  0  0  0  0
   13.5113   -8.3923   -8.4511 C   0  0  0  0  0  0  0  0  0  0  0  0
   12.1597   -7.8034   -8.0723 C   0  0  0  0  0  0  0  0  0  0  0  0
   11.3669   -8.8882   -7.5340 N   0  0  0  0  0  0  0  0  0  0  0  0
   16.9589   -5.6876   -9.1353 C   0  0  0  0  0  0  0  0  0  0  0  0
   16.0628   -4.6328   -9.1017 O   0  0  0  0  0  0  0  0  0  0  0  0
   17.9649   -5.6146   -8.3848 O   0  0  0  0  0  0  0  0  0  0  0  0
  1  2  1  0
  3  2  1  0
  4  3  1  0
  5  4  1  0
  5  1  1  0
  6  7  2  0
  5  6  1  1
  9  8  1  1
  9 10  1  0
  9 11  1  0
 11 12  1  6
 12  6  1  0
 13 15  1  0
 13 11  1  0
 14 13  2  0
 16 15  1  0
 16 22  1  0
 16 17  1  1
 17 18  1  0
 19 18  1  0
 20 21  1  0
 20 19  1  0
 22 23  1  0
 24 22  2  0
M  END
$$$$
