PTK.pdb
     RDKit          3D

 24 24  0  0  1  0  0  0  0  0999 V2000
   21.6419  -13.6939  -17.0214 N   0  0  0  0  0  0  0  0  0  0  0  0
   20.7131  -14.6992  -16.5429 C   0  0  0  0  0  0  0  0  0  0  0  0
   20.2460  -15.3560  -17.8347 C   0  0  0  0  0  0  0  0  0  0  0  0
   20.0407  -14.1162  -18.7144 C   0  0  0  0  0  0  0  0  0  0  0  0
   21.1078  -13.1565  -18.2348 C   0  0  1  0  0  0  0  0  0  0  0  0
   20.4571  -11.8207  -18.0129 C   0  0  0  0  0  0  0  0  0  0  0  0
   19.9048  -11.2597  -18.9914 O   0  0  0  0  0  0  0  0  0  0  0  0
   17.5323  -11.0269  -16.1225 C   0  0  0  0  0  0  0  0  0  0  0  0
   18.6272  -10.1914  -15.5462 C   0  0  1  0  0  0  0  0  0  0  0  0
   19.2409  -10.9638  -14.5310 O   0  0  0  0  0  0  0  0  0  0  0  0
   19.7574   -9.8992  -16.5404 C   0  0  2  0  0  0  0  0  0  0  0  0
   20.4469  -11.1877  -16.7618 N   0  0  0  0  0  0  0  0  0  0  0  0
   20.7209   -8.9044  -16.0325 C   0  0  0  0  0  0  0  0  0  0  0  0
   21.7090   -9.3587  -15.3582 O   0  0  0  0  0  0  0  0  0  0  0  0
   20.6394   -7.5048  -16.2318 N   0  0  0  0  0  0  0  0  0  0  0  0
   21.7053   -6.6561  -15.7872 C   0  0  1  0  0  0  0  0  0  0  0  0
   22.0196   -5.5342  -16.7088 C   0  0  0  0  0  0  0  0  0  0  0  0
   23.0522   -4.5644  -16.2799 C   0  0  0  0  0  0  0  0  0  0  0  0
   23.3293   -3.4543  -17.2619 C   0  0  0  0  0  0  0  0  0  0  0  0
   24.4499   -2.5506  -16.7671 C   0  0  0  0  0  0  0  0  0  0  0  0
   24.6061   -1.5009  -17.7514 N   0  0  0  0  0  0  0  0  0  0  0  0
   21.5006   -6.2793  -14.3733 C   0  0  0  0  0  0  0  0  0  0  0  0
   20.2098   -6.2154  -13.8767 O   0  0  0  0  0  0  0  0  0  0  0  0
   22.4383   -6.0102  -13.5802 O   0  0  0  0  0  0  0  0  0  0  0  0
  1  2  1  0
  3  2  1  0
  4  3  1  0
  5  4  1  0
  5  1  1  0
  6  7  2  0
  5  6  1  1
  9  8  1  6
  9 10  1  0
  9 11  1  0
 11 12  1  1
 12  6  1  0
 13 15  1  0
 13 11  1  0
 14 13  2  0
 16 15  1  0
 16 22  1  0
 16 17  1  6
 17 18  1  0
 19 18  1  0
 20 21  1  0
 20 19  1  0
 22 23  1  0
 24 22  2  0
M  END
$$$$
