PTK.pdb
     RDKit          3D

 24 24  0  0  1  0  0  0  0  0999 V2000
   29.0643  -31.4019  -18.1278 N   0  0  0  0  0  0  0  0  0  0  0  0
   29.4294  -29.9992  -18.1660 C   0  0  0  0  0  0  0  0  0  0  0  0
   29.5323  -29.6464  -16.6884 C   0  0  0  0  0  0  0  0  0  0  0  0
   28.2865  -30.3602  -16.1483 C   0  0  0  0  0  0  0  0  0  0  0  0
   28.1639  -31.5831  -17.0311 C   0  0  1  0  0  0  0  0  0  0  0  0
   26.7369  -31.6750  -17.4918 C   0  0  0  0  0  0  0  0  0  0  0  0
   26.4271  -31.1250  -18.5775 O   0  0  0  0  0  0  0  0  0  0  0  0
   22.4477  -34.1348  -17.0615 C   0  0  0  0  0  0  0  0  0  0  0  0
   23.8734  -33.8498  -16.7219 C   0  0  1  0  0  0  0  0  0  0  0  0
   24.6575  -34.8077  -17.4085 O   0  0  0  0  0  0  0  0  0  0  0  0
   24.3674  -32.4991  -17.2536 C   0  0  2  0  0  0  0  0  0  0  0  0
   25.7511  -32.3481  -16.7561 N   0  0  0  0  0  0  0  0  0  0  0  0
   23.5474  -31.3666  -16.7837 C   0  0  0  0  0  0  0  0  0  0  0  0
   23.6667  -31.0481  -15.5500 O   0  0  0  0  0  0  0  0  0  0  0  0
   22.6516  -30.6137  -17.5811 N   0  0  0  0  0  0  0  0  0  0  0  0
   21.9622  -29.4912  -17.0163 C   0  0  1  0  0  0  0  0  0  0  0  0
   22.0729  -28.2414  -17.8115 C   0  0  0  0  0  0  0  0  0  0  0  0
   21.3602  -27.0451  -17.3098 C   0  0  0  0  0  0  0  0  0  0  0  0
   21.5055  -25.8124  -18.1660 C   0  0  0  0  0  0  0  0  0  0  0  0
   20.1750  -25.4194  -18.7926 C   0  0  0  0  0  0  0  0  0  0  0  0
   20.4214  -24.2367  -19.5900 N   0  0  0  0  0  0  0  0  0  0  0  0
   20.5902  -29.8786  -16.6282 C   0  0  0  0  0  0  0  0  0  0  0  0
   20.1139  -29.5021  -15.3840 O   0  0  0  0  0  0  0  0  0  0  0  0
   19.8157  -30.5373  -17.3677 O   0  0  0  0  0  0  0  0  0  0  0  0
  1  2  1  0
  3  2  1  0
  4  3  1  0
  5  4  1  0
  5  1  1  0
  6  7  2  0
  5  6  1  6
  9  8  1  6
  9 10  1  0
  9 11  1  0
 11 12  1  1
 12  6  1  0
 13 15  1  0
 13 11  1  0
 14 13  2  0
 16 15  1  0
 16 22  1  0
 16 17  1  6
 17 18  1  0
 19 18  1  0
 20 21  1  0
 20 19  1  0
 22 23  1  0
 24 22  2  0
M  END
$$$$
