PTK.pdb
     RDKit          3D

 24 24  0  0  1  0  0  0  0  0999 V2000
   27.3608  -15.0019  -17.3033 N   0  0  0  0  0  0  0  0  0  0  0  0
   26.3958  -13.9261  -17.1856 C   0  0  0  0  0  0  0  0  0  0  0  0
   26.5992  -13.4582  -15.7509 C   0  0  0  0  0  0  0  0  0  0  0  0
   26.7099  -14.8100  -15.0344 C   0  0  0  0  0  0  0  0  0  0  0  0
   27.3786  -15.7031  -16.0566 C   0  0  1  0  0  0  0  0  0  0  0  0
   26.5971  -16.9843  -16.1275 C   0  0  0  0  0  0  0  0  0  0  0  0
   25.6532  -17.0589  -16.9525 O   0  0  0  0  0  0  0  0  0  0  0  0
   27.9873  -20.1195  -17.0055 C   0  0  0  0  0  0  0  0  0  0  0  0
   27.2122  -20.4252  -15.7666 C   0  0  1  0  0  0  0  0  0  0  0  0
   28.1253  -20.3643  -14.6866 O   0  0  0  0  0  0  0  0  0  0  0  0
   26.1546  -19.3661  -15.4335 C   0  0  2  0  0  0  0  0  0  0  0  0
   26.8852  -18.0870  -15.3108 N   0  0  0  0  0  0  0  0  0  0  0  0
   25.4402  -19.6495  -14.1745 C   0  0  0  0  0  0  0  0  0  0  0  0
   25.8957  -19.0857  -13.1199 O   0  0  0  0  0  0  0  0  0  0  0  0
   24.3040  -20.4844  -14.0441 N   0  0  0  0  0  0  0  0  0  0  0  0
   23.6339  -20.5879  -12.7814 C   0  0  1  0  0  0  0  0  0  0  0  0
   22.1529  -20.6513  -12.8776 C   0  0  0  0  0  0  0  0  0  0  0  0
   21.4947  -21.9171  -12.4835 C   0  0  0  0  0  0  0  0  0  0  0  0
   20.0017  -21.9495  -12.6924 C   0  0  0  0  0  0  0  0  0  0  0  0
   19.4262  -23.3116  -12.3305 C   0  0  0  0  0  0  0  0  0  0  0  0
   17.9896  -23.2106  -12.4760 N   0  0  0  0  0  0  0  0  0  0  0  0
   24.2632  -21.6390  -11.9553 C   0  0  0  0  0  0  0  0  0  0  0  0
   24.2575  -21.5019  -10.5776 O   0  0  0  0  0  0  0  0  0  0  0  0
   24.8106  -22.6659  -12.4310 O   0  0  0  0  0  0  0  0  0  0  0  0
  1  2  1  0
  3  2  1  0
  4  3  1  0
  5  4  1  0
  5  1  1  0
  6  7  2  0
  5  6  1  6
  9  8  1  6
  9 10  1  0
  9 11  1  0
 11 12  1  1
 12  6  1  0
 13 15  1  0
 13 11  1  0
 14 13  2  0
 16 15  1  0
 16 22  1  0
 16 17  1  6
 17 18  1  0
 19 18  1  0
 20 21  1  0
 20 19  1  0
 22 23  1  0
 24 22  2  0
M  END
$$$$
