PTK.pdb
     RDKit          3D

 24 24  0  0  1  0  0  0  0  0999 V2000
   20.6947  -10.1471  -13.7297 N   0  0  0  0  0  0  0  0  0  0  0  0
   20.1097  -10.4310  -15.0256 C   0  0  0  0  0  0  0  0  0  0  0  0
   21.1752   -9.9199  -15.9858 C   0  0  0  0  0  0  0  0  0  0  0  0
   21.5473   -8.5971  -15.3041 C   0  0  0  0  0  0  0  0  0  0  0  0
   21.3770   -8.8939  -13.8301 C   0  0  1  0  0  0  0  0  0  0  0  0
   20.5772   -7.7746  -13.2263 C   0  0  0  0  0  0  0  0  0  0  0  0
   20.9443   -6.5947  -13.4504 O   0  0  0  0  0  0  0  0  0  0  0  0
   19.2852   -5.4762  -13.8770 C   0  0  0  0  0  0  0  0  0  0  0  0
   18.1632   -6.0841  -13.1020 C   0  0  1  0  0  0  0  0  0  0  0  0
   17.5499   -7.0382  -13.9491 O   0  0  0  0  0  0  0  0  0  0  0  0
   18.6314   -6.8953  -11.8880 C   0  0  2  0  0  0  0  0  0  0  0  0
   19.4463   -8.0032  -12.4295 N   0  0  0  0  0  0  0  0  0  0  0  0
   17.5104   -7.4450  -11.1025 C   0  0  0  0  0  0  0  0  0  0  0  0
   17.1546   -8.6433  -11.3761 O   0  0  0  0  0  0  0  0  0  0  0  0
   16.8078   -6.7595  -10.0818 N   0  0  0  0  0  0  0  0  0  0  0  0
   15.7231   -7.4051   -9.4031 C   0  0  1  0  0  0  0  0  0  0  0  0
   15.0533   -6.5624   -8.3794 C   0  0  0  0  0  0  0  0  0  0  0  0
   13.8489   -7.1144   -7.7194 C   0  0  0  0  0  0  0  0  0  0  0  0
   13.2164   -6.2107   -6.6913 C   0  0  0  0  0  0  0  0  0  0  0  0
   11.9739   -6.8505   -6.0881 C   0  0  0  0  0  0  0  0  0  0  0  0
   11.5419   -5.9888   -5.0083 N   0  0  0  0  0  0  0  0  0  0  0  0
   14.8243   -8.0534  -10.3803 C   0  0  0  0  0  0  0  0  0  0  0  0
   14.4314   -7.3446  -11.5027 O   0  0  0  0  0  0  0  0  0  0  0  0
   14.3880   -9.2260  -10.2559 O   0  0  0  0  0  0  0  0  0  0  0  0
  1  2  1  0
  3  2  1  0
  4  3  1  0
  5  4  1  0
  5  1  1  0
  6  7  2  0
  5  6  1  6
  9  8  1  6
  9 10  1  0
  9 11  1  0
 11 12  1  6
 12  6  1  0
 13 15  1  0
 13 11  1  0
 14 13  2  0
 16 15  1  0
 16 22  1  0
 16 17  1  6
 17 18  1  0
 19 18  1  0
 20 21  1  0
 20 19  1  0
 22 23  1  0
 24 22  2  0
M  END
$$$$
