PTK.pdb
     RDKit          3D

 24 24  0  0  1  0  0  0  0  0999 V2000
   26.4647  -20.0257  -17.2751 N   0  0  0  0  0  0  0  0  0  0  0  0
   26.0480  -19.8689  -18.6550 C   0  0  0  0  0  0  0  0  0  0  0  0
   26.8799  -18.6797  -19.1159 C   0  0  0  0  0  0  0  0  0  0  0  0
   26.7387  -17.7575  -17.8982 C   0  0  0  0  0  0  0  0  0  0  0  0
   26.6546  -18.7166  -16.7308 C   0  0  1  0  0  0  0  0  0  0  0  0
   25.4941  -18.2960  -15.8744 C   0  0  0  0  0  0  0  0  0  0  0  0
   25.4137  -17.0896  -15.5346 O   0  0  0  0  0  0  0  0  0  0  0  0
   23.5196  -16.5275  -15.9865 C   0  0  0  0  0  0  0  0  0  0  0  0
   22.6424  -17.7121  -15.7487 C   0  0  1  0  0  0  0  0  0  0  0  0
   22.5284  -18.3921  -16.9850 O   0  0  0  0  0  0  0  0  0  0  0  0
   23.2599  -18.7457  -14.7992 C   0  0  2  0  0  0  0  0  0  0  0  0
   24.5089  -19.1977  -15.4474 N   0  0  0  0  0  0  0  0  0  0  0  0
   22.3774  -19.9044  -14.5654 C   0  0  0  0  0  0  0  0  0  0  0  0
   22.5710  -20.9286  -15.3077 O   0  0  0  0  0  0  0  0  0  0  0  0
   21.3478  -19.9710  -13.5956 N   0  0  0  0  0  0  0  0  0  0  0  0
   20.6393  -21.1996  -13.3884 C   0  0  1  0  0  0  0  0  0  0  0  0
   20.4688  -21.5747  -11.9612 C   0  0  0  0  0  0  0  0  0  0  0  0
   19.6546  -22.7738  -11.6610 C   0  0  0  0  0  0  0  0  0  0  0  0
   19.3791  -23.0052  -10.1967 C   0  0  0  0  0  0  0  0  0  0  0  0
   18.5099  -24.2376   -9.9897 C   0  0  0  0  0  0  0  0  0  0  0  0
   18.2989  -24.3659   -8.5634 N   0  0  0  0  0  0  0  0  0  0  0  0
   19.4069  -21.2207  -14.2032 C   0  0  0  0  0  0  0  0  0  0  0  0
   18.7965  -20.0209  -14.5265 O   0  0  0  0  0  0  0  0  0  0  0  0
   18.8699  -22.2747  -14.6289 O   0  0  0  0  0  0  0  0  0  0  0  0
  1  2  1  0
  3  2  1  0
  4  3  1  0
  5  4  1  0
  5  1  1  0
  6  7  2  0
  5  6  1  1
  9  8  1  6
  9 10  1  0
  9 11  1  0
 11 12  1  6
 12  6  1  0
 13 15  1  0
 13 11  1  0
 14 13  2  0
 16 15  1  0
 16 22  1  0
 16 17  1  1
 17 18  1  0
 19 18  1  0
 20 21  1  0
 20 19  1  0
 22 23  1  0
 24 22  2  0
M  END
$$$$
