PTK.pdb
     RDKit          3D

 24 24  0  0  1  0  0  0  0  0999 V2000
   24.0404  -15.2443  -16.5993 N   0  0  0  0  0  0  0  0  0  0  0  0
   25.2370  -15.5930  -17.3401 C   0  0  0  0  0  0  0  0  0  0  0  0
   25.9603  -16.5236  -16.3761 C   0  0  0  0  0  0  0  0  0  0  0  0
   25.7636  -15.7617  -15.0593 C   0  0  0  0  0  0  0  0  0  0  0  0
   24.4098  -15.1059  -15.2243 C   0  0  1  0  0  0  0  0  0  0  0  0
   24.5475  -13.6635  -14.8273 C   0  0  0  0  0  0  0  0  0  0  0  0
   24.9333  -13.4031  -13.6609 O   0  0  0  0  0  0  0  0  0  0  0  0
   26.9022  -11.3717  -15.9039 C   0  0  0  0  0  0  0  0  0  0  0  0
   25.6101  -10.6753  -16.1772 C   0  0  1  0  0  0  0  0  0  0  0  0
   25.2449  -10.9965  -17.5066 O   0  0  0  0  0  0  0  0  0  0  0  0
   24.4465  -11.1951  -15.3246 C   0  0  2  0  0  0  0  0  0  0  0  0
   24.2623  -12.6106  -15.7083 N   0  0  0  0  0  0  0  0  0  0  0  0
   23.1929  -10.4532  -15.5572 C   0  0  0  0  0  0  0  0  0  0  0  0
   22.3618  -10.9787  -16.3761 O   0  0  0  0  0  0  0  0  0  0  0  0
   22.8418   -9.2222  -14.9519 N   0  0  0  0  0  0  0  0  0  0  0  0
   21.5683   -8.6264  -15.2298 C   0  0  1  0  0  0  0  0  0  0  0  0
   20.4119   -9.5411  -15.0490 C   0  0  0  0  0  0  0  0  0  0  0  0
   19.0924   -9.0815  -15.5372 C   0  0  0  0  0  0  0  0  0  0  0  0
   17.9423  -10.0064  -15.2281 C   0  0  0  0  0  0  0  0  0  0  0  0
   16.6445   -9.4899  -15.8332 C   0  0  0  0  0  0  0  0  0  0  0  0
   15.6237  -10.4714  -15.5336 N   0  0  0  0  0  0  0  0  0  0  0  0
   21.4578   -7.3195  -14.5493 C   0  0  0  0  0  0  0  0  0  0  0  0
   20.4126   -6.4757  -14.8841 O   0  0  0  0  0  0  0  0  0  0  0  0
   22.2643   -6.9195  -13.6716 O   0  0  0  0  0  0  0  0  0  0  0  0
  1  2  1  0
  3  2  1  0
  4  3  1  0
  5  4  1  0
  5  1  1  0
  6  7  2  0
  5  6  1  6
  9  8  1  1
  9 10  1  0
  9 11  1  0
 11 12  1  6
 12  6  1  0
 13 15  1  0
 13 11  1  0
 14 13  2  0
 16 15  1  0
 16 22  1  0
 16 17  1  1
 17 18  1  0
 19 18  1  0
 20 21  1  0
 20 19  1  0
 22 23  1  0
 24 22  2  0
M  END
$$$$
