PTK.pdb
     RDKit          3D

 24 24  0  0  1  0  0  0  0  0999 V2000
   25.2845  -20.6620  -16.4286 N   0  0  0  0  0  0  0  0  0  0  0  0
   26.5233  -19.9937  -16.0809 C   0  0  0  0  0  0  0  0  0  0  0  0
   27.2893  -21.0846  -15.3449 C   0  0  0  0  0  0  0  0  0  0  0  0
   26.1684  -21.6685  -14.4756 C   0  0  0  0  0  0  0  0  0  0  0  0
   24.9320  -21.5131  -15.3342 C   0  0  1  0  0  0  0  0  0  0  0  0
   23.8547  -20.9058  -14.4813 C   0  0  0  0  0  0  0  0  0  0  0  0
   23.8812  -19.6655  -14.2854 O   0  0  0  0  0  0  0  0  0  0  0  0
   21.7937  -18.9376  -14.6094 C   0  0  0  0  0  0  0  0  0  0  0  0
   21.0008  -20.1566  -14.2708 C   0  0  1  0  0  0  0  0  0  0  0  0
   20.9565  -20.9541  -15.4395 O   0  0  0  0  0  0  0  0  0  0  0  0
   21.6758  -21.0501  -13.2234 C   0  0  2  0  0  0  0  0  0  0  0  0
   22.8318  -21.6713  -13.9036 N   0  0  0  0  0  0  0  0  0  0  0  0
   20.7803  -22.1038  -12.7100 C   0  0  0  0  0  0  0  0  0  0  0  0
   20.8032  -23.2241  -13.3280 O   0  0  0  0  0  0  0  0  0  0  0  0
   19.9100  -21.9742  -11.6005 N   0  0  0  0  0  0  0  0  0  0  0  0
   19.2014  -23.1195  -11.1102 C   0  0  1  0  0  0  0  0  0  0  0  0
   19.1477  -23.2183   -9.6290 C   0  0  0  0  0  0  0  0  0  0  0  0
   18.5270  -24.4287   -9.0455 C   0  0  0  0  0  0  0  0  0  0  0  0
   18.5729  -24.5044   -7.5402 C   0  0  0  0  0  0  0  0  0  0  0  0
   17.9555  -25.8014   -7.0367 C   0  0  0  0  0  0  0  0  0  0  0  0
   18.0917  -25.7977   -5.5956 N   0  0  0  0  0  0  0  0  0  0  0  0
   17.9034  -23.2509  -11.8038 C   0  0  0  0  0  0  0  0  0  0  0  0
   17.4703  -24.5102  -12.1827 O   0  0  0  0  0  0  0  0  0  0  0  0
   17.1554  -22.2774  -12.0749 O   0  0  0  0  0  0  0  0  0  0  0  0
  1  2  1  0
  3  2  1  0
  4  3  1  0
  5  4  1  0
  5  1  1  0
  6  7  2  0
  5  6  1  1
  9  8  1  6
  9 10  1  0
  9 11  1  0
 11 12  1  6
 12  6  1  0
 13 15  1  0
 13 11  1  0
 14 13  2  0
 16 15  1  0
 16 22  1  0
 16 17  1  1
 17 18  1  0
 19 18  1  0
 20 21  1  0
 20 19  1  0
 22 23  1  0
 24 22  2  0
M  END
$$$$
