PTK.pdb
     RDKit          3D

 24 24  0  0  1  0  0  0  0  0999 V2000
   28.1705  -21.6398  -12.7574 N   0  0  0  0  0  0  0  0  0  0  0  0
   29.3527  -21.5716  -13.5940 C   0  0  0  0  0  0  0  0  0  0  0  0
   30.2829  -20.6858  -12.7762 C   0  0  0  0  0  0  0  0  0  0  0  0
   29.2973  -19.6043  -12.3156 C   0  0  0  0  0  0  0  0  0  0  0  0
   27.9921  -20.3534  -12.1577 C   0  0  1  0  0  0  0  0  0  0  0  0
   26.9210  -19.5599  -12.8507 C   0  0  0  0  0  0  0  0  0  0  0  0
   26.7373  -18.3706  -12.4916 O   0  0  0  0  0  0  0  0  0  0  0  0
   26.7500  -18.1274  -15.9757 C   0  0  0  0  0  0  0  0  0  0  0  0
   25.5544  -19.0211  -15.9455 C   0  0  1  0  0  0  0  0  0  0  0  0
   25.9696  -20.2779  -16.4474 O   0  0  0  0  0  0  0  0  0  0  0  0
   25.0549  -19.3216  -14.5273 C   0  0  2  0  0  0  0  0  0  0  0  0
   26.1291  -20.0992  -13.8745 N   0  0  0  0  0  0  0  0  0  0  0  0
   23.8036  -20.1027  -14.5168 C   0  0  0  0  0  0  0  0  0  0  0  0
   23.9084  -21.3453  -14.2297 O   0  0  0  0  0  0  0  0  0  0  0  0
   22.5128  -19.5909  -14.7943 N   0  0  0  0  0  0  0  0  0  0  0  0
   21.3522  -20.3740  -14.4878 C   0  0  1  0  0  0  0  0  0  0  0  0
   21.2852  -20.8445  -13.0805 C   0  0  0  0  0  0  0  0  0  0  0  0
   20.1013  -21.6370  -12.6790 C   0  0  0  0  0  0  0  0  0  0  0  0
   20.0845  -22.0679  -11.2341 C   0  0  0  0  0  0  0  0  0  0  0  0
   18.8397  -22.8857  -10.9196 C   0  0  0  0  0  0  0  0  0  0  0  0
   18.8461  -23.1250   -9.4920 N   0  0  0  0  0  0  0  0  0  0  0  0
   20.1366  -19.7025  -14.9925 C   0  0  0  0  0  0  0  0  0  0  0  0
   19.2039  -20.4449  -15.6965 O   0  0  0  0  0  0  0  0  0  0  0  0
   19.8913  -18.4816  -14.8196 O   0  0  0  0  0  0  0  0  0  0  0  0
  1  2  1  0
  3  2  1  0
  4  3  1  0
  5  4  1  0
  5  1  1  0
  6  7  2  0
  5  6  1  6
  9  8  1  1
  9 10  1  0
  9 11  1  0
 11 12  1  1
 12  6  1  0
 13 15  1  0
 13 11  1  0
 14 13  2  0
 16 15  1  0
 16 22  1  0
 16 17  1  1
 17 18  1  0
 19 18  1  0
 20 21  1  0
 20 19  1  0
 22 23  1  0
 24 22  2  0
M  END
$$$$
