PTK.pdb
     RDKit          3D

 24 24  0  0  1  0  0  0  0  0999 V2000
   25.0879  -12.7108  -15.8272 N   0  0  0  0  0  0  0  0  0  0  0  0
   24.5133  -13.9747  -15.4090 C   0  0  0  0  0  0  0  0  0  0  0  0
   24.6034  -14.8120  -16.6776 C   0  0  0  0  0  0  0  0  0  0  0  0
   24.1491  -13.7817  -17.7193 C   0  0  0  0  0  0  0  0  0  0  0  0
   24.6633  -12.4682  -17.1715 C   0  0  1  0  0  0  0  0  0  0  0  0
   23.5375  -11.4751  -17.2289 C   0  0  0  0  0  0  0  0  0  0  0  0
   23.0530  -11.1914  -18.3524 O   0  0  0  0  0  0  0  0  0  0  0  0
   20.1711  -11.7558  -15.8110 C   0  0  0  0  0  0  0  0  0  0  0  0
   20.7871  -10.5181  -15.2473 C   0  0  1  0  0  0  0  0  0  0  0  0
   21.4683  -10.9006  -14.0669 O   0  0  0  0  0  0  0  0  0  0  0  0
   21.8789   -9.9198  -16.1423 C   0  0  2  0  0  0  0  0  0  0  0  0
   23.0162  -10.8620  -16.0807 N   0  0  0  0  0  0  0  0  0  0  0  0
   22.3181   -8.5856  -15.6920 C   0  0  0  0  0  0  0  0  0  0  0  0
   23.3545   -8.5482  -14.9424 O   0  0  0  0  0  0  0  0  0  0  0  0
   21.6914   -7.3593  -16.0217 N   0  0  0  0  0  0  0  0  0  0  0  0
   22.2427   -6.1244  -15.5469 C   0  0  1  0  0  0  0  0  0  0  0  0
   22.3525   -5.0649  -16.5823 C   0  0  0  0  0  0  0  0  0  0  0  0
   22.9263   -3.7636  -16.1722 C   0  0  0  0  0  0  0  0  0  0  0  0
   23.0597   -2.7497  -17.2803 C   0  0  0  0  0  0  0  0  0  0  0  0
   23.8054   -1.5110  -16.8042 C   0  0  0  0  0  0  0  0  0  0  0  0
   24.0675   -0.7040  -17.9769 N   0  0  0  0  0  0  0  0  0  0  0  0
   21.5787   -5.7196  -14.2906 C   0  0  0  0  0  0  0  0  0  0  0  0
   22.3094   -5.0296  -13.3384 O   0  0  0  0  0  0  0  0  0  0  0  0
   20.3738   -5.9646  -14.0279 O   0  0  0  0  0  0  0  0  0  0  0  0
  1  2  1  0
  3  2  1  0
  4  3  1  0
  5  4  1  0
  5  1  1  0
  6  7  2  0
  5  6  1  1
  9  8  1  6
  9 10  1  0
  9 11  1  0
 11 12  1  1
 12  6  1  0
 13 15  1  0
 13 11  1  0
 14 13  2  0
 16 15  1  0
 16 22  1  0
 16 17  1  6
 17 18  1  0
 19 18  1  0
 20 21  1  0
 20 19  1  0
 22 23  1  0
 24 22  2  0
M  END
$$$$
