PTK.pdb
     RDKit          3D

 24 24  0  0  1  0  0  0  0  0999 V2000
   26.8301  -10.8368  -17.2093 N   0  0  0  0  0  0  0  0  0  0  0  0
   27.7741  -11.3094  -16.2154 C   0  0  0  0  0  0  0  0  0  0  0  0
   27.8715  -12.7949  -16.5355 C   0  0  0  0  0  0  0  0  0  0  0  0
   26.3916  -13.1224  -16.7715 C   0  0  0  0  0  0  0  0  0  0  0  0
   25.8358  -11.8515  -17.3762 C   0  0  1  0  0  0  0  0  0  0  0  0
   24.5670  -11.5130  -16.6464 C   0  0  0  0  0  0  0  0  0  0  0  0
   23.6184  -12.3346  -16.6927 O   0  0  0  0  0  0  0  0  0  0  0  0
   23.5522  -11.5195  -13.3426 C   0  0  0  0  0  0  0  0  0  0  0  0
   23.3524  -10.1045  -13.7748 C   0  0  1  0  0  0  0  0  0  0  0  0
   24.5699   -9.4254  -13.5292 O   0  0  0  0  0  0  0  0  0  0  0  0
   23.1289   -9.9550  -15.2844 C   0  0  2  0  0  0  0  0  0  0  0  0
   24.4104  -10.3220  -15.9231 N   0  0  0  0  0  0  0  0  0  0  0  0
   22.7591   -8.5810  -15.6731 C   0  0  0  0  0  0  0  0  0  0  0  0
   23.7051   -7.8354  -16.1051 O   0  0  0  0  0  0  0  0  0  0  0  0
   21.4560   -8.0308  -15.6077 N   0  0  0  0  0  0  0  0  0  0  0  0
   21.2289   -6.6790  -16.0264 C   0  0  1  0  0  0  0  0  0  0  0  0
   19.9112   -6.4517  -16.6735 C   0  0  0  0  0  0  0  0  0  0  0  0
   19.5689   -5.0649  -17.0614 C   0  0  0  0  0  0  0  0  0  0  0  0
   18.2119   -4.8989  -17.6974 C   0  0  0  0  0  0  0  0  0  0  0  0
   18.0097   -3.4749  -18.1959 C   0  0  0  0  0  0  0  0  0  0  0  0
   16.7681   -3.4644  -18.9397 N   0  0  0  0  0  0  0  0  0  0  0  0
   21.5714   -5.7433  -14.9355 C   0  0  0  0  0  0  0  0  0  0  0  0
   22.1420   -4.5227  -15.2537 O   0  0  0  0  0  0  0  0  0  0  0  0
   21.3737   -5.9884  -13.7183 O   0  0  0  0  0  0  0  0  0  0  0  0
  1  2  1  0
  3  2  1  0
  4  3  1  0
  5  4  1  0
  5  1  1  0
  6  7  2  0
  5  6  1  1
  9  8  1  6
  9 10  1  0
  9 11  1  0
 11 12  1  6
 12  6  1  0
 13 15  1  0
 13 11  1  0
 14 13  2  0
 16 15  1  0
 16 22  1  0
 16 17  1  1
 17 18  1  0
 19 18  1  0
 20 21  1  0
 20 19  1  0
 22 23  1  0
 24 22  2  0
M  END
$$$$
