PTK.pdb
     RDKit          3D

 24 24  0  0  1  0  0  0  0  0999 V2000
   35.0325  -23.5649  -18.9755 N   0  0  0  0  0  0  0  0  0  0  0  0
   35.9998  -24.5966  -18.6555 C   0  0  0  0  0  0  0  0  0  0  0  0
   35.7846  -25.6066  -19.7745 C   0  0  0  0  0  0  0  0  0  0  0  0
   34.2519  -25.6302  -19.8320 C   0  0  0  0  0  0  0  0  0  0  0  0
   33.8585  -24.2141  -19.4721 C   0  0  1  0  0  0  0  0  0  0  0  0
   32.7801  -24.2887  -18.4287 C   0  0  0  0  0  0  0  0  0  0  0  0
   33.1242  -24.4130  -17.2273 O   0  0  0  0  0  0  0  0  0  0  0  0
   30.1976  -21.7672  -17.6604 C   0  0  0  0  0  0  0  0  0  0  0  0
   29.4852  -23.0515  -17.9290 C   0  0  1  0  0  0  0  0  0  0  0  0
   29.1792  -23.0690  -19.3110 O   0  0  0  0  0  0  0  0  0  0  0  0
   30.3630  -24.2905  -17.7160 C   0  0  2  0  0  0  0  0  0  0  0  0
   31.4169  -24.2245  -18.7503 N   0  0  0  0  0  0  0  0  0  0  0  0
   29.6123  -25.5525  -17.8558 C   0  0  0  0  0  0  0  0  0  0  0  0
   29.5542  -26.0554  -19.0310 O   0  0  0  0  0  0  0  0  0  0  0  0
   28.9609  -26.2423  -16.8045 N   0  0  0  0  0  0  0  0  0  0  0  0
   28.2709  -27.4692  -17.0741 C   0  0  1  0  0  0  0  0  0  0  0  0
   28.6634  -28.5987  -16.1927 C   0  0  0  0  0  0  0  0  0  0  0  0
   27.9882  -29.8988  -16.4040 C   0  0  0  0  0  0  0  0  0  0  0  0
   28.4005  -30.9920  -15.4509 C   0  0  0  0  0  0  0  0  0  0  0  0
   27.7277  -32.3110  -15.8041 C   0  0  0  0  0  0  0  0  0  0  0  0
   28.1620  -33.2790  -14.8195 N   0  0  0  0  0  0  0  0  0  0  0  0
   26.8181  -27.2232  -17.1838 C   0  0  0  0  0  0  0  0  0  0  0  0
   26.2283  -26.3016  -16.3355 O   0  0  0  0  0  0  0  0  0  0  0  0
   26.0724  -27.8056  -18.0117 O   0  0  0  0  0  0  0  0  0  0  0  0
  1  2  1  0
  3  2  1  0
  4  3  1  0
  5  4  1  0
  5  1  1  0
  6  7  2  0
  5  6  1  1
  9  8  1  6
  9 10  1  0
  9 11  1  0
 11 12  1  6
 12  6  1  0
 13 15  1  0
 13 11  1  0
 14 13  2  0
 16 15  1  0
 16 22  1  0
 16 17  1  1
 17 18  1  0
 19 18  1  0
 20 21  1  0
 20 19  1  0
 22 23  1  0
 24 22  2  0
M  END
$$$$
