PTK.pdb
     RDKit          3D

 24 24  0  0  1  0  0  0  0  0999 V2000
   25.7438  -13.0947  -18.7243 N   0  0  0  0  0  0  0  0  0  0  0  0
   27.1482  -13.4035  -18.9103 C   0  0  0  0  0  0  0  0  0  0  0  0
   27.3353  -14.6275  -18.0242 C   0  0  0  0  0  0  0  0  0  0  0  0
   26.5438  -14.1924  -16.7844 C   0  0  0  0  0  0  0  0  0  0  0  0
   25.4253  -13.3464  -17.3527 C   0  0  1  0  0  0  0  0  0  0  0  0
   25.3602  -12.0755  -16.5540 C   0  0  0  0  0  0  0  0  0  0  0  0
   25.2433  -12.1637  -15.3067 O   0  0  0  0  0  0  0  0  0  0  0  0
   27.8481   -9.5055  -16.1945 C   0  0  0  0  0  0  0  0  0  0  0  0
   26.6170   -8.7846  -16.6347 C   0  0  1  0  0  0  0  0  0  0  0  0
   26.6798   -8.6905  -18.0457 O   0  0  0  0  0  0  0  0  0  0  0  0
   25.3249   -9.5633  -16.3604 C   0  0  2  0  0  0  0  0  0  0  0  0
   25.4254  -10.8083  -17.1506 N   0  0  0  0  0  0  0  0  0  0  0  0
   24.1152   -8.8203  -16.7610 C   0  0  0  0  0  0  0  0  0  0  0  0
   23.5205   -9.2252  -17.8192 O   0  0  0  0  0  0  0  0  0  0  0  0
   23.5673   -7.7100  -16.0739 N   0  0  0  0  0  0  0  0  0  0  0  0
   22.2833   -7.1976  -16.4524 C   0  0  1  0  0  0  0  0  0  0  0  0
   21.1926   -8.2059  -16.4353 C   0  0  0  0  0  0  0  0  0  0  0  0
   19.8077   -7.7198  -16.6270 C   0  0  0  0  0  0  0  0  0  0  0  0
   18.7364   -8.7664  -16.4525 C   0  0  0  0  0  0  0  0  0  0  0  0
   17.3672   -8.2188  -16.8302 C   0  0  0  0  0  0  0  0  0  0  0  0
   16.3944   -9.2141  -16.4324 N   0  0  0  0  0  0  0  0  0  0  0  0
   22.0010   -5.9429  -15.7251 C   0  0  0  0  0  0  0  0  0  0  0  0
   20.8749   -5.2114  -16.0625 O   0  0  0  0  0  0  0  0  0  0  0  0
   22.7285   -5.4910  -14.8048 O   0  0  0  0  0  0  0  0  0  0  0  0
  1  2  1  0
  3  2  1  0
  4  3  1  0
  5  4  1  0
  5  1  1  0
  6  7  2  0
  5  6  1  1
  9  8  1  6
  9 10  1  0
  9 11  1  0
 11 12  1  6
 12  6  1  0
 13 15  1  0
 13 11  1  0
 14 13  2  0
 16 15  1  0
 16 22  1  0
 16 17  1  1
 17 18  1  0
 19 18  1  0
 20 21  1  0
 20 19  1  0
 22 23  1  0
 24 22  2  0
M  END
$$$$
