IWG.pdb
     RDKit          3D

 27 28  0  0  1  0  0  0  0  0999 V2000
   27.3218  -18.9066  -14.5832 C   0  0  0  0  0  0  0  0  0  0  0  0
   27.9435  -18.9030  -13.1876 C   0  0  0  0  0  0  0  0  0  0  0  0
   27.4948  -20.0998  -12.3953 C   0  0  2  0  0  0  0  0  0  0  0  0
   27.7717  -21.3459  -13.2191 C   0  0  0  0  0  0  0  0  0  0  0  0
   26.0534  -20.0419  -12.0038 C   0  0  2  0  0  0  0  0  0  0  0  0
   25.7270  -18.6719  -11.6411 N   0  0  0  0  0  0  0  0  0  0  0  0
   25.7992  -20.9029  -10.8480 C   0  0  0  0  0  0  0  0  0  0  0  0
   25.9666  -22.1462  -10.9419 O   0  0  0  0  0  0  0  0  0  0  0  0
   25.3538  -20.4308   -9.5595 N   0  0  0  0  0  0  0  0  0  0  0  0
   24.9734  -21.3212   -8.5195 C   0  0  1  0  0  0  0  0  0  0  0  0
   25.7867  -21.3417   -7.2886 C   0  0  0  0  0  0  0  0  0  0  0  0
   26.6797  -20.2025   -7.0673 C   0  0  0  0  0  0  0  0  0  0  0  0
   26.8173  -19.0522   -7.7977 C   0  0  0  0  0  0  0  0  0  0  0  0
   27.7531  -18.2545   -7.2300 N   0  0  0  0  0  0  0  0  0  0  0  0
   28.2335  -18.8820   -6.1210 C   0  0  0  0  0  0  0  0  0  0  0  0
   29.1865  -18.5012   -5.1968 C   0  0  0  0  0  0  0  0  0  0  0  0
   29.5028  -19.3216   -4.1396 C   0  0  0  0  0  0  0  0  0  0  0  0
   28.8500  -20.5274   -4.0237 C   0  0  0  0  0  0  0  0  0  0  0  0
   27.9041  -20.8960   -4.9490 C   0  0  0  0  0  0  0  0  0  0  0  0
   27.5753  -20.0724   -6.0247 C   0  0  0  0  0  0  0  0  0  0  0  0
   23.5171  -21.1822   -8.1624 C   0  0  0  0  0  0  0  0  0  0  0  0
   22.9516  -20.1286   -8.5463 O   0  0  0  0  0  0  0  0  0  0  0  0
   22.8200  -22.1611   -7.4446 N   0  0  0  0  0  0  0  0  0  0  0  0
   21.4689  -21.9662   -6.9897 C   0  0  0  0  0  0  0  0  0  0  0  0
   20.4695  -22.4089   -7.9729 C   0  0  0  0  0  0  0  0  0  0  0  0
   19.1156  -22.4615   -7.7028 O   0  0  0  0  0  0  0  0  0  0  0  0
   20.8606  -22.7569   -9.1150 O   0  0  0  0  0  0  0  0  0  0  0  0
  1  2  1  0
  3  2  1  0
  3  4  1  6
  5  3  1  0
  5  6  1  1
  7  5  1  0
  7  8  2  0
  9  7  1  0
 10 21  1  0
 10  9  1  0
 10 11  1  1
 12 13  2  0
 12 11  1  0
 14 13  1  0
 15 20  2  0
 15 14  1  0
 16 15  1  0
 17 18  1  0
 17 16  2  0
 18 19  2  0
 19 20  1  0
 20 12  1  0
 21 23  1  0
 22 21  2  0
 23 24  1  0
 24 25  1  0
 25 27  2  0
 25 26  1  0
M  END
$$$$
