IWG.pdb
     RDKit          3D

 27 28  0  0  1  0  0  0  0  0999 V2000
   30.0521  -18.9654  -16.8244 C   0  0  0  0  0  0  0  0  0  0  0  0
   28.7892  -18.3628  -16.2110 C   0  0  0  0  0  0  0  0  0  0  0  0
   28.0597  -19.3777  -15.3748 C   0  0  2  0  0  0  0  0  0  0  0  0
   27.8179  -20.6110  -16.2284 C   0  0  0  0  0  0  0  0  0  0  0  0
   26.7701  -18.8667  -14.8180 C   0  0  2  0  0  0  0  0  0  0  0  0
   27.0491  -17.6912  -14.0084 N   0  0  0  0  0  0  0  0  0  0  0  0
   26.1396  -19.8781  -13.9688 C   0  0  0  0  0  0  0  0  0  0  0  0
   25.8478  -21.0052  -14.4453 O   0  0  0  0  0  0  0  0  0  0  0  0
   25.8089  -19.6864  -12.5775 N   0  0  0  0  0  0  0  0  0  0  0  0
   25.0426  -20.6337  -11.8463 C   0  0  1  0  0  0  0  0  0  0  0  0
   25.2797  -20.7487  -10.3945 C   0  0  0  0  0  0  0  0  0  0  0  0
   26.6741  -20.8467   -9.9581 C   0  0  0  0  0  0  0  0  0  0  0  0
   27.7577  -21.3579  -10.6213 C   0  0  0  0  0  0  0  0  0  0  0  0
   28.8671  -21.2377   -9.8538 N   0  0  0  0  0  0  0  0  0  0  0  0
   28.5125  -20.6447   -8.6804 C   0  0  0  0  0  0  0  0  0  0  0  0
   29.2580  -20.2963   -7.5712 C   0  0  0  0  0  0  0  0  0  0  0  0
   28.6619  -19.6921   -6.4893 C   0  0  0  0  0  0  0  0  0  0  0  0
   27.3093  -19.4432   -6.5367 C   0  0  0  0  0  0  0  0  0  0  0  0
   26.5777  -19.7944   -7.6450 C   0  0  0  0  0  0  0  0  0  0  0  0
   27.1713  -20.4072   -8.7475 C   0  0  0  0  0  0  0  0  0  0  0  0
   23.5670  -20.4888  -12.1089 C   0  0  0  0  0  0  0  0  0  0  0  0
   23.0282  -19.4407  -11.6749 O   0  0  0  0  0  0  0  0  0  0  0  0
   22.8246  -21.4572  -12.7950 N   0  0  0  0  0  0  0  0  0  0  0  0
   21.4361  -21.2726  -13.1238 C   0  0  0  0  0  0  0  0  0  0  0  0
   20.5355  -21.6885  -12.0388 C   0  0  0  0  0  0  0  0  0  0  0  0
   19.2984  -22.2620  -12.2615 O   0  0  0  0  0  0  0  0  0  0  0  0
   20.9042  -21.5163  -10.8501 O   0  0  0  0  0  0  0  0  0  0  0  0
  1  2  1  0
  3  2  1  0
  3  4  1  6
  5  3  1  0
  5  6  1  1
  7  5  1  0
  7  8  2  0
  9  7  1  0
 10 21  1  0
 10  9  1  0
 10 11  1  1
 12 13  2  0
 12 11  1  0
 14 13  1  0
 15 20  2  0
 15 14  1  0
 16 15  1  0
 17 18  1  0
 17 16  2  0
 18 19  2  0
 19 20  1  0
 20 12  1  0
 21 23  1  0
 22 21  2  0
 23 24  1  0
 24 25  1  0
 25 27  2  0
 25 26  1  0
M  END
$$$$
