IWG.pdb
     RDKit          3D

 27 28  0  0  1  0  0  0  0  0999 V2000
   15.8155  -20.2003    1.4640 C   0  0  0  0  0  0  0  0  0  0  0  0
   15.5991  -20.1395    2.9753 C   0  0  0  0  0  0  0  0  0  0  0  0
   16.8506  -19.6953    3.6808 C   0  0  2  0  0  0  0  0  0  0  0  0
   17.9834  -20.6182    3.2649 C   0  0  0  0  0  0  0  0  0  0  0  0
   16.7134  -19.6743    5.1691 C   0  0  2  0  0  0  0  0  0  0  0  0
   15.4889  -18.9681    5.5111 N   0  0  0  0  0  0  0  0  0  0  0  0
   17.8425  -18.9718    5.7801 C   0  0  0  0  0  0  0  0  0  0  0  0
   19.0204  -19.2867    5.4704 O   0  0  0  0  0  0  0  0  0  0  0  0
   17.7168  -17.9080    6.7467 N   0  0  0  0  0  0  0  0  0  0  0  0
   18.8502  -17.2626    7.3106 C   0  0  1  0  0  0  0  0  0  0  0  0
   18.7122  -15.8549    7.7306 C   0  0  0  0  0  0  0  0  0  0  0  0
   18.4987  -14.8669    6.6711 C   0  0  0  0  0  0  0  0  0  0  0  0
   17.4807  -14.7774    5.7594 C   0  0  0  0  0  0  0  0  0  0  0  0
   17.6667  -13.6963    4.9650 N   0  0  0  0  0  0  0  0  0  0  0  0
   18.8118  -13.0713    5.3553 C   0  0  0  0  0  0  0  0  0  0  0  0
   19.4403  -11.9366    4.8812 C   0  0  0  0  0  0  0  0  0  0  0  0
   20.6087  -11.4927    5.4544 C   0  0  0  0  0  0  0  0  0  0  0  0
   21.1362  -12.2030    6.5084 C   0  0  0  0  0  0  0  0  0  0  0  0
   20.5027  -13.3304    6.9715 C   0  0  0  0  0  0  0  0  0  0  0  0
   19.3178  -13.7896    6.3982 C   0  0  0  0  0  0  0  0  0  0  0  0
   19.4596  -18.0674    8.4280 C   0  0  0  0  0  0  0  0  0  0  0  0
   18.7733  -18.1687    9.4748 O   0  0  0  0  0  0  0  0  0  0  0  0
   20.7171  -18.6733    8.3219 N   0  0  0  0  0  0  0  0  0  0  0  0
   21.5621  -18.8982    9.4645 C   0  0  0  0  0  0  0  0  0  0  0  0
   21.0781  -19.9894   10.3226 C   0  0  0  0  0  0  0  0  0  0  0  0
   21.7976  -20.4849   11.3929 O   0  0  0  0  0  0  0  0  0  0  0  0
   19.9567  -20.4988   10.0748 O   0  0  0  0  0  0  0  0  0  0  0  0
  1  2  1  0
  3  2  1  0
  3  4  1  1
  5  3  1  0
  5  6  1  6
  7  5  1  0
  7  8  2  0
  9  7  1  0
 10 21  1  0
 10  9  1  0
 10 11  1  1
 12 13  2  0
 12 11  1  0
 14 13  1  0
 15 20  2  0
 15 14  1  0
 16 15  1  0
 17 18  1  0
 17 16  2  0
 18 19  2  0
 19 20  1  0
 20 12  1  0
 21 23  1  0
 22 21  2  0
 23 24  1  0
 24 25  1  0
 25 27  2  0
 25 26  1  0
M  END
$$$$
