IWG.pdb
     RDKit          3D

 27 28  0  0  1  0  0  0  0  0999 V2000
   25.9062  -20.5820  -17.7799 C   0  0  0  0  0  0  0  0  0  0  0  0
   26.9981  -20.5688  -16.7113 C   0  0  0  0  0  0  0  0  0  0  0  0
   26.5113  -21.2004  -15.4363 C   0  0  2  0  0  0  0  0  0  0  0  0
   26.2989  -22.6829  -15.6915 C   0  0  0  0  0  0  0  0  0  0  0  0
   25.2595  -20.5764  -14.9090 C   0  0  2  0  0  0  0  0  0  0  0  0
   25.4669  -19.1408  -14.8037 N   0  0  0  0  0  0  0  0  0  0  0  0
   24.9441  -21.1002  -13.5794 C   0  0  0  0  0  0  0  0  0  0  0  0
   24.7346  -22.3306  -13.4224 O   0  0  0  0  0  0  0  0  0  0  0  0
   24.8471  -20.2954  -12.3858 N   0  0  0  0  0  0  0  0  0  0  0  0
   24.3408  -20.8151  -11.1641 C   0  0  1  0  0  0  0  0  0  0  0  0
   24.9466  -20.3449   -9.9035 C   0  0  0  0  0  0  0  0  0  0  0  0
   26.3330  -20.7410   -9.6484 C   0  0  0  0  0  0  0  0  0  0  0  0
   27.2045  -21.4217  -10.4563 C   0  0  0  0  0  0  0  0  0  0  0  0
   28.3972  -21.5651   -9.8309 N   0  0  0  0  0  0  0  0  0  0  0  0
   28.3109  -20.9762   -8.6061 C   0  0  0  0  0  0  0  0  0  0  0  0
   29.2364  -20.8420   -7.5898 C   0  0  0  0  0  0  0  0  0  0  0  0
   28.9069  -20.1893   -6.4253 C   0  0  0  0  0  0  0  0  0  0  0  0
   27.6374  -19.6744   -6.2957 C   0  0  0  0  0  0  0  0  0  0  0  0
   26.7248  -19.8141   -7.3129 C   0  0  0  0  0  0  0  0  0  0  0  0
   27.0478  -20.4736   -8.4979 C   0  0  0  0  0  0  0  0  0  0  0  0
   22.8418  -20.6992  -11.0800 C   0  0  0  0  0  0  0  0  0  0  0  0
   22.3486  -19.6104  -11.4654 O   0  0  0  0  0  0  0  0  0  0  0  0
   22.0310  -21.7356  -10.6022 N   0  0  0  0  0  0  0  0  0  0  0  0
   20.6124  -21.5810  -10.4188 C   0  0  0  0  0  0  0  0  0  0  0  0
   19.8508  -21.8213  -11.6532 C   0  0  0  0  0  0  0  0  0  0  0  0
   18.7981  -22.7127  -11.7302 O   0  0  0  0  0  0  0  0  0  0  0  0
   20.1688  -21.1877  -12.6905 O   0  0  0  0  0  0  0  0  0  0  0  0
  1  2  1  0
  3  2  1  0
  3  4  1  6
  5  3  1  0
  5  6  1  1
  7  5  1  0
  7  8  2  0
  9  7  1  0
 10 21  1  0
 10  9  1  0
 10 11  1  1
 12 13  2  0
 12 11  1  0
 14 13  1  0
 15 20  2  0
 15 14  1  0
 16 15  1  0
 17 18  1  0
 17 16  2  0
 18 19  2  0
 19 20  1  0
 20 12  1  0
 21 23  1  0
 22 21  2  0
 23 24  1  0
 24 25  1  0
 25 27  2  0
 25 26  1  0
M  END
$$$$
