IWG.pdb
     RDKit          3D

 27 28  0  0  1  0  0  0  0  0999 V2000
   28.4666  -18.6051  -19.5564 C   0  0  0  0  0  0  0  0  0  0  0  0
   27.0059  -19.0107  -19.3660 C   0  0  0  0  0  0  0  0  0  0  0  0
   26.8209  -19.7690  -18.0806 C   0  0  2  0  0  0  0  0  0  0  0  0
   27.7417  -20.9771  -18.1050 C   0  0  0  0  0  0  0  0  0  0  0  0
   25.4075  -20.1940  -17.8441 C   0  0  2  0  0  0  0  0  0  0  0  0
   24.5377  -19.0484  -18.0587 N   0  0  0  0  0  0  0  0  0  0  0  0
   25.2336  -20.6595  -16.4676 C   0  0  0  0  0  0  0  0  0  0  0  0
   25.7107  -21.7687  -16.1146 O   0  0  0  0  0  0  0  0  0  0  0  0
   24.5331  -19.9283  -15.4400 N   0  0  0  0  0  0  0  0  0  0  0  0
   24.3995  -20.4272  -14.1162 C   0  0  1  0  0  0  0  0  0  0  0  0
   25.1088  -19.7216  -13.0317 C   0  0  0  0  0  0  0  0  0  0  0  0
   26.5723  -19.7485  -13.0720 C   0  0  0  0  0  0  0  0  0  0  0  0
   27.4267  -19.1815  -13.9798 C   0  0  0  0  0  0  0  0  0  0  0  0
   28.7093  -19.4413  -13.6309 N   0  0  0  0  0  0  0  0  0  0  0  0
   28.6995  -20.1823  -12.4885 C   0  0  0  0  0  0  0  0  0  0  0  0
   29.7286  -20.6998  -11.7265 C   0  0  0  0  0  0  0  0  0  0  0  0
   29.4607  -21.4262  -10.5901 C   0  0  0  0  0  0  0  0  0  0  0  0
   28.1476  -21.6254  -10.2303 C   0  0  0  0  0  0  0  0  0  0  0  0
   27.1320  -21.1063  -10.9959 C   0  0  0  0  0  0  0  0  0  0  0  0
   27.3917  -20.3683  -12.1498 C   0  0  0  0  0  0  0  0  0  0  0  0
   22.9575  -20.6280  -13.7318 C   0  0  0  0  0  0  0  0  0  0  0  0
   22.1578  -19.7309  -14.0963 O   0  0  0  0  0  0  0  0  0  0  0  0
   22.5180  -21.7441  -13.0102 N   0  0  0  0  0  0  0  0  0  0  0  0
   21.1222  -22.0326  -12.8132 C   0  0  0  0  0  0  0  0  0  0  0  0
   20.6079  -21.5066  -11.5403 C   0  0  0  0  0  0  0  0  0  0  0  0
   19.3355  -21.7721  -11.0720 O   0  0  0  0  0  0  0  0  0  0  0  0
   21.3579  -20.7805  -10.8412 O   0  0  0  0  0  0  0  0  0  0  0  0
  1  2  1  0
  3  2  1  0
  3  4  1  6
  5  3  1  0
  5  6  1  1
  7  5  1  0
  7  8  2  0
  9  7  1  0
 10 21  1  0
 10  9  1  0
 10 11  1  1
 12 13  2  0
 12 11  1  0
 14 13  1  0
 15 20  2  0
 15 14  1  0
 16 15  1  0
 17 18  1  0
 17 16  2  0
 18 19  2  0
 19 20  1  0
 20 12  1  0
 21 23  1  0
 22 21  2  0
 23 24  1  0
 24 25  1  0
 25 27  2  0
 25 26  1  0
M  END
$$$$
