IWG.pdb
     RDKit          3D

 27 28  0  0  1  0  0  0  0  0999 V2000
   32.3556  -14.9817  -18.3431 C   0  0  0  0  0  0  0  0  0  0  0  0
   31.3521  -14.1937  -19.1836 C   0  0  0  0  0  0  0  0  0  0  0  0
   31.1651  -12.8053  -18.6371 C   0  0  2  0  0  0  0  0  0  0  0  0
   30.8950  -12.9140  -17.1461 C   0  0  0  0  0  0  0  0  0  0  0  0
   30.0680  -12.0477  -19.3129 C   0  0  2  0  0  0  0  0  0  0  0  0
   30.2364  -12.1744  -20.7519 N   0  0  0  0  0  0  0  0  0  0  0  0
   30.1292  -10.6288  -18.9599 C   0  0  0  0  0  0  0  0  0  0  0  0
   29.8436  -10.2591  -17.7918 O   0  0  0  0  0  0  0  0  0  0  0  0
   30.5019   -9.5750  -19.8722 N   0  0  0  0  0  0  0  0  0  0  0  0
   30.4919   -8.2066  -19.4894 C   0  0  1  0  0  0  0  0  0  0  0  0
   31.7840   -7.5001  -19.3978 C   0  0  0  0  0  0  0  0  0  0  0  0
   32.7055   -7.9408  -18.3486 C   0  0  0  0  0  0  0  0  0  0  0  0
   33.6055   -8.9730  -18.3606 C   0  0  0  0  0  0  0  0  0  0  0  0
   34.2686   -9.0205  -17.1807 N   0  0  0  0  0  0  0  0  0  0  0  0
   33.8035   -8.0153  -16.3884 C   0  0  0  0  0  0  0  0  0  0  0  0
   34.1447   -7.6301  -15.1069 C   0  0  0  0  0  0  0  0  0  0  0  0
   33.5234   -6.5585  -14.5097 C   0  0  0  0  0  0  0  0  0  0  0  0
   32.5565   -5.8806  -15.2161 C   0  0  0  0  0  0  0  0  0  0  0  0
   32.2249   -6.2729  -16.4901 C   0  0  0  0  0  0  0  0  0  0  0  0
   32.8481   -7.3575  -17.1055 C   0  0  0  0  0  0  0  0  0  0  0  0
   29.5290   -7.3966  -20.3165 C   0  0  0  0  0  0  0  0  0  0  0  0
   29.6613   -7.4830  -21.5624 O   0  0  0  0  0  0  0  0  0  0  0  0
   28.5385   -6.5890  -19.7451 N   0  0  0  0  0  0  0  0  0  0  0  0
   27.6483   -5.7846  -20.5392 C   0  0  0  0  0  0  0  0  0  0  0  0
   26.8454   -4.8574  -19.7286 C   0  0  0  0  0  0  0  0  0  0  0  0
   26.1089   -3.8223  -20.2715 O   0  0  0  0  0  0  0  0  0  0  0  0
   26.8247   -5.0098  -18.4816 O   0  0  0  0  0  0  0  0  0  0  0  0
  1  2  1  0
  3  2  1  0
  3  4  1  1
  5  3  1  0
  5  6  1  6
  7  5  1  0
  7  8  2  0
  9  7  1  0
 10 21  1  0
 10  9  1  0
 10 11  1  6
 12 13  2  0
 12 11  1  0
 14 13  1  0
 15 20  2  0
 15 14  1  0
 16 15  1  0
 17 18  1  0
 17 16  2  0
 18 19  2  0
 19 20  1  0
 20 12  1  0
 21 23  1  0
 22 21  2  0
 23 24  1  0
 24 25  1  0
 25 27  2  0
 25 26  1  0
M  END
$$$$
