IWG.pdb
     RDKit          3D

 27 28  0  0  1  0  0  0  0  0999 V2000
   29.8450  -21.1200  -17.5654 C   0  0  0  0  0  0  0  0  0  0  0  0
   28.7118  -20.2656  -16.9995 C   0  0  0  0  0  0  0  0  0  0  0  0
   28.0345  -20.9617  -15.8514 C   0  0  2  0  0  0  0  0  0  0  0  0
   27.6014  -22.3402  -16.3205 C   0  0  0  0  0  0  0  0  0  0  0  0
   26.8664  -20.2039  -15.3079 C   0  0  2  0  0  0  0  0  0  0  0  0
   27.3346  -18.9131  -14.8286 N   0  0  0  0  0  0  0  0  0  0  0  0
   26.2612  -20.9252  -14.1876 C   0  0  0  0  0  0  0  0  0  0  0  0
   25.8611  -22.1075  -14.3444 O   0  0  0  0  0  0  0  0  0  0  0  0
   26.0747  -20.3754  -12.8668 N   0  0  0  0  0  0  0  0  0  0  0  0
   25.2659  -21.0160  -11.8898 C   0  0  1  0  0  0  0  0  0  0  0  0
   25.5257  -20.7192  -10.4680 C   0  0  0  0  0  0  0  0  0  0  0  0
   26.9001  -20.8981   -9.9958 C   0  0  0  0  0  0  0  0  0  0  0  0
   27.9746  -21.4515  -10.6398 C   0  0  0  0  0  0  0  0  0  0  0  0
   29.0664  -21.4043   -9.8398 N   0  0  0  0  0  0  0  0  0  0  0  0
   28.7094  -20.8173   -8.6641 C   0  0  0  0  0  0  0  0  0  0  0  0
   29.4399  -20.5304   -7.5277 C   0  0  0  0  0  0  0  0  0  0  0  0
   28.8451  -19.9178   -6.4498 C   0  0  0  0  0  0  0  0  0  0  0  0
   27.5089  -19.5982   -6.5289 C   0  0  0  0  0  0  0  0  0  0  0  0
   26.7921  -19.8887   -7.6641 C   0  0  0  0  0  0  0  0  0  0  0  0
   27.3847  -20.5093   -8.7628 C   0  0  0  0  0  0  0  0  0  0  0  0
   23.7971  -20.8563  -12.1806 C   0  0  0  0  0  0  0  0  0  0  0  0
   23.3738  -19.6765  -12.2591 O   0  0  0  0  0  0  0  0  0  0  0  0
   22.9399  -21.9491  -12.3556 N   0  0  0  0  0  0  0  0  0  0  0  0
   21.5849  -21.7987  -12.8153 C   0  0  0  0  0  0  0  0  0  0  0  0
   20.6966  -21.2338  -11.7890 C   0  0  0  0  0  0  0  0  0  0  0  0
   19.3696  -20.9286  -12.0230 O   0  0  0  0  0  0  0  0  0  0  0  0
   21.1620  -21.0165  -10.6424 O   0  0  0  0  0  0  0  0  0  0  0  0
  1  2  1  0
  3  2  1  0
  3  4  1  6
  5  3  1  0
  5  6  1  1
  7  5  1  0
  7  8  2  0
  9  7  1  0
 10 21  1  0
 10  9  1  0
 10 11  1  1
 12 13  2  0
 12 11  1  0
 14 13  1  0
 15 20  2  0
 15 14  1  0
 16 15  1  0
 17 18  1  0
 17 16  2  0
 18 19  2  0
 19 20  1  0
 20 12  1  0
 21 23  1  0
 22 21  2  0
 23 24  1  0
 24 25  1  0
 25 27  2  0
 25 26  1  0
M  END
$$$$
