IWG.pdb
     RDKit          3D

 27 28  0  0  1  0  0  0  0  0999 V2000
   28.0753  -18.0413  -16.5845 C   0  0  0  0  0  0  0  0  0  0  0  0
   28.4550  -17.9124  -15.1101 C   0  0  0  0  0  0  0  0  0  0  0  0
   27.8991  -19.0572  -14.3090 C   0  0  2  0  0  0  0  0  0  0  0  0
   28.2850  -20.3531  -15.0015 C   0  0  0  0  0  0  0  0  0  0  0  0
   26.4175  -18.9843  -14.1249 C   0  0  2  0  0  0  0  0  0  0  0  0
   26.0825  -17.6780  -13.5804 N   0  0  0  0  0  0  0  0  0  0  0  0
   25.9647  -20.0107  -13.1851 C   0  0  0  0  0  0  0  0  0  0  0  0
   26.0478  -21.2270  -13.4952 O   0  0  0  0  0  0  0  0  0  0  0  0
   25.4075  -19.7375  -11.8826 N   0  0  0  0  0  0  0  0  0  0  0  0
   24.8463  -20.7607  -11.0719 C   0  0  1  0  0  0  0  0  0  0  0  0
   25.2804  -20.8503   -9.6645 C   0  0  0  0  0  0  0  0  0  0  0  0
   26.7200  -20.9659   -9.4229 C   0  0  0  0  0  0  0  0  0  0  0  0
   27.6741  -21.6187  -10.1571 C   0  0  0  0  0  0  0  0  0  0  0  0
   28.8891  -21.4591   -9.5804 N   0  0  0  0  0  0  0  0  0  0  0  0
   28.7344  -20.6979   -8.4619 C   0  0  0  0  0  0  0  0  0  0  0  0
   29.6487  -20.2474   -7.5299 C   0  0  0  0  0  0  0  0  0  0  0  0
   29.2421  -19.4740   -6.4682 C   0  0  0  0  0  0  0  0  0  0  0  0
   27.9071  -19.1600   -6.3555 C   0  0  0  0  0  0  0  0  0  0  0  0
   27.0065  -19.6138   -7.2882 C   0  0  0  0  0  0  0  0  0  0  0  0
   27.4073  -20.3983   -8.3687 C   0  0  0  0  0  0  0  0  0  0  0  0
   23.3420  -20.7729  -11.1400 C   0  0  0  0  0  0  0  0  0  0  0  0
   22.7516  -21.3903  -10.2193 O   0  0  0  0  0  0  0  0  0  0  0  0
   22.6284  -20.1382  -12.1634 N   0  0  0  0  0  0  0  0  0  0  0  0
   21.1913  -20.1630  -12.2296 C   0  0  0  0  0  0  0  0  0  0  0  0
   20.6800  -21.2674  -13.0545 C   0  0  0  0  0  0  0  0  0  0  0  0
   19.3328  -21.5172  -13.2317 O   0  0  0  0  0  0  0  0  0  0  0  0
   21.5039  -22.0229  -13.6279 O   0  0  0  0  0  0  0  0  0  0  0  0
  1  2  1  0
  3  2  1  0
  3  4  1  6
  5  3  1  0
  5  6  1  1
  7  5  1  0
  7  8  2  0
  9  7  1  0
 10 21  1  0
 10  9  1  0
 10 11  1  1
 12 13  2  0
 12 11  1  0
 14 13  1  0
 15 20  2  0
 15 14  1  0
 16 15  1  0
 17 18  1  0
 17 16  2  0
 18 19  2  0
 19 20  1  0
 20 12  1  0
 21 23  1  0
 22 21  2  0
 23 24  1  0
 24 25  1  0
 25 27  2  0
 25 26  1  0
M  END
$$$$
