IWG.pdb
     RDKit          3D

 27 28  0  0  1  0  0  0  0  0999 V2000
   25.0906  -19.3896  -16.7523 C   0  0  0  0  0  0  0  0  0  0  0  0
   23.8692  -19.5967  -15.8580 C   0  0  0  0  0  0  0  0  0  0  0  0
   24.2465  -20.3076  -14.5877 C   0  0  2  0  0  0  0  0  0  0  0  0
   24.8598  -21.6475  -14.9573 C   0  0  0  0  0  0  0  0  0  0  0  0
   23.0948  -20.4999  -13.6545 C   0  0  2  0  0  0  0  0  0  0  0  0
   22.3784  -19.2396  -13.5377 N   0  0  0  0  0  0  0  0  0  0  0  0
   23.5685  -20.8911  -12.3262 C   0  0  0  0  0  0  0  0  0  0  0  0
   24.0371  -22.0438  -12.1408 O   0  0  0  0  0  0  0  0  0  0  0  0
   23.5421  -20.0361  -11.1645 N   0  0  0  0  0  0  0  0  0  0  0  0
   23.8342  -20.5231   -9.8619 C   0  0  1  0  0  0  0  0  0  0  0  0
   24.8213  -19.7870   -9.0489 C   0  0  0  0  0  0  0  0  0  0  0  0
   26.2085  -20.2513   -9.1131 C   0  0  0  0  0  0  0  0  0  0  0  0
   26.8443  -20.9537  -10.1020 C   0  0  0  0  0  0  0  0  0  0  0  0
   28.1376  -21.1646   -9.7595 N   0  0  0  0  0  0  0  0  0  0  0  0
   28.3544  -20.5985   -8.5402 C   0  0  0  0  0  0  0  0  0  0  0  0
   29.4878  -20.5282   -7.7542 C   0  0  0  0  0  0  0  0  0  0  0  0
   29.4576  -19.8861   -6.5387 C   0  0  0  0  0  0  0  0  0  0  0  0
   28.2754  -19.3167   -6.1241 C   0  0  0  0  0  0  0  0  0  0  0  0
   27.1541  -19.3930   -6.9139 C   0  0  0  0  0  0  0  0  0  0  0  0
   27.1731  -20.0413   -8.1480 C   0  0  0  0  0  0  0  0  0  0  0  0
   22.5853  -20.7567   -9.0538 C   0  0  0  0  0  0  0  0  0  0  0  0
   21.7749  -19.7988   -8.9985 O   0  0  0  0  0  0  0  0  0  0  0  0
   22.3278  -21.9654   -8.3962 N   0  0  0  0  0  0  0  0  0  0  0  0
   21.3400  -22.0808   -7.3565 C   0  0  0  0  0  0  0  0  0  0  0  0
   20.3225  -23.1004   -7.6506 C   0  0  0  0  0  0  0  0  0  0  0  0
   19.5267  -23.6761   -6.6790 O   0  0  0  0  0  0  0  0  0  0  0  0
   20.1653  -23.4690   -8.8414 O   0  0  0  0  0  0  0  0  0  0  0  0
  1  2  1  0
  3  2  1  0
  3  4  1  6
  5  3  1  0
  5  6  1  1
  7  5  1  0
  7  8  2  0
  9  7  1  0
 10 21  1  0
 10  9  1  0
 10 11  1  1
 12 13  2  0
 12 11  1  0
 14 13  1  0
 15 20  2  0
 15 14  1  0
 16 15  1  0
 17 18  1  0
 17 16  2  0
 18 19  2  0
 19 20  1  0
 20 12  1  0
 21 23  1  0
 22 21  2  0
 23 24  1  0
 24 25  1  0
 25 27  2  0
 25 26  1  0
M  END
$$$$
