IWG.pdb
     RDKit          3D

 27 28  0  0  1  0  0  0  0  0999 V2000
   22.9937  -19.9669  -15.0413 C   0  0  0  0  0  0  0  0  0  0  0  0
   24.2565  -19.8216  -14.1938 C   0  0  0  0  0  0  0  0  0  0  0  0
   24.0628  -20.4267  -12.8309 C   0  0  2  0  0  0  0  0  0  0  0  0
   22.8177  -19.8148  -12.2120 C   0  0  0  0  0  0  0  0  0  0  0  0
   25.2403  -20.2399  -11.9292 C   0  0  2  0  0  0  0  0  0  0  0  0
   26.4019  -20.8550  -12.5515 N   0  0  0  0  0  0  0  0  0  0  0  0
   25.0068  -20.8865  -10.6373 C   0  0  0  0  0  0  0  0  0  0  0  0
   25.0765  -22.1388  -10.5399 O   0  0  0  0  0  0  0  0  0  0  0  0
   24.6895  -20.1844   -9.4175 N   0  0  0  0  0  0  0  0  0  0  0  0
   24.5597  -20.8559   -8.1719 C   0  0  1  0  0  0  0  0  0  0  0  0
   25.2124  -20.2616   -6.9896 C   0  0  0  0  0  0  0  0  0  0  0  0
   26.6716  -20.1462   -7.0282 C   0  0  0  0  0  0  0  0  0  0  0  0
   27.5267  -20.2928   -8.0878 C   0  0  0  0  0  0  0  0  0  0  0  0
   28.8026  -20.0868   -7.6830 N   0  0  0  0  0  0  0  0  0  0  0  0
   28.7876  -19.8032   -6.3512 C   0  0  0  0  0  0  0  0  0  0  0  0
   29.8088  -19.5152   -5.4671 C   0  0  0  0  0  0  0  0  0  0  0  0
   29.5366  -19.2541   -4.1448 C   0  0  0  0  0  0  0  0  0  0  0  0
   28.2270  -19.2864   -3.7234 C   0  0  0  0  0  0  0  0  0  0  0  0
   27.2193  -19.5744   -4.6115 C   0  0  0  0  0  0  0  0  0  0  0  0
   27.4835  -19.8404   -5.9542 C   0  0  0  0  0  0  0  0  0  0  0  0
   23.1239  -21.1763   -7.8507 C   0  0  0  0  0  0  0  0  0  0  0  0
   22.2845  -20.2805   -8.1159 O   0  0  0  0  0  0  0  0  0  0  0  0
   22.7312  -22.3968   -7.2887 N   0  0  0  0  0  0  0  0  0  0  0  0
   21.3504  -22.7870   -7.1836 C   0  0  0  0  0  0  0  0  0  0  0  0
   20.7499  -22.4091   -5.8959 C   0  0  0  0  0  0  0  0  0  0  0  0
   19.4621  -22.7531   -5.5327 O   0  0  0  0  0  0  0  0  0  0  0  0
   21.4372  -21.7412   -5.0834 O   0  0  0  0  0  0  0  0  0  0  0  0
  1  2  1  0
  3  2  1  0
  3  4  1  1
  5  3  1  0
  5  6  1  6
  7  5  1  0
  7  8  2  0
  9  7  1  0
 10 21  1  0
 10  9  1  0
 10 11  1  1
 12 13  2  0
 12 11  1  0
 14 13  1  0
 15 20  2  0
 15 14  1  0
 16 15  1  0
 17 18  1  0
 17 16  2  0
 18 19  2  0
 19 20  1  0
 20 12  1  0
 21 23  1  0
 22 21  2  0
 23 24  1  0
 24 25  1  0
 25 27  2  0
 25 26  1  0
M  END
$$$$
