IWG.pdb
     RDKit          3D

 27 28  0  0  1  0  0  0  0  0999 V2000
   20.2839  -25.2331  -20.8306 C   0  0  0  0  0  0  0  0  0  0  0  0
   21.4524  -26.1270  -20.4184 C   0  0  0  0  0  0  0  0  0  0  0  0
   22.7362  -25.3456  -20.3680 C   0  0  2  0  0  0  0  0  0  0  0  0
   23.0965  -24.9321  -21.7848 C   0  0  0  0  0  0  0  0  0  0  0  0
   23.8633  -26.1018  -19.7418 C   0  0  2  0  0  0  0  0  0  0  0  0
   23.9402  -27.4152  -20.3615 N   0  0  0  0  0  0  0  0  0  0  0  0
   23.6316  -26.2765  -18.3074 C   0  0  0  0  0  0  0  0  0  0  0  0
   23.3278  -27.4097  -17.8535 O   0  0  0  0  0  0  0  0  0  0  0  0
   23.7233  -25.2191  -17.3300 N   0  0  0  0  0  0  0  0  0  0  0  0
   23.6124  -25.4685  -15.9355 C   0  0  1  0  0  0  0  0  0  0  0  0
   24.8458  -25.4547  -15.1258 C   0  0  0  0  0  0  0  0  0  0  0  0
   25.9510  -26.2955  -15.5903 C   0  0  0  0  0  0  0  0  0  0  0  0
   26.0531  -27.6610  -15.6132 C   0  0  0  0  0  0  0  0  0  0  0  0
   27.2469  -28.0255  -16.1388 N   0  0  0  0  0  0  0  0  0  0  0  0
   27.9337  -26.8954  -16.4634 C   0  0  0  0  0  0  0  0  0  0  0  0
   29.1821  -26.7150  -17.0258 C   0  0  0  0  0  0  0  0  0  0  0  0
   29.6652  -25.4502  -17.2657 C   0  0  0  0  0  0  0  0  0  0  0  0
   28.8787  -24.3710  -16.9334 C   0  0  0  0  0  0  0  0  0  0  0  0
   27.6387  -24.5623  -16.3742 C   0  0  0  0  0  0  0  0  0  0  0  0
   27.1387  -25.8398  -16.1267 C   0  0  0  0  0  0  0  0  0  0  0  0
   22.5709  -24.5953  -15.2874 C   0  0  0  0  0  0  0  0  0  0  0  0
   22.6521  -23.3655  -15.5286 O   0  0  0  0  0  0  0  0  0  0  0  0
   21.5643  -25.1089  -14.4612 N   0  0  0  0  0  0  0  0  0  0  0  0
   20.5311  -24.2795  -13.9000 C   0  0  0  0  0  0  0  0  0  0  0  0
   19.5984  -25.0325  -13.0488 C   0  0  0  0  0  0  0  0  0  0  0  0
   18.6853  -24.4260  -12.2079 O   0  0  0  0  0  0  0  0  0  0  0  0
   19.6295  -26.2880  -13.0844 O   0  0  0  0  0  0  0  0  0  0  0  0
  1  2  1  0
  3  2  1  0
  3  4  1  6
  5  3  1  0
  5  6  1  6
  7  5  1  0
  7  8  2  0
  9  7  1  0
 10 21  1  0
 10  9  1  0
 10 11  1  1
 12 13  2  0
 12 11  1  0
 14 13  1  0
 15 20  2  0
 15 14  1  0
 16 15  1  0
 17 18  1  0
 17 16  2  0
 18 19  2  0
 19 20  1  0
 20 12  1  0
 21 23  1  0
 22 21  2  0
 23 24  1  0
 24 25  1  0
 25 27  2  0
 25 26  1  0
M  END
$$$$
