IWG.pdb
     RDKit          3D

 27 28  0  0  1  0  0  0  0  0999 V2000
   27.1693  -15.7812  -17.0848 C   0  0  0  0  0  0  0  0  0  0  0  0
   28.0402  -16.8476  -16.4225 C   0  0  0  0  0  0  0  0  0  0  0  0
   27.1953  -17.8594  -15.6988 C   0  0  2  0  0  0  0  0  0  0  0  0
   26.4743  -17.1518  -14.5642 C   0  0  0  0  0  0  0  0  0  0  0  0
   27.9808  -19.0188  -15.1762 C   0  0  2  0  0  0  0  0  0  0  0  0
   28.6274  -19.6827  -16.2970 N   0  0  0  0  0  0  0  0  0  0  0  0
   27.0995  -19.9795  -14.5112 C   0  0  0  0  0  0  0  0  0  0  0  0
   26.3066  -20.6801  -15.1917 O   0  0  0  0  0  0  0  0  0  0  0  0
   27.0585  -20.2004  -13.0861 N   0  0  0  0  0  0  0  0  0  0  0  0
   26.2007  -21.1678  -12.4965 C   0  0  1  0  0  0  0  0  0  0  0  0
   26.6012  -21.7579  -11.2048 C   0  0  0  0  0  0  0  0  0  0  0  0
   26.4652  -20.9088  -10.0196 C   0  0  0  0  0  0  0  0  0  0  0  0
   25.3859  -20.1834   -9.5902 C   0  0  0  0  0  0  0  0  0  0  0  0
   25.6879  -19.5485   -8.4326 N   0  0  0  0  0  0  0  0  0  0  0  0
   26.9713  -19.8572   -8.0983 C   0  0  0  0  0  0  0  0  0  0  0  0
   27.7519  -19.4778   -7.0240 C   0  0  0  0  0  0  0  0  0  0  0  0
   29.0435  -19.9336   -6.9021 C   0  0  0  0  0  0  0  0  0  0  0  0
   29.5394  -20.7740   -7.8724 C   0  0  0  0  0  0  0  0  0  0  0  0
   28.7541  -21.1445   -8.9368 C   0  0  0  0  0  0  0  0  0  0  0  0
   27.4434  -20.6888   -9.0705 C   0  0  0  0  0  0  0  0  0  0  0  0
   24.7775  -20.6832  -12.4127 C   0  0  0  0  0  0  0  0  0  0  0  0
   24.5785  -19.6728  -11.6938 O   0  0  0  0  0  0  0  0  0  0  0  0
   23.7259  -21.3115  -13.0903 N   0  0  0  0  0  0  0  0  0  0  0  0
   22.3925  -20.7714  -13.1122 C   0  0  0  0  0  0  0  0  0  0  0  0
   21.3999  -21.6858  -12.5292 C   0  0  0  0  0  0  0  0  0  0  0  0
   20.4377  -21.2796  -11.6248 O   0  0  0  0  0  0  0  0  0  0  0  0
   21.4236  -22.8958  -12.8668 O   0  0  0  0  0  0  0  0  0  0  0  0
  1  2  1  0
  3  2  1  0
  3  4  1  1
  5  3  1  0
  5  6  1  6
  7  5  1  0
  7  8  2  0
  9  7  1  0
 10 21  1  0
 10  9  1  0
 10 11  1  1
 12 13  2  0
 12 11  1  0
 14 13  1  0
 15 20  2  0
 15 14  1  0
 16 15  1  0
 17 18  1  0
 17 16  2  0
 18 19  2  0
 19 20  1  0
 20 12  1  0
 21 23  1  0
 22 21  2  0
 23 24  1  0
 24 25  1  0
 25 27  2  0
 25 26  1  0
M  END
$$$$
