IWG.pdb
     RDKit          3D

 27 28  0  0  1  0  0  0  0  0999 V2000
   30.1748  -21.0687  -17.1008 C   0  0  0  0  0  0  0  0  0  0  0  0
   28.8226  -20.4266  -16.7947 C   0  0  0  0  0  0  0  0  0  0  0  0
   28.1998  -21.0405  -15.5713 C   0  0  2  0  0  0  0  0  0  0  0  0
   28.1736  -22.5480  -15.7572 C   0  0  0  0  0  0  0  0  0  0  0  0
   26.8259  -20.5252  -15.2866 C   0  0  2  0  0  0  0  0  0  0  0  0
   26.8969  -19.0814  -15.1272 N   0  0  0  0  0  0  0  0  0  0  0  0
   26.3051  -21.1054  -14.0482 C   0  0  0  0  0  0  0  0  0  0  0  0
   26.1099  -22.3457  -13.9691 O   0  0  0  0  0  0  0  0  0  0  0  0
   25.9815  -20.3480  -12.8636 N   0  0  0  0  0  0  0  0  0  0  0  0
   25.1983  -20.8922  -11.8102 C   0  0  1  0  0  0  0  0  0  0  0  0
   25.4960  -20.4652  -10.4296 C   0  0  0  0  0  0  0  0  0  0  0  0
   26.8326  -20.7721   -9.9164 C   0  0  0  0  0  0  0  0  0  0  0  0
   27.8665  -21.4318  -10.5258 C   0  0  0  0  0  0  0  0  0  0  0  0
   28.9343  -21.4838   -9.6944 N   0  0  0  0  0  0  0  0  0  0  0  0
   28.6023  -20.8556   -8.5328 C   0  0  0  0  0  0  0  0  0  0  0  0
   29.3243  -20.6313   -7.3770 C   0  0  0  0  0  0  0  0  0  0  0  0
   28.7609  -19.9555   -6.3202 C   0  0  0  0  0  0  0  0  0  0  0  0
   27.4647  -19.5091   -6.4401 C   0  0  0  0  0  0  0  0  0  0  0  0
   26.7560  -19.7382   -7.5943 C   0  0  0  0  0  0  0  0  0  0  0  0
   27.3169  -20.4220   -8.6719 C   0  0  0  0  0  0  0  0  0  0  0  0
   23.7224  -20.7553  -12.0759 C   0  0  0  0  0  0  0  0  0  0  0  0
   23.2901  -19.5834  -12.2057 O   0  0  0  0  0  0  0  0  0  0  0  0
   22.8685  -21.8601  -12.1750 N   0  0  0  0  0  0  0  0  0  0  0  0
   21.4931  -21.7362  -12.5788 C   0  0  0  0  0  0  0  0  0  0  0  0
   20.6292  -21.2279  -11.5032 C   0  0  0  0  0  0  0  0  0  0  0  0
   19.2713  -21.0253  -11.6568 O   0  0  0  0  0  0  0  0  0  0  0  0
   21.1462  -20.9637  -10.3890 O   0  0  0  0  0  0  0  0  0  0  0  0
  1  2  1  0
  3  2  1  0
  3  4  1  6
  5  3  1  0
  5  6  1  1
  7  5  1  0
  7  8  2  0
  9  7  1  0
 10 21  1  0
 10  9  1  0
 10 11  1  1
 12 13  2  0
 12 11  1  0
 14 13  1  0
 15 20  2  0
 15 14  1  0
 16 15  1  0
 17 18  1  0
 17 16  2  0
 18 19  2  0
 19 20  1  0
 20 12  1  0
 21 23  1  0
 22 21  2  0
 23 24  1  0
 24 25  1  0
 25 27  2  0
 25 26  1  0
M  END
$$$$
