CQP.pdb
     RDKit          3D

 23 23  0  0  1  0  0  0  0  0999 V2000
    7.0383  -16.9987   19.7664 N   0  0  0  0  0  0  0  0  0  0  0  0
    8.0675  -16.8911   20.7700 C   0  0  1  0  0  0  0  0  0  0  0  0
    9.1612  -15.9655   20.2599 C   0  0  0  0  0  0  0  0  0  0  0  0
    8.4724  -14.3694   19.7618 S   0  0  0  0  0  0  0  0  0  0  0  0
    7.4707  -16.2634   21.9875 C   0  0  0  0  0  0  0  0  0  0  0  0
    6.5620  -15.4070   21.8522 O   0  0  0  0  0  0  0  0  0  0  0  0
    7.1835  -20.6914   24.6026 N   0  0  0  0  0  0  0  0  0  0  0  0
    6.8340  -19.5437   25.3940 C   0  0  0  0  0  0  0  0  0  0  0  0
    6.8686  -19.6710   26.6379 O   0  0  0  0  0  0  0  0  0  0  0  0
    6.4559  -18.2816   24.7665 C   0  0  0  0  0  0  0  0  0  0  0  0
    6.9701  -17.0547   25.4333 C   0  0  0  0  0  0  0  0  0  0  0  0
    7.2265  -15.9627   24.4195 C   0  0  2  0  0  0  0  0  0  0  0  0
    7.8978  -16.6038   23.2922 N   0  0  0  0  0  0  0  0  0  0  0  0
    8.1425  -14.9260   24.9935 C   0  0  0  0  0  0  0  0  0  0  0  0
    9.3093  -14.8756   24.5346 O   0  0  0  0  0  0  0  0  0  0  0  0
    7.7347  -14.0383   26.0016 N   0  0  0  0  0  0  0  0  0  0  0  0
    6.4234  -13.9368   26.5793 C   0  0  0  0  0  0  0  0  0  0  0  0
    6.2942  -12.4520   26.8956 C   0  0  0  0  0  0  0  0  0  0  0  0
    7.6511  -11.8472   26.6877 C   0  0  0  0  0  0  0  0  0  0  0  0
    8.5601  -13.0510   26.6484 C   0  0  1  0  0  0  0  0  0  0  0  0
    8.9259  -13.4936   28.0186 C   0  0  0  0  0  0  0  0  0  0  0  0
    9.8556  -12.7886   28.7419 O   0  0  0  0  0  0  0  0  0  0  0  0
    8.3674  -14.5203   28.4939 O   0  0  0  0  0  0  0  0  0  0  0  0
  2  1  1  6
  3  2  1  0
  4  3  1  0
  5  2  1  0
  5  6  2  0
  7  8  1  0
  8 10  1  0
  9  8  2  0
 10 11  1  0
 12 11  1  1
 12 13  1  0
 12 14  1  0
 13  5  1  0
 14 16  1  0
 15 14  2  0
 16 20  1  0
 16 17  1  0
 17 18  1  0
 19 18  1  0
 20 19  1  0
 21 22  1  0
 20 21  1  1
 23 21  2  0
M  END
$$$$
