CQP.pdb
     RDKit          3D

 23 23  0  0  1  0  0  0  0  0999 V2000
    3.0501  -19.1713   22.2901 N   0  0  0  0  0  0  0  0  0  0  0  0
    4.4055  -19.2956   22.7648 C   0  0  1  0  0  0  0  0  0  0  0  0
    5.1988  -20.1418   21.7811 C   0  0  0  0  0  0  0  0  0  0  0  0
    6.8781  -20.4285   22.3876 S   0  0  0  0  0  0  0  0  0  0  0  0
    5.0190  -17.9335   22.7922 C   0  0  0  0  0  0  0  0  0  0  0  0
    4.7161  -17.1072   21.8961 O   0  0  0  0  0  0  0  0  0  0  0  0
    8.3076  -15.0410   27.5032 N   0  0  0  0  0  0  0  0  0  0  0  0
    8.3706  -14.1872   26.3487 C   0  0  0  0  0  0  0  0  0  0  0  0
    8.8989  -13.0626   26.4937 O   0  0  0  0  0  0  0  0  0  0  0  0
    7.8393  -14.6202   25.0604 C   0  0  0  0  0  0  0  0  0  0  0  0
    7.1081  -15.9161   25.0712 C   0  0  0  0  0  0  0  0  0  0  0  0
    6.5154  -16.2069   23.7109 C   0  0  2  0  0  0  0  0  0  0  0  0
    5.9331  -17.5432   23.7984 N   0  0  0  0  0  0  0  0  0  0  0  0
    7.5907  -16.2222   22.6685 C   0  0  0  0  0  0  0  0  0  0  0  0
    8.1088  -17.3323   22.3965 O   0  0  0  0  0  0  0  0  0  0  0  0
    8.0164  -15.0574   22.0109 N   0  0  0  0  0  0  0  0  0  0  0  0
    7.6516  -13.7058   22.3331 C   0  0  0  0  0  0  0  0  0  0  0  0
    7.6329  -13.0151   20.9752 C   0  0  0  0  0  0  0  0  0  0  0  0
    8.2255  -13.9807   19.9921 C   0  0  0  0  0  0  0  0  0  0  0  0
    8.9027  -14.9980   20.8772 C   0  0  1  0  0  0  0  0  0  0  0  0
   10.2518  -14.5356   21.2934 C   0  0  0  0  0  0  0  0  0  0  0  0
   10.4963  -14.2295   22.6091 O   0  0  0  0  0  0  0  0  0  0  0  0
   11.1547  -14.4330   20.4182 O   0  0  0  0  0  0  0  0  0  0  0  0
  2  1  1  6
  3  2  1  0
  4  3  1  0
  5  2  1  0
  5  6  2  0
  7  8  1  0
  8 10  1  0
  9  8  2  0
 10 11  1  0
 12 11  1  1
 12 13  1  0
 12 14  1  0
 13  5  1  0
 14 16  1  0
 15 14  2  0
 16 20  1  0
 16 17  1  0
 17 18  1  0
 19 18  1  0
 20 19  1  0
 21 22  1  0
 20 21  1  1
 23 21  2  0
M  END
$$$$
