CQP.pdb
     RDKit          3D

 23 23  0  0  1  0  0  0  0  0999 V2000
    5.1182  -12.4376   26.5968 N   0  0  0  0  0  0  0  0  0  0  0  0
    6.5208  -12.4014   26.2655 C   0  0  1  0  0  0  0  0  0  0  0  0
    7.3274  -12.8356   27.4796 C   0  0  0  0  0  0  0  0  0  0  0  0
    9.0989  -12.8104   27.1172 S   0  0  0  0  0  0  0  0  0  0  0  0
    6.7701  -13.3918   25.1749 C   0  0  0  0  0  0  0  0  0  0  0  0
    6.2549  -14.5344   25.2556 O   0  0  0  0  0  0  0  0  0  0  0  0
    9.4411  -14.4536   19.3971 N   0  0  0  0  0  0  0  0  0  0  0  0
    8.1158  -13.9031   19.4757 C   0  0  0  0  0  0  0  0  0  0  0  0
    7.4308  -13.9020   18.4289 O   0  0  0  0  0  0  0  0  0  0  0  0
    7.5938  -13.3692   20.7295 C   0  0  0  0  0  0  0  0  0  0  0  0
    8.5046  -13.4778   21.9012 C   0  0  0  0  0  0  0  0  0  0  0  0
    7.8010  -14.1366   23.0661 C   0  0  2  0  0  0  0  0  0  0  0  0
    7.5706  -13.0829   24.0505 N   0  0  0  0  0  0  0  0  0  0  0  0
    8.6814  -15.1804   23.6815 C   0  0  0  0  0  0  0  0  0  0  0  0
    9.4900  -14.8006   24.5625 O   0  0  0  0  0  0  0  0  0  0  0  0
    8.6214  -16.5313   23.3046 N   0  0  0  0  0  0  0  0  0  0  0  0
    7.7638  -17.1086   22.3071 C   0  0  0  0  0  0  0  0  0  0  0  0
    7.4748  -18.4999   22.8569 C   0  0  0  0  0  0  0  0  0  0  0  0
    8.3911  -18.6998   24.0275 C   0  0  0  0  0  0  0  0  0  0  0  0
    9.4119  -17.6021   23.8547 C   0  0  1  0  0  0  0  0  0  0  0  0
   10.4789  -18.0051   22.9027 C   0  0  0  0  0  0  0  0  0  0  0  0
   11.4965  -18.8264   23.3204 O   0  0  0  0  0  0  0  0  0  0  0  0
   10.4263  -17.5787   21.7164 O   0  0  0  0  0  0  0  0  0  0  0  0
  2  1  1  1
  3  2  1  0
  4  3  1  0
  5  2  1  0
  5  6  2  0
  7  8  1  0
  8 10  1  0
  9  8  2  0
 10 11  1  0
 12 11  1  6
 12 13  1  0
 12 14  1  0
 13  5  1  0
 14 16  1  0
 15 14  2  0
 16 20  1  0
 16 17  1  0
 17 18  1  0
 19 18  1  0
 20 19  1  0
 21 22  1  0
 20 21  1  6
 23 21  2  0
M  END
$$$$
