CQP.pdb
     RDKit          3D

 23 23  0  0  1  0  0  0  0  0999 V2000
    6.3534  -17.6715   26.6754 N   0  0  0  0  0  0  0  0  0  0  0  0
    6.9362  -16.3835   26.3932 C   0  0  1  0  0  0  0  0  0  0  0  0
    8.1207  -16.1624   27.3211 C   0  0  0  0  0  0  0  0  0  0  0  0
    8.8122  -14.5064   27.0977 S   0  0  0  0  0  0  0  0  0  0  0  0
    7.4526  -16.4002   24.9912 C   0  0  0  0  0  0  0  0  0  0  0  0
    7.9601  -17.4558   24.5379 O   0  0  0  0  0  0  0  0  0  0  0  0
    6.9972  -13.0290   18.9826 N   0  0  0  0  0  0  0  0  0  0  0  0
    7.5087  -14.1549   19.7151 C   0  0  0  0  0  0  0  0  0  0  0  0
    7.1351  -15.2930   19.3546 O   0  0  0  0  0  0  0  0  0  0  0  0
    8.4284  -13.9724   20.8334 C   0  0  0  0  0  0  0  0  0  0  0  0
    7.8072  -13.9994   22.1853 C   0  0  0  0  0  0  0  0  0  0  0  0
    7.9424  -15.3703   22.8086 C   0  0  2  0  0  0  0  0  0  0  0  0
    7.3880  -15.2612   24.1551 N   0  0  0  0  0  0  0  0  0  0  0  0
    9.3867  -15.7515   22.9165 C   0  0  0  0  0  0  0  0  0  0  0  0
   10.0167  -15.3309   23.9169 O   0  0  0  0  0  0  0  0  0  0  0  0
   10.0286  -16.5446   21.9524 N   0  0  0  0  0  0  0  0  0  0  0  0
    9.4579  -17.0472   20.7336 C   0  0  0  0  0  0  0  0  0  0  0  0
   10.1538  -18.3900   20.5490 C   0  0  0  0  0  0  0  0  0  0  0  0
   11.2561  -18.4476   21.5647 C   0  0  0  0  0  0  0  0  0  0  0  0
   11.3902  -17.0110   22.0063 C   0  0  1  0  0  0  0  0  0  0  0  0
   12.2441  -16.2375   21.0683 C   0  0  0  0  0  0  0  0  0  0  0  0
   13.6095  -16.2565   21.2091 O   0  0  0  0  0  0  0  0  0  0  0  0
   11.6893  -15.5718   20.1512 O   0  0  0  0  0  0  0  0  0  0  0  0
  2  1  1  1
  3  2  1  0
  4  3  1  0
  5  2  1  0
  5  6  2  0
  7  8  1  0
  8 10  1  0
  9  8  2  0
 10 11  1  0
 12 11  1  1
 12 13  1  0
 12 14  1  0
 13  5  1  0
 14 16  1  0
 15 14  2  0
 16 20  1  0
 16 17  1  0
 17 18  1  0
 19 18  1  0
 20 19  1  0
 21 22  1  0
 20 21  1  6
 23 21  2  0
M  END
$$$$
