CQP.pdb
     RDKit          3D

 23 23  0  0  1  0  0  0  0  0999 V2000
    8.2585  -13.0877   18.5789 N   0  0  0  0  0  0  0  0  0  0  0  0
    7.2720  -13.5092   19.5418 C   0  0  1  0  0  0  0  0  0  0  0  0
    6.7233  -14.8656   19.1267 C   0  0  0  0  0  0  0  0  0  0  0  0
    8.0651  -16.0495   18.8656 S   0  0  0  0  0  0  0  0  0  0  0  0
    7.9489  -13.6767   20.8633 C   0  0  0  0  0  0  0  0  0  0  0  0
    9.1977  -13.8050   20.8999 O   0  0  0  0  0  0  0  0  0  0  0  0
    5.7417  -12.2459   26.6901 N   0  0  0  0  0  0  0  0  0  0  0  0
    7.0929  -12.7106   26.8454 C   0  0  0  0  0  0  0  0  0  0  0  0
    7.5911  -12.6566   27.9915 O   0  0  0  0  0  0  0  0  0  0  0  0
    7.8489  -13.2255   25.7083 C   0  0  0  0  0  0  0  0  0  0  0  0
    7.1434  -13.1865   24.3988 C   0  0  0  0  0  0  0  0  0  0  0  0
    7.9812  -13.8359   23.3206 C   0  0  2  0  0  0  0  0  0  0  0  0
    7.2258  -13.6954   22.0787 N   0  0  0  0  0  0  0  0  0  0  0  0
    8.1584  -15.2949   23.6088 C   0  0  0  0  0  0  0  0  0  0  0  0
    7.2317  -16.0646   23.2577 O   0  0  0  0  0  0  0  0  0  0  0  0
    9.3035  -15.8019   24.2431 N   0  0  0  0  0  0  0  0  0  0  0  0
   10.3605  -15.0395   24.8476 C   0  0  0  0  0  0  0  0  0  0  0  0
   11.5963  -15.8946   24.5967 C   0  0  0  0  0  0  0  0  0  0  0  0
   11.1096  -17.2109   24.0670 C   0  0  0  0  0  0  0  0  0  0  0  0
    9.6390  -17.1931   24.4046 C   0  0  1  0  0  0  0  0  0  0  0  0
    9.4035  -17.6273   25.8057 C   0  0  0  0  0  0  0  0  0  0  0  0
    9.5059  -18.9552   26.1388 O   0  0  0  0  0  0  0  0  0  0  0  0
    9.1110  -16.7558   26.6699 O   0  0  0  0  0  0  0  0  0  0  0  0
  2  1  1  6
  3  2  1  0
  4  3  1  0
  5  2  1  0
  5  6  2  0
  7  8  1  0
  8 10  1  0
  9  8  2  0
 10 11  1  0
 12 11  1  1
 12 13  1  0
 12 14  1  0
 13  5  1  0
 14 16  1  0
 15 14  2  0
 16 20  1  0
 16 17  1  0
 17 18  1  0
 19 18  1  0
 20 19  1  0
 21 22  1  0
 20 21  1  1
 23 21  2  0
M  END
$$$$
