CQP.pdb
     RDKit          3D

 23 23  0  0  1  0  0  0  0  0999 V2000
    7.0181  -15.5280   19.0109 N   0  0  0  0  0  0  0  0  0  0  0  0
    7.8563  -14.8364   19.9581 C   0  0  1  0  0  0  0  0  0  0  0  0
    7.9646  -13.3756   19.5486 C   0  0  0  0  0  0  0  0  0  0  0  0
    8.9101  -13.2056   18.0166 S   0  0  0  0  0  0  0  0  0  0  0  0
    7.1920  -14.8866   21.2955 C   0  0  0  0  0  0  0  0  0  0  0  0
    5.9649  -15.1463   21.3605 O   0  0  0  0  0  0  0  0  0  0  0  0
    6.0965  -19.0821   24.2008 N   0  0  0  0  0  0  0  0  0  0  0  0
    7.2030  -18.5201   24.9257 C   0  0  0  0  0  0  0  0  0  0  0  0
    7.7555  -19.2440   25.7833 O   0  0  0  0  0  0  0  0  0  0  0  0
    7.6611  -17.1589   24.6666 C   0  0  0  0  0  0  0  0  0  0  0  0
    6.8186  -16.3661   23.7309 C   0  0  0  0  0  0  0  0  0  0  0  0
    7.2167  -14.9077   23.7579 C   0  0  2  0  0  0  0  0  0  0  0  0
    7.9031  -14.6502   22.4949 N   0  0  0  0  0  0  0  0  0  0  0  0
    8.1730  -14.6512   24.8817 C   0  0  0  0  0  0  0  0  0  0  0  0
    9.3707  -14.9789   24.7005 O   0  0  0  0  0  0  0  0  0  0  0  0
    7.7692  -14.0702   26.0941 N   0  0  0  0  0  0  0  0  0  0  0  0
    6.4284  -13.9856   26.6028 C   0  0  0  0  0  0  0  0  0  0  0  0
    6.4248  -12.6647   27.3621 C   0  0  0  0  0  0  0  0  0  0  0  0
    7.8501  -12.2016   27.4284 C   0  0  0  0  0  0  0  0  0  0  0  0
    8.6299  -13.4403   27.0620 C   0  0  1  0  0  0  0  0  0  0  0  0
    8.8225  -14.3230   28.2413 C   0  0  0  0  0  0  0  0  0  0  0  0
    9.7536  -13.9984   29.1964 O   0  0  0  0  0  0  0  0  0  0  0  0
    8.1176  -15.3647   28.3411 O   0  0  0  0  0  0  0  0  0  0  0  0
  2  1  1  6
  3  2  1  0
  4  3  1  0
  5  2  1  0
  5  6  2  0
  7  8  1  0
  8 10  1  0
  9  8  2  0
 10 11  1  0
 12 11  1  6
 12 13  1  0
 12 14  1  0
 13  5  1  0
 14 16  1  0
 15 14  2  0
 16 20  1  0
 16 17  1  0
 17 18  1  0
 19 18  1  0
 20 19  1  0
 21 22  1  0
 20 21  1  1
 23 21  2  0
M  END
$$$$
