CQP.pdb
     RDKit          3D

 23 23  0  0  1  0  0  0  0  0999 V2000
    7.0781  -15.7887   19.1724 N   0  0  0  0  0  0  0  0  0  0  0  0
    7.7589  -14.8613   20.0411 C   0  0  1  0  0  0  0  0  0  0  0  0
    7.4777  -13.4433   19.5687 C   0  0  0  0  0  0  0  0  0  0  0  0
    8.5579  -12.9993   18.1880 S   0  0  0  0  0  0  0  0  0  0  0  0
    7.1915  -15.0044   21.4159 C   0  0  0  0  0  0  0  0  0  0  0  0
    6.0362  -15.4769   21.5555 O   0  0  0  0  0  0  0  0  0  0  0  0
    7.4523  -19.3948   24.1839 N   0  0  0  0  0  0  0  0  0  0  0  0
    6.9659  -18.5711   25.2565 C   0  0  0  0  0  0  0  0  0  0  0  0
    6.5182  -19.1521   26.2698 O   0  0  0  0  0  0  0  0  0  0  0  0
    6.9966  -17.1151   25.1630 C   0  0  0  0  0  0  0  0  0  0  0  0
    7.4359  -16.5660   23.8517 C   0  0  0  0  0  0  0  0  0  0  0  0
    7.4075  -15.0543   23.8685 C   0  0  2  0  0  0  0  0  0  0  0  0
    7.9162  -14.6236   22.5692 N   0  0  0  0  0  0  0  0  0  0  0  0
    8.3184  -14.5297   24.9354 C   0  0  0  0  0  0  0  0  0  0  0  0
    9.5528  -14.6129   24.7262 O   0  0  0  0  0  0  0  0  0  0  0  0
    7.8342  -13.9648   26.1258 N   0  0  0  0  0  0  0  0  0  0  0  0
    6.4762  -13.9787   26.5943 C   0  0  0  0  0  0  0  0  0  0  0  0
    6.3465  -12.6514   27.3310 C   0  0  0  0  0  0  0  0  0  0  0  0
    7.7285  -12.0767   27.4305 C   0  0  0  0  0  0  0  0  0  0  0  0
    8.6135  -13.2553   27.1074 C   0  0  1  0  0  0  0  0  0  0  0  0
    8.8392  -14.1030   28.3064 C   0  0  0  0  0  0  0  0  0  0  0  0
    9.7166  -13.6945   29.2800 O   0  0  0  0  0  0  0  0  0  0  0  0
    8.2120  -15.1933   28.4053 O   0  0  0  0  0  0  0  0  0  0  0  0
  2  1  1  6
  3  2  1  0
  4  3  1  0
  5  2  1  0
  5  6  2  0
  7  8  1  0
  8 10  1  0
  9  8  2  0
 10 11  1  0
 12 11  1  6
 12 13  1  0
 12 14  1  0
 13  5  1  0
 14 16  1  0
 15 14  2  0
 16 20  1  0
 16 17  1  0
 17 18  1  0
 19 18  1  0
 20 19  1  0
 21 22  1  0
 20 21  1  1
 23 21  2  0
M  END
$$$$
