CQP.pdb
     RDKit          3D

 23 23  0  0  1  0  0  0  0  0999 V2000
    6.9775  -16.2134   19.0921 N   0  0  0  0  0  0  0  0  0  0  0  0
    7.7408  -15.2512   19.8470 C   0  0  1  0  0  0  0  0  0  0  0  0
    7.5174  -13.8682   19.2549 C   0  0  0  0  0  0  0  0  0  0  0  0
    8.2615  -12.5935   20.2998 S   0  0  0  0  0  0  0  0  0  0  0  0
    7.2214  -15.2364   21.2478 C   0  0  0  0  0  0  0  0  0  0  0  0
    5.9816  -15.2887   21.4420 O   0  0  0  0  0  0  0  0  0  0  0  0
    7.5958  -19.5137   24.8829 N   0  0  0  0  0  0  0  0  0  0  0  0
    7.0447  -18.5056   25.7464 C   0  0  0  0  0  0  0  0  0  0  0  0
    6.5985  -18.8787   26.8539 O   0  0  0  0  0  0  0  0  0  0  0  0
    7.0108  -17.1035   25.3434 C   0  0  0  0  0  0  0  0  0  0  0  0
    7.4845  -16.8220   23.9612 C   0  0  0  0  0  0  0  0  0  0  0  0
    7.4976  -15.3341   23.6930 C   0  0  2  0  0  0  0  0  0  0  0  0
    8.0841  -15.1651   22.3664 N   0  0  0  0  0  0  0  0  0  0  0  0
    8.3668  -14.6341   24.6918 C   0  0  0  0  0  0  0  0  0  0  0  0
    9.6044  -14.6514   24.4855 O   0  0  0  0  0  0  0  0  0  0  0  0
    7.8415  -13.9799   25.8172 N   0  0  0  0  0  0  0  0  0  0  0  0
    6.4582  -13.8959   26.1954 C   0  0  0  0  0  0  0  0  0  0  0  0
    6.3578  -12.5252   26.8531 C   0  0  0  0  0  0  0  0  0  0  0  0
    7.7611  -12.0202   27.0138 C   0  0  0  0  0  0  0  0  0  0  0  0
    8.5966  -13.2602   26.8104 C   0  0  1  0  0  0  0  0  0  0  0  0
    8.6980  -14.0519   28.0634 C   0  0  0  0  0  0  0  0  0  0  0  0
    9.5289  -13.6343   29.0733 O   0  0  0  0  0  0  0  0  0  0  0  0
    8.0099  -15.1037   28.1740 O   0  0  0  0  0  0  0  0  0  0  0  0
  2  1  1  6
  3  2  1  0
  4  3  1  0
  5  2  1  0
  5  6  2  0
  7  8  1  0
  8 10  1  0
  9  8  2  0
 10 11  1  0
 12 11  1  1
 12 13  1  0
 12 14  1  0
 13  5  1  0
 14 16  1  0
 15 14  2  0
 16 20  1  0
 16 17  1  0
 17 18  1  0
 19 18  1  0
 20 19  1  0
 21 22  1  0
 20 21  1  1
 23 21  2  0
M  END
$$$$
