CQP.pdb
     RDKit          3D

 23 23  0  0  1  0  0  0  0  0999 V2000
    7.6785  -16.1774   18.9644 N   0  0  0  0  0  0  0  0  0  0  0  0
    8.1596  -15.0329   19.6971 C   0  0  1  0  0  0  0  0  0  0  0  0
    7.7389  -13.7661   18.9683 C   0  0  0  0  0  0  0  0  0  0  0  0
    8.1190  -12.2997   19.9558 S   0  0  0  0  0  0  0  0  0  0  0  0
    7.5026  -15.0260   21.0391 C   0  0  0  0  0  0  0  0  0  0  0  0
    6.2598  -15.1914   21.1134 O   0  0  0  0  0  0  0  0  0  0  0  0
    7.3816  -19.3989   24.2427 N   0  0  0  0  0  0  0  0  0  0  0  0
    6.8685  -18.4521   25.1945 C   0  0  0  0  0  0  0  0  0  0  0  0
    6.3446  -18.9089   26.2345 O   0  0  0  0  0  0  0  0  0  0  0  0
    6.9589  -17.0156   24.9534 C   0  0  0  0  0  0  0  0  0  0  0  0
    7.5521  -16.6209   23.6471 C   0  0  0  0  0  0  0  0  0  0  0  0
    7.5663  -15.1162   23.4992 C   0  0  2  0  0  0  0  0  0  0  0  0
    8.2379  -14.8384   22.2326 N   0  0  0  0  0  0  0  0  0  0  0  0
    8.3593  -14.4931   24.6065 C   0  0  0  0  0  0  0  0  0  0  0  0
    9.6036  -14.4335   24.4564 O   0  0  0  0  0  0  0  0  0  0  0  0
    7.7575  -13.9905   25.7709 N   0  0  0  0  0  0  0  0  0  0  0  0
    6.3911  -14.1669   26.1778 C   0  0  0  0  0  0  0  0  0  0  0  0
    6.0704  -12.8648   26.9010 C   0  0  0  0  0  0  0  0  0  0  0  0
    7.3678  -12.1289   27.0597 C   0  0  0  0  0  0  0  0  0  0  0  0
    8.4012  -13.1931   26.7830 C   0  0  1  0  0  0  0  0  0  0  0  0
    8.6719  -14.0080   27.9953 C   0  0  0  0  0  0  0  0  0  0  0  0
    9.4689  -13.5072   28.9945 O   0  0  0  0  0  0  0  0  0  0  0  0
    8.1572  -15.1567   28.0816 O   0  0  0  0  0  0  0  0  0  0  0  0
  2  1  1  6
  3  2  1  0
  4  3  1  0
  5  2  1  0
  5  6  2  0
  7  8  1  0
  8 10  1  0
  9  8  2  0
 10 11  1  0
 12 11  1  1
 12 13  1  0
 12 14  1  0
 13  5  1  0
 14 16  1  0
 15 14  2  0
 16 20  1  0
 16 17  1  0
 17 18  1  0
 19 18  1  0
 20 19  1  0
 21 22  1  0
 20 21  1  1
 23 21  2  0
M  END
$$$$
