CQP.pdb
     RDKit          3D

 23 23  0  0  1  0  0  0  0  0999 V2000
    2.6650  -19.6422   20.4804 N   0  0  0  0  0  0  0  0  0  0  0  0
    2.9559  -18.5820   21.4130 C   0  0  1  0  0  0  0  0  0  0  0  0
    2.7321  -19.0925   22.8281 C   0  0  0  0  0  0  0  0  0  0  0  0
    1.0090  -18.8670   23.3281 S   0  0  0  0  0  0  0  0  0  0  0  0
    4.4007  -18.2252   21.2805 C   0  0  0  0  0  0  0  0  0  0  0  0
    5.2495  -19.1427   21.1573 O   0  0  0  0  0  0  0  0  0  0  0  0
    7.0092  -12.6915   19.4663 N   0  0  0  0  0  0  0  0  0  0  0  0
    8.0899  -13.5161   19.9330 C   0  0  0  0  0  0  0  0  0  0  0  0
    9.2524  -13.0788   19.7838 O   0  0  0  0  0  0  0  0  0  0  0  0
    7.8359  -14.8106   20.5569 C   0  0  0  0  0  0  0  0  0  0  0  0
    6.4044  -15.2043   20.6569 C   0  0  0  0  0  0  0  0  0  0  0  0
    6.2751  -16.6352   21.1280 C   0  0  2  0  0  0  0  0  0  0  0  0
    4.8450  -16.8824   21.2895 N   0  0  0  0  0  0  0  0  0  0  0  0
    6.9422  -16.8062   22.4580 C   0  0  0  0  0  0  0  0  0  0  0  0
    6.2525  -16.5694   23.4792 O   0  0  0  0  0  0  0  0  0  0  0  0
    8.2800  -17.2133   22.5808 N   0  0  0  0  0  0  0  0  0  0  0  0
    9.2278  -17.3857   21.5151 C   0  0  0  0  0  0  0  0  0  0  0  0
   10.0947  -18.5405   22.0012 C   0  0  0  0  0  0  0  0  0  0  0  0
    9.7187  -18.7895   23.4318 C   0  0  0  0  0  0  0  0  0  0  0  0
    8.9584  -17.5416   23.8081 C   0  0  1  0  0  0  0  0  0  0  0  0
    9.8825  -16.4471   24.2023 C   0  0  0  0  0  0  0  0  0  0  0  0
   10.4592  -16.4516   25.4480 O   0  0  0  0  0  0  0  0  0  0  0  0
   10.1203  -15.5259   23.3736 O   0  0  0  0  0  0  0  0  0  0  0  0
  2  1  1  6
  3  2  1  0
  4  3  1  0
  5  2  1  0
  5  6  2  0
  7  8  1  0
  8 10  1  0
  9  8  2  0
 10 11  1  0
 12 11  1  1
 12 13  1  0
 12 14  1  0
 13  5  1  0
 14 16  1  0
 15 14  2  0
 16 20  1  0
 16 17  1  0
 17 18  1  0
 19 18  1  0
 20 19  1  0
 21 22  1  0
 20 21  1  6
 23 21  2  0
M  END
$$$$
