CQP.pdb
     RDKit          3D

 23 23  0  0  1  0  0  0  0  0999 V2000
    7.1369  -15.9702   19.0937 N   0  0  0  0  0  0  0  0  0  0  0  0
    7.7282  -14.9156   19.8787 C   0  0  1  0  0  0  0  0  0  0  0  0
    7.2391  -13.5745   19.3542 C   0  0  0  0  0  0  0  0  0  0  0  0
    8.5263  -12.3141   19.5118 S   0  0  0  0  0  0  0  0  0  0  0  0
    7.2500  -15.0557   21.2873 C   0  0  0  0  0  0  0  0  0  0  0  0
    6.0157  -15.0419   21.5194 O   0  0  0  0  0  0  0  0  0  0  0  0
    7.1871  -19.6575   24.5684 N   0  0  0  0  0  0  0  0  0  0  0  0
    6.8781  -18.6611   25.5571 C   0  0  0  0  0  0  0  0  0  0  0  0
    6.4677  -19.0622   26.6686 O   0  0  0  0  0  0  0  0  0  0  0  0
    7.0400  -17.2393   25.2713 C   0  0  0  0  0  0  0  0  0  0  0  0
    7.5010  -16.9103   23.8953 C   0  0  0  0  0  0  0  0  0  0  0  0
    7.5797  -15.4128   23.7015 C   0  0  2  0  0  0  0  0  0  0  0  0
    8.1458  -15.2041   22.3717 N   0  0  0  0  0  0  0  0  0  0  0  0
    8.5021  -14.8060   24.7135 C   0  0  0  0  0  0  0  0  0  0  0  0
    9.7342  -14.9063   24.4981 O   0  0  0  0  0  0  0  0  0  0  0  0
    8.0309  -14.1485   25.8607 N   0  0  0  0  0  0  0  0  0  0  0  0
    6.6625  -14.0250   26.2804 C   0  0  0  0  0  0  0  0  0  0  0  0
    6.6251  -12.6595   26.9550 C   0  0  0  0  0  0  0  0  0  0  0  0
    8.0479  -12.2010   27.0795 C   0  0  0  0  0  0  0  0  0  0  0  0
    8.8371  -13.4643   26.8387 C   0  0  1  0  0  0  0  0  0  0  0  0
    8.9496  -14.2730   28.0799 C   0  0  0  0  0  0  0  0  0  0  0  0
    9.8409  -13.9078   29.0581 O   0  0  0  0  0  0  0  0  0  0  0  0
    8.2147  -15.2903   28.2099 O   0  0  0  0  0  0  0  0  0  0  0  0
  2  1  1  6
  3  2  1  0
  4  3  1  0
  5  2  1  0
  5  6  2  0
  7  8  1  0
  8 10  1  0
  9  8  2  0
 10 11  1  0
 12 11  1  1
 12 13  1  0
 12 14  1  0
 13  5  1  0
 14 16  1  0
 15 14  2  0
 16 20  1  0
 16 17  1  0
 17 18  1  0
 19 18  1  0
 20 19  1  0
 21 22  1  0
 20 21  1  1
 23 21  2  0
M  END
$$$$
