TIG.pdb
     RDKit          3D

 20 19  0  0  1  0  0  0  0  0999 V2000
   18.6820   -8.6974  -18.7179 C   0  0  0  0  0  0  0  0  0  0  0  0
   17.9641   -9.9616  -18.3701 C   0  0  1  0  0  0  0  0  0  0  0  0
   17.2208  -10.4103  -19.4637 O   0  0  0  0  0  0  0  0  0  0  0  0
   18.8785  -11.0848  -17.9625 C   0  0  2  0  0  0  0  0  0  0  0  0
   18.0534  -12.2642  -17.7510 N   0  0  0  0  0  0  0  0  0  0  0  0
   19.6297  -10.7664  -16.7161 C   0  0  0  0  0  0  0  0  0  0  0  0
   19.0259  -10.8327  -15.6411 O   0  0  0  0  0  0  0  0  0  0  0  0
   22.1607  -12.4876  -13.9323 C   0  0  0  0  0  0  0  0  0  0  0  0
   22.7146  -12.2315  -15.3136 C   0  0  0  0  0  0  0  0  0  0  0  0
   23.0709  -10.7528  -15.5150 C   0  0  2  0  0  0  0  0  0  0  0  0
   23.8180  -10.3725  -14.2597 C   0  0  0  0  0  0  0  0  0  0  0  0
   21.8025   -9.9979  -15.6150 C   0  0  2  0  0  0  0  0  0  0  0  0
   20.9696  -10.4024  -16.7248 N   0  0  0  0  0  0  0  0  0  0  0  0
   21.9862   -8.5510  -15.7333 C   0  0  0  0  0  0  0  0  0  0  0  0
   22.7768   -8.0716  -16.6420 O   0  0  0  0  0  0  0  0  0  0  0  0
   21.3793   -7.5397  -14.9483 N   0  0  0  0  0  0  0  0  0  0  0  0
   21.6841   -6.1277  -15.1862 C   0  0  0  0  0  0  0  0  0  0  0  0
   20.8957   -5.2790  -14.2891 C   0  0  0  0  0  0  0  0  0  0  0  0
   19.9711   -5.7878  -13.6119 O   0  0  0  0  0  0  0  0  0  0  0  0
   21.1340   -3.9234  -14.1585 O   0  0  0  0  0  0  0  0  0  0  0  0
  2  1  1  6
  3  2  1  0
  4  5  1  1
  4  2  1  0
  6  4  1  0
  7  6  2  0
  9 10  1  0
  9  8  1  0
 10 11  1  1
 12 10  1  0
 12 13  1  6
 13  6  1  0
 14 12  1  0
 15 14  2  0
 16 14  1  0
 17 16  1  0
 18 17  1  0
 19 18  2  0
 20 18  1  0
M  END
$$$$
