TIG.pdb
     RDKit          3D

 20 19  0  0  1  0  0  0  0  0999 V2000
   18.3254   -8.6526  -19.4193 C   0  0  0  0  0  0  0  0  0  0  0  0
   17.8112   -9.8714  -18.7228 C   0  0  1  0  0  0  0  0  0  0  0  0
   17.4349  -10.8380  -19.6576 O   0  0  0  0  0  0  0  0  0  0  0  0
   18.8140  -10.5104  -17.8009 C   0  0  2  0  0  0  0  0  0  0  0  0
   18.2221  -11.7403  -17.2975 N   0  0  0  0  0  0  0  0  0  0  0  0
   19.1686   -9.6195  -16.6608 C   0  0  0  0  0  0  0  0  0  0  0  0
   18.3189   -9.4309  -15.7850 O   0  0  0  0  0  0  0  0  0  0  0  0
   23.5182  -10.2329  -14.1194 C   0  0  0  0  0  0  0  0  0  0  0  0
   22.1554   -9.5944  -14.2439 C   0  0  0  0  0  0  0  0  0  0  0  0
   22.2121   -8.2936  -15.0553 C   0  0  2  0  0  0  0  0  0  0  0  0
   22.6051   -7.2399  -14.0484 C   0  0  0  0  0  0  0  0  0  0  0  0
   20.8525   -8.0337  -15.5774 C   0  0  2  0  0  0  0  0  0  0  0  0
   20.4079   -9.0026  -16.5533 N   0  0  0  0  0  0  0  0  0  0  0  0
   20.7008   -6.7158  -16.1948 C   0  0  0  0  0  0  0  0  0  0  0  0
   21.3143   -6.4471  -17.3047 O   0  0  0  0  0  0  0  0  0  0  0  0
   19.9253   -5.6283  -15.7219 N   0  0  0  0  0  0  0  0  0  0  0  0
   19.8086   -4.3986  -16.5077 C   0  0  0  0  0  0  0  0  0  0  0  0
   19.0291   -3.3983  -15.7741 C   0  0  0  0  0  0  0  0  0  0  0  0
   18.2769   -3.7651  -14.8403 O   0  0  0  0  0  0  0  0  0  0  0  0
   19.0910   -2.0502  -16.0746 O   0  0  0  0  0  0  0  0  0  0  0  0
  2  1  1  6
  3  2  1  0
  4  5  1  1
  4  2  1  0
  6  4  1  0
  7  6  2  0
  9 10  1  0
  9  8  1  0
 10 11  1  1
 12 10  1  0
 12 13  1  6
 13  6  1  0
 14 12  1  0
 15 14  2  0
 16 14  1  0
 17 16  1  0
 18 17  1  0
 19 18  2  0
 20 18  1  0
M  END
$$$$
