TIG.pdb
     RDKit          3D

 20 19  0  0  1  0  0  0  0  0999 V2000
   18.8612   -7.6627  -19.0144 C   0  0  0  0  0  0  0  0  0  0  0  0
   18.0828   -8.9373  -19.0799 C   0  0  1  0  0  0  0  0  0  0  0  0
   17.6726   -9.1846  -20.3915 O   0  0  0  0  0  0  0  0  0  0  0  0
   18.8562  -10.1435  -18.6206 C   0  0  2  0  0  0  0  0  0  0  0  0
   17.9756  -11.2958  -18.7348 N   0  0  0  0  0  0  0  0  0  0  0  0
   19.3211  -10.0033  -17.2123 C   0  0  0  0  0  0  0  0  0  0  0  0
   18.4856  -10.1197  -16.3106 O   0  0  0  0  0  0  0  0  0  0  0  0
   23.1171  -12.4948  -16.1747 C   0  0  0  0  0  0  0  0  0  0  0  0
   22.1611  -11.7067  -15.3114 C   0  0  0  0  0  0  0  0  0  0  0  0
   22.4848  -10.2072  -15.3324 C   0  0  2  0  0  0  0  0  0  0  0  0
   22.9954   -9.9140  -13.9424 C   0  0  0  0  0  0  0  0  0  0  0  0
   21.2210   -9.4814  -15.5868 C   0  0  2  0  0  0  0  0  0  0  0  0
   20.6465   -9.7493  -16.8857 N   0  0  0  0  0  0  0  0  0  0  0  0
   21.3438   -8.0277  -15.4737 C   0  0  0  0  0  0  0  0  0  0  0  0
   22.1586   -7.3850  -16.2506 O   0  0  0  0  0  0  0  0  0  0  0  0
   20.6499   -7.1725  -14.5822 N   0  0  0  0  0  0  0  0  0  0  0  0
   20.8751   -5.7262  -14.6097 C   0  0  0  0  0  0  0  0  0  0  0  0
   21.9142   -5.3549  -13.6458 C   0  0  0  0  0  0  0  0  0  0  0  0
   22.4205   -6.2376  -12.9131 O   0  0  0  0  0  0  0  0  0  0  0  0
   22.3636   -4.0544  -13.5108 O   0  0  0  0  0  0  0  0  0  0  0  0
  2  1  1  6
  3  2  1  0
  4  5  1  1
  4  2  1  0
  6  4  1  0
  7  6  2  0
  9 10  1  0
  9  8  1  0
 10 11  1  1
 12 10  1  0
 12 13  1  6
 13  6  1  0
 14 12  1  0
 15 14  2  0
 16 14  1  0
 17 16  1  0
 18 17  1  0
 19 18  2  0
 20 18  1  0
M  END
$$$$
