TIG.pdb
     RDKit          3D

 20 19  0  0  1  0  0  0  0  0999 V2000
   22.7158    3.4753   -6.4618 C   0  0  0  0  0  0  0  0  0  0  0  0
   21.9774    4.0563   -5.2990 C   0  0  1  0  0  0  0  0  0  0  0  0
   20.6500    4.3107   -5.6494 O   0  0  0  0  0  0  0  0  0  0  0  0
   21.9548    3.1629   -4.0885 C   0  0  2  0  0  0  0  0  0  0  0  0
   21.1033    3.7972   -3.0940 N   0  0  0  0  0  0  0  0  0  0  0  0
   23.3179    2.9551   -3.5246 C   0  0  0  0  0  0  0  0  0  0  0  0
   23.8137    3.8653   -2.8535 O   0  0  0  0  0  0  0  0  0  0  0  0
   25.0430   -1.0372   -0.5715 C   0  0  0  0  0  0  0  0  0  0  0  0
   25.0263    0.2940   -1.2842 C   0  0  0  0  0  0  0  0  0  0  0  0
   25.5835    0.1798   -2.7091 C   0  0  2  0  0  0  0  0  0  0  0  0
   27.0492   -0.1252   -2.5156 C   0  0  0  0  0  0  0  0  0  0  0  0
   25.4073    1.4946   -3.3639 C   0  0  2  0  0  0  0  0  0  0  0  0
   24.0390    1.7859   -3.7271 N   0  0  0  0  0  0  0  0  0  0  0  0
   26.2082    1.6604   -4.5772 C   0  0  0  0  0  0  0  0  0  0  0  0
   25.9350    0.9598   -5.6332 O   0  0  0  0  0  0  0  0  0  0  0  0
   27.3042    2.5370   -4.7715 N   0  0  0  0  0  0  0  0  0  0  0  0
   27.9763    2.6137   -6.0698 C   0  0  0  0  0  0  0  0  0  0  0  0
   27.3309    3.6190   -6.9180 C   0  0  0  0  0  0  0  0  0  0  0  0
   26.4837    4.3966   -6.4181 O   0  0  0  0  0  0  0  0  0  0  0  0
   27.6226    3.7452   -8.2635 O   0  0  0  0  0  0  0  0  0  0  0  0
  2  1  1  6
  3  2  1  0
  4  5  1  1
  4  2  1  0
  6  4  1  0
  7  6  2  0
  9 10  1  0
  9  8  1  0
 10 11  1  1
 12 10  1  0
 12 13  1  6
 13  6  1  0
 14 12  1  0
 15 14  2  0
 16 14  1  0
 17 16  1  0
 18 17  1  0
 19 18  2  0
 20 18  1  0
M  END
$$$$
