TIG.pdb
     RDKit          3D

 20 19  0  0  1  0  0  0  0  0999 V2000
   17.9365   -8.7456  -18.1676 C   0  0  0  0  0  0  0  0  0  0  0  0
   17.6250  -10.1939  -17.9667 C   0  0  1  0  0  0  0  0  0  0  0  0
   16.8101  -10.6595  -19.0006 O   0  0  0  0  0  0  0  0  0  0  0  0
   18.8435  -11.0758  -17.9289 C   0  0  2  0  0  0  0  0  0  0  0  0
   18.3827  -12.4549  -17.8835 N   0  0  0  0  0  0  0  0  0  0  0  0
   19.6992  -10.7921  -16.7429 C   0  0  0  0  0  0  0  0  0  0  0  0
   19.3312  -11.2215  -15.6452 O   0  0  0  0  0  0  0  0  0  0  0  0
   23.4745  -12.0535  -14.7774 C   0  0  0  0  0  0  0  0  0  0  0  0
   23.3869  -11.4107  -16.1410 C   0  0  0  0  0  0  0  0  0  0  0  0
   23.1931   -9.8922  -16.0391 C   0  0  2  0  0  0  0  0  0  0  0  0
   24.0378   -9.4845  -14.8564 C   0  0  0  0  0  0  0  0  0  0  0  0
   21.7606   -9.6424  -15.7666 C   0  0  2  0  0  0  0  0  0  0  0  0
   20.8817  -10.0699  -16.8315 N   0  0  0  0  0  0  0  0  0  0  0  0
   21.4476   -8.2377  -15.5021 C   0  0  0  0  0  0  0  0  0  0  0  0
   21.8958   -7.6664  -14.4283 O   0  0  0  0  0  0  0  0  0  0  0  0
   20.6802   -7.3607  -16.3080 N   0  0  0  0  0  0  0  0  0  0  0  0
   20.5757   -5.9396  -15.9725 C   0  0  0  0  0  0  0  0  0  0  0  0
   19.3355   -5.6806  -15.2367 C   0  0  0  0  0  0  0  0  0  0  0  0
   18.5469   -6.6272  -15.0033 O   0  0  0  0  0  0  0  0  0  0  0  0
   18.9967   -4.4189  -14.7843 O   0  0  0  0  0  0  0  0  0  0  0  0
  2  1  1  6
  3  2  1  0
  4  5  1  1
  4  2  1  0
  6  4  1  0
  7  6  2  0
  9 10  1  0
  9  8  1  0
 10 11  1  1
 12 10  1  0
 12 13  1  6
 13  6  1  0
 14 12  1  0
 15 14  2  0
 16 14  1  0
 17 16  1  0
 18 17  1  0
 19 18  2  0
 20 18  1  0
M  END
$$$$
