TIG.pdb
     RDKit          3D

 20 19  0  0  1  0  0  0  0  0999 V2000
   22.4829  -21.8531  -13.1641 C   0  0  0  0  0  0  0  0  0  0  0  0
   22.3483  -21.1712  -11.8406 C   0  0  1  0  0  0  0  0  0  0  0  0
   21.3374  -21.7734  -11.0887 O   0  0  0  0  0  0  0  0  0  0  0  0
   23.6024  -21.2078  -11.0102 C   0  0  2  0  0  0  0  0  0  0  0  0
   23.2596  -20.7271   -9.6806 N   0  0  0  0  0  0  0  0  0  0  0  0
   24.6791  -20.3572  -11.5904 C   0  0  0  0  0  0  0  0  0  0  0  0
   24.6343  -19.1410  -11.3815 O   0  0  0  0  0  0  0  0  0  0  0  0
   29.6857  -21.5873  -10.8599 C   0  0  0  0  0  0  0  0  0  0  0  0
   28.4265  -20.8292  -11.2064 C   0  0  0  0  0  0  0  0  0  0  0  0
   28.1399  -20.8671  -12.7131 C   0  0  2  0  0  0  0  0  0  0  0  0
   29.2659  -20.0728  -13.3294 C   0  0  0  0  0  0  0  0  0  0  0  0
   26.8428  -20.1922  -12.9377 C   0  0  2  0  0  0  0  0  0  0  0  0
   25.7174  -20.8816  -12.3484 N   0  0  0  0  0  0  0  0  0  0  0  0
   26.5198  -19.9924  -14.3508 C   0  0  0  0  0  0  0  0  0  0  0  0
   27.2818  -19.2478  -15.0894 O   0  0  0  0  0  0  0  0  0  0  0  0
   25.4263  -20.5368  -15.0688 N   0  0  0  0  0  0  0  0  0  0  0  0
   25.3307  -20.3710  -16.5201 C   0  0  0  0  0  0  0  0  0  0  0  0
   24.3131  -19.3705  -16.8518 C   0  0  0  0  0  0  0  0  0  0  0  0
   23.1515  -19.4970  -16.3967 O   0  0  0  0  0  0  0  0  0  0  0  0
   24.5865  -18.2797  -17.6562 O   0  0  0  0  0  0  0  0  0  0  0  0
  2  1  1  6
  3  2  1  0
  4  5  1  1
  4  2  1  0
  6  4  1  0
  7  6  2  0
  9 10  1  0
  9  8  1  0
 10 11  1  6
 12 10  1  0
 12 13  1  6
 13  6  1  0
 14 12  1  0
 15 14  2  0
 16 14  1  0
 17 16  1  0
 18 17  1  0
 19 18  2  0
 20 18  1  0
M  END
$$$$
