TIG.pdb
     RDKit          3D

 20 19  0  0  1  0  0  0  0  0999 V2000
   19.6232   -9.5632  -19.4882 C   0  0  0  0  0  0  0  0  0  0  0  0
   19.0170  -10.9297  -19.4973 C   0  0  1  0  0  0  0  0  0  0  0  0
   18.8464  -11.3726  -20.8105 O   0  0  0  0  0  0  0  0  0  0  0  0
   19.8440  -11.9638  -18.7828 C   0  0  2  0  0  0  0  0  0  0  0  0
   19.1191  -13.2235  -18.8482 N   0  0  0  0  0  0  0  0  0  0  0  0
   20.0865  -11.5963  -17.3596 C   0  0  0  0  0  0  0  0  0  0  0  0
   19.1400  -11.6736  -16.5705 O   0  0  0  0  0  0  0  0  0  0  0  0
   23.6311  -13.6865  -15.4406 C   0  0  0  0  0  0  0  0  0  0  0  0
   22.6329  -12.7801  -14.7606 C   0  0  0  0  0  0  0  0  0  0  0  0
   22.9253  -11.3013  -15.0464 C   0  0  2  0  0  0  0  0  0  0  0  0
   23.2598  -10.7169  -13.6954 C   0  0  0  0  0  0  0  0  0  0  0  0
   21.6861  -10.6970  -15.5829 C   0  0  2  0  0  0  0  0  0  0  0  0
   21.3267  -11.1753  -16.8986 N   0  0  0  0  0  0  0  0  0  0  0  0
   21.7305   -9.2367  -15.6645 C   0  0  0  0  0  0  0  0  0  0  0  0
   22.6396   -8.6566  -16.3838 O   0  0  0  0  0  0  0  0  0  0  0  0
   20.8620   -8.3129  -15.0322 N   0  0  0  0  0  0  0  0  0  0  0  0
   21.0848   -6.8717  -15.1616 C   0  0  0  0  0  0  0  0  0  0  0  0
   21.6167   -6.3250  -13.9107 C   0  0  0  0  0  0  0  0  0  0  0  0
   21.8780   -5.1010  -13.8337 O   0  0  0  0  0  0  0  0  0  0  0  0
   21.8446   -7.1148  -12.7990 O   0  0  0  0  0  0  0  0  0  0  0  0
  2  1  1  6
  3  2  1  0
  4  5  1  1
  4  2  1  0
  6  4  1  0
  7  6  2  0
  9 10  1  0
  9  8  1  0
 10 11  1  1
 12 10  1  0
 12 13  1  6
 13  6  1  0
 14 12  1  0
 15 14  2  0
 16 14  1  0
 17 16  1  0
 18 17  1  0
 19 18  2  0
 20 18  1  0
M  END
$$$$
