TIG.pdb
     RDKit          3D

 20 19  0  0  1  0  0  0  0  0999 V2000
   19.8186   -8.3855  -20.4353 C   0  0  0  0  0  0  0  0  0  0  0  0
   19.3218   -9.7955  -20.4257 C   0  0  1  0  0  0  0  0  0  0  0  0
   19.3035  -10.3089  -21.7241 O   0  0  0  0  0  0  0  0  0  0  0  0
   20.1583  -10.7266  -19.5908 C   0  0  2  0  0  0  0  0  0  0  0  0
   19.5779  -12.0557  -19.7051 N   0  0  0  0  0  0  0  0  0  0  0  0
   20.1910  -10.3134  -18.1599 C   0  0  0  0  0  0  0  0  0  0  0  0
   19.1530  -10.4223  -17.5001 O   0  0  0  0  0  0  0  0  0  0  0  0
   23.6806  -12.2061  -15.0107 C   0  0  0  0  0  0  0  0  0  0  0  0
   22.4497  -11.4746  -15.4903 C   0  0  0  0  0  0  0  0  0  0  0  0
   22.6611   -9.9551  -15.4965 C   0  0  2  0  0  0  0  0  0  0  0  0
   22.6597   -9.5700  -14.0369 C   0  0  0  0  0  0  0  0  0  0  0  0
   21.5084   -9.3470  -16.1966 C   0  0  2  0  0  0  0  0  0  0  0  0
   21.3366   -9.8164  -17.5527 N   0  0  0  0  0  0  0  0  0  0  0  0
   21.5628   -7.8861  -16.2616 C   0  0  0  0  0  0  0  0  0  0  0  0
   22.5296   -7.3026  -16.8982 O   0  0  0  0  0  0  0  0  0  0  0  0
   20.6472   -6.9651  -15.6952 N   0  0  0  0  0  0  0  0  0  0  0  0
   20.8709   -5.5232  -15.8137 C   0  0  0  0  0  0  0  0  0  0  0  0
   21.5694   -5.0178  -14.6291 C   0  0  0  0  0  0  0  0  0  0  0  0
   21.8204   -5.7984  -13.6804 O   0  0  0  0  0  0  0  0  0  0  0  0
   21.9675   -3.6987  -14.5150 O   0  0  0  0  0  0  0  0  0  0  0  0
  2  1  1  6
  3  2  1  0
  4  5  1  1
  4  2  1  0
  6  4  1  0
  7  6  2  0
  9 10  1  0
  9  8  1  0
 10 11  1  1
 12 10  1  0
 12 13  1  6
 13  6  1  0
 14 12  1  0
 15 14  2  0
 16 14  1  0
 17 16  1  0
 18 17  1  0
 19 18  2  0
 20 18  1  0
M  END
$$$$
