TIG.pdb
     RDKit          3D

 20 19  0  0  1  0  0  0  0  0999 V2000
   18.5163  -10.5159  -19.7410 C   0  0  0  0  0  0  0  0  0  0  0  0
   18.8711  -10.4671  -18.2896 C   0  0  1  0  0  0  0  0  0  0  0  0
   19.7041  -11.5385  -17.9608 O   0  0  0  0  0  0  0  0  0  0  0  0
   19.5854   -9.2069  -17.8828 C   0  0  2  0  0  0  0  0  0  0  0  0
   20.8042   -9.1219  -18.6725 N   0  0  0  0  0  0  0  0  0  0  0  0
   19.9246   -9.2029  -16.4322 C   0  0  0  0  0  0  0  0  0  0  0  0
   19.0340   -9.4906  -15.6268 O   0  0  0  0  0  0  0  0  0  0  0  0
   25.2222  -10.1618  -15.0355 C   0  0  0  0  0  0  0  0  0  0  0  0
   24.0083   -9.2758  -15.1832 C   0  0  0  0  0  0  0  0  0  0  0  0
   22.8176   -9.8085  -14.3757 C   0  0  2  0  0  0  0  0  0  0  0  0
   22.5346  -11.1650  -14.9746 C   0  0  0  0  0  0  0  0  0  0  0  0
   21.6789   -8.8916  -14.6020 C   0  0  2  0  0  0  0  0  0  0  0  0
   21.1935   -8.8902  -15.9634 N   0  0  0  0  0  0  0  0  0  0  0  0
   21.9667   -7.4989  -14.2574 C   0  0  0  0  0  0  0  0  0  0  0  0
   22.2701   -7.1842  -13.0369 O   0  0  0  0  0  0  0  0  0  0  0  0
   21.9646   -6.3795  -15.1259 N   0  0  0  0  0  0  0  0  0  0  0  0
   22.3892   -5.0631  -14.6464 C   0  0  0  0  0  0  0  0  0  0  0  0
   21.2220   -4.2393  -14.3216 C   0  0  0  0  0  0  0  0  0  0  0  0
   20.0804   -4.7583  -14.3231 O   0  0  0  0  0  0  0  0  0  0  0  0
   21.3310   -2.8967  -14.0101 O   0  0  0  0  0  0  0  0  0  0  0  0
  2  1  1  6
  3  2  1  0
  4  5  1  6
  4  2  1  0
  6  4  1  0
  7  6  2  0
  9 10  1  0
  9  8  1  0
 10 11  1  6
 12 10  1  0
 12 13  1  6
 13  6  1  0
 14 12  1  0
 15 14  2  0
 16 14  1  0
 17 16  1  0
 18 17  1  0
 19 18  2  0
 20 18  1  0
M  END
$$$$
