TIG.pdb
     RDKit          3D

 20 19  0  0  1  0  0  0  0  0999 V2000
   21.9327   -5.6711  -19.3030 C   0  0  0  0  0  0  0  0  0  0  0  0
   21.6752   -6.9628  -20.0101 C   0  0  1  0  0  0  0  0  0  0  0  0
   22.1721   -6.9061  -21.3138 O   0  0  0  0  0  0  0  0  0  0  0  0
   22.3080   -8.1544  -19.3441 C   0  0  2  0  0  0  0  0  0  0  0  0
   22.0986   -9.3022  -20.2130 N   0  0  0  0  0  0  0  0  0  0  0  0
   21.7150   -8.4231  -18.0042 C   0  0  0  0  0  0  0  0  0  0  0  0
   20.5390   -8.7961  -17.9538 O   0  0  0  0  0  0  0  0  0  0  0  0
   21.7233  -11.3235  -15.1271 C   0  0  0  0  0  0  0  0  0  0  0  0
   23.0234  -10.5572  -15.1823 C   0  0  0  0  0  0  0  0  0  0  0  0
   22.8776   -9.1520  -14.5841 C   0  0  2  0  0  0  0  0  0  0  0  0
   22.2435   -9.3829  -13.2338 C   0  0  0  0  0  0  0  0  0  0  0  0
   21.9671   -8.3853  -15.4627 C   0  0  2  0  0  0  0  0  0  0  0  0
   22.4333   -8.2695  -16.8259 N   0  0  0  0  0  0  0  0  0  0  0  0
   21.7019   -7.0252  -14.9926 C   0  0  0  0  0  0  0  0  0  0  0  0
   22.6858   -6.2625  -14.6312 O   0  0  0  0  0  0  0  0  0  0  0  0
   20.4430   -6.3857  -14.8750 N   0  0  0  0  0  0  0  0  0  0  0  0
   20.3425   -5.0334  -14.3234 C   0  0  0  0  0  0  0  0  0  0  0  0
   20.2743   -4.0469  -15.4044 C   0  0  0  0  0  0  0  0  0  0  0  0
   20.9503   -4.2242  -16.4456 O   0  0  0  0  0  0  0  0  0  0  0  0
   19.4848   -2.9150  -15.3206 O   0  0  0  0  0  0  0  0  0  0  0  0
  2  1  1  1
  3  2  1  0
  4  5  1  6
  4  2  1  0
  6  4  1  0
  7  6  2  0
  9 10  1  0
  9  8  1  0
 10 11  1  1
 12 10  1  0
 12 13  1  6
 13  6  1  0
 14 12  1  0
 15 14  2  0
 16 14  1  0
 17 16  1  0
 18 17  1  0
 19 18  2  0
 20 18  1  0
M  END
$$$$
