TIG.pdb
     RDKit          3D

 20 19  0  0  1  0  0  0  0  0999 V2000
   18.4258  -24.4521  -10.0067 C   0  0  0  0  0  0  0  0  0  0  0  0
   18.2569  -24.0873   -8.5668 C   0  0  1  0  0  0  0  0  0  0  0  0
   17.8319  -25.1978   -7.8349 O   0  0  0  0  0  0  0  0  0  0  0  0
   19.5171  -23.5824   -7.9182 C   0  0  2  0  0  0  0  0  0  0  0  0
   19.2295  -23.3773   -6.5069 N   0  0  0  0  0  0  0  0  0  0  0  0
   19.9835  -22.3054   -8.5272 C   0  0  0  0  0  0  0  0  0  0  0  0
   19.3962  -21.2649   -8.2158 O   0  0  0  0  0  0  0  0  0  0  0  0
   25.0537  -21.0414   -8.6136 C   0  0  0  0  0  0  0  0  0  0  0  0
   23.5577  -20.8625   -8.7156 C   0  0  0  0  0  0  0  0  0  0  0  0
   23.0604  -21.0655  -10.1527 C   0  0  2  0  0  0  0  0  0  0  0  0
   23.5443  -19.8426  -10.8937 C   0  0  0  0  0  0  0  0  0  0  0  0
   21.5820  -21.0990  -10.1127 C   0  0  2  0  0  0  0  0  0  0  0  0
   21.0436  -22.2489   -9.4222 N   0  0  0  0  0  0  0  0  0  0  0  0
   20.9563  -21.0726  -11.4352 C   0  0  0  0  0  0  0  0  0  0  0  0
   20.8545  -22.1658  -12.1245 O   0  0  0  0  0  0  0  0  0  0  0  0
   20.4087  -19.9509  -12.1057 N   0  0  0  0  0  0  0  0  0  0  0  0
   19.8222  -20.0928  -13.4395 C   0  0  0  0  0  0  0  0  0  0  0  0
   20.7465  -19.5879  -14.4579 C   0  0  0  0  0  0  0  0  0  0  0  0
   21.4402  -18.5724  -14.2130 O   0  0  0  0  0  0  0  0  0  0  0  0
   20.8855  -20.1941  -15.6927 O   0  0  0  0  0  0  0  0  0  0  0  0
  2  1  1  6
  3  2  1  0
  4  5  1  1
  4  2  1  0
  6  4  1  0
  7  6  2  0
  9 10  1  0
  9  8  1  0
 10 11  1  6
 12 10  1  0
 12 13  1  6
 13  6  1  0
 14 12  1  0
 15 14  2  0
 16 14  1  0
 17 16  1  0
 18 17  1  0
 19 18  2  0
 20 18  1  0
M  END
$$$$
