PDP.pdb
     RDKit          3D

 23 24  0  0  1  0  0  0  0  0999 V2000
    7.9616  -14.9634   18.7187 N   0  0  0  0  0  0  0  0  0  0  0  0
    7.4213  -13.7233   18.2517 C   0  0  0  0  0  0  0  0  0  0  0  0
    8.0504  -12.6240   19.0797 C   0  0  0  0  0  0  0  0  0  0  0  0
    9.2310  -13.3189   19.7067 C   0  0  0  0  0  0  0  0  0  0  0  0
    8.6831  -14.7180   19.9517 C   0  0  1  0  0  0  0  0  0  0  0  0
    7.7310  -14.7454   21.0939 C   0  0  0  0  0  0  0  0  0  0  0  0
    6.4986  -14.9218   20.8828 O   0  0  0  0  0  0  0  0  0  0  0  0
    8.1365  -14.5817   22.4355 N   0  0  0  0  0  0  0  0  0  0  0  0
    7.3673  -15.1181   23.5815 C   0  0  1  0  0  0  0  0  0  0  0  0
    7.5100  -16.6325   23.3681 C   0  0  0  0  0  0  0  0  0  0  0  0
    6.9227  -17.4629   24.3949 C   0  0  0  0  0  0  0  0  0  0  0  0
    7.6739  -18.2355   25.0446 O   0  0  0  0  0  0  0  0  0  0  0  0
    7.9948  -14.6393   24.8111 C   0  0  0  0  0  0  0  0  0  0  0  0
    9.2000  -15.0263   25.0333 O   0  0  0  0  0  0  0  0  0  0  0  0
    5.5775  -17.4383   24.6848 O   0  0  0  0  0  0  0  0  0  0  0  0
    7.4268  -13.7983   25.7762 N   0  0  0  0  0  0  0  0  0  0  0  0
    6.0817  -13.2621   25.7903 C   0  0  0  0  0  0  0  0  0  0  0  0
    6.2807  -11.8715   26.4543 C   0  0  0  0  0  0  0  0  0  0  0  0
    7.1747  -12.2879   27.6054 C   0  0  0  0  0  0  0  0  0  0  0  0
    8.0884  -13.2863   26.9533 C   0  0  1  0  0  0  0  0  0  0  0  0
    8.5065  -14.3625   27.8770 C   0  0  0  0  0  0  0  0  0  0  0  0
    8.0320  -15.5096   27.6783 O   0  0  0  0  0  0  0  0  0  0  0  0
    9.3749  -14.1962   28.9349 O   0  0  0  0  0  0  0  0  0  0  0  0
  1  2  1  0
  3  2  1  0
  4  5  1  0
  4  3  1  0
  5  1  1  0
  6  7  2  0
  5  6  1  1
  8  6  1  0
  9  8  1  0
  9 10  1  1
 11 15  1  0
 11 10  1  0
 12 11  2  0
 13  9  1  0
 14 13  2  0
 16 13  1  0
 16 17  1  0
 18 17  1  0
 19 18  1  0
 20 19  1  0
 20 16  1  0
 20 21  1  1
 22 21  2  0
 23 21  1  0
M  END
$$$$
