PDP.pdb
     RDKit          3D

 23 24  0  0  1  0  0  0  0  0999 V2000
    8.6545  -14.9578   19.3445 N   0  0  0  0  0  0  0  0  0  0  0  0
    7.5717  -14.4461   18.5611 C   0  0  0  0  0  0  0  0  0  0  0  0
    7.2800  -13.0492   19.0642 C   0  0  0  0  0  0  0  0  0  0  0  0
    8.5185  -12.7191   19.8560 C   0  0  0  0  0  0  0  0  0  0  0  0
    8.8739  -14.0675   20.4671 C   0  0  1  0  0  0  0  0  0  0  0  0
    7.9497  -14.4323   21.5737 C   0  0  0  0  0  0  0  0  0  0  0  0
    6.8415  -13.8385   21.6907 O   0  0  0  0  0  0  0  0  0  0  0  0
    8.2477  -15.4307   22.5253 N   0  0  0  0  0  0  0  0  0  0  0  0
    7.4535  -15.6316   23.7588 C   0  0  1  0  0  0  0  0  0  0  0  0
    7.5068  -17.1587   23.9157 C   0  0  0  0  0  0  0  0  0  0  0  0
    6.8907  -17.6822   25.1136 C   0  0  0  0  0  0  0  0  0  0  0  0
    5.7314  -17.2939   25.4112 O   0  0  0  0  0  0  0  0  0  0  0  0
    8.1131  -14.9091   24.8441 C   0  0  0  0  0  0  0  0  0  0  0  0
    9.3894  -15.0339   24.9294 O   0  0  0  0  0  0  0  0  0  0  0  0
    7.5247  -18.5855   25.9360 O   0  0  0  0  0  0  0  0  0  0  0  0
    7.5059  -14.0888   25.8031 N   0  0  0  0  0  0  0  0  0  0  0  0
    6.1071  -13.7240   25.8865 C   0  0  0  0  0  0  0  0  0  0  0  0
    6.1689  -12.2821   26.4621 C   0  0  0  0  0  0  0  0  0  0  0  0
    7.1818  -12.5143   27.5657 C   0  0  0  0  0  0  0  0  0  0  0  0
    8.1716  -13.4287   26.9016 C   0  0  1  0  0  0  0  0  0  0  0  0
    8.7833  -14.3871   27.8469 C   0  0  0  0  0  0  0  0  0  0  0  0
    8.4714  -15.5986   27.7223 O   0  0  0  0  0  0  0  0  0  0  0  0
    9.6662  -14.0465   28.8496 O   0  0  0  0  0  0  0  0  0  0  0  0
  1  2  1  0
  3  2  1  0
  4  5  1  0
  4  3  1  0
  5  1  1  0
  6  7  2  0
  5  6  1  1
  8  6  1  0
  9  8  1  0
  9 10  1  1
 11 15  1  0
 11 10  1  0
 12 11  2  0
 13  9  1  0
 14 13  2  0
 16 13  1  0
 16 17  1  0
 18 17  1  0
 19 18  1  0
 20 19  1  0
 20 16  1  0
 20 21  1  1
 22 21  2  0
 23 21  1  0
M  END
$$$$
