PDP.pdb
     RDKit          3D

 23 24  0  0  1  0  0  0  0  0999 V2000
    8.0274  -15.1982   19.0677 N   0  0  0  0  0  0  0  0  0  0  0  0
    7.2513  -14.1174   18.5408 C   0  0  0  0  0  0  0  0  0  0  0  0
    7.7422  -12.8508   19.2076 C   0  0  0  0  0  0  0  0  0  0  0  0
    9.0661  -13.2760   19.7876 C   0  0  0  0  0  0  0  0  0  0  0  0
    8.7837  -14.7126   20.2050 C   0  0  1  0  0  0  0  0  0  0  0  0
    7.9354  -14.7759   21.4248 C   0  0  0  0  0  0  0  0  0  0  0  0
    6.7260  -14.4167   21.3706 O   0  0  0  0  0  0  0  0  0  0  0  0
    8.4167  -15.2269   22.6722 N   0  0  0  0  0  0  0  0  0  0  0  0
    7.5666  -15.3118   23.8816 C   0  0  1  0  0  0  0  0  0  0  0  0
    7.5336  -16.8271   24.1308 C   0  0  0  0  0  0  0  0  0  0  0  0
    6.6465  -17.5789   23.2726 C   0  0  0  0  0  0  0  0  0  0  0  0
    5.4279  -17.6448   23.5791 O   0  0  0  0  0  0  0  0  0  0  0  0
    8.2213  -14.5581   24.9485 C   0  0  0  0  0  0  0  0  0  0  0  0
    9.4999  -14.6611   25.0279 O   0  0  0  0  0  0  0  0  0  0  0  0
    7.0861  -18.2222   22.1380 O   0  0  0  0  0  0  0  0  0  0  0  0
    7.6071  -13.7289   25.8953 N   0  0  0  0  0  0  0  0  0  0  0  0
    6.2255  -13.2960   25.9175 C   0  0  0  0  0  0  0  0  0  0  0  0
    6.3288  -11.8717   26.5299 C   0  0  0  0  0  0  0  0  0  0  0  0
    7.2713  -12.1783   27.6768 C   0  0  0  0  0  0  0  0  0  0  0  0
    8.2475  -13.1270   27.0412 C   0  0  1  0  0  0  0  0  0  0  0  0
    8.7621  -14.1350   27.9926 C   0  0  0  0  0  0  0  0  0  0  0  0
    8.3577  -15.3174   27.8547 O   0  0  0  0  0  0  0  0  0  0  0  0
    9.6490  -13.8700   29.0145 O   0  0  0  0  0  0  0  0  0  0  0  0
  1  2  1  0
  3  2  1  0
  4  5  1  0
  4  3  1  0
  5  1  1  0
  6  7  2  0
  5  6  1  1
  8  6  1  0
  9  8  1  0
  9 10  1  1
 11 15  1  0
 11 10  1  0
 12 11  2  0
 13  9  1  0
 14 13  2  0
 16 13  1  0
 16 17  1  0
 18 17  1  0
 19 18  1  0
 20 19  1  0
 20 16  1  0
 20 21  1  1
 22 21  2  0
 23 21  1  0
M  END
$$$$
