PDP.pdb
     RDKit          3D

 23 24  0  0  1  0  0  0  0  0999 V2000
    8.0576  -14.9798   18.9317 N   0  0  0  0  0  0  0  0  0  0  0  0
    7.1631  -13.9602   18.4754 C   0  0  0  0  0  0  0  0  0  0  0  0
    7.5221  -12.6899   19.2151 C   0  0  0  0  0  0  0  0  0  0  0  0
    8.8910  -13.0026   19.7612 C   0  0  0  0  0  0  0  0  0  0  0  0
    8.7705  -14.4837   20.0922 C   0  0  1  0  0  0  0  0  0  0  0  0
    7.9485  -14.7115   21.3105 C   0  0  0  0  0  0  0  0  0  0  0  0
    6.7050  -14.4942   21.2812 O   0  0  0  0  0  0  0  0  0  0  0  0
    8.4927  -15.1691   22.5294 N   0  0  0  0  0  0  0  0  0  0  0  0
    7.6714  -15.4171   23.7363 C   0  0  1  0  0  0  0  0  0  0  0  0
    7.6435  -16.9522   23.7815 C   0  0  0  0  0  0  0  0  0  0  0  0
    7.0523  -17.5284   24.9677 C   0  0  0  0  0  0  0  0  0  0  0  0
    5.8493  -17.2657   25.2269 O   0  0  0  0  0  0  0  0  0  0  0  0
    8.3518  -14.8109   24.8786 C   0  0  0  0  0  0  0  0  0  0  0  0
    9.5875  -15.1217   25.0465 O   0  0  0  0  0  0  0  0  0  0  0  0
    7.7556  -18.3497   25.8192 O   0  0  0  0  0  0  0  0  0  0  0  0
    7.8047  -13.9218   25.8120 N   0  0  0  0  0  0  0  0  0  0  0  0
    6.4974  -13.3003   25.7700 C   0  0  0  0  0  0  0  0  0  0  0  0
    6.7616  -11.9160   26.4245 C   0  0  0  0  0  0  0  0  0  0  0  0
    7.5845  -12.3727   27.6128 C   0  0  0  0  0  0  0  0  0  0  0  0
    8.4549  -13.4367   27.0067 C   0  0  1  0  0  0  0  0  0  0  0  0
    8.7690  -14.5242   27.9579 C   0  0  0  0  0  0  0  0  0  0  0  0
    8.2117  -15.6350   27.7680 O   0  0  0  0  0  0  0  0  0  0  0  0
    9.6249  -14.4053   29.0322 O   0  0  0  0  0  0  0  0  0  0  0  0
  1  2  1  0
  3  2  1  0
  4  5  1  0
  4  3  1  0
  5  1  1  0
  6  7  2  0
  5  6  1  1
  8  6  1  0
  9  8  1  0
  9 10  1  1
 11 15  1  0
 11 10  1  0
 12 11  2  0
 13  9  1  0
 14 13  2  0
 16 13  1  0
 16 17  1  0
 18 17  1  0
 19 18  1  0
 20 19  1  0
 20 16  1  0
 20 21  1  1
 22 21  2  0
 23 21  1  0
M  END
$$$$
