PDP.pdb
     RDKit          3D

 23 24  0  0  1  0  0  0  0  0999 V2000
    8.9518  -14.8011   19.5384 N   0  0  0  0  0  0  0  0  0  0  0  0
    7.8456  -14.8658   18.6328 C   0  0  0  0  0  0  0  0  0  0  0  0
    7.0947  -13.5576   18.7536 C   0  0  0  0  0  0  0  0  0  0  0  0
    8.0910  -12.6695   19.4525 C   0  0  0  0  0  0  0  0  0  0  0  0
    8.7797  -13.6455   20.3964 C   0  0  1  0  0  0  0  0  0  0  0  0
    7.9083  -14.0097   21.5452 C   0  0  0  0  0  0  0  0  0  0  0  0
    6.9275  -13.2752   21.8498 O   0  0  0  0  0  0  0  0  0  0  0  0
    8.1199  -15.1598   22.3350 N   0  0  0  0  0  0  0  0  0  0  0  0
    7.3726  -15.4282   23.5849 C   0  0  1  0  0  0  0  0  0  0  0  0
    7.3336  -16.9637   23.5983 C   0  0  0  0  0  0  0  0  0  0  0  0
    6.8113  -17.5616   24.8059 C   0  0  0  0  0  0  0  0  0  0  0  0
    5.5653  -17.5696   24.9814 O   0  0  0  0  0  0  0  0  0  0  0  0
    8.1277  -14.8529   24.6956 C   0  0  0  0  0  0  0  0  0  0  0  0
    9.3535  -15.2209   24.8130 O   0  0  0  0  0  0  0  0  0  0  0  0
    7.6251  -18.1191   25.7657 O   0  0  0  0  0  0  0  0  0  0  0  0
    7.6622  -13.9377   25.6480 N   0  0  0  0  0  0  0  0  0  0  0  0
    6.3931  -13.2405   25.6478 C   0  0  0  0  0  0  0  0  0  0  0  0
    6.7578  -11.8773   26.2982 C   0  0  0  0  0  0  0  0  0  0  0  0
    7.5880  -12.3872   27.4595 C   0  0  0  0  0  0  0  0  0  0  0  0
    8.3757  -13.4975   26.8239 C   0  0  1  0  0  0  0  0  0  0  0  0
    8.6538  -14.6062   27.7617 C   0  0  0  0  0  0  0  0  0  0  0  0
    8.0433  -15.6887   27.5720 O   0  0  0  0  0  0  0  0  0  0  0  0
    9.5305  -14.5357   28.8235 O   0  0  0  0  0  0  0  0  0  0  0  0
  1  2  1  0
  3  2  1  0
  4  5  1  0
  4  3  1  0
  5  1  1  0
  6  7  2  0
  5  6  1  1
  8  6  1  0
  9  8  1  0
  9 10  1  1
 11 15  1  0
 11 10  1  0
 12 11  2  0
 13  9  1  0
 14 13  2  0
 16 13  1  0
 16 17  1  0
 18 17  1  0
 19 18  1  0
 20 19  1  0
 20 16  1  0
 20 21  1  1
 22 21  2  0
 23 21  1  0
M  END
$$$$
