PDP.pdb
     RDKit          3D

 23 24  0  0  1  0  0  0  0  0999 V2000
    8.1186  -14.7181   18.8848 N   0  0  0  0  0  0  0  0  0  0  0  0
    7.2382  -13.6563   18.5032 C   0  0  0  0  0  0  0  0  0  0  0  0
    7.6545  -12.4301   19.2861 C   0  0  0  0  0  0  0  0  0  0  0  0
    9.0309  -12.8022   19.7730 C   0  0  0  0  0  0  0  0  0  0  0  0
    8.8807  -14.2930   20.0422 C   0  0  1  0  0  0  0  0  0  0  0  0
    8.0914  -14.5541   21.2754 C   0  0  0  0  0  0  0  0  0  0  0  0
    6.8415  -14.3748   21.2732 O   0  0  0  0  0  0  0  0  0  0  0  0
    8.6744  -15.0031   22.4794 N   0  0  0  0  0  0  0  0  0  0  0  0
    7.8770  -15.4002   23.6623 C   0  0  1  0  0  0  0  0  0  0  0  0
    8.1906  -16.9009   23.7571 C   0  0  0  0  0  0  0  0  0  0  0  0
    7.5203  -17.7383   22.7885 C   0  0  0  0  0  0  0  0  0  0  0  0
    6.2913  -17.5581   22.5878 O   0  0  0  0  0  0  0  0  0  0  0  0
    8.3540  -14.6297   24.8086 C   0  0  0  0  0  0  0  0  0  0  0  0
    9.6217  -14.6331   25.0198 O   0  0  0  0  0  0  0  0  0  0  0  0
    8.1760  -18.7209   22.0823 O   0  0  0  0  0  0  0  0  0  0  0  0
    7.5792  -13.8816   25.7037 N   0  0  0  0  0  0  0  0  0  0  0  0
    6.1581  -13.6152   25.6236 C   0  0  0  0  0  0  0  0  0  0  0  0
    6.0478  -12.1903   26.2333 C   0  0  0  0  0  0  0  0  0  0  0  0
    6.9345  -12.3862   27.4470 C   0  0  0  0  0  0  0  0  0  0  0  0
    8.0594  -13.2110   26.8891 C   0  0  1  0  0  0  0  0  0  0  0  0
    8.6195  -14.1535   27.8812 C   0  0  0  0  0  0  0  0  0  0  0  0
    9.2699  -13.6634   28.8389 O   0  0  0  0  0  0  0  0  0  0  0  0
    8.4791  -15.5241   27.8290 O   0  0  0  0  0  0  0  0  0  0  0  0
  1  2  1  0
  3  2  1  0
  4  5  1  0
  4  3  1  0
  5  1  1  0
  6  7  2  0
  5  6  1  1
  8  6  1  0
  9  8  1  0
  9 10  1  1
 11 15  1  0
 11 10  1  0
 12 11  2  0
 13  9  1  0
 14 13  2  0
 16 13  1  0
 16 17  1  0
 18 17  1  0
 19 18  1  0
 20 19  1  0
 20 16  1  0
 20 21  1  1
 22 21  2  0
 23 21  1  0
M  END
$$$$
