PDP.pdb
     RDKit          3D

 23 24  0  0  1  0  0  0  0  0999 V2000
    7.8942  -15.0506   19.1717 N   0  0  0  0  0  0  0  0  0  0  0  0
    7.1538  -13.9085   18.7297 C   0  0  0  0  0  0  0  0  0  0  0  0
    7.7382  -12.7012   19.4302 C   0  0  0  0  0  0  0  0  0  0  0  0
    9.0617  -13.2193   19.9301 C   0  0  0  0  0  0  0  0  0  0  0  0
    8.7227  -14.6581   20.2945 C   0  0  1  0  0  0  0  0  0  0  0  0
    7.9251  -14.7366   21.5472 C   0  0  0  0  0  0  0  0  0  0  0  0
    6.7539  -14.2657   21.5790 O   0  0  0  0  0  0  0  0  0  0  0  0
    8.4146  -15.3229   22.7337 N   0  0  0  0  0  0  0  0  0  0  0  0
    7.6106  -15.4273   23.9727 C   0  0  1  0  0  0  0  0  0  0  0  0
    7.5815  -16.9468   24.1955 C   0  0  0  0  0  0  0  0  0  0  0  0
    6.7291  -17.6906   23.2961 C   0  0  0  0  0  0  0  0  0  0  0  0
    5.4824  -17.5580   23.4035 O   0  0  0  0  0  0  0  0  0  0  0  0
    8.3080  -14.6951   25.0274 C   0  0  0  0  0  0  0  0  0  0  0  0
    9.5788  -14.8695   25.1086 O   0  0  0  0  0  0  0  0  0  0  0  0
    7.2309  -18.5346   22.3317 O   0  0  0  0  0  0  0  0  0  0  0  0
    7.7427  -13.8174   25.9609 N   0  0  0  0  0  0  0  0  0  0  0  0
    6.3717  -13.3541   26.0112 C   0  0  0  0  0  0  0  0  0  0  0  0
    6.5245  -11.9101   26.5642 C   0  0  0  0  0  0  0  0  0  0  0  0
    7.4982  -12.1931   27.6909 C   0  0  0  0  0  0  0  0  0  0  0  0
    8.4332  -13.1863   27.0611 C   0  0  1  0  0  0  0  0  0  0  0  0
    8.9585  -14.1682   28.0337 C   0  0  0  0  0  0  0  0  0  0  0  0
    8.5283  -15.3467   27.9528 O   0  0  0  0  0  0  0  0  0  0  0  0
    9.8816  -13.8828   29.0173 O   0  0  0  0  0  0  0  0  0  0  0  0
  1  2  1  0
  3  2  1  0
  4  5  1  0
  4  3  1  0
  5  1  1  0
  6  7  2  0
  5  6  1  1
  8  6  1  0
  9  8  1  0
  9 10  1  1
 11 15  1  0
 11 10  1  0
 12 11  2  0
 13  9  1  0
 14 13  2  0
 16 13  1  0
 16 17  1  0
 18 17  1  0
 19 18  1  0
 20 19  1  0
 20 16  1  0
 20 21  1  1
 22 21  2  0
 23 21  1  0
M  END
$$$$
