PDP.pdb
     RDKit          3D

 23 24  0  0  1  0  0  0  0  0999 V2000
    8.4625  -14.9050   19.2152 N   0  0  0  0  0  0  0  0  0  0  0  0
    7.4399  -14.1271   18.5849 C   0  0  0  0  0  0  0  0  0  0  0  0
    7.4258  -12.7758   19.2656 C   0  0  0  0  0  0  0  0  0  0  0  0
    8.7480  -12.7571   19.9876 C   0  0  0  0  0  0  0  0  0  0  0  0
    8.8999  -14.2116   20.4106 C   0  0  1  0  0  0  0  0  0  0  0  0
    7.9945  -14.5553   21.5392 C   0  0  0  0  0  0  0  0  0  0  0  0
    6.8524  -14.0222   21.6155 O   0  0  0  0  0  0  0  0  0  0  0  0
    8.3475  -15.4673   22.5564 N   0  0  0  0  0  0  0  0  0  0  0  0
    7.5655  -15.6264   23.8037 C   0  0  1  0  0  0  0  0  0  0  0  0
    7.6246  -17.1468   24.0141 C   0  0  0  0  0  0  0  0  0  0  0  0
    7.0943  -17.6212   25.2721 C   0  0  0  0  0  0  0  0  0  0  0  0
    5.8787  -17.4184   25.5257 O   0  0  0  0  0  0  0  0  0  0  0  0
    8.2332  -14.8642   24.8565 C   0  0  0  0  0  0  0  0  0  0  0  0
    9.5059  -15.0117   24.9579 O   0  0  0  0  0  0  0  0  0  0  0  0
    7.8688  -18.2831   26.1974 O   0  0  0  0  0  0  0  0  0  0  0  0
    7.6374  -13.9839   25.7682 N   0  0  0  0  0  0  0  0  0  0  0  0
    6.2568  -13.5476   25.7923 C   0  0  0  0  0  0  0  0  0  0  0  0
    6.3729  -12.0925   26.3247 C   0  0  0  0  0  0  0  0  0  0  0  0
    7.3360  -12.3385   27.4690 C   0  0  0  0  0  0  0  0  0  0  0  0
    8.2994  -13.3221   26.8679 C   0  0  1  0  0  0  0  0  0  0  0  0
    8.8305  -14.2782   27.8628 C   0  0  0  0  0  0  0  0  0  0  0  0
    8.4357  -15.4693   27.7857 O   0  0  0  0  0  0  0  0  0  0  0  0
    9.7228  -13.9562   28.8633 O   0  0  0  0  0  0  0  0  0  0  0  0
  1  2  1  0
  3  2  1  0
  4  5  1  0
  4  3  1  0
  5  1  1  0
  6  7  2  0
  5  6  1  1
  8  6  1  0
  9  8  1  0
  9 10  1  1
 11 15  1  0
 11 10  1  0
 12 11  2  0
 13  9  1  0
 14 13  2  0
 16 13  1  0
 16 17  1  0
 18 17  1  0
 19 18  1  0
 20 19  1  0
 20 16  1  0
 20 21  1  1
 22 21  2  0
 23 21  1  0
M  END
$$$$
