PDP.pdb
     RDKit          3D

 23 24  0  0  1  0  0  0  0  0999 V2000
    8.9836  -14.9435   19.3702 N   0  0  0  0  0  0  0  0  0  0  0  0
    7.9024  -14.7014   18.4645 C   0  0  0  0  0  0  0  0  0  0  0  0
    7.3617  -13.3228   18.7756 C   0  0  0  0  0  0  0  0  0  0  0  0
    8.4675  -12.7133   19.5977 C   0  0  0  0  0  0  0  0  0  0  0  0
    8.9734  -13.9119   20.3884 C   0  0  1  0  0  0  0  0  0  0  0  0
    8.0292  -14.2968   21.4710 C   0  0  0  0  0  0  0  0  0  0  0  0
    6.9244  -13.6963   21.5865 O   0  0  0  0  0  0  0  0  0  0  0  0
    8.3039  -15.3220   22.4008 N   0  0  0  0  0  0  0  0  0  0  0  0
    7.4961  -15.5402   23.6225 C   0  0  1  0  0  0  0  0  0  0  0  0
    7.4993  -17.0728   23.7258 C   0  0  0  0  0  0  0  0  0  0  0  0
    6.9113  -17.6158   24.9291 C   0  0  0  0  0  0  0  0  0  0  0  0
    5.6786  -17.4520   25.1215 O   0  0  0  0  0  0  0  0  0  0  0  0
    8.1719  -14.8779   24.7358 C   0  0  0  0  0  0  0  0  0  0  0  0
    9.4307  -15.1033   24.8641 O   0  0  0  0  0  0  0  0  0  0  0  0
    7.6488  -18.3018   25.8671 O   0  0  0  0  0  0  0  0  0  0  0  0
    7.5977  -14.0177   25.6801 N   0  0  0  0  0  0  0  0  0  0  0  0
    6.2298  -13.5444   25.7182 C   0  0  0  0  0  0  0  0  0  0  0  0
    6.3844  -12.1151   26.3076 C   0  0  0  0  0  0  0  0  0  0  0  0
    7.3365  -12.4325   27.4435 C   0  0  0  0  0  0  0  0  0  0  0  0
    8.2742  -13.4183   26.8064 C   0  0  1  0  0  0  0  0  0  0  0  0
    8.7752  -14.4271   27.7642 C   0  0  0  0  0  0  0  0  0  0  0  0
    8.3211  -15.5949   27.6617 O   0  0  0  0  0  0  0  0  0  0  0  0
    9.6998  -14.1774   28.7561 O   0  0  0  0  0  0  0  0  0  0  0  0
  1  2  1  0
  3  2  1  0
  4  5  1  0
  4  3  1  0
  5  1  1  0
  6  7  2  0
  5  6  1  1
  8  6  1  0
  9  8  1  0
  9 10  1  1
 11 15  1  0
 11 10  1  0
 12 11  2  0
 13  9  1  0
 14 13  2  0
 16 13  1  0
 16 17  1  0
 18 17  1  0
 19 18  1  0
 20 19  1  0
 20 16  1  0
 20 21  1  1
 22 21  2  0
 23 21  1  0
M  END
$$$$
