PDP.pdb
     RDKit          3D

 23 24  0  0  1  0  0  0  0  0999 V2000
    8.3343  -14.9153   18.8845 N   0  0  0  0  0  0  0  0  0  0  0  0
    7.3350  -14.0529   18.3315 C   0  0  0  0  0  0  0  0  0  0  0  0
    7.4489  -12.7242   19.0465 C   0  0  0  0  0  0  0  0  0  0  0  0
    8.8058  -12.8146   19.6951 C   0  0  0  0  0  0  0  0  0  0  0  0
    8.8807  -14.2878   20.0715 C   0  0  1  0  0  0  0  0  0  0  0  0
    8.0151  -14.6035   21.2390 C   0  0  0  0  0  0  0  0  0  0  0  0
    6.7692  -14.4102   21.1702 O   0  0  0  0  0  0  0  0  0  0  0  0
    8.5194  -15.1208   22.4511 N   0  0  0  0  0  0  0  0  0  0  0  0
    7.6643  -15.3949   23.6285 C   0  0  1  0  0  0  0  0  0  0  0  0
    7.7230  -16.9280   23.7033 C   0  0  0  0  0  0  0  0  0  0  0  0
    7.0324  -17.5223   24.8251 C   0  0  0  0  0  0  0  0  0  0  0  0
    7.7157  -18.0679   25.7300 O   0  0  0  0  0  0  0  0  0  0  0  0
    8.2605  -14.7300   24.7850 C   0  0  0  0  0  0  0  0  0  0  0  0
    9.5182  -14.9154   24.9731 O   0  0  0  0  0  0  0  0  0  0  0  0
    5.6607  -17.5127   24.9374 O   0  0  0  0  0  0  0  0  0  0  0  0
    7.6106  -13.9062   25.7125 N   0  0  0  0  0  0  0  0  0  0  0  0
    6.2392  -13.4437   25.6655 C   0  0  0  0  0  0  0  0  0  0  0  0
    6.3369  -12.0341   26.3119 C   0  0  0  0  0  0  0  0  0  0  0  0
    7.2060  -12.3833   27.5036 C   0  0  0  0  0  0  0  0  0  0  0  0
    8.1970  -13.3406   26.9049 C   0  0  1  0  0  0  0  0  0  0  0  0
    8.6357  -14.3779   27.8629 C   0  0  0  0  0  0  0  0  0  0  0  0
    9.3717  -14.0104   28.8135 O   0  0  0  0  0  0  0  0  0  0  0  0
    8.2960  -15.7119   27.7863 O   0  0  0  0  0  0  0  0  0  0  0  0
  1  2  1  0
  3  2  1  0
  4  5  1  0
  4  3  1  0
  5  1  1  0
  6  7  2  0
  5  6  1  1
  8  6  1  0
  9  8  1  0
  9 10  1  1
 11 15  1  0
 11 10  1  0
 12 11  2  0
 13  9  1  0
 14 13  2  0
 16 13  1  0
 16 17  1  0
 18 17  1  0
 19 18  1  0
 20 19  1  0
 20 16  1  0
 20 21  1  1
 22 21  2  0
 23 21  1  0
M  END
$$$$
