PDP.pdb
     RDKit          3D

 23 24  0  0  1  0  0  0  0  0999 V2000
    8.0257  -15.0207   18.9490 N   0  0  0  0  0  0  0  0  0  0  0  0
    7.1346  -14.0006   18.4870 C   0  0  0  0  0  0  0  0  0  0  0  0
    7.4797  -12.7341   19.2397 C   0  0  0  0  0  0  0  0  0  0  0  0
    8.8419  -13.0466   19.8025 C   0  0  0  0  0  0  0  0  0  0  0  0
    8.7211  -14.5301   20.1224 C   0  0  1  0  0  0  0  0  0  0  0  0
    7.8831  -14.7680   21.3277 C   0  0  0  0  0  0  0  0  0  0  0  0
    6.6500  -14.4976   21.3012 O   0  0  0  0  0  0  0  0  0  0  0  0
    8.4004  -15.2931   22.5310 N   0  0  0  0  0  0  0  0  0  0  0  0
    7.5687  -15.5205   23.7348 C   0  0  1  0  0  0  0  0  0  0  0  0
    7.6751  -17.0439   23.9010 C   0  0  0  0  0  0  0  0  0  0  0  0
    7.0091  -17.5904   25.0614 C   0  0  0  0  0  0  0  0  0  0  0  0
    7.7135  -18.0698   25.9873 O   0  0  0  0  0  0  0  0  0  0  0  0
    8.1585  -14.7693   24.8405 C   0  0  0  0  0  0  0  0  0  0  0  0
    9.4274  -14.8871   25.0072 O   0  0  0  0  0  0  0  0  0  0  0  0
    5.6388  -17.6051   25.1879 O   0  0  0  0  0  0  0  0  0  0  0  0
    7.4915  -13.9283   25.7400 N   0  0  0  0  0  0  0  0  0  0  0  0
    6.1115  -13.4940   25.6765 C   0  0  0  0  0  0  0  0  0  0  0  0
    6.1812  -12.0625   26.2766 C   0  0  0  0  0  0  0  0  0  0  0  0
    7.0549  -12.3558   27.4800 C   0  0  0  0  0  0  0  0  0  0  0  0
    8.0651  -13.3129   26.9138 C   0  0  1  0  0  0  0  0  0  0  0  0
    8.5220  -14.3097   27.9057 C   0  0  0  0  0  0  0  0  0  0  0  0
    9.2326  -13.8938   28.8557 O   0  0  0  0  0  0  0  0  0  0  0  0
    8.2250  -15.6553   27.8611 O   0  0  0  0  0  0  0  0  0  0  0  0
  1  2  1  0
  3  2  1  0
  4  5  1  0
  4  3  1  0
  5  1  1  0
  6  7  2  0
  5  6  1  1
  8  6  1  0
  9  8  1  0
  9 10  1  1
 11 15  1  0
 11 10  1  0
 12 11  2  0
 13  9  1  0
 14 13  2  0
 16 13  1  0
 16 17  1  0
 18 17  1  0
 19 18  1  0
 20 19  1  0
 20 16  1  0
 20 21  1  1
 22 21  2  0
 23 21  1  0
M  END
$$$$
