PDP.pdb
     RDKit          3D

 23 24  0  0  1  0  0  0  0  0999 V2000
    8.0887  -15.2049   19.3403 N   0  0  0  0  0  0  0  0  0  0  0  0
    7.1086  -14.3703   18.7151 C   0  0  0  0  0  0  0  0  0  0  0  0
    7.2868  -12.9769   19.2774 C   0  0  0  0  0  0  0  0  0  0  0  0
    8.6542  -13.0480   19.9060 C   0  0  0  0  0  0  0  0  0  0  0  0
    8.6847  -14.4732   20.4405 C   0  0  1  0  0  0  0  0  0  0  0  0
    7.8356  -14.6262   21.6519 C   0  0  0  0  0  0  0  0  0  0  0  0
    6.7577  -13.9761   21.7520 O   0  0  0  0  0  0  0  0  0  0  0  0
    8.1740  -15.4790   22.7240 N   0  0  0  0  0  0  0  0  0  0  0  0
    7.3986  -15.5365   23.9842 C   0  0  1  0  0  0  0  0  0  0  0  0
    7.3516  -17.0487   24.2496 C   0  0  0  0  0  0  0  0  0  0  0  0
    6.4485  -17.7998   23.4075 C   0  0  0  0  0  0  0  0  0  0  0  0
    6.9177  -18.7344   22.7078 O   0  0  0  0  0  0  0  0  0  0  0  0
    8.1325  -14.7870   25.0013 C   0  0  0  0  0  0  0  0  0  0  0  0
    9.4069  -14.9505   25.0323 O   0  0  0  0  0  0  0  0  0  0  0  0
    5.1005  -17.5293   23.3444 O   0  0  0  0  0  0  0  0  0  0  0  0
    7.5985  -13.9033   25.9474 N   0  0  0  0  0  0  0  0  0  0  0  0
    6.2291  -13.4426   26.0429 C   0  0  0  0  0  0  0  0  0  0  0  0
    6.3978  -11.9939   26.5788 C   0  0  0  0  0  0  0  0  0  0  0  0
    7.4116  -12.2660   27.6723 C   0  0  0  0  0  0  0  0  0  0  0  0
    8.3260  -13.2620   27.0175 C   0  0  1  0  0  0  0  0  0  0  0  0
    8.8881  -14.2352   27.9784 C   0  0  0  0  0  0  0  0  0  0  0  0
    8.5084  -15.4294   27.8781 O   0  0  0  0  0  0  0  0  0  0  0  0
    9.7937  -13.9256   28.9708 O   0  0  0  0  0  0  0  0  0  0  0  0
  1  2  1  0
  3  2  1  0
  4  5  1  0
  4  3  1  0
  5  1  1  0
  6  7  2  0
  5  6  1  1
  8  6  1  0
  9  8  1  0
  9 10  1  1
 11 15  1  0
 11 10  1  0
 12 11  2  0
 13  9  1  0
 14 13  2  0
 16 13  1  0
 16 17  1  0
 18 17  1  0
 19 18  1  0
 20 19  1  0
 20 16  1  0
 20 21  1  1
 22 21  2  0
 23 21  1  0
M  END
$$$$
