PDP.pdb
     RDKit          3D

 23 24  0  0  1  0  0  0  0  0999 V2000
    7.8172  -15.0766   19.1665 N   0  0  0  0  0  0  0  0  0  0  0  0
    7.0012  -14.0028   18.6879 C   0  0  0  0  0  0  0  0  0  0  0  0
    7.4543  -12.7476   19.4011 C   0  0  0  0  0  0  0  0  0  0  0  0
    8.7963  -13.1501   19.9553 C   0  0  0  0  0  0  0  0  0  0  0  0
    8.5656  -14.6108   20.3172 C   0  0  1  0  0  0  0  0  0  0  0  0
    7.7293  -14.7509   21.5390 C   0  0  0  0  0  0  0  0  0  0  0  0
    6.5145  -14.4072   21.5139 O   0  0  0  0  0  0  0  0  0  0  0  0
    8.2284  -15.2597   22.7569 N   0  0  0  0  0  0  0  0  0  0  0  0
    7.4112  -15.3497   23.9884 C   0  0  1  0  0  0  0  0  0  0  0  0
    7.3760  -16.8668   24.2262 C   0  0  0  0  0  0  0  0  0  0  0  0
    6.6161  -17.6295   23.2620 C   0  0  0  0  0  0  0  0  0  0  0  0
    5.3697  -17.7150   23.4123 O   0  0  0  0  0  0  0  0  0  0  0  0
    8.0994  -14.6085   25.0430 C   0  0  0  0  0  0  0  0  0  0  0  0
    9.3785  -14.7241   25.0900 O   0  0  0  0  0  0  0  0  0  0  0  0
    7.2052  -18.2624   22.1912 O   0  0  0  0  0  0  0  0  0  0  0  0
    7.5168  -13.7794   26.0096 N   0  0  0  0  0  0  0  0  0  0  0  0
    6.1396  -13.3359   26.0701 C   0  0  0  0  0  0  0  0  0  0  0  0
    6.2702  -11.9154   26.6863 C   0  0  0  0  0  0  0  0  0  0  0  0
    7.2401  -12.2349   27.8065 C   0  0  0  0  0  0  0  0  0  0  0  0
    8.1918  -13.1880   27.1410 C   0  0  1  0  0  0  0  0  0  0  0  0
    8.7233  -14.2046   28.0738 C   0  0  0  0  0  0  0  0  0  0  0  0
    8.3547  -15.3941   27.9013 O   0  0  0  0  0  0  0  0  0  0  0  0
    9.5895  -13.9402   29.1134 O   0  0  0  0  0  0  0  0  0  0  0  0
  1  2  1  0
  3  2  1  0
  4  5  1  0
  4  3  1  0
  5  1  1  0
  6  7  2  0
  5  6  1  1
  8  6  1  0
  9  8  1  0
  9 10  1  1
 11 15  1  0
 11 10  1  0
 12 11  2  0
 13  9  1  0
 14 13  2  0
 16 13  1  0
 16 17  1  0
 18 17  1  0
 19 18  1  0
 20 19  1  0
 20 16  1  0
 20 21  1  1
 22 21  2  0
 23 21  1  0
M  END
$$$$
