EDK.pdb
     RDKit          3D

 27 26  0  0  1  0  0  0  0  0999 V2000
    9.1008  -16.1991   18.9610 N   0  0  0  0  0  0  0  0  0  0  0  0
    8.7084  -17.5318   19.2574 C   0  0  1  0  0  0  0  0  0  0  0  0
    8.9904  -18.4615   18.1178 C   0  0  0  0  0  0  0  0  0  0  0  0
   10.3989  -18.4690   17.6934 C   0  0  0  0  0  0  0  0  0  0  0  0
   10.7370  -19.2855   16.5213 C   0  0  0  0  0  0  0  0  0  0  0  0
   11.6101  -18.9839   15.6982 O   0  0  0  0  0  0  0  0  0  0  0  0
    9.4297  -18.0398   20.4813 C   0  0  0  0  0  0  0  0  0  0  0  0
    9.3451  -19.2542   20.7138 O   0  0  0  0  0  0  0  0  0  0  0  0
   10.0384  -20.4922   16.2971 O   0  0  0  0  0  0  0  0  0  0  0  0
   10.1386  -17.1520   21.2747 N   0  0  0  0  0  0  0  0  0  0  0  0
   10.8544  -17.4052   22.4807 C   0  0  1  0  0  0  0  0  0  0  0  0
   12.2774  -17.8258   22.2555 C   0  0  0  0  0  0  0  0  0  0  0  0
   12.6765  -18.7267   23.3682 C   0  0  0  0  0  0  0  0  0  0  0  0
   12.9756  -18.3139   24.5355 O   0  0  0  0  0  0  0  0  0  0  0  0
   10.5937  -16.4192   23.4915 C   0  0  0  0  0  0  0  0  0  0  0  0
   11.1970  -15.2940   23.3953 O   0  0  0  0  0  0  0  0  0  0  0  0
   12.7453  -20.1064   23.1845 O   0  0  0  0  0  0  0  0  0  0  0  0
    9.7216  -16.5688   24.6028 N   0  0  0  0  0  0  0  0  0  0  0  0
    9.6011  -15.5035   25.5822 C   0  0  1  0  0  0  0  0  0  0  0  0
    8.2965  -14.7756   25.4548 C   0  0  0  0  0  0  0  0  0  0  0  0
    8.1880  -13.5110   26.2342 C   0  0  0  0  0  0  0  0  0  0  0  0
    6.8302  -12.9100   26.0446 C   0  0  0  0  0  0  0  0  0  0  0  0
    6.7571  -11.6416   26.8753 C   0  0  0  0  0  0  0  0  0  0  0  0
    5.4790  -11.0203   26.5884 N   0  0  0  0  0  0  0  0  0  0  0  0
    9.8218  -16.0558   26.9358 C   0  0  0  0  0  0  0  0  0  0  0  0
    9.1786  -17.0707   27.2965 O   0  0  0  0  0  0  0  0  0  0  0  0
   10.7099  -15.5193   27.8567 O   0  0  0  0  0  0  0  0  0  0  0  0
  2  7  1  0
  2  1  1  6
  3  2  1  0
  4  5  1  0
  4  3  1  0
  5  6  2  0
  7 10  1  0
  8  7  2  0
  9  5  1  0
 10 11  1  0
 11 12  1  6
 13 14  2  0
 13 12  1  0
 15 16  2  0
 15 11  1  0
 17 13  1  0
 18 15  1  0
 19 18  1  0
 20 21  1  0
 19 20  1  1
 21 22  1  0
 23 24  1  0
 23 22  1  0
 25 19  1  0
 25 27  1  0
 26 25  2  0
M  END
$$$$
