EDK.pdb
     RDKit          3D

 27 26  0  0  1  0  0  0  0  0999 V2000
   10.8388  -17.7411   16.0305 N   0  0  0  0  0  0  0  0  0  0  0  0
   11.8096  -17.6683   17.0651 C   0  0  1  0  0  0  0  0  0  0  0  0
   12.5990  -16.3974   16.9992 C   0  0  0  0  0  0  0  0  0  0  0  0
   13.5290  -16.3355   15.8611 C   0  0  0  0  0  0  0  0  0  0  0  0
   14.8702  -16.8962   16.0657 C   0  0  0  0  0  0  0  0  0  0  0  0
   15.2245  -17.4803   17.0972 O   0  0  0  0  0  0  0  0  0  0  0  0
   11.1516  -17.7552   18.4200 C   0  0  0  0  0  0  0  0  0  0  0  0
    9.9572  -17.4304   18.4811 O   0  0  0  0  0  0  0  0  0  0  0  0
   15.8320  -16.7748   15.0388 O   0  0  0  0  0  0  0  0  0  0  0  0
   11.8895  -18.1831   19.5122 N   0  0  0  0  0  0  0  0  0  0  0  0
   11.4610  -18.3904   20.8554 C   0  0  1  0  0  0  0  0  0  0  0  0
   12.2328  -19.4597   21.5720 C   0  0  0  0  0  0  0  0  0  0  0  0
   11.6768  -19.5928   22.9439 C   0  0  0  0  0  0  0  0  0  0  0  0
   10.6189  -20.2485   23.2143 O   0  0  0  0  0  0  0  0  0  0  0  0
   11.2118  -17.1578   21.5488 C   0  0  0  0  0  0  0  0  0  0  0  0
   12.1825  -16.3303   21.6596 O   0  0  0  0  0  0  0  0  0  0  0  0
   12.3030  -18.9897   24.0331 O   0  0  0  0  0  0  0  0  0  0  0  0
    9.9796  -16.7590   22.1322 N   0  0  0  0  0  0  0  0  0  0  0  0
    9.8532  -15.4465   22.7405 C   0  0  1  0  0  0  0  0  0  0  0  0
    8.7649  -14.6387   22.0995 C   0  0  0  0  0  0  0  0  0  0  0  0
    9.1186  -14.0012   20.8006 C   0  0  0  0  0  0  0  0  0  0  0  0
    7.8733  -13.5956   20.0758 C   0  0  0  0  0  0  0  0  0  0  0  0
    8.2808  -12.9736   18.7524 C   0  0  0  0  0  0  0  0  0  0  0  0
    7.0595  -12.6778   18.0294 N   0  0  0  0  0  0  0  0  0  0  0  0
    9.6728  -15.5989   24.2001 C   0  0  0  0  0  0  0  0  0  0  0  0
    9.5712  -14.5737   24.9159 O   0  0  0  0  0  0  0  0  0  0  0  0
    9.6063  -16.8232   24.8493 O   0  0  0  0  0  0  0  0  0  0  0  0
  2  7  1  0
  2  1  1  6
  3  2  1  0
  4  5  1  0
  4  3  1  0
  5  6  2  0
  7 10  1  0
  8  7  2  0
  9  5  1  0
 10 11  1  0
 11 12  1  1
 13 14  2  0
 13 12  1  0
 15 16  2  0
 15 11  1  0
 17 13  1  0
 18 15  1  0
 19 18  1  0
 20 21  1  0
 19 20  1  6
 21 22  1  0
 23 24  1  0
 23 22  1  0
 25 19  1  0
 25 27  1  0
 26 25  2  0
M  END
$$$$
