EDK.pdb
     RDKit          3D

 27 26  0  0  1  0  0  0  0  0999 V2000
   11.1584  -16.2064   15.4979 N   0  0  0  0  0  0  0  0  0  0  0  0
   10.8684  -15.5850   16.7421 C   0  0  1  0  0  0  0  0  0  0  0  0
    9.6175  -16.1307   17.3585 C   0  0  0  0  0  0  0  0  0  0  0  0
    9.6536  -17.5836   17.5858 C   0  0  0  0  0  0  0  0  0  0  0  0
    8.4440  -18.2008   18.1434 C   0  0  0  0  0  0  0  0  0  0  0  0
    7.6901  -17.6393   18.9478 O   0  0  0  0  0  0  0  0  0  0  0  0
   12.0067  -15.7799   17.7130 C   0  0  0  0  0  0  0  0  0  0  0  0
   12.1255  -16.9076   18.2130 O   0  0  0  0  0  0  0  0  0  0  0  0
    8.0980  -19.5136   17.7543 O   0  0  0  0  0  0  0  0  0  0  0  0
   12.8507  -14.7186   17.9988 N   0  0  0  0  0  0  0  0  0  0  0  0
   13.9639  -14.6753   18.8876 C   0  0  1  0  0  0  0  0  0  0  0  0
   14.9368  -13.5759   18.5758 C   0  0  0  0  0  0  0  0  0  0  0  0
   15.7005  -13.9629   17.3609 C   0  0  0  0  0  0  0  0  0  0  0  0
   16.1596  -15.1341   17.1613 O   0  0  0  0  0  0  0  0  0  0  0  0
   13.5806  -14.8693   20.2578 C   0  0  0  0  0  0  0  0  0  0  0  0
   12.7205  -14.0619   20.7554 O   0  0  0  0  0  0  0  0  0  0  0  0
   15.9593  -13.0376   16.3515 O   0  0  0  0  0  0  0  0  0  0  0  0
   14.0666  -15.8809   21.1286 N   0  0  0  0  0  0  0  0  0  0  0  0
   13.6550  -15.9022   22.5210 C   0  0  1  0  0  0  0  0  0  0  0  0
   12.6653  -16.9954   22.7920 C   0  0  0  0  0  0  0  0  0  0  0  0
   12.2788  -17.1723   24.2195 C   0  0  0  0  0  0  0  0  0  0  0  0
   11.3543  -18.3415   24.3564 C   0  0  0  0  0  0  0  0  0  0  0  0
   11.0043  -18.4950   25.8255 C   0  0  0  0  0  0  0  0  0  0  0  0
   10.0327  -19.5668   25.9199 N   0  0  0  0  0  0  0  0  0  0  0  0
   14.8527  -15.9837   23.3842 C   0  0  0  0  0  0  0  0  0  0  0  0
   14.7126  -15.9675   24.6307 O   0  0  0  0  0  0  0  0  0  0  0  0
   16.1502  -16.0790   22.9026 O   0  0  0  0  0  0  0  0  0  0  0  0
  2  7  1  0
  2  1  1  6
  3  2  1  0
  4  5  1  0
  4  3  1  0
  5  6  2  0
  7 10  1  0
  8  7  2  0
  9  5  1  0
 10 11  1  0
 11 12  1  1
 13 14  2  0
 13 12  1  0
 15 16  2  0
 15 11  1  0
 17 13  1  0
 18 15  1  0
 19 18  1  0
 20 21  1  0
 19 20  1  6
 21 22  1  0
 23 24  1  0
 23 22  1  0
 25 19  1  0
 25 27  1  0
 26 25  2  0
M  END
$$$$
