EDK.pdb
     RDKit          3D

 27 26  0  0  1  0  0  0  0  0999 V2000
    8.8699  -13.3318   18.0381 N   0  0  0  0  0  0  0  0  0  0  0  0
    9.3117  -14.6508   18.3263 C   0  0  1  0  0  0  0  0  0  0  0  0
   10.8027  -14.7677   18.2489 C   0  0  0  0  0  0  0  0  0  0  0  0
   11.5188  -13.6633   18.9056 C   0  0  0  0  0  0  0  0  0  0  0  0
   12.9854  -13.6952   18.8517 C   0  0  0  0  0  0  0  0  0  0  0  0
   13.6402  -13.6029   17.8061 O   0  0  0  0  0  0  0  0  0  0  0  0
    8.8680  -15.0717   19.7056 C   0  0  0  0  0  0  0  0  0  0  0  0
    8.2349  -14.2360   20.3663 O   0  0  0  0  0  0  0  0  0  0  0  0
   13.7163  -13.8390   20.0516 O   0  0  0  0  0  0  0  0  0  0  0  0
    9.1782  -16.3416   20.1656 N   0  0  0  0  0  0  0  0  0  0  0  0
    8.7966  -16.9682   21.3874 C   0  0  1  0  0  0  0  0  0  0  0  0
    9.1942  -18.4132   21.4689 C   0  0  0  0  0  0  0  0  0  0  0  0
    8.6204  -19.1192   20.2937 C   0  0  0  0  0  0  0  0  0  0  0  0
    9.3198  -19.7792   19.4584 O   0  0  0  0  0  0  0  0  0  0  0  0
    9.0403  -16.1352   22.5314 C   0  0  0  0  0  0  0  0  0  0  0  0
   10.1989  -15.6022   22.6437 O   0  0  0  0  0  0  0  0  0  0  0  0
    7.2503  -19.0936   20.0402 O   0  0  0  0  0  0  0  0  0  0  0  0
    8.1122  -15.8392   23.5652 N   0  0  0  0  0  0  0  0  0  0  0  0
    8.4607  -14.8887   24.6062 C   0  0  1  0  0  0  0  0  0  0  0  0
    7.3141  -13.9815   24.9378 C   0  0  0  0  0  0  0  0  0  0  0  0
    7.5505  -13.0319   26.0607 C   0  0  0  0  0  0  0  0  0  0  0  0
    6.3001  -12.2611   26.3487 C   0  0  0  0  0  0  0  0  0  0  0  0
    6.5834  -11.3204   27.5059 C   0  0  0  0  0  0  0  0  0  0  0  0
    5.3578  -10.5926   27.7701 N   0  0  0  0  0  0  0  0  0  0  0  0
    8.9752  -15.6196   25.7840 C   0  0  0  0  0  0  0  0  0  0  0  0
    9.4066  -14.9715   26.7677 O   0  0  0  0  0  0  0  0  0  0  0  0
    9.0158  -17.0029   25.8809 O   0  0  0  0  0  0  0  0  0  0  0  0
  2  7  1  0
  2  1  1  1
  3  2  1  0
  4  5  1  0
  4  3  1  0
  5  6  2  0
  7 10  1  0
  8  7  2  0
  9  5  1  0
 10 11  1  0
 11 12  1  1
 13 14  2  0
 13 12  1  0
 15 16  2  0
 15 11  1  0
 17 13  1  0
 18 15  1  0
 19 18  1  0
 20 21  1  0
 19 20  1  1
 21 22  1  0
 23 24  1  0
 23 22  1  0
 25 19  1  0
 25 27  1  0
 26 25  2  0
M  END
$$$$
