EDK.pdb
     RDKit          3D

 27 26  0  0  1  0  0  0  0  0999 V2000
   12.0096  -19.3268   17.1962 N   0  0  0  0  0  0  0  0  0  0  0  0
   12.0485  -17.9763   17.6353 C   0  0  1  0  0  0  0  0  0  0  0  0
   11.8380  -17.0172   16.5046 C   0  0  0  0  0  0  0  0  0  0  0  0
   11.8343  -17.6550   15.1790 C   0  0  0  0  0  0  0  0  0  0  0  0
   11.4995  -16.8035   14.0311 C   0  0  0  0  0  0  0  0  0  0  0  0
   10.3464  -16.6137   13.6250 O   0  0  0  0  0  0  0  0  0  0  0  0
   10.9904  -17.7255   18.6811 C   0  0  0  0  0  0  0  0  0  0  0  0
    9.9011  -17.2927   18.2787 O   0  0  0  0  0  0  0  0  0  0  0  0
   12.5379  -16.1505   13.3312 O   0  0  0  0  0  0  0  0  0  0  0  0
   11.2717  -17.9822   20.0135 N   0  0  0  0  0  0  0  0  0  0  0  0
   10.3941  -17.9470   21.1358 C   0  0  1  0  0  0  0  0  0  0  0  0
   10.6722  -19.0202   22.1474 C   0  0  0  0  0  0  0  0  0  0  0  0
   12.0953  -18.9097   22.5617 C   0  0  0  0  0  0  0  0  0  0  0  0
   12.4654  -18.4743   23.7000 O   0  0  0  0  0  0  0  0  0  0  0  0
   10.1660  -16.6120   21.6130 C   0  0  0  0  0  0  0  0  0  0  0  0
   11.1902  -15.8989   21.8991 O   0  0  0  0  0  0  0  0  0  0  0  0
   13.1242  -19.2875   21.7011 O   0  0  0  0  0  0  0  0  0  0  0  0
    8.9008  -15.9945   21.8022 N   0  0  0  0  0  0  0  0  0  0  0  0
    8.8037  -14.7420   22.5304 C   0  0  1  0  0  0  0  0  0  0  0  0
    7.6674  -13.8978   22.0363 C   0  0  0  0  0  0  0  0  0  0  0  0
    7.9832  -13.0055   20.8863 C   0  0  0  0  0  0  0  0  0  0  0  0
    7.9379  -13.7845   19.6089 C   0  0  0  0  0  0  0  0  0  0  0  0
    8.3311  -12.8536   18.4761 C   0  0  0  0  0  0  0  0  0  0  0  0
    8.2481  -13.6210   17.2489 N   0  0  0  0  0  0  0  0  0  0  0  0
    8.7233  -15.0235   23.9797 C   0  0  0  0  0  0  0  0  0  0  0  0
    8.7517  -14.0683   24.7925 O   0  0  0  0  0  0  0  0  0  0  0  0
    8.6162  -16.2980   24.5170 O   0  0  0  0  0  0  0  0  0  0  0  0
  2  7  1  0
  2  1  1  6
  3  2  1  0
  4  5  1  0
  4  3  1  0
  5  6  2  0
  7 10  1  0
  8  7  2  0
  9  5  1  0
 10 11  1  0
 11 12  1  1
 13 14  2  0
 13 12  1  0
 15 16  2  0
 15 11  1  0
 17 13  1  0
 18 15  1  0
 19 18  1  0
 20 21  1  0
 19 20  1  6
 21 22  1  0
 23 24  1  0
 23 22  1  0
 25 19  1  0
 25 27  1  0
 26 25  2  0
M  END
$$$$
