EDK.pdb
     RDKit          3D

 27 26  0  0  1  0  0  0  0  0999 V2000
   11.2540  -16.4078   18.5329 N   0  0  0  0  0  0  0  0  0  0  0  0
   11.1673  -17.6821   19.1549 C   0  0  1  0  0  0  0  0  0  0  0  0
   11.4382  -18.7930   18.1877 C   0  0  0  0  0  0  0  0  0  0  0  0
   11.8831  -18.3311   16.8639 C   0  0  0  0  0  0  0  0  0  0  0  0
   12.1716  -19.3632   15.8607 C   0  0  0  0  0  0  0  0  0  0  0  0
   11.3046  -20.0546   15.3121 O   0  0  0  0  0  0  0  0  0  0  0  0
   12.1507  -17.7869   20.2943 C   0  0  0  0  0  0  0  0  0  0  0  0
   12.9752  -18.7103   20.2353 O   0  0  0  0  0  0  0  0  0  0  0  0
   13.5112  -19.6007   15.4817 O   0  0  0  0  0  0  0  0  0  0  0  0
   12.0940  -16.8710   21.3327 N   0  0  0  0  0  0  0  0  0  0  0  0
   12.9147  -16.7841   22.4945 C   0  0  1  0  0  0  0  0  0  0  0  0
   13.6180  -15.4657   22.6336 C   0  0  0  0  0  0  0  0  0  0  0  0
   15.0814  -15.7224   22.6735 C   0  0  0  0  0  0  0  0  0  0  0  0
   15.8571  -15.2387   23.5604 O   0  0  0  0  0  0  0  0  0  0  0  0
   12.2799  -17.3369   23.6579 C   0  0  0  0  0  0  0  0  0  0  0  0
   11.2951  -16.6922   24.1617 O   0  0  0  0  0  0  0  0  0  0  0  0
   15.6946  -16.5279   21.7158 O   0  0  0  0  0  0  0  0  0  0  0  0
   12.6398  -18.5438   24.3150 N   0  0  0  0  0  0  0  0  0  0  0  0
   11.9150  -18.9726   25.4980 C   0  0  1  0  0  0  0  0  0  0  0  0
   11.8430  -20.4671   25.5950 C   0  0  0  0  0  0  0  0  0  0  0  0
   10.7843  -21.1138   24.7708 C   0  0  0  0  0  0  0  0  0  0  0  0
   10.9657  -22.5996   24.7820 C   0  0  0  0  0  0  0  0  0  0  0  0
    9.8535  -23.2155   23.9526 C   0  0  0  0  0  0  0  0  0  0  0  0
   10.0077  -24.6544   24.0388 N   0  0  0  0  0  0  0  0  0  0  0  0
   12.5172  -18.3469   26.6946 C   0  0  0  0  0  0  0  0  0  0  0  0
   11.8037  -18.1467   27.7068 O   0  0  0  0  0  0  0  0  0  0  0  0
   13.8457  -17.9564   26.7796 O   0  0  0  0  0  0  0  0  0  0  0  0
  2  7  1  0
  2  1  1  6
  3  2  1  0
  4  5  1  0
  4  3  1  0
  5  6  2  0
  7 10  1  0
  8  7  2  0
  9  5  1  0
 10 11  1  0
 11 12  1  1
 13 14  2  0
 13 12  1  0
 15 16  2  0
 15 11  1  0
 17 13  1  0
 18 15  1  0
 19 18  1  0
 20 21  1  0
 19 20  1  1
 21 22  1  0
 23 24  1  0
 23 22  1  0
 25 19  1  0
 25 27  1  0
 26 25  2  0
M  END
$$$$
