EDK.pdb
     RDKit          3D

 27 26  0  0  1  0  0  0  0  0999 V2000
    9.4819  -13.0214   18.4756 N   0  0  0  0  0  0  0  0  0  0  0  0
    9.7988  -14.4041   18.5522 C   0  0  1  0  0  0  0  0  0  0  0  0
   11.2728  -14.6442   18.4414 C   0  0  0  0  0  0  0  0  0  0  0  0
   12.0705  -13.8999   19.4282 C   0  0  0  0  0  0  0  0  0  0  0  0
   13.5288  -14.0525   19.3573 C   0  0  0  0  0  0  0  0  0  0  0  0
   14.2703  -13.3073   18.7049 O   0  0  0  0  0  0  0  0  0  0  0  0
    9.3133  -14.9905   19.8548 C   0  0  0  0  0  0  0  0  0  0  0  0
    9.0495  -14.1890   20.7625 O   0  0  0  0  0  0  0  0  0  0  0  0
   14.1470  -15.1053   20.0672 O   0  0  0  0  0  0  0  0  0  0  0  0
    9.1855  -16.3647   19.9803 N   0  0  0  0  0  0  0  0  0  0  0  0
    8.7540  -17.1236   21.1067 C   0  0  1  0  0  0  0  0  0  0  0  0
    8.4224  -18.5496   20.7765 C   0  0  0  0  0  0  0  0  0  0  0  0
    7.7805  -19.1644   21.9677 C   0  0  0  0  0  0  0  0  0  0  0  0
    6.7771  -18.6580   22.5668 O   0  0  0  0  0  0  0  0  0  0  0  0
    9.5459  -16.8681   22.2771 C   0  0  0  0  0  0  0  0  0  0  0  0
   10.8197  -16.8889   22.1502 O   0  0  0  0  0  0  0  0  0  0  0  0
    8.2580  -20.3591   22.5032 O   0  0  0  0  0  0  0  0  0  0  0  0
    9.0509  -16.5909   23.5794 N   0  0  0  0  0  0  0  0  0  0  0  0
    9.9736  -16.2980   24.6617 C   0  0  1  0  0  0  0  0  0  0  0  0
    9.2876  -15.6201   25.8096 C   0  0  0  0  0  0  0  0  0  0  0  0
   10.1460  -15.3352   26.9930 C   0  0  0  0  0  0  0  0  0  0  0  0
    9.3168  -14.7575   28.0973 C   0  0  0  0  0  0  0  0  0  0  0  0
   10.2249  -14.5126   29.2887 C   0  0  0  0  0  0  0  0  0  0  0  0
    9.4179  -13.8804   30.3138 N   0  0  0  0  0  0  0  0  0  0  0  0
   10.6705  -17.5397   25.0602 C   0  0  0  0  0  0  0  0  0  0  0  0
   11.8518  -17.4732   25.4772 O   0  0  0  0  0  0  0  0  0  0  0  0
   10.0978  -18.8020   25.0046 O   0  0  0  0  0  0  0  0  0  0  0  0
  2  7  1  0
  2  1  1  1
  3  2  1  0
  4  5  1  0
  4  3  1  0
  5  6  2  0
  7 10  1  0
  8  7  2  0
  9  5  1  0
 10 11  1  0
 11 12  1  6
 13 14  2  0
 13 12  1  0
 15 16  2  0
 15 11  1  0
 17 13  1  0
 18 15  1  0
 19 18  1  0
 20 21  1  0
 19 20  1  1
 21 22  1  0
 23 24  1  0
 23 22  1  0
 25 19  1  0
 25 27  1  0
 26 25  2  0
M  END
$$$$
