EDK.pdb
     RDKit          3D

 27 26  0  0  1  0  0  0  0  0999 V2000
   10.0062  -13.6867   18.0924 N   0  0  0  0  0  0  0  0  0  0  0  0
    8.8786  -13.4572   18.9253 C   0  0  1  0  0  0  0  0  0  0  0  0
    7.5950  -13.5327   18.1575 C   0  0  0  0  0  0  0  0  0  0  0  0
    7.4667  -14.7455   17.3350 C   0  0  0  0  0  0  0  0  0  0  0  0
    8.2203  -14.7791   16.0757 C   0  0  0  0  0  0  0  0  0  0  0  0
    8.2071  -13.8682   15.2385 O   0  0  0  0  0  0  0  0  0  0  0  0
    8.8286  -14.4677   20.0447 C   0  0  0  0  0  0  0  0  0  0  0  0
    7.8092  -14.4684   20.7493 O   0  0  0  0  0  0  0  0  0  0  0  0
    9.0156  -15.9075   15.7782 O   0  0  0  0  0  0  0  0  0  0  0  0
    9.8960  -15.3308   20.2346 N   0  0  0  0  0  0  0  0  0  0  0  0
   10.1019  -16.2834   21.2743 C   0  0  1  0  0  0  0  0  0  0  0  0
   11.1789  -17.2824   20.9666 C   0  0  0  0  0  0  0  0  0  0  0  0
   10.6805  -18.1876   19.8984 C   0  0  0  0  0  0  0  0  0  0  0  0
   11.2633  -18.3401   18.7761 O   0  0  0  0  0  0  0  0  0  0  0  0
   10.0900  -15.6836   22.5790 C   0  0  0  0  0  0  0  0  0  0  0  0
   11.0241  -14.8550   22.8618 O   0  0  0  0  0  0  0  0  0  0  0  0
    9.5182  -18.9355   20.0766 O   0  0  0  0  0  0  0  0  0  0  0  0
    9.1327  -15.9206   23.6014 N   0  0  0  0  0  0  0  0  0  0  0  0
    9.1247  -15.0958   24.7965 C   0  0  1  0  0  0  0  0  0  0  0  0
    7.8677  -14.2856   24.9048 C   0  0  0  0  0  0  0  0  0  0  0  0
    7.7551  -13.4349   26.1222 C   0  0  0  0  0  0  0  0  0  0  0  0
    6.4469  -12.7076   26.1169 C   0  0  0  0  0  0  0  0  0  0  0  0
    6.4119  -11.7936   27.3284 C   0  0  0  0  0  0  0  0  0  0  0  0
    5.1426  -11.0939   27.2948 N   0  0  0  0  0  0  0  0  0  0  0  0
    9.3636  -15.9480   25.9809 C   0  0  0  0  0  0  0  0  0  0  0  0
    9.1675  -17.1842   25.8967 O   0  0  0  0  0  0  0  0  0  0  0  0
    9.7993  -15.4666   27.2069 O   0  0  0  0  0  0  0  0  0  0  0  0
  2  7  1  0
  2  1  1  6
  3  2  1  0
  4  5  1  0
  4  3  1  0
  5  6  2  0
  7 10  1  0
  8  7  2  0
  9  5  1  0
 10 11  1  0
 11 12  1  6
 13 14  2  0
 13 12  1  0
 15 16  2  0
 15 11  1  0
 17 13  1  0
 18 15  1  0
 19 18  1  0
 20 21  1  0
 19 20  1  1
 21 22  1  0
 23 24  1  0
 23 22  1  0
 25 19  1  0
 25 27  1  0
 26 25  2  0
M  END
$$$$
