EDK.pdb
     RDKit          3D

 27 26  0  0  1  0  0  0  0  0999 V2000
   12.4261  -15.0558   17.5544 N   0  0  0  0  0  0  0  0  0  0  0  0
   12.9742  -15.9257   18.5346 C   0  0  1  0  0  0  0  0  0  0  0  0
   14.3034  -15.4423   19.0270 C   0  0  0  0  0  0  0  0  0  0  0  0
   14.7364  -14.1756   18.4173 C   0  0  0  0  0  0  0  0  0  0  0  0
   16.1152  -13.7463   18.6814 C   0  0  0  0  0  0  0  0  0  0  0  0
   17.0796  -14.0412   17.9647 O   0  0  0  0  0  0  0  0  0  0  0  0
   12.0425  -16.0533   19.7145 C   0  0  0  0  0  0  0  0  0  0  0  0
   11.5652  -15.0015   20.1635 O   0  0  0  0  0  0  0  0  0  0  0  0
   16.3834  -12.9484   19.8153 O   0  0  0  0  0  0  0  0  0  0  0  0
   11.7657  -17.3076   20.2344 N   0  0  0  0  0  0  0  0  0  0  0  0
   10.8845  -17.6607   21.2973 C   0  0  1  0  0  0  0  0  0  0  0  0
   10.3816  -19.0723   21.2145 C   0  0  0  0  0  0  0  0  0  0  0  0
    9.8069  -19.2813   19.8599 C   0  0  0  0  0  0  0  0  0  0  0  0
    8.8960  -18.5445   19.3602 O   0  0  0  0  0  0  0  0  0  0  0  0
   11.3403  -17.1799   22.5713 C   0  0  0  0  0  0  0  0  0  0  0  0
   12.6034  -17.1472   22.7781 O   0  0  0  0  0  0  0  0  0  0  0  0
   10.2485  -20.3231   19.0464 O   0  0  0  0  0  0  0  0  0  0  0  0
   10.5192  -16.7309   23.6401 N   0  0  0  0  0  0  0  0  0  0  0  0
   11.1201  -16.3189   24.8962 C   0  0  1  0  0  0  0  0  0  0  0  0
   10.1387  -15.6010   25.7733 C   0  0  0  0  0  0  0  0  0  0  0  0
   10.6467  -15.2075   27.1170 C   0  0  0  0  0  0  0  0  0  0  0  0
    9.5522  -14.5595   27.9063 C   0  0  0  0  0  0  0  0  0  0  0  0
   10.0982  -14.2280   29.2834 C   0  0  0  0  0  0  0  0  0  0  0  0
    9.0249  -13.5937   30.0233 N   0  0  0  0  0  0  0  0  0  0  0  0
   11.7292  -17.4936   25.5559 C   0  0  0  0  0  0  0  0  0  0  0  0
   11.1345  -18.5974   25.5142 O   0  0  0  0  0  0  0  0  0  0  0  0
   12.9395  -17.4613   26.2333 O   0  0  0  0  0  0  0  0  0  0  0  0
  2  7  1  0
  2  1  1  6
  3  2  1  0
  4  5  1  0
  4  3  1  0
  5  6  2  0
  7 10  1  0
  8  7  2  0
  9  5  1  0
 10 11  1  0
 11 12  1  1
 13 14  2  0
 13 12  1  0
 15 16  2  0
 15 11  1  0
 17 13  1  0
 18 15  1  0
 19 18  1  0
 20 21  1  0
 19 20  1  1
 21 22  1  0
 23 24  1  0
 23 22  1  0
 25 19  1  0
 25 27  1  0
 26 25  2  0
M  END
$$$$
