EDK.pdb
     RDKit          3D

 27 26  0  0  1  0  0  0  0  0999 V2000
    9.8936  -17.9585   17.6109 N   0  0  0  0  0  0  0  0  0  0  0  0
    9.4669  -19.1834   18.1903 C   0  0  1  0  0  0  0  0  0  0  0  0
    9.1549  -20.2130   17.1484 C   0  0  0  0  0  0  0  0  0  0  0  0
    9.9735  -20.0924   15.9321 C   0  0  0  0  0  0  0  0  0  0  0  0
    9.7265  -21.0683   14.8636 C   0  0  0  0  0  0  0  0  0  0  0  0
   10.6067  -21.5097   14.1146 O   0  0  0  0  0  0  0  0  0  0  0  0
   10.5281  -19.7364   19.1091 C   0  0  0  0  0  0  0  0  0  0  0  0
   10.3103  -20.8514   19.6043 O   0  0  0  0  0  0  0  0  0  0  0  0
    8.4142  -21.5476   14.6578 O   0  0  0  0  0  0  0  0  0  0  0  0
   11.6727  -18.9952   19.3557 N   0  0  0  0  0  0  0  0  0  0  0  0
   12.8063  -19.3373   20.1486 C   0  0  1  0  0  0  0  0  0  0  0  0
   14.0775  -18.6849   19.6892 C   0  0  0  0  0  0  0  0  0  0  0  0
   14.5717  -19.4207   18.4962 C   0  0  0  0  0  0  0  0  0  0  0  0
   14.1510  -20.5737   18.1559 O   0  0  0  0  0  0  0  0  0  0  0  0
   12.5147  -19.3324   21.5547 C   0  0  0  0  0  0  0  0  0  0  0  0
   12.1398  -18.2272   22.0811 O   0  0  0  0  0  0  0  0  0  0  0  0
   15.5474  -18.8701   17.6674 O   0  0  0  0  0  0  0  0  0  0  0  0
   12.6018  -20.4460   22.4323 N   0  0  0  0  0  0  0  0  0  0  0  0
   12.2249  -20.3045   23.8275 C   0  0  1  0  0  0  0  0  0  0  0  0
   11.1978  -21.3191   24.2320 C   0  0  0  0  0  0  0  0  0  0  0  0
    9.9420  -21.3159   23.4311 C   0  0  0  0  0  0  0  0  0  0  0  0
    9.0400  -22.4176   23.8928 C   0  0  0  0  0  0  0  0  0  0  0  0
    7.8135  -22.4274   22.9983 C   0  0  0  0  0  0  0  0  0  0  0  0
    6.9687  -23.5158   23.4494 N   0  0  0  0  0  0  0  0  0  0  0  0
   13.4396  -20.3485   24.6694 C   0  0  0  0  0  0  0  0  0  0  0  0
   14.4756  -20.8974   24.2232 O   0  0  0  0  0  0  0  0  0  0  0  0
   13.5169  -19.8135   25.9471 O   0  0  0  0  0  0  0  0  0  0  0  0
  2  7  1  0
  2  1  1  6
  3  2  1  0
  4  5  1  0
  4  3  1  0
  5  6  2  0
  7 10  1  0
  8  7  2  0
  9  5  1  0
 10 11  1  0
 11 12  1  1
 13 14  2  0
 13 12  1  0
 15 16  2  0
 15 11  1  0
 17 13  1  0
 18 15  1  0
 19 18  1  0
 20 21  1  0
 19 20  1  1
 21 22  1  0
 23 24  1  0
 23 22  1  0
 25 19  1  0
 25 27  1  0
 26 25  2  0
M  END
$$$$
