EDK.pdb
     RDKit          3D

 27 26  0  0  1  0  0  0  0  0999 V2000
   11.2645  -15.8253   19.0846 N   0  0  0  0  0  0  0  0  0  0  0  0
   11.8378  -16.5801   20.1427 C   0  0  1  0  0  0  0  0  0  0  0  0
   13.1686  -16.0337   20.5586 C   0  0  0  0  0  0  0  0  0  0  0  0
   13.3895  -14.6374   20.1518 C   0  0  0  0  0  0  0  0  0  0  0  0
   14.7075  -14.0597   20.4421 C   0  0  0  0  0  0  0  0  0  0  0  0
   15.1408  -13.8675   21.5849 O   0  0  0  0  0  0  0  0  0  0  0  0
   10.9260  -16.5902   21.3448 C   0  0  0  0  0  0  0  0  0  0  0  0
    9.9178  -15.8721   21.2852 O   0  0  0  0  0  0  0  0  0  0  0  0
   15.5504  -13.6928   19.3700 O   0  0  0  0  0  0  0  0  0  0  0  0
   11.2442  -17.3808   22.4375 N   0  0  0  0  0  0  0  0  0  0  0  0
   10.4683  -17.6516   23.6018 C   0  0  1  0  0  0  0  0  0  0  0  0
   10.8199  -18.9502   24.2671 C   0  0  0  0  0  0  0  0  0  0  0  0
    9.9713  -19.0954   25.4786 C   0  0  0  0  0  0  0  0  0  0  0  0
   10.3845  -18.8594   26.6600 O   0  0  0  0  0  0  0  0  0  0  0  0
   10.2996  -16.4918   24.4314 C   0  0  0  0  0  0  0  0  0  0  0  0
   11.3492  -15.8345   24.7563 O   0  0  0  0  0  0  0  0  0  0  0  0
    8.6441  -19.5086   25.3792 O   0  0  0  0  0  0  0  0  0  0  0  0
    9.0683  -15.9936   24.9349 N   0  0  0  0  0  0  0  0  0  0  0  0
    9.0532  -14.8220   25.7926 C   0  0  1  0  0  0  0  0  0  0  0  0
    7.7258  -14.1257   25.7600 C   0  0  0  0  0  0  0  0  0  0  0  0
    7.5870  -12.9644   26.6824 C   0  0  0  0  0  0  0  0  0  0  0  0
    6.1925  -12.4245   26.6162 C   0  0  0  0  0  0  0  0  0  0  0  0
    6.0741  -11.3021   27.6314 C   0  0  0  0  0  0  0  0  0  0  0  0
    4.7323  -10.7655   27.5153 N   0  0  0  0  0  0  0  0  0  0  0  0
    9.4658  -15.2099   27.1584 C   0  0  0  0  0  0  0  0  0  0  0  0
    9.1954  -16.3611   27.5771 O   0  0  0  0  0  0  0  0  0  0  0  0
   10.1464  -14.3721   28.0299 O   0  0  0  0  0  0  0  0  0  0  0  0
  2  7  1  0
  2  1  1  6
  3  2  1  0
  4  5  1  0
  4  3  1  0
  5  6  2  0
  7 10  1  0
  8  7  2  0
  9  5  1  0
 10 11  1  0
 11 12  1  1
 13 14  2  0
 13 12  1  0
 15 16  2  0
 15 11  1  0
 17 13  1  0
 18 15  1  0
 19 18  1  0
 20 21  1  0
 19 20  1  1
 21 22  1  0
 23 24  1  0
 23 22  1  0
 25 19  1  0
 25 27  1  0
 26 25  2  0
M  END
$$$$
