EDK.pdb
     RDKit          3D

 27 26  0  0  1  0  0  0  0  0999 V2000
    8.2727  -14.4144   16.3547 N   0  0  0  0  0  0  0  0  0  0  0  0
    8.6797  -15.6643   16.8935 C   0  0  1  0  0  0  0  0  0  0  0  0
    9.5278  -16.4359   15.9301 C   0  0  0  0  0  0  0  0  0  0  0  0
   10.6289  -15.6518   15.3498 C   0  0  0  0  0  0  0  0  0  0  0  0
   11.4890  -16.3322   14.3740 C   0  0  0  0  0  0  0  0  0  0  0  0
   11.1645  -17.3593   13.7653 O   0  0  0  0  0  0  0  0  0  0  0  0
    9.4612  -15.4655   18.1687 C   0  0  0  0  0  0  0  0  0  0  0  0
   10.2534  -14.5129   18.1938 O   0  0  0  0  0  0  0  0  0  0  0  0
   12.7683  -15.8029   14.0957 O   0  0  0  0  0  0  0  0  0  0  0  0
    9.2668  -16.3329   19.2318 N   0  0  0  0  0  0  0  0  0  0  0  0
    9.8593  -16.3065   20.5276 C   0  0  1  0  0  0  0  0  0  0  0  0
    9.1294  -17.1435   21.5371 C   0  0  0  0  0  0  0  0  0  0  0  0
    9.8091  -16.9855   22.8494 C   0  0  0  0  0  0  0  0  0  0  0  0
    9.8493  -15.8875   23.4937 O   0  0  0  0  0  0  0  0  0  0  0  0
   11.2912  -16.4034   20.4788 C   0  0  0  0  0  0  0  0  0  0  0  0
   11.8011  -17.3255   19.7516 O   0  0  0  0  0  0  0  0  0  0  0  0
   10.4541  -18.0610   23.4570 O   0  0  0  0  0  0  0  0  0  0  0  0
   12.2114  -15.5674   21.1659 N   0  0  0  0  0  0  0  0  0  0  0  0
   13.6366  -15.8349   21.0878 C   0  0  1  0  0  0  0  0  0  0  0  0
   14.3716  -14.7338   20.3842 C   0  0  0  0  0  0  0  0  0  0  0  0
   14.8502  -15.0564   19.0111 C   0  0  0  0  0  0  0  0  0  0  0  0
   15.6641  -13.9204   18.4747 C   0  0  0  0  0  0  0  0  0  0  0  0
   16.0652  -14.2603   17.0507 C   0  0  0  0  0  0  0  0  0  0  0  0
   16.8445  -13.1441   16.5521 N   0  0  0  0  0  0  0  0  0  0  0  0
   14.1598  -16.1002   22.4450 C   0  0  0  0  0  0  0  0  0  0  0  0
   13.3925  -15.9875   23.4310 O   0  0  0  0  0  0  0  0  0  0  0  0
   15.4691  -16.4736   22.7117 O   0  0  0  0  0  0  0  0  0  0  0  0
  2  7  1  0
  2  1  1  6
  3  2  1  0
  4  5  1  0
  4  3  1  0
  5  6  2  0
  7 10  1  0
  8  7  2  0
  9  5  1  0
 10 11  1  0
 11 12  1  1
 13 14  2  0
 13 12  1  0
 15 16  2  0
 15 11  1  0
 17 13  1  0
 18 15  1  0
 19 18  1  0
 20 21  1  0
 19 20  1  1
 21 22  1  0
 23 24  1  0
 23 22  1  0
 25 19  1  0
 25 27  1  0
 26 25  2  0
M  END
$$$$
