EEL.pdb
     RDKit          3D

 27 26  0  0  1  0  0  0  0  0999 V2000
   25.1856  -32.7421   -4.0244 N   0  0  0  0  0  0  0  0  0  0  0  0
   25.1079  -33.8444   -3.1166 C   0  0  1  0  0  0  0  0  0  0  0  0
   26.4374  -34.1842   -2.5050 C   0  0  0  0  0  0  0  0  0  0  0  0
   27.4409  -34.4937   -3.6198 C   0  0  0  0  0  0  0  0  0  0  0  0
   28.7437  -34.7273   -2.9672 C   0  0  0  0  0  0  0  0  0  0  0  0
   29.5768  -35.5013   -3.5015 O   0  0  0  0  0  0  0  0  0  0  0  0
   24.0508  -33.6753   -2.0715 C   0  0  0  0  0  0  0  0  0  0  0  0
   23.6321  -32.5154   -1.8753 O   0  0  0  0  0  0  0  0  0  0  0  0
   29.0226  -34.0878   -1.7782 O   0  0  0  0  0  0  0  0  0  0  0  0
   23.5354  -34.7478   -1.3320 N   0  0  0  0  0  0  0  0  0  0  0  0
   22.6906  -34.7513   -0.2036 C   0  0  1  0  0  0  0  0  0  0  0  0
   22.0053  -36.0820    0.1157 C   0  0  0  0  0  0  0  0  0  0  0  0
   20.9836  -35.9721    1.1929 C   0  0  0  0  0  0  0  0  0  0  0  0
   20.4323  -37.3226    1.4766 C   0  0  0  0  0  0  0  0  0  0  0  0
   21.2058  -38.2242    1.8608 O   0  0  0  0  0  0  0  0  0  0  0  0
   23.1994  -34.1769    1.0312 C   0  0  0  0  0  0  0  0  0  0  0  0
   24.4565  -34.0976    1.1719 O   0  0  0  0  0  0  0  0  0  0  0  0
   19.0951  -37.5790    1.3198 O   0  0  0  0  0  0  0  0  0  0  0  0
   23.5149  -29.3863    4.0784 C   0  0  0  0  0  0  0  0  0  0  0  0
   23.9296  -30.8380    4.0910 C   0  0  2  0  0  0  0  0  0  0  0  0
   25.3931  -30.8891    4.3820 C   0  0  0  0  0  0  0  0  0  0  0  0
   23.4603  -31.6508    2.9589 C   0  0  0  0  0  0  0  0  0  0  0  0
   22.9847  -33.0385    3.2272 C   0  0  2  0  0  0  0  0  0  0  0  0
   22.4181  -33.6956    2.0966 N   0  0  0  0  0  0  0  0  0  0  0  0
   22.1638  -33.1654    4.4510 C   0  0  0  0  0  0  0  0  0  0  0  0
   20.8172  -33.4354    4.4081 O   0  0  0  0  0  0  0  0  0  0  0  0
   22.7084  -33.0236    5.5608 O   0  0  0  0  0  0  0  0  0  0  0  0
  2  1  1  1
  2  7  1  0
  3  2  1  0
  3  4  1  0
  4  5  1  0
  5  6  2  0
  5  9  1  0
  7  8  2  0
 10 11  1  0
 10  7  1  0
 11 16  1  0
 11 12  1  1
 13 12  1  0
 14 15  2  0
 14 13  1  0
 16 17  2  0
 18 14  1  0
 20 19  1  6
 20 22  1  0
 21 20  1  0
 23 22  1  6
 23 25  1  0
 24 23  1  0
 24 16  1  0
 25 27  2  0
 25 26  1  0
M  END
$$$$
