EEL.pdb
     RDKit          3D

 27 26  0  0  1  0  0  0  0  0999 V2000
   13.6885   -8.6325   -8.9004 N   0  0  0  0  0  0  0  0  0  0  0  0
   15.0942   -8.6569   -9.1628 C   0  0  1  0  0  0  0  0  0  0  0  0
   15.5802  -10.0150   -9.5831 C   0  0  0  0  0  0  0  0  0  0  0  0
   14.9233  -10.3964  -10.9129 C   0  0  0  0  0  0  0  0  0  0  0  0
   15.4179  -11.7423  -11.2617 C   0  0  0  0  0  0  0  0  0  0  0  0
   16.4514  -11.8615  -11.9662 O   0  0  0  0  0  0  0  0  0  0  0  0
   15.5344   -7.5961  -10.1216 C   0  0  0  0  0  0  0  0  0  0  0  0
   14.7848   -7.3685  -11.0939 O   0  0  0  0  0  0  0  0  0  0  0  0
   14.7329  -12.8479  -10.8048 O   0  0  0  0  0  0  0  0  0  0  0  0
   16.7253   -6.8757   -9.9628 N   0  0  0  0  0  0  0  0  0  0  0  0
   17.3009   -5.8798  -10.7776 C   0  0  1  0  0  0  0  0  0  0  0  0
   16.9814   -4.4332  -10.3937 C   0  0  0  0  0  0  0  0  0  0  0  0
   16.1174   -4.3239   -9.1862 C   0  0  0  0  0  0  0  0  0  0  0  0
   15.8745   -2.8873   -8.8934 C   0  0  0  0  0  0  0  0  0  0  0  0
   16.7992   -2.2034   -8.4077 O   0  0  0  0  0  0  0  0  0  0  0  0
   18.7188   -5.9827  -11.0818 C   0  0  0  0  0  0  0  0  0  0  0  0
   19.5297   -6.0327  -10.1089 O   0  0  0  0  0  0  0  0  0  0  0  0
   14.6548   -2.3178   -9.1511 O   0  0  0  0  0  0  0  0  0  0  0  0
   21.4222   -9.1764  -12.3382 C   0  0  0  0  0  0  0  0  0  0  0  0
   20.7939   -8.5332  -13.5510 C   0  0  2  0  0  0  0  0  0  0  0  0
   21.1009   -9.3944  -14.7314 C   0  0  0  0  0  0  0  0  0  0  0  0
   21.0370   -7.0921  -13.7134 C   0  0  0  0  0  0  0  0  0  0  0  0
   20.6819   -6.1787  -12.5893 C   0  0  2  0  0  0  0  0  0  0  0  0
   19.2815   -6.0324  -12.3695 N   0  0  0  0  0  0  0  0  0  0  0  0
   21.4096   -4.8912  -12.6094 C   0  0  0  0  0  0  0  0  0  0  0  0
   22.7703   -4.8132  -12.4356 O   0  0  0  0  0  0  0  0  0  0  0  0
   20.7704   -3.8391  -12.7904 O   0  0  0  0  0  0  0  0  0  0  0  0
  2  1  1  6
  2  7  1  0
  3  2  1  0
  3  4  1  0
  4  5  1  0
  5  6  2  0
  5  9  1  0
  7  8  2  0
 10 11  1  0
 10  7  1  0
 11 16  1  0
 11 12  1  1
 13 12  1  0
 14 15  2  0
 14 13  1  0
 16 17  2  0
 18 14  1  0
 20 19  1  1
 20 22  1  0
 21 20  1  0
 23 22  1  6
 23 25  1  0
 24 23  1  0
 24 16  1  0
 25 27  2  0
 25 26  1  0
M  END
$$$$
