EEL.pdb
     RDKit          3D

 27 26  0  0  1  0  0  0  0  0999 V2000
   17.0485  -13.4078  -14.5946 N   0  0  0  0  0  0  0  0  0  0  0  0
   16.5257  -12.0779  -14.6543 C   0  0  1  0  0  0  0  0  0  0  0  0
   15.0237  -12.0473  -14.6659 C   0  0  0  0  0  0  0  0  0  0  0  0
   14.5120  -12.8627  -15.8570 C   0  0  0  0  0  0  0  0  0  0  0  0
   13.0389  -12.8662  -15.7693 C   0  0  0  0  0  0  0  0  0  0  0  0
   12.4008  -13.9067  -16.0672 O   0  0  0  0  0  0  0  0  0  0  0  0
   17.0844  -11.1760  -13.5995 C   0  0  0  0  0  0  0  0  0  0  0  0
   17.0677  -11.6024  -12.4260 O   0  0  0  0  0  0  0  0  0  0  0  0
   12.3886  -11.7218  -15.3596 O   0  0  0  0  0  0  0  0  0  0  0  0
   17.6082   -9.9081  -13.8838 N   0  0  0  0  0  0  0  0  0  0  0  0
   18.0194   -8.8782  -13.0135 C   0  0  1  0  0  0  0  0  0  0  0  0
   19.0368   -7.8868  -13.5828 C   0  0  0  0  0  0  0  0  0  0  0  0
   20.3246   -8.5253  -13.9703 C   0  0  0  0  0  0  0  0  0  0  0  0
   21.1885   -7.5114  -14.6292 C   0  0  0  0  0  0  0  0  0  0  0  0
   21.8142   -6.6961  -13.9204 O   0  0  0  0  0  0  0  0  0  0  0  0
   16.9920   -8.1385  -12.2988 C   0  0  0  0  0  0  0  0  0  0  0  0
   15.9296   -7.8473  -12.9256 O   0  0  0  0  0  0  0  0  0  0  0  0
   21.2992   -7.4684  -15.9946 O   0  0  0  0  0  0  0  0  0  0  0  0
   14.4004   -6.9370   -6.8671 C   0  0  0  0  0  0  0  0  0  0  0  0
   14.4708   -6.7373   -8.3620 C   0  0  2  0  0  0  0  0  0  0  0  0
   13.0912   -6.9047   -8.9074 C   0  0  0  0  0  0  0  0  0  0  0  0
   15.5412   -7.4665   -9.0586 C   0  0  0  0  0  0  0  0  0  0  0  0
   16.0505   -6.9217  -10.3500 C   0  0  2  0  0  0  0  0  0  0  0  0
   17.0677   -7.7106  -10.9614 N   0  0  0  0  0  0  0  0  0  0  0  0
   16.3742   -5.4792  -10.3068 C   0  0  0  0  0  0  0  0  0  0  0  0
   15.4041   -4.5068  -10.3424 O   0  0  0  0  0  0  0  0  0  0  0  0
   17.5662   -5.1298  -10.2352 O   0  0  0  0  0  0  0  0  0  0  0  0
  2  1  1  1
  2  7  1  0
  3  2  1  0
  3  4  1  0
  4  5  1  0
  5  6  2  0
  5  9  1  0
  7  8  2  0
 10 11  1  0
 10  7  1  0
 11 16  1  0
 11 12  1  6
 13 12  1  0
 14 15  2  0
 14 13  1  0
 16 17  2  0
 18 14  1  0
 20 19  1  1
 20 22  1  0
 21 20  1  0
 23 22  1  1
 23 25  1  0
 24 23  1  0
 24 16  1  0
 25 27  2  0
 25 26  1  0
M  END
$$$$
