EEL.pdb
     RDKit          3D

 27 26  0  0  1  0  0  0  0  0999 V2000
   19.6739  -12.2332  -15.9681 N   0  0  0  0  0  0  0  0  0  0  0  0
   18.5599  -11.8072  -16.7574 C   0  0  1  0  0  0  0  0  0  0  0  0
   17.2480  -12.3079  -16.2232 C   0  0  0  0  0  0  0  0  0  0  0  0
   17.4084  -13.7639  -15.7760 C   0  0  0  0  0  0  0  0  0  0  0  0
   16.1343  -14.1581  -15.1442 C   0  0  0  0  0  0  0  0  0  0  0  0
   15.1946  -13.3274  -15.0688 O   0  0  0  0  0  0  0  0  0  0  0  0
   18.5301  -10.3292  -16.9875 C   0  0  0  0  0  0  0  0  0  0  0  0
   17.8421   -9.9215  -17.9465 O   0  0  0  0  0  0  0  0  0  0  0  0
   15.9996  -15.4367  -14.6469 O   0  0  0  0  0  0  0  0  0  0  0  0
   19.2299   -9.4209  -16.1826 N   0  0  0  0  0  0  0  0  0  0  0  0
   19.2783   -8.0130  -16.2311 C   0  0  1  0  0  0  0  0  0  0  0  0
   17.9393   -7.2908  -16.0647 C   0  0  0  0  0  0  0  0  0  0  0  0
   17.3413   -7.4678  -14.7129 C   0  0  0  0  0  0  0  0  0  0  0  0
   16.1456   -6.5933  -14.5944 C   0  0  0  0  0  0  0  0  0  0  0  0
   16.3003   -5.3545  -14.5791 O   0  0  0  0  0  0  0  0  0  0  0  0
   20.2801   -7.3367  -15.4233 C   0  0  0  0  0  0  0  0  0  0  0  0
   20.3434   -7.6309  -14.1921 O   0  0  0  0  0  0  0  0  0  0  0  0
   14.8898   -7.1347  -14.5029 O   0  0  0  0  0  0  0  0  0  0  0  0
   24.3779   -7.7715  -16.1969 C   0  0  0  0  0  0  0  0  0  0  0  0
   24.0410   -6.4069  -16.7482 C   0  0  2  0  0  0  0  0  0  0  0  0
   25.2186   -5.9313  -17.5330 C   0  0  0  0  0  0  0  0  0  0  0  0
   23.4649   -5.4507  -15.7909 C   0  0  0  0  0  0  0  0  0  0  0  0
   22.2241   -5.8356  -15.0588 C   0  0  2  0  0  0  0  0  0  0  0  0
   21.1962   -6.3752  -15.8855 N   0  0  0  0  0  0  0  0  0  0  0  0
   21.7378   -4.8033  -14.1178 C   0  0  0  0  0  0  0  0  0  0  0  0
   22.4929   -4.3595  -13.0592 O   0  0  0  0  0  0  0  0  0  0  0  0
   20.6053   -4.3168  -14.2878 O   0  0  0  0  0  0  0  0  0  0  0  0
  2  1  1  1
  2  7  1  0
  3  2  1  0
  3  4  1  0
  4  5  1  0
  5  6  2  0
  5  9  1  0
  7  8  2  0
 10 11  1  0
 10  7  1  0
 11 16  1  0
 11 12  1  1
 13 12  1  0
 14 15  2  0
 14 13  1  0
 16 17  2  0
 18 14  1  0
 20 19  1  1
 20 22  1  0
 21 20  1  0
 23 22  1  6
 23 25  1  0
 24 23  1  0
 24 16  1  0
 25 27  2  0
 25 26  1  0
M  END
$$$$
