EEL.pdb
     RDKit          3D

 27 26  0  0  1  0  0  0  0  0999 V2000
   17.3041  -12.9596  -17.0046 N   0  0  0  0  0  0  0  0  0  0  0  0
   16.9330  -11.6004  -16.7594 C   0  0  1  0  0  0  0  0  0  0  0  0
   16.2435  -11.4191  -15.4369 C   0  0  0  0  0  0  0  0  0  0  0  0
   14.9615  -12.2567  -15.4178 C   0  0  0  0  0  0  0  0  0  0  0  0
   13.9161  -11.4503  -16.0771 C   0  0  0  0  0  0  0  0  0  0  0  0
   13.9186  -10.2009  -15.9444 O   0  0  0  0  0  0  0  0  0  0  0  0
   18.0684  -10.6398  -16.9220 C   0  0  0  0  0  0  0  0  0  0  0  0
   19.2019  -11.0449  -16.5898 O   0  0  0  0  0  0  0  0  0  0  0  0
   12.9526  -12.0872  -16.8297 O   0  0  0  0  0  0  0  0  0  0  0  0
   17.8994   -9.3414  -17.4202 N   0  0  0  0  0  0  0  0  0  0  0  0
   18.8500   -8.3284  -17.6592 C   0  0  1  0  0  0  0  0  0  0  0  0
   18.3689   -7.1433  -18.4996 C   0  0  0  0  0  0  0  0  0  0  0  0
   19.4625   -6.2024  -18.8671 C   0  0  0  0  0  0  0  0  0  0  0  0
   18.8983   -5.1037  -19.6934 C   0  0  0  0  0  0  0  0  0  0  0  0
   18.7167   -3.9845  -19.1706 O   0  0  0  0  0  0  0  0  0  0  0  0
   19.6081   -7.8235  -16.5261 C   0  0  0  0  0  0  0  0  0  0  0  0
   18.9600   -7.3443  -15.5479 O   0  0  0  0  0  0  0  0  0  0  0  0
   18.5803   -5.3117  -21.0103 O   0  0  0  0  0  0  0  0  0  0  0  0
   21.9517   -9.9244  -13.3587 C   0  0  0  0  0  0  0  0  0  0  0  0
   22.7964   -9.6170  -14.5718 C   0  0  2  0  0  0  0  0  0  0  0  0
   24.0716  -10.3825  -14.4422 C   0  0  0  0  0  0  0  0  0  0  0  0
   22.9215   -8.1950  -14.9249 C   0  0  0  0  0  0  0  0  0  0  0  0
   21.6804   -7.4222  -15.2185 C   0  0  2  0  0  0  0  0  0  0  0  0
   21.0097   -7.8168  -16.4124 N   0  0  0  0  0  0  0  0  0  0  0  0
   21.8421   -5.9572  -15.0941 C   0  0  0  0  0  0  0  0  0  0  0  0
   22.0538   -5.3413  -13.8843 O   0  0  0  0  0  0  0  0  0  0  0  0
   21.7855   -5.2543  -16.1192 O   0  0  0  0  0  0  0  0  0  0  0  0
  2  1  1  1
  2  7  1  0
  3  2  1  0
  3  4  1  0
  4  5  1  0
  5  6  2  0
  5  9  1  0
  7  8  2  0
 10 11  1  0
 10  7  1  0
 11 16  1  0
 11 12  1  1
 13 12  1  0
 14 15  2  0
 14 13  1  0
 16 17  2  0
 18 14  1  0
 20 19  1  1
 20 22  1  0
 21 20  1  0
 23 22  1  6
 23 25  1  0
 24 23  1  0
 24 16  1  0
 25 27  2  0
 25 26  1  0
M  END
$$$$
