EEL.pdb
     RDKit          3D

 27 26  0  0  1  0  0  0  0  0999 V2000
   26.8545  -34.5710   -5.3071 N   0  0  0  0  0  0  0  0  0  0  0  0
   26.9938  -35.2563   -4.0597 C   0  0  1  0  0  0  0  0  0  0  0  0
   28.2696  -34.9067   -3.3474 C   0  0  0  0  0  0  0  0  0  0  0  0
   29.2104  -36.1148   -3.3760 C   0  0  0  0  0  0  0  0  0  0  0  0
   30.3406  -35.7956   -2.4823 C   0  0  0  0  0  0  0  0  0  0  0  0
   30.5629  -36.5183   -1.4789 O   0  0  0  0  0  0  0  0  0  0  0  0
   25.8055  -35.1002   -3.1643 C   0  0  0  0  0  0  0  0  0  0  0  0
   25.1405  -34.0505   -3.2875 O   0  0  0  0  0  0  0  0  0  0  0  0
   31.1344  -34.7054   -2.7679 O   0  0  0  0  0  0  0  0  0  0  0  0
   25.4315  -36.0679   -2.2228 N   0  0  0  0  0  0  0  0  0  0  0  0
   24.3511  -36.0859   -1.3176 C   0  0  1  0  0  0  0  0  0  0  0  0
   23.8292  -37.4701   -0.9253 C   0  0  0  0  0  0  0  0  0  0  0  0
   22.5742  -37.4190   -0.1261 C   0  0  0  0  0  0  0  0  0  0  0  0
   22.1480  -38.8060    0.1947 C   0  0  0  0  0  0  0  0  0  0  0  0
   21.3114  -39.3683   -0.5421 O   0  0  0  0  0  0  0  0  0  0  0  0
   24.4493  -35.2649   -0.1219 C   0  0  0  0  0  0  0  0  0  0  0  0
   25.5170  -35.3357    0.5574 O   0  0  0  0  0  0  0  0  0  0  0  0
   22.6630  -39.4619    1.2824 O   0  0  0  0  0  0  0  0  0  0  0  0
   25.3651  -31.0554    0.6916 C   0  0  0  0  0  0  0  0  0  0  0  0
   23.8955  -31.2173    0.3859 C   0  0  2  0  0  0  0  0  0  0  0  0
   23.3161  -29.8529    0.2081 C   0  0  0  0  0  0  0  0  0  0  0  0
   23.1527  -32.1325    1.2652 C   0  0  0  0  0  0  0  0  0  0  0  0
   23.6773  -33.5147    1.4610 C   0  0  2  0  0  0  0  0  0  0  0  0
   23.4588  -34.3892    0.3572 N   0  0  0  0  0  0  0  0  0  0  0  0
   23.3167  -34.1144    2.7641 C   0  0  0  0  0  0  0  0  0  0  0  0
   23.6885  -33.5507    3.9607 O   0  0  0  0  0  0  0  0  0  0  0  0
   22.6527  -35.1665    2.7814 O   0  0  0  0  0  0  0  0  0  0  0  0
  2  1  1  6
  2  7  1  0
  3  2  1  0
  3  4  1  0
  4  5  1  0
  5  6  2  0
  5  9  1  0
  7  8  2  0
 10 11  1  0
 10  7  1  0
 11 16  1  0
 11 12  1  1
 13 12  1  0
 14 15  2  0
 14 13  1  0
 16 17  2  0
 18 14  1  0
 20 19  1  1
 20 22  1  0
 21 20  1  0
 23 22  1  6
 23 25  1  0
 24 23  1  0
 24 16  1  0
 25 27  2  0
 25 26  1  0
M  END
$$$$
