EEL.pdb
     RDKit          3D

 27 26  0  0  1  0  0  0  0  0999 V2000
   20.2293  -16.9796  -17.7771 N   0  0  0  0  0  0  0  0  0  0  0  0
   21.2238  -15.9519  -17.7835 C   0  0  1  0  0  0  0  0  0  0  0  0
   22.2535  -16.1507  -18.8592 C   0  0  0  0  0  0  0  0  0  0  0  0
   22.9190  -17.5175  -18.6737 C   0  0  0  0  0  0  0  0  0  0  0  0
   23.8801  -17.6771  -19.7822 C   0  0  0  0  0  0  0  0  0  0  0  0
   23.4771  -18.0825  -20.9010 O   0  0  0  0  0  0  0  0  0  0  0  0
   20.6468  -14.5722  -17.8250 C   0  0  0  0  0  0  0  0  0  0  0  0
   19.8753  -14.3117  -18.7717 O   0  0  0  0  0  0  0  0  0  0  0  0
   25.2081  -17.3762  -19.5670 O   0  0  0  0  0  0  0  0  0  0  0  0
   20.9392  -13.5973  -16.8623 N   0  0  0  0  0  0  0  0  0  0  0  0
   20.4617  -12.2775  -16.7307 C   0  0  1  0  0  0  0  0  0  0  0  0
   18.9412  -12.1086  -16.7698 C   0  0  0  0  0  0  0  0  0  0  0  0
   18.5029  -10.6974  -16.5880 C   0  0  0  0  0  0  0  0  0  0  0  0
   17.0218  -10.6337  -16.6910 C   0  0  0  0  0  0  0  0  0  0  0  0
   16.4532   -9.5286  -16.5708 O   0  0  0  0  0  0  0  0  0  0  0  0
   20.9972  -11.4629  -15.6523 C   0  0  0  0  0  0  0  0  0  0  0  0
   20.6676  -11.7626  -14.4657 O   0  0  0  0  0  0  0  0  0  0  0  0
   16.2870  -11.7688  -16.9144 O   0  0  0  0  0  0  0  0  0  0  0  0
   24.6794  -10.2034  -16.7010 C   0  0  0  0  0  0  0  0  0  0  0  0
   24.9209   -9.8827  -15.2455 C   0  0  2  0  0  0  0  0  0  0  0  0
   26.2499  -10.4501  -14.8704 C   0  0  0  0  0  0  0  0  0  0  0  0
   23.8064  -10.1699  -14.3301 C   0  0  0  0  0  0  0  0  0  0  0  0
   22.4433   -9.6866  -14.6938 C   0  0  2  0  0  0  0  0  0  0  0  0
   21.8567  -10.3603  -15.8042 N   0  0  0  0  0  0  0  0  0  0  0  0
   22.3306   -8.2141  -14.7756 C   0  0  0  0  0  0  0  0  0  0  0  0
   22.5697   -7.3976  -13.6967 O   0  0  0  0  0  0  0  0  0  0  0  0
   22.0085   -7.6924  -15.8583 O   0  0  0  0  0  0  0  0  0  0  0  0
  2  1  1  6
  2  7  1  0
  3  2  1  0
  3  4  1  0
  4  5  1  0
  5  6  2  0
  5  9  1  0
  7  8  2  0
 10 11  1  0
 10  7  1  0
 11 16  1  0
 11 12  1  1
 13 12  1  0
 14 15  2  0
 14 13  1  0
 16 17  2  0
 18 14  1  0
 20 19  1  6
 20 22  1  0
 21 20  1  0
 23 22  1  6
 23 25  1  0
 24 23  1  0
 24 16  1  0
 25 27  2  0
 25 26  1  0
M  END
$$$$
