EEL.pdb
     RDKit          3D

 27 26  0  0  1  0  0  0  0  0999 V2000
   50.6903  -15.2897   -7.5880 N   0  0  0  0  0  0  0  0  0  0  0  0
   50.0549  -14.4643   -8.5680 C   0  0  1  0  0  0  0  0  0  0  0  0
   50.3469  -14.9071   -9.9737 C   0  0  0  0  0  0  0  0  0  0  0  0
   51.7355  -14.4064  -10.3818 C   0  0  0  0  0  0  0  0  0  0  0  0
   51.9448  -14.8253  -11.7813 C   0  0  0  0  0  0  0  0  0  0  0  0
   52.3677  -15.9826  -12.0271 O   0  0  0  0  0  0  0  0  0  0  0  0
   48.5856  -14.3002   -8.3389 C   0  0  0  0  0  0  0  0  0  0  0  0
   48.0246  -15.1650   -7.6341 O   0  0  0  0  0  0  0  0  0  0  0  0
   51.6704  -13.9339  -12.7964 O   0  0  0  0  0  0  0  0  0  0  0  0
   47.8471  -13.2378   -8.8760 N   0  0  0  0  0  0  0  0  0  0  0  0
   46.4606  -12.9857   -8.8423 C   0  0  1  0  0  0  0  0  0  0  0  0
   46.0501  -11.5186   -8.6963 C   0  0  0  0  0  0  0  0  0  0  0  0
   44.5898  -11.3377   -8.4703 C   0  0  0  0  0  0  0  0  0  0  0  0
   44.2995   -9.8882   -8.3190 C   0  0  0  0  0  0  0  0  0  0  0  0
   45.2423   -9.0720   -8.3799 O   0  0  0  0  0  0  0  0  0  0  0  0
   45.6295  -13.6067   -9.8607 C   0  0  0  0  0  0  0  0  0  0  0  0
   45.9809  -13.4750  -11.0713 O   0  0  0  0  0  0  0  0  0  0  0  0
   43.0171   -9.4496   -8.1152 O   0  0  0  0  0  0  0  0  0  0  0  0
   44.9431  -17.8750  -10.7240 C   0  0  0  0  0  0  0  0  0  0  0  0
   43.8919  -17.3512   -9.7753 C   0  0  2  0  0  0  0  0  0  0  0  0
   43.1657  -18.5265   -9.2093 C   0  0  0  0  0  0  0  0  0  0  0  0
   43.0584  -16.2510  -10.2826 C   0  0  0  0  0  0  0  0  0  0  0  0
   43.7240  -14.9752  -10.6739 C   0  0  2  0  0  0  0  0  0  0  0  0
   44.4583  -14.3486   -9.6255 N   0  0  0  0  0  0  0  0  0  0  0  0
   42.8458  -14.0423  -11.4129 C   0  0  0  0  0  0  0  0  0  0  0  0
   42.3176  -14.3492  -12.6437 O   0  0  0  0  0  0  0  0  0  0  0  0
   42.5730  -12.9396  -10.9052 O   0  0  0  0  0  0  0  0  0  0  0  0
  2  1  1  1
  2  7  1  0
  3  2  1  0
  3  4  1  0
  4  5  1  0
  5  6  2  0
  5  9  1  0
  7  8  2  0
 10 11  1  0
 10  7  1  0
 11 16  1  0
 11 12  1  6
 13 12  1  0
 14 15  2  0
 14 13  1  0
 16 17  2  0
 18 14  1  0
 20 19  1  6
 20 22  1  0
 21 20  1  0
 23 22  1  1
 23 25  1  0
 24 23  1  0
 24 16  1  0
 25 27  2  0
 25 26  1  0
M  END
$$$$
