EEL.pdb
     RDKit          3D

 27 26  0  0  1  0  0  0  0  0999 V2000
   14.6752  -21.4507    2.3684 N   0  0  0  0  0  0  0  0  0  0  0  0
   15.1190  -21.3445    3.7238 C   0  0  1  0  0  0  0  0  0  0  0  0
   16.4397  -22.0226    3.9543 C   0  0  0  0  0  0  0  0  0  0  0  0
   16.6553  -23.0869    2.8744 C   0  0  0  0  0  0  0  0  0  0  0  0
   18.0167  -23.6221    3.0698 C   0  0  0  0  0  0  0  0  0  0  0  0
   18.7371  -23.1667    3.9929 O   0  0  0  0  0  0  0  0  0  0  0  0
   15.1284  -19.9380    4.2335 C   0  0  0  0  0  0  0  0  0  0  0  0
   15.0735  -19.0283    3.3798 O   0  0  0  0  0  0  0  0  0  0  0  0
   18.4730  -24.6168    2.2315 O   0  0  0  0  0  0  0  0  0  0  0  0
   15.1949  -19.6248    5.5974 N   0  0  0  0  0  0  0  0  0  0  0  0
   15.2586  -18.3720    6.2405 C   0  0  1  0  0  0  0  0  0  0  0  0
   14.9950  -18.3790    7.7480 C   0  0  0  0  0  0  0  0  0  0  0  0
   13.5933  -18.7396    8.0967 C   0  0  0  0  0  0  0  0  0  0  0  0
   13.4755  -18.8511    9.5739 C   0  0  0  0  0  0  0  0  0  0  0  0
   14.3234  -19.5200   10.2004 O   0  0  0  0  0  0  0  0  0  0  0  0
   16.4073  -17.5235    5.9686 C   0  0  0  0  0  0  0  0  0  0  0  0
   17.5378  -18.0823    5.8414 O   0  0  0  0  0  0  0  0  0  0  0  0
   12.4527  -18.2305   10.2426 O   0  0  0  0  0  0  0  0  0  0  0  0
   18.3412  -11.8755    4.3992 C   0  0  0  0  0  0  0  0  0  0  0  0
   18.6275  -13.3531    4.5189 C   0  0  2  0  0  0  0  0  0  0  0  0
   19.5437  -13.7296    3.4019 C   0  0  0  0  0  0  0  0  0  0  0  0
   17.4577  -14.2203    4.7243 C   0  0  0  0  0  0  0  0  0  0  0  0
   17.5667  -15.3446    5.6979 C   0  0  2  0  0  0  0  0  0  0  0  0
   16.3813  -16.1242    5.8320 N   0  0  0  0  0  0  0  0  0  0  0  0
   18.1648  -14.9596    6.9947 C   0  0  0  0  0  0  0  0  0  0  0  0
   17.4357  -14.3539    7.9894 O   0  0  0  0  0  0  0  0  0  0  0  0
   19.3706  -15.1911    7.1959 O   0  0  0  0  0  0  0  0  0  0  0  0
  2  1  1  6
  2  7  1  0
  3  2  1  0
  3  4  1  0
  4  5  1  0
  5  6  2  0
  5  9  1  0
  7  8  2  0
 10 11  1  0
 10  7  1  0
 11 16  1  0
 11 12  1  1
 13 12  1  0
 14 15  2  0
 14 13  1  0
 16 17  2  0
 18 14  1  0
 20 19  1  6
 20 22  1  0
 21 20  1  0
 23 22  1  1
 23 25  1  0
 24 23  1  0
 24 16  1  0
 25 27  2  0
 25 26  1  0
M  END
$$$$
