EEL.pdb
     RDKit          3D

 27 26  0  0  1  0  0  0  0  0999 V2000
   18.0607  -11.6978  -14.8324 N   0  0  0  0  0  0  0  0  0  0  0  0
   17.7929  -10.2933  -14.7995 C   0  0  1  0  0  0  0  0  0  0  0  0
   16.4344   -9.9512  -15.3423 C   0  0  0  0  0  0  0  0  0  0  0  0
   15.4776  -11.1174  -15.0784 C   0  0  0  0  0  0  0  0  0  0  0  0
   14.1123  -10.5572  -15.0819 C   0  0  0  0  0  0  0  0  0  0  0  0
   13.1298  -11.3128  -14.8762 O   0  0  0  0  0  0  0  0  0  0  0  0
   18.0152   -9.6812  -13.4526 C   0  0  0  0  0  0  0  0  0  0  0  0
   17.7173  -10.3781  -12.4602 O   0  0  0  0  0  0  0  0  0  0  0  0
   13.9412   -9.2088  -15.3115 O   0  0  0  0  0  0  0  0  0  0  0  0
   18.5314   -8.3902  -13.2809 N   0  0  0  0  0  0  0  0  0  0  0  0
   18.7284   -7.6388  -12.1046 C   0  0  1  0  0  0  0  0  0  0  0  0
   20.0120   -6.8073  -12.0482 C   0  0  0  0  0  0  0  0  0  0  0  0
   20.0897   -5.7750  -13.1181 C   0  0  0  0  0  0  0  0  0  0  0  0
   21.3922   -5.0672  -13.0139 C   0  0  0  0  0  0  0  0  0  0  0  0
   22.4468   -5.7354  -13.0179 O   0  0  0  0  0  0  0  0  0  0  0  0
   17.6228   -6.8293  -11.6191 C   0  0  0  0  0  0  0  0  0  0  0  0
   16.9154   -6.2202  -12.4766 O   0  0  0  0  0  0  0  0  0  0  0  0
   21.4394   -3.7010  -12.9144 O   0  0  0  0  0  0  0  0  0  0  0  0
   13.5690   -7.4399   -9.5605 C   0  0  0  0  0  0  0  0  0  0  0  0
   14.7253   -7.4040   -8.5904 C   0  0  2  0  0  0  0  0  0  0  0  0
   14.2161   -7.8535   -7.2609 C   0  0  0  0  0  0  0  0  0  0  0  0
   15.5339   -6.1757   -8.5986 C   0  0  0  0  0  0  0  0  0  0  0  0
   16.2137   -5.7789   -9.8653 C   0  0  2  0  0  0  0  0  0  0  0  0
   17.2605   -6.6565  -10.2715 N   0  0  0  0  0  0  0  0  0  0  0  0
   16.5920   -4.3501   -9.9211 C   0  0  0  0  0  0  0  0  0  0  0  0
   15.6634   -3.3404   -9.8441 O   0  0  0  0  0  0  0  0  0  0  0  0
   17.7929   -4.0478  -10.0418 O   0  0  0  0  0  0  0  0  0  0  0  0
  2  1  1  1
  2  7  1  0
  3  2  1  0
  3  4  1  0
  4  5  1  0
  5  6  2  0
  5  9  1  0
  7  8  2  0
 10 11  1  0
 10  7  1  0
 11 16  1  0
 11 12  1  6
 13 12  1  0
 14 15  2  0
 14 13  1  0
 16 17  2  0
 18 14  1  0
 20 19  1  6
 20 22  1  0
 21 20  1  0
 23 22  1  1
 23 25  1  0
 24 23  1  0
 24 16  1  0
 25 27  2  0
 25 26  1  0
M  END
$$$$
