EEL.pdb
     RDKit          3D

 27 26  0  0  1  0  0  0  0  0999 V2000
   27.2778  -21.8653  -15.4424 N   0  0  0  0  0  0  0  0  0  0  0  0
   27.5143  -20.4725  -15.2200 C   0  0  1  0  0  0  0  0  0  0  0  0
   27.1608  -19.6287  -16.4118 C   0  0  0  0  0  0  0  0  0  0  0  0
   27.4153  -20.4312  -17.6911 C   0  0  0  0  0  0  0  0  0  0  0  0
   26.2002  -21.2305  -17.9412 C   0  0  0  0  0  0  0  0  0  0  0  0
   25.1074  -20.8763  -17.4323 O   0  0  0  0  0  0  0  0  0  0  0  0
   26.8705  -19.9561  -13.9722 C   0  0  0  0  0  0  0  0  0  0  0  0
   27.0213  -18.7423  -13.7205 O   0  0  0  0  0  0  0  0  0  0  0  0
   26.2886  -22.3556  -18.7328 O   0  0  0  0  0  0  0  0  0  0  0  0
   26.1279  -20.7707  -13.1075 N   0  0  0  0  0  0  0  0  0  0  0  0
   25.4100  -20.4407  -11.9401 C   0  0  1  0  0  0  0  0  0  0  0  0
   23.9124  -20.7550  -11.9637 C   0  0  0  0  0  0  0  0  0  0  0  0
   23.2157  -20.2024  -13.1577 C   0  0  0  0  0  0  0  0  0  0  0  0
   21.7594  -20.4725  -13.0362 C   0  0  0  0  0  0  0  0  0  0  0  0
   21.3728  -21.6488  -12.8760 O   0  0  0  0  0  0  0  0  0  0  0  0
   25.9580  -20.8608  -10.6608 C   0  0  0  0  0  0  0  0  0  0  0  0
   25.8670  -22.0870  -10.3531 O   0  0  0  0  0  0  0  0  0  0  0  0
   20.8508  -19.4483  -13.0990 O   0  0  0  0  0  0  0  0  0  0  0  0
   28.1256  -18.5538   -5.2686 C   0  0  0  0  0  0  0  0  0  0  0  0
   27.8311  -19.7507   -6.1405 C   0  0  2  0  0  0  0  0  0  0  0  0
   28.8340  -20.8074   -5.8141 C   0  0  0  0  0  0  0  0  0  0  0  0
   27.6197  -19.4699   -7.5684 C   0  0  0  0  0  0  0  0  0  0  0  0
   26.7546  -20.3947   -8.3558 C   0  0  2  0  0  0  0  0  0  0  0  0
   26.5868  -20.0242   -9.7216 N   0  0  0  0  0  0  0  0  0  0  0  0
   25.4848  -20.7467   -7.6838 C   0  0  0  0  0  0  0  0  0  0  0  0
   25.3436  -21.8866   -6.9299 O   0  0  0  0  0  0  0  0  0  0  0  0
   24.5076  -19.9857   -7.8028 O   0  0  0  0  0  0  0  0  0  0  0  0
  2  1  1  6
  2  7  1  0
  3  2  1  0
  3  4  1  0
  4  5  1  0
  5  6  2  0
  5  9  1  0
  7  8  2  0
 10 11  1  0
 10  7  1  0
 11 16  1  0
 11 12  1  6
 13 12  1  0
 14 15  2  0
 14 13  1  0
 16 17  2  0
 18 14  1  0
 20 19  1  1
 20 22  1  0
 21 20  1  0
 23 22  1  1
 23 25  1  0
 24 23  1  0
 24 16  1  0
 25 27  2  0
 25 26  1  0
M  END
$$$$
