EEL.pdb
     RDKit          3D

 27 26  0  0  1  0  0  0  0  0999 V2000
   15.9913  -12.4292  -14.8098 N   0  0  0  0  0  0  0  0  0  0  0  0
   16.9127  -12.9646  -15.7636 C   0  0  1  0  0  0  0  0  0  0  0  0
   16.2547  -13.8926  -16.7450 C   0  0  0  0  0  0  0  0  0  0  0  0
   14.9329  -13.2766  -17.2130 C   0  0  0  0  0  0  0  0  0  0  0  0
   14.3240  -14.2383  -18.1523 C   0  0  0  0  0  0  0  0  0  0  0  0
   13.3567  -14.9467  -17.7766 O   0  0  0  0  0  0  0  0  0  0  0  0
   17.7201  -11.9143  -16.4587 C   0  0  0  0  0  0  0  0  0  0  0  0
   18.5782  -12.3106  -17.2747 O   0  0  0  0  0  0  0  0  0  0  0  0
   14.8309  -14.3405  -19.4302 O   0  0  0  0  0  0  0  0  0  0  0  0
   17.5449  -10.5439  -16.2263 N   0  0  0  0  0  0  0  0  0  0  0  0
   18.2659   -9.4384  -16.7212 C   0  0  1  0  0  0  0  0  0  0  0  0
   17.4353   -8.3471  -17.4005 C   0  0  0  0  0  0  0  0  0  0  0  0
   16.6721   -8.8395  -18.5801 C   0  0  0  0  0  0  0  0  0  0  0  0
   17.3932   -8.4505  -19.8198 C   0  0  0  0  0  0  0  0  0  0  0  0
   18.5137   -7.9082  -19.7240 O   0  0  0  0  0  0  0  0  0  0  0  0
   19.2386   -8.8097  -15.8426 C   0  0  0  0  0  0  0  0  0  0  0  0
   18.8654   -8.5039  -14.6705 O   0  0  0  0  0  0  0  0  0  0  0  0
   16.8399   -8.6816  -21.0523 O   0  0  0  0  0  0  0  0  0  0  0  0
   22.7406  -10.2236  -13.5703 C   0  0  0  0  0  0  0  0  0  0  0  0
   23.1469   -9.8293  -14.9700 C   0  0  2  0  0  0  0  0  0  0  0  0
   24.5392  -10.3199  -15.1933 C   0  0  0  0  0  0  0  0  0  0  0  0
   22.8776   -8.4342  -15.3490 C   0  0  0  0  0  0  0  0  0  0  0  0
   21.4800   -7.9247  -15.2443 C   0  0  2  0  0  0  0  0  0  0  0  0
   20.5705   -8.5053  -16.1753 N   0  0  0  0  0  0  0  0  0  0  0  0
   21.3825   -6.4507  -15.1713 C   0  0  0  0  0  0  0  0  0  0  0  0
   21.7800   -5.7418  -14.0634 O   0  0  0  0  0  0  0  0  0  0  0  0
   20.9250   -5.8268  -16.1458 O   0  0  0  0  0  0  0  0  0  0  0  0
  2  1  1  6
  2  7  1  0
  3  2  1  0
  3  4  1  0
  4  5  1  0
  5  6  2  0
  5  9  1  0
  7  8  2  0
 10 11  1  0
 10  7  1  0
 11 16  1  0
 11 12  1  1
 13 12  1  0
 14 15  2  0
 14 13  1  0
 16 17  2  0
 18 14  1  0
 20 19  1  1
 20 22  1  0
 21 20  1  0
 23 22  1  6
 23 25  1  0
 24 23  1  0
 24 16  1  0
 25 27  2  0
 25 26  1  0
M  END
$$$$
