GSN.pdb
     RDKit          3D

 19 18  0  0  1  0  0  0  0  0999 V2000
   14.5115  -22.6365    0.1311 N   0  0  0  0  0  0  0  0  0  0  0  0
   14.2286  -21.5564    1.0270 C   0  0  0  0  0  0  0  0  0  0  0  0
   15.3463  -21.2833    1.9651 C   0  0  0  0  0  0  0  0  0  0  0  0
   16.3031  -22.0933    2.0465 O   0  0  0  0  0  0  0  0  0  0  0  0
   16.5984  -17.5697    3.0555 O   0  0  0  0  0  0  0  0  0  0  0  0
   17.3245  -18.7312    3.1888 C   0  0  0  0  0  0  0  0  0  0  0  0
   16.4693  -19.8930    3.6781 C   0  0  2  0  0  0  0  0  0  0  0  0
   15.3743  -20.1243    2.7853 N   0  0  0  0  0  0  0  0  0  0  0  0
   16.0197  -19.5567    5.0538 C   0  0  0  0  0  0  0  0  0  0  0  0
   14.9666  -18.8818    5.1875 O   0  0  0  0  0  0  0  0  0  0  0  0
   16.9363  -22.4874    7.2110 N   0  0  0  0  0  0  0  0  0  0  0  0
   16.3006  -21.9243    8.3547 C   0  0  0  0  0  0  0  0  0  0  0  0
   16.3980  -22.5225    9.4411 O   0  0  0  0  0  0  0  0  0  0  0  0
   15.5489  -20.6687    8.2524 C   0  0  0  0  0  0  0  0  0  0  0  0
   16.3197  -19.5989    7.5764 C   0  0  2  0  0  0  0  0  0  0  0  0
   16.7064  -19.9511    6.2165 N   0  0  0  0  0  0  0  0  0  0  0  0
   17.4325  -19.0351    8.3316 C   0  0  0  0  0  0  0  0  0  0  0  0
   18.6297  -18.9761    8.0010 O   0  0  0  0  0  0  0  0  0  0  0  0
   17.1326  -18.4854    9.5926 O   0  0  0  0  0  0  0  0  0  0  0  0
  1  2  1  0
  3  4  2  0
  3  2  1  0
  7  6  1  6
  6  5  1  0
  7  8  1  0
  8  3  1  0
  9  7  1  0
 10  9  2  0
 11 12  1  0
 12 13  2  0
 14 12  1  0
 15 14  1  1
 15 17  1  0
 15 16  1  0
 16  9  1  0
 17 19  1  0
 18 17  2  0
M  END
$$$$
