GSN.pdb
     RDKit          3D

 19 18  0  0  1  0  0  0  0  0999 V2000
   14.1936  -12.4864  -13.4118 N   0  0  0  0  0  0  0  0  0  0  0  0
   14.8090  -11.2252  -13.6949 C   0  0  0  0  0  0  0  0  0  0  0  0
   15.5174  -10.6576  -12.5202 C   0  0  0  0  0  0  0  0  0  0  0  0
   15.1058  -10.9136  -11.3611 O   0  0  0  0  0  0  0  0  0  0  0  0
   18.5690   -7.8190  -12.9940 O   0  0  0  0  0  0  0  0  0  0  0  0
   18.5906   -8.5896  -11.8538 C   0  0  0  0  0  0  0  0  0  0  0  0
   17.2200   -9.1645  -11.5202 C   0  0  2  0  0  0  0  0  0  0  0  0
   16.6589   -9.8246  -12.6600 N   0  0  0  0  0  0  0  0  0  0  0  0
   16.3768   -8.0376  -11.0437 C   0  0  0  0  0  0  0  0  0  0  0  0
   15.7486   -7.3615  -11.8984 O   0  0  0  0  0  0  0  0  0  0  0  0
   13.7006   -9.1987   -7.6480 N   0  0  0  0  0  0  0  0  0  0  0  0
   13.6220   -7.8814   -8.1845 C   0  0  0  0  0  0  0  0  0  0  0  0
   12.6204   -7.5737   -8.8551 O   0  0  0  0  0  0  0  0  0  0  0  0
   14.6977   -6.9116   -7.9511 C   0  0  0  0  0  0  0  0  0  0  0  0
   15.4380   -6.5757   -9.1899 C   0  0  2  0  0  0  0  0  0  0  0  0
   16.2414   -7.6841   -9.6888 N   0  0  0  0  0  0  0  0  0  0  0  0
   16.1866   -5.3244   -9.1704 C   0  0  0  0  0  0  0  0  0  0  0  0
   17.4025   -5.1571   -9.3698 O   0  0  0  0  0  0  0  0  0  0  0  0
   15.4590   -4.1514   -8.8934 O   0  0  0  0  0  0  0  0  0  0  0  0
  1  2  1  0
  3  4  2  0
  3  2  1  0
  7  6  1  6
  6  5  1  0
  7  8  1  0
  8  3  1  0
  9  7  1  0
 10  9  2  0
 11 12  1  0
 12 13  2  0
 14 12  1  0
 15 14  1  1
 15 17  1  0
 15 16  1  0
 16  9  1  0
 17 19  1  0
 18 17  2  0
M  END
$$$$
