GSN.pdb
     RDKit          3D

 19 18  0  0  1  0  0  0  0  0999 V2000
   16.3104  -11.9409  -15.6421 N   0  0  0  0  0  0  0  0  0  0  0  0
   17.5973  -11.3147  -15.6107 C   0  0  0  0  0  0  0  0  0  0  0  0
   17.5328   -9.8951  -15.1813 C   0  0  0  0  0  0  0  0  0  0  0  0
   16.9636   -9.0481  -15.9140 O   0  0  0  0  0  0  0  0  0  0  0  0
   18.5717   -8.6965  -11.3187 O   0  0  0  0  0  0  0  0  0  0  0  0
   17.7287   -7.9344  -12.0950 C   0  0  0  0  0  0  0  0  0  0  0  0
   18.0310   -8.0728  -13.5816 C   0  0  2  0  0  0  0  0  0  0  0  0
   18.0984   -9.4529  -13.9561 N   0  0  0  0  0  0  0  0  0  0  0  0
   19.3042   -7.3512  -13.8384 C   0  0  0  0  0  0  0  0  0  0  0  0
   20.3753   -8.0107  -13.8252 O   0  0  0  0  0  0  0  0  0  0  0  0
   22.8137   -3.8901  -15.3878 N   0  0  0  0  0  0  0  0  0  0  0  0
   21.5548   -3.2257  -15.4419 C   0  0  0  0  0  0  0  0  0  0  0  0
   21.5170   -2.0632  -15.8835 O   0  0  0  0  0  0  0  0  0  0  0  0
   20.3325   -3.8973  -14.9870 C   0  0  0  0  0  0  0  0  0  0  0  0
   20.5974   -5.2482  -14.4390 C   0  0  2  0  0  0  0  0  0  0  0  0
   19.3791   -5.9702  -14.0960 N   0  0  0  0  0  0  0  0  0  0  0  0
   21.5948   -5.3259  -13.3781 C   0  0  0  0  0  0  0  0  0  0  0  0
   21.4044   -5.3587  -12.1498 O   0  0  0  0  0  0  0  0  0  0  0  0
   22.9448   -5.3698  -13.7753 O   0  0  0  0  0  0  0  0  0  0  0  0
  1  2  1  0
  3  4  2  0
  3  2  1  0
  7  6  1  1
  6  5  1  0
  7  8  1  0
  8  3  1  0
  9  7  1  0
 10  9  2  0
 11 12  1  0
 12 13  2  0
 14 12  1  0
 15 14  1  1
 15 17  1  0
 15 16  1  0
 16  9  1  0
 17 19  1  0
 18 17  2  0
M  END
$$$$
