GSN.pdb
     RDKit          3D

 19 18  0  0  1  0  0  0  0  0999 V2000
   18.9983  -13.0951  -16.0790 N   0  0  0  0  0  0  0  0  0  0  0  0
   19.4500  -12.0503  -16.9472 C   0  0  0  0  0  0  0  0  0  0  0  0
   19.7921  -10.8052  -16.2146 C   0  0  0  0  0  0  0  0  0  0  0  0
   18.9536  -10.2928  -15.4319 O   0  0  0  0  0  0  0  0  0  0  0  0
   23.4169   -9.6345  -14.6731 O   0  0  0  0  0  0  0  0  0  0  0  0
   22.8375   -8.7388  -15.5428 C   0  0  0  0  0  0  0  0  0  0  0  0
   21.3336   -8.9470  -15.6680 C   0  0  2  0  0  0  0  0  0  0  0  0
   21.0494  -10.1631  -16.3679 N   0  0  0  0  0  0  0  0  0  0  0  0
   20.7823   -7.7520  -16.3577 C   0  0  0  0  0  0  0  0  0  0  0  0
   20.8100   -7.7248  -17.6150 O   0  0  0  0  0  0  0  0  0  0  0  0
   16.9737   -2.9101  -15.7080 N   0  0  0  0  0  0  0  0  0  0  0  0
   18.0267   -3.6711  -16.2921 C   0  0  0  0  0  0  0  0  0  0  0  0
   18.4730   -3.3143  -17.3972 O   0  0  0  0  0  0  0  0  0  0  0  0
   18.5709   -4.8480  -15.6059 C   0  0  0  0  0  0  0  0  0  0  0  0
   19.7207   -5.4439  -16.3257 C   0  0  2  0  0  0  0  0  0  0  0  0
   20.2304   -6.6479  -15.6828 N   0  0  0  0  0  0  0  0  0  0  0  0
   20.7927   -4.5261  -16.6934 C   0  0  0  0  0  0  0  0  0  0  0  0
   20.8934   -3.8420  -17.7268 O   0  0  0  0  0  0  0  0  0  0  0  0
   21.8523   -4.3848  -15.7771 O   0  0  0  0  0  0  0  0  0  0  0  0
  1  2  1  0
  3  4  2  0
  3  2  1  0
  7  6  1  6
  6  5  1  0
  7  8  1  0
  8  3  1  0
  9  7  1  0
 10  9  2  0
 11 12  1  0
 12 13  2  0
 14 12  1  0
 15 14  1  1
 15 17  1  0
 15 16  1  0
 16  9  1  0
 17 19  1  0
 18 17  2  0
M  END
$$$$
