GSN.pdb
     RDKit          3D

 19 18  0  0  1  0  0  0  0  0999 V2000
   16.5368  -15.5533  -16.5577 N   0  0  0  0  0  0  0  0  0  0  0  0
   17.0118  -14.6897  -15.5194 C   0  0  0  0  0  0  0  0  0  0  0  0
   18.0342  -13.7262  -15.9995 C   0  0  0  0  0  0  0  0  0  0  0  0
   19.1117  -13.5949  -15.3671 O   0  0  0  0  0  0  0  0  0  0  0  0
   17.4131  -10.8405  -19.1021 O   0  0  0  0  0  0  0  0  0  0  0  0
   18.5643  -11.5932  -19.0532 C   0  0  0  0  0  0  0  0  0  0  0  0
   18.8768  -12.0782  -17.6433 C   0  0  2  0  0  0  0  0  0  0  0  0
   17.8365  -12.9367  -17.1632 N   0  0  0  0  0  0  0  0  0  0  0  0
   19.0550  -10.8716  -16.7948 C   0  0  0  0  0  0  0  0  0  0  0  0
   18.0502  -10.4145  -16.1915 O   0  0  0  0  0  0  0  0  0  0  0  0
   20.9192   -6.8185  -14.1921 N   0  0  0  0  0  0  0  0  0  0  0  0
   21.4314   -8.0759  -13.7608 C   0  0  0  0  0  0  0  0  0  0  0  0
   22.0819   -8.1186  -12.7012 O   0  0  0  0  0  0  0  0  0  0  0  0
   21.1969   -9.2909  -14.5487 C   0  0  0  0  0  0  0  0  0  0  0  0
   20.4903   -9.0147  -15.8215 C   0  0  2  0  0  0  0  0  0  0  0  0
   20.2857  -10.2109  -16.6279 N   0  0  0  0  0  0  0  0  0  0  0  0
   21.0060   -7.9042  -16.6135 C   0  0  0  0  0  0  0  0  0  0  0  0
   21.4872   -7.9402  -17.7594 O   0  0  0  0  0  0  0  0  0  0  0  0
   20.9613   -6.6266  -16.0236 O   0  0  0  0  0  0  0  0  0  0  0  0
  1  2  1  0
  3  4  2  0
  3  2  1  0
  7  6  1  6
  6  5  1  0
  7  8  1  0
  8  3  1  0
  9  7  1  0
 10  9  2  0
 11 12  1  0
 12 13  2  0
 14 12  1  0
 15 14  1  1
 15 17  1  0
 15 16  1  0
 16  9  1  0
 17 19  1  0
 18 17  2  0
M  END
$$$$
