GSN.pdb
     RDKit          3D

 19 18  0  0  1  0  0  0  0  0999 V2000
   27.9776  -34.4802   -5.9069 N   0  0  0  0  0  0  0  0  0  0  0  0
   26.7299  -34.0306   -5.3679 C   0  0  0  0  0  0  0  0  0  0  0  0
   26.8716  -33.4385   -4.0139 C   0  0  0  0  0  0  0  0  0  0  0  0
   27.9988  -33.4137   -3.4597 O   0  0  0  0  0  0  0  0  0  0  0  0
   23.5544  -31.9768   -1.9322 O   0  0  0  0  0  0  0  0  0  0  0  0
   24.7823  -31.4291   -1.6380 C   0  0  0  0  0  0  0  0  0  0  0  0
   25.9310  -32.3651   -1.9911 C   0  0  2  0  0  0  0  0  0  0  0  0
   25.7648  -32.8915   -3.3121 N   0  0  0  0  0  0  0  0  0  0  0  0
   25.9626  -33.4296   -0.9549 C   0  0  0  0  0  0  0  0  0  0  0  0
   25.4721  -34.5524   -1.2398 O   0  0  0  0  0  0  0  0  0  0  0  0
   30.2612  -34.5659    2.0298 N   0  0  0  0  0  0  0  0  0  0  0  0
   28.9780  -34.5430    1.4117 C   0  0  0  0  0  0  0  0  0  0  0  0
   28.9005  -34.8044    0.1978 O   0  0  0  0  0  0  0  0  0  0  0  0
   27.7771  -34.2185    2.1891 C   0  0  0  0  0  0  0  0  0  0  0  0
   26.5416  -34.2677    1.3727 C   0  0  2  0  0  0  0  0  0  0  0  0
   26.5109  -33.2521    0.3284 N   0  0  0  0  0  0  0  0  0  0  0  0
   25.2862  -34.3284    2.1121 C   0  0  0  0  0  0  0  0  0  0  0  0
   24.3012  -33.5763    2.0104 O   0  0  0  0  0  0  0  0  0  0  0  0
   25.1559  -35.3592    3.0621 O   0  0  0  0  0  0  0  0  0  0  0  0
  1  2  1  0
  3  4  2  0
  3  2  1  0
  7  6  1  1
  6  5  1  0
  7  8  1  0
  8  3  1  0
  9  7  1  0
 10  9  2  0
 11 12  1  0
 12 13  2  0
 14 12  1  0
 15 14  1  1
 15 17  1  0
 15 16  1  0
 16  9  1  0
 17 19  1  0
 18 17  2  0
M  END
$$$$
