NQT.pdb
     RDKit          3D

 25 24  0  0  1  0  0  0  0  0999 V2000
    8.4209  -18.3691   17.2019 N   0  0  0  0  0  0  0  0  0  0  0  0
    8.1556  -17.1471   17.8328 C   0  0  0  0  0  0  0  0  0  0  0  0
    8.4062  -16.0290   17.3122 O   0  0  0  0  0  0  0  0  0  0  0  0
    7.5428  -17.1398   19.1962 C   0  0  0  0  0  0  0  0  0  0  0  0
    8.3292  -16.1628   20.0526 C   0  0  2  0  0  0  0  0  0  0  0  0
    9.7361  -16.2614   19.8305 N   0  0  0  0  0  0  0  0  0  0  0  0
    7.9417  -16.2351   21.4703 C   0  0  0  0  0  0  0  0  0  0  0  0
    6.6972  -16.3085   21.7162 O   0  0  0  0  0  0  0  0  0  0  0  0
   11.2011  -20.1893   24.5545 N   0  0  0  0  0  0  0  0  0  0  0  0
   11.2722  -18.7925   24.8079 C   0  0  0  0  0  0  0  0  0  0  0  0
   12.0364  -18.4032   25.7241 O   0  0  0  0  0  0  0  0  0  0  0  0
   10.5053  -17.7896   24.0603 C   0  0  0  0  0  0  0  0  0  0  0  0
    9.2045  -17.4000   24.6586 C   0  0  0  0  0  0  0  0  0  0  0  0
    8.4238  -16.3692   23.8757 C   0  0  2  0  0  0  0  0  0  0  0  0
    8.8898  -16.2252   22.5304 N   0  0  0  0  0  0  0  0  0  0  0  0
    8.6358  -15.0772   24.6085 C   0  0  0  0  0  0  0  0  0  0  0  0
    9.7257  -14.4786   24.4039 O   0  0  0  0  0  0  0  0  0  0  0  0
    6.5094  -11.8120   24.7630 C   0  0  0  0  0  0  0  0  0  0  0  0
    6.7846  -12.3526   26.1473 C   0  0  1  0  0  0  0  0  0  0  0  0
    5.6759  -13.0584   26.6324 O   0  0  0  0  0  0  0  0  0  0  0  0
    7.9608  -13.3021   26.1668 C   0  0  2  0  0  0  0  0  0  0  0  0
    7.6790  -14.5412   25.4859 N   0  0  0  0  0  0  0  0  0  0  0  0
    8.3962  -13.5399   27.5710 C   0  0  0  0  0  0  0  0  0  0  0  0
    8.4622  -14.7968   28.1270 O   0  0  0  0  0  0  0  0  0  0  0  0
    8.7129  -12.5425   28.2630 O   0  0  0  0  0  0  0  0  0  0  0  0
  2  1  1  0
  2  3  2  0
  4  2  1  0
  5  4  1  0
  5  7  1  0
  5  6  1  1
  7  8  2  0
 10  9  1  0
 10 12  1  0
 11 10  2  0
 13 12  1  0
 14 13  1  1
 15 14  1  0
 15  7  1  0
 16 14  1  0
 16 17  2  0
 19 18  1  6
 19 21  1  0
 20 19  1  0
 21 22  1  1
 21 23  1  0
 22 16  1  0
 23 24  1  0
 25 23  2  0
M  END
$$$$
