NQT.pdb
     RDKit          3D

 25 24  0  0  1  0  0  0  0  0999 V2000
    8.8804  -11.9411   19.1504 N   0  0  0  0  0  0  0  0  0  0  0  0
    8.2521  -13.1462   18.8118 C   0  0  0  0  0  0  0  0  0  0  0  0
    8.4188  -13.7293   17.7089 O   0  0  0  0  0  0  0  0  0  0  0  0
    7.3302  -13.7971   19.7919 C   0  0  0  0  0  0  0  0  0  0  0  0
    7.9044  -15.1609   20.1334 C   0  0  2  0  0  0  0  0  0  0  0  0
    7.3993  -16.1884   19.2805 N   0  0  0  0  0  0  0  0  0  0  0  0
    7.7889  -15.4653   21.5685 C   0  0  0  0  0  0  0  0  0  0  0  0
    6.6143  -15.6464   22.0181 O   0  0  0  0  0  0  0  0  0  0  0  0
   11.8450  -18.7425   25.2875 N   0  0  0  0  0  0  0  0  0  0  0  0
   10.7740  -18.2950   26.1079 C   0  0  0  0  0  0  0  0  0  0  0  0
   10.7682  -18.6567   27.3096 O   0  0  0  0  0  0  0  0  0  0  0  0
    9.6835  -17.4389   25.6275 C   0  0  0  0  0  0  0  0  0  0  0  0
    9.8047  -16.9730   24.2239 C   0  0  0  0  0  0  0  0  0  0  0  0
    8.7247  -16.0167   23.7721 C   0  0  2  0  0  0  0  0  0  0  0  0
    8.9164  -15.5578   22.4304 N   0  0  0  0  0  0  0  0  0  0  0  0
    8.8198  -14.8478   24.7079 C   0  0  0  0  0  0  0  0  0  0  0  0
    9.8177  -14.0900   24.5732 O   0  0  0  0  0  0  0  0  0  0  0  0
    6.4948  -11.8491   25.4038 C   0  0  0  0  0  0  0  0  0  0  0  0
    6.7744  -12.6159   26.6758 C   0  0  1  0  0  0  0  0  0  0  0  0
    5.7152  -13.4831   26.9739 O   0  0  0  0  0  0  0  0  0  0  0  0
    8.0249  -13.4590   26.5720 C   0  0  2  0  0  0  0  0  0  0  0  0
    7.8543  -14.5906   25.6951 N   0  0  0  0  0  0  0  0  0  0  0  0
    8.4628  -13.8846   27.9303 C   0  0  0  0  0  0  0  0  0  0  0  0
    8.7598  -12.9885   28.9313 O   0  0  0  0  0  0  0  0  0  0  0  0
    8.5600  -15.1149   28.1557 O   0  0  0  0  0  0  0  0  0  0  0  0
  2  1  1  0
  2  3  2  0
  4  2  1  0
  5  4  1  0
  5  7  1  0
  5  6  1  6
  7  8  2  0
 10  9  1  0
 10 12  1  0
 11 10  2  0
 13 12  1  0
 14 13  1  1
 15 14  1  0
 15  7  1  0
 16 14  1  0
 16 17  2  0
 19 18  1  6
 19 21  1  0
 20 19  1  0
 21 22  1  6
 21 23  1  0
 22 16  1  0
 23 24  1  0
 25 23  2  0
M  END
$$$$
