NQT.pdb
     RDKit          3D

 25 24  0  0  1  0  0  0  0  0999 V2000
   10.0946  -18.4821   18.9106 N   0  0  0  0  0  0  0  0  0  0  0  0
    9.7096  -17.1356   18.8965 C   0  0  0  0  0  0  0  0  0  0  0  0
   10.1467  -16.2979   18.0651 O   0  0  0  0  0  0  0  0  0  0  0  0
    8.7295  -16.6390   19.9100 C   0  0  0  0  0  0  0  0  0  0  0  0
    8.3930  -17.7956   20.8349 C   0  0  2  0  0  0  0  0  0  0  0  0
    7.7059  -18.8472   20.1564 N   0  0  0  0  0  0  0  0  0  0  0  0
    7.7255  -17.3425   22.0656 C   0  0  0  0  0  0  0  0  0  0  0  0
    6.4878  -17.0701   21.9734 O   0  0  0  0  0  0  0  0  0  0  0  0
    8.7019  -18.1599   28.4758 N   0  0  0  0  0  0  0  0  0  0  0  0
    9.3687  -18.7190   27.3520 C   0  0  0  0  0  0  0  0  0  0  0  0
   10.1425  -19.6862   27.5537 O   0  0  0  0  0  0  0  0  0  0  0  0
    9.2010  -18.2290   25.9792 C   0  0  0  0  0  0  0  0  0  0  0  0
    7.8027  -17.9648   25.5589 C   0  0  0  0  0  0  0  0  0  0  0  0
    7.6460  -16.9141   24.4835 C   0  0  2  0  0  0  0  0  0  0  0  0
    8.4061  -17.2074   23.3071 N   0  0  0  0  0  0  0  0  0  0  0  0
    8.1621  -15.6457   25.0966 C   0  0  0  0  0  0  0  0  0  0  0  0
    9.3941  -15.4123   24.9705 O   0  0  0  0  0  0  0  0  0  0  0  0
    6.6100  -11.8553   25.0684 C   0  0  0  0  0  0  0  0  0  0  0  0
    6.9234  -12.4149   26.4369 C   0  0  1  0  0  0  0  0  0  0  0  0
    5.7611  -12.8982   27.0519 O   0  0  0  0  0  0  0  0  0  0  0  0
    7.9047  -13.5632   26.3741 C   0  0  2  0  0  0  0  0  0  0  0  0
    7.3303  -14.7461   25.7833 N   0  0  0  0  0  0  0  0  0  0  0  0
    8.4457  -13.8418   27.7333 C   0  0  0  0  0  0  0  0  0  0  0  0
    9.1190  -12.8979   28.4742 O   0  0  0  0  0  0  0  0  0  0  0  0
    8.2720  -14.9896   28.2089 O   0  0  0  0  0  0  0  0  0  0  0  0
  2  1  1  0
  2  3  2  0
  4  2  1  0
  5  4  1  0
  5  7  1  0
  5  6  1  6
  7  8  2  0
 10  9  1  0
 10 12  1  0
 11 10  2  0
 13 12  1  0
 14 13  1  1
 15 14  1  0
 15  7  1  0
 16 14  1  0
 16 17  2  0
 19 18  1  6
 19 21  1  0
 20 19  1  0
 21 22  1  1
 21 23  1  0
 22 16  1  0
 23 24  1  0
 25 23  2  0
M  END
$$$$
