NQT.pdb
     RDKit          3D

 25 24  0  0  1  0  0  0  0  0999 V2000
    8.9300  -15.7844   17.7011 N   0  0  0  0  0  0  0  0  0  0  0  0
    7.9360  -16.7273   17.9919 C   0  0  0  0  0  0  0  0  0  0  0  0
    7.1519  -17.1978   17.1271 O   0  0  0  0  0  0  0  0  0  0  0  0
    7.7749  -17.2191   19.3942 C   0  0  0  0  0  0  0  0  0  0  0  0
    8.7518  -16.4533   20.2692 C   0  0  2  0  0  0  0  0  0  0  0  0
   10.0757  -16.9821   20.1909 N   0  0  0  0  0  0  0  0  0  0  0  0
    8.2530  -16.2926   21.6442 C   0  0  0  0  0  0  0  0  0  0  0  0
    7.1221  -15.7285   21.7761 O   0  0  0  0  0  0  0  0  0  0  0  0
   10.8073  -19.8579   26.1836 N   0  0  0  0  0  0  0  0  0  0  0  0
   11.0509  -18.4579   26.1550 C   0  0  0  0  0  0  0  0  0  0  0  0
   11.8234  -17.9816   27.0219 O   0  0  0  0  0  0  0  0  0  0  0  0
   10.4516  -17.5473   25.1729 C   0  0  0  0  0  0  0  0  0  0  0  0
    8.9708  -17.5840   25.0844 C   0  0  0  0  0  0  0  0  0  0  0  0
    8.3670  -16.6351   24.0744 C   0  0  2  0  0  0  0  0  0  0  0  0
    8.9782  -16.7363   22.7844 N   0  0  0  0  0  0  0  0  0  0  0  0
    8.6159  -15.2631   24.6281 C   0  0  0  0  0  0  0  0  0  0  0  0
    9.6644  -14.6767   24.2472 O   0  0  0  0  0  0  0  0  0  0  0  0
    6.9035  -11.9595   24.3207 C   0  0  0  0  0  0  0  0  0  0  0  0
    6.9944  -12.3156   25.7867 C   0  0  1  0  0  0  0  0  0  0  0  0
    5.7834  -12.8536   26.2413 O   0  0  0  0  0  0  0  0  0  0  0  0
    8.0690  -13.3432   26.0599 C   0  0  2  0  0  0  0  0  0  0  0  0
    7.7361  -14.6418   25.5296 N   0  0  0  0  0  0  0  0  0  0  0  0
    8.3480  -13.4077   27.5214 C   0  0  0  0  0  0  0  0  0  0  0  0
    8.7143  -12.3051   28.2585 O   0  0  0  0  0  0  0  0  0  0  0  0
    8.2401  -14.5210   28.0897 O   0  0  0  0  0  0  0  0  0  0  0  0
  2  1  1  0
  2  3  2  0
  4  2  1  0
  5  4  1  0
  5  7  1  0
  5  6  1  1
  7  8  2  0
 10  9  1  0
 10 12  1  0
 11 10  2  0
 13 12  1  0
 14 13  1  1
 15 14  1  0
 15  7  1  0
 16 14  1  0
 16 17  2  0
 19 18  1  6
 19 21  1  0
 20 19  1  0
 21 22  1  1
 21 23  1  0
 22 16  1  0
 23 24  1  0
 25 23  2  0
M  END
$$$$
