NQT.pdb
     RDKit          3D

 25 24  0  0  1  0  0  0  0  0999 V2000
   14.1571  -16.2320   14.7044 N   0  0  0  0  0  0  0  0  0  0  0  0
   14.5376  -16.1018   16.0460 C   0  0  0  0  0  0  0  0  0  0  0  0
   15.3586  -16.8700   16.6118 O   0  0  0  0  0  0  0  0  0  0  0  0
   13.9547  -15.0021   16.8737 C   0  0  0  0  0  0  0  0  0  0  0  0
   13.3074  -15.6335   18.0938 C   0  0  2  0  0  0  0  0  0  0  0  0
   12.4928  -16.7554   17.7531 N   0  0  0  0  0  0  0  0  0  0  0  0
   12.6287  -14.6366   18.9370 C   0  0  0  0  0  0  0  0  0  0  0  0
   13.3321  -13.6564   19.3359 O   0  0  0  0  0  0  0  0  0  0  0  0
    6.7365  -12.4771   18.7658 N   0  0  0  0  0  0  0  0  0  0  0  0
    7.6923  -13.0665   17.8945 C   0  0  0  0  0  0  0  0  0  0  0  0
    7.3711  -13.2163   16.6906 O   0  0  0  0  0  0  0  0  0  0  0  0
    9.0245  -13.5054   18.3251 C   0  0  0  0  0  0  0  0  0  0  0  0
    9.3421  -13.2803   19.7570 C   0  0  0  0  0  0  0  0  0  0  0  0
   10.7050  -13.7672   20.1938 C   0  0  2  0  0  0  0  0  0  0  0  0
   11.2580  -14.7401   19.3020 N   0  0  0  0  0  0  0  0  0  0  0  0
   10.4830  -14.4022   21.5349 C   0  0  0  0  0  0  0  0  0  0  0  0
    9.5720  -13.9110   22.2539 O   0  0  0  0  0  0  0  0  0  0  0  0
    8.4230  -15.5928   22.8206 C   0  0  0  0  0  0  0  0  0  0  0  0
    9.4132  -16.7017   23.0931 C   0  0  1  0  0  0  0  0  0  0  0  0
    9.3809  -17.6567   22.0685 O   0  0  0  0  0  0  0  0  0  0  0  0
   10.8333  -16.1911   23.1818 C   0  0  2  0  0  0  0  0  0  0  0  0
   11.2426  -15.4930   21.9886 N   0  0  0  0  0  0  0  0  0  0  0  0
   11.7569  -17.3158   23.4978 C   0  0  0  0  0  0  0  0  0  0  0  0
   12.6463  -17.8283   22.5816 O   0  0  0  0  0  0  0  0  0  0  0  0
   11.7101  -17.8055   24.6520 O   0  0  0  0  0  0  0  0  0  0  0  0
  2  1  1  0
  2  3  2  0
  4  2  1  0
  5  4  1  0
  5  7  1  0
  5  6  1  6
  7  8  2  0
 10  9  1  0
 10 12  1  0
 11 10  2  0
 13 12  1  0
 14 13  1  6
 15 14  1  0
 15  7  1  0
 16 14  1  0
 16 17  2  0
 19 18  1  6
 19 21  1  0
 20 19  1  0
 21 22  1  6
 21 23  1  0
 22 16  1  0
 23 24  1  0
 25 23  2  0
M  END
$$$$
