NQT.pdb
     RDKit          3D

 25 24  0  0  1  0  0  0  0  0999 V2000
   12.4551  -18.6991   14.4084 N   0  0  0  0  0  0  0  0  0  0  0  0
   12.3787  -18.8882   15.7941 C   0  0  0  0  0  0  0  0  0  0  0  0
   12.0192  -19.9699   16.3277 O   0  0  0  0  0  0  0  0  0  0  0  0
   12.7372  -17.7641   16.7118 C   0  0  0  0  0  0  0  0  0  0  0  0
   11.8422  -17.8609   17.9349 C   0  0  2  0  0  0  0  0  0  0  0  0
   10.6026  -18.5083   17.6470 N   0  0  0  0  0  0  0  0  0  0  0  0
   11.6951  -16.5647   18.6157 C   0  0  0  0  0  0  0  0  0  0  0  0
   12.6384  -15.7285   18.4555 O   0  0  0  0  0  0  0  0  0  0  0  0
    7.6761  -12.1778   18.9191 N   0  0  0  0  0  0  0  0  0  0  0  0
    7.5536  -13.5051   18.4257 C   0  0  0  0  0  0  0  0  0  0  0  0
    6.7382  -13.7089   17.4937 O   0  0  0  0  0  0  0  0  0  0  0  0
    8.3245  -14.6407   18.9444 C   0  0  0  0  0  0  0  0  0  0  0  0
    9.1699  -14.3540   20.1297 C   0  0  0  0  0  0  0  0  0  0  0  0
   10.5449  -14.9814   20.1010 C   0  0  2  0  0  0  0  0  0  0  0  0
   10.5665  -16.2383   19.4173 N   0  0  0  0  0  0  0  0  0  0  0  0
   10.9057  -15.2008   21.5408 C   0  0  0  0  0  0  0  0  0  0  0  0
   10.8718  -14.1928   22.2964 O   0  0  0  0  0  0  0  0  0  0  0  0
    9.3596  -16.4652   24.4321 C   0  0  0  0  0  0  0  0  0  0  0  0
   10.6125  -17.2926   24.2600 C   0  0  1  0  0  0  0  0  0  0  0  0
   10.3222  -18.5021   23.6152 O   0  0  0  0  0  0  0  0  0  0  0  0
   11.6562  -16.5833   23.4277 C   0  0  2  0  0  0  0  0  0  0  0  0
   11.2673  -16.4609   22.0449 N   0  0  0  0  0  0  0  0  0  0  0  0
   12.9684  -17.2744   23.5645 C   0  0  0  0  0  0  0  0  0  0  0  0
   13.6052  -17.8789   22.5051 O   0  0  0  0  0  0  0  0  0  0  0  0
   13.5026  -17.2976   24.6994 O   0  0  0  0  0  0  0  0  0  0  0  0
  2  1  1  0
  2  3  2  0
  4  2  1  0
  5  4  1  0
  5  7  1  0
  5  6  1  6
  7  8  2  0
 10  9  1  0
 10 12  1  0
 11 10  2  0
 13 12  1  0
 14 13  1  1
 15 14  1  0
 15  7  1  0
 16 14  1  0
 16 17  2  0
 19 18  1  6
 19 21  1  0
 20 19  1  0
 21 22  1  6
 21 23  1  0
 22 16  1  0
 23 24  1  0
 25 23  2  0
M  END
$$$$
