NQT.pdb
     RDKit          3D

 25 24  0  0  1  0  0  0  0  0999 V2000
    9.7572  -16.9838   17.9968 N   0  0  0  0  0  0  0  0  0  0  0  0
    8.5953  -17.7105   18.2858 C   0  0  0  0  0  0  0  0  0  0  0  0
    7.9665  -18.3831   17.4277 O   0  0  0  0  0  0  0  0  0  0  0  0
    8.0506  -17.7056   19.6777 C   0  0  0  0  0  0  0  0  0  0  0  0
    8.9592  -16.8351   20.5281 C   0  0  2  0  0  0  0  0  0  0  0  0
   10.2915  -17.3445   20.5902 N   0  0  0  0  0  0  0  0  0  0  0  0
    8.3697  -16.5419   21.8441 C   0  0  0  0  0  0  0  0  0  0  0  0
    7.1948  -16.0579   21.8454 O   0  0  0  0  0  0  0  0  0  0  0  0
    9.8934  -19.6046   27.1550 N   0  0  0  0  0  0  0  0  0  0  0  0
   10.7113  -18.5590   26.6471 C   0  0  0  0  0  0  0  0  0  0  0  0
   11.9041  -18.5100   27.0343 O   0  0  0  0  0  0  0  0  0  0  0  0
   10.2383  -17.5420   25.7012 C   0  0  0  0  0  0  0  0  0  0  0  0
    8.7958  -17.6059   25.3592 C   0  0  0  0  0  0  0  0  0  0  0  0
    8.3460  -16.6263   24.2994 C   0  0  2  0  0  0  0  0  0  0  0  0
    9.0569  -16.7780   23.0668 N   0  0  0  0  0  0  0  0  0  0  0  0
    8.6388  -15.2699   24.8699 C   0  0  0  0  0  0  0  0  0  0  0  0
    9.7474  -14.7521   24.5679 O   0  0  0  0  0  0  0  0  0  0  0  0
    6.4473  -11.9740   24.7330 C   0  0  0  0  0  0  0  0  0  0  0  0
    6.8633  -12.3374   26.1398 C   0  0  1  0  0  0  0  0  0  0  0  0
    5.8221  -12.9925   26.8102 O   0  0  0  0  0  0  0  0  0  0  0  0
    8.0589  -13.2623   26.1616 C   0  0  2  0  0  0  0  0  0  0  0  0
    7.7354  -14.5904   25.7036 N   0  0  0  0  0  0  0  0  0  0  0  0
    8.6546  -13.2876   27.5263 C   0  0  0  0  0  0  0  0  0  0  0  0
    8.8672  -14.4543   28.2240 O   0  0  0  0  0  0  0  0  0  0  0  0
    8.9707  -12.1912   28.0479 O   0  0  0  0  0  0  0  0  0  0  0  0
  2  1  1  0
  2  3  2  0
  4  2  1  0
  5  4  1  0
  5  7  1  0
  5  6  1  1
  7  8  2  0
 10  9  1  0
 10 12  1  0
 11 10  2  0
 13 12  1  0
 14 13  1  1
 15 14  1  0
 15  7  1  0
 16 14  1  0
 16 17  2  0
 19 18  1  6
 19 21  1  0
 20 19  1  0
 21 22  1  1
 21 23  1  0
 22 16  1  0
 23 24  1  0
 25 23  2  0
M  END
$$$$
