NQT.pdb
     RDKit          3D

 25 24  0  0  1  0  0  0  0  0999 V2000
    8.6774  -18.8414   18.9092 N   0  0  0  0  0  0  0  0  0  0  0  0
    9.8233  -18.0773   19.1639 C   0  0  0  0  0  0  0  0  0  0  0  0
   10.6260  -17.7108   18.2665 O   0  0  0  0  0  0  0  0  0  0  0  0
   10.1344  -17.6607   20.5653 C   0  0  0  0  0  0  0  0  0  0  0  0
    9.5209  -16.2895   20.7883 C   0  0  2  0  0  0  0  0  0  0  0  0
    9.9757  -15.3325   19.8314 N   0  0  0  0  0  0  0  0  0  0  0  0
    9.6521  -15.8463   22.1853 C   0  0  0  0  0  0  0  0  0  0  0  0
   10.7926  -15.9976   22.7247 O   0  0  0  0  0  0  0  0  0  0  0  0
    5.6199  -12.2993   25.9736 N   0  0  0  0  0  0  0  0  0  0  0  0
    6.8412  -12.5408   26.6595 C   0  0  0  0  0  0  0  0  0  0  0  0
    7.0147  -11.9679   27.7626 O   0  0  0  0  0  0  0  0  0  0  0  0
    7.9013  -13.4179   26.1499 C   0  0  0  0  0  0  0  0  0  0  0  0
    7.6954  -13.9417   24.7769 C   0  0  0  0  0  0  0  0  0  0  0  0
    8.8144  -14.8107   24.2497 C   0  0  2  0  0  0  0  0  0  0  0  0
    8.5749  -15.2751   22.9175 N   0  0  0  0  0  0  0  0  0  0  0  0
    8.8660  -15.9888   25.1773 C   0  0  0  0  0  0  0  0  0  0  0  0
    7.8010  -16.6468   25.3221 O   0  0  0  0  0  0  0  0  0  0  0  0
   10.4338  -19.1604   24.8212 C   0  0  0  0  0  0  0  0  0  0  0  0
   10.9170  -18.6321   26.1522 C   0  0  1  0  0  0  0  0  0  0  0  0
   12.2041  -18.0919   26.0325 O   0  0  0  0  0  0  0  0  0  0  0  0
   10.0233  -17.5387   26.6918 C   0  0  2  0  0  0  0  0  0  0  0  0
   10.0347  -16.3594   25.8627 N   0  0  0  0  0  0  0  0  0  0  0  0
   10.4043  -17.2202   28.0959 C   0  0  0  0  0  0  0  0  0  0  0  0
   10.8616  -15.9806   28.4800 O   0  0  0  0  0  0  0  0  0  0  0  0
   10.2982  -18.1306   28.9525 O   0  0  0  0  0  0  0  0  0  0  0  0
  2  1  1  0
  2  3  2  0
  4  2  1  0
  5  4  1  0
  5  7  1  0
  5  6  1  6
  7  8  2  0
 10  9  1  0
 10 12  1  0
 11 10  2  0
 13 12  1  0
 14 13  1  1
 15 14  1  0
 15  7  1  0
 16 14  1  0
 16 17  2  0
 19 18  1  6
 19 21  1  0
 20 19  1  0
 21 22  1  6
 21 23  1  0
 22 16  1  0
 23 24  1  0
 25 23  2  0
M  END
$$$$
