NQT.pdb
     RDKit          3D

 25 24  0  0  1  0  0  0  0  0999 V2000
    8.9589  -14.7559   17.3464 N   0  0  0  0  0  0  0  0  0  0  0  0
    8.1823  -13.7661   17.9621 C   0  0  0  0  0  0  0  0  0  0  0  0
    7.8813  -12.6766   17.4085 O   0  0  0  0  0  0  0  0  0  0  0  0
    7.6703  -13.9879   19.3487 C   0  0  0  0  0  0  0  0  0  0  0  0
    8.1533  -15.3524   19.8085 C   0  0  2  0  0  0  0  0  0  0  0  0
    7.5710  -16.4142   19.0524 N   0  0  0  0  0  0  0  0  0  0  0  0
    8.0311  -15.5195   21.2654 C   0  0  0  0  0  0  0  0  0  0  0  0
    6.8826  -15.3096   21.7670 O   0  0  0  0  0  0  0  0  0  0  0  0
   11.4329  -20.0010   22.0414 N   0  0  0  0  0  0  0  0  0  0  0  0
   11.2581  -19.0857   23.1147 C   0  0  0  0  0  0  0  0  0  0  0  0
   12.2825  -18.7106   23.7350 O   0  0  0  0  0  0  0  0  0  0  0  0
    9.9533  -18.5602   23.5320 C   0  0  0  0  0  0  0  0  0  0  0  0
    9.9531  -17.1599   24.0228 C   0  0  0  0  0  0  0  0  0  0  0  0
    8.8667  -16.2807   23.4467 C   0  0  2  0  0  0  0  0  0  0  0  0
    9.1249  -15.8956   22.0929 N   0  0  0  0  0  0  0  0  0  0  0  0
    8.8554  -15.0545   24.3111 C   0  0  0  0  0  0  0  0  0  0  0  0
    9.7119  -14.1671   24.0521 O   0  0  0  0  0  0  0  0  0  0  0  0
    6.3604  -11.7303   26.7645 C   0  0  0  0  0  0  0  0  0  0  0  0
    6.4393  -13.0879   26.1051 C   0  0  1  0  0  0  0  0  0  0  0  0
    5.9447  -13.0314   24.7955 O   0  0  0  0  0  0  0  0  0  0  0  0
    7.8584  -13.6024   26.0237 C   0  0  2  0  0  0  0  0  0  0  0  0
    7.9428  -14.8819   25.3648 N   0  0  0  0  0  0  0  0  0  0  0  0
    8.4581  -13.6515   27.3860 C   0  0  0  0  0  0  0  0  0  0  0  0
    8.6437  -12.5280   28.1584 O   0  0  0  0  0  0  0  0  0  0  0  0
    8.8032  -14.7714   27.8341 O   0  0  0  0  0  0  0  0  0  0  0  0
  2  1  1  0
  2  3  2  0
  4  2  1  0
  5  4  1  0
  5  7  1  0
  5  6  1  6
  7  8  2  0
 10  9  1  0
 10 12  1  0
 11 10  2  0
 13 12  1  0
 14 13  1  1
 15 14  1  0
 15  7  1  0
 16 14  1  0
 16 17  2  0
 19 18  1  6
 19 21  1  0
 20 19  1  0
 21 22  1  1
 21 23  1  0
 22 16  1  0
 23 24  1  0
 25 23  2  0
M  END
$$$$
