NQT.pdb
     RDKit          3D

 25 24  0  0  1  0  0  0  0  0999 V2000
   12.1080  -15.7597   16.1010 N   0  0  0  0  0  0  0  0  0  0  0  0
   13.1379  -15.4206   16.9875 C   0  0  0  0  0  0  0  0  0  0  0  0
   14.1534  -16.1393   17.1783 O   0  0  0  0  0  0  0  0  0  0  0  0
   13.0538  -14.1444   17.7610 C   0  0  0  0  0  0  0  0  0  0  0  0
   13.2705  -14.4758   19.2272 C   0  0  2  0  0  0  0  0  0  0  0  0
   14.4831  -15.1975   19.4440 N   0  0  0  0  0  0  0  0  0  0  0  0
   12.0852  -15.1036   19.8325 C   0  0  0  0  0  0  0  0  0  0  0  0
   10.9875  -14.4740   19.7174 O   0  0  0  0  0  0  0  0  0  0  0  0
   10.9588  -21.2253   21.8402 N   0  0  0  0  0  0  0  0  0  0  0  0
    9.7692  -20.4541   21.9416 C   0  0  0  0  0  0  0  0  0  0  0  0
    8.7153  -21.0473   22.2768 O   0  0  0  0  0  0  0  0  0  0  0  0
    9.7090  -19.0121   21.6773 C   0  0  0  0  0  0  0  0  0  0  0  0
   10.9812  -18.3869   21.2384 C   0  0  0  0  0  0  0  0  0  0  0  0
   10.9303  -16.8858   21.0678 C   0  0  2  0  0  0  0  0  0  0  0  0
   12.1371  -16.3494   20.5166 N   0  0  0  0  0  0  0  0  0  0  0  0
   10.7393  -16.3402   22.4523 C   0  0  0  0  0  0  0  0  0  0  0  0
   11.7818  -16.0856   23.1130 O   0  0  0  0  0  0  0  0  0  0  0  0
    7.9002  -13.5894   23.6835 C   0  0  0  0  0  0  0  0  0  0  0  0
    8.0394  -14.8308   24.5343 C   0  0  1  0  0  0  0  0  0  0  0  0
    7.0325  -15.7557   24.2286 O   0  0  0  0  0  0  0  0  0  0  0  0
    9.3640  -15.5265   24.3182 C   0  0  2  0  0  0  0  0  0  0  0  0
    9.4685  -16.1159   23.0067 N   0  0  0  0  0  0  0  0  0  0  0  0
    9.5850  -16.5383   25.3884 C   0  0  0  0  0  0  0  0  0  0  0  0
    9.6594  -16.2071   26.7219 O   0  0  0  0  0  0  0  0  0  0  0  0
    9.7063  -17.7385   25.0438 O   0  0  0  0  0  0  0  0  0  0  0  0
  2  1  1  0
  2  3  2  0
  4  2  1  0
  5  4  1  0
  5  7  1  0
  5  6  1  6
  7  8  2  0
 10  9  1  0
 10 12  1  0
 11 10  2  0
 13 12  1  0
 14 13  1  1
 15 14  1  0
 15  7  1  0
 16 14  1  0
 16 17  2  0
 19 18  1  6
 19 21  1  0
 20 19  1  0
 21 22  1  6
 21 23  1  0
 22 16  1  0
 23 24  1  0
 25 23  2  0
M  END
$$$$
