NQT.pdb
     RDKit          3D

 25 24  0  0  1  0  0  0  0  0999 V2000
    7.9151  -17.1533   16.8259 N   0  0  0  0  0  0  0  0  0  0  0  0
    8.5755  -17.1484   18.0610 C   0  0  0  0  0  0  0  0  0  0  0  0
    9.8255  -17.2354   18.1794 O   0  0  0  0  0  0  0  0  0  0  0  0
    7.7800  -17.0347   19.3213 C   0  0  0  0  0  0  0  0  0  0  0  0
    8.7567  -16.9878   20.4833 C   0  0  2  0  0  0  0  0  0  0  0  0
    9.5474  -18.1732   20.5722 N   0  0  0  0  0  0  0  0  0  0  0  0
    8.0971  -16.6137   21.7444 C   0  0  0  0  0  0  0  0  0  0  0  0
    7.1170  -15.8098   21.6564 O   0  0  0  0  0  0  0  0  0  0  0  0
    7.8094  -20.0376   27.1789 N   0  0  0  0  0  0  0  0  0  0  0  0
    7.0338  -20.1426   25.9924 C   0  0  0  0  0  0  0  0  0  0  0  0
    6.3487  -21.1819   25.8326 O   0  0  0  0  0  0  0  0  0  0  0  0
    6.9921  -19.1079   24.9530 C   0  0  0  0  0  0  0  0  0  0  0  0
    7.8057  -17.8963   25.2213 C   0  0  0  0  0  0  0  0  0  0  0  0
    7.7183  -16.8203   24.1631 C   0  0  2  0  0  0  0  0  0  0  0  0
    8.5142  -17.1110   23.0099 N   0  0  0  0  0  0  0  0  0  0  0  0
    8.2448  -15.5793   24.8216 C   0  0  0  0  0  0  0  0  0  0  0  0
    9.4917  -15.4000   24.7844 O   0  0  0  0  0  0  0  0  0  0  0  0
    6.9262  -11.6284   25.0224 C   0  0  0  0  0  0  0  0  0  0  0  0
    7.0673  -12.3776   26.3274 C   0  0  1  0  0  0  0  0  0  0  0  0
    5.8252  -12.8639   26.7557 O   0  0  0  0  0  0  0  0  0  0  0  0
    7.9938  -13.5661   26.2070 C   0  0  2  0  0  0  0  0  0  0  0  0
    7.4067  -14.6475   25.4557 N   0  0  0  0  0  0  0  0  0  0  0  0
    8.4213  -14.0140   27.5614 C   0  0  0  0  0  0  0  0  0  0  0  0
    9.0394  -13.1768   28.4615 O   0  0  0  0  0  0  0  0  0  0  0  0
    8.2016  -15.2074   27.8801 O   0  0  0  0  0  0  0  0  0  0  0  0
  2  1  1  0
  2  3  2  0
  4  2  1  0
  5  4  1  0
  5  7  1  0
  5  6  1  1
  7  8  2  0
 10  9  1  0
 10 12  1  0
 11 10  2  0
 13 12  1  0
 14 13  1  1
 15 14  1  0
 15  7  1  0
 16 14  1  0
 16 17  2  0
 19 18  1  6
 19 21  1  0
 20 19  1  0
 21 22  1  1
 21 23  1  0
 22 16  1  0
 23 24  1  0
 25 23  2  0
M  END
$$$$
