NQT.pdb
     RDKit          3D

 25 24  0  0  1  0  0  0  0  0999 V2000
    8.1381  -12.2562   18.0115 N   0  0  0  0  0  0  0  0  0  0  0  0
    7.9675  -13.5666   18.4759 C   0  0  0  0  0  0  0  0  0  0  0  0
    8.2894  -14.5854   17.8107 O   0  0  0  0  0  0  0  0  0  0  0  0
    7.3750  -13.7975   19.8285 C   0  0  0  0  0  0  0  0  0  0  0  0
    8.0916  -14.9824   20.4523 C   0  0  2  0  0  0  0  0  0  0  0  0
    8.0306  -16.1457   19.6269 N   0  0  0  0  0  0  0  0  0  0  0  0
    7.6692  -15.2137   21.8428 C   0  0  0  0  0  0  0  0  0  0  0  0
    6.6175  -14.6116   22.2248 O   0  0  0  0  0  0  0  0  0  0  0  0
    6.6966  -19.3697   26.2240 N   0  0  0  0  0  0  0  0  0  0  0  0
    6.9689  -19.6250   24.8526 C   0  0  0  0  0  0  0  0  0  0  0  0
    6.4052  -20.6111   24.3189 O   0  0  0  0  0  0  0  0  0  0  0  0
    7.8670  -18.8025   24.0343 C   0  0  0  0  0  0  0  0  0  0  0  0
    8.3597  -17.5584   24.6756 C   0  0  0  0  0  0  0  0  0  0  0  0
    7.8612  -16.2758   24.0499 C   0  0  2  0  0  0  0  0  0  0  0  0
    8.3823  -16.0618   22.7344 N   0  0  0  0  0  0  0  0  0  0  0  0
    8.3497  -15.1828   24.9541 C   0  0  0  0  0  0  0  0  0  0  0  0
    9.5336  -14.7870   24.7812 O   0  0  0  0  0  0  0  0  0  0  0  0
    7.0481  -11.5928   25.7272 C   0  0  0  0  0  0  0  0  0  0  0  0
    7.1669  -12.4183   26.9875 C   0  0  1  0  0  0  0  0  0  0  0  0
    5.9181  -12.9300   27.3636 O   0  0  0  0  0  0  0  0  0  0  0  0
    8.0974  -13.5970   26.8134 C   0  0  2  0  0  0  0  0  0  0  0  0
    7.5436  -14.6127   25.9531 N   0  0  0  0  0  0  0  0  0  0  0  0
    8.4648  -14.1532   28.1451 C   0  0  0  0  0  0  0  0  0  0  0  0
    9.1238  -13.4172   29.1029 O   0  0  0  0  0  0  0  0  0  0  0  0
    8.1534  -15.3438   28.3889 O   0  0  0  0  0  0  0  0  0  0  0  0
  2  1  1  0
  2  3  2  0
  4  2  1  0
  5  4  1  0
  5  7  1  0
  5  6  1  6
  7  8  2  0
 10  9  1  0
 10 12  1  0
 11 10  2  0
 13 12  1  0
 14 13  1  1
 15 14  1  0
 15  7  1  0
 16 14  1  0
 16 17  2  0
 19 18  1  6
 19 21  1  0
 20 19  1  0
 21 22  1  6
 21 23  1  0
 22 16  1  0
 23 24  1  0
 25 23  2  0
M  END
$$$$
