NQT.pdb
     RDKit          3D

 25 24  0  0  1  0  0  0  0  0999 V2000
   13.3457  -18.5539   16.3101 N   0  0  0  0  0  0  0  0  0  0  0  0
   12.2006  -17.7479   16.2834 C   0  0  0  0  0  0  0  0  0  0  0  0
   11.9957  -16.8627   15.4125 O   0  0  0  0  0  0  0  0  0  0  0  0
   11.1497  -17.9260   17.3313 C   0  0  0  0  0  0  0  0  0  0  0  0
   11.6974  -18.8785   18.3798 C   0  0  2  0  0  0  0  0  0  0  0  0
   11.8269  -20.2110   17.8837 N   0  0  0  0  0  0  0  0  0  0  0  0
   10.9618  -18.7831   19.6507 C   0  0  0  0  0  0  0  0  0  0  0  0
    9.8490  -19.3935   19.7104 O   0  0  0  0  0  0  0  0  0  0  0  0
   11.9542  -20.5646   25.6024 N   0  0  0  0  0  0  0  0  0  0  0  0
   12.6280  -20.3421   24.3709 C   0  0  0  0  0  0  0  0  0  0  0  0
   13.8629  -20.5622   24.3327 O   0  0  0  0  0  0  0  0  0  0  0  0
   11.9609  -19.8725   23.1514 C   0  0  0  0  0  0  0  0  0  0  0  0
   11.4754  -18.4707   23.1851 C   0  0  0  0  0  0  0  0  0  0  0  0
   10.6768  -18.0414   21.9755 C   0  0  2  0  0  0  0  0  0  0  0  0
   11.4477  -18.0524   20.7700 N   0  0  0  0  0  0  0  0  0  0  0  0
   10.2467  -16.6343   22.2691 C   0  0  0  0  0  0  0  0  0  0  0  0
   11.1558  -15.7649   22.3447 O   0  0  0  0  0  0  0  0  0  0  0  0
    7.9855  -14.1743   20.3913 C   0  0  0  0  0  0  0  0  0  0  0  0
    7.4823  -14.3853   21.8008 C   0  0  1  0  0  0  0  0  0  0  0  0
    6.4398  -15.3211   21.8191 O   0  0  0  0  0  0  0  0  0  0  0  0
    8.5629  -14.9038   22.7221 C   0  0  2  0  0  0  0  0  0  0  0  0
    8.9004  -16.2797   22.4547 N   0  0  0  0  0  0  0  0  0  0  0  0
    8.1545  -14.7097   24.1410 C   0  0  0  0  0  0  0  0  0  0  0  0
    7.8477  -13.4750   24.6650 O   0  0  0  0  0  0  0  0  0  0  0  0
    8.0923  -15.7241   24.8766 O   0  0  0  0  0  0  0  0  0  0  0  0
  2  1  1  0
  2  3  2  0
  4  2  1  0
  5  4  1  0
  5  7  1  0
  5  6  1  6
  7  8  2  0
 10  9  1  0
 10 12  1  0
 11 10  2  0
 13 12  1  0
 14 13  1  1
 15 14  1  0
 15  7  1  0
 16 14  1  0
 16 17  2  0
 19 18  1  6
 19 21  1  0
 20 19  1  0
 21 22  1  6
 21 23  1  0
 22 16  1  0
 23 24  1  0
 25 23  2  0
M  END
$$$$
