CMH.pdb
     RDKit          3D

 25 25  0  0  1  0  0  0  0  0999 V2000
   28.1445  -21.6754  -16.2534 N   0  0  0  0  0  0  0  0  0  0  0  0
   28.3526  -20.8473  -15.1060 C   0  0  1  0  0  0  0  0  0  0  0  0
   28.3723  -19.3926  -15.4397 C   0  0  0  0  0  0  0  0  0  0  0  0
   26.7897  -18.9587  -16.2107 S   0  0  0  0  0  0  0  0  0  0  0  0
   27.2964  -21.1448  -14.0777 C   0  0  0  0  0  0  0  0  0  0  0  0
   26.2122  -21.6878  -14.3977 O   0  0  0  0  0  0  0  0  0  0  0  0
   25.0529  -20.6818   -6.4728 C   0  0  0  0  0  0  0  0  0  0  0  0
   26.3563  -20.3791   -7.6680 S   0  0  0  0  0  0  0  0  0  0  0  0
   25.8591  -20.7783   -9.3641 C   0  0  0  0  0  0  0  0  0  0  0  0
   27.0316  -20.6847  -10.3199 C   0  0  0  0  0  0  0  0  0  0  0  0
   26.5060  -20.8920  -11.6939 C   0  0  2  0  0  0  0  0  0  0  0  0
   27.5130  -20.8118  -12.7164 N   0  0  0  0  0  0  0  0  0  0  0  0
   25.2671  -20.1254  -12.0084 C   0  0  0  0  0  0  0  0  0  0  0  0
   25.4077  -18.9155  -12.3025 O   0  0  0  0  0  0  0  0  0  0  0  0
   23.9826  -20.6896  -11.9891 N   0  0  0  0  0  0  0  0  0  0  0  0
   22.8800  -20.1999  -12.7745 C   0  0  1  0  0  0  0  0  0  0  0  0
   23.0826  -20.4442  -14.2588 C   0  0  0  0  0  0  0  0  0  0  0  0
   21.9188  -19.9619  -15.0463 C   0  0  0  0  0  0  0  0  0  0  0  0
   20.7766  -19.3646  -14.5332 C   0  0  0  0  0  0  0  0  0  0  0  0
   19.9329  -19.0559  -15.5395 N   0  0  0  0  0  0  0  0  0  0  0  0
   20.5145  -19.4442  -16.6794 C   0  0  0  0  0  0  0  0  0  0  0  0
   21.7230  -19.9957  -16.3800 N   0  0  0  0  0  0  0  0  0  0  0  0
   21.6197  -20.8804  -12.4065 C   0  0  0  0  0  0  0  0  0  0  0  0
   20.6272  -20.2654  -11.9608 O   0  0  0  0  0  0  0  0  0  0  0  0
   21.5387  -22.2490  -12.5624 O   0  0  0  0  0  0  0  0  0  0  0  0
  2  1  1  6
  2  5  1  0
  3  2  1  0
  3  4  1  0
  5  6  2  0
  7  8  1  0
  9  8  1  0
 10  9  1  0
 11 10  1  1
 11 13  1  0
 12  5  1  0
 12 11  1  0
 13 15  1  0
 13 14  2  0
 15 16  1  0
 16 23  1  0
 17 18  1  0
 16 17  1  6
 18 19  2  0
 19 20  1  0
 21 20  1  0
 22 18  1  0
 22 21  2  0
 23 24  2  0
 23 25  1  0
M  END
$$$$
