CMH.pdb
     RDKit          3D

 25 25  0  0  1  0  0  0  0  0999 V2000
   23.8419  -12.1193  -21.6091 N   0  0  0  0  0  0  0  0  0  0  0  0
   24.3608  -10.8394  -21.2373 C   0  0  1  0  0  0  0  0  0  0  0  0
   23.5538   -9.7084  -21.7830 C   0  0  0  0  0  0  0  0  0  0  0  0
   23.7679   -9.6661  -23.5829 S   0  0  0  0  0  0  0  0  0  0  0  0
   24.4537  -10.7546  -19.7389 C   0  0  0  0  0  0  0  0  0  0  0  0
   23.5045  -11.1231  -19.0068 O   0  0  0  0  0  0  0  0  0  0  0  0
   28.5466  -12.8490  -16.1466 C   0  0  0  0  0  0  0  0  0  0  0  0
   27.3061  -11.8747  -15.2920 S   0  0  0  0  0  0  0  0  0  0  0  0
   27.3117  -10.1341  -15.7958 C   0  0  0  0  0  0  0  0  0  0  0  0
   27.2435   -9.9951  -17.3034 C   0  0  0  0  0  0  0  0  0  0  0  0
   25.8221  -10.1575  -17.7035 C   0  0  2  0  0  0  0  0  0  0  0  0
   25.6286  -10.2510  -19.1248 N   0  0  0  0  0  0  0  0  0  0  0  0
   24.8750   -9.2261  -17.0276 C   0  0  0  0  0  0  0  0  0  0  0  0
   24.7611   -9.3360  -15.7845 O   0  0  0  0  0  0  0  0  0  0  0  0
   24.1251   -8.2560  -17.7096 N   0  0  0  0  0  0  0  0  0  0  0  0
   23.2261   -7.3366  -17.0624 C   0  0  1  0  0  0  0  0  0  0  0  0
   23.1774   -7.5468  -15.5600 C   0  0  0  0  0  0  0  0  0  0  0  0
   21.9066   -8.1980  -15.1497 C   0  0  0  0  0  0  0  0  0  0  0  0
   20.9010   -8.6346  -15.9998 C   0  0  0  0  0  0  0  0  0  0  0  0
   19.8981   -9.1762  -15.2784 N   0  0  0  0  0  0  0  0  0  0  0  0
   20.2452   -9.0929  -13.9896 C   0  0  0  0  0  0  0  0  0  0  0  0
   21.4673   -8.4977  -13.9105 N   0  0  0  0  0  0  0  0  0  0  0  0
   23.6511   -5.9363  -17.2756 C   0  0  0  0  0  0  0  0  0  0  0  0
   24.8459   -5.6139  -17.4496 O   0  0  0  0  0  0  0  0  0  0  0  0
   22.6882   -4.9480  -17.2823 O   0  0  0  0  0  0  0  0  0  0  0  0
  2  1  1  1
  2  5  1  0
  3  2  1  0
  3  4  1  0
  5  6  2  0
  7  8  1  0
  9  8  1  0
 10  9  1  0
 11 10  1  6
 11 13  1  0
 12  5  1  0
 12 11  1  0
 13 15  1  0
 13 14  2  0
 15 16  1  0
 16 23  1  0
 17 18  1  0
 16 17  1  1
 18 19  2  0
 19 20  1  0
 21 20  1  0
 22 18  1  0
 22 21  2  0
 23 24  2  0
 23 25  1  0
M  END
$$$$
