CMH.pdb
     RDKit          3D

 25 25  0  0  1  0  0  0  0  0999 V2000
   29.4765  -21.6877  -17.7584 N   0  0  0  0  0  0  0  0  0  0  0  0
   29.2199  -22.5618  -16.6558 C   0  0  1  0  0  0  0  0  0  0  0  0
   27.7748  -22.6159  -16.2860 C   0  0  0  0  0  0  0  0  0  0  0  0
   27.3185  -21.0373  -15.5198 S   0  0  0  0  0  0  0  0  0  0  0  0
   29.7406  -23.9356  -16.9763 C   0  0  0  0  0  0  0  0  0  0  0  0
   29.4834  -24.4891  -18.0718 O   0  0  0  0  0  0  0  0  0  0  0  0
   35.3808  -24.7094  -14.2787 C   0  0  0  0  0  0  0  0  0  0  0  0
   35.0312  -25.5286  -15.8361 S   0  0  0  0  0  0  0  0  0  0  0  0
   33.3226  -25.2856  -16.3884 C   0  0  0  0  0  0  0  0  0  0  0  0
   32.3699  -26.2140  -15.6622 C   0  0  0  0  0  0  0  0  0  0  0  0
   31.0102  -25.9793  -16.2127 C   0  0  2  0  0  0  0  0  0  0  0  0
   30.5387  -24.6332  -16.0342 N   0  0  0  0  0  0  0  0  0  0  0  0
   30.0058  -27.0208  -15.8554 C   0  0  0  0  0  0  0  0  0  0  0  0
   29.6040  -27.0382  -14.6686 O   0  0  0  0  0  0  0  0  0  0  0  0
   29.5047  -27.9585  -16.7709 N   0  0  0  0  0  0  0  0  0  0  0  0
   28.5999  -29.0206  -16.4165 C   0  0  1  0  0  0  0  0  0  0  0  0
   27.2056  -28.5051  -16.1097 C   0  0  0  0  0  0  0  0  0  0  0  0
   26.6007  -27.8521  -17.2992 C   0  0  0  0  0  0  0  0  0  0  0  0
   27.2025  -27.6955  -18.5394 C   0  0  0  0  0  0  0  0  0  0  0  0
   26.3589  -27.0589  -19.3777 N   0  0  0  0  0  0  0  0  0  0  0  0
   25.2355  -26.8081  -18.6969 C   0  0  0  0  0  0  0  0  0  0  0  0
   25.3819  -27.2905  -17.4320 N   0  0  0  0  0  0  0  0  0  0  0  0
   28.4538  -29.9885  -17.5250 C   0  0  0  0  0  0  0  0  0  0  0  0
   27.7728  -31.0314  -17.4234 O   0  0  0  0  0  0  0  0  0  0  0  0
   29.0960  -29.7274  -18.7180 O   0  0  0  0  0  0  0  0  0  0  0  0
  2  1  1  6
  2  5  1  0
  3  2  1  0
  3  4  1  0
  5  6  2  0
  7  8  1  0
  9  8  1  0
 10  9  1  0
 11 10  1  1
 11 13  1  0
 12  5  1  0
 12 11  1  0
 13 15  1  0
 13 14  2  0
 15 16  1  0
 16 23  1  0
 17 18  1  0
 16 17  1  6
 18 19  2  0
 19 20  1  0
 21 20  1  0
 22 18  1  0
 22 21  2  0
 23 24  2  0
 23 25  1  0
M  END
$$$$
