CMH.pdb
     RDKit          3D

 25 25  0  0  1  0  0  0  0  0999 V2000
   28.2375  -21.5518  -15.8763 N   0  0  0  0  0  0  0  0  0  0  0  0
   27.4523  -20.4642  -15.3801 C   0  0  1  0  0  0  0  0  0  0  0  0
   27.0638  -19.4976  -16.4491 C   0  0  0  0  0  0  0  0  0  0  0  0
   26.2961  -18.0536  -15.6663 S   0  0  0  0  0  0  0  0  0  0  0  0
   26.2354  -21.0052  -14.6817 C   0  0  0  0  0  0  0  0  0  0  0  0
   25.5323  -21.9035  -15.2027 O   0  0  0  0  0  0  0  0  0  0  0  0
   25.0156  -20.8876   -8.1124 C   0  0  0  0  0  0  0  0  0  0  0  0
   26.4545  -21.4535   -9.0223 S   0  0  0  0  0  0  0  0  0  0  0  0
   26.1709  -21.5226  -10.8106 C   0  0  0  0  0  0  0  0  0  0  0  0
   24.8782  -20.8295  -11.1922 C   0  0  0  0  0  0  0  0  0  0  0  0
   24.7198  -20.9576  -12.6638 C   0  0  2  0  0  0  0  0  0  0  0  0
   25.8606  -20.5019  -13.4100 N   0  0  0  0  0  0  0  0  0  0  0  0
   23.4175  -20.4640  -13.1947 C   0  0  0  0  0  0  0  0  0  0  0  0
   23.3082  -19.2281  -13.3705 O   0  0  0  0  0  0  0  0  0  0  0  0
   22.3368  -21.3058  -13.4980 N   0  0  0  0  0  0  0  0  0  0  0  0
   21.0713  -20.8369  -13.9989 C   0  0  1  0  0  0  0  0  0  0  0  0
   20.5661  -21.6806  -15.1550 C   0  0  0  0  0  0  0  0  0  0  0  0
   21.3448  -21.4171  -16.3926 C   0  0  0  0  0  0  0  0  0  0  0  0
   22.3419  -20.4643  -16.5428 C   0  0  0  0  0  0  0  0  0  0  0  0
   22.8285  -20.5087  -17.8002 N   0  0  0  0  0  0  0  0  0  0  0  0
   22.1621  -21.4684  -18.4509 C   0  0  0  0  0  0  0  0  0  0  0  0
   21.2590  -22.0216  -17.5949 N   0  0  0  0  0  0  0  0  0  0  0  0
   20.0289  -20.8950  -12.9515 C   0  0  0  0  0  0  0  0  0  0  0  0
   20.2385  -21.3789  -11.8185 O   0  0  0  0  0  0  0  0  0  0  0  0
   18.7757  -20.3942  -13.2391 O   0  0  0  0  0  0  0  0  0  0  0  0
  2  1  1  6
  2  5  1  0
  3  2  1  0
  3  4  1  0
  5  6  2  0
  7  8  1  0
  9  8  1  0
 10  9  1  0
 11 10  1  1
 11 13  1  0
 12  5  1  0
 12 11  1  0
 13 15  1  0
 13 14  2  0
 15 16  1  0
 16 23  1  0
 17 18  1  0
 16 17  1  6
 18 19  2  0
 19 20  1  0
 21 20  1  0
 22 18  1  0
 22 21  2  0
 23 24  2  0
 23 25  1  0
M  END
$$$$
