CMH.pdb
     RDKit          3D

 25 25  0  0  1  0  0  0  0  0999 V2000
   37.7934  -27.9544  -16.7407 N   0  0  0  0  0  0  0  0  0  0  0  0
   36.4828  -28.4635  -16.4783 C   0  0  1  0  0  0  0  0  0  0  0  0
   35.5028  -28.1147  -17.5488 C   0  0  0  0  0  0  0  0  0  0  0  0
   35.9497  -29.0212  -19.0540 S   0  0  0  0  0  0  0  0  0  0  0  0
   36.5553  -29.9530  -16.2857 C   0  0  0  0  0  0  0  0  0  0  0  0
   37.4357  -30.6402  -16.8562 O   0  0  0  0  0  0  0  0  0  0  0  0
   36.6105  -34.5568  -11.4555 C   0  0  0  0  0  0  0  0  0  0  0  0
   36.8647  -32.7808  -11.4646 S   0  0  0  0  0  0  0  0  0  0  0  0
   36.7704  -32.0672  -13.1274 C   0  0  0  0  0  0  0  0  0  0  0  0
   35.4616  -32.4188  -13.8060 C   0  0  0  0  0  0  0  0  0  0  0  0
   35.5808  -32.0310  -15.2352 C   0  0  2  0  0  0  0  0  0  0  0  0
   35.6189  -30.6099  -15.4474 N   0  0  0  0  0  0  0  0  0  0  0  0
   34.6555  -32.7519  -16.1548 C   0  0  0  0  0  0  0  0  0  0  0  0
   33.6040  -32.1552  -16.4842 O   0  0  0  0  0  0  0  0  0  0  0  0
   34.9080  -34.0387  -16.6537 N   0  0  0  0  0  0  0  0  0  0  0  0
   34.0493  -34.7192  -17.5875 C   0  0  1  0  0  0  0  0  0  0  0  0
   33.8776  -33.9400  -18.8786 C   0  0  0  0  0  0  0  0  0  0  0  0
   32.9821  -34.6564  -19.8232 C   0  0  0  0  0  0  0  0  0  0  0  0
   32.2689  -35.8152  -19.5528 C   0  0  0  0  0  0  0  0  0  0  0  0
   31.5627  -36.1800  -20.6427 N   0  0  0  0  0  0  0  0  0  0  0  0
   31.8121  -35.2784  -21.5984 C   0  0  0  0  0  0  0  0  0  0  0  0
   32.6758  -34.3509  -21.1005 N   0  0  0  0  0  0  0  0  0  0  0  0
   34.6084  -36.0355  -17.9641 C   0  0  0  0  0  0  0  0  0  0  0  0
   34.0251  -36.8164  -18.7462 O   0  0  0  0  0  0  0  0  0  0  0  0
   35.8227  -36.4142  -17.4293 O   0  0  0  0  0  0  0  0  0  0  0  0
  2  1  1  6
  2  5  1  0
  3  2  1  0
  3  4  1  0
  5  6  2  0
  7  8  1  0
  9  8  1  0
 10  9  1  0
 11 10  1  1
 11 13  1  0
 12  5  1  0
 12 11  1  0
 13 15  1  0
 13 14  2  0
 15 16  1  0
 16 23  1  0
 17 18  1  0
 16 17  1  6
 18 19  2  0
 19 20  1  0
 21 20  1  0
 22 18  1  0
 22 21  2  0
 23 24  2  0
 23 25  1  0
M  END
$$$$
