CMH.pdb
     RDKit          3D

 25 25  0  0  1  0  0  0  0  0999 V2000
   23.6271  -12.6871  -20.0994 N   0  0  0  0  0  0  0  0  0  0  0  0
   23.7506  -11.2986  -19.7795 C   0  0  1  0  0  0  0  0  0  0  0  0
   23.4553  -10.4098  -20.9418 C   0  0  0  0  0  0  0  0  0  0  0  0
   21.7209  -10.6420  -21.4162 S   0  0  0  0  0  0  0  0  0  0  0  0
   22.8543  -10.9726  -18.6170 C   0  0  0  0  0  0  0  0  0  0  0  0
   21.8485  -11.6743  -18.3548 O   0  0  0  0  0  0  0  0  0  0  0  0
   21.3189   -9.3317  -11.3652 C   0  0  0  0  0  0  0  0  0  0  0  0
   22.5631   -9.5431  -12.6403 S   0  0  0  0  0  0  0  0  0  0  0  0
   21.9012   -9.3128  -14.3113 C   0  0  0  0  0  0  0  0  0  0  0  0
   22.9563   -9.5819  -15.3654 C   0  0  0  0  0  0  0  0  0  0  0  0
   22.3095   -9.4307  -16.6942 C   0  0  2  0  0  0  0  0  0  0  0  0
   23.1359   -9.8547  -17.7911 N   0  0  0  0  0  0  0  0  0  0  0  0
   21.6435   -8.1159  -16.9161 C   0  0  0  0  0  0  0  0  0  0  0  0
   22.3842   -7.1447  -17.1962 O   0  0  0  0  0  0  0  0  0  0  0  0
   20.2562   -7.9267  -16.8265 N   0  0  0  0  0  0  0  0  0  0  0  0
   19.6071   -6.6549  -17.0095 C   0  0  1  0  0  0  0  0  0  0  0  0
   18.0946   -6.7730  -16.9616 C   0  0  0  0  0  0  0  0  0  0  0  0
   17.4443   -5.4740  -17.2729 C   0  0  0  0  0  0  0  0  0  0  0  0
   17.8318   -4.5834  -18.2636 C   0  0  0  0  0  0  0  0  0  0  0  0
   17.0125   -3.5117  -18.2582 N   0  0  0  0  0  0  0  0  0  0  0  0
   16.1141   -3.7027  -17.2862 C   0  0  0  0  0  0  0  0  0  0  0  0
   16.3763   -4.8966  -16.6862 N   0  0  0  0  0  0  0  0  0  0  0  0
   19.9867   -5.7043  -15.9421 C   0  0  0  0  0  0  0  0  0  0  0  0
   20.0499   -6.0332  -14.7381 O   0  0  0  0  0  0  0  0  0  0  0  0
   20.2824   -4.4027  -16.2921 O   0  0  0  0  0  0  0  0  0  0  0  0
  2  1  1  6
  2  5  1  0
  3  2  1  0
  3  4  1  0
  5  6  2  0
  7  8  1  0
  9  8  1  0
 10  9  1  0
 11 10  1  1
 11 13  1  0
 12  5  1  0
 12 11  1  0
 13 15  1  0
 13 14  2  0
 15 16  1  0
 16 23  1  0
 17 18  1  0
 16 17  1  1
 18 19  2  0
 19 20  1  0
 21 20  1  0
 22 18  1  0
 22 21  2  0
 23 24  2  0
 23 25  1  0
M  END
$$$$
