CMH.pdb
     RDKit          3D

 25 25  0  0  1  0  0  0  0  0999 V2000
   22.3828  -15.9101  -17.3859 N   0  0  0  0  0  0  0  0  0  0  0  0
   22.2108  -14.6710  -18.0791 C   0  0  1  0  0  0  0  0  0  0  0  0
   20.8550  -14.5332  -18.6880 C   0  0  0  0  0  0  0  0  0  0  0  0
   20.6248  -15.8738  -19.8867 S   0  0  0  0  0  0  0  0  0  0  0  0
   22.4927  -13.5307  -17.1402 C   0  0  0  0  0  0  0  0  0  0  0  0
   21.9425  -13.4636  -16.0152 O   0  0  0  0  0  0  0  0  0  0  0  0
   28.5663  -11.7957  -15.0692 C   0  0  0  0  0  0  0  0  0  0  0  0
   27.7717  -11.9063  -16.6739 S   0  0  0  0  0  0  0  0  0  0  0  0
   25.9972  -12.2536  -16.5556 C   0  0  0  0  0  0  0  0  0  0  0  0
   25.1735  -10.9990  -16.7665 C   0  0  0  0  0  0  0  0  0  0  0  0
   23.7414  -11.3852  -16.6829 C   0  0  2  0  0  0  0  0  0  0  0  0
   23.3944  -12.5031  -17.5171 N   0  0  0  0  0  0  0  0  0  0  0  0
   22.7836  -10.2469  -16.7735 C   0  0  0  0  0  0  0  0  0  0  0  0
   22.4104   -9.9092  -17.9211 O   0  0  0  0  0  0  0  0  0  0  0  0
   22.2955   -9.5558  -15.6542 N   0  0  0  0  0  0  0  0  0  0  0  0
   21.3137   -8.5054  -15.7260 C   0  0  1  0  0  0  0  0  0  0  0  0
   20.2393   -8.6538  -14.6643 C   0  0  0  0  0  0  0  0  0  0  0  0
   19.3055   -9.7607  -14.9961 C   0  0  0  0  0  0  0  0  0  0  0  0
   19.2830  -10.4829  -16.1805 C   0  0  0  0  0  0  0  0  0  0  0  0
   18.3040  -11.4095  -16.1303 N   0  0  0  0  0  0  0  0  0  0  0  0
   17.7050  -11.2912  -14.9405 C   0  0  0  0  0  0  0  0  0  0  0  0
   18.3139  -10.2880  -14.2498 N   0  0  0  0  0  0  0  0  0  0  0  0
   21.9342   -7.1803  -15.5113 C   0  0  0  0  0  0  0  0  0  0  0  0
   23.1484   -7.0391  -15.2514 O   0  0  0  0  0  0  0  0  0  0  0  0
   21.1387   -6.0566  -15.6022 O   0  0  0  0  0  0  0  0  0  0  0  0
  2  1  1  1
  2  5  1  0
  3  2  1  0
  3  4  1  0
  5  6  2  0
  7  8  1  0
  9  8  1  0
 10  9  1  0
 11 10  1  6
 11 13  1  0
 12  5  1  0
 12 11  1  0
 13 15  1  0
 13 14  2  0
 15 16  1  0
 16 23  1  0
 17 18  1  0
 16 17  1  1
 18 19  2  0
 19 20  1  0
 21 20  1  0
 22 18  1  0
 22 21  2  0
 23 24  2  0
 23 25  1  0
M  END
$$$$
