CMH.pdb
     RDKit          3D

 25 25  0  0  1  0  0  0  0  0999 V2000
   28.9343  -22.0742  -17.0595 N   0  0  0  0  0  0  0  0  0  0  0  0
   28.1316  -21.0163  -16.5282 C   0  0  1  0  0  0  0  0  0  0  0  0
   27.3236  -20.3232  -17.5745 C   0  0  0  0  0  0  0  0  0  0  0  0
   28.2970  -18.9411  -18.2299 S   0  0  0  0  0  0  0  0  0  0  0  0
   27.2450  -21.5599  -15.4421 C   0  0  0  0  0  0  0  0  0  0  0  0
   26.7804  -22.7231  -15.5034 O   0  0  0  0  0  0  0  0  0  0  0  0
   24.4784  -20.8825   -8.0671 C   0  0  0  0  0  0  0  0  0  0  0  0
   25.6227  -20.2762   -9.3086 S   0  0  0  0  0  0  0  0  0  0  0  0
   25.3653  -21.0389  -10.9320 C   0  0  0  0  0  0  0  0  0  0  0  0
   26.3856  -20.5497  -11.9403 C   0  0  0  0  0  0  0  0  0  0  0  0
   26.0595  -21.1773  -13.2467 C   0  0  2  0  0  0  0  0  0  0  0  0
   26.9173  -20.7563  -14.3205 N   0  0  0  0  0  0  0  0  0  0  0  0
   24.6107  -21.1701  -13.5962 C   0  0  0  0  0  0  0  0  0  0  0  0
   24.1351  -20.0920  -14.0224 O   0  0  0  0  0  0  0  0  0  0  0  0
   23.7791  -22.2932  -13.4705 N   0  0  0  0  0  0  0  0  0  0  0  0
   22.3897  -22.3081  -13.8471 C   0  0  1  0  0  0  0  0  0  0  0  0
   21.8019  -23.7070  -13.8079 C   0  0  0  0  0  0  0  0  0  0  0  0
   20.3745  -23.7015  -14.2197 C   0  0  0  0  0  0  0  0  0  0  0  0
   19.6258  -22.5830  -14.5563 C   0  0  0  0  0  0  0  0  0  0  0  0
   18.3701  -22.9557  -14.8788 N   0  0  0  0  0  0  0  0  0  0  0  0
   18.3056  -24.2857  -14.7543 C   0  0  0  0  0  0  0  0  0  0  0  0
   19.5250  -24.7402  -14.3532 N   0  0  0  0  0  0  0  0  0  0  0  0
   21.5781  -21.4870  -12.9231 C   0  0  0  0  0  0  0  0  0  0  0  0
   21.8629  -21.3530  -11.7136 O   0  0  0  0  0  0  0  0  0  0  0  0
   20.4623  -20.8439  -13.4184 O   0  0  0  0  0  0  0  0  0  0  0  0
  2  1  1  6
  2  5  1  0
  3  2  1  0
  3  4  1  0
  5  6  2  0
  7  8  1  0
  9  8  1  0
 10  9  1  0
 11 10  1  1
 11 13  1  0
 12  5  1  0
 12 11  1  0
 13 15  1  0
 13 14  2  0
 15 16  1  0
 16 23  1  0
 17 18  1  0
 16 17  1  1
 18 19  2  0
 19 20  1  0
 21 20  1  0
 22 18  1  0
 22 21  2  0
 23 24  2  0
 23 25  1  0
M  END
$$$$
