CMH.pdb
     RDKit          3D

 25 25  0  0  1  0  0  0  0  0999 V2000
   28.2045  -21.0511  -16.3482 N   0  0  0  0  0  0  0  0  0  0  0  0
   27.9002  -20.1786  -15.2565 C   0  0  1  0  0  0  0  0  0  0  0  0
   27.4458  -18.8293  -15.7049 C   0  0  0  0  0  0  0  0  0  0  0  0
   28.8449  -17.9831  -16.4883 S   0  0  0  0  0  0  0  0  0  0  0  0
   26.8672  -20.8240  -14.3748 C   0  0  0  0  0  0  0  0  0  0  0  0
   26.0574  -21.6659  -14.8311 O   0  0  0  0  0  0  0  0  0  0  0  0
   26.4636  -19.9671   -7.7065 C   0  0  0  0  0  0  0  0  0  0  0  0
   24.8284  -20.5290   -8.1848 S   0  0  0  0  0  0  0  0  0  0  0  0
   24.7380  -21.0236   -9.9257 C   0  0  0  0  0  0  0  0  0  0  0  0
   25.9190  -20.4923  -10.7129 C   0  0  0  0  0  0  0  0  0  0  0  0
   25.6882  -20.8226  -12.1428 C   0  0  2  0  0  0  0  0  0  0  0  0
   26.7924  -20.4864  -12.9994 N   0  0  0  0  0  0  0  0  0  0  0  0
   24.3629  -20.3952  -12.6742 C   0  0  0  0  0  0  0  0  0  0  0  0
   24.3245  -19.3076  -13.2953 O   0  0  0  0  0  0  0  0  0  0  0  0
   23.1867  -21.1426  -12.5112 N   0  0  0  0  0  0  0  0  0  0  0  0
   21.9790  -20.9102  -13.2594 C   0  0  1  0  0  0  0  0  0  0  0  0
   21.8832  -21.8043  -14.4821 C   0  0  0  0  0  0  0  0  0  0  0  0
   22.3585  -21.1002  -15.7010 C   0  0  0  0  0  0  0  0  0  0  0  0
   22.6651  -19.7505  -15.7973 C   0  0  0  0  0  0  0  0  0  0  0  0
   23.0647  -19.4629  -17.0531 N   0  0  0  0  0  0  0  0  0  0  0  0
   23.0185  -20.5999  -17.7556 C   0  0  0  0  0  0  0  0  0  0  0  0
   22.5888  -21.5967  -16.9334 N   0  0  0  0  0  0  0  0  0  0  0  0
   20.7812  -21.1927  -12.4394 C   0  0  0  0  0  0  0  0  0  0  0  0
   20.8510  -21.6754  -11.2888 O   0  0  0  0  0  0  0  0  0  0  0  0
   19.5382  -20.9111  -12.9679 O   0  0  0  0  0  0  0  0  0  0  0  0
  2  1  1  6
  2  5  1  0
  3  2  1  0
  3  4  1  0
  5  6  2  0
  7  8  1  0
  9  8  1  0
 10  9  1  0
 11 10  1  1
 11 13  1  0
 12  5  1  0
 12 11  1  0
 13 15  1  0
 13 14  2  0
 15 16  1  0
 16 23  1  0
 17 18  1  0
 16 17  1  6
 18 19  2  0
 19 20  1  0
 21 20  1  0
 22 18  1  0
 22 21  2  0
 23 24  2  0
 23 25  1  0
M  END
$$$$
