CMH.pdb
     RDKit          3D

 25 25  0  0  1  0  0  0  0  0999 V2000
   21.5201  -14.9187  -19.5613 N   0  0  0  0  0  0  0  0  0  0  0  0
   21.4658  -13.5369  -19.9266 C   0  0  1  0  0  0  0  0  0  0  0  0
   20.0867  -13.0860  -20.2770 C   0  0  0  0  0  0  0  0  0  0  0  0
   19.5223  -14.0307  -21.7179 S   0  0  0  0  0  0  0  0  0  0  0  0
   22.0328  -12.7031  -18.8110 C   0  0  0  0  0  0  0  0  0  0  0  0
   21.9367  -13.0663  -17.6145 O   0  0  0  0  0  0  0  0  0  0  0  0
   27.1176  -10.2287  -14.8362 C   0  0  0  0  0  0  0  0  0  0  0  0
   26.4057  -10.9196  -16.3311 S   0  0  0  0  0  0  0  0  0  0  0  0
   25.4153   -9.7174  -17.2569 C   0  0  0  0  0  0  0  0  0  0  0  0
   24.7712  -10.3520  -18.4732 C   0  0  0  0  0  0  0  0  0  0  0  0
   23.3654  -10.6747  -18.1176 C   0  0  2  0  0  0  0  0  0  0  0  0
   22.6913  -11.4805  -19.0985 N   0  0  0  0  0  0  0  0  0  0  0  0
   22.5627   -9.5140  -17.6382 C   0  0  0  0  0  0  0  0  0  0  0  0
   22.0709   -8.7639  -18.5133 O   0  0  0  0  0  0  0  0  0  0  0  0
   22.3411   -9.2345  -16.2812 N   0  0  0  0  0  0  0  0  0  0  0  0
   21.5882   -8.1022  -15.8085 C   0  0  1  0  0  0  0  0  0  0  0  0
   21.0085   -8.3384  -14.4257 C   0  0  0  0  0  0  0  0  0  0  0  0
   19.8054   -9.2078  -14.4891 C   0  0  0  0  0  0  0  0  0  0  0  0
   19.2014   -9.6834  -15.6440 C   0  0  0  0  0  0  0  0  0  0  0  0
   18.1342  -10.4424  -15.3202 N   0  0  0  0  0  0  0  0  0  0  0  0
   18.0479  -10.4588  -13.9858 C   0  0  0  0  0  0  0  0  0  0  0  0
   19.0646   -9.7077  -13.4794 N   0  0  0  0  0  0  0  0  0  0  0  0
   22.4429   -6.8998  -15.7042 C   0  0  0  0  0  0  0  0  0  0  0  0
   23.6659   -6.9182  -15.9605 O   0  0  0  0  0  0  0  0  0  0  0  0
   21.8645   -5.7114  -15.3081 O   0  0  0  0  0  0  0  0  0  0  0  0
  2  1  1  1
  2  5  1  0
  3  2  1  0
  3  4  1  0
  5  6  2  0
  7  8  1  0
  9  8  1  0
 10  9  1  0
 11 10  1  6
 11 13  1  0
 12  5  1  0
 12 11  1  0
 13 15  1  0
 13 14  2  0
 15 16  1  0
 16 23  1  0
 17 18  1  0
 16 17  1  1
 18 19  2  0
 19 20  1  0
 21 20  1  0
 22 18  1  0
 22 21  2  0
 23 24  2  0
 23 25  1  0
M  END
$$$$
