CMH.pdb
     RDKit          3D

 25 25  0  0  1  0  0  0  0  0999 V2000
   28.0067  -20.0530  -16.2370 N   0  0  0  0  0  0  0  0  0  0  0  0
   27.1889  -19.2572  -15.3748 C   0  0  1  0  0  0  0  0  0  0  0  0
   26.5358  -18.1192  -16.0865 C   0  0  0  0  0  0  0  0  0  0  0  0
   27.8152  -16.9202  -16.5478 S   0  0  0  0  0  0  0  0  0  0  0  0
   26.1612  -20.1332  -14.7132 C   0  0  0  0  0  0  0  0  0  0  0  0
   25.5539  -21.0223  -15.3561 O   0  0  0  0  0  0  0  0  0  0  0  0
   25.3604  -21.1523   -8.1091 C   0  0  0  0  0  0  0  0  0  0  0  0
   26.7991  -21.4387   -9.1419 S   0  0  0  0  0  0  0  0  0  0  0  0
   26.4145  -21.3827  -10.9117 C   0  0  0  0  0  0  0  0  0  0  0  0
   25.0593  -20.7523  -11.1629 C   0  0  0  0  0  0  0  0  0  0  0  0
   24.8520  -20.7089  -12.6333 C   0  0  2  0  0  0  0  0  0  0  0  0
   25.8602  -19.9650  -13.3376 N   0  0  0  0  0  0  0  0  0  0  0  0
   23.4600  -20.3849  -13.0562 C   0  0  0  0  0  0  0  0  0  0  0  0
   23.0713  -19.2076  -12.8747 O   0  0  0  0  0  0  0  0  0  0  0  0
   22.5896  -21.3212  -13.6346 N   0  0  0  0  0  0  0  0  0  0  0  0
   21.2594  -21.0068  -14.0863 C   0  0  1  0  0  0  0  0  0  0  0  0
   21.0300  -21.4296  -15.5259 C   0  0  0  0  0  0  0  0  0  0  0  0
   21.7131  -20.5094  -16.4714 C   0  0  0  0  0  0  0  0  0  0  0  0
   22.3704  -19.3345  -16.1362 C   0  0  0  0  0  0  0  0  0  0  0  0
   22.8710  -18.7595  -17.2491 N   0  0  0  0  0  0  0  0  0  0  0  0
   22.5460  -19.5436  -18.2826 C   0  0  0  0  0  0  0  0  0  0  0  0
   21.8413  -20.6086  -17.8100 N   0  0  0  0  0  0  0  0  0  0  0  0
   20.2414  -21.7099  -13.2763 C   0  0  0  0  0  0  0  0  0  0  0  0
   20.5399  -22.5463  -12.3970 O   0  0  0  0  0  0  0  0  0  0  0  0
   18.9094  -21.4293  -13.5021 O   0  0  0  0  0  0  0  0  0  0  0  0
  2  1  1  6
  2  5  1  0
  3  2  1  0
  3  4  1  0
  5  6  2  0
  7  8  1  0
  9  8  1  0
 10  9  1  0
 11 10  1  1
 11 13  1  0
 12  5  1  0
 12 11  1  0
 13 15  1  0
 13 14  2  0
 15 16  1  0
 16 23  1  0
 17 18  1  0
 16 17  1  6
 18 19  2  0
 19 20  1  0
 21 20  1  0
 22 18  1  0
 22 21  2  0
 23 24  2  0
 23 25  1  0
M  END
$$$$
