CMH.pdb
     RDKit          3D

 25 25  0  0  1  0  0  0  0  0999 V2000
   26.9348  -21.5571  -13.7298 N   0  0  0  0  0  0  0  0  0  0  0  0
   26.2575  -20.4929  -13.0559 C   0  0  1  0  0  0  0  0  0  0  0  0
   24.9975  -20.0833  -13.7434 C   0  0  0  0  0  0  0  0  0  0  0  0
   25.2476  -18.4413  -14.4705 S   0  0  0  0  0  0  0  0  0  0  0  0
   25.9825  -20.8976  -11.6341 C   0  0  0  0  0  0  0  0  0  0  0  0
   25.3466  -21.9453  -11.3677 O   0  0  0  0  0  0  0  0  0  0  0  0
   27.6468  -20.0797   -3.9643 C   0  0  0  0  0  0  0  0  0  0  0  0
   27.9003  -19.4299   -5.6172 S   0  0  0  0  0  0  0  0  0  0  0  0
   26.8283  -20.2127   -6.8507 C   0  0  0  0  0  0  0  0  0  0  0  0
   27.1065  -19.6800   -8.2421 C   0  0  0  0  0  0  0  0  0  0  0  0
   26.1700  -20.3571   -9.1755 C   0  0  2  0  0  0  0  0  0  0  0  0
   26.4427  -20.0919  -10.5617 N   0  0  0  0  0  0  0  0  0  0  0  0
   24.7301  -20.2329   -8.8114 C   0  0  0  0  0  0  0  0  0  0  0  0
   24.2026  -19.1058   -8.9587 O   0  0  0  0  0  0  0  0  0  0  0  0
   23.9610  -21.2999   -8.3228 N   0  0  0  0  0  0  0  0  0  0  0  0
   22.5674  -21.1918   -7.9784 C   0  0  1  0  0  0  0  0  0  0  0  0
   21.6943  -22.0835   -8.8423 C   0  0  0  0  0  0  0  0  0  0  0  0
   21.2482  -21.3729  -10.0684 C   0  0  0  0  0  0  0  0  0  0  0  0
   21.4560  -20.0318  -10.3564 C   0  0  0  0  0  0  0  0  0  0  0  0
   20.9148  -19.7345  -11.5557 N   0  0  0  0  0  0  0  0  0  0  0  0
   20.3683  -20.8571  -12.0349 C   0  0  0  0  0  0  0  0  0  0  0  0
   20.5708  -21.8546  -11.1303 N   0  0  0  0  0  0  0  0  0  0  0  0
   22.3309  -21.6045   -6.5781 C   0  0  0  0  0  0  0  0  0  0  0  0
   23.2020  -22.1762   -5.8879 O   0  0  0  0  0  0  0  0  0  0  0  0
   21.0986  -21.3469   -6.0133 O   0  0  0  0  0  0  0  0  0  0  0  0
  2  1  1  6
  2  5  1  0
  3  2  1  0
  3  4  1  0
  5  6  2  0
  7  8  1  0
  9  8  1  0
 10  9  1  0
 11 10  1  1
 11 13  1  0
 12  5  1  0
 12 11  1  0
 13 15  1  0
 13 14  2  0
 15 16  1  0
 16 23  1  0
 17 18  1  0
 16 17  1  6
 18 19  2  0
 19 20  1  0
 21 20  1  0
 22 18  1  0
 22 21  2  0
 23 24  2  0
 23 25  1  0
M  END
$$$$
