CMH.pdb
     RDKit          3D

 25 25  0  0  1  0  0  0  0  0999 V2000
   28.0429  -20.8911  -15.8174 N   0  0  0  0  0  0  0  0  0  0  0  0
   28.1906  -20.2732  -14.5360 C   0  0  1  0  0  0  0  0  0  0  0  0
   28.1500  -18.7827  -14.6055 C   0  0  0  0  0  0  0  0  0  0  0  0
   26.6646  -18.2908  -15.5214 S   0  0  0  0  0  0  0  0  0  0  0  0
   27.1297  -20.7933  -13.6059 C   0  0  0  0  0  0  0  0  0  0  0  0
   26.1096  -21.3762  -14.0443 O   0  0  0  0  0  0  0  0  0  0  0  0
   27.4002  -19.9047   -6.8603 C   0  0  0  0  0  0  0  0  0  0  0  0
   25.6710  -20.1183   -7.2881 S   0  0  0  0  0  0  0  0  0  0  0  0
   25.4381  -20.7720   -8.9619 C   0  0  0  0  0  0  0  0  0  0  0  0
   26.5028  -20.2564   -9.9094 C   0  0  0  0  0  0  0  0  0  0  0  0
   26.1959  -20.7919  -11.2608 C   0  0  2  0  0  0  0  0  0  0  0  0
   27.2684  -20.6302  -12.2040 N   0  0  0  0  0  0  0  0  0  0  0  0
   24.8605  -20.4025  -11.7960 C   0  0  0  0  0  0  0  0  0  0  0  0
   24.7399  -19.2305  -12.2227 O   0  0  0  0  0  0  0  0  0  0  0  0
   23.7611  -21.2731  -11.8402 N   0  0  0  0  0  0  0  0  0  0  0  0
   22.4779  -20.9169  -12.3870 C   0  0  1  0  0  0  0  0  0  0  0  0
   22.1837  -21.6535  -13.6811 C   0  0  0  0  0  0  0  0  0  0  0  0
   22.4952  -20.8086  -14.8627 C   0  0  0  0  0  0  0  0  0  0  0  0
   22.0364  -19.5189  -15.0884 C   0  0  0  0  0  0  0  0  0  0  0  0
   22.5217  -19.0616  -16.2610 N   0  0  0  0  0  0  0  0  0  0  0  0
   23.2782  -20.0324  -16.7841 C   0  0  0  0  0  0  0  0  0  0  0  0
   23.2625  -21.0958  -15.9338 N   0  0  0  0  0  0  0  0  0  0  0  0
   21.3856  -21.2616  -11.4515 C   0  0  0  0  0  0  0  0  0  0  0  0
   20.1826  -21.0437  -11.7107 O   0  0  0  0  0  0  0  0  0  0  0  0
   21.7102  -21.8472  -10.2450 O   0  0  0  0  0  0  0  0  0  0  0  0
  2  1  1  6
  2  5  1  0
  3  2  1  0
  3  4  1  0
  5  6  2  0
  7  8  1  0
  9  8  1  0
 10  9  1  0
 11 10  1  1
 11 13  1  0
 12  5  1  0
 12 11  1  0
 13 15  1  0
 13 14  2  0
 15 16  1  0
 16 23  1  0
 17 18  1  0
 16 17  1  6
 18 19  2  0
 19 20  1  0
 21 20  1  0
 22 18  1  0
 22 21  2  0
 23 24  2  0
 23 25  1  0
M  END
$$$$
