AQE.pdb
     RDKit          3D

 24 23  0  0  1  0  0  0  0  0999 V2000
   24.3238  -21.0146   -7.8490 C   0  0  0  0  0  0  0  0  0  0  0  0
   25.5816  -20.8619   -8.6877 C   0  0  2  0  0  0  0  0  0  0  0  0
   26.4954  -20.0148   -7.9782 N   0  0  0  0  0  0  0  0  0  0  0  0
   25.1942  -20.2454  -10.0166 C   0  0  0  0  0  0  0  0  0  0  0  0
   24.8178  -19.0495  -10.0700 O   0  0  0  0  0  0  0  0  0  0  0  0
   27.6154  -22.2293  -15.5476 N   0  0  0  0  0  0  0  0  0  0  0  0
   26.6089  -21.3138  -15.9773 C   0  0  0  0  0  0  0  0  0  0  0  0
   26.5862  -21.0346  -17.1906 O   0  0  0  0  0  0  0  0  0  0  0  0
   25.6577  -20.7546  -14.9613 C   0  0  0  0  0  0  0  0  0  0  0  0
   25.9091  -21.2335  -13.5754 C   0  0  0  0  0  0  0  0  0  0  0  0
   24.9925  -20.5550  -12.5417 C   0  0  2  0  0  0  0  0  0  0  0  0
   25.2512  -21.0027  -11.1999 N   0  0  0  0  0  0  0  0  0  0  0  0
   23.6022  -20.8617  -12.9522 C   0  0  0  0  0  0  0  0  0  0  0  0
   23.1094  -22.0256  -12.7348 O   0  0  0  0  0  0  0  0  0  0  0  0
   22.7191  -19.9578  -13.5910 N   0  0  0  0  0  0  0  0  0  0  0  0
   21.2965  -20.2753  -13.7948 C   0  0  1  0  0  0  0  0  0  0  0  0
   20.4873  -19.0350  -13.8758 C   0  0  0  0  0  0  0  0  0  0  0  0
   19.0550  -19.3247  -14.2179 C   0  0  0  0  0  0  0  0  0  0  0  0
   18.2534  -18.0747  -14.3457 C   0  0  0  0  0  0  0  0  0  0  0  0
   18.8323  -16.9725  -14.3376 O   0  0  0  0  0  0  0  0  0  0  0  0
   21.2034  -21.0819  -15.0253 C   0  0  0  0  0  0  0  0  0  0  0  0
   21.9758  -20.9714  -16.0095 O   0  0  0  0  0  0  0  0  0  0  0  0
   16.8786  -18.1274  -14.4724 O   0  0  0  0  0  0  0  0  0  0  0  0
   20.1941  -22.0416  -15.1251 O   0  0  0  0  0  0  0  0  0  0  0  0
  2  1  1  1
  3  2  1  0
  4  5  2  0
  4  2  1  0
  6  7  1  0
  7  9  1  0
  7  8  2  0
  9 10  1  0
 11 10  1  6
 11 13  1  0
 11 12  1  0
 12  4  1  0
 13 15  1  0
 14 13  2  0
 15 16  1  0
 16 21  1  0
 17 18  1  0
 16 17  1  6
 19 23  1  0
 19 18  1  0
 20 19  2  0
 21 22  2  0
 21 24  1  0
M  END
$$$$
