AQE.pdb
     RDKit          3D

 24 23  0  0  1  0  0  0  0  0999 V2000
   18.6619  -29.3753  -11.4317 C   0  0  0  0  0  0  0  0  0  0  0  0
   19.7522  -28.3456  -11.6764 C   0  0  2  0  0  0  0  0  0  0  0  0
   21.0138  -29.0263  -11.7128 N   0  0  0  0  0  0  0  0  0  0  0  0
   19.7150  -27.3370  -10.5461 C   0  0  0  0  0  0  0  0  0  0  0  0
   20.3753  -27.5405   -9.4986 O   0  0  0  0  0  0  0  0  0  0  0  0
   17.2428  -21.4944  -11.5195 N   0  0  0  0  0  0  0  0  0  0  0  0
   18.5546  -21.9045  -11.9026 C   0  0  0  0  0  0  0  0  0  0  0  0
   19.1518  -21.1803  -12.7208 O   0  0  0  0  0  0  0  0  0  0  0  0
   19.1235  -23.1585  -11.3079 C   0  0  0  0  0  0  0  0  0  0  0  0
   18.2215  -23.8217  -10.3283 C   0  0  0  0  0  0  0  0  0  0  0  0
   18.8469  -25.0865   -9.7131 C   0  0  2  0  0  0  0  0  0  0  0  0
   18.9433  -26.1670  -10.6570 N   0  0  0  0  0  0  0  0  0  0  0  0
   17.9933  -25.4550   -8.5593 C   0  0  0  0  0  0  0  0  0  0  0  0
   16.8557  -26.0142   -8.7537 O   0  0  0  0  0  0  0  0  0  0  0  0
   18.3206  -25.2424   -7.1982 N   0  0  0  0  0  0  0  0  0  0  0  0
   17.4543  -25.7187   -6.1078 C   0  0  1  0  0  0  0  0  0  0  0  0
   18.2429  -25.9521   -4.8736 C   0  0  0  0  0  0  0  0  0  0  0  0
   17.4188  -26.5991   -3.7990 C   0  0  0  0  0  0  0  0  0  0  0  0
   18.2321  -26.9074   -2.5887 C   0  0  0  0  0  0  0  0  0  0  0  0
   19.4297  -26.5692   -2.5533 O   0  0  0  0  0  0  0  0  0  0  0  0
   16.4033  -24.7035   -5.9131 C   0  0  0  0  0  0  0  0  0  0  0  0
   16.5031  -23.4999   -6.2577 O   0  0  0  0  0  0  0  0  0  0  0  0
   17.6714  -27.5630   -1.5094 O   0  0  0  0  0  0  0  0  0  0  0  0
   15.2052  -25.0843   -5.3054 O   0  0  0  0  0  0  0  0  0  0  0  0
  2  1  1  1
  3  2  1  0
  4  5  2  0
  4  2  1  0
  6  7  1  0
  7  9  1  0
  7  8  2  0
  9 10  1  0
 11 10  1  6
 11 13  1  0
 11 12  1  0
 12  4  1  0
 13 15  1  0
 14 13  2  0
 15 16  1  0
 16 21  1  0
 17 18  1  0
 16 17  1  1
 19 23  1  0
 19 18  1  0
 20 19  2  0
 21 22  2  0
 21 24  1  0
M  END
$$$$
