AQE.pdb
     RDKit          3D

 24 23  0  0  1  0  0  0  0  0999 V2000
   13.3939  -11.5181  -12.0803 C   0  0  0  0  0  0  0  0  0  0  0  0
   14.9103  -11.4307  -12.0403 C   0  0  2  0  0  0  0  0  0  0  0  0
   15.3631  -12.0240  -10.8159 N   0  0  0  0  0  0  0  0  0  0  0  0
   15.3036   -9.9690  -12.1100 C   0  0  0  0  0  0  0  0  0  0  0  0
   15.0455   -9.2957  -13.1371 O   0  0  0  0  0  0  0  0  0  0  0  0
   15.2164   -6.0879   -7.1412 N   0  0  0  0  0  0  0  0  0  0  0  0
   14.1657   -6.3875   -8.0589 C   0  0  0  0  0  0  0  0  0  0  0  0
   13.0179   -6.0319   -7.7324 O   0  0  0  0  0  0  0  0  0  0  0  0
   14.5013   -7.0984   -9.3363 C   0  0  0  0  0  0  0  0  0  0  0  0
   15.9464   -7.4196   -9.4834 C   0  0  0  0  0  0  0  0  0  0  0  0
   16.2907   -7.9611  -10.8825 C   0  0  2  0  0  0  0  0  0  0  0  0
   15.9599   -9.3528  -11.0300 N   0  0  0  0  0  0  0  0  0  0  0  0
   17.7418   -7.7302  -11.0736 C   0  0  0  0  0  0  0  0  0  0  0  0
   18.5930   -8.5733  -10.6158 O   0  0  0  0  0  0  0  0  0  0  0  0
   18.3129   -6.6202  -11.7419 N   0  0  0  0  0  0  0  0  0  0  0  0
   19.6721   -6.6677  -12.3046 C   0  0  1  0  0  0  0  0  0  0  0  0
   19.8293   -7.8385  -13.2013 C   0  0  0  0  0  0  0  0  0  0  0  0
   21.1577   -7.8321  -13.8995 C   0  0  0  0  0  0  0  0  0  0  0  0
   21.3444   -9.0458  -14.7441 C   0  0  0  0  0  0  0  0  0  0  0  0
   20.7682  -10.1041  -14.4311 O   0  0  0  0  0  0  0  0  0  0  0  0
   19.8950   -5.3925  -13.0098 C   0  0  0  0  0  0  0  0  0  0  0  0
   18.9868   -4.6971  -13.5283 O   0  0  0  0  0  0  0  0  0  0  0  0
   22.1482   -9.0077  -15.8672 O   0  0  0  0  0  0  0  0  0  0  0  0
   21.1988   -4.9048  -13.1210 O   0  0  0  0  0  0  0  0  0  0  0  0
  2  1  1  1
  3  2  1  0
  4  5  2  0
  4  2  1  0
  6  7  1  0
  7  9  1  0
  7  8  2  0
  9 10  1  0
 11 10  1  1
 11 13  1  0
 11 12  1  0
 12  4  1  0
 13 15  1  0
 14 13  2  0
 15 16  1  0
 16 21  1  0
 17 18  1  0
 16 17  1  6
 19 23  1  0
 19 18  1  0
 20 19  2  0
 21 22  2  0
 21 24  1  0
M  END
$$$$
