AQE.pdb
     RDKit          3D

 24 23  0  0  1  0  0  0  0  0999 V2000
   26.4123  -36.5708   -8.3271 C   0  0  0  0  0  0  0  0  0  0  0  0
   26.1714  -35.0714   -8.2764 C   0  0  2  0  0  0  0  0  0  0  0  0
   26.8194  -34.4731   -9.4071 N   0  0  0  0  0  0  0  0  0  0  0  0
   26.7490  -34.5413   -6.9798 C   0  0  0  0  0  0  0  0  0  0  0  0
   27.9522  -34.1894   -6.9238 O   0  0  0  0  0  0  0  0  0  0  0  0
   22.9338  -31.9889   -2.5217 N   0  0  0  0  0  0  0  0  0  0  0  0
   24.2283  -31.8553   -1.9366 C   0  0  0  0  0  0  0  0  0  0  0  0
   24.2945  -31.2378   -0.8573 O   0  0  0  0  0  0  0  0  0  0  0  0
   25.4074  -32.4553   -2.6431 C   0  0  0  0  0  0  0  0  0  0  0  0
   25.0602  -33.1370   -3.9191 C   0  0  0  0  0  0  0  0  0  0  0  0
   26.2791  -33.8029   -4.5826 C   0  0  2  0  0  0  0  0  0  0  0  0
   25.9475  -34.4383   -5.8292 N   0  0  0  0  0  0  0  0  0  0  0  0
   26.8041  -34.7824   -3.6026 C   0  0  0  0  0  0  0  0  0  0  0  0
   26.1785  -35.8825   -3.3947 O   0  0  0  0  0  0  0  0  0  0  0  0
   27.9827  -34.6206   -2.8348 N   0  0  0  0  0  0  0  0  0  0  0  0
   28.4304  -35.6424   -1.8747 C   0  0  1  0  0  0  0  0  0  0  0  0
   29.9106  -35.7326   -1.8549 C   0  0  0  0  0  0  0  0  0  0  0  0
   30.3907  -36.8290   -0.9495 C   0  0  0  0  0  0  0  0  0  0  0  0
   31.8787  -36.8783   -0.8817 C   0  0  0  0  0  0  0  0  0  0  0  0
   32.5494  -36.0725   -1.5533 O   0  0  0  0  0  0  0  0  0  0  0  0
   27.8776  -35.2738   -0.5587 C   0  0  0  0  0  0  0  0  0  0  0  0
   27.3377  -34.1705   -0.2967 O   0  0  0  0  0  0  0  0  0  0  0  0
   32.5189  -37.8067   -0.0835 O   0  0  0  0  0  0  0  0  0  0  0  0
   27.9481  -36.2004    0.4834 O   0  0  0  0  0  0  0  0  0  0  0  0
  2  1  1  6
  3  2  1  0
  4  5  2  0
  4  2  1  0
  6  7  1  0
  7  9  1  0
  7  8  2  0
  9 10  1  0
 11 10  1  1
 11 13  1  0
 11 12  1  0
 12  4  1  0
 13 15  1  0
 14 13  2  0
 15 16  1  0
 16 21  1  0
 17 18  1  0
 16 17  1  1
 19 23  1  0
 19 18  1  0
 20 19  2  0
 21 22  2  0
 21 24  1  0
M  END
$$$$
