AQE.pdb
     RDKit          3D

 24 23  0  0  1  0  0  0  0  0999 V2000
   18.1021  -21.0677  -13.6775 C   0  0  0  0  0  0  0  0  0  0  0  0
   19.0306  -21.3741  -12.5144 C   0  0  2  0  0  0  0  0  0  0  0  0
   18.3853  -20.9602  -11.3025 N   0  0  0  0  0  0  0  0  0  0  0  0
   20.3234  -20.6125  -12.7254 C   0  0  0  0  0  0  0  0  0  0  0  0
   20.3363  -19.3601  -12.6471 O   0  0  0  0  0  0  0  0  0  0  0  0
   25.9301  -22.8539  -11.1628 N   0  0  0  0  0  0  0  0  0  0  0  0
   25.8900  -21.4333  -11.0367 C   0  0  0  0  0  0  0  0  0  0  0  0
   26.7410  -20.9123  -10.2917 O   0  0  0  0  0  0  0  0  0  0  0  0
   24.8457  -20.6686  -11.7946 C   0  0  0  0  0  0  0  0  0  0  0  0
   23.9515  -21.5268  -12.6173 C   0  0  0  0  0  0  0  0  0  0  0  0
   22.8122  -20.7294  -13.2773 C   0  0  2  0  0  0  0  0  0  0  0  0
   21.5180  -21.2967  -13.0108 N   0  0  0  0  0  0  0  0  0  0  0  0
   23.1028  -20.7116  -14.7301 C   0  0  0  0  0  0  0  0  0  0  0  0
   23.0937  -21.8045  -15.4012 O   0  0  0  0  0  0  0  0  0  0  0  0
   23.4043  -19.5557  -15.4904 N   0  0  0  0  0  0  0  0  0  0  0  0
   23.0194  -19.4351  -16.9058 C   0  0  1  0  0  0  0  0  0  0  0  0
   21.5574  -19.6225  -17.0709 C   0  0  0  0  0  0  0  0  0  0  0  0
   20.9413  -18.5189  -17.8801 C   0  0  0  0  0  0  0  0  0  0  0  0
   19.4653  -18.4485  -17.6858 C   0  0  0  0  0  0  0  0  0  0  0  0
   18.8424  -19.4729  -17.3502 O   0  0  0  0  0  0  0  0  0  0  0  0
   23.4658  -18.1075  -17.3657 C   0  0  0  0  0  0  0  0  0  0  0  0
   23.7722  -17.1562  -16.6052 O   0  0  0  0  0  0  0  0  0  0  0  0
   18.7840  -17.2614  -17.8744 O   0  0  0  0  0  0  0  0  0  0  0  0
   23.5620  -17.8689  -18.7382 O   0  0  0  0  0  0  0  0  0  0  0  0
  2  1  1  6
  3  2  1  0
  4  5  2  0
  4  2  1  0
  6  7  1  0
  7  9  1  0
  7  8  2  0
  9 10  1  0
 11 10  1  1
 11 13  1  0
 11 12  1  0
 12  4  1  0
 13 15  1  0
 14 13  2  0
 15 16  1  0
 16 21  1  0
 17 18  1  0
 16 17  1  1
 19 23  1  0
 19 18  1  0
 20 19  2  0
 21 22  2  0
 21 24  1  0
M  END
$$$$
