AQE.pdb
     RDKit          3D

 24 23  0  0  1  0  0  0  0  0999 V2000
   13.2063   -9.9043  -16.2028 C   0  0  0  0  0  0  0  0  0  0  0  0
   14.6133  -10.4676  -16.3114 C   0  0  2  0  0  0  0  0  0  0  0  0
   14.5872  -11.8316  -15.8696 N   0  0  0  0  0  0  0  0  0  0  0  0
   15.5274   -9.6338  -15.4366 C   0  0  0  0  0  0  0  0  0  0  0  0
   15.2204   -9.4073  -14.2411 O   0  0  0  0  0  0  0  0  0  0  0  0
   22.2120   -9.2207  -13.6270 N   0  0  0  0  0  0  0  0  0  0  0  0
   21.5520   -8.7845  -14.8144 C   0  0  0  0  0  0  0  0  0  0  0  0
   22.1689   -8.9336  -15.8857 O   0  0  0  0  0  0  0  0  0  0  0  0
   20.1818   -8.1847  -14.7022 C   0  0  0  0  0  0  0  0  0  0  0  0
   19.1514   -8.8839  -15.5163 C   0  0  0  0  0  0  0  0  0  0  0  0
   17.7299   -8.3592  -15.2455 C   0  0  2  0  0  0  0  0  0  0  0  0
   16.7245   -9.1062  -15.9518 N   0  0  0  0  0  0  0  0  0  0  0  0
   17.7266   -6.9346  -15.6528 C   0  0  0  0  0  0  0  0  0  0  0  0
   17.7388   -6.6211  -16.8963 O   0  0  0  0  0  0  0  0  0  0  0  0
   17.7109   -5.8301  -14.7668 N   0  0  0  0  0  0  0  0  0  0  0  0
   17.6508   -4.4432  -15.2558 C   0  0  1  0  0  0  0  0  0  0  0  0
   16.7631   -3.6212  -14.3979 C   0  0  0  0  0  0  0  0  0  0  0  0
   16.7700   -2.1779  -14.8091 C   0  0  0  0  0  0  0  0  0  0  0  0
   15.8732   -1.3539  -13.9500 C   0  0  0  0  0  0  0  0  0  0  0  0
   15.0683   -0.5673  -14.4825 O   0  0  0  0  0  0  0  0  0  0  0  0
   19.0328   -3.9306  -15.2793 C   0  0  0  0  0  0  0  0  0  0  0  0
   19.9466   -4.3107  -14.5061 O   0  0  0  0  0  0  0  0  0  0  0  0
   15.9265   -1.4542  -12.5730 O   0  0  0  0  0  0  0  0  0  0  0  0
   19.3717   -2.9542  -16.2182 O   0  0  0  0  0  0  0  0  0  0  0  0
  2  1  1  1
  3  2  1  0
  4  5  2  0
  4  2  1  0
  6  7  1  0
  7  9  1  0
  7  8  2  0
  9 10  1  0
 11 10  1  6
 11 13  1  0
 11 12  1  0
 12  4  1  0
 13 15  1  0
 14 13  2  0
 15 16  1  0
 16 21  1  0
 17 18  1  0
 16 17  1  1
 19 23  1  0
 19 18  1  0
 20 19  2  0
 21 22  2  0
 21 24  1  0
M  END
$$$$
