AQE.pdb
     RDKit          3D

 24 23  0  0  1  0  0  0  0  0999 V2000
   17.2195  -12.5837  -16.4932 C   0  0  0  0  0  0  0  0  0  0  0  0
   18.7292  -12.7537  -16.4661 C   0  0  2  0  0  0  0  0  0  0  0  0
   19.0358  -13.9327  -15.7095 N   0  0  0  0  0  0  0  0  0  0  0  0
   19.3339  -11.5242  -15.8190 C   0  0  0  0  0  0  0  0  0  0  0  0
   18.9408  -11.1503  -14.6875 O   0  0  0  0  0  0  0  0  0  0  0  0
   23.8856  -12.3703  -14.1554 N   0  0  0  0  0  0  0  0  0  0  0  0
   23.4224  -11.7080  -15.3313 C   0  0  0  0  0  0  0  0  0  0  0  0
   23.0480  -12.4326  -16.2722 O   0  0  0  0  0  0  0  0  0  0  0  0
   23.4145  -10.2084  -15.3617 C   0  0  0  0  0  0  0  0  0  0  0  0
   22.5251   -9.6334  -16.4065 C   0  0  0  0  0  0  0  0  0  0  0  0
   21.0439   -9.6374  -15.9877 C   0  0  2  0  0  0  0  0  0  0  0  0
   20.3377  -10.7909  -16.4760 N   0  0  0  0  0  0  0  0  0  0  0  0
   20.4575   -8.3839  -16.5170 C   0  0  0  0  0  0  0  0  0  0  0  0
   20.2024   -8.2716  -17.7688 O   0  0  0  0  0  0  0  0  0  0  0  0
   20.1343   -7.2416  -15.7450 N   0  0  0  0  0  0  0  0  0  0  0  0
   19.4797   -6.0640  -16.3373 C   0  0  1  0  0  0  0  0  0  0  0  0
   18.4718   -5.4994  -15.4073 C   0  0  0  0  0  0  0  0  0  0  0  0
   17.8567   -4.2417  -15.9476 C   0  0  0  0  0  0  0  0  0  0  0  0
   16.8785   -3.6495  -14.9917 C   0  0  0  0  0  0  0  0  0  0  0  0
   17.1275   -3.6660  -13.7720 O   0  0  0  0  0  0  0  0  0  0  0  0
   20.5415   -5.0945  -16.6626 C   0  0  0  0  0  0  0  0  0  0  0  0
   21.7351   -5.1918  -16.2842 O   0  0  0  0  0  0  0  0  0  0  0  0
   15.7018   -3.0846  -15.4448 O   0  0  0  0  0  0  0  0  0  0  0  0
   20.2204   -3.9833  -17.4449 O   0  0  0  0  0  0  0  0  0  0  0  0
  2  1  1  1
  3  2  1  0
  4  5  2  0
  4  2  1  0
  6  7  1  0
  7  9  1  0
  7  8  2  0
  9 10  1  0
 11 10  1  6
 11 13  1  0
 11 12  1  0
 12  4  1  0
 13 15  1  0
 14 13  2  0
 15 16  1  0
 16 21  1  0
 17 18  1  0
 16 17  1  1
 19 23  1  0
 19 18  1  0
 20 19  2  0
 21 22  2  0
 21 24  1  0
M  END
$$$$
