AQE.pdb
     RDKit          3D

 24 23  0  0  1  0  0  0  0  0999 V2000
   16.2237  -11.8199  -11.8366 C   0  0  0  0  0  0  0  0  0  0  0  0
   15.4536  -11.3108  -10.6297 C   0  0  2  0  0  0  0  0  0  0  0  0
   14.1314  -11.8641  -10.6735 N   0  0  0  0  0  0  0  0  0  0  0  0
   15.4085   -9.7977  -10.6990 C   0  0  0  0  0  0  0  0  0  0  0  0
   14.8770   -9.2280  -11.6827 O   0  0  0  0  0  0  0  0  0  0  0  0
   13.7031   -8.5634   -8.3764 N   0  0  0  0  0  0  0  0  0  0  0  0
   13.5720   -7.2403   -7.8587 C   0  0  0  0  0  0  0  0  0  0  0  0
   12.4420   -6.9048   -7.4574 O   0  0  0  0  0  0  0  0  0  0  0  0
   14.7799   -6.3515   -7.8296 C   0  0  0  0  0  0  0  0  0  0  0  0
   16.0489   -7.0513   -8.1658 C   0  0  0  0  0  0  0  0  0  0  0  0
   16.0635   -7.5849   -9.6095 C   0  0  2  0  0  0  0  0  0  0  0  0
   15.9596   -9.0180   -9.6669 N   0  0  0  0  0  0  0  0  0  0  0  0
   17.3304   -7.1129  -10.2159 C   0  0  0  0  0  0  0  0  0  0  0  0
   18.4513   -7.5937   -9.8196 O   0  0  0  0  0  0  0  0  0  0  0  0
   17.4355   -6.1379  -11.2374 N   0  0  0  0  0  0  0  0  0  0  0  0
   18.6862   -5.9272  -11.9839 C   0  0  1  0  0  0  0  0  0  0  0  0
   19.1616   -7.1980  -12.5827 C   0  0  0  0  0  0  0  0  0  0  0  0
   20.4160   -7.0027  -13.3832 C   0  0  0  0  0  0  0  0  0  0  0  0
   20.9435   -8.2940  -13.9083 C   0  0  0  0  0  0  0  0  0  0  0  0
   21.7401   -8.9561  -13.2177 O   0  0  0  0  0  0  0  0  0  0  0  0
   18.4150   -4.8983  -13.0043 C   0  0  0  0  0  0  0  0  0  0  0  0
   17.2723   -4.6094  -13.4381 O   0  0  0  0  0  0  0  0  0  0  0  0
   20.5583   -8.7614  -15.1501 O   0  0  0  0  0  0  0  0  0  0  0  0
   19.4881   -4.1829  -13.5393 O   0  0  0  0  0  0  0  0  0  0  0  0
  2  1  1  6
  3  2  1  0
  4  5  2  0
  4  2  1  0
  6  7  1  0
  7  9  1  0
  7  8  2  0
  9 10  1  0
 11 10  1  1
 11 13  1  0
 11 12  1  0
 12  4  1  0
 13 15  1  0
 14 13  2  0
 15 16  1  0
 16 21  1  0
 17 18  1  0
 16 17  1  6
 19 23  1  0
 19 18  1  0
 20 19  2  0
 21 22  2  0
 21 24  1  0
M  END
$$$$
