AQE.pdb
     RDKit          3D

 24 23  0  0  1  0  0  0  0  0999 V2000
   15.5261   -8.3668  -16.4005 C   0  0  0  0  0  0  0  0  0  0  0  0
   16.6146   -9.2491  -16.9883 C   0  0  2  0  0  0  0  0  0  0  0  0
   16.1567  -10.6077  -16.9603 N   0  0  0  0  0  0  0  0  0  0  0  0
   17.8652   -9.0831  -16.1489 C   0  0  0  0  0  0  0  0  0  0  0  0
   17.7781   -8.9942  -14.9002 O   0  0  0  0  0  0  0  0  0  0  0  0
   23.1362  -11.8035  -17.9194 N   0  0  0  0  0  0  0  0  0  0  0  0
   22.0243  -12.3200  -17.1894 C   0  0  0  0  0  0  0  0  0  0  0  0
   21.9239  -13.5594  -17.1236 O   0  0  0  0  0  0  0  0  0  0  0  0
   21.0630  -11.3574  -16.5579 C   0  0  0  0  0  0  0  0  0  0  0  0
   21.4373   -9.9289  -16.7384 C   0  0  0  0  0  0  0  0  0  0  0  0
   20.4142   -8.9670  -16.1083 C   0  0  2  0  0  0  0  0  0  0  0  0
   19.1319   -9.0266  -16.7564 N   0  0  0  0  0  0  0  0  0  0  0  0
   21.0028   -7.6106  -16.2045 C   0  0  0  0  0  0  0  0  0  0  0  0
   21.1777   -7.0654  -17.3521 O   0  0  0  0  0  0  0  0  0  0  0  0
   21.4120   -6.8161  -15.1062 N   0  0  0  0  0  0  0  0  0  0  0  0
   22.0210   -5.4891  -15.2919 C   0  0  1  0  0  0  0  0  0  0  0  0
   21.0977   -4.5839  -16.0182 C   0  0  0  0  0  0  0  0  0  0  0  0
   19.8414   -4.3257  -15.2388 C   0  0  0  0  0  0  0  0  0  0  0  0
   18.9512   -3.3516  -15.9316 C   0  0  0  0  0  0  0  0  0  0  0  0
   19.1261   -2.1313  -15.7576 O   0  0  0  0  0  0  0  0  0  0  0  0
   22.3634   -4.9771  -13.9525 C   0  0  0  0  0  0  0  0  0  0  0  0
   22.0312   -5.5271  -12.8734 O   0  0  0  0  0  0  0  0  0  0  0  0
   17.9371   -3.7884  -16.7620 O   0  0  0  0  0  0  0  0  0  0  0  0
   23.1084   -3.8003  -13.8531 O   0  0  0  0  0  0  0  0  0  0  0  0
  2  1  1  1
  3  2  1  0
  4  5  2  0
  4  2  1  0
  6  7  1  0
  7  9  1  0
  7  8  2  0
  9 10  1  0
 11 10  1  6
 11 13  1  0
 11 12  1  0
 12  4  1  0
 13 15  1  0
 14 13  2  0
 15 16  1  0
 16 21  1  0
 17 18  1  0
 16 17  1  1
 19 23  1  0
 19 18  1  0
 20 19  2  0
 21 22  2  0
 21 24  1  0
M  END
$$$$
