AQE.pdb
     RDKit          3D

 24 23  0  0  1  0  0  0  0  0999 V2000
   21.4830  -13.9205  -17.7742 C   0  0  0  0  0  0  0  0  0  0  0  0
   22.9193  -14.2725  -18.1237 C   0  0  2  0  0  0  0  0  0  0  0  0
   23.1754  -13.8372  -19.4658 N   0  0  0  0  0  0  0  0  0  0  0  0
   23.0832  -15.7740  -18.0021 C   0  0  0  0  0  0  0  0  0  0  0  0
   22.4596  -16.5401  -18.7760 O   0  0  0  0  0  0  0  0  0  0  0  0
   27.5598  -20.9578  -15.0972 N   0  0  0  0  0  0  0  0  0  0  0  0
   26.9589  -19.6744  -14.9306 C   0  0  0  0  0  0  0  0  0  0  0  0
   27.5700  -18.8577  -14.2163 O   0  0  0  0  0  0  0  0  0  0  0  0
   25.6533  -19.3925  -15.6130 C   0  0  0  0  0  0  0  0  0  0  0  0
   25.4469  -17.9572  -15.9456 C   0  0  0  0  0  0  0  0  0  0  0  0
   24.1454  -17.7151  -16.7308 C   0  0  2  0  0  0  0  0  0  0  0  0
   23.9316  -16.3239  -17.0251 N   0  0  0  0  0  0  0  0  0  0  0  0
   23.0485  -18.2635  -15.8992 C   0  0  0  0  0  0  0  0  0  0  0  0
   22.5916  -17.5871  -14.9099 O   0  0  0  0  0  0  0  0  0  0  0  0
   22.4227  -19.5187  -16.0940 N   0  0  0  0  0  0  0  0  0  0  0  0
   21.3344  -19.9875  -15.2211 C   0  0  1  0  0  0  0  0  0  0  0  0
   20.0122  -19.6992  -15.8281 C   0  0  0  0  0  0  0  0  0  0  0  0
   18.8895  -20.2900  -15.0265 C   0  0  0  0  0  0  0  0  0  0  0  0
   18.3654  -19.3279  -14.0161 C   0  0  0  0  0  0  0  0  0  0  0  0
   18.9393  -18.2347  -13.8562 O   0  0  0  0  0  0  0  0  0  0  0  0
   21.5438  -21.4303  -15.0026 C   0  0  0  0  0  0  0  0  0  0  0  0
   22.0910  -22.2035  -15.8272 O   0  0  0  0  0  0  0  0  0  0  0  0
   17.2525  -19.6366  -13.2578 O   0  0  0  0  0  0  0  0  0  0  0  0
   21.1117  -21.9980  -13.8022 O   0  0  0  0  0  0  0  0  0  0  0  0
  2  1  1  6
  3  2  1  0
  4  5  2  0
  4  2  1  0
  6  7  1  0
  7  9  1  0
  7  8  2  0
  9 10  1  0
 11 10  1  1
 11 13  1  0
 11 12  1  0
 12  4  1  0
 13 15  1  0
 14 13  2  0
 15 16  1  0
 16 21  1  0
 17 18  1  0
 16 17  1  6
 19 23  1  0
 19 18  1  0
 20 19  2  0
 21 22  2  0
 21 24  1  0
M  END
$$$$
