AQE.pdb
     RDKit          3D

 24 23  0  0  1  0  0  0  0  0999 V2000
   12.7490  -12.5779  -11.7226 C   0  0  0  0  0  0  0  0  0  0  0  0
   12.6255  -11.3355  -12.5887 C   0  0  2  0  0  0  0  0  0  0  0  0
   12.9296  -11.6985  -13.9422 N   0  0  0  0  0  0  0  0  0  0  0  0
   13.6041  -10.2991  -12.0745 C   0  0  0  0  0  0  0  0  0  0  0  0
   13.5347   -9.9027  -10.8859 O   0  0  0  0  0  0  0  0  0  0  0  0
   19.0270   -9.1523  -13.8176 N   0  0  0  0  0  0  0  0  0  0  0  0
   18.7840   -7.7886  -13.4755 C   0  0  0  0  0  0  0  0  0  0  0  0
   19.7741   -7.1073  -13.1498 O   0  0  0  0  0  0  0  0  0  0  0  0
   17.3781   -7.2685  -13.5283 C   0  0  0  0  0  0  0  0  0  0  0  0
   16.3643   -8.3090  -13.8492 C   0  0  0  0  0  0  0  0  0  0  0  0
   15.5460   -8.7348  -12.6170 C   0  0  2  0  0  0  0  0  0  0  0  0
   14.5964   -9.7715  -12.9193 N   0  0  0  0  0  0  0  0  0  0  0  0
   14.8690   -7.5128  -12.1233 C   0  0  0  0  0  0  0  0  0  0  0  0
   13.9655   -6.9458  -12.8354 O   0  0  0  0  0  0  0  0  0  0  0  0
   15.1302   -6.8756  -10.8860 N   0  0  0  0  0  0  0  0  0  0  0  0
   14.3584   -5.7056  -10.4370 C   0  0  1  0  0  0  0  0  0  0  0  0
   14.3156   -5.6408   -8.9559 C   0  0  0  0  0  0  0  0  0  0  0  0
   13.5117   -4.4697   -8.4717 C   0  0  0  0  0  0  0  0  0  0  0  0
   13.4972   -4.3863   -6.9837 C   0  0  0  0  0  0  0  0  0  0  0  0
   12.8542   -3.4766   -6.4277 O   0  0  0  0  0  0  0  0  0  0  0  0
   14.9932   -4.5136  -11.0281 C   0  0  0  0  0  0  0  0  0  0  0  0
   14.3871   -3.4509  -11.3123 O   0  0  0  0  0  0  0  0  0  0  0  0
   14.1884   -5.3056   -6.2181 O   0  0  0  0  0  0  0  0  0  0  0  0
   16.3626   -4.5461  -11.2993 O   0  0  0  0  0  0  0  0  0  0  0  0
  2  1  1  1
  3  2  1  0
  4  5  2  0
  4  2  1  0
  6  7  1  0
  7  9  1  0
  7  8  2  0
  9 10  1  0
 11 10  1  6
 11 13  1  0
 11 12  1  0
 12  4  1  0
 13 15  1  0
 14 13  2  0
 15 16  1  0
 16 21  1  0
 17 18  1  0
 16 17  1  1
 19 23  1  0
 19 18  1  0
 20 19  2  0
 21 22  2  0
 21 24  1  0
M  END
$$$$
