AQE.pdb
     RDKit          3D

 24 23  0  0  1  0  0  0  0  0999 V2000
   28.3748  -21.5852  -15.8727 C   0  0  0  0  0  0  0  0  0  0  0  0
   27.5469  -20.8557  -16.9172 C   0  0  2  0  0  0  0  0  0  0  0  0
   28.4042  -19.9393  -17.6112 N   0  0  0  0  0  0  0  0  0  0  0  0
   26.4298  -20.1181  -16.2072 C   0  0  0  0  0  0  0  0  0  0  0  0
   26.5656  -19.7728  -15.0084 O   0  0  0  0  0  0  0  0  0  0  0  0
   25.8375  -17.1731  -19.3664 N   0  0  0  0  0  0  0  0  0  0  0  0
   26.2763  -16.6036  -18.1339 C   0  0  0  0  0  0  0  0  0  0  0  0
   27.3299  -15.9407  -18.1664 O   0  0  0  0  0  0  0  0  0  0  0  0
   25.4575  -16.8332  -16.8984 C   0  0  0  0  0  0  0  0  0  0  0  0
   24.1955  -17.5816  -17.1444 C   0  0  0  0  0  0  0  0  0  0  0  0
   24.1732  -18.9487  -16.4374 C   0  0  2  0  0  0  0  0  0  0  0  0
   25.2333  -19.8138  -16.8799 N   0  0  0  0  0  0  0  0  0  0  0  0
   22.8440  -19.5409  -16.7166 C   0  0  0  0  0  0  0  0  0  0  0  0
   22.6463  -20.1947  -17.8020 O   0  0  0  0  0  0  0  0  0  0  0  0
   21.7147  -19.4545  -15.8667 N   0  0  0  0  0  0  0  0  0  0  0  0
   20.4250  -20.0669  -16.2244 C   0  0  1  0  0  0  0  0  0  0  0  0
   20.1033  -21.1881  -15.3084 C   0  0  0  0  0  0  0  0  0  0  0  0
   19.3585  -20.7192  -14.0928 C   0  0  0  0  0  0  0  0  0  0  0  0
   18.5684  -21.8189  -13.4701 C   0  0  0  0  0  0  0  0  0  0  0  0
   18.6803  -22.9782  -13.9099 O   0  0  0  0  0  0  0  0  0  0  0  0
   19.4092  -18.9997  -16.1762 C   0  0  0  0  0  0  0  0  0  0  0  0
   19.5560  -17.9030  -15.5819 O   0  0  0  0  0  0  0  0  0  0  0  0
   17.7157  -21.5647  -12.4130 O   0  0  0  0  0  0  0  0  0  0  0  0
   18.1917  -19.2005  -16.8298 O   0  0  0  0  0  0  0  0  0  0  0  0
  2  1  1  1
  3  2  1  0
  4  5  2  0
  4  2  1  0
  6  7  1  0
  7  9  1  0
  7  8  2  0
  9 10  1  0
 11 10  1  6
 11 13  1  0
 11 12  1  0
 12  4  1  0
 13 15  1  0
 14 13  2  0
 15 16  1  0
 16 21  1  0
 17 18  1  0
 16 17  1  1
 19 23  1  0
 19 18  1  0
 20 19  2  0
 21 22  2  0
 21 24  1  0
M  END
$$$$
