AQE.pdb
     RDKit          3D

 24 23  0  0  1  0  0  0  0  0999 V2000
   16.6645  -13.9205  -15.0854 C   0  0  0  0  0  0  0  0  0  0  0  0
   16.4085  -12.7434  -16.0114 C   0  0  2  0  0  0  0  0  0  0  0  0
   17.1257  -12.9674  -17.2327 N   0  0  0  0  0  0  0  0  0  0  0  0
   16.8938  -11.4836  -15.3232 C   0  0  0  0  0  0  0  0  0  0  0  0
   16.3699  -11.1135  -14.2447 O   0  0  0  0  0  0  0  0  0  0  0  0
   22.8649   -9.4349  -15.7718 N   0  0  0  0  0  0  0  0  0  0  0  0
   22.2411   -8.3856  -15.0331 C   0  0  0  0  0  0  0  0  0  0  0  0
   22.9948   -7.5456  -14.5070 O   0  0  0  0  0  0  0  0  0  0  0  0
   20.7445   -8.3585  -14.9375 C   0  0  0  0  0  0  0  0  0  0  0  0
   20.0804   -9.5268  -15.5757 C   0  0  0  0  0  0  0  0  0  0  0  0
   18.5622   -9.5525  -15.3236 C   0  0  2  0  0  0  0  0  0  0  0  0
   17.9318  -10.7178  -15.8827 N   0  0  0  0  0  0  0  0  0  0  0  0
   18.0194   -8.3093  -15.9197 C   0  0  0  0  0  0  0  0  0  0  0  0
   17.8299   -8.2326  -17.1858 O   0  0  0  0  0  0  0  0  0  0  0  0
   17.6717   -7.1405  -15.1999 N   0  0  0  0  0  0  0  0  0  0  0  0
   17.1422   -5.9432  -15.8724 C   0  0  1  0  0  0  0  0  0  0  0  0
   15.7488   -5.6718  -15.4428 C   0  0  0  0  0  0  0  0  0  0  0  0
   15.2196   -4.3993  -16.0369 C   0  0  0  0  0  0  0  0  0  0  0  0
   13.8117   -4.1395  -15.6229 C   0  0  0  0  0  0  0  0  0  0  0  0
   13.5624   -3.1818  -14.8674 O   0  0  0  0  0  0  0  0  0  0  0  0
   18.0508   -4.8274  -15.5520 C   0  0  0  0  0  0  0  0  0  0  0  0
   18.7832   -4.7755  -14.5330 O   0  0  0  0  0  0  0  0  0  0  0  0
   12.7840   -4.9486  -16.0679 O   0  0  0  0  0  0  0  0  0  0  0  0
   18.1179   -3.7424  -16.4283 O   0  0  0  0  0  0  0  0  0  0  0  0
  2  1  1  1
  3  2  1  0
  4  5  2  0
  4  2  1  0
  6  7  1  0
  7  9  1  0
  7  8  2  0
  9 10  1  0
 11 10  1  6
 11 13  1  0
 11 12  1  0
 12  4  1  0
 13 15  1  0
 14 13  2  0
 15 16  1  0
 16 21  1  0
 17 18  1  0
 16 17  1  1
 19 23  1  0
 19 18  1  0
 20 19  2  0
 21 22  2  0
 21 24  1  0
M  END
$$$$
