AQE.pdb
     RDKit          3D

 24 23  0  0  1  0  0  0  0  0999 V2000
   18.0815  -14.2086  -15.7937 C   0  0  0  0  0  0  0  0  0  0  0  0
   18.3827  -13.0464  -16.7251 C   0  0  2  0  0  0  0  0  0  0  0  0
   18.8013  -13.5794  -17.9888 N   0  0  0  0  0  0  0  0  0  0  0  0
   19.4815  -12.2102  -16.1008 C   0  0  0  0  0  0  0  0  0  0  0  0
   19.2711  -11.5934  -15.0284 O   0  0  0  0  0  0  0  0  0  0  0  0
   25.4122  -13.5536  -16.6266 N   0  0  0  0  0  0  0  0  0  0  0  0
   25.5658  -12.2092  -16.1741 C   0  0  0  0  0  0  0  0  0  0  0  0
   26.6677  -11.9068  -15.6791 O   0  0  0  0  0  0  0  0  0  0  0  0
   24.4133  -11.2604  -16.3196 C   0  0  0  0  0  0  0  0  0  0  0  0
   23.1992  -11.8772  -16.9184 C   0  0  0  0  0  0  0  0  0  0  0  0
   21.9021  -11.4129  -16.2319 C   0  0  2  0  0  0  0  0  0  0  0  0
   20.7435  -12.1155  -16.7133 N   0  0  0  0  0  0  0  0  0  0  0  0
   21.7930   -9.9575  -16.4874 C   0  0  0  0  0  0  0  0  0  0  0  0
   21.3952   -9.5332  -17.6304 O   0  0  0  0  0  0  0  0  0  0  0  0
   22.0981   -8.9375  -15.5537 N   0  0  0  0  0  0  0  0  0  0  0  0
   21.8659   -7.5154  -15.8538 C   0  0  1  0  0  0  0  0  0  0  0  0
   21.9480   -6.6974  -14.6194 C   0  0  0  0  0  0  0  0  0  0  0  0
   21.8522   -5.2293  -14.9157 C   0  0  0  0  0  0  0  0  0  0  0  0
   21.9268   -4.4086  -13.6738 C   0  0  0  0  0  0  0  0  0  0  0  0
   22.2335   -4.9535  -12.5972 O   0  0  0  0  0  0  0  0  0  0  0  0
   22.8697   -7.1134  -16.8558 C   0  0  0  0  0  0  0  0  0  0  0  0
   24.0680   -7.4895  -16.8540 O   0  0  0  0  0  0  0  0  0  0  0  0
   21.6597   -3.0534  -13.7059 O   0  0  0  0  0  0  0  0  0  0  0  0
   22.4834   -6.2555  -17.8875 O   0  0  0  0  0  0  0  0  0  0  0  0
  2  1  1  1
  3  2  1  0
  4  5  2  0
  4  2  1  0
  6  7  1  0
  7  9  1  0
  7  8  2  0
  9 10  1  0
 11 10  1  6
 11 13  1  0
 11 12  1  0
 12  4  1  0
 13 15  1  0
 14 13  2  0
 15 16  1  0
 16 21  1  0
 17 18  1  0
 16 17  1  1
 19 23  1  0
 19 18  1  0
 20 19  2  0
 21 22  2  0
 21 24  1  0
M  END
$$$$
