YRH.pdb
     RDKit          3D

 34 35  0  0  1  0  0  0  0  0999 V2000
    5.1833  -10.0623   26.8076 O   0  0  0  0  0  0  0  0  0  0  0  0
    5.9145  -11.1975   26.4860 C   0  0  0  0  0  0  0  0  0  0  0  0
    5.8913  -12.2423   27.4092 C   0  0  0  0  0  0  0  0  0  0  0  0
    6.6257  -13.3860   27.0891 C   0  0  0  0  0  0  0  0  0  0  0  0
    7.3350  -13.4734   25.9205 C   0  0  0  0  0  0  0  0  0  0  0  0
    8.0981  -14.6891   25.6084 C   0  0  0  0  0  0  0  0  0  0  0  0
    7.2617  -15.5734   24.6814 C   0  0  2  0  0  0  0  0  0  0  0  0
    6.1333  -16.1546   25.3814 N   0  0  0  0  0  0  0  0  0  0  0  0
    8.0984  -16.6211   24.0735 C   0  0  0  0  0  0  0  0  0  0  0  0
    8.2254  -17.7174   24.6705 O   0  0  0  0  0  0  0  0  0  0  0  0
    7.3276  -12.4212   25.0444 C   0  0  0  0  0  0  0  0  0  0  0  0
    6.6085  -11.2520   25.3165 C   0  0  0  0  0  0  0  0  0  0  0  0
    7.8543  -14.1911   17.4791 N   0  0  0  0  0  0  0  0  0  0  0  0
    8.3079  -13.2857   18.4822 C   0  0  0  0  0  0  0  0  0  0  0  0
    7.7834  -12.1323   18.5957 N   0  0  0  0  0  0  0  0  0  0  0  0
    9.3685  -13.7107   19.3563 N   0  0  0  0  0  0  0  0  0  0  0  0
    9.9075  -15.0349   19.1955 C   0  0  0  0  0  0  0  0  0  0  0  0
    9.3642  -15.9865   20.2089 C   0  0  0  0  0  0  0  0  0  0  0  0
   10.3250  -16.7238   21.0485 C   0  0  0  0  0  0  0  0  0  0  0  0
    9.8895  -17.1636   22.3958 C   0  0  2  0  0  0  0  0  0  0  0  0
    8.7385  -16.3787   22.8407 N   0  0  0  0  0  0  0  0  0  0  0  0
   10.8781  -17.2391   23.4533 C   0  0  0  0  0  0  0  0  0  0  0  0
   11.3527  -16.2114   23.9754 O   0  0  0  0  0  0  0  0  0  0  0  0
    8.0024  -11.4510   19.3390 N   0  0  0  0  0  0  0  0  0  0  0  0
   11.3270  -18.5022   23.9154 C   0  0  1  0  0  0  0  0  0  0  0  0
   12.3526  -18.6052   24.9620 C   0  0  0  0  0  0  0  0  0  0  0  0
   11.7411  -19.2582   26.1639 C   0  0  0  0  0  0  0  0  0  0  0  0
   12.7090  -19.4680   27.2678 C   0  0  0  0  0  0  0  0  0  0  0  0
   13.5313  -18.5204   27.8677 N   0  0  0  0  0  0  0  0  0  0  0  0
   14.2684  -19.0805   28.8295 C   0  0  0  0  0  0  0  0  0  0  0  0
   13.9257  -20.3817   28.8522 N   0  0  0  0  0  0  0  0  0  0  0  0
   12.9958  -20.6250   27.9246 C   0  0  0  0  0  0  0  0  0  0  0  0
   13.4861  -19.4219   24.4890 O   0  0  0  0  0  0  0  0  0  0  0  0
   14.7093  -19.4648   25.1237 O   0  0  0  0  0  0  0  0  0  0  0  0
  2  3  2  0
  2  1  1  0
  4  3  1  0
  5  4  2  0
  6  7  1  0
  6  5  1  0
  7  9  1  0
  7  8  1  1
  9 10  2  0
 11  5  1  0
 11 12  2  0
 12  2  1  0
 13 14  1  0
 14 15  2  0
 16 17  1  0
 16 14  1  0
 18 17  1  0
 19 18  1  0
 20 19  1  6
 20 22  1  0
 21 20  1  0
 21  9  1  0
 22 24  1  0
 22 23  2  0
 24 25  1  0
 25 32  1  0
 25 26  1  6
 27 26  1  0
 28 27  2  0
 29 28  1  0
 30 29  1  0
 30 31  2  0
 31 27  1  0
 32 34  2  0
 32 33  1  0
M  END
$$$$
