YRH.pdb
     RDKit          3D

 34 35  0  0  1  0  0  0  0  0999 V2000
    4.9015   -9.8353   26.8351 O   0  0  0  0  0  0  0  0  0  0  0  0
    5.6862  -10.9304   26.5011 C   0  0  0  0  0  0  0  0  0  0  0  0
    5.4844  -12.0964   27.2388 C   0  0  0  0  0  0  0  0  0  0  0  0
    6.2720  -13.2003   26.9056 C   0  0  0  0  0  0  0  0  0  0  0  0
    7.1993  -13.1363   25.8994 C   0  0  0  0  0  0  0  0  0  0  0  0
    8.0137  -14.3133   25.5692 C   0  0  0  0  0  0  0  0  0  0  0  0
    7.1341  -15.3364   24.8478 C   0  0  2  0  0  0  0  0  0  0  0  0
    6.1874  -15.9532   25.7557 N   0  0  0  0  0  0  0  0  0  0  0  0
    7.9646  -16.3548   24.1842 C   0  0  0  0  0  0  0  0  0  0  0  0
    7.9419  -17.5320   24.6179 O   0  0  0  0  0  0  0  0  0  0  0  0
    7.3617  -11.9690   25.2025 C   0  0  0  0  0  0  0  0  0  0  0  0
    6.5984  -10.8334   25.4958 C   0  0  0  0  0  0  0  0  0  0  0  0
   10.3094  -16.1356   16.4336 N   0  0  0  0  0  0  0  0  0  0  0  0
   11.0448  -17.3422   16.6203 C   0  0  0  0  0  0  0  0  0  0  0  0
   11.9438  -17.6857   15.7884 N   0  0  0  0  0  0  0  0  0  0  0  0
   10.7432  -18.1550   17.7684 N   0  0  0  0  0  0  0  0  0  0  0  0
    9.8693  -17.6239   18.7804 C   0  0  0  0  0  0  0  0  0  0  0  0
   10.5958  -17.3377   20.0524 C   0  0  0  0  0  0  0  0  0  0  0  0
    9.9581  -16.4302   21.0226 C   0  0  0  0  0  0  0  0  0  0  0  0
    9.5525  -16.9794   22.3387 C   0  0  2  0  0  0  0  0  0  0  0  0
    8.7659  -15.9951   23.0810 N   0  0  0  0  0  0  0  0  0  0  0  0
   10.5731  -17.5487   23.1964 C   0  0  0  0  0  0  0  0  0  0  0  0
   10.5271  -18.7401   23.5605 O   0  0  0  0  0  0  0  0  0  0  0  0
   12.5579  -18.5093   15.8840 N   0  0  0  0  0  0  0  0  0  0  0  0
   11.6542  -16.7463   23.6410 C   0  0  1  0  0  0  0  0  0  0  0  0
   11.8860  -16.5134   25.0727 C   0  0  0  0  0  0  0  0  0  0  0  0
   10.6258  -15.9729   25.6764 C   0  0  0  0  0  0  0  0  0  0  0  0
   10.7207  -15.7769   27.1434 C   0  0  0  0  0  0  0  0  0  0  0  0
   11.7811  -16.1129   27.9781 N   0  0  0  0  0  0  0  0  0  0  0  0
   11.5054  -15.7844   29.2423 C   0  0  0  0  0  0  0  0  0  0  0  0
   10.2750  -15.2394   29.2262 N   0  0  0  0  0  0  0  0  0  0  0  0
    9.7965  -15.2295   27.9791 C   0  0  0  0  0  0  0  0  0  0  0  0
   12.2442  -17.7765   25.7451 O   0  0  0  0  0  0  0  0  0  0  0  0
   12.0230  -19.0206   25.1936 O   0  0  0  0  0  0  0  0  0  0  0  0
  2  3  2  0
  2  1  1  0
  4  3  1  0
  5  4  2  0
  6  7  1  0
  6  5  1  0
  7  9  1  0
  7  8  1  1
  9 10  2  0
 11  5  1  0
 11 12  2  0
 12  2  1  0
 13 14  1  0
 14 15  2  0
 16 17  1  0
 16 14  1  0
 18 17  1  0
 19 18  1  0
 20 19  1  6
 20 22  1  0
 21 20  1  0
 21  9  1  0
 22 24  1  0
 22 23  2  0
 24 25  1  0
 25 32  1  0
 25 26  1  6
 27 26  1  0
 28 27  2  0
 29 28  1  0
 30 29  1  0
 30 31  2  0
 31 27  1  0
 32 34  2  0
 32 33  1  0
M  END
$$$$
