YRH.pdb
     RDKit          3D

 34 35  0  0  1  0  0  0  0  0999 V2000
    4.6792  -10.2219   27.1072 O   0  0  0  0  0  0  0  0  0  0  0  0
    5.4784  -11.3019   26.7587 C   0  0  0  0  0  0  0  0  0  0  0  0
    5.5247  -12.3657   27.6591 C   0  0  0  0  0  0  0  0  0  0  0  0
    6.3276  -13.4542   27.3119 C   0  0  0  0  0  0  0  0  0  0  0  0
    7.0357  -13.4719   26.1394 C   0  0  0  0  0  0  0  0  0  0  0  0
    7.8718  -14.6306   25.7987 C   0  0  0  0  0  0  0  0  0  0  0  0
    7.0494  -15.6005   24.9481 C   0  0  2  0  0  0  0  0  0  0  0  0
    6.0288  -16.2612   25.7374 N   0  0  0  0  0  0  0  0  0  0  0  0
    7.9266  -16.5855   24.2941 C   0  0  0  0  0  0  0  0  0  0  0  0
    8.0292  -17.7317   24.7941 O   0  0  0  0  0  0  0  0  0  0  0  0
    6.9587  -12.4036   25.2865 C   0  0  0  0  0  0  0  0  0  0  0  0
    6.1691  -11.2878   25.5862 C   0  0  0  0  0  0  0  0  0  0  0  0
    8.5372  -12.9556   16.9131 N   0  0  0  0  0  0  0  0  0  0  0  0
    9.0696  -13.7184   17.9931 C   0  0  0  0  0  0  0  0  0  0  0  0
   10.0353  -13.2675   18.6877 N   0  0  0  0  0  0  0  0  0  0  0  0
    8.4876  -15.0039   18.2731 N   0  0  0  0  0  0  0  0  0  0  0  0
    8.1824  -15.3415   19.6380 C   0  0  0  0  0  0  0  0  0  0  0  0
    9.4094  -15.6773   20.4186 C   0  0  0  0  0  0  0  0  0  0  0  0
    9.5024  -17.0220   21.0141 C   0  0  0  0  0  0  0  0  0  0  0  0
    9.5886  -17.1336   22.4901 C   0  0  2  0  0  0  0  0  0  0  0  0
    8.6318  -16.2289   23.1263 N   0  0  0  0  0  0  0  0  0  0  0  0
   10.8879  -17.0055   23.1200 C   0  0  0  0  0  0  0  0  0  0  0  0
   11.7023  -16.1327   22.7609 O   0  0  0  0  0  0  0  0  0  0  0  0
   10.5629  -13.8066   19.3916 N   0  0  0  0  0  0  0  0  0  0  0  0
   11.2572  -17.8852   24.1689 C   0  0  1  0  0  0  0  0  0  0  0  0
   11.6129  -17.3717   25.4984 C   0  0  0  0  0  0  0  0  0  0  0  0
   10.4405  -16.6160   26.0452 C   0  0  0  0  0  0  0  0  0  0  0  0
   10.6970  -16.0334   27.3847 C   0  0  0  0  0  0  0  0  0  0  0  0
   11.8134  -16.2209   28.1926 N   0  0  0  0  0  0  0  0  0  0  0  0
   11.6898  -15.5338   29.3304 C   0  0  0  0  0  0  0  0  0  0  0  0
   10.5016  -14.9057   29.2597 N   0  0  0  0  0  0  0  0  0  0  0  0
    9.8999  -15.1962   28.1031 C   0  0  0  0  0  0  0  0  0  0  0  0
   11.9391  -18.4869   26.4072 O   0  0  0  0  0  0  0  0  0  0  0  0
   12.8119  -18.3724   27.4682 O   0  0  0  0  0  0  0  0  0  0  0  0
  2  3  2  0
  2  1  1  0
  4  3  1  0
  5  4  2  0
  6  7  1  0
  6  5  1  0
  7  9  1  0
  7  8  1  1
  9 10  2  0
 11  5  1  0
 11 12  2  0
 12  2  1  0
 13 14  1  0
 14 15  2  0
 16 17  1  0
 16 14  1  0
 18 17  1  0
 19 18  1  0
 20 19  1  6
 20 22  1  0
 21 20  1  0
 21  9  1  0
 22 24  1  0
 22 23  2  0
 24 25  1  0
 25 32  1  0
 25 26  1  1
 27 26  1  0
 28 27  2  0
 29 28  1  0
 30 29  1  0
 30 31  2  0
 31 27  1  0
 32 34  2  0
 32 33  1  0
M  END
$$$$
