YRH.pdb
     RDKit          3D

 34 35  0  0  1  0  0  0  0  0999 V2000
    6.2609  -10.5706   26.6082 O   0  0  0  0  0  0  0  0  0  0  0  0
    6.5087  -11.9349   26.6699 C   0  0  0  0  0  0  0  0  0  0  0  0
    7.8111  -12.3501   26.3941 C   0  0  0  0  0  0  0  0  0  0  0  0
    8.0643  -13.7220   26.4553 C   0  0  0  0  0  0  0  0  0  0  0  0
    7.0756  -14.6155   26.7721 C   0  0  0  0  0  0  0  0  0  0  0  0
    7.3701  -16.0535   26.8303 C   0  0  0  0  0  0  0  0  0  0  0  0
    6.6604  -16.7508   25.6680 C   0  0  2  0  0  0  0  0  0  0  0  0
    6.3452  -18.1282   25.9910 N   0  0  0  0  0  0  0  0  0  0  0  0
    7.4742  -16.6718   24.4438 C   0  0  0  0  0  0  0  0  0  0  0  0
    8.2626  -17.6113   24.1786 O   0  0  0  0  0  0  0  0  0  0  0  0
    5.8114  -14.1604   27.0352 C   0  0  0  0  0  0  0  0  0  0  0  0
    5.5039  -12.7960   26.9877 C   0  0  0  0  0  0  0  0  0  0  0  0
    8.6411  -12.6645   17.4755 N   0  0  0  0  0  0  0  0  0  0  0  0
    8.4894  -13.9818   16.9526 C   0  0  0  0  0  0  0  0  0  0  0  0
    9.0465  -14.3097   15.8569 N   0  0  0  0  0  0  0  0  0  0  0  0
    7.6936  -14.9233   17.6941 N   0  0  0  0  0  0  0  0  0  0  0  0
    6.9774  -14.4608   18.8531 C   0  0  0  0  0  0  0  0  0  0  0  0
    7.8664  -14.3320   20.0451 C   0  0  0  0  0  0  0  0  0  0  0  0
    7.2856  -14.6034   21.3720 C   0  0  0  0  0  0  0  0  0  0  0  0
    8.0346  -15.4826   22.3016 C   0  0  2  0  0  0  0  0  0  0  0  0
    7.3564  -15.5517   23.5954 N   0  0  0  0  0  0  0  0  0  0  0  0
    9.4507  -15.2402   22.4952 C   0  0  0  0  0  0  0  0  0  0  0  0
    9.9434  -14.1051   22.3442 O   0  0  0  0  0  0  0  0  0  0  0  0
    8.9712  -15.2347   15.4060 N   0  0  0  0  0  0  0  0  0  0  0  0
   10.3088  -16.3070   22.8637 C   0  0  2  0  0  0  0  0  0  0  0  0
   11.7424  -16.0821   23.0914 C   0  0  0  0  0  0  0  0  0  0  0  0
   12.2787  -17.2203   23.9048 C   0  0  0  0  0  0  0  0  0  0  0  0
   11.6600  -17.3172   25.2491 C   0  0  0  0  0  0  0  0  0  0  0  0
   10.8906  -16.3594   25.9009 N   0  0  0  0  0  0  0  0  0  0  0  0
   10.5052  -16.8034   27.0993 C   0  0  0  0  0  0  0  0  0  0  0  0
   11.0214  -18.0401   27.2227 N   0  0  0  0  0  0  0  0  0  0  0  0
   11.7126  -18.3578   26.1248 C   0  0  0  0  0  0  0  0  0  0  0  0
   12.4617  -16.0226   21.8050 O   0  0  0  0  0  0  0  0  0  0  0  0
   13.8173  -15.7938   21.7019 O   0  0  0  0  0  0  0  0  0  0  0  0
  2  3  2  0
  2  1  1  0
  4  3  1  0
  5  4  2  0
  6  7  1  0
  6  5  1  0
  7  9  1  0
  7  8  1  1
  9 10  2  0
 11  5  1  0
 11 12  2  0
 12  2  1  0
 13 14  1  0
 14 15  2  0
 16 17  1  0
 16 14  1  0
 18 17  1  0
 19 18  1  0
 20 19  1  6
 20 22  1  0
 21 20  1  0
 21  9  1  0
 22 24  1  0
 22 23  2  0
 24 25  1  0
 25 32  1  0
 25 26  1  1
 27 26  1  0
 28 27  2  0
 29 28  1  0
 30 29  1  0
 30 31  2  0
 31 27  1  0
 32 34  2  0
 32 33  1  0
M  END
$$$$
