YRH.pdb
     RDKit          3D

 34 35  0  0  1  0  0  0  0  0999 V2000
    7.0436  -11.7255   17.3814 O   0  0  0  0  0  0  0  0  0  0  0  0
    7.5187  -12.5489   18.3928 C   0  0  0  0  0  0  0  0  0  0  0  0
    6.5642  -13.1789   19.1906 C   0  0  0  0  0  0  0  0  0  0  0  0
    7.0384  -14.0082   20.2091 C   0  0  0  0  0  0  0  0  0  0  0  0
    8.3807  -14.1915   20.4118 C   0  0  0  0  0  0  0  0  0  0  0  0
    8.8518  -15.0704   21.4903 C   0  0  0  0  0  0  0  0  0  0  0  0
    9.3531  -16.3796   20.8775 C   0  0  2  0  0  0  0  0  0  0  0  0
    8.3301  -17.0094   20.0664 N   0  0  0  0  0  0  0  0  0  0  0  0
    9.8259  -17.2946   21.9294 C   0  0  0  0  0  0  0  0  0  0  0  0
    9.2181  -18.3775   22.1087 O   0  0  0  0  0  0  0  0  0  0  0  0
    9.2806  -13.5513   19.6025 C   0  0  0  0  0  0  0  0  0  0  0  0
    8.8588  -12.7094   18.5673 C   0  0  0  0  0  0  0  0  0  0  0  0
   14.9060  -20.8532   19.5921 N   0  0  0  0  0  0  0  0  0  0  0  0
   13.6456  -21.4685   19.3384 C   0  0  0  0  0  0  0  0  0  0  0  0
   13.4257  -22.0579   18.2327 N   0  0  0  0  0  0  0  0  0  0  0  0
   12.6363  -21.4043   20.3615 N   0  0  0  0  0  0  0  0  0  0  0  0
   12.9094  -20.6488   21.5551 C   0  0  0  0  0  0  0  0  0  0  0  0
   12.7190  -19.1834   21.3449 C   0  0  0  0  0  0  0  0  0  0  0  0
   12.9432  -18.2865   22.4925 C   0  0  0  0  0  0  0  0  0  0  0  0
   11.7877  -17.9488   23.3579 C   0  0  2  0  0  0  0  0  0  0  0  0
   10.9446  -16.9430   22.7126 N   0  0  0  0  0  0  0  0  0  0  0  0
   12.0396  -17.5758   24.7359 C   0  0  0  0  0  0  0  0  0  0  0  0
   13.1972  -17.5269   25.1959 O   0  0  0  0  0  0  0  0  0  0  0  0
   12.5266  -22.4798   17.9533 N   0  0  0  0  0  0  0  0  0  0  0  0
   10.9564  -17.2575   25.5936 C   0  0  2  0  0  0  0  0  0  0  0  0
   11.1811  -16.5853   26.8802 C   0  0  0  0  0  0  0  0  0  0  0  0
    9.8708  -16.0505   27.3722 C   0  0  0  0  0  0  0  0  0  0  0  0
    9.9806  -15.3485   28.6740 C   0  0  0  0  0  0  0  0  0  0  0  0
   10.6371  -14.1519   28.9407 N   0  0  0  0  0  0  0  0  0  0  0  0
   10.5200  -13.8300   30.2309 C   0  0  0  0  0  0  0  0  0  0  0  0
    9.7927  -14.8114   30.7957 N   0  0  0  0  0  0  0  0  0  0  0  0
    9.4650  -15.7234   29.8764 C   0  0  0  0  0  0  0  0  0  0  0  0
   11.7188  -17.5390   27.8688 O   0  0  0  0  0  0  0  0  0  0  0  0
   11.3444  -18.8646   27.9279 O   0  0  0  0  0  0  0  0  0  0  0  0
  2  3  2  0
  2  1  1  0
  4  3  1  0
  5  4  2  0
  6  7  1  0
  6  5  1  0
  7  9  1  0
  7  8  1  1
  9 10  2  0
 11  5  1  0
 11 12  2  0
 12  2  1  0
 13 14  1  0
 14 15  2  0
 16 17  1  0
 16 14  1  0
 18 17  1  0
 19 18  1  0
 20 19  1  6
 20 22  1  0
 21 20  1  0
 21  9  1  0
 22 24  1  0
 22 23  2  0
 24 25  1  0
 25 32  1  0
 25 26  1  6
 27 26  1  0
 28 27  2  0
 29 28  1  0
 30 29  1  0
 30 31  2  0
 31 27  1  0
 32 34  2  0
 32 33  1  0
M  END
$$$$
