YRH.pdb
     RDKit          3D

 34 35  0  0  1  0  0  0  0  0999 V2000
    5.6794  -11.6741   19.2687 O   0  0  0  0  0  0  0  0  0  0  0  0
    6.6459  -12.5680   19.7085 C   0  0  0  0  0  0  0  0  0  0  0  0
    7.5901  -12.9843   18.7706 C   0  0  0  0  0  0  0  0  0  0  0  0
    8.5641  -13.8836   19.2094 C   0  0  0  0  0  0  0  0  0  0  0  0
    8.5872  -14.3337   20.5029 C   0  0  0  0  0  0  0  0  0  0  0  0
    9.6241  -15.2790   20.9379 C   0  0  0  0  0  0  0  0  0  0  0  0
    9.1512  -16.7031   20.6395 C   0  0  2  0  0  0  0  0  0  0  0  0
    8.0274  -17.0733   21.4767 N   0  0  0  0  0  0  0  0  0  0  0  0
   10.2598  -17.6589   20.7963 C   0  0  0  0  0  0  0  0  0  0  0  0
   10.4123  -18.2340   21.9011 O   0  0  0  0  0  0  0  0  0  0  0  0
    7.6387  -13.8966   21.3883 C   0  0  0  0  0  0  0  0  0  0  0  0
    6.6406  -12.9957   21.0005 C   0  0  0  0  0  0  0  0  0  0  0  0
   10.9947  -21.2338   15.1832 N   0  0  0  0  0  0  0  0  0  0  0  0
   11.4430  -19.9992   14.6297 C   0  0  0  0  0  0  0  0  0  0  0  0
   10.8952  -19.5233   13.5848 N   0  0  0  0  0  0  0  0  0  0  0  0
   12.5252  -19.3115   15.2819 N   0  0  0  0  0  0  0  0  0  0  0  0
   13.1625  -19.9382   16.4093 C   0  0  0  0  0  0  0  0  0  0  0  0
   12.4795  -19.6053   17.6940 C   0  0  0  0  0  0  0  0  0  0  0  0
   13.1419  -18.6514   18.6010 C   0  0  0  0  0  0  0  0  0  0  0  0
   12.5030  -18.3628   19.9074 C   0  0  2  0  0  0  0  0  0  0  0  0
   11.1257  -17.9113   19.7124 N   0  0  0  0  0  0  0  0  0  0  0  0
   13.1875  -17.4834   20.8345 C   0  0  0  0  0  0  0  0  0  0  0  0
   12.8096  -16.3097   21.0182 O   0  0  0  0  0  0  0  0  0  0  0  0
   11.1082  -18.6033   13.1691 N   0  0  0  0  0  0  0  0  0  0  0  0
   14.3145  -17.9523   21.5558 C   0  0  2  0  0  0  0  0  0  0  0  0
   14.2855  -18.0595   23.0205 C   0  0  0  0  0  0  0  0  0  0  0  0
   13.0919  -18.8753   23.4138 C   0  0  0  0  0  0  0  0  0  0  0  0
   12.3715  -18.3244   24.5873 C   0  0  0  0  0  0  0  0  0  0  0  0
   12.3081  -16.9975   24.9986 N   0  0  0  0  0  0  0  0  0  0  0  0
   11.5636  -16.8830   26.1007 C   0  0  0  0  0  0  0  0  0  0  0  0
   11.1477  -18.1272   26.4008 N   0  0  0  0  0  0  0  0  0  0  0  0
   11.6235  -18.9961   25.5047 C   0  0  0  0  0  0  0  0  0  0  0  0
   15.5095  -18.7219   23.5095 O   0  0  0  0  0  0  0  0  0  0  0  0
   15.8696  -20.0063   23.1612 O   0  0  0  0  0  0  0  0  0  0  0  0
  2  3  2  0
  2  1  1  0
  4  3  1  0
  5  4  2  0
  6  7  1  0
  6  5  1  0
  7  9  1  0
  7  8  1  1
  9 10  2  0
 11  5  1  0
 11 12  2  0
 12  2  1  0
 13 14  1  0
 14 15  2  0
 16 17  1  0
 16 14  1  0
 18 17  1  0
 19 18  1  0
 20 19  1  6
 20 22  1  0
 21 20  1  0
 21  9  1  0
 22 24  1  0
 22 23  2  0
 24 25  1  0
 25 32  1  0
 25 26  1  1
 27 26  1  0
 28 27  2  0
 29 28  1  0
 30 29  1  0
 30 31  2  0
 31 27  1  0
 32 34  2  0
 32 33  1  0
M  END
$$$$
