YRH.pdb
     RDKit          3D

 34 35  0  0  1  0  0  0  0  0999 V2000
    5.0776  -12.6685   19.0754 O   0  0  0  0  0  0  0  0  0  0  0  0
    6.3977  -13.0741   19.2154 C   0  0  0  0  0  0  0  0  0  0  0  0
    6.6148  -14.3020   19.8397 C   0  0  0  0  0  0  0  0  0  0  0  0
    7.9416  -14.7135   19.9823 C   0  0  0  0  0  0  0  0  0  0  0  0
    8.9792  -13.9431   19.5284 C   0  0  0  0  0  0  0  0  0  0  0  0
   10.3655  -14.4009   19.6906 C   0  0  0  0  0  0  0  0  0  0  0  0
   10.9094  -14.8239   18.3246 C   0  0  2  0  0  0  0  0  0  0  0  0
   10.1033  -15.8757   17.7373 N   0  0  0  0  0  0  0  0  0  0  0  0
   12.3168  -15.2413   18.4358 C   0  0  0  0  0  0  0  0  0  0  0  0
   12.5752  -16.3963   18.8525 O   0  0  0  0  0  0  0  0  0  0  0  0
    8.7165  -12.7442   18.9215 C   0  0  0  0  0  0  0  0  0  0  0  0
    7.4055  -12.2848   18.7533 C   0  0  0  0  0  0  0  0  0  0  0  0
   19.4928  -12.4197   16.3780 N   0  0  0  0  0  0  0  0  0  0  0  0
   20.0832  -13.5687   16.9804 C   0  0  0  0  0  0  0  0  0  0  0  0
   21.3168  -13.5731   17.2908 N   0  0  0  0  0  0  0  0  0  0  0  0
   19.2497  -14.7154   17.2256 N   0  0  0  0  0  0  0  0  0  0  0  0
   17.8529  -14.6388   16.8892 C   0  0  0  0  0  0  0  0  0  0  0  0
   17.0884  -13.8046   17.8626 C   0  0  0  0  0  0  0  0  0  0  0  0
   15.6329  -13.6786   17.6699 C   0  0  0  0  0  0  0  0  0  0  0  0
   14.7404  -14.5755   18.4429 C   0  0  2  0  0  0  0  0  0  0  0  0
   13.3438  -14.3448   18.0755 N   0  0  0  0  0  0  0  0  0  0  0  0
   14.8751  -14.6117   19.8858 C   0  0  0  0  0  0  0  0  0  0  0  0
   14.4647  -13.6773   20.6015 O   0  0  0  0  0  0  0  0  0  0  0  0
   21.8125  -14.3568   17.7433 N   0  0  0  0  0  0  0  0  0  0  0  0
   15.4858  -15.7270   20.5131 C   0  0  2  0  0  0  0  0  0  0  0  0
   15.6876  -15.7614   21.9677 C   0  0  0  0  0  0  0  0  0  0  0  0
   15.1361  -17.0513   22.4936 C   0  0  0  0  0  0  0  0  0  0  0  0
   13.6601  -17.0376   22.6375 C   0  0  0  0  0  0  0  0  0  0  0  0
   12.8202  -15.9295   22.6681 N   0  0  0  0  0  0  0  0  0  0  0  0
   11.5482  -16.3088   22.8097 C   0  0  0  0  0  0  0  0  0  0  0  0
   11.5643  -17.6531   22.8704 N   0  0  0  0  0  0  0  0  0  0  0  0
   12.8192  -18.0996   22.7687 C   0  0  0  0  0  0  0  0  0  0  0  0
   17.1256  -15.6815   22.2868 O   0  0  0  0  0  0  0  0  0  0  0  0
   17.6158  -15.6090   23.5734 O   0  0  0  0  0  0  0  0  0  0  0  0
  2  3  2  0
  2  1  1  0
  4  3  1  0
  5  4  2  0
  6  7  1  0
  6  5  1  0
  7  9  1  0
  7  8  1  1
  9 10  2  0
 11  5  1  0
 11 12  2  0
 12  2  1  0
 13 14  1  0
 14 15  2  0
 16 17  1  0
 16 14  1  0
 18 17  1  0
 19 18  1  0
 20 19  1  1
 20 22  1  0
 21 20  1  0
 21  9  1  0
 22 24  1  0
 22 23  2  0
 24 25  1  0
 25 32  1  0
 25 26  1  6
 27 26  1  0
 28 27  2  0
 29 28  1  0
 30 29  1  0
 30 31  2  0
 31 27  1  0
 32 34  2  0
 32 33  1  0
M  END
$$$$
