YRH.pdb
     RDKit          3D

 34 35  0  0  1  0  0  0  0  0999 V2000
    4.8940  -10.3185   27.4971 O   0  0  0  0  0  0  0  0  0  0  0  0
    5.7273  -11.3142   27.0063 C   0  0  0  0  0  0  0  0  0  0  0  0
    5.7053  -11.5295   25.6287 C   0  0  0  0  0  0  0  0  0  0  0  0
    6.5423  -12.5303   25.1312 C   0  0  0  0  0  0  0  0  0  0  0  0
    7.3466  -13.2647   25.9619 C   0  0  0  0  0  0  0  0  0  0  0  0
    8.2183  -14.3111   25.4114 C   0  0  0  0  0  0  0  0  0  0  0  0
    7.3592  -15.3142   24.6391 C   0  0  2  0  0  0  0  0  0  0  0  0
    6.4395  -16.0093   25.5177 N   0  0  0  0  0  0  0  0  0  0  0  0
    8.2099  -16.2684   23.9089 C   0  0  0  0  0  0  0  0  0  0  0  0
    8.2272  -17.4683   24.2753 O   0  0  0  0  0  0  0  0  0  0  0  0
    7.3340  -13.0170   27.3085 C   0  0  0  0  0  0  0  0  0  0  0  0
    6.5140  -12.0257   27.8590 C   0  0  0  0  0  0  0  0  0  0  0  0
    7.0111  -14.8979   16.7449 N   0  0  0  0  0  0  0  0  0  0  0  0
    8.1368  -14.0460   16.9417 C   0  0  0  0  0  0  0  0  0  0  0  0
    8.1246  -12.8496   16.5095 N   0  0  0  0  0  0  0  0  0  0  0  0
    9.2793  -14.5743   17.6382 N   0  0  0  0  0  0  0  0  0  0  0  0
    9.1351  -15.8063   18.3673 C   0  0  0  0  0  0  0  0  0  0  0  0
    9.5181  -15.6550   19.8019 C   0  0  0  0  0  0  0  0  0  0  0  0
    9.4254  -16.8421   20.6701 C   0  0  0  0  0  0  0  0  0  0  0  0
    9.8721  -16.7205   22.0786 C   0  0  2  0  0  0  0  0  0  0  0  0
    8.9855  -15.8232   22.8187 N   0  0  0  0  0  0  0  0  0  0  0  0
   11.2563  -16.3778   22.3395 C   0  0  0  0  0  0  0  0  0  0  0  0
   12.0688  -16.1991   21.4111 O   0  0  0  0  0  0  0  0  0  0  0  0
    8.9091  -12.1836   16.5832 N   0  0  0  0  0  0  0  0  0  0  0  0
   11.7130  -16.2398   23.6747 C   0  0  2  0  0  0  0  0  0  0  0  0
   12.6228  -17.2275   24.2700 C   0  0  0  0  0  0  0  0  0  0  0  0
   11.8441  -18.4727   24.5666 C   0  0  0  0  0  0  0  0  0  0  0  0
   11.0706  -18.3885   25.8292 C   0  0  0  0  0  0  0  0  0  0  0  0
   11.0159  -17.3237   26.7221 N   0  0  0  0  0  0  0  0  0  0  0  0
   10.2117  -17.6124   27.7478 C   0  0  0  0  0  0  0  0  0  0  0  0
    9.7489  -18.8555   27.5205 N   0  0  0  0  0  0  0  0  0  0  0  0
   10.2544  -19.3290   26.3784 C   0  0  0  0  0  0  0  0  0  0  0  0
   13.7143  -17.5489   23.3313 O   0  0  0  0  0  0  0  0  0  0  0  0
   13.5534  -18.3583   22.2268 O   0  0  0  0  0  0  0  0  0  0  0  0
  2  3  2  0
  2  1  1  0
  4  3  1  0
  5  4  2  0
  6  7  1  0
  6  5  1  0
  7  9  1  0
  7  8  1  1
  9 10  2  0
 11  5  1  0
 11 12  2  0
 12  2  1  0
 13 14  1  0
 14 15  2  0
 16 17  1  0
 16 14  1  0
 18 17  1  0
 19 18  1  0
 20 19  1  6
 20 22  1  0
 21 20  1  0
 21  9  1  0
 22 24  1  0
 22 23  2  0
 24 25  1  0
 25 32  1  0
 25 26  1  1
 27 26  1  0
 28 27  2  0
 29 28  1  0
 30 29  1  0
 30 31  2  0
 31 27  1  0
 32 34  2  0
 32 33  1  0
M  END
$$$$
