YRH.pdb
     RDKit          3D

 34 35  0  0  1  0  0  0  0  0999 V2000
    6.5704  -11.2508   18.7035 O   0  0  0  0  0  0  0  0  0  0  0  0
    7.1826  -12.3622   19.2661 C   0  0  0  0  0  0  0  0  0  0  0  0
    6.3438  -13.3281   19.8211 C   0  0  0  0  0  0  0  0  0  0  0  0
    6.9561  -14.4477   20.3880 C   0  0  0  0  0  0  0  0  0  0  0  0
    8.3188  -14.5869   20.3964 C   0  0  0  0  0  0  0  0  0  0  0  0
    8.9364  -15.7758   20.9988 C   0  0  0  0  0  0  0  0  0  0  0  0
    9.1180  -16.8408   19.9155 C   0  0  2  0  0  0  0  0  0  0  0  0
    7.8418  -17.3625   19.4679 N   0  0  0  0  0  0  0  0  0  0  0  0
    9.9880  -17.9257   20.3986 C   0  0  0  0  0  0  0  0  0  0  0  0
    9.5132  -18.7771   21.1886 O   0  0  0  0  0  0  0  0  0  0  0  0
    9.1017  -13.6116   19.8392 C   0  0  0  0  0  0  0  0  0  0  0  0
    8.5393  -12.4696   19.2580 C   0  0  0  0  0  0  0  0  0  0  0  0
   17.7456  -20.7565   17.0855 N   0  0  0  0  0  0  0  0  0  0  0  0
   17.2128  -21.8636   17.8079 C   0  0  0  0  0  0  0  0  0  0  0  0
   17.7509  -23.0128   17.7176 N   0  0  0  0  0  0  0  0  0  0  0  0
   16.0569  -21.6458   18.6363 N   0  0  0  0  0  0  0  0  0  0  0  0
   15.5404  -20.3090   18.7639 C   0  0  0  0  0  0  0  0  0  0  0  0
   14.3571  -20.2512   19.6718 C   0  0  0  0  0  0  0  0  0  0  0  0
   13.3451  -19.2098   19.4213 C   0  0  0  0  0  0  0  0  0  0  0  0
   12.2256  -19.0705   20.3834 C   0  0  2  0  0  0  0  0  0  0  0  0
   11.3298  -17.9908   19.9701 N   0  0  0  0  0  0  0  0  0  0  0  0
   12.5355  -18.9463   21.7941 C   0  0  0  0  0  0  0  0  0  0  0  0
   12.9756  -17.8827   22.2727 O   0  0  0  0  0  0  0  0  0  0  0  0
   17.4327  -23.8583   18.2162 N   0  0  0  0  0  0  0  0  0  0  0  0
   12.3405  -20.0498   22.6627 C   0  0  2  0  0  0  0  0  0  0  0  0
   12.6990  -19.9671   24.0848 C   0  0  0  0  0  0  0  0  0  0  0  0
   11.6999  -20.7573   24.8735 C   0  0  0  0  0  0  0  0  0  0  0  0
   12.0270  -20.8326   26.3181 C   0  0  0  0  0  0  0  0  0  0  0  0
   12.0754  -19.7867   27.2334 N   0  0  0  0  0  0  0  0  0  0  0  0
   12.4056  -20.2387   28.4452 C   0  0  0  0  0  0  0  0  0  0  0  0
   12.5700  -21.5681   28.3155 N   0  0  0  0  0  0  0  0  0  0  0  0
   12.3467  -21.9343   27.0505 C   0  0  0  0  0  0  0  0  0  0  0  0
   14.0456  -20.5270   24.3064 O   0  0  0  0  0  0  0  0  0  0  0  0
   14.7968  -21.1166   23.3119 O   0  0  0  0  0  0  0  0  0  0  0  0
  2  3  2  0
  2  1  1  0
  4  3  1  0
  5  4  2  0
  6  7  1  0
  6  5  1  0
  7  9  1  0
  7  8  1  1
  9 10  2  0
 11  5  1  0
 11 12  2  0
 12  2  1  0
 13 14  1  0
 14 15  2  0
 16 17  1  0
 16 14  1  0
 18 17  1  0
 19 18  1  0
 20 19  1  6
 20 22  1  0
 21 20  1  0
 21  9  1  0
 22 24  1  0
 22 23  2  0
 24 25  1  0
 25 32  1  0
 25 26  1  6
 27 26  1  0
 28 27  2  0
 29 28  1  0
 30 29  1  0
 30 31  2  0
 31 27  1  0
 32 34  2  0
 32 33  1  0
M  END
$$$$
