TNM.pdb
     RDKit          3D

 24 23  0  0  1  0  0  0  0  0999 V2000
    8.8421  -12.9192   20.3208 C   0  0  0  0  0  0  0  0  0  0  0  0
    8.1271  -13.5796   19.1651 C   0  0  1  0  0  0  0  0  0  0  0  0
    8.5728  -13.1613   17.9305 O   0  0  0  0  0  0  0  0  0  0  0  0
    8.0929  -15.0775   19.3189 C   0  0  2  0  0  0  0  0  0  0  0  0
    7.4040  -15.6105   18.1521 N   0  0  0  0  0  0  0  0  0  0  0  0
    7.4224  -15.5205   20.5752 C   0  0  0  0  0  0  0  0  0  0  0  0
    6.1813  -15.7835   20.6089 O   0  0  0  0  0  0  0  0  0  0  0  0
    6.7778  -19.2155   24.6472 N   0  0  0  0  0  0  0  0  0  0  0  0
    7.6754  -18.5931   23.7298 C   0  0  0  0  0  0  0  0  0  0  0  0
    8.9013  -18.8048   23.8638 O   0  0  0  0  0  0  0  0  0  0  0  0
    7.1256  -17.7334   22.6714 C   0  0  0  0  0  0  0  0  0  0  0  0
    7.5770  -16.3161   22.9629 C   0  0  2  0  0  0  0  0  0  0  0  0
    8.1315  -15.6723   21.7949 N   0  0  0  0  0  0  0  0  0  0  0  0
    8.4948  -16.3402   24.1003 C   0  0  0  0  0  0  0  0  0  0  0  0
    8.7076  -17.3758   24.7972 O   0  0  0  0  0  0  0  0  0  0  0  0
    6.3008  -10.5592   27.0070 C   0  0  0  0  0  0  0  0  0  0  0  0
    5.7643  -12.2934   26.8440 S   0  0  0  0  0  0  0  0  0  0  0  0
    7.2617  -13.3099   27.1398 C   0  0  0  0  0  0  0  0  0  0  0  0
    7.6060  -13.9678   25.8263 C   0  0  0  0  0  0  0  0  0  0  0  0
    8.9865  -14.5526   25.7918 C   0  0  2  0  0  0  0  0  0  0  0  0
    9.1983  -15.1610   24.4669 N   0  0  0  0  0  0  0  0  0  0  0  0
    9.1700  -15.5714   26.8264 C   0  0  0  0  0  0  0  0  0  0  0  0
    9.2829  -15.2667   28.0384 O   0  0  0  0  0  0  0  0  0  0  0  0
    9.2246  -16.9164   26.4920 O   0  0  0  0  0  0  0  0  0  0  0  0
  2  1  1  1
  2  3  1  0
  2  4  1  0
  4  5  1  6
  6  4  1  0
  6  7  2  0
  8  9  1  0
  9 11  1  0
 10  9  2  0
 12 11  1  6
 12 13  1  0
 13  6  1  0
 14 12  1  0
 15 14  2  0
 16 17  1  0
 17 18  1  0
 18 19  1  0
 20 19  1  6
 20 21  1  0
 20 22  1  0
 21 14  1  0
 22 24  1  0
 23 22  2  0
M  END
$$$$
