TNM.pdb
     RDKit          3D

 24 23  0  0  1  0  0  0  0  0999 V2000
    8.9311  -11.9694   18.2467 C   0  0  0  0  0  0  0  0  0  0  0  0
    8.8616  -12.8589   19.4662 C   0  0  1  0  0  0  0  0  0  0  0  0
    8.1751  -12.2962   20.5196 O   0  0  0  0  0  0  0  0  0  0  0  0
    8.3938  -14.2463   19.1129 C   0  0  2  0  0  0  0  0  0  0  0  0
    7.0412  -14.1198   18.5887 N   0  0  0  0  0  0  0  0  0  0  0  0
    8.4248  -15.1857   20.2708 C   0  0  0  0  0  0  0  0  0  0  0  0
    7.3790  -15.4524   20.9383 O   0  0  0  0  0  0  0  0  0  0  0  0
   10.2461  -19.8894   22.8033 N   0  0  0  0  0  0  0  0  0  0  0  0
   10.7989  -18.5767   22.8794 C   0  0  0  0  0  0  0  0  0  0  0  0
   11.2559  -18.1887   23.9777 O   0  0  0  0  0  0  0  0  0  0  0  0
   10.8081  -17.7392   21.6712 C   0  0  0  0  0  0  0  0  0  0  0  0
    9.6856  -16.7305   21.8142 C   0  0  2  0  0  0  0  0  0  0  0  0
    9.6187  -15.8300   20.6868 N   0  0  0  0  0  0  0  0  0  0  0  0
    9.8328  -16.0428   23.0955 C   0  0  0  0  0  0  0  0  0  0  0  0
   10.7358  -15.1842   23.3215 O   0  0  0  0  0  0  0  0  0  0  0  0
    6.9041  -11.2989   26.5124 C   0  0  0  0  0  0  0  0  0  0  0  0
    6.2216  -12.9594   26.8265 S   0  0  0  0  0  0  0  0  0  0  0  0
    7.6670  -14.0837   26.9244 C   0  0  0  0  0  0  0  0  0  0  0  0
    7.7779  -14.7657   25.5830 C   0  0  0  0  0  0  0  0  0  0  0  0
    9.0253  -15.5835   25.4269 C   0  0  2  0  0  0  0  0  0  0  0  0
    8.9346  -16.3284   24.1591 N   0  0  0  0  0  0  0  0  0  0  0  0
    9.1960  -16.5285   26.5315 C   0  0  0  0  0  0  0  0  0  0  0  0
    9.0292  -17.7622   26.3745 O   0  0  0  0  0  0  0  0  0  0  0  0
    9.5507  -16.0815   27.7956 O   0  0  0  0  0  0  0  0  0  0  0  0
  2  1  1  6
  2  3  1  0
  2  4  1  0
  4  5  1  1
  6  4  1  0
  6  7  2  0
  8  9  1  0
  9 11  1  0
 10  9  2  0
 12 11  1  6
 12 13  1  0
 13  6  1  0
 14 12  1  0
 15 14  2  0
 16 17  1  0
 17 18  1  0
 18 19  1  0
 20 19  1  1
 20 21  1  0
 20 22  1  0
 21 14  1  0
 22 24  1  0
 23 22  2  0
M  END
$$$$
