TNM.pdb
     RDKit          3D

 24 23  0  0  1  0  0  0  0  0999 V2000
   -1.6897  -28.8108   26.4800 C   0  0  0  0  0  0  0  0  0  0  0  0
   -2.5731  -28.6266   27.6920 C   0  0  1  0  0  0  0  0  0  0  0  0
   -1.8821  -28.6371   28.8837 O   0  0  0  0  0  0  0  0  0  0  0  0
   -3.4876  -27.4403   27.5347 C   0  0  2  0  0  0  0  0  0  0  0  0
   -2.6406  -26.2702   27.3511 N   0  0  0  0  0  0  0  0  0  0  0  0
   -4.4038  -27.2509   28.6961 C   0  0  0  0  0  0  0  0  0  0  0  0
   -5.1692  -28.1804   29.0971 O   0  0  0  0  0  0  0  0  0  0  0  0
   -6.9095  -27.3222   33.1267 N   0  0  0  0  0  0  0  0  0  0  0  0
   -5.7974  -26.4745   32.8452 C   0  0  0  0  0  0  0  0  0  0  0  0
   -5.6009  -25.4876   33.5889 O   0  0  0  0  0  0  0  0  0  0  0  0
   -4.9337  -26.7939   31.6991 C   0  0  0  0  0  0  0  0  0  0  0  0
   -5.2945  -25.8344   30.5825 C   0  0  2  0  0  0  0  0  0  0  0  0
   -4.4692  -26.0281   29.4130 N   0  0  0  0  0  0  0  0  0  0  0  0
   -5.2482  -24.4693   31.1031 C   0  0  0  0  0  0  0  0  0  0  0  0
   -4.1752  -23.8061   31.2141 O   0  0  0  0  0  0  0  0  0  0  0  0
   -3.2155  -19.2387   31.4398 C   0  0  0  0  0  0  0  0  0  0  0  0
   -3.9025  -19.7646   29.8356 S   0  0  0  0  0  0  0  0  0  0  0  0
   -5.5907  -20.3848   30.1938 C   0  0  0  0  0  0  0  0  0  0  0  0
   -5.4396  -21.8146   30.6517 C   0  0  0  0  0  0  0  0  0  0  0  0
   -6.7277  -22.4422   31.0945 C   0  0  2  0  0  0  0  0  0  0  0  0
   -6.4481  -23.8270   31.5121 N   0  0  0  0  0  0  0  0  0  0  0  0
   -7.7229  -22.4526   30.0214 C   0  0  0  0  0  0  0  0  0  0  0  0
   -8.8209  -21.8559   30.1354 O   0  0  0  0  0  0  0  0  0  0  0  0
   -7.4771  -23.1296   28.8360 O   0  0  0  0  0  0  0  0  0  0  0  0
  2  1  1  6
  2  3  1  0
  2  4  1  0
  4  5  1  1
  6  4  1  0
  6  7  2  0
  8  9  1  0
  9 11  1  0
 10  9  2  0
 12 11  1  1
 12 13  1  0
 13  6  1  0
 14 12  1  0
 15 14  2  0
 16 17  1  0
 17 18  1  0
 18 19  1  0
 20 19  1  6
 20 21  1  0
 20 22  1  0
 21 14  1  0
 22 24  1  0
 23 22  2  0
M  END
$$$$
