TNM.pdb
     RDKit          3D

 24 23  0  0  1  0  0  0  0  0999 V2000
    8.2563  -12.5132   20.1459 C   0  0  0  0  0  0  0  0  0  0  0  0
    7.8628  -13.0578   18.7925 C   0  0  1  0  0  0  0  0  0  0  0  0
    7.9292  -12.1233   17.7825 O   0  0  0  0  0  0  0  0  0  0  0  0
    8.5904  -14.3386   18.4788 C   0  0  2  0  0  0  0  0  0  0  0  0
    8.1040  -14.8000   17.1862 N   0  0  0  0  0  0  0  0  0  0  0  0
    8.3991  -15.3892   19.5198 C   0  0  0  0  0  0  0  0  0  0  0  0
    7.7845  -16.4705   19.2675 O   0  0  0  0  0  0  0  0  0  0  0  0
    9.8835  -19.8358   21.5219 N   0  0  0  0  0  0  0  0  0  0  0  0
   10.2245  -18.5168   21.9446 C   0  0  0  0  0  0  0  0  0  0  0  0
   10.6662  -18.3617   23.1050 O   0  0  0  0  0  0  0  0  0  0  0  0
   10.0431  -17.4011   21.0045 C   0  0  0  0  0  0  0  0  0  0  0  0
    9.2031  -16.3528   21.7068 C   0  0  2  0  0  0  0  0  0  0  0  0
    8.8916  -15.2386   20.8420 N   0  0  0  0  0  0  0  0  0  0  0  0
    9.8814  -15.9560   22.9393 C   0  0  0  0  0  0  0  0  0  0  0  0
   10.7779  -15.0626   22.9801 O   0  0  0  0  0  0  0  0  0  0  0  0
    6.5820  -11.5394   27.1176 C   0  0  0  0  0  0  0  0  0  0  0  0
    7.0312  -12.5118   25.6429 S   0  0  0  0  0  0  0  0  0  0  0  0
    7.5286  -14.1635   26.2654 C   0  0  0  0  0  0  0  0  0  0  0  0
    8.0217  -14.9461   25.0734 C   0  0  0  0  0  0  0  0  0  0  0  0
    9.2424  -15.7691   25.3590 C   0  0  2  0  0  0  0  0  0  0  0  0
    9.5405  -16.5834   24.1680 N   0  0  0  0  0  0  0  0  0  0  0  0
    9.0446  -16.6510   26.5103 C   0  0  0  0  0  0  0  0  0  0  0  0
    8.9501  -16.1995   27.6773 O   0  0  0  0  0  0  0  0  0  0  0  0
    8.9552  -18.0247   26.3412 O   0  0  0  0  0  0  0  0  0  0  0  0
  2  1  1  1
  2  3  1  0
  2  4  1  0
  4  5  1  6
  6  4  1  0
  6  7  2  0
  8  9  1  0
  9 11  1  0
 10  9  2  0
 12 11  1  6
 12 13  1  0
 13  6  1  0
 14 12  1  0
 15 14  2  0
 16 17  1  0
 17 18  1  0
 18 19  1  0
 20 19  1  6
 20 21  1  0
 20 22  1  0
 21 14  1  0
 22 24  1  0
 23 22  2  0
M  END
$$$$
