TNM.pdb
     RDKit          3D

 24 23  0  0  1  0  0  0  0  0999 V2000
   12.7621  -19.4298   23.4834 C   0  0  0  0  0  0  0  0  0  0  0  0
   12.8895  -19.1626   22.0016 C   0  0  1  0  0  0  0  0  0  0  0  0
   13.7326  -20.0391   21.3546 O   0  0  0  0  0  0  0  0  0  0  0  0
   11.5404  -19.0274   21.3459 C   0  0  2  0  0  0  0  0  0  0  0  0
   11.7650  -19.0107   19.9073 N   0  0  0  0  0  0  0  0  0  0  0  0
   10.8004  -17.8069   21.7782 C   0  0  0  0  0  0  0  0  0  0  0  0
   11.1324  -16.6505   21.3741 O   0  0  0  0  0  0  0  0  0  0  0  0
    6.1843  -18.3055   25.0160 N   0  0  0  0  0  0  0  0  0  0  0  0
    7.4055  -18.0991   24.3083 C   0  0  0  0  0  0  0  0  0  0  0  0
    8.3850  -18.8240   24.5923 O   0  0  0  0  0  0  0  0  0  0  0  0
    7.4618  -17.0488   23.2811 C   0  0  0  0  0  0  0  0  0  0  0  0
    8.9234  -16.7142   23.0592 C   0  0  2  0  0  0  0  0  0  0  0  0
    9.6902  -17.8712   22.6596 N   0  0  0  0  0  0  0  0  0  0  0  0
    9.4434  -16.0626   24.2599 C   0  0  0  0  0  0  0  0  0  0  0  0
    9.2656  -14.8349   24.5143 O   0  0  0  0  0  0  0  0  0  0  0  0
    8.6726  -12.4908   27.3642 C   0  0  0  0  0  0  0  0  0  0  0  0
   10.2157  -13.0654   28.1456 S   0  0  0  0  0  0  0  0  0  0  0  0
    9.9886  -14.8611   28.4398 C   0  0  0  0  0  0  0  0  0  0  0  0
    9.5942  -15.4711   27.1173 C   0  0  0  0  0  0  0  0  0  0  0  0
   10.7234  -16.1655   26.4162 C   0  0  2  0  0  0  0  0  0  0  0  0
   10.1876  -16.8159   25.2077 N   0  0  0  0  0  0  0  0  0  0  0  0
   11.3529  -17.1745   27.2693 C   0  0  0  0  0  0  0  0  0  0  0  0
   11.0876  -18.3952   27.1512 O   0  0  0  0  0  0  0  0  0  0  0  0
   12.2699  -16.8051   28.2421 O   0  0  0  0  0  0  0  0  0  0  0  0
  2  1  1  1
  2  3  1  0
  2  4  1  0
  4  5  1  6
  6  4  1  0
  6  7  2  0
  8  9  1  0
  9 11  1  0
 10  9  2  0
 12 11  1  1
 12 13  1  0
 13  6  1  0
 14 12  1  0
 15 14  2  0
 16 17  1  0
 17 18  1  0
 18 19  1  0
 20 19  1  1
 20 21  1  0
 20 22  1  0
 21 14  1  0
 22 24  1  0
 23 22  2  0
M  END
$$$$
