TNM.pdb
     RDKit          3D

 24 23  0  0  1  0  0  0  0  0999 V2000
    7.9993  -12.0469   19.3083 C   0  0  0  0  0  0  0  0  0  0  0  0
    8.2370  -13.1327   20.3319 C   0  0  1  0  0  0  0  0  0  0  0  0
    7.7917  -12.8065   21.5940 O   0  0  0  0  0  0  0  0  0  0  0  0
    7.7438  -14.4698   19.8445 C   0  0  2  0  0  0  0  0  0  0  0  0
    6.3703  -14.2814   19.3992 N   0  0  0  0  0  0  0  0  0  0  0  0
    7.8191  -15.5350   20.8855 C   0  0  0  0  0  0  0  0  0  0  0  0
    6.7730  -16.0375   21.3990 O   0  0  0  0  0  0  0  0  0  0  0  0
   11.8883  -18.2872   20.3418 N   0  0  0  0  0  0  0  0  0  0  0  0
   11.2628  -18.0194   21.5954 C   0  0  0  0  0  0  0  0  0  0  0  0
   11.9572  -17.5231   22.5104 O   0  0  0  0  0  0  0  0  0  0  0  0
    9.8366  -18.3363   21.7592 C   0  0  0  0  0  0  0  0  0  0  0  0
    9.1643  -17.1037   22.3304 C   0  0  2  0  0  0  0  0  0  0  0  0
    9.0578  -16.0430   21.3558 N   0  0  0  0  0  0  0  0  0  0  0  0
    9.8716  -16.7036   23.5454 C   0  0  0  0  0  0  0  0  0  0  0  0
   10.4883  -17.5218   24.2895 O   0  0  0  0  0  0  0  0  0  0  0  0
    6.4866  -11.5678   27.5161 C   0  0  0  0  0  0  0  0  0  0  0  0
    7.5690  -12.1721   26.1801 S   0  0  0  0  0  0  0  0  0  0  0  0
    6.9085  -13.8159   25.7064 C   0  0  0  0  0  0  0  0  0  0  0  0
    7.7984  -14.3406   24.6066 C   0  0  0  0  0  0  0  0  0  0  0  0
    9.1030  -14.8906   25.1012 C   0  0  2  0  0  0  0  0  0  0  0  0
    9.8877  -15.3376   23.9373 N   0  0  0  0  0  0  0  0  0  0  0  0
    8.9052  -16.0185   26.0128 C   0  0  0  0  0  0  0  0  0  0  0  0
    8.2447  -17.0305   25.6749 O   0  0  0  0  0  0  0  0  0  0  0  0
    9.4485  -15.9996   27.2888 O   0  0  0  0  0  0  0  0  0  0  0  0
  2  1  1  6
  2  3  1  0
  2  4  1  0
  4  5  1  1
  6  4  1  0
  6  7  2  0
  8  9  1  0
  9 11  1  0
 10  9  2  0
 12 11  1  6
 12 13  1  0
 13  6  1  0
 14 12  1  0
 15 14  2  0
 16 17  1  0
 17 18  1  0
 18 19  1  0
 20 19  1  6
 20 21  1  0
 20 22  1  0
 21 14  1  0
 22 24  1  0
 23 22  2  0
M  END
$$$$
