TNM.pdb
     RDKit          3D

 24 23  0  0  1  0  0  0  0  0999 V2000
    7.8087  -12.6397   17.6224 C   0  0  0  0  0  0  0  0  0  0  0  0
    7.8459  -13.8321   18.5497 C   0  0  1  0  0  0  0  0  0  0  0  0
    7.9252  -15.0394   17.8912 O   0  0  0  0  0  0  0  0  0  0  0  0
    8.8848  -13.6626   19.6271 C   0  0  2  0  0  0  0  0  0  0  0  0
   10.1852  -13.6810   18.9723 N   0  0  0  0  0  0  0  0  0  0  0  0
    8.8103  -14.7150   20.6811 C   0  0  0  0  0  0  0  0  0  0  0  0
    7.7781  -14.8582   21.4055 O   0  0  0  0  0  0  0  0  0  0  0  0
   11.5864  -18.3543   19.5065 N   0  0  0  0  0  0  0  0  0  0  0  0
   10.6364  -18.3672   20.5705 C   0  0  0  0  0  0  0  0  0  0  0  0
    9.5700  -19.0005   20.4053 O   0  0  0  0  0  0  0  0  0  0  0  0
   10.9482  -17.6397   21.8094 C   0  0  0  0  0  0  0  0  0  0  0  0
    9.8747  -16.5858   21.9947 C   0  0  2  0  0  0  0  0  0  0  0  0
    9.8833  -15.6096   20.9302 N   0  0  0  0  0  0  0  0  0  0  0  0
   10.0221  -15.9939   23.3231 C   0  0  0  0  0  0  0  0  0  0  0  0
   11.0796  -15.4145   23.7100 O   0  0  0  0  0  0  0  0  0  0  0  0
    6.3538  -11.2030   27.9403 C   0  0  0  0  0  0  0  0  0  0  0  0
    6.3472  -12.3091   26.4918 S   0  0  0  0  0  0  0  0  0  0  0  0
    7.7686  -13.4444   26.7231 C   0  0  0  0  0  0  0  0  0  0  0  0
    7.8652  -14.2796   25.4701 C   0  0  0  0  0  0  0  0  0  0  0  0
    8.9921  -15.2688   25.4937 C   0  0  2  0  0  0  0  0  0  0  0  0
    8.9449  -16.0539   24.2480 N   0  0  0  0  0  0  0  0  0  0  0  0
    8.8949  -16.1743   26.6395 C   0  0  0  0  0  0  0  0  0  0  0  0
    8.9600  -15.7527   27.8196 O   0  0  0  0  0  0  0  0  0  0  0  0
    8.7263  -17.5379   26.4504 O   0  0  0  0  0  0  0  0  0  0  0  0
  2  1  1  6
  2  3  1  0
  2  4  1  0
  4  5  1  6
  6  4  1  0
  6  7  2  0
  8  9  1  0
  9 11  1  0
 10  9  2  0
 12 11  1  6
 12 13  1  0
 13  6  1  0
 14 12  1  0
 15 14  2  0
 16 17  1  0
 17 18  1  0
 18 19  1  0
 20 19  1  6
 20 21  1  0
 20 22  1  0
 21 14  1  0
 22 24  1  0
 23 22  2  0
M  END
$$$$
