TNM.pdb
     RDKit          3D

 24 23  0  0  1  0  0  0  0  0999 V2000
    7.6686  -12.7427   17.0044 C   0  0  0  0  0  0  0  0  0  0  0  0
    7.6372  -13.7936   18.0898 C   0  0  1  0  0  0  0  0  0  0  0  0
    7.7365  -15.0818   17.6119 O   0  0  0  0  0  0  0  0  0  0  0  0
    8.6161  -13.4809   19.1908 C   0  0  2  0  0  0  0  0  0  0  0  0
    9.9464  -13.5087   18.5995 N   0  0  0  0  0  0  0  0  0  0  0  0
    8.5287  -14.4306   20.3373 C   0  0  0  0  0  0  0  0  0  0  0  0
    7.5039  -14.4781   21.0843 O   0  0  0  0  0  0  0  0  0  0  0  0
    9.6166  -19.6221   22.5073 N   0  0  0  0  0  0  0  0  0  0  0  0
   10.3313  -18.3910   22.5987 C   0  0  0  0  0  0  0  0  0  0  0  0
   10.8801  -18.1034   23.6858 O   0  0  0  0  0  0  0  0  0  0  0  0
   10.3922  -17.5163   21.4186 C   0  0  0  0  0  0  0  0  0  0  0  0
    9.4865  -16.3314   21.6893 C   0  0  2  0  0  0  0  0  0  0  0  0
    9.5807  -15.3289   20.6537 N   0  0  0  0  0  0  0  0  0  0  0  0
    9.7785  -15.8126   23.0243 C   0  0  0  0  0  0  0  0  0  0  0  0
   10.8548  -15.2117   23.3141 O   0  0  0  0  0  0  0  0  0  0  0  0
    6.2242  -11.3858   28.0775 C   0  0  0  0  0  0  0  0  0  0  0  0
    6.2163  -12.4068   26.5677 S   0  0  0  0  0  0  0  0  0  0  0  0
    7.7323  -13.4352   26.6516 C   0  0  0  0  0  0  0  0  0  0  0  0
    7.7775  -14.2461   25.3799 C   0  0  0  0  0  0  0  0  0  0  0  0
    8.9464  -15.1827   25.3067 C   0  0  2  0  0  0  0  0  0  0  0  0
    8.8288  -15.9735   24.0692 N   0  0  0  0  0  0  0  0  0  0  0  0
    8.9891  -16.0876   26.4562 C   0  0  0  0  0  0  0  0  0  0  0  0
    8.7327  -17.3106   26.3417 O   0  0  0  0  0  0  0  0  0  0  0  0
    9.3179  -15.6131   27.7174 O   0  0  0  0  0  0  0  0  0  0  0  0
  2  1  1  6
  2  3  1  0
  2  4  1  0
  4  5  1  6
  6  4  1  0
  6  7  2  0
  8  9  1  0
  9 11  1  0
 10  9  2  0
 12 11  1  6
 12 13  1  0
 13  6  1  0
 14 12  1  0
 15 14  2  0
 16 17  1  0
 17 18  1  0
 18 19  1  0
 20 19  1  1
 20 21  1  0
 20 22  1  0
 21 14  1  0
 22 24  1  0
 23 22  2  0
M  END
$$$$
