TNM.pdb
     RDKit          3D

 24 23  0  0  1  0  0  0  0  0999 V2000
    9.5886  -12.5981   19.8099 C   0  0  0  0  0  0  0  0  0  0  0  0
    8.5191  -13.0164   18.8278 C   0  0  1  0  0  0  0  0  0  0  0  0
    8.4977  -12.2552   17.6799 O   0  0  0  0  0  0  0  0  0  0  0  0
    8.5561  -14.4995   18.5682 C   0  0  2  0  0  0  0  0  0  0  0  0
    7.4906  -14.7933   17.6202 N   0  0  0  0  0  0  0  0  0  0  0  0
    8.3983  -15.3137   19.8077 C   0  0  0  0  0  0  0  0  0  0  0  0
    7.2681  -15.4630   20.3652 O   0  0  0  0  0  0  0  0  0  0  0  0
   10.8397  -18.9953   19.5357 N   0  0  0  0  0  0  0  0  0  0  0  0
    9.9530  -18.8011   20.6360 C   0  0  0  0  0  0  0  0  0  0  0  0
    8.8702  -19.4282   20.6426 O   0  0  0  0  0  0  0  0  0  0  0  0
   10.3460  -17.8772   21.7099 C   0  0  0  0  0  0  0  0  0  0  0  0
    9.3901  -16.7017   21.6645 C   0  0  2  0  0  0  0  0  0  0  0  0
    9.4970  -15.9631   20.4278 N   0  0  0  0  0  0  0  0  0  0  0  0
    9.6046  -15.8760   22.8514 C   0  0  0  0  0  0  0  0  0  0  0  0
   10.6903  -15.2674   23.0853 O   0  0  0  0  0  0  0  0  0  0  0  0
    6.0453  -10.8596   27.5267 C   0  0  0  0  0  0  0  0  0  0  0  0
    5.9179  -12.1246   26.2208 S   0  0  0  0  0  0  0  0  0  0  0  0
    7.5126  -13.0298   26.2442 C   0  0  0  0  0  0  0  0  0  0  0  0
    7.4779  -13.9998   25.0890 C   0  0  0  0  0  0  0  0  0  0  0  0
    8.7308  -14.8122   24.9498 C   0  0  2  0  0  0  0  0  0  0  0  0
    8.5640  -15.7279   23.8078 N   0  0  0  0  0  0  0  0  0  0  0  0
    9.0089  -15.5912   26.1573 C   0  0  0  0  0  0  0  0  0  0  0  0
    9.3097  -15.0386   27.2430 O   0  0  0  0  0  0  0  0  0  0  0  0
    8.9469  -16.9767   26.1344 O   0  0  0  0  0  0  0  0  0  0  0  0
  2  1  1  6
  2  3  1  0
  2  4  1  0
  4  5  1  6
  6  4  1  0
  6  7  2  0
  8  9  1  0
  9 11  1  0
 10  9  2  0
 12 11  1  6
 12 13  1  0
 13  6  1  0
 14 12  1  0
 15 14  2  0
 16 17  1  0
 17 18  1  0
 18 19  1  0
 20 19  1  1
 20 21  1  0
 20 22  1  0
 21 14  1  0
 22 24  1  0
 23 22  2  0
M  END
$$$$
