TNM.pdb
     RDKit          3D

 24 23  0  0  1  0  0  0  0  0999 V2000
   11.6078  -17.8139   18.6203 C   0  0  0  0  0  0  0  0  0  0  0  0
   10.1046  -17.9666   18.6428 C   0  0  1  0  0  0  0  0  0  0  0  0
    9.6600  -19.1256   18.0453 O   0  0  0  0  0  0  0  0  0  0  0  0
    9.5470  -17.7474   20.0246 C   0  0  2  0  0  0  0  0  0  0  0  0
    8.1333  -18.0927   19.9738 N   0  0  0  0  0  0  0  0  0  0  0  0
    9.7313  -16.3508   20.5141 C   0  0  0  0  0  0  0  0  0  0  0  0
   10.8838  -15.8297   20.6180 O   0  0  0  0  0  0  0  0  0  0  0  0
    8.4638  -12.3953   18.4912 N   0  0  0  0  0  0  0  0  0  0  0  0
    7.7767  -13.4035   19.2303 C   0  0  0  0  0  0  0  0  0  0  0  0
    7.2746  -14.3614   18.6010 O   0  0  0  0  0  0  0  0  0  0  0  0
    7.6874  -13.2753   20.6921 C   0  0  0  0  0  0  0  0  0  0  0  0
    8.7717  -14.1511   21.2878 C   0  0  2  0  0  0  0  0  0  0  0  0
    8.6342  -15.5322   20.8879 N   0  0  0  0  0  0  0  0  0  0  0  0
    8.7800  -13.9672   22.7379 C   0  0  0  0  0  0  0  0  0  0  0  0
    8.7617  -12.8287   23.2921 O   0  0  0  0  0  0  0  0  0  0  0  0
    6.8710  -11.2665   26.9259 C   0  0  0  0  0  0  0  0  0  0  0  0
    5.8769  -12.7929   26.9889 S   0  0  0  0  0  0  0  0  0  0  0  0
    7.0715  -14.1747   26.8260 C   0  0  0  0  0  0  0  0  0  0  0  0
    7.3451  -14.3401   25.3514 C   0  0  0  0  0  0  0  0  0  0  0  0
    8.6909  -14.9310   25.0534 C   0  0  2  0  0  0  0  0  0  0  0  0
    8.8090  -15.1006   23.5947 N   0  0  0  0  0  0  0  0  0  0  0  0
    8.8703  -16.2283   25.7068 C   0  0  0  0  0  0  0  0  0  0  0  0
    8.8821  -16.3404   26.9565 O   0  0  0  0  0  0  0  0  0  0  0  0
    9.0338  -17.3820   24.9544 O   0  0  0  0  0  0  0  0  0  0  0  0
  2  1  1  1
  2  3  1  0
  2  4  1  0
  4  5  1  6
  6  4  1  0
  6  7  2  0
  8  9  1  0
  9 11  1  0
 10  9  2  0
 12 11  1  6
 12 13  1  0
 13  6  1  0
 14 12  1  0
 15 14  2  0
 16 17  1  0
 17 18  1  0
 18 19  1  0
 20 19  1  6
 20 21  1  0
 20 22  1  0
 21 14  1  0
 22 24  1  0
 23 22  2  0
M  END
$$$$
