TNM.pdb
     RDKit          3D

 24 23  0  0  1  0  0  0  0  0999 V2000
    8.3971  -12.4283   18.1424 C   0  0  0  0  0  0  0  0  0  0  0  0
    8.5070  -13.2546   19.4027 C   0  0  1  0  0  0  0  0  0  0  0  0
    7.5657  -12.9330   20.3558 O   0  0  0  0  0  0  0  0  0  0  0  0
    8.5752  -14.7273   19.0944 C   0  0  2  0  0  0  0  0  0  0  0  0
    7.3666  -15.0649   18.3558 N   0  0  0  0  0  0  0  0  0  0  0  0
    8.7011  -15.5745   20.3152 C   0  0  0  0  0  0  0  0  0  0  0  0
    7.6800  -15.9921   20.9424 O   0  0  0  0  0  0  0  0  0  0  0  0
   10.9984  -19.7203   23.1459 N   0  0  0  0  0  0  0  0  0  0  0  0
   11.4433  -18.3680   23.2357 C   0  0  0  0  0  0  0  0  0  0  0  0
   11.8321  -17.9444   24.3471 O   0  0  0  0  0  0  0  0  0  0  0  0
   11.4260  -17.5332   22.0257 C   0  0  0  0  0  0  0  0  0  0  0  0
   10.1185  -16.7664   22.0265 C   0  0  2  0  0  0  0  0  0  0  0  0
    9.9626  -15.9588   20.8392 N   0  0  0  0  0  0  0  0  0  0  0  0
   10.0265  -15.9965   23.2656 C   0  0  0  0  0  0  0  0  0  0  0  0
   10.8041  -15.0368   23.5445 O   0  0  0  0  0  0  0  0  0  0  0  0
    7.1210  -11.3569   27.3979 C   0  0  0  0  0  0  0  0  0  0  0  0
    6.4767  -12.5851   26.2155 S   0  0  0  0  0  0  0  0  0  0  0  0
    7.1638  -14.1999   26.7476 C   0  0  0  0  0  0  0  0  0  0  0  0
    7.4755  -14.9742   25.4906 C   0  0  0  0  0  0  0  0  0  0  0  0
    8.8795  -15.4990   25.4417 C   0  0  2  0  0  0  0  0  0  0  0  0
    9.0263  -16.3148   24.2237 N   0  0  0  0  0  0  0  0  0  0  0  0
    9.1932  -16.3186   26.6130 C   0  0  0  0  0  0  0  0  0  0  0  0
    9.3046  -15.8165   27.7576 O   0  0  0  0  0  0  0  0  0  0  0  0
    9.3780  -17.6876   26.4887 O   0  0  0  0  0  0  0  0  0  0  0  0
  2  1  1  6
  2  3  1  0
  2  4  1  0
  4  5  1  1
  6  4  1  0
  6  7  2  0
  8  9  1  0
  9 11  1  0
 10  9  2  0
 12 11  1  6
 12 13  1  0
 13  6  1  0
 14 12  1  0
 15 14  2  0
 16 17  1  0
 17 18  1  0
 18 19  1  0
 20 19  1  1
 20 21  1  0
 20 22  1  0
 21 14  1  0
 22 24  1  0
 23 22  2  0
M  END
$$$$
