TNM.pdb
     RDKit          3D

 24 23  0  0  1  0  0  0  0  0999 V2000
    9.4215  -12.5397   20.1256 C   0  0  0  0  0  0  0  0  0  0  0  0
    8.3160  -12.9977   19.2028 C   0  0  1  0  0  0  0  0  0  0  0  0
    8.2570  -12.2915   18.0215 O   0  0  0  0  0  0  0  0  0  0  0  0
    8.3376  -14.4917   19.0127 C   0  0  2  0  0  0  0  0  0  0  0  0
    7.1801  -14.8349   18.1987 N   0  0  0  0  0  0  0  0  0  0  0  0
    8.3189  -15.2446   20.2999 C   0  0  0  0  0  0  0  0  0  0  0  0
    7.2711  -15.3171   21.0122 O   0  0  0  0  0  0  0  0  0  0  0  0
   11.0536  -19.0325   19.9787 N   0  0  0  0  0  0  0  0  0  0  0  0
   10.1829  -18.7610   21.0754 C   0  0  0  0  0  0  0  0  0  0  0  0
    9.1233  -19.4199   21.1683 O   0  0  0  0  0  0  0  0  0  0  0  0
   10.5646  -17.7237   22.0448 C   0  0  0  0  0  0  0  0  0  0  0  0
    9.4750  -16.6701   22.0290 C   0  0  2  0  0  0  0  0  0  0  0  0
    9.4651  -15.9183   20.7957 N   0  0  0  0  0  0  0  0  0  0  0  0
    9.6168  -15.8301   23.2169 C   0  0  0  0  0  0  0  0  0  0  0  0
   10.5259  -14.9579   23.3443 O   0  0  0  0  0  0  0  0  0  0  0  0
    6.3999  -11.3363   25.6199 C   0  0  0  0  0  0  0  0  0  0  0  0
    6.1830  -12.4960   27.0091 S   0  0  0  0  0  0  0  0  0  0  0  0
    7.6824  -13.5516   27.0181 C   0  0  0  0  0  0  0  0  0  0  0  0
    7.6610  -14.3467   25.7359 C   0  0  0  0  0  0  0  0  0  0  0  0
    8.8863  -15.1866   25.5300 C   0  0  2  0  0  0  0  0  0  0  0  0
    8.7058  -15.9742   24.2981 N   0  0  0  0  0  0  0  0  0  0  0  0
    9.1165  -16.0946   26.6547 C   0  0  0  0  0  0  0  0  0  0  0  0
    8.8973  -17.3266   26.5621 O   0  0  0  0  0  0  0  0  0  0  0  0
    9.5886  -15.6130   27.8667 O   0  0  0  0  0  0  0  0  0  0  0  0
  2  1  1  6
  2  3  1  0
  2  4  1  0
  4  5  1  6
  6  4  1  0
  6  7  2  0
  8  9  1  0
  9 11  1  0
 10  9  2  0
 12 11  1  6
 12 13  1  0
 13  6  1  0
 14 12  1  0
 15 14  2  0
 16 17  1  0
 17 18  1  0
 18 19  1  0
 20 19  1  1
 20 21  1  0
 20 22  1  0
 21 14  1  0
 22 24  1  0
 23 22  2  0
M  END
$$$$
