TNM.pdb
     RDKit          3D

 24 23  0  0  1  0  0  0  0  0999 V2000
    9.1094  -12.4414   20.0706 C   0  0  0  0  0  0  0  0  0  0  0  0
    8.1178  -13.1186   19.1534 C   0  0  1  0  0  0  0  0  0  0  0  0
    7.8757  -12.4192   17.9916 O   0  0  0  0  0  0  0  0  0  0  0  0
    8.4737  -14.5642   18.9249 C   0  0  2  0  0  0  0  0  0  0  0  0
    7.5013  -15.0989   17.9821 N   0  0  0  0  0  0  0  0  0  0  0  0
    8.4875  -15.3681   20.1809 C   0  0  0  0  0  0  0  0  0  0  0  0
    7.4132  -15.7007   20.7689 O   0  0  0  0  0  0  0  0  0  0  0  0
   12.5202  -17.1982   20.1965 N   0  0  0  0  0  0  0  0  0  0  0  0
   11.3814  -17.7873   20.8216 C   0  0  0  0  0  0  0  0  0  0  0  0
   10.7439  -18.6599   20.1907 O   0  0  0  0  0  0  0  0  0  0  0  0
   11.0062  -17.3467   22.1731 C   0  0  0  0  0  0  0  0  0  0  0  0
    9.7477  -16.5122   22.0413 C   0  0  2  0  0  0  0  0  0  0  0  0
    9.6960  -15.8034   20.7838 N   0  0  0  0  0  0  0  0  0  0  0  0
    9.6428  -15.6338   23.2049 C   0  0  0  0  0  0  0  0  0  0  0  0
    9.6731  -14.3704   23.1243 O   0  0  0  0  0  0  0  0  0  0  0  0
    6.1147  -11.2018   26.0484 C   0  0  0  0  0  0  0  0  0  0  0  0
    7.6123  -12.2401   26.0821 S   0  0  0  0  0  0  0  0  0  0  0  0
    7.0216  -13.9630   26.2950 C   0  0  0  0  0  0  0  0  0  0  0  0
    7.6764  -14.7833   25.2110 C   0  0  0  0  0  0  0  0  0  0  0  0
    8.9972  -15.3672   25.6154 C   0  0  2  0  0  0  0  0  0  0  0  0
    9.4979  -16.1934   24.5031 N   0  0  0  0  0  0  0  0  0  0  0  0
    8.8793  -16.1945   26.8170 C   0  0  0  0  0  0  0  0  0  0  0  0
    8.7236  -15.6866   27.9538 O   0  0  0  0  0  0  0  0  0  0  0  0
    8.9371  -17.5777   26.7312 O   0  0  0  0  0  0  0  0  0  0  0  0
  2  1  1  6
  2  3  1  0
  2  4  1  0
  4  5  1  6
  6  4  1  0
  6  7  2  0
  8  9  1  0
  9 11  1  0
 10  9  2  0
 12 11  1  1
 12 13  1  0
 13  6  1  0
 14 12  1  0
 15 14  2  0
 16 17  1  0
 17 18  1  0
 18 19  1  0
 20 19  1  6
 20 21  1  0
 20 22  1  0
 21 14  1  0
 22 24  1  0
 23 22  2  0
M  END
$$$$
