TNM.pdb
     RDKit          3D

 24 23  0  0  1  0  0  0  0  0999 V2000
    8.7712  -12.2644   17.9950 C   0  0  0  0  0  0  0  0  0  0  0  0
    8.7573  -13.1339   19.2307 C   0  0  1  0  0  0  0  0  0  0  0  0
    7.8510  -12.7226   20.1831 O   0  0  0  0  0  0  0  0  0  0  0  0
    8.6422  -14.5938   18.8784 C   0  0  2  0  0  0  0  0  0  0  0  0
    7.3674  -14.7690   18.1969 N   0  0  0  0  0  0  0  0  0  0  0  0
    8.7324  -15.4903   20.0667 C   0  0  0  0  0  0  0  0  0  0  0  0
    7.6951  -15.8800   20.6854 O   0  0  0  0  0  0  0  0  0  0  0  0
   10.5493  -19.6800   22.8034 N   0  0  0  0  0  0  0  0  0  0  0  0
   11.3505  -18.5023   22.8812 C   0  0  0  0  0  0  0  0  0  0  0  0
   11.9899  -18.2888   23.9353 O   0  0  0  0  0  0  0  0  0  0  0  0
   11.3907  -17.5936   21.7261 C   0  0  0  0  0  0  0  0  0  0  0  0
   10.0990  -16.8005   21.7323 C   0  0  2  0  0  0  0  0  0  0  0  0
    9.9761  -15.9550   20.5676 N   0  0  0  0  0  0  0  0  0  0  0  0
   10.0051  -16.0658   22.9925 C   0  0  0  0  0  0  0  0  0  0  0  0
   10.9050  -15.2746   23.4020 O   0  0  0  0  0  0  0  0  0  0  0  0
    6.7227  -11.5406   27.4995 C   0  0  0  0  0  0  0  0  0  0  0  0
    6.9742  -12.4500   25.9402 S   0  0  0  0  0  0  0  0  0  0  0  0
    6.9249  -14.2284   26.3849 C   0  0  0  0  0  0  0  0  0  0  0  0
    7.2511  -14.9989   25.1293 C   0  0  0  0  0  0  0  0  0  0  0  0
    8.6948  -15.3909   25.0237 C   0  0  2  0  0  0  0  0  0  0  0  0
    8.8611  -16.2246   23.8205 N   0  0  0  0  0  0  0  0  0  0  0  0
    9.1398  -16.1429   26.1979 C   0  0  0  0  0  0  0  0  0  0  0  0
    9.4263  -15.5703   27.2771 O   0  0  0  0  0  0  0  0  0  0  0  0
    9.2581  -17.5240   26.1495 O   0  0  0  0  0  0  0  0  0  0  0  0
  2  1  1  6
  2  3  1  0
  2  4  1  0
  4  5  1  1
  6  4  1  0
  6  7  2  0
  8  9  1  0
  9 11  1  0
 10  9  2  0
 12 11  1  6
 12 13  1  0
 13  6  1  0
 14 12  1  0
 15 14  2  0
 16 17  1  0
 17 18  1  0
 18 19  1  0
 20 19  1  1
 20 21  1  0
 20 22  1  0
 21 14  1  0
 22 24  1  0
 23 22  2  0
M  END
$$$$
