TNM.pdb
     RDKit          3D

 24 23  0  0  1  0  0  0  0  0999 V2000
    8.5769  -13.1901   20.5279 C   0  0  0  0  0  0  0  0  0  0  0  0
    7.7294  -14.2329   19.8369 C   0  0  1  0  0  0  0  0  0  0  0  0
    7.0197  -13.7423   18.7630 O   0  0  0  0  0  0  0  0  0  0  0  0
    8.5258  -15.4712   19.5193 C   0  0  2  0  0  0  0  0  0  0  0  0
    7.6530  -16.3572   18.7621 N   0  0  0  0  0  0  0  0  0  0  0  0
    9.0475  -16.1583   20.7358 C   0  0  0  0  0  0  0  0  0  0  0  0
    8.4386  -17.1432   21.2552 O   0  0  0  0  0  0  0  0  0  0  0  0
   12.5368  -18.0937   21.1857 N   0  0  0  0  0  0  0  0  0  0  0  0
   12.9533  -16.7898   21.5872 C   0  0  0  0  0  0  0  0  0  0  0  0
   13.8909  -16.2478   20.9605 O   0  0  0  0  0  0  0  0  0  0  0  0
   12.2676  -16.1413   22.7144 C   0  0  0  0  0  0  0  0  0  0  0  0
   10.7836  -16.4013   22.5483 C   0  0  2  0  0  0  0  0  0  0  0  0
   10.2470  -15.7512   21.3754 N   0  0  0  0  0  0  0  0  0  0  0  0
   10.0994  -16.0225   23.7832 C   0  0  0  0  0  0  0  0  0  0  0  0
   10.4293  -16.4664   24.9223 O   0  0  0  0  0  0  0  0  0  0  0  0
    6.4265  -11.1539   27.8390 C   0  0  0  0  0  0  0  0  0  0  0  0
    7.4504  -11.8923   26.5243 S   0  0  0  0  0  0  0  0  0  0  0  0
    6.4498  -13.2574   25.8185 C   0  0  0  0  0  0  0  0  0  0  0  0
    7.2082  -13.7778   24.6224 C   0  0  0  0  0  0  0  0  0  0  0  0
    8.3515  -14.6790   24.9824 C   0  0  2  0  0  0  0  0  0  0  0  0
    9.0081  -15.1134   23.7372 N   0  0  0  0  0  0  0  0  0  0  0  0
    7.9008  -15.8557   25.7270 C   0  0  0  0  0  0  0  0  0  0  0  0
    8.0291  -15.9360   26.9726 O   0  0  0  0  0  0  0  0  0  0  0  0
    7.3129  -16.9260   25.0691 O   0  0  0  0  0  0  0  0  0  0  0  0
  2  1  1  6
  2  3  1  0
  2  4  1  0
  4  5  1  1
  6  4  1  0
  6  7  2  0
  8  9  1  0
  9 11  1  0
 10  9  2  0
 12 11  1  1
 12 13  1  0
 13  6  1  0
 14 12  1  0
 15 14  2  0
 16 17  1  0
 17 18  1  0
 18 19  1  0
 20 19  1  6
 20 21  1  0
 20 22  1  0
 21 14  1  0
 22 24  1  0
 23 22  2  0
M  END
$$$$
