KNM.pdb
     RDKit          3D

 26 25  0  0  1  0  0  0  0  0999 V2000
   26.3428  -23.2149  -16.1811 N   0  0  0  0  0  0  0  0  0  0  0  0
   25.6553  -22.0074  -15.8335 C   0  0  1  0  0  0  0  0  0  0  0  0
   25.2231  -21.2326  -17.0742 C   0  0  0  0  0  0  0  0  0  0  0  0
   25.9727  -21.6936  -18.2800 C   0  0  0  0  0  0  0  0  0  0  0  0
   25.2696  -22.8241  -18.9973 C   0  0  0  0  0  0  0  0  0  0  0  0
   25.9360  -23.1047  -20.3313 C   0  0  0  0  0  0  0  0  0  0  0  0
   25.2926  -24.2075  -20.9979 N   0  0  0  0  0  0  0  0  0  0  0  0
   24.3852  -22.2866  -15.0822 C   0  0  0  0  0  0  0  0  0  0  0  0
   23.8740  -23.4316  -15.1019 O   0  0  0  0  0  0  0  0  0  0  0  0
   20.6605  -21.6454  -11.4236 N   0  0  0  0  0  0  0  0  0  0  0  0
   21.4405  -20.4133  -11.5593 C   0  0  0  0  0  0  0  0  0  0  0  0
   21.0040  -19.4905  -10.8583 O   0  0  0  0  0  0  0  0  0  0  0  0
   22.5834  -20.4196  -12.4600 C   0  0  0  0  0  0  0  0  0  0  0  0
   22.5528  -21.5005  -13.5007 C   0  0  2  0  0  0  0  0  0  0  0  0
   23.7843  -21.2394  -14.3591 N   0  0  0  0  0  0  0  0  0  0  0  0
   21.4137  -21.4361  -14.4248 C   0  0  0  0  0  0  0  0  0  0  0  0
   21.4292  -20.5179  -15.3430 O   0  0  0  0  0  0  0  0  0  0  0  0
   15.2590  -24.7468  -18.1270 C   0  0  0  0  0  0  0  0  0  0  0  0
   16.6873  -24.9173  -17.0217 S   0  0  0  0  0  0  0  0  0  0  0  0
   17.4675  -23.3244  -16.6950 C   0  0  0  0  0  0  0  0  0  0  0  0
   18.5698  -23.4171  -15.6586 C   0  0  0  0  0  0  0  0  0  0  0  0
   19.2137  -22.0756  -15.4453 C   0  0  2  0  0  0  0  0  0  0  0  0
   20.2848  -22.2730  -14.4400 N   0  0  0  0  0  0  0  0  0  0  0  0
   18.2175  -21.1542  -14.8759 C   0  0  0  0  0  0  0  0  0  0  0  0
   18.0839  -21.1586  -13.6237 O   0  0  0  0  0  0  0  0  0  0  0  0
   17.4318  -20.2981  -15.6223 O   0  0  0  0  0  0  0  0  0  0  0  0
  2  1  1  6
  3  2  1  0
  4  3  1  0
  4  5  1  0
  6  5  1  0
  6  7  1  0
  8  9  2  0
  8  2  1  0
 10 11  1  0
 11 13  1  0
 12 11  2  0
 14 13  1  1
 14 15  1  0
 15  8  1  0
 16 23  1  0
 16 14  1  0
 17 16  2  0
 19 20  1  0
 19 18  1  0
 20 21  1  0
 22 21  1  1
 22 24  1  0
 22 23  1  0
 24 26  1  0
 25 24  2  0
M  END
$$$$
