KNM.pdb
     RDKit          3D

 26 25  0  0  1  0  0  0  0  0999 V2000
   26.1018  -23.8168  -15.5211 N   0  0  0  0  0  0  0  0  0  0  0  0
   26.6646  -22.5293  -15.7987 C   0  0  1  0  0  0  0  0  0  0  0  0
   26.3116  -22.0557  -17.2050 C   0  0  0  0  0  0  0  0  0  0  0  0
   26.3388  -23.1912  -18.1737 C   0  0  0  0  0  0  0  0  0  0  0  0
   27.0692  -24.3970  -17.6266 C   0  0  0  0  0  0  0  0  0  0  0  0
   27.1701  -25.4826  -18.6818 C   0  0  0  0  0  0  0  0  0  0  0  0
   28.5289  -25.6205  -19.1396 N   0  0  0  0  0  0  0  0  0  0  0  0
   26.1195  -21.4737  -14.8800 C   0  0  0  0  0  0  0  0  0  0  0  0
   26.2887  -20.2582  -15.1377 O   0  0  0  0  0  0  0  0  0  0  0  0
   22.1426  -18.8792  -12.3129 N   0  0  0  0  0  0  0  0  0  0  0  0
   22.4625  -20.2918  -12.0954 C   0  0  0  0  0  0  0  0  0  0  0  0
   21.9478  -20.7462  -11.0649 O   0  0  0  0  0  0  0  0  0  0  0  0
   23.3080  -20.9627  -13.0714 C   0  0  0  0  0  0  0  0  0  0  0  0
   24.7809  -20.8424  -12.8096 C   0  0  2  0  0  0  0  0  0  0  0  0
   25.4180  -21.8773  -13.7286 N   0  0  0  0  0  0  0  0  0  0  0  0
   25.1997  -21.2165  -11.4530 C   0  0  0  0  0  0  0  0  0  0  0  0
   25.1251  -22.4693  -11.1194 O   0  0  0  0  0  0  0  0  0  0  0  0
   28.2011  -19.4722   -4.2951 C   0  0  0  0  0  0  0  0  0  0  0  0
   27.7859  -18.9087   -5.9688 S   0  0  0  0  0  0  0  0  0  0  0  0
   26.9342  -20.1910   -6.9085 C   0  0  0  0  0  0  0  0  0  0  0  0
   26.6870  -19.7904   -8.3493 C   0  0  0  0  0  0  0  0  0  0  0  0
   25.9506  -20.8755   -9.0844 C   0  0  2  0  0  0  0  0  0  0  0  0
   25.6899  -20.3624  -10.4503 N   0  0  0  0  0  0  0  0  0  0  0  0
   24.6538  -21.1012   -8.4263 C   0  0  0  0  0  0  0  0  0  0  0  0
   23.6821  -20.4051   -8.8230 O   0  0  0  0  0  0  0  0  0  0  0  0
   24.4425  -22.0169   -7.4144 O   0  0  0  0  0  0  0  0  0  0  0  0
  2  1  1  1
  3  2  1  0
  4  3  1  0
  4  5  1  0
  6  5  1  0
  6  7  1  0
  8  9  2  0
  8  2  1  0
 10 11  1  0
 11 13  1  0
 12 11  2  0
 14 13  1  1
 14 15  1  0
 15  8  1  0
 16 23  1  0
 16 14  1  0
 17 16  2  0
 19 20  1  0
 19 18  1  0
 20 21  1  0
 22 21  1  1
 22 24  1  0
 22 23  1  0
 24 26  1  0
 25 24  2  0
M  END
$$$$
