KNM.pdb
     RDKit          3D

 26 25  0  0  1  0  0  0  0  0999 V2000
   21.3291  -30.6608  -14.3619 N   0  0  0  0  0  0  0  0  0  0  0  0
   21.2956  -29.2422  -14.1670 C   0  0  1  0  0  0  0  0  0  0  0  0
   21.1156  -28.5000  -15.4873 C   0  0  0  0  0  0  0  0  0  0  0  0
   22.4363  -28.1924  -16.1115 C   0  0  0  0  0  0  0  0  0  0  0  0
   22.9071  -29.2937  -17.0347 C   0  0  0  0  0  0  0  0  0  0  0  0
   24.2902  -28.9812  -17.5746 C   0  0  0  0  0  0  0  0  0  0  0  0
   24.7855  -30.0778  -18.3664 N   0  0  0  0  0  0  0  0  0  0  0  0
   20.1287  -28.8242  -13.3189 C   0  0  0  0  0  0  0  0  0  0  0  0
   19.0433  -29.4494  -13.3793 O   0  0  0  0  0  0  0  0  0  0  0  0
   17.4664  -26.2965   -9.5715 N   0  0  0  0  0  0  0  0  0  0  0  0
   18.9056  -26.2415   -9.3056 C   0  0  0  0  0  0  0  0  0  0  0  0
   19.1707  -25.7344   -8.2075 O   0  0  0  0  0  0  0  0  0  0  0  0
   19.8113  -26.7655  -10.3168 C   0  0  0  0  0  0  0  0  0  0  0  0
   19.1356  -27.2853  -11.5519 C   0  0  2  0  0  0  0  0  0  0  0  0
   20.2798  -27.7203  -12.4591 N   0  0  0  0  0  0  0  0  0  0  0  0
   18.3919  -26.2785  -12.3193 C   0  0  0  0  0  0  0  0  0  0  0  0
   17.1932  -26.5821  -12.7158 O   0  0  0  0  0  0  0  0  0  0  0  0
   13.5087  -24.3436  -16.6576 C   0  0  0  0  0  0  0  0  0  0  0  0
   14.8775  -25.3100  -15.9622 S   0  0  0  0  0  0  0  0  0  0  0  0
   15.8682  -24.3291  -14.8180 C   0  0  0  0  0  0  0  0  0  0  0  0
   17.1029  -25.0654  -14.3375 C   0  0  0  0  0  0  0  0  0  0  0  0
   18.0105  -24.1410  -13.5748 C   0  0  2  0  0  0  0  0  0  0  0  0
   18.8291  -24.9921  -12.6791 N   0  0  0  0  0  0  0  0  0  0  0  0
   17.1899  -23.2527  -12.7362 C   0  0  0  0  0  0  0  0  0  0  0  0
   16.9892  -23.6135  -11.5464 O   0  0  0  0  0  0  0  0  0  0  0  0
   16.6350  -22.0649  -13.1701 O   0  0  0  0  0  0  0  0  0  0  0  0
  2  1  1  6
  3  2  1  0
  4  3  1  0
  4  5  1  0
  6  5  1  0
  6  7  1  0
  8  9  2  0
  8  2  1  0
 10 11  1  0
 11 13  1  0
 12 11  2  0
 14 13  1  1
 14 15  1  0
 15  8  1  0
 16 23  1  0
 16 14  1  0
 17 16  2  0
 19 20  1  0
 19 18  1  0
 20 21  1  0
 22 21  1  1
 22 24  1  0
 22 23  1  0
 24 26  1  0
 25 24  2  0
M  END
$$$$
