KNM.pdb
     RDKit          3D

 26 25  0  0  1  0  0  0  0  0999 V2000
   28.5106  -20.0561  -16.9057 N   0  0  0  0  0  0  0  0  0  0  0  0
   28.1565  -19.3200  -15.7291 C   0  0  1  0  0  0  0  0  0  0  0  0
   27.4646  -18.0062  -16.0781 C   0  0  0  0  0  0  0  0  0  0  0  0
   27.8751  -17.5296  -17.4319 C   0  0  0  0  0  0  0  0  0  0  0  0
   26.7324  -17.5557  -18.4222 C   0  0  0  0  0  0  0  0  0  0  0  0
   27.1088  -16.8112  -19.6896 C   0  0  0  0  0  0  0  0  0  0  0  0
   26.1278  -17.0355  -20.7201 N   0  0  0  0  0  0  0  0  0  0  0  0
   27.1708  -20.0696  -14.8793 C   0  0  0  0  0  0  0  0  0  0  0  0
   26.3966  -20.9100  -15.3958 O   0  0  0  0  0  0  0  0  0  0  0  0
   25.7181  -22.1685   -9.8953 N   0  0  0  0  0  0  0  0  0  0  0  0
   25.7615  -20.7254  -10.1413 C   0  0  0  0  0  0  0  0  0  0  0  0
   25.0170  -20.0880   -9.3846 O   0  0  0  0  0  0  0  0  0  0  0  0
   26.6345  -20.2346  -11.1971 C   0  0  0  0  0  0  0  0  0  0  0  0
   26.1929  -20.5872  -12.5874 C   0  0  2  0  0  0  0  0  0  0  0  0
   27.1356  -19.8088  -13.4967 N   0  0  0  0  0  0  0  0  0  0  0  0
   24.8438  -20.1290  -12.9419 C   0  0  0  0  0  0  0  0  0  0  0  0
   24.6818  -18.8677  -13.2052 O   0  0  0  0  0  0  0  0  0  0  0  0
   22.7363  -19.5444  -17.9377 C   0  0  0  0  0  0  0  0  0  0  0  0
   21.0706  -19.4172  -17.2304 S   0  0  0  0  0  0  0  0  0  0  0  0
   21.0945  -19.6107  -15.4374 C   0  0  0  0  0  0  0  0  0  0  0  0
   22.4030  -20.1843  -14.9307 C   0  0  0  0  0  0  0  0  0  0  0  0
   22.3897  -20.2963  -13.4316 C   0  0  2  0  0  0  0  0  0  0  0  0
   23.6802  -20.9110  -13.0397 N   0  0  0  0  0  0  0  0  0  0  0  0
   21.3083  -21.2108  -13.0318 C   0  0  0  0  0  0  0  0  0  0  0  0
   20.1806  -20.6985  -12.8044 O   0  0  0  0  0  0  0  0  0  0  0  0
   21.4547  -22.5770  -12.8929 O   0  0  0  0  0  0  0  0  0  0  0  0
  2  1  1  6
  3  2  1  0
  4  3  1  0
  4  5  1  0
  6  5  1  0
  6  7  1  0
  8  9  2  0
  8  2  1  0
 10 11  1  0
 11 13  1  0
 12 11  2  0
 14 13  1  1
 14 15  1  0
 15  8  1  0
 16 23  1  0
 16 14  1  0
 17 16  2  0
 19 20  1  0
 19 18  1  0
 20 21  1  0
 22 21  1  6
 22 24  1  0
 22 23  1  0
 24 26  1  0
 25 24  2  0
M  END
$$$$
