KNM.pdb
     RDKit          3D

 26 25  0  0  1  0  0  0  0  0999 V2000
   27.8391  -22.8362  -15.9461 N   0  0  0  0  0  0  0  0  0  0  0  0
   27.2135  -21.6528  -15.4366 C   0  0  1  0  0  0  0  0  0  0  0  0
   26.7193  -20.7516  -16.5637 C   0  0  0  0  0  0  0  0  0  0  0  0
   27.8620  -20.0808  -17.2513 C   0  0  0  0  0  0  0  0  0  0  0  0
   28.0753  -20.6018  -18.6547 C   0  0  0  0  0  0  0  0  0  0  0  0
   29.1766  -19.8237  -19.3502 C   0  0  0  0  0  0  0  0  0  0  0  0
   29.4122  -18.5700  -18.6813 N   0  0  0  0  0  0  0  0  0  0  0  0
   25.9909  -21.9745  -14.6259 C   0  0  0  0  0  0  0  0  0  0  0  0
   25.4349  -23.0936  -14.7315 O   0  0  0  0  0  0  0  0  0  0  0  0
   26.0613  -22.5134  -11.0548 N   0  0  0  0  0  0  0  0  0  0  0  0
   25.5287  -21.2044  -10.6704 C   0  0  0  0  0  0  0  0  0  0  0  0
   25.9635  -20.8122   -9.5793 O   0  0  0  0  0  0  0  0  0  0  0  0
   24.5949  -20.5503  -11.5746 C   0  0  0  0  0  0  0  0  0  0  0  0
   24.3080  -21.3125  -12.8351 C   0  0  2  0  0  0  0  0  0  0  0  0
   25.4853  -20.9964  -13.7492 N   0  0  0  0  0  0  0  0  0  0  0  0
   23.1161  -20.8679  -13.5681 C   0  0  0  0  0  0  0  0  0  0  0  0
   23.0110  -19.6033  -13.8441 O   0  0  0  0  0  0  0  0  0  0  0  0
   23.1457  -21.1214  -19.2454 C   0  0  0  0  0  0  0  0  0  0  0  0
   21.6506  -21.0172  -18.2232 S   0  0  0  0  0  0  0  0  0  0  0  0
   21.7383  -22.1269  -16.8042 C   0  0  0  0  0  0  0  0  0  0  0  0
   20.5561  -21.9706  -15.8684 C   0  0  0  0  0  0  0  0  0  0  0  0
   20.8992  -21.0558  -14.7259 C   0  0  2  0  0  0  0  0  0  0  0  0
   22.0531  -21.6662  -14.0240 N   0  0  0  0  0  0  0  0  0  0  0  0
   19.7643  -21.0164  -13.7899 C   0  0  0  0  0  0  0  0  0  0  0  0
   19.8284  -21.7676  -12.7811 O   0  0  0  0  0  0  0  0  0  0  0  0
   18.6497  -20.2170  -13.9499 O   0  0  0  0  0  0  0  0  0  0  0  0
  2  1  1  6
  3  2  1  0
  4  3  1  0
  4  5  1  0
  6  5  1  0
  6  7  1  0
  8  9  2  0
  8  2  1  0
 10 11  1  0
 11 13  1  0
 12 11  2  0
 14 13  1  1
 14 15  1  0
 15  8  1  0
 16 23  1  0
 16 14  1  0
 17 16  2  0
 19 20  1  0
 19 18  1  0
 20 21  1  0
 22 21  1  6
 22 24  1  0
 22 23  1  0
 24 26  1  0
 25 24  2  0
M  END
$$$$
