KNM.pdb
     RDKit          3D

 26 25  0  0  1  0  0  0  0  0999 V2000
   16.2565  -10.9820  -17.2789 N   0  0  0  0  0  0  0  0  0  0  0  0
   15.0109  -11.3374  -16.6676 C   0  0  1  0  0  0  0  0  0  0  0  0
   14.9529  -12.8260  -16.3400 C   0  0  0  0  0  0  0  0  0  0  0  0
   16.3243  -13.3863  -16.1563 C   0  0  0  0  0  0  0  0  0  0  0  0
   16.3134  -14.8880  -15.9781 C   0  0  0  0  0  0  0  0  0  0  0  0
   17.6796  -15.3824  -15.5410 C   0  0  0  0  0  0  0  0  0  0  0  0
   17.6675  -16.8111  -15.3581 N   0  0  0  0  0  0  0  0  0  0  0  0
   14.8164  -10.6377  -15.3529 C   0  0  0  0  0  0  0  0  0  0  0  0
   15.7140   -9.8945  -14.8900 O   0  0  0  0  0  0  0  0  0  0  0  0
   12.4561   -8.0963  -11.5827 N   0  0  0  0  0  0  0  0  0  0  0  0
   12.9161   -7.6092  -12.8850 C   0  0  0  0  0  0  0  0  0  0  0  0
   12.9405   -6.3730  -12.9525 O   0  0  0  0  0  0  0  0  0  0  0  0
   13.2737   -8.5905  -13.8982 C   0  0  0  0  0  0  0  0  0  0  0  0
   13.2926  -10.0107  -13.4134 C   0  0  2  0  0  0  0  0  0  0  0  0
   13.6099  -10.8342  -14.6554 N   0  0  0  0  0  0  0  0  0  0  0  0
   12.0013  -10.5160  -12.9310 C   0  0  0  0  0  0  0  0  0  0  0  0
   11.0174  -10.5702  -13.7768 O   0  0  0  0  0  0  0  0  0  0  0  0
    7.7904  -15.0334   -8.0037 C   0  0  0  0  0  0  0  0  0  0  0  0
    9.4014  -14.4065   -8.5539 S   0  0  0  0  0  0  0  0  0  0  0  0
    9.2205  -13.1136   -9.7983 C   0  0  0  0  0  0  0  0  0  0  0  0
   10.5534  -12.5592  -10.2606 C   0  0  0  0  0  0  0  0  0  0  0  0
   10.3555  -11.5148  -11.3235 C   0  0  2  0  0  0  0  0  0  0  0  0
   11.6964  -10.9653  -11.6347 N   0  0  0  0  0  0  0  0  0  0  0  0
    9.5322  -10.4258  -10.7738 C   0  0  0  0  0  0  0  0  0  0  0  0
   10.1381   -9.4916  -10.1855 O   0  0  0  0  0  0  0  0  0  0  0  0
    8.1553  -10.3687  -10.8632 O   0  0  0  0  0  0  0  0  0  0  0  0
  2  1  1  1
  3  2  1  0
  4  3  1  0
  4  5  1  0
  6  5  1  0
  6  7  1  0
  8  9  2  0
  8  2  1  0
 10 11  1  0
 11 13  1  0
 12 11  2  0
 14 13  1  6
 14 15  1  0
 15  8  1  0
 16 23  1  0
 16 14  1  0
 17 16  2  0
 19 20  1  0
 19 18  1  0
 20 21  1  0
 22 21  1  1
 22 24  1  0
 22 23  1  0
 24 26  1  0
 25 24  2  0
M  END
$$$$
