KNM.pdb
     RDKit          3D

 26 25  0  0  1  0  0  0  0  0999 V2000
   25.9022  -21.0541  -16.1503 N   0  0  0  0  0  0  0  0  0  0  0  0
   25.1202  -22.2381  -16.3452 C   0  0  1  0  0  0  0  0  0  0  0  0
   25.9966  -23.4854  -16.3970 C   0  0  0  0  0  0  0  0  0  0  0  0
   27.3951  -23.1397  -16.7887 C   0  0  0  0  0  0  0  0  0  0  0  0
   28.2626  -24.3654  -16.9669 C   0  0  0  0  0  0  0  0  0  0  0  0
   29.6498  -23.9722  -17.4392 C   0  0  0  0  0  0  0  0  0  0  0  0
   30.6574  -24.5297  -16.5740 N   0  0  0  0  0  0  0  0  0  0  0  0
   24.1707  -22.4720  -15.2053 C   0  0  0  0  0  0  0  0  0  0  0  0
   23.5528  -23.5587  -15.1059 O   0  0  0  0  0  0  0  0  0  0  0  0
   25.2955  -22.5576  -11.5228 N   0  0  0  0  0  0  0  0  0  0  0  0
   24.8275  -21.1931  -11.2693 C   0  0  0  0  0  0  0  0  0  0  0  0
   25.5160  -20.5991  -10.4289 O   0  0  0  0  0  0  0  0  0  0  0  0
   23.6627  -20.7194  -12.0017 C   0  0  0  0  0  0  0  0  0  0  0  0
   23.1302  -21.6842  -13.0204 C   0  0  2  0  0  0  0  0  0  0  0  0
   23.9905  -21.4490  -14.2558 N   0  0  0  0  0  0  0  0  0  0  0  0
   21.7507  -21.4276  -13.4524 C   0  0  0  0  0  0  0  0  0  0  0  0
   21.4666  -20.2425  -13.9012 O   0  0  0  0  0  0  0  0  0  0  0  0
   16.9584  -25.7231  -14.7680 C   0  0  0  0  0  0  0  0  0  0  0  0
   15.9856  -24.2233  -14.4592 S   0  0  0  0  0  0  0  0  0  0  0  0
   17.0410  -22.7701  -14.2942 C   0  0  0  0  0  0  0  0  0  0  0  0
   18.4684  -23.1252  -13.9279 C   0  0  0  0  0  0  0  0  0  0  0  0
   19.3101  -21.8858  -13.8043 C   0  0  2  0  0  0  0  0  0  0  0  0
   20.6765  -22.3337  -13.4450 N   0  0  0  0  0  0  0  0  0  0  0  0
   18.7921  -21.0667  -12.6969 C   0  0  0  0  0  0  0  0  0  0  0  0
   19.1047  -21.4199  -11.5292 O   0  0  0  0  0  0  0  0  0  0  0  0
   17.9951  -19.9507  -12.8597 O   0  0  0  0  0  0  0  0  0  0  0  0
  2  1  1  1
  3  2  1  0
  4  3  1  0
  4  5  1  0
  6  5  1  0
  6  7  1  0
  8  9  2  0
  8  2  1  0
 10 11  1  0
 11 13  1  0
 12 11  2  0
 14 13  1  1
 14 15  1  0
 15  8  1  0
 16 23  1  0
 16 14  1  0
 17 16  2  0
 19 20  1  0
 19 18  1  0
 20 21  1  0
 22 21  1  1
 22 24  1  0
 22 23  1  0
 24 26  1  0
 25 24  2  0
M  END
$$$$
