KNM.pdb
     RDKit          3D

 26 25  0  0  1  0  0  0  0  0999 V2000
   22.1856  -17.3393  -17.7160 N   0  0  0  0  0  0  0  0  0  0  0  0
   21.7556  -18.7050  -17.7555 C   0  0  1  0  0  0  0  0  0  0  0  0
   21.2952  -19.1064  -19.1532 C   0  0  0  0  0  0  0  0  0  0  0  0
   20.0803  -18.3384  -19.5566 C   0  0  0  0  0  0  0  0  0  0  0  0
   18.8394  -18.7983  -18.8250 C   0  0  0  0  0  0  0  0  0  0  0  0
   17.6230  -18.0270  -19.3022 C   0  0  0  0  0  0  0  0  0  0  0  0
   16.4300  -18.5105  -18.6560 N   0  0  0  0  0  0  0  0  0  0  0  0
   22.8741  -19.6506  -17.4235 C   0  0  0  0  0  0  0  0  0  0  0  0
   22.6350  -20.8579  -17.1828 O   0  0  0  0  0  0  0  0  0  0  0  0
   25.2199  -21.5755  -19.3352 N   0  0  0  0  0  0  0  0  0  0  0  0
   26.3593  -20.6654  -19.1993 C   0  0  0  0  0  0  0  0  0  0  0  0
   27.1687  -20.7690  -20.1307 O   0  0  0  0  0  0  0  0  0  0  0  0
   26.4028  -19.7877  -18.0394 C   0  0  0  0  0  0  0  0  0  0  0  0
   25.3502  -20.0650  -17.0062 C   0  0  2  0  0  0  0  0  0  0  0  0
   24.1904  -19.1538  -17.3883 N   0  0  0  0  0  0  0  0  0  0  0  0
   25.7125  -19.6800  -15.6365 C   0  0  0  0  0  0  0  0  0  0  0  0
   25.8159  -18.4132  -15.3702 O   0  0  0  0  0  0  0  0  0  0  0  0
   23.8911  -21.3903   -9.8805 C   0  0  0  0  0  0  0  0  0  0  0  0
   25.5427  -20.8003   -9.4170 S   0  0  0  0  0  0  0  0  0  0  0  0
   26.4435  -20.1614  -10.8429 C   0  0  0  0  0  0  0  0  0  0  0  0
   25.8305  -20.5928  -12.1604 C   0  0  0  0  0  0  0  0  0  0  0  0
   26.6044  -20.0265  -13.3181 C   0  0  2  0  0  0  0  0  0  0  0  0
   25.9601  -20.5378  -14.5511 N   0  0  0  0  0  0  0  0  0  0  0  0
   27.9799  -20.5476  -13.2720 C   0  0  0  0  0  0  0  0  0  0  0  0
   28.2095  -21.6132  -13.9028 O   0  0  0  0  0  0  0  0  0  0  0  0
   29.0182  -19.9467  -12.5880 O   0  0  0  0  0  0  0  0  0  0  0  0
  2  1  1  6
  3  2  1  0
  4  3  1  0
  4  5  1  0
  6  5  1  0
  6  7  1  0
  8  9  2  0
  8  2  1  0
 10 11  1  0
 11 13  1  0
 12 11  2  0
 14 13  1  6
 14 15  1  0
 15  8  1  0
 16 23  1  0
 16 14  1  0
 17 16  2  0
 19 20  1  0
 19 18  1  0
 20 21  1  0
 22 21  1  1
 22 24  1  0
 22 23  1  0
 24 26  1  0
 25 24  2  0
M  END
$$$$
