KNM.pdb
     RDKit          3D

 26 25  0  0  1  0  0  0  0  0999 V2000
   25.0842  -25.3576  -15.6443 N   0  0  0  0  0  0  0  0  0  0  0  0
   23.7642  -25.2143  -16.1814 C   0  0  1  0  0  0  0  0  0  0  0  0
   23.1244  -26.5700  -16.4631 C   0  0  0  0  0  0  0  0  0  0  0  0
   23.8811  -27.3093  -17.5163 C   0  0  0  0  0  0  0  0  0  0  0  0
   24.8608  -28.3018  -16.9315 C   0  0  0  0  0  0  0  0  0  0  0  0
   25.5929  -29.0413  -18.0358 C   0  0  0  0  0  0  0  0  0  0  0  0
   26.6409  -29.8634  -17.4875 N   0  0  0  0  0  0  0  0  0  0  0  0
   22.8391  -24.5369  -15.2115 C   0  0  0  0  0  0  0  0  0  0  0  0
   22.3629  -25.1704  -14.2396 O   0  0  0  0  0  0  0  0  0  0  0  0
   20.2467  -20.6782  -12.7983 N   0  0  0  0  0  0  0  0  0  0  0  0
   21.4300  -20.1618  -13.4897 C   0  0  0  0  0  0  0  0  0  0  0  0
   21.6799  -18.9848  -13.1973 O   0  0  0  0  0  0  0  0  0  0  0  0
   22.1390  -21.0523  -14.3964 C   0  0  0  0  0  0  0  0  0  0  0  0
   21.5963  -22.4505  -14.4502 C   0  0  2  0  0  0  0  0  0  0  0  0
   22.5198  -23.1817  -15.4168 N   0  0  0  0  0  0  0  0  0  0  0  0
   20.2529  -22.5698  -15.0303 C   0  0  0  0  0  0  0  0  0  0  0  0
   20.1063  -22.2727  -16.2860 O   0  0  0  0  0  0  0  0  0  0  0  0
   14.6473  -24.7020  -12.1492 C   0  0  0  0  0  0  0  0  0  0  0  0
   14.2380  -24.6960  -13.9165 S   0  0  0  0  0  0  0  0  0  0  0  0
   15.4314  -23.7379  -14.8708 C   0  0  0  0  0  0  0  0  0  0  0  0
   16.7958  -23.6851  -14.2127 C   0  0  0  0  0  0  0  0  0  0  0  0
   17.7705  -22.9254  -15.0687 C   0  0  2  0  0  0  0  0  0  0  0  0
   19.0797  -22.9833  -14.3763 N   0  0  0  0  0  0  0  0  0  0  0  0
   17.3501  -21.5166  -15.1335 C   0  0  0  0  0  0  0  0  0  0  0  0
   17.6147  -20.7942  -14.1364 O   0  0  0  0  0  0  0  0  0  0  0  0
   16.6923  -20.9483  -16.2065 O   0  0  0  0  0  0  0  0  0  0  0  0
  2  1  1  1
  3  2  1  0
  4  3  1  0
  4  5  1  0
  6  5  1  0
  6  7  1  0
  8  9  2  0
  8  2  1  0
 10 11  1  0
 11 13  1  0
 12 11  2  0
 14 13  1  6
 14 15  1  0
 15  8  1  0
 16 23  1  0
 16 14  1  0
 17 16  2  0
 19 20  1  0
 19 18  1  0
 20 21  1  0
 22 21  1  1
 22 24  1  0
 22 23  1  0
 24 26  1  0
 25 24  2  0
M  END
$$$$
