KNM.pdb
     RDKit          3D

 26 25  0  0  1  0  0  0  0  0999 V2000
   26.9728  -20.0179  -15.5591 N   0  0  0  0  0  0  0  0  0  0  0  0
   27.6232  -19.4851  -14.3995 C   0  0  1  0  0  0  0  0  0  0  0  0
   28.2024  -18.1002  -14.6696 C   0  0  0  0  0  0  0  0  0  0  0  0
   28.6941  -17.9915  -16.0749 C   0  0  0  0  0  0  0  0  0  0  0  0
   27.5828  -17.6757  -17.0506 C   0  0  0  0  0  0  0  0  0  0  0  0
   28.1365  -17.5111  -18.4536 C   0  0  0  0  0  0  0  0  0  0  0  0
   27.0678  -17.3409  -19.4042 N   0  0  0  0  0  0  0  0  0  0  0  0
   26.6626  -19.2942  -13.2609 C   0  0  0  0  0  0  0  0  0  0  0  0
   26.0380  -18.2147  -13.1309 O   0  0  0  0  0  0  0  0  0  0  0  0
   22.7312  -20.9960  -13.9499 N   0  0  0  0  0  0  0  0  0  0  0  0
   23.3079  -20.3567  -12.7651 C   0  0  0  0  0  0  0  0  0  0  0  0
   22.8987  -19.2000  -12.5981 O   0  0  0  0  0  0  0  0  0  0  0  0
   24.2498  -21.1216  -11.9618 C   0  0  0  0  0  0  0  0  0  0  0  0
   25.3425  -20.3062  -11.3347 C   0  0  2  0  0  0  0  0  0  0  0  0
   26.4803  -20.3490  -12.3471 N   0  0  0  0  0  0  0  0  0  0  0  0
   25.9005  -20.8679  -10.0983 C   0  0  0  0  0  0  0  0  0  0  0  0
   26.0198  -22.1586  -10.0188 O   0  0  0  0  0  0  0  0  0  0  0  0
   29.9268  -18.7386   -4.9643 C   0  0  0  0  0  0  0  0  0  0  0  0
   28.3465  -19.3223   -4.2913 S   0  0  0  0  0  0  0  0  0  0  0  0
   27.5291  -20.4698   -5.4174 C   0  0  0  0  0  0  0  0  0  0  0  0
   27.3059  -19.8758   -6.7940 C   0  0  0  0  0  0  0  0  0  0  0  0
   26.6393  -20.8717   -7.7015 C   0  0  2  0  0  0  0  0  0  0  0  0
   26.3380  -20.1596   -8.9660 N   0  0  0  0  0  0  0  0  0  0  0  0
   25.3638  -21.2879   -7.0969 C   0  0  0  0  0  0  0  0  0  0  0  0
   24.3216  -20.7112   -7.5059 O   0  0  0  0  0  0  0  0  0  0  0  0
   25.2438  -22.2585   -6.1219 O   0  0  0  0  0  0  0  0  0  0  0  0
  2  1  1  6
  3  2  1  0
  4  3  1  0
  4  5  1  0
  6  5  1  0
  6  7  1  0
  8  9  2  0
  8  2  1  0
 10 11  1  0
 11 13  1  0
 12 11  2  0
 14 13  1  6
 14 15  1  0
 15  8  1  0
 16 23  1  0
 16 14  1  0
 17 16  2  0
 19 20  1  0
 19 18  1  0
 20 21  1  0
 22 21  1  1
 22 24  1  0
 22 23  1  0
 24 26  1  0
 25 24  2  0
M  END
$$$$
