KNM.pdb
     RDKit          3D

 26 25  0  0  1  0  0  0  0  0999 V2000
   22.5909  -20.4549  -17.0497 N   0  0  0  0  0  0  0  0  0  0  0  0
   22.5677  -20.2726  -15.6292 C   0  0  1  0  0  0  0  0  0  0  0  0
   21.4071  -21.0259  -14.9873 C   0  0  0  0  0  0  0  0  0  0  0  0
   20.0963  -20.4672  -15.4325 C   0  0  0  0  0  0  0  0  0  0  0  0
   18.9222  -21.1779  -14.7974 C   0  0  0  0  0  0  0  0  0  0  0  0
   17.6190  -20.5038  -15.1840 C   0  0  0  0  0  0  0  0  0  0  0  0
   16.4973  -21.2006  -14.6088 N   0  0  0  0  0  0  0  0  0  0  0  0
   23.8030  -20.8243  -14.9771 C   0  0  0  0  0  0  0  0  0  0  0  0
   24.0657  -22.0485  -15.0473 O   0  0  0  0  0  0  0  0  0  0  0  0
   28.5991  -21.0786  -13.2151 N   0  0  0  0  0  0  0  0  0  0  0  0
   28.2959  -19.6913  -13.5735 C   0  0  0  0  0  0  0  0  0  0  0  0
   29.3118  -18.9914  -13.6807 O   0  0  0  0  0  0  0  0  0  0  0  0
   26.9011  -19.3174  -13.7529 C   0  0  0  0  0  0  0  0  0  0  0  0
   25.9286  -20.4534  -13.6274 C   0  0  2  0  0  0  0  0  0  0  0  0
   24.6550  -19.9408  -14.2883 N   0  0  0  0  0  0  0  0  0  0  0  0
   25.5446  -20.7886  -12.2506 C   0  0  0  0  0  0  0  0  0  0  0  0
   24.3341  -20.5079  -11.8735 O   0  0  0  0  0  0  0  0  0  0  0  0
   28.0906  -18.6345   -6.7667 C   0  0  0  0  0  0  0  0  0  0  0  0
   27.7497  -20.3808   -6.4128 S   0  0  0  0  0  0  0  0  0  0  0  0
   26.5047  -21.0537   -7.5309 C   0  0  0  0  0  0  0  0  0  0  0  0
   26.9337  -20.9951   -8.9835 C   0  0  0  0  0  0  0  0  0  0  0  0
   25.8568  -21.5418   -9.8787 C   0  0  2  0  0  0  0  0  0  0  0  0
   26.3465  -21.3976  -11.2702 N   0  0  0  0  0  0  0  0  0  0  0  0
   24.6492  -20.7136   -9.7317 C   0  0  0  0  0  0  0  0  0  0  0  0
   24.6852  -19.5565  -10.2274 O   0  0  0  0  0  0  0  0  0  0  0  0
   23.4963  -21.1238   -9.0916 O   0  0  0  0  0  0  0  0  0  0  0  0
  2  1  1  6
  3  2  1  0
  4  3  1  0
  4  5  1  0
  6  5  1  0
  6  7  1  0
  8  9  2  0
  8  2  1  0
 10 11  1  0
 11 13  1  0
 12 11  2  0
 14 13  1  1
 14 15  1  0
 15  8  1  0
 16 23  1  0
 16 14  1  0
 17 16  2  0
 19 20  1  0
 19 18  1  0
 20 21  1  0
 22 21  1  1
 22 24  1  0
 22 23  1  0
 24 26  1  0
 25 24  2  0
M  END
$$$$
