KNM.pdb
     RDKit          3D

 26 25  0  0  1  0  0  0  0  0999 V2000
   22.4966  -25.2611  -16.6888 N   0  0  0  0  0  0  0  0  0  0  0  0
   21.5879  -24.1745  -16.9009 C   0  0  1  0  0  0  0  0  0  0  0  0
   20.3958  -24.2486  -15.9522 C   0  0  0  0  0  0  0  0  0  0  0  0
   20.8200  -24.7063  -14.5961 C   0  0  0  0  0  0  0  0  0  0  0  0
   20.0359  -25.9100  -14.1236 C   0  0  0  0  0  0  0  0  0  0  0  0
   20.9333  -26.8622  -13.3553 C   0  0  0  0  0  0  0  0  0  0  0  0
   21.5178  -27.8352  -14.2421 N   0  0  0  0  0  0  0  0  0  0  0  0
   22.2320  -22.8472  -16.6197 C   0  0  0  0  0  0  0  0  0  0  0  0
   21.6080  -21.7805  -16.8323 O   0  0  0  0  0  0  0  0  0  0  0  0
   22.5858  -22.3772  -12.6341 N   0  0  0  0  0  0  0  0  0  0  0  0
   23.2396  -21.3123  -13.3981 C   0  0  0  0  0  0  0  0  0  0  0  0
   22.6962  -20.2102  -13.2450 O   0  0  0  0  0  0  0  0  0  0  0  0
   24.3968  -21.6599  -14.2090 C   0  0  0  0  0  0  0  0  0  0  0  0
   24.1898  -21.5143  -15.6882 C   0  0  2  0  0  0  0  0  0  0  0  0
   23.5456  -22.8276  -16.1149 N   0  0  0  0  0  0  0  0  0  0  0  0
   25.4235  -21.4117  -16.4775 C   0  0  0  0  0  0  0  0  0  0  0  0
   26.2516  -22.4113  -16.4406 O   0  0  0  0  0  0  0  0  0  0  0  0
   25.7328  -17.6161  -21.3990 C   0  0  0  0  0  0  0  0  0  0  0  0
   25.1649  -19.3307  -21.5675 S   0  0  0  0  0  0  0  0  0  0  0  0
   25.8485  -20.3863  -20.2747 C   0  0  0  0  0  0  0  0  0  0  0  0
   26.8065  -19.6451  -19.3633 C   0  0  0  0  0  0  0  0  0  0  0  0
   27.0587  -20.4293  -18.1058 C   0  0  2  0  0  0  0  0  0  0  0  0
   25.8224  -20.3390  -17.2932 N   0  0  0  0  0  0  0  0  0  0  0  0
   28.1476  -19.7858  -17.3535 C   0  0  0  0  0  0  0  0  0  0  0  0
   27.8489  -18.7708  -16.6704 O   0  0  0  0  0  0  0  0  0  0  0  0
   29.4578  -20.2221  -17.3525 O   0  0  0  0  0  0  0  0  0  0  0  0
  2  1  1  1
  3  2  1  0
  4  3  1  0
  4  5  1  0
  6  5  1  0
  6  7  1  0
  8  9  2  0
  8  2  1  0
 10 11  1  0
 11 13  1  0
 12 11  2  0
 14 13  1  1
 14 15  1  0
 15  8  1  0
 16 23  1  0
 16 14  1  0
 17 16  2  0
 19 20  1  0
 19 18  1  0
 20 21  1  0
 22 21  1  6
 22 24  1  0
 22 23  1  0
 24 26  1  0
 25 24  2  0
M  END
$$$$
