KNM.pdb
     RDKit          3D

 26 25  0  0  1  0  0  0  0  0999 V2000
   23.6769  -23.0288  -14.3351 N   0  0  0  0  0  0  0  0  0  0  0  0
   24.0877  -21.6927  -14.0228 C   0  0  1  0  0  0  0  0  0  0  0  0
   25.3706  -21.3157  -14.7566 C   0  0  0  0  0  0  0  0  0  0  0  0
   26.0577  -22.5293  -15.2891 C   0  0  0  0  0  0  0  0  0  0  0  0
   27.2857  -22.1853  -16.1018 C   0  0  0  0  0  0  0  0  0  0  0  0
   27.8616  -23.4306  -16.7497 C   0  0  0  0  0  0  0  0  0  0  0  0
   28.9580  -23.0893  -17.6193 N   0  0  0  0  0  0  0  0  0  0  0  0
   23.0702  -20.6800  -14.4643 C   0  0  0  0  0  0  0  0  0  0  0  0
   23.2047  -19.4706  -14.1613 O   0  0  0  0  0  0  0  0  0  0  0  0
   23.3191  -18.9923  -17.9609 N   0  0  0  0  0  0  0  0  0  0  0  0
   22.1915  -18.7116  -17.0695 C   0  0  0  0  0  0  0  0  0  0  0  0
   22.2928  -17.6171  -16.4992 O   0  0  0  0  0  0  0  0  0  0  0  0
   21.1346  -19.7063  -16.9647 C   0  0  0  0  0  0  0  0  0  0  0  0
   20.8359  -20.1556  -15.5643 C   0  0  2  0  0  0  0  0  0  0  0  0
   21.9675  -21.1168  -15.2219 N   0  0  0  0  0  0  0  0  0  0  0  0
   19.6026  -20.9382  -15.4165 C   0  0  0  0  0  0  0  0  0  0  0  0
   18.6845  -20.8001  -16.3244 O   0  0  0  0  0  0  0  0  0  0  0  0
   15.8851  -27.5979  -14.7843 C   0  0  0  0  0  0  0  0  0  0  0  0
   17.3459  -26.6156  -14.3461 S   0  0  0  0  0  0  0  0  0  0  0  0
   17.0330  -24.8478  -14.5185 C   0  0  0  0  0  0  0  0  0  0  0  0
   18.3067  -24.0262  -14.5003 C   0  0  0  0  0  0  0  0  0  0  0  0
   17.9929  -22.5607  -14.3834 C   0  0  2  0  0  0  0  0  0  0  0  0
   19.2913  -21.8459  -14.3896 N   0  0  0  0  0  0  0  0  0  0  0  0
   17.3426  -22.3148  -13.0864 C   0  0  0  0  0  0  0  0  0  0  0  0
   18.0846  -21.9608  -12.1323 O   0  0  0  0  0  0  0  0  0  0  0  0
   15.9874  -22.4477  -12.8566 O   0  0  0  0  0  0  0  0  0  0  0  0
  2  1  1  6
  3  2  1  0
  4  3  1  0
  4  5  1  0
  6  5  1  0
  6  7  1  0
  8  9  2  0
  8  2  1  0
 10 11  1  0
 11 13  1  0
 12 11  2  0
 14 13  1  6
 14 15  1  0
 15  8  1  0
 16 23  1  0
 16 14  1  0
 17 16  2  0
 19 20  1  0
 19 18  1  0
 20 21  1  0
 22 21  1  1
 22 24  1  0
 22 23  1  0
 24 26  1  0
 25 24  2  0
M  END
$$$$
