MMG.pdb
     RDKit          3D

 21 20  0  0  1  0  0  0  0  0999 V2000
    8.4590  -11.5695   19.3793 C   0  0  0  0  0  0  0  0  0  0  0  0
    7.3507  -12.8657   18.7396 S   0  0  0  0  0  0  0  0  0  0  0  0
    7.3662  -14.2254   19.9441 C   0  0  0  0  0  0  0  0  0  0  0  0
    8.6150  -15.0483   19.6614 C   0  0  0  0  0  0  0  0  0  0  0  0
    8.6609  -16.1398   20.7188 C   0  0  2  0  0  0  0  0  0  0  0  0
    7.3567  -16.7699   20.7761 N   0  0  0  0  0  0  0  0  0  0  0  0
    9.0145  -15.5733   22.0486 C   0  0  0  0  0  0  0  0  0  0  0  0
   10.1470  -15.0438   22.1695 O   0  0  0  0  0  0  0  0  0  0  0  0
    6.5467  -11.6253   28.1474 C   0  0  0  0  0  0  0  0  0  0  0  0
    6.0578  -12.7796   26.8211 S   0  0  0  0  0  0  0  0  0  0  0  0
    7.5463  -13.5943   26.2300 C   0  0  0  0  0  0  0  0  0  0  0  0
    7.1887  -14.4504   25.0326 C   0  0  0  0  0  0  0  0  0  0  0  0
    8.4700  -15.0296   24.4524 C   0  0  2  0  0  0  0  0  0  0  0  0
    8.1596  -15.5976   23.1653 N   0  0  0  0  0  0  0  0  0  0  0  0
    8.8839  -16.1315   25.3512 C   0  0  0  0  0  0  0  0  0  0  0  0
    7.9872  -16.8351   25.8753 O   0  0  0  0  0  0  0  0  0  0  0  0
   10.2351  -16.4204   25.6398 N   0  0  0  0  0  0  0  0  0  0  0  0
   10.6350  -16.5237   27.0239 C   0  0  0  0  0  0  0  0  0  0  0  0
   10.4341  -17.9392   27.4745 C   0  0  0  0  0  0  0  0  0  0  0  0
   11.1285  -18.4280   28.5769 O   0  0  0  0  0  0  0  0  0  0  0  0
    9.6490  -18.7276   26.8901 O   0  0  0  0  0  0  0  0  0  0  0  0
  2  3  1  0
  2  1  1  0
  3  4  1  0
  4  5  1  0
  5  7  1  0
  5  6  1  1
  7  8  2  0
  9 10  1  0
 10 11  1  0
 11 12  1  0
 13 12  1  1
 13 15  1  0
 14  7  1  0
 14 13  1  0
 15 16  2  0
 17 15  1  0
 17 18  1  0
 19 18  1  0
 19 20  1  0
 21 19  2  0
M  END
$$$$
