MMG.pdb
     RDKit          3D

 21 20  0  0  1  0  0  0  0  0999 V2000
    3.1040  -26.3282   39.5352 C   0  0  0  0  0  0  0  0  0  0  0  0
    3.7625  -27.4585   38.2677 S   0  0  0  0  0  0  0  0  0  0  0  0
    2.8450  -27.1350   36.7337 C   0  0  0  0  0  0  0  0  0  0  0  0
    1.3791  -26.9974   37.1193 C   0  0  0  0  0  0  0  0  0  0  0  0
    0.6168  -26.7335   35.8305 C   0  0  2  0  0  0  0  0  0  0  0  0
    1.3569  -25.7546   35.0591 N   0  0  0  0  0  0  0  0  0  0  0  0
   -0.7524  -26.2280   36.1201 C   0  0  0  0  0  0  0  0  0  0  0  0
   -1.5037  -26.9569   36.8143 O   0  0  0  0  0  0  0  0  0  0  0  0
   -5.8438  -22.6332   38.9081 C   0  0  0  0  0  0  0  0  0  0  0  0
   -4.1474  -23.1364   38.4612 S   0  0  0  0  0  0  0  0  0  0  0  0
   -3.8307  -22.5634   36.7878 C   0  0  0  0  0  0  0  0  0  0  0  0
   -2.4600  -23.0460   36.3603 C   0  0  0  0  0  0  0  0  0  0  0  0
   -2.5756  -24.4949   35.9121 C   0  0  2  0  0  0  0  0  0  0  0  0
   -1.2464  -24.9923   35.6644 N   0  0  0  0  0  0  0  0  0  0  0  0
   -3.3078  -24.4850   34.6248 C   0  0  0  0  0  0  0  0  0  0  0  0
   -2.7062  -24.0682   33.6059 O   0  0  0  0  0  0  0  0  0  0  0  0
   -4.6441  -24.9220   34.4982 N   0  0  0  0  0  0  0  0  0  0  0  0
   -5.2552  -24.8932   33.1897 C   0  0  0  0  0  0  0  0  0  0  0  0
   -6.6995  -25.2693   33.3289 C   0  0  0  0  0  0  0  0  0  0  0  0
   -7.6930  -24.3134   33.1401 O   0  0  0  0  0  0  0  0  0  0  0  0
   -7.0675  -26.4363   33.6159 O   0  0  0  0  0  0  0  0  0  0  0  0
  2  3  1  0
  2  1  1  0
  3  4  1  0
  4  5  1  0
  5  7  1  0
  5  6  1  6
  7  8  2  0
  9 10  1  0
 10 11  1  0
 11 12  1  0
 13 12  1  6
 13 15  1  0
 14  7  1  0
 14 13  1  0
 15 16  2  0
 17 15  1  0
 17 18  1  0
 19 18  1  0
 19 20  1  0
 21 19  2  0
M  END
$$$$
