MMG.pdb
     RDKit          3D

 21 20  0  0  1  0  0  0  0  0999 V2000
    8.3269  -22.4655   23.1782 C   0  0  0  0  0  0  0  0  0  0  0  0
    6.7567  -22.6364   24.0853 S   0  0  0  0  0  0  0  0  0  0  0  0
    5.7159  -21.2205   23.6247 C   0  0  0  0  0  0  0  0  0  0  0  0
    6.4178  -19.9729   24.1417 C   0  0  0  0  0  0  0  0  0  0  0  0
    5.5406  -18.7928   23.7550 C   0  0  2  0  0  0  0  0  0  0  0  0
    5.0653  -19.0061   22.4023 N   0  0  0  0  0  0  0  0  0  0  0  0
    6.3040  -17.5181   23.8343 C   0  0  0  0  0  0  0  0  0  0  0  0
    6.8757  -17.1198   22.7892 O   0  0  0  0  0  0  0  0  0  0  0  0
    7.4065  -10.6442   26.4016 C   0  0  0  0  0  0  0  0  0  0  0  0
    6.7717  -12.2022   25.6942 S   0  0  0  0  0  0  0  0  0  0  0  0
    7.5953  -13.5596   26.5356 C   0  0  0  0  0  0  0  0  0  0  0  0
    6.7544  -14.8097   26.3795 C   0  0  0  0  0  0  0  0  0  0  0  0
    7.1909  -15.5312   25.1136 C   0  0  2  0  0  0  0  0  0  0  0  0
    6.4194  -16.7428   25.0023 N   0  0  0  0  0  0  0  0  0  0  0  0
    8.6100  -15.9084   25.3067 C   0  0  0  0  0  0  0  0  0  0  0  0
    8.9823  -16.2383   26.4584 O   0  0  0  0  0  0  0  0  0  0  0  0
    9.5532  -15.9121   24.2565 N   0  0  0  0  0  0  0  0  0  0  0  0
   10.9523  -16.0441   24.5903 C   0  0  0  0  0  0  0  0  0  0  0  0
   11.7478  -16.0498   23.3198 C   0  0  0  0  0  0  0  0  0  0  0  0
   11.0998  -16.0571   22.0884 O   0  0  0  0  0  0  0  0  0  0  0  0
   13.0046  -16.0487   23.3114 O   0  0  0  0  0  0  0  0  0  0  0  0
  2  3  1  0
  2  1  1  0
  3  4  1  0
  4  5  1  0
  5  7  1  0
  5  6  1  6
  7  8  2  0
  9 10  1  0
 10 11  1  0
 11 12  1  0
 13 12  1  1
 13 15  1  0
 14  7  1  0
 14 13  1  0
 15 16  2  0
 17 15  1  0
 17 18  1  0
 19 18  1  0
 19 20  1  0
 21 19  2  0
M  END
$$$$
