MMG.pdb
     RDKit          3D

 21 20  0  0  1  0  0  0  0  0999 V2000
    6.6610  -11.5667   26.2995 C   0  0  0  0  0  0  0  0  0  0  0  0
    7.0778  -12.6721   27.6859 S   0  0  0  0  0  0  0  0  0  0  0  0
    6.5809  -14.3505   27.2001 C   0  0  0  0  0  0  0  0  0  0  0  0
    7.6058  -14.8353   26.1846 C   0  0  0  0  0  0  0  0  0  0  0  0
    6.8958  -15.8546   25.3080 C   0  0  2  0  0  0  0  0  0  0  0  0
    6.6425  -17.0387   26.1048 N   0  0  0  0  0  0  0  0  0  0  0  0
    7.7261  -16.2029   24.1233 C   0  0  0  0  0  0  0  0  0  0  0  0
    8.2983  -17.3210   24.1260 O   0  0  0  0  0  0  0  0  0  0  0  0
    8.3465  -11.7631   19.7919 C   0  0  0  0  0  0  0  0  0  0  0  0
    6.9856  -12.9046   19.3726 S   0  0  0  0  0  0  0  0  0  0  0  0
    7.0861  -14.3081   20.4900 C   0  0  0  0  0  0  0  0  0  0  0  0
    8.5390  -14.5380   20.8518 C   0  0  0  0  0  0  0  0  0  0  0  0
    8.6176  -15.7142   21.8131 C   0  0  2  0  0  0  0  0  0  0  0  0
    7.9035  -15.3582   23.0126 N   0  0  0  0  0  0  0  0  0  0  0  0
   10.0467  -15.8820   22.1641 C   0  0  0  0  0  0  0  0  0  0  0  0
   10.6252  -14.9377   22.7537 O   0  0  0  0  0  0  0  0  0  0  0  0
   10.7785  -17.0514   21.8651 N   0  0  0  0  0  0  0  0  0  0  0  0
   12.1867  -17.0812   22.1853 C   0  0  0  0  0  0  0  0  0  0  0  0
   12.9459  -17.4962   20.9613 C   0  0  0  0  0  0  0  0  0  0  0  0
   13.8675  -18.5366   21.0286 O   0  0  0  0  0  0  0  0  0  0  0  0
   12.7876  -16.9357   19.8476 O   0  0  0  0  0  0  0  0  0  0  0  0
  2  3  1  0
  2  1  1  0
  3  4  1  0
  4  5  1  0
  5  7  1  0
  5  6  1  1
  7  8  2  0
  9 10  1  0
 10 11  1  0
 11 12  1  0
 13 12  1  6
 13 15  1  0
 14  7  1  0
 14 13  1  0
 15 16  2  0
 17 15  1  0
 17 18  1  0
 19 18  1  0
 19 20  1  0
 21 19  2  0
M  END
$$$$
