MMG.pdb
     RDKit          3D

 21 20  0  0  1  0  0  0  0  0999 V2000
    7.6032  -11.6734   19.2766 C   0  0  0  0  0  0  0  0  0  0  0  0
    7.5137  -13.0478   18.0847 S   0  0  0  0  0  0  0  0  0  0  0  0
    7.7380  -14.5863   19.0242 C   0  0  0  0  0  0  0  0  0  0  0  0
    8.4888  -14.2187   20.2961 C   0  0  0  0  0  0  0  0  0  0  0  0
    8.6832  -15.5120   21.0714 C   0  0  2  0  0  0  0  0  0  0  0  0
    7.4457  -16.2646   21.0143 N   0  0  0  0  0  0  0  0  0  0  0  0
    9.0464  -15.2306   22.4867 C   0  0  0  0  0  0  0  0  0  0  0  0
   10.1300  -14.6318   22.6982 O   0  0  0  0  0  0  0  0  0  0  0  0
    6.3775  -10.8670   26.2346 C   0  0  0  0  0  0  0  0  0  0  0  0
    6.9241  -12.5355   26.7327 S   0  0  0  0  0  0  0  0  0  0  0  0
    6.7808  -13.6081   25.2984 C   0  0  0  0  0  0  0  0  0  0  0  0
    7.2475  -14.9972   25.6819 C   0  0  0  0  0  0  0  0  0  0  0  0
    8.5565  -15.2835   24.9622 C   0  0  2  0  0  0  0  0  0  0  0  0
    8.2516  -15.5942   23.5889 N   0  0  0  0  0  0  0  0  0  0  0  0
    9.1304  -16.4963   25.5893 C   0  0  0  0  0  0  0  0  0  0  0  0
    8.3399  -17.3793   26.0007 O   0  0  0  0  0  0  0  0  0  0  0  0
   10.5192  -16.6980   25.7414 N   0  0  0  0  0  0  0  0  0  0  0  0
   10.9696  -17.8880   26.4251 C   0  0  0  0  0  0  0  0  0  0  0  0
   12.0477  -18.5304   25.6053 C   0  0  0  0  0  0  0  0  0  0  0  0
   12.7332  -19.6380   26.0950 O   0  0  0  0  0  0  0  0  0  0  0  0
   12.3722  -18.1066   24.4675 O   0  0  0  0  0  0  0  0  0  0  0  0
  2  3  1  0
  2  1  1  0
  3  4  1  0
  4  5  1  0
  5  7  1  0
  5  6  1  1
  7  8  2  0
  9 10  1  0
 10 11  1  0
 11 12  1  0
 13 12  1  1
 13 15  1  0
 14  7  1  0
 14 13  1  0
 15 16  2  0
 17 15  1  0
 17 18  1  0
 19 18  1  0
 19 20  1  0
 21 19  2  0
M  END
$$$$
