MMG.pdb
     RDKit          3D

 21 20  0  0  1  0  0  0  0  0999 V2000
    8.3526  -11.7038   19.2801 C   0  0  0  0  0  0  0  0  0  0  0  0
    7.5254  -13.1241   18.4953 S   0  0  0  0  0  0  0  0  0  0  0  0
    7.6475  -14.5201   19.6511 C   0  0  0  0  0  0  0  0  0  0  0  0
    9.1043  -14.6065   20.0831 C   0  0  0  0  0  0  0  0  0  0  0  0
    9.1874  -15.7364   21.0971 C   0  0  2  0  0  0  0  0  0  0  0  0
    8.0357  -16.5968   20.9116 N   0  0  0  0  0  0  0  0  0  0  0  0
    9.2077  -15.2007   22.4852 C   0  0  0  0  0  0  0  0  0  0  0  0
   10.1934  -14.4979   22.8201 O   0  0  0  0  0  0  0  0  0  0  0  0
    7.1359  -11.2826   27.7816 C   0  0  0  0  0  0  0  0  0  0  0  0
    7.3186  -12.1764   26.2010 S   0  0  0  0  0  0  0  0  0  0  0  0
    6.6893  -13.8424   26.4397 C   0  0  0  0  0  0  0  0  0  0  0  0
    6.7188  -14.5680   25.1104 C   0  0  0  0  0  0  0  0  0  0  0  0
    8.1661  -14.8801   24.7618 C   0  0  2  0  0  0  0  0  0  0  0  0
    8.1949  -15.4351   23.4327 N   0  0  0  0  0  0  0  0  0  0  0  0
    8.6144  -15.9295   25.7059 C   0  0  0  0  0  0  0  0  0  0  0  0
    7.8308  -16.8782   25.9504 O   0  0  0  0  0  0  0  0  0  0  0  0
    9.8770  -15.9062   26.3366 N   0  0  0  0  0  0  0  0  0  0  0  0
   10.1670  -16.9136   27.3303 C   0  0  0  0  0  0  0  0  0  0  0  0
   10.8639  -18.0589   26.6599 C   0  0  0  0  0  0  0  0  0  0  0  0
   12.0054  -17.8335   25.8966 O   0  0  0  0  0  0  0  0  0  0  0  0
   10.4573  -19.2443   26.7552 O   0  0  0  0  0  0  0  0  0  0  0  0
  2  3  1  0
  2  1  1  0
  3  4  1  0
  4  5  1  0
  5  7  1  0
  5  6  1  1
  7  8  2  0
  9 10  1  0
 10 11  1  0
 11 12  1  0
 13 12  1  1
 13 15  1  0
 14  7  1  0
 14 13  1  0
 15 16  2  0
 17 15  1  0
 17 18  1  0
 19 18  1  0
 19 20  1  0
 21 19  2  0
M  END
$$$$
