MMG.pdb
     RDKit          3D

 21 20  0  0  1  0  0  0  0  0999 V2000
    8.0101  -18.8316   20.3496 C   0  0  0  0  0  0  0  0  0  0  0  0
    6.9797  -18.4573   18.8950 S   0  0  0  0  0  0  0  0  0  0  0  0
    7.2071  -16.6950   18.5174 C   0  0  0  0  0  0  0  0  0  0  0  0
    8.0647  -16.1140   19.6325 C   0  0  0  0  0  0  0  0  0  0  0  0
    7.3262  -14.8908   20.1521 C   0  0  2  0  0  0  0  0  0  0  0  0
    7.5419  -13.8019   19.2199 N   0  0  0  0  0  0  0  0  0  0  0  0
    7.8173  -14.5116   21.5046 C   0  0  0  0  0  0  0  0  0  0  0  0
    9.0383  -14.2421   21.6225 O   0  0  0  0  0  0  0  0  0  0  0  0
    8.0353  -11.5027   27.8152 C   0  0  0  0  0  0  0  0  0  0  0  0
    7.6186  -12.0562   26.1268 S   0  0  0  0  0  0  0  0  0  0  0  0
    6.7359  -13.6151   26.2653 C   0  0  0  0  0  0  0  0  0  0  0  0
    6.2580  -14.0269   24.8881 C   0  0  0  0  0  0  0  0  0  0  0  0
    7.4703  -14.1868   23.9834 C   0  0  2  0  0  0  0  0  0  0  0  0
    6.9982  -14.4389   22.6458 N   0  0  0  0  0  0  0  0  0  0  0  0
    8.1925  -15.3931   24.4489 C   0  0  0  0  0  0  0  0  0  0  0  0
    7.5227  -16.3214   24.9623 O   0  0  0  0  0  0  0  0  0  0  0  0
    9.5921  -15.5401   24.3393 N   0  0  0  0  0  0  0  0  0  0  0  0
   10.1994  -16.7424   24.8610 C   0  0  0  0  0  0  0  0  0  0  0  0
   11.6649  -16.7116   24.5479 C   0  0  0  0  0  0  0  0  0  0  0  0
   12.2148  -17.6493   23.6791 O   0  0  0  0  0  0  0  0  0  0  0  0
   12.4426  -15.8584   25.0447 O   0  0  0  0  0  0  0  0  0  0  0  0
  2  3  1  0
  2  1  1  0
  3  4  1  0
  4  5  1  0
  5  7  1  0
  5  6  1  6
  7  8  2  0
  9 10  1  0
 10 11  1  0
 11 12  1  0
 13 12  1  1
 13 15  1  0
 14  7  1  0
 14 13  1  0
 15 16  2  0
 17 15  1  0
 17 18  1  0
 19 18  1  0
 19 20  1  0
 21 19  2  0
M  END
$$$$
