MMG.pdb
     RDKit          3D

 21 20  0  0  1  0  0  0  0  0999 V2000
    8.5260  -11.7592   19.2934 C   0  0  0  0  0  0  0  0  0  0  0  0
    7.3240  -13.0565   18.8575 S   0  0  0  0  0  0  0  0  0  0  0  0
    7.4743  -14.3668   20.1068 C   0  0  0  0  0  0  0  0  0  0  0  0
    8.8631  -14.9687   19.9471 C   0  0  0  0  0  0  0  0  0  0  0  0
    8.9702  -16.0850   20.9737 C   0  0  2  0  0  0  0  0  0  0  0  0
    7.7833  -16.9107   20.8701 N   0  0  0  0  0  0  0  0  0  0  0  0
    9.0886  -15.5291   22.3489 C   0  0  0  0  0  0  0  0  0  0  0  0
   10.1883  -15.0161   22.6731 O   0  0  0  0  0  0  0  0  0  0  0  0
    7.3928  -11.2008   26.7388 C   0  0  0  0  0  0  0  0  0  0  0  0
    6.1039  -12.4007   26.2597 S   0  0  0  0  0  0  0  0  0  0  0  0
    6.7901  -14.0490   26.4612 C   0  0  0  0  0  0  0  0  0  0  0  0
    6.7168  -14.7716   25.1319 C   0  0  0  0  0  0  0  0  0  0  0  0
    8.1330  -14.9913   24.6222 C   0  0  2  0  0  0  0  0  0  0  0  0
    8.0483  -15.5462   23.2954 N   0  0  0  0  0  0  0  0  0  0  0  0
    8.7500  -16.0079   25.5050 C   0  0  0  0  0  0  0  0  0  0  0  0
    9.0598  -15.6674   26.6720 O   0  0  0  0  0  0  0  0  0  0  0  0
    9.0014  -17.3337   25.0906 N   0  0  0  0  0  0  0  0  0  0  0  0
    9.5279  -18.2677   26.0585 C   0  0  0  0  0  0  0  0  0  0  0  0
   11.0134  -18.0843   26.1399 C   0  0  0  0  0  0  0  0  0  0  0  0
   11.5598  -16.8049   26.1733 O   0  0  0  0  0  0  0  0  0  0  0  0
   11.8112  -19.0545   26.1800 O   0  0  0  0  0  0  0  0  0  0  0  0
  2  3  1  0
  2  1  1  0
  3  4  1  0
  4  5  1  0
  5  7  1  0
  5  6  1  1
  7  8  2  0
  9 10  1  0
 10 11  1  0
 11 12  1  0
 13 12  1  1
 13 15  1  0
 14  7  1  0
 14 13  1  0
 15 16  2  0
 17 15  1  0
 17 18  1  0
 19 18  1  0
 19 20  1  0
 21 19  2  0
M  END
$$$$
