MMG.pdb
     RDKit          3D

 21 20  0  0  1  0  0  0  0  0999 V2000
    7.3920  -11.8109   20.0785 C   0  0  0  0  0  0  0  0  0  0  0  0
    6.8791  -13.1410   18.9447 S   0  0  0  0  0  0  0  0  0  0  0  0
    7.6375  -14.6784   19.5456 C   0  0  0  0  0  0  0  0  0  0  0  0
    8.3936  -14.3268   20.8188 C   0  0  0  0  0  0  0  0  0  0  0  0
    8.9827  -15.6264   21.3438 C   0  0  2  0  0  0  0  0  0  0  0  0
    7.9019  -16.5773   21.5136 N   0  0  0  0  0  0  0  0  0  0  0  0
    9.6788  -15.4058   22.6402 C   0  0  0  0  0  0  0  0  0  0  0  0
   10.7787  -14.7999   22.6109 O   0  0  0  0  0  0  0  0  0  0  0  0
   10.4797  -13.5141   29.3596 C   0  0  0  0  0  0  0  0  0  0  0  0
    9.7936  -13.8481   27.7018 S   0  0  0  0  0  0  0  0  0  0  0  0
    9.4738  -15.6126   27.5884 C   0  0  0  0  0  0  0  0  0  0  0  0
    8.8216  -15.9033   26.2526 C   0  0  0  0  0  0  0  0  0  0  0  0
    9.8316  -15.6236   25.1502 C   0  0  2  0  0  0  0  0  0  0  0  0
    9.1785  -15.8335   23.8834 N   0  0  0  0  0  0  0  0  0  0  0  0
   10.9022  -16.6378   25.2868 C   0  0  0  0  0  0  0  0  0  0  0  0
   10.6510  -17.6777   25.9420 O   0  0  0  0  0  0  0  0  0  0  0  0
   12.1833  -16.4837   24.7143 N   0  0  0  0  0  0  0  0  0  0  0  0
   13.1521  -17.5380   24.9050 C   0  0  0  0  0  0  0  0  0  0  0  0
   14.4175  -17.1572   24.1974 C   0  0  0  0  0  0  0  0  0  0  0  0
   14.4164  -16.9572   22.8203 O   0  0  0  0  0  0  0  0  0  0  0  0
   15.5087  -17.0060   24.8024 O   0  0  0  0  0  0  0  0  0  0  0  0
  2  3  1  0
  2  1  1  0
  3  4  1  0
  4  5  1  0
  5  7  1  0
  5  6  1  1
  7  8  2  0
  9 10  1  0
 10 11  1  0
 11 12  1  0
 13 12  1  1
 13 15  1  0
 14  7  1  0
 14 13  1  0
 15 16  2  0
 17 15  1  0
 17 18  1  0
 19 18  1  0
 19 20  1  0
 21 19  2  0
M  END
$$$$
