MMG.pdb
     RDKit          3D

 21 20  0  0  1  0  0  0  0  0999 V2000
    8.3957  -12.0626   19.0427 C   0  0  0  0  0  0  0  0  0  0  0  0
    7.4571  -13.4378   18.3041 S   0  0  0  0  0  0  0  0  0  0  0  0
    7.6545  -14.8711   19.4025 C   0  0  0  0  0  0  0  0  0  0  0  0
    9.0163  -14.7306   20.0676 C   0  0  0  0  0  0  0  0  0  0  0  0
    9.1117  -15.8468   21.0955 C   0  0  2  0  0  0  0  0  0  0  0  0
    7.8779  -16.6065   21.0547 N   0  0  0  0  0  0  0  0  0  0  0  0
    9.3266  -15.2925   22.4596 C   0  0  0  0  0  0  0  0  0  0  0  0
   10.4127  -14.7012   22.6796 O   0  0  0  0  0  0  0  0  0  0  0  0
    6.4337  -11.2587   28.0898 C   0  0  0  0  0  0  0  0  0  0  0  0
    6.0976  -12.2656   26.6053 S   0  0  0  0  0  0  0  0  0  0  0  0
    7.2804  -13.6180   26.5833 C   0  0  0  0  0  0  0  0  0  0  0  0
    7.1406  -14.3645   25.2727 C   0  0  0  0  0  0  0  0  0  0  0  0
    8.5275  -14.7677   24.7955 C   0  0  2  0  0  0  0  0  0  0  0  0
    8.3906  -15.3928   23.5048 N   0  0  0  0  0  0  0  0  0  0  0  0
    9.0253  -15.7872   25.7474 C   0  0  0  0  0  0  0  0  0  0  0  0
    9.1078  -15.4738   26.9594 O   0  0  0  0  0  0  0  0  0  0  0  0
    9.4072  -17.0869   25.3503 N   0  0  0  0  0  0  0  0  0  0  0  0
    9.8713  -18.0061   26.3633 C   0  0  0  0  0  0  0  0  0  0  0  0
   11.1422  -18.6412   25.8855 C   0  0  0  0  0  0  0  0  0  0  0  0
   12.2852  -17.8687   25.7033 O   0  0  0  0  0  0  0  0  0  0  0  0
   11.2288  -19.8695   25.6340 O   0  0  0  0  0  0  0  0  0  0  0  0
  2  3  1  0
  2  1  1  0
  3  4  1  0
  4  5  1  0
  5  7  1  0
  5  6  1  1
  7  8  2  0
  9 10  1  0
 10 11  1  0
 11 12  1  0
 13 12  1  1
 13 15  1  0
 14  7  1  0
 14 13  1  0
 15 16  2  0
 17 15  1  0
 17 18  1  0
 19 18  1  0
 19 20  1  0
 21 19  2  0
M  END
$$$$
