MMG.pdb
     RDKit          3D

 21 20  0  0  1  0  0  0  0  0999 V2000
   -1.9212  -31.4728   23.5891 C   0  0  0  0  0  0  0  0  0  0  0  0
   -1.5478  -29.8482   24.3232 S   0  0  0  0  0  0  0  0  0  0  0  0
   -2.9893  -28.7832   24.0269 C   0  0  0  0  0  0  0  0  0  0  0  0
   -2.6429  -27.4101   24.5846 C   0  0  0  0  0  0  0  0  0  0  0  0
   -3.2650  -26.3920   23.6421 C   0  0  2  0  0  0  0  0  0  0  0  0
   -2.3560  -26.1888   22.5314 N   0  0  0  0  0  0  0  0  0  0  0  0
   -3.5117  -25.1033   24.3440 C   0  0  0  0  0  0  0  0  0  0  0  0
   -2.5757  -24.2660   24.3627 O   0  0  0  0  0  0  0  0  0  0  0  0
   -4.6971  -18.6854   25.5513 C   0  0  0  0  0  0  0  0  0  0  0  0
   -4.5576  -20.3203   24.7523 S   0  0  0  0  0  0  0  0  0  0  0  0
   -5.9925  -21.2882   25.2347 C   0  0  0  0  0  0  0  0  0  0  0  0
   -5.8513  -22.6842   24.6638 C   0  0  0  0  0  0  0  0  0  0  0  0
   -5.0022  -23.5124   25.6160 C   0  0  2  0  0  0  0  0  0  0  0  0
   -4.7222  -24.7747   24.9806 N   0  0  0  0  0  0  0  0  0  0  0  0
   -5.8371  -23.7765   26.8104 C   0  0  0  0  0  0  0  0  0  0  0  0
   -6.8725  -24.4699   26.6661 O   0  0  0  0  0  0  0  0  0  0  0  0
   -5.5179  -23.2842   28.0943 N   0  0  0  0  0  0  0  0  0  0  0  0
   -6.4362  -23.5460   29.1781 C   0  0  0  0  0  0  0  0  0  0  0  0
   -7.3150  -22.3453   29.3599 C   0  0  0  0  0  0  0  0  0  0  0  0
   -6.8267  -21.2114   30.0021 O   0  0  0  0  0  0  0  0  0  0  0  0
   -8.5027  -22.3111   28.9505 O   0  0  0  0  0  0  0  0  0  0  0  0
  2  3  1  0
  2  1  1  0
  3  4  1  0
  4  5  1  0
  5  7  1  0
  5  6  1  6
  7  8  2  0
  9 10  1  0
 10 11  1  0
 11 12  1  0
 13 12  1  6
 13 15  1  0
 14  7  1  0
 14 13  1  0
 15 16  2  0
 17 15  1  0
 17 18  1  0
 19 18  1  0
 19 20  1  0
 21 19  2  0
M  END
$$$$
