MMG.pdb
     RDKit          3D

 21 20  0  0  1  0  0  0  0  0999 V2000
    8.8444  -19.5120   20.4838 C   0  0  0  0  0  0  0  0  0  0  0  0
    8.0360  -18.9341   18.9574 S   0  0  0  0  0  0  0  0  0  0  0  0
    7.1156  -17.4254   19.3775 C   0  0  0  0  0  0  0  0  0  0  0  0
    8.1413  -16.3983   19.8353 C   0  0  0  0  0  0  0  0  0  0  0  0
    7.3566  -15.1783   20.2907 C   0  0  2  0  0  0  0  0  0  0  0  0
    7.3994  -14.1908   19.2305 N   0  0  0  0  0  0  0  0  0  0  0  0
    7.9352  -14.6135   21.5399 C   0  0  0  0  0  0  0  0  0  0  0  0
    8.8636  -13.7759   21.4207 O   0  0  0  0  0  0  0  0  0  0  0  0
    6.8579  -10.5230   27.4695 C   0  0  0  0  0  0  0  0  0  0  0  0
    6.2381  -12.0665   26.7184 S   0  0  0  0  0  0  0  0  0  0  0  0
    7.4845  -12.6509   25.5637 C   0  0  0  0  0  0  0  0  0  0  0  0
    7.0051  -13.9487   24.9470 C   0  0  0  0  0  0  0  0  0  0  0  0
    8.1087  -14.4971   24.0552 C   0  0  2  0  0  0  0  0  0  0  0  0
    7.5044  -14.9619   22.8328 N   0  0  0  0  0  0  0  0  0  0  0  0
    8.6804  -15.6689   24.7576 C   0  0  0  0  0  0  0  0  0  0  0  0
    8.4779  -15.7752   25.9911 O   0  0  0  0  0  0  0  0  0  0  0  0
    9.4374  -16.6633   24.1013 N   0  0  0  0  0  0  0  0  0  0  0  0
   10.7773  -16.3353   23.6726 C   0  0  0  0  0  0  0  0  0  0  0  0
   11.7508  -17.0554   24.5561 C   0  0  0  0  0  0  0  0  0  0  0  0
   11.2944  -17.8014   25.6385 O   0  0  0  0  0  0  0  0  0  0  0  0
   12.9921  -17.0173   24.3629 O   0  0  0  0  0  0  0  0  0  0  0  0
  2  3  1  0
  2  1  1  0
  3  4  1  0
  4  5  1  0
  5  7  1  0
  5  6  1  6
  7  8  2  0
  9 10  1  0
 10 11  1  0
 11 12  1  0
 13 12  1  1
 13 15  1  0
 14  7  1  0
 14 13  1  0
 15 16  2  0
 17 15  1  0
 17 18  1  0
 19 18  1  0
 19 20  1  0
 21 19  2  0
M  END
$$$$
