HGI.pdb
     RDKit          3D

 23 23  0  0  1  0  0  0  0  0999 V2000
   18.3987  -14.3850  -18.5056 N   0  0  0  0  0  0  0  0  0  0  0  0
   19.8049  -14.6295  -18.3677 C   0  0  1  0  0  0  0  0  0  0  0  0
   20.2821  -15.4580  -19.5573 C   0  0  0  0  0  0  0  0  0  0  0  0
   19.6276  -16.7900  -19.4728 C   0  0  0  0  0  0  0  0  0  0  0  0
   19.9098  -17.8118  -18.5636 C   0  0  0  0  0  0  0  0  0  0  0  0
   19.1063  -18.8583  -18.8086 N   0  0  0  0  0  0  0  0  0  0  0  0
   18.3274  -18.5316  -19.8407 C   0  0  0  0  0  0  0  0  0  0  0  0
   18.6380  -17.2808  -20.2474 N   0  0  0  0  0  0  0  0  0  0  0  0
   20.5271  -13.3699  -18.2471 C   0  0  0  0  0  0  0  0  0  0  0  0
   21.7434  -13.3312  -18.0107 O   0  0  0  0  0  0  0  0  0  0  0  0
   19.8153  -12.1329  -18.4055 N   0  0  0  0  0  0  0  0  0  0  0  0
   20.4673  -10.8704  -18.3658 C   0  0  0  0  0  0  0  0  0  0  0  0
   20.6608  -10.3138  -17.0301 C   0  0  0  0  0  0  0  0  0  0  0  0
   19.6877  -10.4113  -16.1837 O   0  0  0  0  0  0  0  0  0  0  0  0
   25.3811  -10.4688  -14.4863 C   0  0  0  0  0  0  0  0  0  0  0  0
   24.2276   -9.7766  -15.1697 C   0  0  0  0  0  0  0  0  0  0  0  0
   22.9225  -10.0217  -14.4481 C   0  0  2  0  0  0  0  0  0  0  0  0
   22.5364  -11.4815  -14.4293 C   0  0  0  0  0  0  0  0  0  0  0  0
   21.8502   -9.1983  -15.1454 C   0  0  2  0  0  0  0  0  0  0  0  0
   21.7972   -9.6631  -16.5157 N   0  0  0  0  0  0  0  0  0  0  0  0
   22.1947   -7.7519  -15.0739 C   0  0  0  0  0  0  0  0  0  0  0  0
   22.0593   -6.9973  -13.9326 O   0  0  0  0  0  0  0  0  0  0  0  0
   22.6287   -7.2041  -16.1106 O   0  0  0  0  0  0  0  0  0  0  0  0
  2  1  1  6
  2  3  1  0
  4  3  1  0
  4  5  2  0
  6  5  1  0
  7  6  1  0
  8  7  2  0
  8  4  1  0
  9  2  1  0
  9 11  1  0
 10  9  2  0
 12 11  1  0
 12 13  1  0
 13 20  1  0
 14 13  2  0
 16 15  1  0
 17 16  1  0
 17 18  1  6
 19 21  1  0
 19 17  1  0
 19 20  1  6
 21 22  1  0
 23 21  2  0
M  END
$$$$
