HGI.pdb
     RDKit          3D

 23 23  0  0  1  0  0  0  0  0999 V2000
   20.4796  -15.4827  -19.9760 N   0  0  0  0  0  0  0  0  0  0  0  0
   21.8495  -15.7855  -19.6792 C   0  0  1  0  0  0  0  0  0  0  0  0
   22.6348  -15.8575  -20.9859 C   0  0  0  0  0  0  0  0  0  0  0  0
   22.0820  -16.9827  -21.7847 C   0  0  0  0  0  0  0  0  0  0  0  0
   22.0332  -18.3303  -21.4214 C   0  0  0  0  0  0  0  0  0  0  0  0
   21.4606  -19.0357  -22.4089 N   0  0  0  0  0  0  0  0  0  0  0  0
   21.1467  -18.1796  -23.3821 C   0  0  0  0  0  0  0  0  0  0  0  0
   21.5203  -16.9351  -23.0105 N   0  0  0  0  0  0  0  0  0  0  0  0
   22.3974  -14.7971  -18.7596 C   0  0  0  0  0  0  0  0  0  0  0  0
   23.5525  -14.8818  -18.3176 O   0  0  0  0  0  0  0  0  0  0  0  0
   21.5809  -13.6896  -18.3489 N   0  0  0  0  0  0  0  0  0  0  0  0
   22.0716  -12.6548  -17.5068 C   0  0  0  0  0  0  0  0  0  0  0  0
   23.2822  -11.9909  -17.9808 C   0  0  0  0  0  0  0  0  0  0  0  0
   23.1614  -11.0896  -18.9006 O   0  0  0  0  0  0  0  0  0  0  0  0
   27.5343   -8.6565  -15.9294 C   0  0  0  0  0  0  0  0  0  0  0  0
   27.1626   -9.5621  -17.0775 C   0  0  0  0  0  0  0  0  0  0  0  0
   26.0578  -10.5209  -16.6976 C   0  0  2  0  0  0  0  0  0  0  0  0
   26.4648  -11.4643  -15.5910 C   0  0  0  0  0  0  0  0  0  0  0  0
   25.6769  -11.3011  -17.9467 C   0  0  2  0  0  0  0  0  0  0  0  0
   24.6092  -12.2009  -17.5630 N   0  0  0  0  0  0  0  0  0  0  0  0
   26.8589  -12.0463  -18.4598 C   0  0  0  0  0  0  0  0  0  0  0  0
   27.7709  -11.5075  -19.3363 O   0  0  0  0  0  0  0  0  0  0  0  0
   27.0221  -13.2222  -18.0675 O   0  0  0  0  0  0  0  0  0  0  0  0
  2  1  1  6
  2  3  1  0
  4  3  1  0
  4  5  2  0
  6  5  1  0
  7  6  1  0
  8  7  2  0
  8  4  1  0
  9  2  1  0
  9 11  1  0
 10  9  2  0
 12 11  1  0
 12 13  1  0
 13 20  1  0
 14 13  2  0
 16 15  1  0
 17 16  1  0
 17 18  1  1
 19 21  1  0
 19 17  1  0
 19 20  1  1
 21 22  1  0
 23 21  2  0
M  END
$$$$
