HGI.pdb
     RDKit          3D

 23 23  0  0  1  0  0  0  0  0999 V2000
   25.5864  -19.9606  -16.7539 N   0  0  0  0  0  0  0  0  0  0  0  0
   24.7160  -19.3163  -15.8139 C   0  0  1  0  0  0  0  0  0  0  0  0
   23.4301  -20.1294  -15.6923 C   0  0  0  0  0  0  0  0  0  0  0  0
   22.8058  -20.1932  -17.0399 C   0  0  0  0  0  0  0  0  0  0  0  0
   22.5788  -21.3355  -17.8104 C   0  0  0  0  0  0  0  0  0  0  0  0
   21.9954  -20.9824  -18.9662 N   0  0  0  0  0  0  0  0  0  0  0  0
   21.8469  -19.6571  -18.9509 C   0  0  0  0  0  0  0  0  0  0  0  0
   22.3355  -19.1733  -17.7875 N   0  0  0  0  0  0  0  0  0  0  0  0
   25.3891  -19.1529  -14.5321 C   0  0  0  0  0  0  0  0  0  0  0  0
   24.8587  -18.5555  -13.5842 O   0  0  0  0  0  0  0  0  0  0  0  0
   26.7059  -19.6973  -14.3546 N   0  0  0  0  0  0  0  0  0  0  0  0
   27.3953  -19.6298  -13.1132 C   0  0  0  0  0  0  0  0  0  0  0  0
   26.8117  -20.4229  -12.0355 C   0  0  0  0  0  0  0  0  0  0  0  0
   26.6986  -21.6993  -12.2122 O   0  0  0  0  0  0  0  0  0  0  0  0
   27.9155  -19.2994   -7.1394 C   0  0  0  0  0  0  0  0  0  0  0  0
   27.5425  -20.1662   -8.3168 C   0  0  0  0  0  0  0  0  0  0  0  0
   26.0443  -20.3147   -8.4485 C   0  0  2  0  0  0  0  0  0  0  0  0
   25.4529  -21.1957   -7.3742 C   0  0  0  0  0  0  0  0  0  0  0  0
   25.7593  -20.8938   -9.8260 C   0  0  2  0  0  0  0  0  0  0  0  0
   26.3381  -19.9787  -10.7875 N   0  0  0  0  0  0  0  0  0  0  0  0
   24.2906  -21.0342  -10.0236 C   0  0  0  0  0  0  0  0  0  0  0  0
   23.5842  -22.1604   -9.6729 O   0  0  0  0  0  0  0  0  0  0  0  0
   23.6767  -20.0728  -10.5355 O   0  0  0  0  0  0  0  0  0  0  0  0
  2  1  1  6
  2  3  1  0
  4  3  1  0
  4  5  2  0
  6  5  1  0
  7  6  1  0
  8  7  2  0
  8  4  1  0
  9  2  1  0
  9 11  1  0
 10  9  2  0
 12 11  1  0
 12 13  1  0
 13 20  1  0
 14 13  2  0
 16 15  1  0
 17 16  1  0
 17 18  1  1
 19 21  1  0
 19 17  1  0
 19 20  1  6
 21 22  1  0
 23 21  2  0
M  END
$$$$
