HGI.pdb
     RDKit          3D

 23 23  0  0  1  0  0  0  0  0999 V2000
   16.5995  -11.3941  -17.5963 N   0  0  0  0  0  0  0  0  0  0  0  0
   18.0091  -11.5343  -17.8198 C   0  0  1  0  0  0  0  0  0  0  0  0
   18.2383  -12.0101  -19.2516 C   0  0  0  0  0  0  0  0  0  0  0  0
   17.6429  -13.3663  -19.3787 C   0  0  0  0  0  0  0  0  0  0  0  0
   16.8753  -13.8540  -20.4385 C   0  0  0  0  0  0  0  0  0  0  0  0
   16.5222  -15.1232  -20.1834 N   0  0  0  0  0  0  0  0  0  0  0  0
   17.0406  -15.4526  -18.9996 C   0  0  0  0  0  0  0  0  0  0  0  0
   17.7203  -14.3933  -18.5072 N   0  0  0  0  0  0  0  0  0  0  0  0
   18.6922  -10.2783  -17.5394 C   0  0  0  0  0  0  0  0  0  0  0  0
   19.9195  -10.1568  -17.6654 O   0  0  0  0  0  0  0  0  0  0  0  0
   17.9276   -9.1436  -17.1038 N   0  0  0  0  0  0  0  0  0  0  0  0
   18.5135   -7.8641  -16.9031 C   0  0  0  0  0  0  0  0  0  0  0  0
   19.3916   -7.7590  -15.7416 C   0  0  0  0  0  0  0  0  0  0  0  0
   18.8961   -8.0305  -14.5781 O   0  0  0  0  0  0  0  0  0  0  0  0
   23.2167  -10.5753  -14.9655 C   0  0  0  0  0  0  0  0  0  0  0  0
   22.1176   -9.5429  -14.9156 C   0  0  0  0  0  0  0  0  0  0  0  0
   22.6436   -8.1866  -14.5054 C   0  0  2  0  0  0  0  0  0  0  0  0
   23.3489   -8.2185  -13.1705 C   0  0  0  0  0  0  0  0  0  0  0  0
   21.4615   -7.2305  -14.4581 C   0  0  2  0  0  0  0  0  0  0  0  0
   20.7491   -7.3910  -15.7085 N   0  0  0  0  0  0  0  0  0  0  0  0
   21.9452   -5.8337  -14.2824 C   0  0  0  0  0  0  0  0  0  0  0  0
   22.2571   -5.2892  -13.0591 O   0  0  0  0  0  0  0  0  0  0  0  0
   22.0711   -5.1272  -15.3063 O   0  0  0  0  0  0  0  0  0  0  0  0
  2  1  1  6
  2  3  1  0
  4  3  1  0
  4  5  2  0
  6  5  1  0
  7  6  1  0
  8  7  2  0
  8  4  1  0
  9  2  1  0
  9 11  1  0
 10  9  2  0
 12 11  1  0
 12 13  1  0
 13 20  1  0
 14 13  2  0
 16 15  1  0
 17 16  1  0
 17 18  1  1
 19 21  1  0
 19 17  1  0
 19 20  1  6
 21 22  1  0
 23 21  2  0
M  END
$$$$
