HGI.pdb
     RDKit          3D

 23 23  0  0  1  0  0  0  0  0999 V2000
   17.8788  -13.7965  -19.2977 N   0  0  0  0  0  0  0  0  0  0  0  0
   19.2708  -13.9672  -18.9987 C   0  0  1  0  0  0  0  0  0  0  0  0
   19.9652  -14.5845  -20.2095 C   0  0  0  0  0  0  0  0  0  0  0  0
   19.4697  -15.9787  -20.3532 C   0  0  0  0  0  0  0  0  0  0  0  0
   18.6641  -16.6837  -19.4565 C   0  0  0  0  0  0  0  0  0  0  0  0
   18.4318  -17.9134  -19.9408 N   0  0  0  0  0  0  0  0  0  0  0  0
   19.0631  -18.0081  -21.1117 C   0  0  0  0  0  0  0  0  0  0  0  0
   19.6933  -16.8402  -21.3672 N   0  0  0  0  0  0  0  0  0  0  0  0
   19.8640  -12.6940  -18.6118 C   0  0  0  0  0  0  0  0  0  0  0  0
   21.0533  -12.6000  -18.2746 O   0  0  0  0  0  0  0  0  0  0  0  0
   19.0531  -11.5090  -18.6189 N   0  0  0  0  0  0  0  0  0  0  0  0
   19.5876  -10.2207  -18.3447 C   0  0  0  0  0  0  0  0  0  0  0  0
   20.0169  -10.0078  -16.9657 C   0  0  0  0  0  0  0  0  0  0  0  0
   19.3575  -10.6017  -16.0247 O   0  0  0  0  0  0  0  0  0  0  0  0
   23.4175  -11.7970  -14.3665 C   0  0  0  0  0  0  0  0  0  0  0  0
   22.9241  -10.8065  -15.3921 C   0  0  0  0  0  0  0  0  0  0  0  0
   22.7330   -9.4317  -14.7941 C   0  0  2  0  0  0  0  0  0  0  0  0
   22.9988   -9.4047  -13.3078 C   0  0  0  0  0  0  0  0  0  0  0  0
   21.3043   -8.9984  -15.0855 C   0  0  2  0  0  0  0  0  0  0  0  0
   21.0850   -9.2195  -16.4996 N   0  0  0  0  0  0  0  0  0  0  0  0
   21.1248   -7.5657  -14.7241 C   0  0  0  0  0  0  0  0  0  0  0  0
   20.6124   -7.1478  -13.5186 O   0  0  0  0  0  0  0  0  0  0  0  0
   21.4602   -6.7053  -15.5670 O   0  0  0  0  0  0  0  0  0  0  0  0
  2  1  1  6
  2  3  1  0
  4  3  1  0
  4  5  2  0
  6  5  1  0
  7  6  1  0
  8  7  2  0
  8  4  1  0
  9  2  1  0
  9 11  1  0
 10  9  2  0
 12 11  1  0
 12 13  1  0
 13 20  1  0
 14 13  2  0
 16 15  1  0
 17 16  1  0
 17 18  1  1
 19 21  1  0
 19 17  1  0
 19 20  1  6
 21 22  1  0
 23 21  2  0
M  END
$$$$
