HGI.pdb
     RDKit          3D

 23 23  0  0  1  0  0  0  0  0999 V2000
   12.8852  -19.7060    2.1601 N   0  0  0  0  0  0  0  0  0  0  0  0
   13.6039  -18.4806    1.9641 C   0  0  1  0  0  0  0  0  0  0  0  0
   12.8321  -17.3428    2.6266 C   0  0  0  0  0  0  0  0  0  0  0  0
   11.6014  -17.1051    1.8274 C   0  0  0  0  0  0  0  0  0  0  0  0
   10.2814  -17.3250    2.2268 C   0  0  0  0  0  0  0  0  0  0  0  0
    9.4531  -16.9900    1.2256 N   0  0  0  0  0  0  0  0  0  0  0  0
   10.2052  -16.5664    0.2089 C   0  0  0  0  0  0  0  0  0  0  0  0
   11.5067  -16.6337    0.5668 N   0  0  0  0  0  0  0  0  0  0  0  0
   14.9603  -18.6024    2.4816 C   0  0  0  0  0  0  0  0  0  0  0  0
   15.7400  -17.6390    2.5113 O   0  0  0  0  0  0  0  0  0  0  0  0
   15.4143  -19.8728    2.9734 N   0  0  0  0  0  0  0  0  0  0  0  0
   16.7189  -20.0593    3.5062 C   0  0  0  0  0  0  0  0  0  0  0  0
   17.0223  -21.4190    3.9425 C   0  0  0  0  0  0  0  0  0  0  0  0
   16.0659  -22.2898    3.9291 O   0  0  0  0  0  0  0  0  0  0  0  0
   20.8909  -24.0291    2.1319 C   0  0  0  0  0  0  0  0  0  0  0  0
   19.6065  -23.6099    2.8033 C   0  0  0  0  0  0  0  0  0  0  0  0
   19.6472  -23.8610    4.2931 C   0  0  2  0  0  0  0  0  0  0  0  0
   19.7742  -25.3275    4.6300 C   0  0  0  0  0  0  0  0  0  0  0  0
   18.3711  -23.2879    4.8908 C   0  0  2  0  0  0  0  0  0  0  0  0
   18.2522  -21.9339    4.3916 N   0  0  0  0  0  0  0  0  0  0  0  0
   18.4498  -23.3155    6.3769 C   0  0  0  0  0  0  0  0  0  0  0  0
   17.8350  -24.2721    7.1496 O   0  0  0  0  0  0  0  0  0  0  0  0
   19.1116  -22.4180    6.9424 O   0  0  0  0  0  0  0  0  0  0  0  0
  2  1  1  1
  2  3  1  0
  4  3  1  0
  4  5  2  0
  6  5  1  0
  7  6  1  0
  8  7  2  0
  8  4  1  0
  9  2  1  0
  9 11  1  0
 10  9  2  0
 12 11  1  0
 12 13  1  0
 13 20  1  0
 14 13  2  0
 16 15  1  0
 17 16  1  0
 17 18  1  6
 19 21  1  0
 19 17  1  0
 19 20  1  6
 21 22  1  0
 23 21  2  0
M  END
$$$$
