HGI.pdb
     RDKit          3D

 23 23  0  0  1  0  0  0  0  0999 V2000
   20.8326  -19.3548  -15.7063 N   0  0  0  0  0  0  0  0  0  0  0  0
   21.1443  -19.8533  -17.0143 C   0  0  1  0  0  0  0  0  0  0  0  0
   19.8432  -20.1719  -17.7456 C   0  0  0  0  0  0  0  0  0  0  0  0
   18.8136  -19.2067  -17.2787 C   0  0  0  0  0  0  0  0  0  0  0  0
   18.9742  -18.1976  -16.3268 C   0  0  0  0  0  0  0  0  0  0  0  0
   17.8148  -17.5384  -16.1789 N   0  0  0  0  0  0  0  0  0  0  0  0
   16.9288  -18.0970  -17.0045 C   0  0  0  0  0  0  0  0  0  0  0  0
   17.5272  -19.1076  -17.6732 N   0  0  0  0  0  0  0  0  0  0  0  0
   21.9639  -18.8914  -17.7392 C   0  0  0  0  0  0  0  0  0  0  0  0
   22.4651  -19.1559  -18.8418 O   0  0  0  0  0  0  0  0  0  0  0  0
   22.2023  -17.5968  -17.1657 N   0  0  0  0  0  0  0  0  0  0  0  0
   22.9478  -16.5920  -17.8407 C   0  0  0  0  0  0  0  0  0  0  0  0
   23.7520  -15.7315  -16.9782 C   0  0  0  0  0  0  0  0  0  0  0  0
   23.4640  -15.6936  -15.7178 O   0  0  0  0  0  0  0  0  0  0  0  0
   28.8137  -15.7804  -16.7028 C   0  0  0  0  0  0  0  0  0  0  0  0
   27.3463  -15.5609  -16.4290 C   0  0  0  0  0  0  0  0  0  0  0  0
   26.9558  -14.1116  -16.6058 C   0  0  2  0  0  0  0  0  0  0  0  0
   27.6903  -13.1941  -15.6576 C   0  0  0  0  0  0  0  0  0  0  0  0
   25.4541  -14.0102  -16.3857 C   0  0  2  0  0  0  0  0  0  0  0  0
   24.8347  -14.9082  -17.3378 N   0  0  0  0  0  0  0  0  0  0  0  0
   25.0050  -12.6058  -16.5898 C   0  0  0  0  0  0  0  0  0  0  0  0
   24.7479  -11.7358  -15.5567 O   0  0  0  0  0  0  0  0  0  0  0  0
   24.8567  -12.2062  -17.7652 O   0  0  0  0  0  0  0  0  0  0  0  0
  2  1  1  1
  2  3  1  0
  4  3  1  0
  4  5  2  0
  6  5  1  0
  7  6  1  0
  8  7  2  0
  8  4  1  0
  9  2  1  0
  9 11  1  0
 10  9  2  0
 12 11  1  0
 12 13  1  0
 13 20  1  0
 14 13  2  0
 16 15  1  0
 17 16  1  0
 17 18  1  1
 19 21  1  0
 19 17  1  0
 19 20  1  6
 21 22  1  0
 23 21  2  0
M  END
$$$$
