HGI.pdb
     RDKit          3D

 23 23  0  0  1  0  0  0  0  0999 V2000
   23.8289  -19.5645  -14.4276 N   0  0  0  0  0  0  0  0  0  0  0  0
   24.8384  -19.4042  -15.4334 C   0  0  1  0  0  0  0  0  0  0  0  0
   24.9631  -17.9226  -15.7779 C   0  0  0  0  0  0  0  0  0  0  0  0
   23.6697  -17.4841  -16.3650 C   0  0  0  0  0  0  0  0  0  0  0  0
   22.5745  -16.9466  -15.6854 C   0  0  0  0  0  0  0  0  0  0  0  0
   21.5964  -16.6763  -16.5634 N   0  0  0  0  0  0  0  0  0  0  0  0
   22.0370  -17.0247  -17.7730 C   0  0  0  0  0  0  0  0  0  0  0  0
   23.2915  -17.5144  -17.6598 N   0  0  0  0  0  0  0  0  0  0  0  0
   26.1000  -19.9731  -14.9779 C   0  0  0  0  0  0  0  0  0  0  0  0
   27.0080  -20.2715  -15.7674 O   0  0  0  0  0  0  0  0  0  0  0  0
   26.3045  -20.1974  -13.5744 N   0  0  0  0  0  0  0  0  0  0  0  0
   27.3527  -21.0214  -13.0813 C   0  0  0  0  0  0  0  0  0  0  0  0
   27.4637  -21.0801  -11.6268 C   0  0  0  0  0  0  0  0  0  0  0  0
   28.3442  -21.8779  -11.1157 O   0  0  0  0  0  0  0  0  0  0  0  0
   27.6642  -19.0676   -6.9867 C   0  0  0  0  0  0  0  0  0  0  0  0
   27.4521  -20.0439   -8.1173 C   0  0  0  0  0  0  0  0  0  0  0  0
   25.9836  -20.2518   -8.4077 C   0  0  2  0  0  0  0  0  0  0  0  0
   25.2693  -20.9754   -7.2913 C   0  0  0  0  0  0  0  0  0  0  0  0
   25.8787  -21.0409   -9.7039 C   0  0  2  0  0  0  0  0  0  0  0  0
   26.7213  -20.3658  -10.6688 N   0  0  0  0  0  0  0  0  0  0  0  0
   24.4615  -21.0871  -10.1567 C   0  0  0  0  0  0  0  0  0  0  0  0
   23.9985  -20.4161  -11.2638 O   0  0  0  0  0  0  0  0  0  0  0  0
   23.6583  -21.7743   -9.4890 O   0  0  0  0  0  0  0  0  0  0  0  0
  2  1  1  1
  2  3  1  0
  4  3  1  0
  4  5  2  0
  6  5  1  0
  7  6  1  0
  8  7  2  0
  8  4  1  0
  9  2  1  0
  9 11  1  0
 10  9  2  0
 12 11  1  0
 12 13  1  0
 13 20  1  0
 14 13  2  0
 16 15  1  0
 17 16  1  0
 17 18  1  1
 19 21  1  0
 19 17  1  0
 19 20  1  6
 21 22  1  0
 23 21  2  0
M  END
$$$$
