HGI.pdb
     RDKit          3D

 23 23  0  0  1  0  0  0  0  0999 V2000
   23.1214  -17.8327  -17.3712 N   0  0  0  0  0  0  0  0  0  0  0  0
   22.8638  -17.6182  -15.9770 C   0  0  1  0  0  0  0  0  0  0  0  0
   21.9602  -18.7355  -15.4629 C   0  0  0  0  0  0  0  0  0  0  0  0
   20.6677  -18.6438  -16.1916 C   0  0  0  0  0  0  0  0  0  0  0  0
   19.6237  -17.7491  -15.9468 C   0  0  0  0  0  0  0  0  0  0  0  0
   18.6277  -17.9810  -16.8157 N   0  0  0  0  0  0  0  0  0  0  0  0
   19.0076  -18.9909  -17.5996 C   0  0  0  0  0  0  0  0  0  0  0  0
   20.2416  -19.3966  -17.2270 N   0  0  0  0  0  0  0  0  0  0  0  0
   24.1170  -17.5378  -15.2384 C   0  0  0  0  0  0  0  0  0  0  0  0
   24.1519  -17.2359  -14.0365 O   0  0  0  0  0  0  0  0  0  0  0  0
   25.3521  -17.8152  -15.9162 N   0  0  0  0  0  0  0  0  0  0  0  0
   26.6013  -17.8441  -15.2383 C   0  0  0  0  0  0  0  0  0  0  0  0
   26.7620  -18.9335  -14.2799 C   0  0  0  0  0  0  0  0  0  0  0  0
   27.9604  -19.2380  -13.9005 O   0  0  0  0  0  0  0  0  0  0  0  0
   25.7346  -19.7047   -9.5857 C   0  0  0  0  0  0  0  0  0  0  0  0
   26.2658  -19.8950  -10.9850 C   0  0  0  0  0  0  0  0  0  0  0  0
   25.5592  -21.0222  -11.7021 C   0  0  2  0  0  0  0  0  0  0  0  0
   25.7993  -22.3634  -11.0512 C   0  0  0  0  0  0  0  0  0  0  0  0
   26.0549  -21.0341  -13.1402 C   0  0  2  0  0  0  0  0  0  0  0  0
   25.7612  -19.7271  -13.6900 N   0  0  0  0  0  0  0  0  0  0  0  0
   25.3702  -22.1126  -13.9041 C   0  0  0  0  0  0  0  0  0  0  0  0
   24.2066  -21.9181  -14.6101 O   0  0  0  0  0  0  0  0  0  0  0  0
   25.8878  -23.2507  -13.8972 O   0  0  0  0  0  0  0  0  0  0  0  0
  2  1  1  6
  2  3  1  0
  4  3  1  0
  4  5  2  0
  6  5  1  0
  7  6  1  0
  8  7  2  0
  8  4  1  0
  9  2  1  0
  9 11  1  0
 10  9  2  0
 12 11  1  0
 12 13  1  0
 13 20  1  0
 14 13  2  0
 16 15  1  0
 17 16  1  0
 17 18  1  1
 19 21  1  0
 19 17  1  0
 19 20  1  6
 21 22  1  0
 23 21  2  0
M  END
$$$$
