HGI.pdb
     RDKit          3D

 23 23  0  0  1  0  0  0  0  0999 V2000
   25.1671  -17.9579  -16.4037 N   0  0  0  0  0  0  0  0  0  0  0  0
   26.3841  -18.0773  -17.1528 C   0  0  1  0  0  0  0  0  0  0  0  0
   26.9544  -16.6827  -17.3960 C   0  0  0  0  0  0  0  0  0  0  0  0
   25.9690  -15.9269  -18.2131 C   0  0  0  0  0  0  0  0  0  0  0  0
   25.6621  -16.1262  -19.5608 C   0  0  0  0  0  0  0  0  0  0  0  0
   24.7223  -15.2452  -19.9369 N   0  0  0  0  0  0  0  0  0  0  0  0
   24.4263  -14.4974  -18.8730 C   0  0  0  0  0  0  0  0  0  0  0  0
   25.1775  -14.9051  -17.8262 N   0  0  0  0  0  0  0  0  0  0  0  0
   27.3240  -18.9440  -16.4543 C   0  0  0  0  0  0  0  0  0  0  0  0
   28.4591  -19.1726  -16.8973 O   0  0  0  0  0  0  0  0  0  0  0  0
   26.9307  -19.5550  -15.2158 N   0  0  0  0  0  0  0  0  0  0  0  0
   27.3912  -20.8412  -14.8229 C   0  0  0  0  0  0  0  0  0  0  0  0
   27.0001  -21.2564  -13.4791 C   0  0  0  0  0  0  0  0  0  0  0  0
   27.3675  -22.4284  -13.0735 O   0  0  0  0  0  0  0  0  0  0  0  0
   26.8116  -20.1688   -8.4812 C   0  0  0  0  0  0  0  0  0  0  0  0
   26.6310  -20.7880   -9.8452 C   0  0  0  0  0  0  0  0  0  0  0  0
   25.2338  -20.5681  -10.3777 C   0  0  2  0  0  0  0  0  0  0  0  0
   24.1751  -21.1962   -9.5031 C   0  0  0  0  0  0  0  0  0  0  0  0
   25.1792  -21.1541  -11.7805 C   0  0  2  0  0  0  0  0  0  0  0  0
   26.2532  -20.5357  -12.5294 N   0  0  0  0  0  0  0  0  0  0  0  0
   23.8536  -20.8732  -12.3966 C   0  0  0  0  0  0  0  0  0  0  0  0
   22.8159  -21.7751  -12.4031 O   0  0  0  0  0  0  0  0  0  0  0  0
   23.6851  -19.7567  -12.9334 O   0  0  0  0  0  0  0  0  0  0  0  0
  2  1  1  1
  2  3  1  0
  4  3  1  0
  4  5  2  0
  6  5  1  0
  7  6  1  0
  8  7  2  0
  8  4  1  0
  9  2  1  0
  9 11  1  0
 10  9  2  0
 12 11  1  0
 12 13  1  0
 13 20  1  0
 14 13  2  0
 16 15  1  0
 17 16  1  0
 17 18  1  1
 19 21  1  0
 19 17  1  0
 19 20  1  6
 21 22  1  0
 23 21  2  0
M  END
$$$$
