HGI.pdb
     RDKit          3D

 23 23  0  0  1  0  0  0  0  0999 V2000
   23.1762  -19.4756  -16.3068 N   0  0  0  0  0  0  0  0  0  0  0  0
   23.8420  -20.7228  -16.0668 C   0  0  1  0  0  0  0  0  0  0  0  0
   24.0064  -21.4594  -17.3934 C   0  0  0  0  0  0  0  0  0  0  0  0
   22.7136  -22.1236  -17.7054 C   0  0  0  0  0  0  0  0  0  0  0  0
   22.4302  -23.4895  -17.6393 C   0  0  0  0  0  0  0  0  0  0  0  0
   21.1533  -23.6956  -17.9971 N   0  0  0  0  0  0  0  0  0  0  0  0
   20.6220  -22.5070  -18.2863 C   0  0  0  0  0  0  0  0  0  0  0  0
   21.5614  -21.5512  -18.1117 N   0  0  0  0  0  0  0  0  0  0  0  0
   25.1174  -20.4944  -15.4005 C   0  0  0  0  0  0  0  0  0  0  0  0
   26.0527  -19.9028  -15.9592 O   0  0  0  0  0  0  0  0  0  0  0  0
   25.3035  -20.9656  -14.0570 N   0  0  0  0  0  0  0  0  0  0  0  0
   26.4883  -20.7029  -13.3167 C   0  0  0  0  0  0  0  0  0  0  0  0
   26.4483  -21.1124  -11.9160 C   0  0  0  0  0  0  0  0  0  0  0  0
   26.1814  -22.3501  -11.6515 O   0  0  0  0  0  0  0  0  0  0  0  0
   27.2838  -19.4862   -6.0057 C   0  0  0  0  0  0  0  0  0  0  0  0
   26.6350  -20.3376   -7.0691 C   0  0  0  0  0  0  0  0  0  0  0  0
   26.9853  -19.8583   -8.4590 C   0  0  2  0  0  0  0  0  0  0  0  0
   26.5764  -18.4244   -8.6973 C   0  0  0  0  0  0  0  0  0  0  0  0
   26.2919  -20.7797   -9.4510 C   0  0  2  0  0  0  0  0  0  0  0  0
   26.6670  -20.3223  -10.7727 N   0  0  0  0  0  0  0  0  0  0  0  0
   24.8177  -20.7216   -9.2527 C   0  0  0  0  0  0  0  0  0  0  0  0
   23.9655  -20.0570  -10.1026 O   0  0  0  0  0  0  0  0  0  0  0  0
   24.3395  -21.3108   -8.2591 O   0  0  0  0  0  0  0  0  0  0  0  0
  2  1  1  6
  2  3  1  0
  4  3  1  0
  4  5  2  0
  6  5  1  0
  7  6  1  0
  8  7  2  0
  8  4  1  0
  9  2  1  0
  9 11  1  0
 10  9  2  0
 12 11  1  0
 12 13  1  0
 13 20  1  0
 14 13  2  0
 16 15  1  0
 17 16  1  0
 17 18  1  1
 19 21  1  0
 19 17  1  0
 19 20  1  6
 21 22  1  0
 23 21  2  0
M  END
$$$$
