HGI.pdb
     RDKit          3D

 23 23  0  0  1  0  0  0  0  0999 V2000
   24.8572  -18.8948  -15.5786 N   0  0  0  0  0  0  0  0  0  0  0  0
   24.5350  -19.7805  -14.4979 C   0  0  1  0  0  0  0  0  0  0  0  0
   23.4997  -20.7931  -14.9797 C   0  0  0  0  0  0  0  0  0  0  0  0
   22.2381  -20.0555  -15.2524 C   0  0  0  0  0  0  0  0  0  0  0  0
   21.9998  -19.1460  -16.2850 C   0  0  0  0  0  0  0  0  0  0  0  0
   20.7397  -18.6933  -16.1956 N   0  0  0  0  0  0  0  0  0  0  0  0
   20.1754  -19.2861  -15.1426 C   0  0  0  0  0  0  0  0  0  0  0  0
   21.0772  -20.1119  -14.5673 N   0  0  0  0  0  0  0  0  0  0  0  0
   25.7420  -20.4224  -13.9940 C   0  0  0  0  0  0  0  0  0  0  0  0
   26.7163  -20.6529  -14.7250 O   0  0  0  0  0  0  0  0  0  0  0  0
   25.8119  -20.8018  -12.6109 N   0  0  0  0  0  0  0  0  0  0  0  0
   27.0039  -21.3020  -12.0194 C   0  0  0  0  0  0  0  0  0  0  0  0
   26.9388  -21.5140  -10.5765 C   0  0  0  0  0  0  0  0  0  0  0  0
   26.6020  -22.6873  -10.1487 O   0  0  0  0  0  0  0  0  0  0  0  0
   29.6632  -18.9290   -6.7466 C   0  0  0  0  0  0  0  0  0  0  0  0
   28.8627  -20.0052   -7.4375 C   0  0  0  0  0  0  0  0  0  0  0  0
   27.3765  -19.7542   -7.3262 C   0  0  2  0  0  0  0  0  0  0  0  0
   26.8763  -19.8593   -5.9053 C   0  0  0  0  0  0  0  0  0  0  0  0
   26.6714  -20.7691   -8.2133 C   0  0  2  0  0  0  0  0  0  0  0  0
   27.2001  -20.5890   -9.5492 N   0  0  0  0  0  0  0  0  0  0  0  0
   25.2008  -20.5420   -8.1744 C   0  0  0  0  0  0  0  0  0  0  0  0
   24.5081  -19.8972   -9.1717 O   0  0  0  0  0  0  0  0  0  0  0  0
   24.5720  -20.9631   -7.1791 O   0  0  0  0  0  0  0  0  0  0  0  0
  2  1  1  6
  2  3  1  0
  4  3  1  0
  4  5  2  0
  6  5  1  0
  7  6  1  0
  8  7  2  0
  8  4  1  0
  9  2  1  0
  9 11  1  0
 10  9  2  0
 12 11  1  0
 12 13  1  0
 13 20  1  0
 14 13  2  0
 16 15  1  0
 17 16  1  0
 17 18  1  1
 19 21  1  0
 19 17  1  0
 19 20  1  6
 21 22  1  0
 23 21  2  0
M  END
$$$$
