HGI.pdb
     RDKit          3D

 23 23  0  0  1  0  0  0  0  0999 V2000
   26.1837  -18.8581  -17.6006 N   0  0  0  0  0  0  0  0  0  0  0  0
   27.4716  -18.4422  -17.1264 C   0  0  1  0  0  0  0  0  0  0  0  0
   27.9067  -17.2008  -17.9003 C   0  0  0  0  0  0  0  0  0  0  0  0
   28.0223  -17.5783  -19.3335 C   0  0  0  0  0  0  0  0  0  0  0  0
   28.8873  -18.5234  -19.8891 C   0  0  0  0  0  0  0  0  0  0  0  0
   28.6918  -18.5782  -21.2155 N   0  0  0  0  0  0  0  0  0  0  0  0
   27.7335  -17.7005  -21.5154 C   0  0  0  0  0  0  0  0  0  0  0  0
   27.3240  -17.0918  -20.3804 N   0  0  0  0  0  0  0  0  0  0  0  0
   27.4296  -18.2100  -15.6887 C   0  0  0  0  0  0  0  0  0  0  0  0
   28.4576  -18.0038  -15.0273 O   0  0  0  0  0  0  0  0  0  0  0  0
   26.1635  -18.2188  -15.0114 N   0  0  0  0  0  0  0  0  0  0  0  0
   26.0526  -18.0429  -13.6051 C   0  0  0  0  0  0  0  0  0  0  0  0
   25.7701  -19.2588  -12.8482 C   0  0  0  0  0  0  0  0  0  0  0  0
   25.0539  -20.1751  -13.4143 O   0  0  0  0  0  0  0  0  0  0  0  0
   27.0484  -20.1276   -7.3969 C   0  0  0  0  0  0  0  0  0  0  0  0
   26.4131  -19.8845   -8.7436 C   0  0  0  0  0  0  0  0  0  0  0  0
   26.6999  -21.0120   -9.7082 C   0  0  2  0  0  0  0  0  0  0  0  0
   28.1459  -21.0494  -10.1419 C   0  0  0  0  0  0  0  0  0  0  0  0
   25.7893  -20.8290  -10.9129 C   0  0  2  0  0  0  0  0  0  0  0  0
   26.1818  -19.5859  -11.5432 N   0  0  0  0  0  0  0  0  0  0  0  0
   24.3677  -20.7916  -10.4734 C   0  0  0  0  0  0  0  0  0  0  0  0
   23.5986  -19.6522  -10.4950 O   0  0  0  0  0  0  0  0  0  0  0  0
   23.8555  -21.8566  -10.0651 O   0  0  0  0  0  0  0  0  0  0  0  0
  2  1  1  6
  2  3  1  0
  4  3  1  0
  4  5  2  0
  6  5  1  0
  7  6  1  0
  8  7  2  0
  8  4  1  0
  9  2  1  0
  9 11  1  0
 10  9  2  0
 12 11  1  0
 12 13  1  0
 13 20  1  0
 14 13  2  0
 16 15  1  0
 17 16  1  0
 17 18  1  6
 19 21  1  0
 19 17  1  0
 19 20  1  1
 21 22  1  0
 23 21  2  0
M  END
$$$$
