HGI.pdb
     RDKit          3D

 23 23  0  0  1  0  0  0  0  0999 V2000
   22.8663  -20.5791  -17.3483 N   0  0  0  0  0  0  0  0  0  0  0  0
   23.4741  -19.3304  -16.9907 C   0  0  1  0  0  0  0  0  0  0  0  0
   22.3837  -18.2721  -16.8480 C   0  0  0  0  0  0  0  0  0  0  0  0
   21.7771  -18.0637  -18.1890 C   0  0  0  0  0  0  0  0  0  0  0  0
   20.4523  -18.3017  -18.5611 C   0  0  0  0  0  0  0  0  0  0  0  0
   20.2926  -17.9912  -19.8568 N   0  0  0  0  0  0  0  0  0  0  0  0
   21.4708  -17.5655  -20.3144 C   0  0  0  0  0  0  0  0  0  0  0  0
   22.3737  -17.6070  -19.3097 N   0  0  0  0  0  0  0  0  0  0  0  0
   24.2594  -19.4816  -15.7729 C   0  0  0  0  0  0  0  0  0  0  0  0
   23.7467  -19.3991  -14.6472 O   0  0  0  0  0  0  0  0  0  0  0  0
   25.6696  -19.7336  -15.8719 N   0  0  0  0  0  0  0  0  0  0  0  0
   26.4905  -19.9206  -14.7265 C   0  0  0  0  0  0  0  0  0  0  0  0
   25.8704  -20.6631  -13.6332 C   0  0  0  0  0  0  0  0  0  0  0  0
   25.6649  -21.9295  -13.7977 O   0  0  0  0  0  0  0  0  0  0  0  0
   26.4822  -19.4150   -8.3266 C   0  0  0  0  0  0  0  0  0  0  0  0
   25.8371  -19.5452   -9.6843 C   0  0  0  0  0  0  0  0  0  0  0  0
   25.8492  -20.9752  -10.1736 C   0  0  2  0  0  0  0  0  0  0  0  0
   27.2324  -21.4447  -10.5563 C   0  0  0  0  0  0  0  0  0  0  0  0
   24.9107  -21.0601  -11.3677 C   0  0  2  0  0  0  0  0  0  0  0  0
   25.4499  -20.1778  -12.3814 N   0  0  0  0  0  0  0  0  0  0  0  0
   23.5376  -20.6510  -10.9642 C   0  0  0  0  0  0  0  0  0  0  0  0
   22.7250  -21.4168  -10.1619 O   0  0  0  0  0  0  0  0  0  0  0  0
   23.1102  -19.5527  -11.3815 O   0  0  0  0  0  0  0  0  0  0  0  0
  2  1  1  1
  2  3  1  0
  4  3  1  0
  4  5  2  0
  6  5  1  0
  7  6  1  0
  8  7  2  0
  8  4  1  0
  9  2  1  0
  9 11  1  0
 10  9  2  0
 12 11  1  0
 12 13  1  0
 13 20  1  0
 14 13  2  0
 16 15  1  0
 17 16  1  0
 17 18  1  6
 19 21  1  0
 19 17  1  0
 19 20  1  6
 21 22  1  0
 23 21  2  0
M  END
$$$$
