HGI.pdb
     RDKit          3D

 23 23  0  0  1  0  0  0  0  0999 V2000
   19.4257  -22.9479  -15.5458 N   0  0  0  0  0  0  0  0  0  0  0  0
   18.0887  -23.0132  -16.0602 C   0  0  1  0  0  0  0  0  0  0  0  0
   18.1131  -23.7178  -17.4138 C   0  0  0  0  0  0  0  0  0  0  0  0
   19.0411  -22.9659  -18.2987 C   0  0  0  0  0  0  0  0  0  0  0  0
   18.8088  -21.7318  -18.9098 C   0  0  0  0  0  0  0  0  0  0  0  0
   19.8861  -21.3835  -19.6301 N   0  0  0  0  0  0  0  0  0  0  0  0
   20.7895  -22.3551  -19.4942 C   0  0  0  0  0  0  0  0  0  0  0  0
   20.2841  -23.3160  -18.6895 N   0  0  0  0  0  0  0  0  0  0  0  0
   17.2127  -23.6804  -15.1062 C   0  0  0  0  0  0  0  0  0  0  0  0
   17.3930  -24.8578  -14.7623 O   0  0  0  0  0  0  0  0  0  0  0  0
   16.1058  -22.9591  -14.5437 N   0  0  0  0  0  0  0  0  0  0  0  0
   15.1715  -23.5675  -13.6619 C   0  0  0  0  0  0  0  0  0  0  0  0
   14.0677  -22.7104  -13.2398 C   0  0  0  0  0  0  0  0  0  0  0  0
   14.0872  -21.4697  -13.6048 O   0  0  0  0  0  0  0  0  0  0  0  0
    8.3313  -21.8198  -13.4538 C   0  0  0  0  0  0  0  0  0  0  0  0
    9.5556  -21.5753  -12.6066 C   0  0  0  0  0  0  0  0  0  0  0  0
   10.6895  -22.5008  -12.9835 C   0  0  2  0  0  0  0  0  0  0  0  0
   10.3547  -23.9538  -12.7450 C   0  0  0  0  0  0  0  0  0  0  0  0
   11.9054  -22.0950  -12.1644 C   0  0  2  0  0  0  0  0  0  0  0  0
   12.9460  -23.0562  -12.4643 N   0  0  0  0  0  0  0  0  0  0  0  0
   11.5644  -22.0959  -10.7154 C   0  0  0  0  0  0  0  0  0  0  0  0
   11.0324  -21.0091  -10.0626 O   0  0  0  0  0  0  0  0  0  0  0  0
   11.7764  -23.1438  -10.0673 O   0  0  0  0  0  0  0  0  0  0  0  0
  2  1  1  1
  2  3  1  0
  4  3  1  0
  4  5  2  0
  6  5  1  0
  7  6  1  0
  8  7  2  0
  8  4  1  0
  9  2  1  0
  9 11  1  0
 10  9  2  0
 12 11  1  0
 12 13  1  0
 13 20  1  0
 14 13  2  0
 16 15  1  0
 17 16  1  0
 17 18  1  1
 19 21  1  0
 19 17  1  0
 19 20  1  1
 21 22  1  0
 23 21  2  0
M  END
$$$$
