IDT.pdb
     RDKit          3D

 24 23  0  0  1  0  0  0  0  0999 V2000
    6.7070  -11.5136   27.3050 C   0  0  0  0  0  0  0  0  0  0  0  0
    6.1323  -12.5428   26.3844 C   0  0  0  0  0  0  0  0  0  0  0  0
    7.1809  -13.5402   25.9713 C   0  0  2  0  0  0  0  0  0  0  0  0
    8.2612  -12.7757   25.2118 C   0  0  0  0  0  0  0  0  0  0  0  0
    6.5805  -14.5101   24.9541 C   0  0  2  0  0  0  0  0  0  0  0  0
    5.5376  -15.2166   25.6916 N   0  0  0  0  0  0  0  0  0  0  0  0
    7.6122  -15.5018   24.5232 C   0  0  0  0  0  0  0  0  0  0  0  0
    7.8296  -16.5120   25.2567 O   0  0  0  0  0  0  0  0  0  0  0  0
    8.3491  -15.3400   23.3184 N   0  0  0  0  0  0  0  0  0  0  0  0
    9.3758  -16.2993   22.9686 C   0  0  1  0  0  0  0  0  0  0  0  0
    9.9539  -15.8971   21.6508 C   0  0  0  0  0  0  0  0  0  0  0  0
   10.7952  -16.9822   21.0748 C   0  0  0  0  0  0  0  0  0  0  0  0
   11.7392  -17.4130   21.8304 O   0  0  0  0  0  0  0  0  0  0  0  0
   10.3690  -16.4863   24.0435 C   0  0  0  0  0  0  0  0  0  0  0  0
   11.0588  -15.4785   24.3346 O   0  0  0  0  0  0  0  0  0  0  0  0
   10.6262  -17.5362   19.8202 O   0  0  0  0  0  0  0  0  0  0  0  0
   11.6398  -18.5123   28.2862 C   0  0  0  0  0  0  0  0  0  0  0  0
   10.7078  -18.0541   27.1761 C   0  0  1  0  0  0  0  0  0  0  0  0
    9.9599  -16.9355   27.5321 O   0  0  0  0  0  0  0  0  0  0  0  0
   11.4159  -17.9181   25.8779 C   0  0  2  0  0  0  0  0  0  0  0  0
   10.5722  -17.6963   24.7323 N   0  0  0  0  0  0  0  0  0  0  0  0
   12.4272  -18.9695   25.6111 C   0  0  0  0  0  0  0  0  0  0  0  0
   12.3392  -19.7432   24.4363 O   0  0  0  0  0  0  0  0  0  0  0  0
   13.3930  -19.2559   26.3498 O   0  0  0  0  0  0  0  0  0  0  0  0
  2  1  1  0
  3  4  1  6
  3  2  1  0
  5  3  1  0
  5  6  1  1
  7  8  2  0
  7  5  1  0
  9  7  1  0
 10  9  1  0
 10 11  1  6
 12 11  1  0
 13 12  2  0
 14 10  1  0
 15 14  2  0
 16 12  1  0
 18 17  1  1
 19 18  1  0
 20 18  1  0
 20 21  1  6
 21 14  1  0
 22 20  1  0
 23 22  1  0
 24 22  2  0
M  END
$$$$
