IDT.pdb
     RDKit          3D

 24 23  0  0  1  0  0  0  0  0999 V2000
    7.0099  -12.7003   26.3388 C   0  0  0  0  0  0  0  0  0  0  0  0
    7.0347  -13.9494   25.5167 C   0  0  0  0  0  0  0  0  0  0  0  0
    7.7750  -13.7284   24.2251 C   0  0  2  0  0  0  0  0  0  0  0  0
    6.9227  -12.7989   23.3659 C   0  0  0  0  0  0  0  0  0  0  0  0
    7.8430  -15.0450   23.4519 C   0  0  2  0  0  0  0  0  0  0  0  0
    6.5225  -15.6419   23.6265 N   0  0  0  0  0  0  0  0  0  0  0  0
    8.8588  -15.9494   24.0715 C   0  0  0  0  0  0  0  0  0  0  0  0
    8.4821  -16.7684   24.9622 O   0  0  0  0  0  0  0  0  0  0  0  0
   10.2269  -15.9132   23.6874 N   0  0  0  0  0  0  0  0  0  0  0  0
   11.1970  -16.7141   24.4046 C   0  0  1  0  0  0  0  0  0  0  0  0
   12.4389  -16.7857   23.5770 C   0  0  0  0  0  0  0  0  0  0  0  0
   12.1657  -17.3843   22.2412 C   0  0  0  0  0  0  0  0  0  0  0  0
   11.4929  -18.4775   22.2501 O   0  0  0  0  0  0  0  0  0  0  0  0
   11.4072  -16.2479   25.7885 C   0  0  0  0  0  0  0  0  0  0  0  0
   11.6992  -15.0339   25.9202 O   0  0  0  0  0  0  0  0  0  0  0  0
   12.5762  -16.8519   21.0340 O   0  0  0  0  0  0  0  0  0  0  0  0
   10.8158  -14.2933   27.7542 C   0  0  0  0  0  0  0  0  0  0  0  0
   10.5229  -15.4815   28.6560 C   0  0  1  0  0  0  0  0  0  0  0  0
    9.1620  -15.7568   28.7542 O   0  0  0  0  0  0  0  0  0  0  0  0
   11.3533  -16.6617   28.3058 C   0  0  2  0  0  0  0  0  0  0  0  0
   11.3001  -17.0694   26.9258 N   0  0  0  0  0  0  0  0  0  0  0  0
   11.2001  -17.8197   29.2195 C   0  0  0  0  0  0  0  0  0  0  0  0
   11.5181  -17.6803   30.5855 O   0  0  0  0  0  0  0  0  0  0  0  0
   10.8010  -18.9576   28.8933 O   0  0  0  0  0  0  0  0  0  0  0  0
  2  1  1  0
  3  4  1  6
  3  2  1  0
  5  3  1  0
  5  6  1  1
  7  8  2  0
  7  5  1  0
  9  7  1  0
 10  9  1  0
 10 11  1  6
 12 11  1  0
 13 12  2  0
 14 10  1  0
 15 14  2  0
 16 12  1  0
 18 17  1  6
 19 18  1  0
 20 18  1  0
 20 21  1  6
 21 14  1  0
 22 20  1  0
 23 22  1  0
 24 22  2  0
M  END
$$$$
