IDT.pdb
     RDKit          3D

 24 23  0  0  1  0  0  0  0  0999 V2000
    7.2946  -12.2861   21.7540 C   0  0  0  0  0  0  0  0  0  0  0  0
    7.3271  -13.7069   21.2879 C   0  0  0  0  0  0  0  0  0  0  0  0
    8.2028  -13.8541   20.0727 C   0  0  2  0  0  0  0  0  0  0  0  0
    7.5340  -13.0883   18.9349 C   0  0  0  0  0  0  0  0  0  0  0  0
    8.2066  -15.3166   19.6289 C   0  0  2  0  0  0  0  0  0  0  0  0
    6.7949  -15.6756   19.5355 N   0  0  0  0  0  0  0  0  0  0  0  0
    8.8446  -16.1674   20.6789 C   0  0  0  0  0  0  0  0  0  0  0  0
    8.0995  -16.8138   21.4745 O   0  0  0  0  0  0  0  0  0  0  0  0
   10.2569  -16.2686   20.8046 N   0  0  0  0  0  0  0  0  0  0  0  0
   10.8292  -17.1377   21.8115 C   0  0  1  0  0  0  0  0  0  0  0  0
   12.2573  -17.3863   21.4491 C   0  0  0  0  0  0  0  0  0  0  0  0
   12.9323  -18.2418   22.4639 C   0  0  0  0  0  0  0  0  0  0  0  0
   12.2113  -19.1748   22.9712 O   0  0  0  0  0  0  0  0  0  0  0  0
   10.6225  -16.6328   23.1823 C   0  0  0  0  0  0  0  0  0  0  0  0
   11.3554  -15.6748   23.5307 O   0  0  0  0  0  0  0  0  0  0  0  0
   14.2431  -18.0988   22.8769 O   0  0  0  0  0  0  0  0  0  0  0  0
    7.9203  -14.8075   24.9783 C   0  0  0  0  0  0  0  0  0  0  0  0
    8.0972  -16.1377   25.6927 C   0  0  1  0  0  0  0  0  0  0  0  0
    7.0389  -17.0127   25.4654 O   0  0  0  0  0  0  0  0  0  0  0  0
    9.4350  -16.7302   25.4388 C   0  0  2  0  0  0  0  0  0  0  0  0
    9.6775  -17.1552   24.0845 N   0  0  0  0  0  0  0  0  0  0  0  0
    9.8482  -17.7675   26.4148 C   0  0  0  0  0  0  0  0  0  0  0  0
    9.9529  -17.4402   27.7817 O   0  0  0  0  0  0  0  0  0  0  0  0
   10.1260  -18.9546   26.1428 O   0  0  0  0  0  0  0  0  0  0  0  0
  2  1  1  0
  3  4  1  6
  3  2  1  0
  5  3  1  0
  5  6  1  1
  7  8  2  0
  7  5  1  0
  9  7  1  0
 10  9  1  0
 10 11  1  6
 12 11  1  0
 13 12  2  0
 14 10  1  0
 15 14  2  0
 16 12  1  0
 18 17  1  6
 19 18  1  0
 20 18  1  0
 20 21  1  6
 21 14  1  0
 22 20  1  0
 23 22  1  0
 24 22  2  0
M  END
$$$$
