IDT.pdb
     RDKit          3D

 24 23  0  0  1  0  0  0  0  0999 V2000
    7.4209  -12.1820   21.2310 C   0  0  0  0  0  0  0  0  0  0  0  0
    7.3716  -13.6193   20.8205 C   0  0  0  0  0  0  0  0  0  0  0  0
    8.2965  -13.8797   19.6622 C   0  0  2  0  0  0  0  0  0  0  0  0
    7.7069  -13.1771   18.4428 C   0  0  0  0  0  0  0  0  0  0  0  0
    8.2710  -15.3696   19.3224 C   0  0  2  0  0  0  0  0  0  0  0  0
    6.8528  -15.6966   19.2111 N   0  0  0  0  0  0  0  0  0  0  0  0
    8.8537  -16.1605   20.4487 C   0  0  0  0  0  0  0  0  0  0  0  0
    8.0680  -16.7088   21.2781 O   0  0  0  0  0  0  0  0  0  0  0  0
   10.2580  -16.3116   20.6096 N   0  0  0  0  0  0  0  0  0  0  0  0
   10.7741  -17.1695   21.6558 C   0  0  1  0  0  0  0  0  0  0  0  0
   12.1833  -17.5244   21.3085 C   0  0  0  0  0  0  0  0  0  0  0  0
   12.7391  -18.5270   22.2589 C   0  0  0  0  0  0  0  0  0  0  0  0
   11.8804  -19.1147   23.0105 O   0  0  0  0  0  0  0  0  0  0  0  0
   10.6003  -16.5917   23.0021 C   0  0  0  0  0  0  0  0  0  0  0  0
   11.3867  -15.6612   23.3056 O   0  0  0  0  0  0  0  0  0  0  0  0
   14.0766  -18.8535   22.3756 O   0  0  0  0  0  0  0  0  0  0  0  0
    7.8479  -14.6408   24.7134 C   0  0  0  0  0  0  0  0  0  0  0  0
    8.0602  -15.9265   25.4964 C   0  0  1  0  0  0  0  0  0  0  0  0
    7.0158  -16.8319   25.3328 O   0  0  0  0  0  0  0  0  0  0  0  0
    9.4054  -16.5072   25.2552 C   0  0  2  0  0  0  0  0  0  0  0  0
    9.6307  -17.0186   23.9281 N   0  0  0  0  0  0  0  0  0  0  0  0
    9.8602  -17.4669   26.2904 C   0  0  0  0  0  0  0  0  0  0  0  0
    9.9402  -17.0580   27.6368 O   0  0  0  0  0  0  0  0  0  0  0  0
   10.1953  -18.6531   26.0876 O   0  0  0  0  0  0  0  0  0  0  0  0
  2  1  1  0
  3  4  1  6
  3  2  1  0
  5  3  1  0
  5  6  1  1
  7  8  2  0
  7  5  1  0
  9  7  1  0
 10  9  1  0
 10 11  1  6
 12 11  1  0
 13 12  2  0
 14 10  1  0
 15 14  2  0
 16 12  1  0
 18 17  1  6
 19 18  1  0
 20 18  1  0
 20 21  1  6
 21 14  1  0
 22 20  1  0
 23 22  1  0
 24 22  2  0
M  END
$$$$
