IDT.pdb
     RDKit          3D

 24 23  0  0  1  0  0  0  0  0999 V2000
    7.3299  -11.7530   18.8486 C   0  0  0  0  0  0  0  0  0  0  0  0
    8.0797  -12.8759   18.2054 C   0  0  0  0  0  0  0  0  0  0  0  0
    8.6000  -13.8373   19.2399 C   0  0  2  0  0  0  0  0  0  0  0  0
    9.6071  -13.0788   20.0996 C   0  0  0  0  0  0  0  0  0  0  0  0
    9.4057  -14.9356   18.5468 C   0  0  2  0  0  0  0  0  0  0  0  0
    8.4907  -15.4916   17.5547 N   0  0  0  0  0  0  0  0  0  0  0  0
    9.7536  -16.0094   19.5264 C   0  0  0  0  0  0  0  0  0  0  0  0
    9.5428  -17.2172   19.2063 O   0  0  0  0  0  0  0  0  0  0  0  0
   10.3121  -15.7097   20.7989 N   0  0  0  0  0  0  0  0  0  0  0  0
   11.2383  -16.6370   21.4145 C   0  0  1  0  0  0  0  0  0  0  0  0
   12.3923  -16.8231   20.4838 C   0  0  0  0  0  0  0  0  0  0  0  0
   13.3264  -17.8700   20.9822 C   0  0  0  0  0  0  0  0  0  0  0  0
   14.5567  -17.7210   20.6475 O   0  0  0  0  0  0  0  0  0  0  0  0
   11.6127  -16.2405   22.7854 C   0  0  0  0  0  0  0  0  0  0  0  0
   12.0815  -15.0828   22.9131 O   0  0  0  0  0  0  0  0  0  0  0  0
   12.9625  -18.9538   21.7583 O   0  0  0  0  0  0  0  0  0  0  0  0
    9.1841  -15.1642   23.9067 C   0  0  0  0  0  0  0  0  0  0  0  0
    9.2144  -16.4541   24.7105 C   0  0  1  0  0  0  0  0  0  0  0  0
    8.4451  -17.4616   24.1356 O   0  0  0  0  0  0  0  0  0  0  0  0
   10.6012  -16.8688   25.0422 C   0  0  2  0  0  0  0  0  0  0  0  0
   11.4746  -17.0682   23.9148 N   0  0  0  0  0  0  0  0  0  0  0  0
   10.6979  -17.9901   26.0079 C   0  0  0  0  0  0  0  0  0  0  0  0
   10.2113  -17.8271   27.3206 O   0  0  0  0  0  0  0  0  0  0  0  0
   11.1869  -19.1151   25.7719 O   0  0  0  0  0  0  0  0  0  0  0  0
  2  1  1  0
  3  4  1  1
  3  2  1  0
  5  3  1  0
  5  6  1  6
  7  8  2  0
  7  5  1  0
  9  7  1  0
 10  9  1  0
 10 11  1  6
 12 11  1  0
 13 12  2  0
 14 10  1  0
 15 14  2  0
 16 12  1  0
 18 17  1  6
 19 18  1  0
 20 18  1  0
 20 21  1  6
 21 14  1  0
 22 20  1  0
 23 22  1  0
 24 22  2  0
M  END
$$$$
