IDT.pdb
     RDKit          3D

 24 23  0  0  1  0  0  0  0  0999 V2000
    6.0048  -11.7307   27.0222 C   0  0  0  0  0  0  0  0  0  0  0  0
    5.7832  -12.8560   26.0622 C   0  0  0  0  0  0  0  0  0  0  0  0
    7.0205  -13.7028   25.9315 C   0  0  2  0  0  0  0  0  0  0  0  0
    8.1311  -12.8051   25.3939 C   0  0  0  0  0  0  0  0  0  0  0  0
    6.7956  -14.7597   24.8507 C   0  0  2  0  0  0  0  0  0  0  0  0
    5.6485  -15.5291   25.3226 N   0  0  0  0  0  0  0  0  0  0  0  0
    7.9783  -15.6700   24.7725 C   0  0  0  0  0  0  0  0  0  0  0  0
    8.0056  -16.6979   25.5132 O   0  0  0  0  0  0  0  0  0  0  0  0
    9.0647  -15.4122   23.8927 N   0  0  0  0  0  0  0  0  0  0  0  0
   10.1961  -16.3154   23.8626 C   0  0  1  0  0  0  0  0  0  0  0  0
   10.9806  -16.0316   22.6230 C   0  0  0  0  0  0  0  0  0  0  0  0
   12.1543  -16.9403   22.5051 C   0  0  0  0  0  0  0  0  0  0  0  0
   11.8896  -18.1959   22.5393 O   0  0  0  0  0  0  0  0  0  0  0  0
   10.9842  -16.2810   25.1094 C   0  0  0  0  0  0  0  0  0  0  0  0
   12.1626  -16.7062   25.0257 O   0  0  0  0  0  0  0  0  0  0  0  0
   13.4657  -16.5285   22.3640 O   0  0  0  0  0  0  0  0  0  0  0  0
   10.9393  -13.4719   28.1635 C   0  0  0  0  0  0  0  0  0  0  0  0
   10.6959  -14.8973   28.6322 C   0  0  1  0  0  0  0  0  0  0  0  0
    9.3964  -15.0962   29.0896 O   0  0  0  0  0  0  0  0  0  0  0  0
   11.1410  -15.8956   27.6270 C   0  0  2  0  0  0  0  0  0  0  0  0
   10.4954  -15.8117   26.3426 N   0  0  0  0  0  0  0  0  0  0  0  0
   11.1867  -17.2933   28.1205 C   0  0  0  0  0  0  0  0  0  0  0  0
   11.9099  -17.5989   29.2911 O   0  0  0  0  0  0  0  0  0  0  0  0
   10.6274  -18.2738   27.5855 O   0  0  0  0  0  0  0  0  0  0  0  0
  2  1  1  0
  3  4  1  6
  3  2  1  0
  5  3  1  0
  5  6  1  1
  7  8  2  0
  7  5  1  0
  9  7  1  0
 10  9  1  0
 10 11  1  6
 12 11  1  0
 13 12  2  0
 14 10  1  0
 15 14  2  0
 16 12  1  0
 18 17  1  6
 19 18  1  0
 20 18  1  0
 20 21  1  6
 21 14  1  0
 22 20  1  0
 23 22  1  0
 24 22  2  0
M  END
$$$$
