IDT.pdb
     RDKit          3D

 24 23  0  0  1  0  0  0  0  0999 V2000
    5.7106  -11.5505   26.1519 C   0  0  0  0  0  0  0  0  0  0  0  0
    5.6111  -12.9213   25.5621 C   0  0  0  0  0  0  0  0  0  0  0  0
    6.9414  -13.6237   25.6068 C   0  0  2  0  0  0  0  0  0  0  0  0
    7.9002  -12.8383   24.7167 C   0  0  0  0  0  0  0  0  0  0  0  0
    6.8088  -14.9959   24.9470 C   0  0  2  0  0  0  0  0  0  0  0  0
    5.7644  -15.6712   25.7110 N   0  0  0  0  0  0  0  0  0  0  0  0
    8.0822  -15.7627   25.1027 C   0  0  0  0  0  0  0  0  0  0  0  0
    8.2795  -16.4035   26.1779 O   0  0  0  0  0  0  0  0  0  0  0  0
    9.0692  -15.7904   24.0801 N   0  0  0  0  0  0  0  0  0  0  0  0
   10.2550  -16.6046   24.2466 C   0  0  1  0  0  0  0  0  0  0  0  0
   11.0538  -16.5200   22.9868 C   0  0  0  0  0  0  0  0  0  0  0  0
   12.1027  -17.5758   22.9388 C   0  0  0  0  0  0  0  0  0  0  0  0
   12.1200  -18.3866   23.9338 O   0  0  0  0  0  0  0  0  0  0  0  0
   11.0051  -16.2723   25.4729 C   0  0  0  0  0  0  0  0  0  0  0  0
   11.5685  -15.1504   25.4844 O   0  0  0  0  0  0  0  0  0  0  0  0
   13.0256  -17.7319   21.9223 O   0  0  0  0  0  0  0  0  0  0  0  0
   10.9473  -14.3538   27.5912 C   0  0  0  0  0  0  0  0  0  0  0  0
   10.8065  -15.5711   28.4909 C   0  0  1  0  0  0  0  0  0  0  0  0
    9.4879  -15.8093   28.8673 O   0  0  0  0  0  0  0  0  0  0  0  0
   11.4975  -16.7593   27.9288 C   0  0  2  0  0  0  0  0  0  0  0  0
   11.1149  -17.1222   26.5889 N   0  0  0  0  0  0  0  0  0  0  0  0
   11.5239  -17.9413   28.8240 C   0  0  0  0  0  0  0  0  0  0  0  0
   10.9472  -19.1548   28.3982 O   0  0  0  0  0  0  0  0  0  0  0  0
   12.0254  -17.9784   29.9675 O   0  0  0  0  0  0  0  0  0  0  0  0
  2  1  1  0
  3  4  1  6
  3  2  1  0
  5  3  1  0
  5  6  1  1
  7  8  2  0
  7  5  1  0
  9  7  1  0
 10  9  1  0
 10 11  1  6
 12 11  1  0
 13 12  2  0
 14 10  1  0
 15 14  2  0
 16 12  1  0
 18 17  1  6
 19 18  1  0
 20 18  1  0
 20 21  1  6
 21 14  1  0
 22 20  1  0
 23 22  1  0
 24 22  2  0
M  END
$$$$
