IDT.pdb
     RDKit          3D

 24 23  0  0  1  0  0  0  0  0999 V2000
    5.5657  -11.2428   26.2925 C   0  0  0  0  0  0  0  0  0  0  0  0
    5.3893  -12.5417   25.5724 C   0  0  0  0  0  0  0  0  0  0  0  0
    6.6608  -13.3465   25.5958 C   0  0  2  0  0  0  0  0  0  0  0  0
    7.7129  -12.5570   24.8223 C   0  0  0  0  0  0  0  0  0  0  0  0
    6.4560  -14.6352   24.8002 C   0  0  2  0  0  0  0  0  0  0  0  0
    5.3853  -15.3348   25.5036 N   0  0  0  0  0  0  0  0  0  0  0  0
    7.6912  -15.4744   24.8602 C   0  0  0  0  0  0  0  0  0  0  0  0
    7.8831  -16.2034   25.8789 O   0  0  0  0  0  0  0  0  0  0  0  0
    8.6481  -15.4747   23.8090 N   0  0  0  0  0  0  0  0  0  0  0  0
    9.7739  -16.3839   23.8610 C   0  0  1  0  0  0  0  0  0  0  0  0
   10.4623  -16.3427   22.5356 C   0  0  0  0  0  0  0  0  0  0  0  0
   11.4677  -17.4342   22.4135 C   0  0  0  0  0  0  0  0  0  0  0  0
   11.5914  -18.1924   23.4419 O   0  0  0  0  0  0  0  0  0  0  0  0
   10.6541  -16.1331   25.0182 C   0  0  0  0  0  0  0  0  0  0  0  0
   11.5336  -15.2516   24.8578 O   0  0  0  0  0  0  0  0  0  0  0  0
   12.2474  -17.6738   21.2981 O   0  0  0  0  0  0  0  0  0  0  0  0
    9.5585  -14.7635   28.0623 C   0  0  0  0  0  0  0  0  0  0  0  0
   11.0340  -15.1228   27.9927 C   0  0  1  0  0  0  0  0  0  0  0  0
   11.7065  -14.8575   29.1821 O   0  0  0  0  0  0  0  0  0  0  0  0
   11.2464  -16.4977   27.4733 C   0  0  2  0  0  0  0  0  0  0  0  0
   10.5579  -16.8103   26.2479 N   0  0  0  0  0  0  0  0  0  0  0  0
   11.0764  -17.5731   28.4803 C   0  0  0  0  0  0  0  0  0  0  0  0
   11.8119  -17.5295   29.6817 O   0  0  0  0  0  0  0  0  0  0  0  0
   10.3163  -18.5586   28.3728 O   0  0  0  0  0  0  0  0  0  0  0  0
  2  1  1  0
  3  4  1  6
  3  2  1  0
  5  3  1  0
  5  6  1  1
  7  8  2  0
  7  5  1  0
  9  7  1  0
 10  9  1  0
 10 11  1  6
 12 11  1  0
 13 12  2  0
 14 10  1  0
 15 14  2  0
 16 12  1  0
 18 17  1  1
 19 18  1  0
 20 18  1  0
 20 21  1  6
 21 14  1  0
 22 20  1  0
 23 22  1  0
 24 22  2  0
M  END
$$$$
