IDT.pdb
     RDKit          3D

 24 23  0  0  1  0  0  0  0  0999 V2000
    5.8446  -11.3322   26.8668 C   0  0  0  0  0  0  0  0  0  0  0  0
    5.5810  -12.5538   26.0453 C   0  0  0  0  0  0  0  0  0  0  0  0
    6.8174  -13.4049   25.9353 C   0  0  2  0  0  0  0  0  0  0  0  0
    7.8732  -12.5806   25.2043 C   0  0  0  0  0  0  0  0  0  0  0  0
    6.5296  -14.5956   25.0215 C   0  0  2  0  0  0  0  0  0  0  0  0
    5.4068  -15.2809   25.6541 N   0  0  0  0  0  0  0  0  0  0  0  0
    7.7025  -15.5217   25.0045 C   0  0  0  0  0  0  0  0  0  0  0  0
    7.7919  -16.4078   25.9060 O   0  0  0  0  0  0  0  0  0  0  0  0
    8.7121  -15.4331   24.0076 N   0  0  0  0  0  0  0  0  0  0  0  0
    9.8293  -16.3539   24.0313 C   0  0  1  0  0  0  0  0  0  0  0  0
   10.5434  -16.2470   22.7231 C   0  0  0  0  0  0  0  0  0  0  0  0
   11.5828  -17.3044   22.5858 C   0  0  0  0  0  0  0  0  0  0  0  0
   12.3313  -17.2151   21.5468 O   0  0  0  0  0  0  0  0  0  0  0  0
   10.6891  -16.1743   25.2167 C   0  0  0  0  0  0  0  0  0  0  0  0
   11.6683  -15.4018   25.0724 O   0  0  0  0  0  0  0  0  0  0  0  0
   11.7851  -18.3391   23.4790 O   0  0  0  0  0  0  0  0  0  0  0  0
   10.5714  -14.1968   27.9357 C   0  0  0  0  0  0  0  0  0  0  0  0
   10.6288  -15.5670   28.5916 C   0  0  1  0  0  0  0  0  0  0  0  0
    9.4185  -15.9335   29.1732 O   0  0  0  0  0  0  0  0  0  0  0  0
   11.1965  -16.5943   27.6819 C   0  0  2  0  0  0  0  0  0  0  0  0
   10.4715  -16.8047   26.4557 N   0  0  0  0  0  0  0  0  0  0  0  0
   11.5388  -17.8801   28.3368 C   0  0  0  0  0  0  0  0  0  0  0  0
   12.4529  -17.8976   29.4094 O   0  0  0  0  0  0  0  0  0  0  0  0
   11.0829  -19.0007   28.0254 O   0  0  0  0  0  0  0  0  0  0  0  0
  2  1  1  0
  3  4  1  6
  3  2  1  0
  5  3  1  0
  5  6  1  1
  7  8  2  0
  7  5  1  0
  9  7  1  0
 10  9  1  0
 10 11  1  6
 12 11  1  0
 13 12  2  0
 14 10  1  0
 15 14  2  0
 16 12  1  0
 18 17  1  6
 19 18  1  0
 20 18  1  0
 20 21  1  6
 21 14  1  0
 22 20  1  0
 23 22  1  0
 24 22  2  0
M  END
$$$$
