IDT.pdb
     RDKit          3D

 24 23  0  0  1  0  0  0  0  0999 V2000
    6.1231  -11.4755   26.3901 C   0  0  0  0  0  0  0  0  0  0  0  0
    6.0787  -12.6106   25.4173 C   0  0  0  0  0  0  0  0  0  0  0  0
    7.1196  -13.6453   25.7506 C   0  0  2  0  0  0  0  0  0  0  0  0
    8.4808  -12.9589   25.6835 C   0  0  0  0  0  0  0  0  0  0  0  0
    7.1464  -14.7055   24.6501 C   0  0  2  0  0  0  0  0  0  0  0  0
    5.8361  -15.3445   24.7240 N   0  0  0  0  0  0  0  0  0  0  0  0
    8.1919  -15.7297   24.9528 C   0  0  0  0  0  0  0  0  0  0  0  0
    8.0248  -16.4944   25.9493 O   0  0  0  0  0  0  0  0  0  0  0  0
    9.3602  -15.8655   24.1544 N   0  0  0  0  0  0  0  0  0  0  0  0
   10.4185  -16.7603   24.5742 C   0  0  1  0  0  0  0  0  0  0  0  0
   11.4204  -16.8411   23.4687 C   0  0  0  0  0  0  0  0  0  0  0  0
   10.7812  -17.2502   22.1876 C   0  0  0  0  0  0  0  0  0  0  0  0
   10.9747  -16.4609   21.1940 O   0  0  0  0  0  0  0  0  0  0  0  0
   10.9820  -16.3969   25.8884 C   0  0  0  0  0  0  0  0  0  0  0  0
   11.2106  -15.1756   26.0688 O   0  0  0  0  0  0  0  0  0  0  0  0
   10.0203  -18.3897   22.0088 O   0  0  0  0  0  0  0  0  0  0  0  0
   10.3599  -14.8485   28.1843 C   0  0  0  0  0  0  0  0  0  0  0  0
   10.5866  -16.1297   28.9706 C   0  0  1  0  0  0  0  0  0  0  0  0
    9.3961  -16.7486   29.3408 O   0  0  0  0  0  0  0  0  0  0  0  0
   11.5509  -17.0331   28.2932 C   0  0  2  0  0  0  0  0  0  0  0  0
   11.2652  -17.3206   26.9115 N   0  0  0  0  0  0  0  0  0  0  0  0
   11.8778  -18.2675   29.0474 C   0  0  0  0  0  0  0  0  0  0  0  0
   12.4575  -18.1721   30.3285 O   0  0  0  0  0  0  0  0  0  0  0  0
   11.6855  -19.4363   28.6508 O   0  0  0  0  0  0  0  0  0  0  0  0
  2  1  1  0
  3  4  1  6
  3  2  1  0
  5  3  1  0
  5  6  1  1
  7  8  2  0
  7  5  1  0
  9  7  1  0
 10  9  1  0
 10 11  1  6
 12 11  1  0
 13 12  2  0
 14 10  1  0
 15 14  2  0
 16 12  1  0
 18 17  1  6
 19 18  1  0
 20 18  1  0
 20 21  1  6
 21 14  1  0
 22 20  1  0
 23 22  1  0
 24 22  2  0
M  END
$$$$
