IDT.pdb
     RDKit          3D

 24 23  0  0  1  0  0  0  0  0999 V2000
    7.2579  -11.8926   19.0576 C   0  0  0  0  0  0  0  0  0  0  0  0
    7.7223  -13.2435   18.6145 C   0  0  0  0  0  0  0  0  0  0  0  0
    8.1345  -14.0837   19.7932 C   0  0  2  0  0  0  0  0  0  0  0  0
    9.3395  -13.4038   20.4369 C   0  0  0  0  0  0  0  0  0  0  0  0
    8.6500  -15.4331   19.2941 C   0  0  2  0  0  0  0  0  0  0  0  0
    7.4968  -16.0497   18.6457 N   0  0  0  0  0  0  0  0  0  0  0  0
    9.0552  -16.2855   20.4530 C   0  0  0  0  0  0  0  0  0  0  0  0
    8.1515  -16.8485   21.1401 O   0  0  0  0  0  0  0  0  0  0  0  0
   10.4203  -16.4787   20.7992 N   0  0  0  0  0  0  0  0  0  0  0  0
   10.7649  -17.3262   21.9216 C   0  0  1  0  0  0  0  0  0  0  0  0
   12.2001  -17.7175   21.7810 C   0  0  0  0  0  0  0  0  0  0  0  0
   12.6379  -18.5844   22.9098 C   0  0  0  0  0  0  0  0  0  0  0  0
   13.1734  -17.9733   23.9035 O   0  0  0  0  0  0  0  0  0  0  0  0
   10.4185  -16.7182   23.2204 C   0  0  0  0  0  0  0  0  0  0  0  0
   10.9948  -15.6359   23.4908 O   0  0  0  0  0  0  0  0  0  0  0  0
   12.5054  -19.9592   22.9522 O   0  0  0  0  0  0  0  0  0  0  0  0
    7.4327  -15.0626   24.3879 C   0  0  0  0  0  0  0  0  0  0  0  0
    7.6358  -16.2138   25.3598 C   0  0  1  0  0  0  0  0  0  0  0  0
    6.6961  -17.2271   25.1937 O   0  0  0  0  0  0  0  0  0  0  0  0
    9.0421  -16.6907   25.3689 C   0  0  2  0  0  0  0  0  0  0  0  0
    9.5066  -17.2735   24.1368 N   0  0  0  0  0  0  0  0  0  0  0  0
    9.4034  -17.5309   26.5363 C   0  0  0  0  0  0  0  0  0  0  0  0
    9.9730  -18.8039   26.3328 O   0  0  0  0  0  0  0  0  0  0  0  0
    9.2501  -17.2168   27.7356 O   0  0  0  0  0  0  0  0  0  0  0  0
  2  1  1  0
  3  4  1  6
  3  2  1  0
  5  3  1  0
  5  6  1  1
  7  8  2  0
  7  5  1  0
  9  7  1  0
 10  9  1  0
 10 11  1  1
 12 11  1  0
 13 12  2  0
 14 10  1  0
 15 14  2  0
 16 12  1  0
 18 17  1  6
 19 18  1  0
 20 18  1  0
 20 21  1  6
 21 14  1  0
 22 20  1  0
 23 22  1  0
 24 22  2  0
M  END
$$$$
