IDT.pdb
     RDKit          3D

 24 23  0  0  1  0  0  0  0  0999 V2000
    8.1435  -11.8609   27.6531 C   0  0  0  0  0  0  0  0  0  0  0  0
    7.3755  -13.0406   27.1477 C   0  0  0  0  0  0  0  0  0  0  0  0
    7.0950  -12.9086   25.6749 C   0  0  2  0  0  0  0  0  0  0  0  0
    5.9930  -11.8654   25.5137 C   0  0  0  0  0  0  0  0  0  0  0  0
    6.4941  -14.2152   25.1576 C   0  0  2  0  0  0  0  0  0  0  0  0
    5.5449  -14.6172   26.1910 N   0  0  0  0  0  0  0  0  0  0  0  0
    7.5568  -15.2612   25.0560 C   0  0  0  0  0  0  0  0  0  0  0  0
    7.6007  -16.1720   25.9359 O   0  0  0  0  0  0  0  0  0  0  0  0
    8.5116  -15.2586   24.0029 N   0  0  0  0  0  0  0  0  0  0  0  0
    9.5231  -16.2933   23.9464 C   0  0  1  0  0  0  0  0  0  0  0  0
   10.1081  -16.2923   22.5715 C   0  0  0  0  0  0  0  0  0  0  0  0
   11.1313  -17.3632   22.4177 C   0  0  0  0  0  0  0  0  0  0  0  0
   10.8286  -18.4983   22.9351 O   0  0  0  0  0  0  0  0  0  0  0  0
   10.5126  -16.1809   25.0349 C   0  0  0  0  0  0  0  0  0  0  0  0
   11.0754  -15.0647   25.1519 O   0  0  0  0  0  0  0  0  0  0  0  0
   12.3441  -17.2151   21.7724 O   0  0  0  0  0  0  0  0  0  0  0  0
   11.0063  -14.6659   27.3588 C   0  0  0  0  0  0  0  0  0  0  0  0
   10.9250  -16.0087   28.0668 C   0  0  1  0  0  0  0  0  0  0  0  0
    9.6668  -16.2527   28.6097 O   0  0  0  0  0  0  0  0  0  0  0  0
   11.4416  -17.1142   27.2206 C   0  0  2  0  0  0  0  0  0  0  0  0
   10.8434  -17.2272   25.9157 N   0  0  0  0  0  0  0  0  0  0  0  0
   11.5153  -18.4308   27.8991 C   0  0  0  0  0  0  0  0  0  0  0  0
   12.2771  -18.5696   29.0767 O   0  0  0  0  0  0  0  0  0  0  0  0
   10.9485  -19.4780   27.5214 O   0  0  0  0  0  0  0  0  0  0  0  0
  2  1  1  0
  3  4  1  1
  3  2  1  0
  5  3  1  0
  5  6  1  1
  7  8  2  0
  7  5  1  0
  9  7  1  0
 10  9  1  0
 10 11  1  6
 12 11  1  0
 13 12  2  0
 14 10  1  0
 15 14  2  0
 16 12  1  0
 18 17  1  6
 19 18  1  0
 20 18  1  0
 20 21  1  6
 21 14  1  0
 22 20  1  0
 23 22  1  0
 24 22  2  0
M  END
$$$$
