IDT.pdb
     RDKit          3D

 24 23  0  0  1  0  0  0  0  0999 V2000
    5.8773  -11.6184   26.5452 C   0  0  0  0  0  0  0  0  0  0  0  0
    5.7369  -12.8669   25.7338 C   0  0  0  0  0  0  0  0  0  0  0  0
    7.0322  -13.6324   25.6965 C   0  0  2  0  0  0  0  0  0  0  0  0
    8.0497  -12.7685   24.9570 C   0  0  0  0  0  0  0  0  0  0  0  0
    6.8554  -14.8796   24.8310 C   0  0  2  0  0  0  0  0  0  0  0  0
    5.7421  -15.5972   25.4443 N   0  0  0  0  0  0  0  0  0  0  0  0
    8.0768  -15.7369   24.9149 C   0  0  0  0  0  0  0  0  0  0  0  0
    8.2003  -16.5262   25.8985 O   0  0  0  0  0  0  0  0  0  0  0  0
    9.0949  -15.6885   23.9241 N   0  0  0  0  0  0  0  0  0  0  0  0
   10.2764  -16.5137   24.0656 C   0  0  1  0  0  0  0  0  0  0  0  0
   11.0285  -16.4683   22.7754 C   0  0  0  0  0  0  0  0  0  0  0  0
   10.2366  -17.0673   21.6657 C   0  0  0  0  0  0  0  0  0  0  0  0
    9.5719  -18.1238   21.9657 O   0  0  0  0  0  0  0  0  0  0  0  0
   11.0757  -16.1627   25.2550 C   0  0  0  0  0  0  0  0  0  0  0  0
   11.6483  -15.0458   25.2213 O   0  0  0  0  0  0  0  0  0  0  0  0
   10.1740  -16.5712   20.3777 O   0  0  0  0  0  0  0  0  0  0  0  0
   10.9028  -14.2212   27.3595 C   0  0  0  0  0  0  0  0  0  0  0  0
   10.8236  -15.4376   28.2679 C   0  0  1  0  0  0  0  0  0  0  0  0
    9.5177  -15.7451   28.6387 O   0  0  0  0  0  0  0  0  0  0  0  0
   11.5822  -16.5902   27.7192 C   0  0  2  0  0  0  0  0  0  0  0  0
   11.2214  -16.9901   26.3837 N   0  0  0  0  0  0  0  0  0  0  0  0
   11.6768  -17.7583   28.6280 C   0  0  0  0  0  0  0  0  0  0  0  0
   12.3410  -17.6309   29.8646 O   0  0  0  0  0  0  0  0  0  0  0  0
   11.2096  -18.8951   28.4047 O   0  0  0  0  0  0  0  0  0  0  0  0
  2  1  1  0
  3  4  1  6
  3  2  1  0
  5  3  1  0
  5  6  1  1
  7  8  2  0
  7  5  1  0
  9  7  1  0
 10  9  1  0
 10 11  1  6
 12 11  1  0
 13 12  2  0
 14 10  1  0
 15 14  2  0
 16 12  1  0
 18 17  1  6
 19 18  1  0
 20 18  1  0
 20 21  1  6
 21 14  1  0
 22 20  1  0
 23 22  1  0
 24 22  2  0
M  END
$$$$
