IDT.pdb
     RDKit          3D

 24 23  0  0  1  0  0  0  0  0999 V2000
    5.7526  -11.5228   26.8320 C   0  0  0  0  0  0  0  0  0  0  0  0
    5.5386  -12.7337   25.9806 C   0  0  0  0  0  0  0  0  0  0  0  0
    6.8042  -13.5398   25.8645 C   0  0  2  0  0  0  0  0  0  0  0  0
    7.8329  -12.6702   25.1475 C   0  0  0  0  0  0  0  0  0  0  0  0
    6.5608  -14.7284   24.9351 C   0  0  2  0  0  0  0  0  0  0  0  0
    5.4598  -15.4595   25.5547 N   0  0  0  0  0  0  0  0  0  0  0  0
    7.7649  -15.6134   24.9116 C   0  0  0  0  0  0  0  0  0  0  0  0
    7.8752  -16.5151   25.7952 O   0  0  0  0  0  0  0  0  0  0  0  0
    8.7811  -15.4691   23.9282 N   0  0  0  0  0  0  0  0  0  0  0  0
    9.9307  -16.3493   23.9470 C   0  0  1  0  0  0  0  0  0  0  0  0
   10.6584  -16.1861   22.6523 C   0  0  0  0  0  0  0  0  0  0  0  0
   11.8201  -17.1133   22.5635 C   0  0  0  0  0  0  0  0  0  0  0  0
   11.6169  -18.3014   23.0049 O   0  0  0  0  0  0  0  0  0  0  0  0
   10.7670  -16.1665   25.1487 C   0  0  0  0  0  0  0  0  0  0  0  0
   11.7969  -15.4642   24.9989 O   0  0  0  0  0  0  0  0  0  0  0  0
   13.0603  -16.7847   22.0505 O   0  0  0  0  0  0  0  0  0  0  0  0
   10.2508  -14.1493   27.9528 C   0  0  0  0  0  0  0  0  0  0  0  0
   10.4371  -15.5249   28.5726 C   0  0  1  0  0  0  0  0  0  0  0  0
    9.2563  -16.0389   29.1005 O   0  0  0  0  0  0  0  0  0  0  0  0
   11.1434  -16.4554   27.6559 C   0  0  2  0  0  0  0  0  0  0  0  0
   10.4756  -16.7219   26.4083 N   0  0  0  0  0  0  0  0  0  0  0  0
   11.6230  -17.7063   28.2921 C   0  0  0  0  0  0  0  0  0  0  0  0
   12.4913  -17.6394   29.4002 O   0  0  0  0  0  0  0  0  0  0  0  0
   11.3262  -18.8659   27.9347 O   0  0  0  0  0  0  0  0  0  0  0  0
  2  1  1  0
  3  4  1  6
  3  2  1  0
  5  3  1  0
  5  6  1  1
  7  8  2  0
  7  5  1  0
  9  7  1  0
 10  9  1  0
 10 11  1  6
 12 11  1  0
 13 12  2  0
 14 10  1  0
 15 14  2  0
 16 12  1  0
 18 17  1  6
 19 18  1  0
 20 18  1  0
 20 21  1  6
 21 14  1  0
 22 20  1  0
 23 22  1  0
 24 22  2  0
M  END
$$$$
