CDT.pdb
     RDKit          3D

 22 21  0  0  1  0  0  0  0  0999 V2000
   19.5196  -16.0762  -16.4169 N   0  0  0  0  0  0  0  0  0  0  0  0
   20.4977  -15.0684  -16.7565 C   0  0  1  0  0  0  0  0  0  0  0  0
   21.0581  -15.3968  -18.1388 C   0  0  0  0  0  0  0  0  0  0  0  0
   22.0165  -16.9237  -18.0356 S   0  0  0  0  0  0  0  0  0  0  0  0
   19.7721  -13.7656  -16.9337 C   0  0  0  0  0  0  0  0  0  0  0  0
   18.6563  -13.7887  -17.4915 O   0  0  0  0  0  0  0  0  0  0  0  0
   20.3235  -12.5492  -16.4878 N   0  0  0  0  0  0  0  0  0  0  0  0
   19.5398  -11.3229  -16.5933 C   0  0  1  0  0  0  0  0  0  0  0  0
   18.1758  -11.4883  -16.0071 C   0  0  0  0  0  0  0  0  0  0  0  0
   17.3804  -10.2760  -15.9640 C   0  0  0  0  0  0  0  0  0  0  0  0
   17.3183   -9.3692  -16.8117 O   0  0  0  0  0  0  0  0  0  0  0  0
   20.3107  -10.1936  -16.0114 C   0  0  0  0  0  0  0  0  0  0  0  0
   20.8521  -10.3437  -14.8953 O   0  0  0  0  0  0  0  0  0  0  0  0
   16.5576  -10.0616  -14.8304 O   0  0  0  0  0  0  0  0  0  0  0  0
   21.1178   -6.4722  -18.0116 C   0  0  0  0  0  0  0  0  0  0  0  0
   22.1272   -7.2392  -17.1864 C   0  0  1  0  0  0  0  0  0  0  0  0
   22.9756   -6.3389  -16.5114 O   0  0  0  0  0  0  0  0  0  0  0  0
   21.3626   -7.9661  -16.0927 C   0  0  2  0  0  0  0  0  0  0  0  0
   20.4690   -8.9515  -16.6469 N   0  0  0  0  0  0  0  0  0  0  0  0
   20.5867   -7.0088  -15.2623 C   0  0  0  0  0  0  0  0  0  0  0  0
   19.3314   -7.0239  -15.2101 O   0  0  0  0  0  0  0  0  0  0  0  0
   21.2582   -6.0591  -14.5124 O   0  0  0  0  0  0  0  0  0  0  0  0
  2  1  1  6
  2  5  1  0
  3  2  1  0
  4  3  1  0
  5  6  2  0
  7  5  1  0
  7  8  1  0
  8 12  1  0
  9 10  1  0
  8  9  1  1
 10 11  2  0
 12 19  1  0
 12 13  2  0
 14 10  1  0
 16 15  1  6
 16 18  1  0
 17 16  1  0
 18 20  1  0
 18 19  1  6
 20 21  2  0
 20 22  1  0
M  END
$$$$
