CDT.pdb
     RDKit          3D

 22 21  0  0  1  0  0  0  0  0999 V2000
   20.7020  -11.9540  -15.7209 N   0  0  0  0  0  0  0  0  0  0  0  0
   20.3435  -10.8072  -16.5235 C   0  0  1  0  0  0  0  0  0  0  0  0
   18.9349  -11.0312  -17.0697 C   0  0  0  0  0  0  0  0  0  0  0  0
   18.9955  -12.3125  -18.3406 S   0  0  0  0  0  0  0  0  0  0  0  0
   20.2181   -9.6254  -15.6055 C   0  0  0  0  0  0  0  0  0  0  0  0
   20.1526   -9.8421  -14.3786 O   0  0  0  0  0  0  0  0  0  0  0  0
   20.1753   -8.3086  -16.1023 N   0  0  0  0  0  0  0  0  0  0  0  0
   20.2264   -7.1866  -15.1708 C   0  0  1  0  0  0  0  0  0  0  0  0
   21.5799   -7.0421  -14.5557 C   0  0  0  0  0  0  0  0  0  0  0  0
   21.7158   -5.9271  -13.6377 C   0  0  0  0  0  0  0  0  0  0  0  0
   20.9393   -5.5816  -12.7308 O   0  0  0  0  0  0  0  0  0  0  0  0
   19.7419   -5.9580  -15.8520 C   0  0  0  0  0  0  0  0  0  0  0  0
   20.3105   -5.5844  -16.9000 O   0  0  0  0  0  0  0  0  0  0  0  0
   22.8636   -5.1046  -13.7571 O   0  0  0  0  0  0  0  0  0  0  0  0
   16.0948   -4.9658  -16.8072 C   0  0  0  0  0  0  0  0  0  0  0  0
   16.7371   -3.8354  -16.0341 C   0  0  1  0  0  0  0  0  0  0  0  0
   16.4282   -3.9573  -14.6645 O   0  0  0  0  0  0  0  0  0  0  0  0
   18.2426   -4.0207  -16.1235 C   0  0  2  0  0  0  0  0  0  0  0  0
   18.6709   -5.1803  -15.3829 N   0  0  0  0  0  0  0  0  0  0  0  0
   18.9556   -2.8202  -15.6148 C   0  0  0  0  0  0  0  0  0  0  0  0
   19.7436   -2.8670  -14.6374 O   0  0  0  0  0  0  0  0  0  0  0  0
   18.7543   -1.5975  -16.2310 O   0  0  0  0  0  0  0  0  0  0  0  0
  2  1  1  1
  2  5  1  0
  3  2  1  0
  4  3  1  0
  5  6  2  0
  7  5  1  0
  7  8  1  0
  8 12  1  0
  9 10  1  0
  8  9  1  6
 10 11  2  0
 12 19  1  0
 12 13  2  0
 14 10  1  0
 16 15  1  6
 16 18  1  0
 17 16  1  0
 18 20  1  0
 18 19  1  1
 20 21  2  0
 20 22  1  0
M  END
$$$$
