CDT.pdb
     RDKit          3D

 22 21  0  0  1  0  0  0  0  0999 V2000
   26.5710  -21.0996  -11.8512 N   0  0  0  0  0  0  0  0  0  0  0  0
   26.0285  -20.1885  -12.8328 C   0  0  1  0  0  0  0  0  0  0  0  0
   27.1275  -19.8710  -13.8448 C   0  0  0  0  0  0  0  0  0  0  0  0
   28.4429  -18.9543  -13.0140 S   0  0  0  0  0  0  0  0  0  0  0  0
   24.9833  -20.9280  -13.6174 C   0  0  0  0  0  0  0  0  0  0  0  0
   25.0663  -22.1715  -13.6756 O   0  0  0  0  0  0  0  0  0  0  0  0
   23.9366  -20.2499  -14.2711 N   0  0  0  0  0  0  0  0  0  0  0  0
   22.5856  -20.7994  -14.2269 C   0  0  1  0  0  0  0  0  0  0  0  0
   22.1259  -21.0197  -12.8228 C   0  0  0  0  0  0  0  0  0  0  0  0
   20.8353  -21.6706  -12.6995 C   0  0  0  0  0  0  0  0  0  0  0  0
   20.3565  -22.5657  -13.4166 O   0  0  0  0  0  0  0  0  0  0  0  0
   21.6770  -19.9390  -15.0283 C   0  0  0  0  0  0  0  0  0  0  0  0
   21.2522  -18.8766  -14.5259 O   0  0  0  0  0  0  0  0  0  0  0  0
   19.9844  -21.2633  -11.6421 O   0  0  0  0  0  0  0  0  0  0  0  0
   22.3271  -19.2767  -18.9065 C   0  0  0  0  0  0  0  0  0  0  0  0
   20.8593  -19.5121  -18.6268 C   0  0  1  0  0  0  0  0  0  0  0  0
   20.5503  -20.8746  -18.8114 O   0  0  0  0  0  0  0  0  0  0  0  0
   20.6292  -19.2456  -17.1487 C   0  0  2  0  0  0  0  0  0  0  0  0
   21.2601  -20.2516  -16.3323 N   0  0  0  0  0  0  0  0  0  0  0  0
   19.1767  -19.1989  -16.8383 C   0  0  0  0  0  0  0  0  0  0  0  0
   18.4033  -18.3535  -17.3537 O   0  0  0  0  0  0  0  0  0  0  0  0
   18.6411  -20.1148  -15.9497 O   0  0  0  0  0  0  0  0  0  0  0  0
  2  1  1  1
  2  5  1  0
  3  2  1  0
  4  3  1  0
  5  6  2  0
  7  5  1  0
  7  8  1  0
  8 12  1  0
  9 10  1  0
  8  9  1  1
 10 11  2  0
 12 19  1  0
 12 13  2  0
 14 10  1  0
 16 15  1  1
 16 18  1  0
 17 16  1  0
 18 20  1  0
 18 19  1  1
 20 21  2  0
 20 22  1  0
M  END
$$$$
