CDT.pdb
     RDKit          3D

 22 21  0  0  1  0  0  0  0  0999 V2000
   15.3744  -13.7208  -16.9141 N   0  0  0  0  0  0  0  0  0  0  0  0
   16.1173  -13.9808  -15.7024 C   0  0  1  0  0  0  0  0  0  0  0  0
   16.9218  -15.2632  -15.9044 C   0  0  0  0  0  0  0  0  0  0  0  0
   15.8317  -16.6831  -15.6670 S   0  0  0  0  0  0  0  0  0  0  0  0
   17.1474  -12.8983  -15.5542 C   0  0  0  0  0  0  0  0  0  0  0  0
   17.9058  -12.9440  -14.5645 O   0  0  0  0  0  0  0  0  0  0  0  0
   17.2639  -11.8587  -16.4968 N   0  0  0  0  0  0  0  0  0  0  0  0
   18.2938  -10.8403  -16.3205 C   0  0  1  0  0  0  0  0  0  0  0  0
   19.3424  -10.9274  -17.3808 C   0  0  0  0  0  0  0  0  0  0  0  0
   20.2669  -12.0355  -17.2335 C   0  0  0  0  0  0  0  0  0  0  0  0
   20.3503  -13.0621  -17.9293 O   0  0  0  0  0  0  0  0  0  0  0  0
   17.6528   -9.5036  -16.2181 C   0  0  0  0  0  0  0  0  0  0  0  0
   16.8660   -9.1406  -17.1184 O   0  0  0  0  0  0  0  0  0  0  0  0
   21.2086  -11.9787  -16.1762 O   0  0  0  0  0  0  0  0  0  0  0  0
   15.2029   -8.1177  -14.0103 C   0  0  0  0  0  0  0  0  0  0  0  0
   16.3725   -7.1660  -13.8903 C   0  0  1  0  0  0  0  0  0  0  0  0
   17.2021   -7.5608  -12.8217 O   0  0  0  0  0  0  0  0  0  0  0  0
   17.2225   -7.3297  -15.1392 C   0  0  2  0  0  0  0  0  0  0  0  0
   17.8813   -8.6112  -15.1582 N   0  0  0  0  0  0  0  0  0  0  0  0
   18.2402   -6.2510  -15.2330 C   0  0  0  0  0  0  0  0  0  0  0  0
   19.4738   -6.4793  -15.1648 O   0  0  0  0  0  0  0  0  0  0  0  0
   17.8289   -4.9405  -15.4021 O   0  0  0  0  0  0  0  0  0  0  0  0
  2  1  1  6
  2  5  1  0
  3  2  1  0
  4  3  1  0
  5  6  2  0
  7  5  1  0
  7  8  1  0
  8 12  1  0
  9 10  1  0
  8  9  1  6
 10 11  2  0
 12 19  1  0
 12 13  2  0
 14 10  1  0
 16 15  1  6
 16 18  1  0
 17 16  1  0
 18 20  1  0
 18 19  1  1
 20 21  2  0
 20 22  1  0
M  END
$$$$
