CDT.pdb
     RDKit          3D

 22 21  0  0  1  0  0  0  0  0999 V2000
   22.4541  -21.3481   -8.2445 N   0  0  0  0  0  0  0  0  0  0  0  0
   23.0690  -20.4436   -9.1887 C   0  0  1  0  0  0  0  0  0  0  0  0
   24.5150  -20.8878   -9.3996 C   0  0  0  0  0  0  0  0  0  0  0  0
   25.5852  -19.9473   -8.2903 S   0  0  0  0  0  0  0  0  0  0  0  0
   22.4045  -20.6478  -10.5198 C   0  0  0  0  0  0  0  0  0  0  0  0
   21.8388  -21.7399  -10.7298 O   0  0  0  0  0  0  0  0  0  0  0  0
   22.4126  -19.6450  -11.5082 N   0  0  0  0  0  0  0  0  0  0  0  0
   21.7180  -19.8743  -12.7709 C   0  0  1  0  0  0  0  0  0  0  0  0
   20.5236  -18.9883  -12.9117 C   0  0  0  0  0  0  0  0  0  0  0  0
   19.7713  -19.1708  -14.1385 C   0  0  0  0  0  0  0  0  0  0  0  0
   19.7452  -20.1673  -14.8809 O   0  0  0  0  0  0  0  0  0  0  0  0
   22.6854  -19.7613  -13.8931 C   0  0  0  0  0  0  0  0  0  0  0  0
   23.3048  -18.6876  -14.0507 O   0  0  0  0  0  0  0  0  0  0  0  0
   18.9515  -18.1025  -14.5800 O   0  0  0  0  0  0  0  0  0  0  0  0
   25.8534  -21.3908  -14.6761 C   0  0  0  0  0  0  0  0  0  0  0  0
   24.9697  -21.6562  -15.8747 C   0  0  1  0  0  0  0  0  0  0  0  0
   24.2952  -22.8823  -15.7089 O   0  0  0  0  0  0  0  0  0  0  0  0
   23.8803  -20.5969  -15.8803 C   0  0  2  0  0  0  0  0  0  0  0  0
   22.9484  -20.8006  -14.8001 N   0  0  0  0  0  0  0  0  0  0  0  0
   23.1454  -20.5990  -17.1719 C   0  0  0  0  0  0  0  0  0  0  0  0
   23.7151  -20.3941  -18.2728 O   0  0  0  0  0  0  0  0  0  0  0  0
   21.7816  -20.8341  -17.1783 O   0  0  0  0  0  0  0  0  0  0  0  0
  2  1  1  1
  2  5  1  0
  3  2  1  0
  4  3  1  0
  5  6  2  0
  7  5  1  0
  7  8  1  0
  8 12  1  0
  9 10  1  0
  8  9  1  6
 10 11  2  0
 12 19  1  0
 12 13  2  0
 14 10  1  0
 16 15  1  1
 16 18  1  0
 17 16  1  0
 18 20  1  0
 18 19  1  1
 20 21  2  0
 20 22  1  0
M  END
$$$$
