CDT.pdb
     RDKit          3D

 22 21  0  0  1  0  0  0  0  0999 V2000
   16.2868  -14.5413  -17.7471 N   0  0  0  0  0  0  0  0  0  0  0  0
   16.7442  -14.7634  -16.3946 C   0  0  1  0  0  0  0  0  0  0  0  0
   17.5320  -16.0717  -16.3684 C   0  0  0  0  0  0  0  0  0  0  0  0
   16.4230  -17.4327  -16.7907 S   0  0  0  0  0  0  0  0  0  0  0  0
   17.7527  -13.6991  -16.0703 C   0  0  0  0  0  0  0  0  0  0  0  0
   18.2806  -13.7183  -14.9400 O   0  0  0  0  0  0  0  0  0  0  0  0
   18.1004  -12.7051  -17.0051 N   0  0  0  0  0  0  0  0  0  0  0  0
   19.0875  -11.6927  -16.6444 C   0  0  1  0  0  0  0  0  0  0  0  0
   20.2474  -11.6939  -17.5857 C   0  0  0  0  0  0  0  0  0  0  0  0
   21.2733  -10.7121  -17.2891 C   0  0  0  0  0  0  0  0  0  0  0  0
   22.1852  -10.3082  -18.0308 O   0  0  0  0  0  0  0  0  0  0  0  0
   18.4165  -10.3726  -16.5197 C   0  0  0  0  0  0  0  0  0  0  0  0
   17.8443   -9.8892  -17.5197 O   0  0  0  0  0  0  0  0  0  0  0  0
   21.2699  -10.1155  -16.0038 O   0  0  0  0  0  0  0  0  0  0  0  0
   15.5947   -9.3947  -14.4132 C   0  0  0  0  0  0  0  0  0  0  0  0
   16.6757   -8.3815  -14.1079 C   0  0  1  0  0  0  0  0  0  0  0  0
   17.4276   -8.8060  -12.9941 O   0  0  0  0  0  0  0  0  0  0  0  0
   17.6489   -8.3887  -15.2749 C   0  0  2  0  0  0  0  0  0  0  0  0
   18.3872   -9.6250  -15.3314 N   0  0  0  0  0  0  0  0  0  0  0  0
   18.5998   -7.2509  -15.1792 C   0  0  0  0  0  0  0  0  0  0  0  0
   19.8398   -7.4157  -15.0611 O   0  0  0  0  0  0  0  0  0  0  0  0
   18.1162   -5.9548  -15.2203 O   0  0  0  0  0  0  0  0  0  0  0  0
  2  1  1  6
  2  5  1  0
  3  2  1  0
  4  3  1  0
  5  6  2  0
  7  5  1  0
  7  8  1  0
  8 12  1  0
  9 10  1  0
  8  9  1  6
 10 11  2  0
 12 19  1  0
 12 13  2  0
 14 10  1  0
 16 15  1  6
 16 18  1  0
 17 16  1  0
 18 20  1  0
 18 19  1  1
 20 21  2  0
 20 22  1  0
M  END
$$$$
