CDT.pdb
     RDKit          3D

 22 21  0  0  1  0  0  0  0  0999 V2000
   25.3495  -13.3275  -17.2768 N   0  0  0  0  0  0  0  0  0  0  0  0
   25.4341  -12.1686  -16.4180 C   0  0  1  0  0  0  0  0  0  0  0  0
   26.7306  -11.4297  -16.7435 C   0  0  0  0  0  0  0  0  0  0  0  0
   26.7797   -9.8890  -15.8030 S   0  0  0  0  0  0  0  0  0  0  0  0
   24.3394  -11.2210  -16.8162 C   0  0  0  0  0  0  0  0  0  0  0  0
   24.0664  -11.1193  -18.0294 O   0  0  0  0  0  0  0  0  0  0  0  0
   23.6352  -10.4656  -15.8591 N   0  0  0  0  0  0  0  0  0  0  0  0
   22.6268   -9.5073  -16.2995 C   0  0  1  0  0  0  0  0  0  0  0  0
   21.2556  -10.0993  -16.2741 C   0  0  0  0  0  0  0  0  0  0  0  0
   20.1903   -9.1842  -16.6375 C   0  0  0  0  0  0  0  0  0  0  0  0
   20.0943   -8.4875  -17.6623 O   0  0  0  0  0  0  0  0  0  0  0  0
   22.7559   -8.2568  -15.5072 C   0  0  0  0  0  0  0  0  0  0  0  0
   23.0366   -8.3379  -14.2923 O   0  0  0  0  0  0  0  0  0  0  0  0
   19.1049   -9.0379  -15.7382 O   0  0  0  0  0  0  0  0  0  0  0  0
   24.9775   -5.3219  -16.3232 C   0  0  0  0  0  0  0  0  0  0  0  0
   23.6067   -4.7561  -16.0253 C   0  0  1  0  0  0  0  0  0  0  0  0
   22.8869   -4.5906  -17.2255 O   0  0  0  0  0  0  0  0  0  0  0  0
   22.8409   -5.8081  -15.2404 C   0  0  2  0  0  0  0  0  0  0  0  0
   22.5780   -6.9728  -16.0472 N   0  0  0  0  0  0  0  0  0  0  0  0
   21.5563   -5.2601  -14.7328 C   0  0  0  0  0  0  0  0  0  0  0  0
   20.4402   -5.6757  -15.1328 O   0  0  0  0  0  0  0  0  0  0  0  0
   21.5740   -4.2535  -13.7832 O   0  0  0  0  0  0  0  0  0  0  0  0
  2  1  1  6
  2  5  1  0
  3  2  1  0
  4  3  1  0
  5  6  2  0
  7  5  1  0
  7  8  1  0
  8 12  1  0
  9 10  1  0
  8  9  1  1
 10 11  2  0
 12 19  1  0
 12 13  2  0
 14 10  1  0
 16 15  1  6
 16 18  1  0
 17 16  1  0
 18 20  1  0
 18 19  1  6
 20 21  2  0
 20 22  1  0
M  END
$$$$
