CDT.pdb
     RDKit          3D

 22 21  0  0  1  0  0  0  0  0999 V2000
   18.7282  -12.9509  -17.3652 N   0  0  0  0  0  0  0  0  0  0  0  0
   18.3647  -11.6913  -16.7579 C   0  0  1  0  0  0  0  0  0  0  0  0
   18.0530  -11.9466  -15.2846 C   0  0  0  0  0  0  0  0  0  0  0  0
   16.5752  -12.9777  -15.1679 S   0  0  0  0  0  0  0  0  0  0  0  0
   19.5855  -10.8170  -16.7481 C   0  0  0  0  0  0  0  0  0  0  0  0
   20.6223  -11.2540  -17.2873 O   0  0  0  0  0  0  0  0  0  0  0  0
   19.5727   -9.5412  -16.1524 N   0  0  0  0  0  0  0  0  0  0  0  0
   20.7242   -8.6598  -16.3154 C   0  0  1  0  0  0  0  0  0  0  0  0
   21.0426   -8.4298  -17.7566 C   0  0  0  0  0  0  0  0  0  0  0  0
   22.1091   -7.4771  -18.0002 C   0  0  0  0  0  0  0  0  0  0  0  0
   23.1500   -7.3069  -17.3427 O   0  0  0  0  0  0  0  0  0  0  0  0
   20.5017   -7.4103  -15.5426 C   0  0  0  0  0  0  0  0  0  0  0  0
   19.5152   -6.6957  -15.8207 O   0  0  0  0  0  0  0  0  0  0  0  0
   21.9866   -6.6145  -19.1177 O   0  0  0  0  0  0  0  0  0  0  0  0
   19.7580   -7.1862  -12.0889 C   0  0  0  0  0  0  0  0  0  0  0  0
   20.8844   -6.1879  -12.2394 C   0  0  1  0  0  0  0  0  0  0  0  0
   22.1129   -6.8024  -11.9244 O   0  0  0  0  0  0  0  0  0  0  0  0
   20.9815   -5.8300  -13.7130 C   0  0  2  0  0  0  0  0  0  0  0  0
   21.3444   -6.9772  -14.5061 N   0  0  0  0  0  0  0  0  0  0  0  0
   21.9744   -4.7462  -13.9311 C   0  0  0  0  0  0  0  0  0  0  0  0
   22.9803   -4.8910  -14.6698 O   0  0  0  0  0  0  0  0  0  0  0  0
   21.7978   -3.5254  -13.3035 O   0  0  0  0  0  0  0  0  0  0  0  0
  2  1  1  6
  2  5  1  0
  3  2  1  0
  4  3  1  0
  5  6  2  0
  7  5  1  0
  7  8  1  0
  8 12  1  0
  9 10  1  0
  8  9  1  6
 10 11  2  0
 12 19  1  0
 12 13  2  0
 14 10  1  0
 16 15  1  6
 16 18  1  0
 17 16  1  0
 18 20  1  0
 18 19  1  6
 20 21  2  0
 20 22  1  0
M  END
$$$$
