CDT.pdb
     RDKit          3D

 22 21  0  0  1  0  0  0  0  0999 V2000
   26.9022  -21.0259  -10.9336 N   0  0  0  0  0  0  0  0  0  0  0  0
   25.4747  -21.2440  -10.9831 C   0  0  1  0  0  0  0  0  0  0  0  0
   24.8434  -20.5314   -9.7888 C   0  0  0  0  0  0  0  0  0  0  0  0
   24.9649  -21.5988   -8.3375 S   0  0  0  0  0  0  0  0  0  0  0  0
   24.9417  -20.5238  -12.1882 C   0  0  0  0  0  0  0  0  0  0  0  0
   25.1796  -19.3035  -12.2931 O   0  0  0  0  0  0  0  0  0  0  0  0
   24.1955  -21.1943  -13.1763 N   0  0  0  0  0  0  0  0  0  0  0  0
   23.7758  -20.4732  -14.3734 C   0  0  1  0  0  0  0  0  0  0  0  0
   24.6291  -20.8154  -15.5507 C   0  0  0  0  0  0  0  0  0  0  0  0
   25.2945  -22.1017  -15.4672 C   0  0  0  0  0  0  0  0  0  0  0  0
   26.4821  -22.3683  -15.7187 O   0  0  0  0  0  0  0  0  0  0  0  0
   22.3239  -20.6955  -14.5990 C   0  0  0  0  0  0  0  0  0  0  0  0
   21.8861  -21.8658  -14.6058 O   0  0  0  0  0  0  0  0  0  0  0  0
   24.5294  -23.2194  -15.0505 O   0  0  0  0  0  0  0  0  0  0  0  0
   19.4601  -17.7977  -15.9971 C   0  0  0  0  0  0  0  0  0  0  0  0
   19.1474  -18.7148  -14.8356 C   0  0  1  0  0  0  0  0  0  0  0  0
   17.8159  -19.1670  -14.9287 O   0  0  0  0  0  0  0  0  0  0  0  0
   20.0053  -19.9590  -14.9943 C   0  0  2  0  0  0  0  0  0  0  0  0
   21.4021  -19.6572  -14.8090 N   0  0  0  0  0  0  0  0  0  0  0  0
   19.8071  -20.5723  -16.3332 C   0  0  0  0  0  0  0  0  0  0  0  0
   18.7524  -21.1778  -16.6487 O   0  0  0  0  0  0  0  0  0  0  0  0
   20.8134  -20.4813  -17.2789 O   0  0  0  0  0  0  0  0  0  0  0  0
  2  1  1  1
  2  5  1  0
  3  2  1  0
  4  3  1  0
  5  6  2  0
  7  5  1  0
  7  8  1  0
  8 12  1  0
  9 10  1  0
  8  9  1  6
 10 11  2  0
 12 19  1  0
 12 13  2  0
 14 10  1  0
 16 15  1  6
 16 18  1  0
 17 16  1  0
 18 20  1  0
 18 19  1  6
 20 21  2  0
 20 22  1  0
M  END
$$$$
