CDT.pdb
     RDKit          3D

 22 21  0  0  1  0  0  0  0  0999 V2000
   17.1987  -15.6045  -17.4576 N   0  0  0  0  0  0  0  0  0  0  0  0
   17.5384  -14.7964  -16.3090 C   0  0  1  0  0  0  0  0  0  0  0  0
   18.7687  -15.4100  -15.6435 C   0  0  0  0  0  0  0  0  0  0  0  0
   18.2577  -16.8487  -14.6794 S   0  0  0  0  0  0  0  0  0  0  0  0
   17.9979  -13.4572  -16.8094 C   0  0  0  0  0  0  0  0  0  0  0  0
   18.2149  -13.3324  -18.0317 O   0  0  0  0  0  0  0  0  0  0  0  0
   18.1812  -12.3682  -15.9358 N   0  0  0  0  0  0  0  0  0  0  0  0
   18.5177  -11.0574  -16.4815 C   0  0  1  0  0  0  0  0  0  0  0  0
   17.2962  -10.2984  -16.8853 C   0  0  0  0  0  0  0  0  0  0  0  0
   17.5501   -8.9692  -17.4080 C   0  0  0  0  0  0  0  0  0  0  0  0
   18.6007   -8.5284  -17.9046 O   0  0  0  0  0  0  0  0  0  0  0  0
   19.3854  -10.3306  -15.5186 C   0  0  0  0  0  0  0  0  0  0  0  0
   18.9543  -10.1063  -14.3674 O   0  0  0  0  0  0  0  0  0  0  0  0
   16.4936   -8.0257  -17.3651 O   0  0  0  0  0  0  0  0  0  0  0  0
   23.3224  -10.8358  -14.9645 C   0  0  0  0  0  0  0  0  0  0  0  0
   22.9615   -9.3749  -15.1184 C   0  0  1  0  0  0  0  0  0  0  0  0
   23.1013   -8.9877  -16.4662 O   0  0  0  0  0  0  0  0  0  0  0  0
   21.4791   -9.2378  -14.8137 C   0  0  2  0  0  0  0  0  0  0  0  0
   20.6766   -9.8734  -15.8279 N   0  0  0  0  0  0  0  0  0  0  0  0
   21.0908   -7.8078  -14.7024 C   0  0  0  0  0  0  0  0  0  0  0  0
   20.2275   -7.2828  -15.4491 O   0  0  0  0  0  0  0  0  0  0  0  0
   21.6942   -7.0116  -13.7447 O   0  0  0  0  0  0  0  0  0  0  0  0
  2  1  1  6
  2  5  1  0
  3  2  1  0
  4  3  1  0
  5  6  2  0
  7  5  1  0
  7  8  1  0
  8 12  1  0
  9 10  1  0
  8  9  1  1
 10 11  2  0
 12 19  1  0
 12 13  2  0
 14 10  1  0
 16 15  1  6
 16 18  1  0
 17 16  1  0
 18 20  1  0
 18 19  1  6
 20 21  2  0
 20 22  1  0
M  END
$$$$
