CDT.pdb
     RDKit          3D

 22 21  0  0  1  0  0  0  0  0999 V2000
   28.1528  -20.7586  -16.7764 N   0  0  0  0  0  0  0  0  0  0  0  0
   28.0188  -19.9047  -15.6185 C   0  0  1  0  0  0  0  0  0  0  0  0
   27.5558  -18.5290  -16.0937 C   0  0  0  0  0  0  0  0  0  0  0  0
   28.9040  -17.7356  -16.9956 S   0  0  0  0  0  0  0  0  0  0  0  0
   26.8818  -20.4297  -14.7899 C   0  0  0  0  0  0  0  0  0  0  0  0
   26.0986  -21.2434  -15.3201 O   0  0  0  0  0  0  0  0  0  0  0  0
   26.6952  -20.0239  -13.4546 N   0  0  0  0  0  0  0  0  0  0  0  0
   25.6317  -20.6304  -12.6606 C   0  0  1  0  0  0  0  0  0  0  0  0
   25.9423  -20.5891  -11.2000 C   0  0  0  0  0  0  0  0  0  0  0  0
   24.9516  -21.2200  -10.3487 C   0  0  0  0  0  0  0  0  0  0  0  0
   23.8997  -21.7885  -10.6877 O   0  0  0  0  0  0  0  0  0  0  0  0
   24.3323  -20.0033  -13.0163 C   0  0  0  0  0  0  0  0  0  0  0  0
   24.1458  -18.7999  -12.7363 O   0  0  0  0  0  0  0  0  0  0  0  0
   25.1742  -21.2081   -8.9493 O   0  0  0  0  0  0  0  0  0  0  0  0
   22.7860  -19.1225  -16.0724 C   0  0  0  0  0  0  0  0  0  0  0  0
   21.7390  -19.9926  -15.4129 C   0  0  1  0  0  0  0  0  0  0  0  0
   21.8848  -21.3261  -15.8447 O   0  0  0  0  0  0  0  0  0  0  0  0
   22.0408  -20.0182  -13.9238 C   0  0  2  0  0  0  0  0  0  0  0  0
   23.2871  -20.6899  -13.6552 N   0  0  0  0  0  0  0  0  0  0  0  0
   20.9479  -20.6887  -13.1728 C   0  0  0  0  0  0  0  0  0  0  0  0
   21.1170  -21.7711  -12.5577 O   0  0  0  0  0  0  0  0  0  0  0  0
   19.6907  -20.1109  -13.1405 O   0  0  0  0  0  0  0  0  0  0  0  0
  2  1  1  6
  2  5  1  0
  3  2  1  0
  4  3  1  0
  5  6  2  0
  7  5  1  0
  7  8  1  0
  8 12  1  0
  9 10  1  0
  8  9  1  1
 10 11  2  0
 12 19  1  0
 12 13  2  0
 14 10  1  0
 16 15  1  6
 16 18  1  0
 17 16  1  0
 18 20  1  0
 18 19  1  6
 20 21  2  0
 20 22  1  0
M  END
$$$$
