NIP.pdb
     RDKit          3D

 24 24  0  0  1  0  0  0  0  0999 V2000
   28.3326  -16.3233  -17.0859 N   0  0  0  0  0  0  0  0  0  0  0  0
   27.4649  -16.4721  -15.9857 C   0  0  0  0  0  0  0  0  0  0  0  0
   27.2357  -15.5153  -15.2139 O   0  0  0  0  0  0  0  0  0  0  0  0
   26.8113  -17.7712  -15.7293 C   0  0  0  0  0  0  0  0  0  0  0  0
   27.6630  -18.5059  -14.7241 C   0  0  2  0  0  0  0  0  0  0  0  0
   28.9358  -18.8800  -15.3590 N   0  0  0  0  0  0  0  0  0  0  0  0
   27.0245  -19.6657  -14.1106 C   0  0  0  0  0  0  0  0  0  0  0  0
   27.0891  -20.8082  -14.6823 O   0  0  0  0  0  0  0  0  0  0  0  0
   26.9033  -20.2516   -8.8263 C   0  0  0  0  0  0  0  0  0  0  0  0
   26.8726  -20.6540  -10.2676 C   0  0  0  0  0  0  0  0  0  0  0  0
   25.5721  -20.6261  -10.9466 C   0  0  2  0  0  0  0  0  0  0  0  0
   24.6085  -21.5471  -10.2266 C   0  0  0  0  0  0  0  0  0  0  0  0
   25.4586  -20.6677  -12.4199 C   0  0  2  0  0  0  0  0  0  0  0  0
   26.3165  -19.6173  -12.8855 N   0  0  0  0  0  0  0  0  0  0  0  0
   24.1436  -20.8172  -13.0147 C   0  0  0  0  0  0  0  0  0  0  0  0
   23.3279  -19.9192  -12.5798 O   0  0  0  0  0  0  0  0  0  0  0  0
   23.6426  -21.7343  -13.9390 N   0  0  0  0  0  0  0  0  0  0  0  0
   24.4000  -22.5698  -14.9089 C   0  0  0  0  0  0  0  0  0  0  0  0
   23.8802  -23.9425  -14.5252 C   0  0  0  0  0  0  0  0  0  0  0  0
   22.5241  -23.6870  -13.8923 C   0  0  0  0  0  0  0  0  0  0  0  0
   22.3374  -22.1987  -14.3036 C   0  0  1  0  0  0  0  0  0  0  0  0
   21.1522  -21.6311  -13.7553 C   0  0  0  0  0  0  0  0  0  0  0  0
   20.2119  -21.1339  -14.3621 O   0  0  0  0  0  0  0  0  0  0  0  0
   21.0214  -21.6292  -12.3428 O   0  0  0  0  0  0  0  0  0  0  0  0
  1  2  1  0
  2  3  2  0
  4  2  1  0
  4  5  1  0
  5  6  1  6
  7  8  2  0
  7  5  1  0
  9 10  1  0
 10 11  1  0
 11 12  1  1
 13 11  1  0
 13 14  1  6
 14  7  1  0
 15 13  1  0
 16 15  2  0
 17 18  1  0
 17 15  1  0
 19 18  1  0
 20 21  1  0
 20 19  1  0
 21 17  1  0
 22 24  1  0
 21 22  1  1
 23 22  2  0
M  END
$$$$
