NIP.pdb
     RDKit          3D

 24 24  0  0  1  0  0  0  0  0999 V2000
   19.0780  -24.8125  -13.7987 N   0  0  0  0  0  0  0  0  0  0  0  0
   18.2048  -23.7411  -14.0723 C   0  0  0  0  0  0  0  0  0  0  0  0
   17.0395  -23.9486  -14.4758 O   0  0  0  0  0  0  0  0  0  0  0  0
   18.6602  -22.3490  -13.8845 C   0  0  0  0  0  0  0  0  0  0  0  0
   19.8457  -22.3916  -12.9526 C   0  0  2  0  0  0  0  0  0  0  0  0
   19.3658  -22.3079  -11.5649 N   0  0  0  0  0  0  0  0  0  0  0  0
   20.8675  -21.3833  -13.2138 C   0  0  0  0  0  0  0  0  0  0  0  0
   20.5925  -20.1422  -13.0704 O   0  0  0  0  0  0  0  0  0  0  0  0
   25.4380  -21.8768  -10.8666 C   0  0  0  0  0  0  0  0  0  0  0  0
   24.2109  -21.4286  -11.5968 C   0  0  0  0  0  0  0  0  0  0  0  0
   24.3481  -21.1380  -13.0285 C   0  0  2  0  0  0  0  0  0  0  0  0
   25.6148  -20.3402  -13.2610 C   0  0  0  0  0  0  0  0  0  0  0  0
   23.2003  -20.6996  -13.8505 C   0  0  2  0  0  0  0  0  0  0  0  0
   22.1870  -21.6890  -13.6261 N   0  0  0  0  0  0  0  0  0  0  0  0
   23.4466  -20.2399  -15.2044 C   0  0  0  0  0  0  0  0  0  0  0  0
   24.4611  -20.8400  -15.7257 O   0  0  0  0  0  0  0  0  0  0  0  0
   22.7925  -19.2961  -15.9969 N   0  0  0  0  0  0  0  0  0  0  0  0
   21.5206  -18.5794  -15.7128 C   0  0  0  0  0  0  0  0  0  0  0  0
   21.9942  -17.1463  -15.8668 C   0  0  0  0  0  0  0  0  0  0  0  0
   23.2018  -17.2271  -16.7833 C   0  0  0  0  0  0  0  0  0  0  0  0
   23.0406  -18.6945  -17.2731 C   0  0  1  0  0  0  0  0  0  0  0  0
   24.1184  -19.1073  -18.1072 C   0  0  0  0  0  0  0  0  0  0  0  0
   24.0895  -19.3267  -19.3116 O   0  0  0  0  0  0  0  0  0  0  0  0
   25.3844  -19.2931  -17.4949 O   0  0  0  0  0  0  0  0  0  0  0  0
  1  2  1  0
  2  3  2  0
  4  2  1  0
  4  5  1  0
  5  6  1  1
  7  8  2  0
  7  5  1  0
  9 10  1  0
 10 11  1  0
 11 12  1  1
 13 11  1  0
 13 14  1  6
 14  7  1  0
 15 13  1  0
 16 15  2  0
 17 18  1  0
 17 15  1  0
 19 18  1  0
 20 21  1  0
 20 19  1  0
 21 17  1  0
 22 24  1  0
 21 22  1  1
 23 22  2  0
M  END
$$$$
