NIP.pdb
     RDKit          3D

 24 24  0  0  1  0  0  0  0  0999 V2000
   18.5620  -21.6917  -15.2420 N   0  0  0  0  0  0  0  0  0  0  0  0
   19.7955  -22.0942  -14.6925 C   0  0  0  0  0  0  0  0  0  0  0  0
   19.9471  -23.2452  -14.2277 O   0  0  0  0  0  0  0  0  0  0  0  0
   20.9326  -21.1527  -14.6584 C   0  0  0  0  0  0  0  0  0  0  0  0
   21.4049  -21.0787  -13.2276 C   0  0  2  0  0  0  0  0  0  0  0  0
   20.3896  -20.3804  -12.4248 N   0  0  0  0  0  0  0  0  0  0  0  0
   22.7206  -20.4740  -13.0467 C   0  0  0  0  0  0  0  0  0  0  0  0
   22.8632  -19.2078  -13.1592 O   0  0  0  0  0  0  0  0  0  0  0  0
   25.4769  -20.8153   -8.7672 C   0  0  0  0  0  0  0  0  0  0  0  0
   24.9125  -20.4710  -10.1100 C   0  0  0  0  0  0  0  0  0  0  0  0
   25.6606  -20.9201  -11.2897 C   0  0  2  0  0  0  0  0  0  0  0  0
   27.1396  -20.6761  -11.0708 C   0  0  0  0  0  0  0  0  0  0  0  0
   25.1991  -20.6316  -12.6642 C   0  0  2  0  0  0  0  0  0  0  0  0
   23.8901  -21.2117  -12.7428 N   0  0  0  0  0  0  0  0  0  0  0  0
   26.1225  -20.8278  -13.7660 C   0  0  0  0  0  0  0  0  0  0  0  0
   26.6011  -22.0245  -13.7688 O   0  0  0  0  0  0  0  0  0  0  0  0
   26.5562  -19.9694  -14.7767 N   0  0  0  0  0  0  0  0  0  0  0  0
   26.0752  -18.5965  -15.0867 C   0  0  0  0  0  0  0  0  0  0  0  0
   27.3927  -17.8459  -15.0363 C   0  0  0  0  0  0  0  0  0  0  0  0
   28.4530  -18.8917  -15.3311 C   0  0  0  0  0  0  0  0  0  0  0  0
   27.5314  -20.0439  -15.8234 C   0  0  1  0  0  0  0  0  0  0  0  0
   28.2579  -21.2377  -16.0967 C   0  0  0  0  0  0  0  0  0  0  0  0
   28.6673  -22.0642  -15.2912 O   0  0  0  0  0  0  0  0  0  0  0  0
   28.5547  -21.5259  -17.4535 O   0  0  0  0  0  0  0  0  0  0  0  0
  1  2  1  0
  2  3  2  0
  4  2  1  0
  4  5  1  0
  5  6  1  1
  7  8  2  0
  7  5  1  0
  9 10  1  0
 10 11  1  0
 11 12  1  1
 13 11  1  0
 13 14  1  6
 14  7  1  0
 15 13  1  0
 16 15  2  0
 17 18  1  0
 17 15  1  0
 19 18  1  0
 20 21  1  0
 20 19  1  0
 21 17  1  0
 22 24  1  0
 21 22  1  1
 23 22  2  0
M  END
$$$$
