NIP.pdb
     RDKit          3D

 24 24  0  0  1  0  0  0  0  0999 V2000
   27.6954  -17.0264  -16.2546 N   0  0  0  0  0  0  0  0  0  0  0  0
   28.1499  -18.2668  -16.7448 C   0  0  0  0  0  0  0  0  0  0  0  0
   29.2951  -18.3844  -17.2331 O   0  0  0  0  0  0  0  0  0  0  0  0
   27.2709  -19.4520  -16.6875 C   0  0  0  0  0  0  0  0  0  0  0  0
   27.5896  -20.1795  -15.4050 C   0  0  2  0  0  0  0  0  0  0  0  0
   28.6151  -21.1982  -15.6757 N   0  0  0  0  0  0  0  0  0  0  0  0
   26.4365  -20.7656  -14.7296 C   0  0  0  0  0  0  0  0  0  0  0  0
   25.9494  -21.8742  -15.1420 O   0  0  0  0  0  0  0  0  0  0  0  0
   26.5072  -21.0571   -9.5123 C   0  0  0  0  0  0  0  0  0  0  0  0
   26.2435  -21.2444  -10.9736 C   0  0  0  0  0  0  0  0  0  0  0  0
   24.9943  -20.6908  -11.5084 C   0  0  2  0  0  0  0  0  0  0  0  0
   23.8457  -21.0656  -10.5944 C   0  0  0  0  0  0  0  0  0  0  0  0
   24.6644  -20.7543  -12.9481 C   0  0  2  0  0  0  0  0  0  0  0  0
   25.7973  -20.1776  -13.6115 N   0  0  0  0  0  0  0  0  0  0  0  0
   23.3308  -20.3753  -13.3759 C   0  0  0  0  0  0  0  0  0  0  0  0
   22.9965  -19.2240  -12.9028 O   0  0  0  0  0  0  0  0  0  0  0  0
   22.3947  -21.0262  -14.1800 N   0  0  0  0  0  0  0  0  0  0  0  0
   22.6419  -22.0150  -15.2632 C   0  0  0  0  0  0  0  0  0  0  0  0
   21.7697  -23.1555  -14.7731 C   0  0  0  0  0  0  0  0  0  0  0  0
   20.7140  -22.4975  -13.9028 C   0  0  0  0  0  0  0  0  0  0  0  0
   20.9665  -21.0126  -14.2904 C   0  0  1  0  0  0  0  0  0  0  0  0
   20.1584  -20.1129  -13.5387 C   0  0  0  0  0  0  0  0  0  0  0  0
   20.3413  -19.7242  -12.3919 O   0  0  0  0  0  0  0  0  0  0  0  0
   18.9999  -19.5918  -14.1699 O   0  0  0  0  0  0  0  0  0  0  0  0
  1  2  1  0
  2  3  2  0
  4  2  1  0
  4  5  1  0
  5  6  1  6
  7  8  2  0
  7  5  1  0
  9 10  1  0
 10 11  1  0
 11 12  1  1
 13 11  1  0
 13 14  1  6
 14  7  1  0
 15 13  1  0
 16 15  2  0
 17 18  1  0
 17 15  1  0
 19 18  1  0
 20 21  1  0
 20 19  1  0
 21 17  1  0
 22 24  1  0
 21 22  1  1
 23 22  2  0
M  END
$$$$
