NIP.pdb
     RDKit          3D

 24 24  0  0  1  0  0  0  0  0999 V2000
   27.6295  -33.1987   -4.5410 N   0  0  0  0  0  0  0  0  0  0  0  0
   27.5755  -34.5816   -4.8055 C   0  0  0  0  0  0  0  0  0  0  0  0
   26.5740  -35.0928   -5.3527 O   0  0  0  0  0  0  0  0  0  0  0  0
   28.7108  -35.4505   -4.4355 C   0  0  0  0  0  0  0  0  0  0  0  0
   29.8052  -35.2045   -5.4442 C   0  0  2  0  0  0  0  0  0  0  0  0
   29.5086  -35.9669   -6.6664 N   0  0  0  0  0  0  0  0  0  0  0  0
   31.1545  -35.4878   -4.9663 C   0  0  0  0  0  0  0  0  0  0  0  0
   31.6283  -36.6728   -5.0541 O   0  0  0  0  0  0  0  0  0  0  0  0
   34.9299  -31.7464   -5.5323 C   0  0  0  0  0  0  0  0  0  0  0  0
   34.3159  -33.1056   -5.4067 C   0  0  0  0  0  0  0  0  0  0  0  0
   34.1131  -33.6300   -4.0514 C   0  0  2  0  0  0  0  0  0  0  0  0
   35.4346  -33.6349   -3.3107 C   0  0  0  0  0  0  0  0  0  0  0  0
   33.2714  -34.8169   -3.7904 C   0  0  2  0  0  0  0  0  0  0  0  0
   32.0075  -34.5127   -4.3954 N   0  0  0  0  0  0  0  0  0  0  0  0
   33.2927  -35.4100   -2.4664 C   0  0  0  0  0  0  0  0  0  0  0  0
   32.8071  -34.6052   -1.5846 O   0  0  0  0  0  0  0  0  0  0  0  0
   33.7337  -36.6541   -2.0144 N   0  0  0  0  0  0  0  0  0  0  0  0
   33.7944  -37.9368   -2.7651 C   0  0  0  0  0  0  0  0  0  0  0  0
   35.2583  -38.2815   -2.5653 C   0  0  0  0  0  0  0  0  0  0  0  0
   35.6614  -37.5628   -1.2902 C   0  0  0  0  0  0  0  0  0  0  0  0
   34.2490  -37.1610   -0.7777 C   0  0  1  0  0  0  0  0  0  0  0  0
   34.3083  -36.3634    0.4005 C   0  0  0  0  0  0  0  0  0  0  0  0
   34.2758  -35.1418    0.4782 O   0  0  0  0  0  0  0  0  0  0  0  0
   34.4182  -37.0396    1.6426 O   0  0  0  0  0  0  0  0  0  0  0  0
  1  2  1  0
  2  3  2  0
  4  2  1  0
  4  5  1  0
  5  6  1  6
  7  8  2  0
  7  5  1  0
  9 10  1  0
 10 11  1  0
 11 12  1  6
 13 11  1  0
 13 14  1  1
 14  7  1  0
 15 13  1  0
 16 15  2  0
 17 18  1  0
 17 15  1  0
 19 18  1  0
 20 21  1  0
 20 19  1  0
 21 17  1  0
 22 24  1  0
 21 22  1  1
 23 22  2  0
M  END
$$$$
