NIP.pdb
     RDKit          3D

 24 24  0  0  1  0  0  0  0  0999 V2000
   29.8116  -20.6293  -18.8599 N   0  0  0  0  0  0  0  0  0  0  0  0
   28.4151  -20.5474  -19.0290 C   0  0  0  0  0  0  0  0  0  0  0  0
   27.9198  -19.9195  -19.9902 O   0  0  0  0  0  0  0  0  0  0  0  0
   27.5131  -21.2075  -18.0640 C   0  0  0  0  0  0  0  0  0  0  0  0
   28.3829  -21.8679  -17.0233 C   0  0  2  0  0  0  0  0  0  0  0  0
   28.8389  -23.1683  -17.5370 N   0  0  0  0  0  0  0  0  0  0  0  0
   27.7644  -22.0129  -15.7096 C   0  0  0  0  0  0  0  0  0  0  0  0
   27.0855  -23.0617  -15.4348 O   0  0  0  0  0  0  0  0  0  0  0  0
   30.4635  -20.6078  -11.4129 C   0  0  0  0  0  0  0  0  0  0  0  0
   29.4883  -21.2690  -12.3358 C   0  0  0  0  0  0  0  0  0  0  0  0
   28.1408  -20.6939  -12.4156 C   0  0  2  0  0  0  0  0  0  0  0  0
   27.5640  -20.5677  -11.0204 C   0  0  0  0  0  0  0  0  0  0  0  0
   27.1632  -21.1315  -13.4345 C   0  0  2  0  0  0  0  0  0  0  0  0
   27.8668  -21.0455  -14.6811 N   0  0  0  0  0  0  0  0  0  0  0  0
   25.8038  -20.6301  -13.3583 C   0  0  0  0  0  0  0  0  0  0  0  0
   25.7597  -19.3606  -13.5765 O   0  0  0  0  0  0  0  0  0  0  0  0
   24.5921  -21.2710  -13.0987 N   0  0  0  0  0  0  0  0  0  0  0  0
   24.3034  -22.7301  -13.1055 C   0  0  0  0  0  0  0  0  0  0  0  0
   23.7211  -22.8825  -11.7129 C   0  0  0  0  0  0  0  0  0  0  0  0
   23.1852  -21.5073  -11.3577 C   0  0  0  0  0  0  0  0  0  0  0  0
   23.2679  -20.8414  -12.7608 C   0  0  1  0  0  0  0  0  0  0  0  0
   22.9047  -19.4649  -12.7281 C   0  0  0  0  0  0  0  0  0  0  0  0
   21.8087  -18.9754  -12.9704 O   0  0  0  0  0  0  0  0  0  0  0  0
   23.9130  -18.5312  -12.3764 O   0  0  0  0  0  0  0  0  0  0  0  0
  1  2  1  0
  2  3  2  0
  4  2  1  0
  4  5  1  0
  5  6  1  6
  7  8  2  0
  7  5  1  0
  9 10  1  0
 10 11  1  0
 11 12  1  1
 13 11  1  0
 13 14  1  6
 14  7  1  0
 15 13  1  0
 16 15  2  0
 17 18  1  0
 17 15  1  0
 19 18  1  0
 20 21  1  0
 20 19  1  0
 21 17  1  0
 22 24  1  0
 21 22  1  1
 23 22  2  0
M  END
$$$$
