NIP.pdb
     RDKit          3D

 24 24  0  0  1  0  0  0  0  0999 V2000
   25.7233  -22.3816  -20.1612 N   0  0  0  0  0  0  0  0  0  0  0  0
   25.6536  -23.4582  -19.2549 C   0  0  0  0  0  0  0  0  0  0  0  0
   25.0397  -24.5073  -19.5489 O   0  0  0  0  0  0  0  0  0  0  0  0
   26.3100  -23.3586  -17.9358 C   0  0  0  0  0  0  0  0  0  0  0  0
   26.9841  -22.0104  -17.8761 C   0  0  2  0  0  0  0  0  0  0  0  0
   28.3187  -22.1162  -18.4849 N   0  0  0  0  0  0  0  0  0  0  0  0
   27.0631  -21.4229  -16.5428 C   0  0  0  0  0  0  0  0  0  0  0  0
   27.8590  -21.9178  -15.6721 O   0  0  0  0  0  0  0  0  0  0  0  0
   27.7975  -17.5308  -17.0738 C   0  0  0  0  0  0  0  0  0  0  0  0
   27.8739  -17.8836  -15.6213 C   0  0  0  0  0  0  0  0  0  0  0  0
   26.6379  -18.3358  -14.9726 C   0  0  2  0  0  0  0  0  0  0  0  0
   26.3794  -17.4940  -13.7398 C   0  0  0  0  0  0  0  0  0  0  0  0
   26.3260  -19.7704  -14.7991 C   0  0  2  0  0  0  0  0  0  0  0  0
   26.2989  -20.3051  -16.1293 N   0  0  0  0  0  0  0  0  0  0  0  0
   25.2806  -20.1496  -13.8673 C   0  0  0  0  0  0  0  0  0  0  0  0
   24.1303  -19.7121  -14.2503 O   0  0  0  0  0  0  0  0  0  0  0  0
   25.3177  -20.8780  -12.6779 N   0  0  0  0  0  0  0  0  0  0  0  0
   26.4115  -21.7452  -12.1643 C   0  0  0  0  0  0  0  0  0  0  0  0
   26.6237  -21.1104  -10.8027 C   0  0  0  0  0  0  0  0  0  0  0  0
   25.3019  -20.4420  -10.4698 C   0  0  0  0  0  0  0  0  0  0  0  0
   24.4184  -21.0777  -11.5808 C   0  0  1  0  0  0  0  0  0  0  0  0
   23.0941  -20.5544  -11.5836 C   0  0  0  0  0  0  0  0  0  0  0  0
   22.1319  -20.9529  -10.9394 O   0  0  0  0  0  0  0  0  0  0  0  0
   22.8331  -19.4410  -12.4228 O   0  0  0  0  0  0  0  0  0  0  0  0
  1  2  1  0
  2  3  2  0
  4  2  1  0
  4  5  1  0
  5  6  1  1
  7  8  2  0
  7  5  1  0
  9 10  1  0
 10 11  1  0
 11 12  1  1
 13 11  1  0
 13 14  1  6
 14  7  1  0
 15 13  1  0
 16 15  2  0
 17 18  1  0
 17 15  1  0
 19 18  1  0
 20 21  1  0
 20 19  1  0
 21 17  1  0
 22 24  1  0
 21 22  1  6
 23 22  2  0
M  END
$$$$
