NIP.pdb
     RDKit          3D

 24 24  0  0  1  0  0  0  0  0999 V2000
   25.9414  -24.8654  -19.8651 N   0  0  0  0  0  0  0  0  0  0  0  0
   26.2935  -23.5949  -19.3680 C   0  0  0  0  0  0  0  0  0  0  0  0
   26.6222  -22.6700  -20.1428 O   0  0  0  0  0  0  0  0  0  0  0  0
   26.2788  -23.3393  -17.9136 C   0  0  0  0  0  0  0  0  0  0  0  0
   27.4554  -22.4462  -17.6079 C   0  0  2  0  0  0  0  0  0  0  0  0
   28.6936  -23.2314  -17.7221 N   0  0  0  0  0  0  0  0  0  0  0  0
   27.3876  -21.7618  -16.3209 C   0  0  0  0  0  0  0  0  0  0  0  0
   28.0266  -22.2269  -15.3150 O   0  0  0  0  0  0  0  0  0  0  0  0
   26.9101  -16.1541  -14.2045 C   0  0  0  0  0  0  0  0  0  0  0  0
   26.7221  -17.6023  -13.8764 C   0  0  0  0  0  0  0  0  0  0  0  0
   26.7572  -18.5551  -14.9917 C   0  0  2  0  0  0  0  0  0  0  0  0
   26.0912  -17.9362  -16.2035 C   0  0  0  0  0  0  0  0  0  0  0  0
   26.4534  -19.9896  -14.8039 C   0  0  2  0  0  0  0  0  0  0  0  0
   26.6427  -20.5788  -16.0975 N   0  0  0  0  0  0  0  0  0  0  0  0
   25.2856  -20.3598  -14.0267 C   0  0  0  0  0  0  0  0  0  0  0  0
   24.1976  -19.9926  -14.6119 O   0  0  0  0  0  0  0  0  0  0  0  0
   25.1560  -21.0191  -12.8040 N   0  0  0  0  0  0  0  0  0  0  0  0
   26.1493  -21.8878  -12.1177 C   0  0  0  0  0  0  0  0  0  0  0  0
   26.2238  -21.1821  -10.7768 C   0  0  0  0  0  0  0  0  0  0  0  0
   24.8977  -20.4558  -10.6401 C   0  0  0  0  0  0  0  0  0  0  0  0
   24.1277  -21.1276  -11.8126 C   0  0  1  0  0  0  0  0  0  0  0  0
   22.8330  -20.5655  -12.0013 C   0  0  0  0  0  0  0  0  0  0  0  0
   22.5272  -19.6148  -12.7099 O   0  0  0  0  0  0  0  0  0  0  0  0
   21.7541  -21.1585  -11.2967 O   0  0  0  0  0  0  0  0  0  0  0  0
  1  2  1  0
  2  3  2  0
  4  2  1  0
  4  5  1  0
  5  6  1  1
  7  8  2  0
  7  5  1  0
  9 10  1  0
 10 11  1  0
 11 12  1  6
 13 11  1  0
 13 14  1  6
 14  7  1  0
 15 13  1  0
 16 15  2  0
 17 18  1  0
 17 15  1  0
 19 18  1  0
 20 21  1  0
 20 19  1  0
 21 17  1  0
 22 24  1  0
 21 22  1  6
 23 22  2  0
M  END
$$$$
