NIP.pdb
     RDKit          3D

 24 24  0  0  1  0  0  0  0  0999 V2000
   28.9122  -17.4011  -17.3058 N   0  0  0  0  0  0  0  0  0  0  0  0
   28.2604  -17.8972  -16.1593 C   0  0  0  0  0  0  0  0  0  0  0  0
   28.3367  -17.2956  -15.0656 O   0  0  0  0  0  0  0  0  0  0  0  0
   27.4736  -19.1444  -16.2370 C   0  0  0  0  0  0  0  0  0  0  0  0
   28.0046  -20.0715  -15.1720 C   0  0  2  0  0  0  0  0  0  0  0  0
   28.9544  -21.0110  -15.7867 N   0  0  0  0  0  0  0  0  0  0  0  0
   26.9816  -20.7840  -14.4137 C   0  0  0  0  0  0  0  0  0  0  0  0
   26.4759  -21.8628  -14.8792 O   0  0  0  0  0  0  0  0  0  0  0  0
   26.8621  -20.5941   -8.9827 C   0  0  0  0  0  0  0  0  0  0  0  0
   26.6827  -21.0728  -10.3895 C   0  0  0  0  0  0  0  0  0  0  0  0
   25.4773  -20.6334  -11.1014 C   0  0  2  0  0  0  0  0  0  0  0  0
   24.2544  -20.9572  -10.2679 C   0  0  0  0  0  0  0  0  0  0  0  0
   25.2975  -20.8644  -12.5504 C   0  0  2  0  0  0  0  0  0  0  0  0
   26.4933  -20.3549  -13.1560 N   0  0  0  0  0  0  0  0  0  0  0  0
   24.0155  -20.5512  -13.1533 C   0  0  0  0  0  0  0  0  0  0  0  0
   23.5450  -19.4392  -12.7026 O   0  0  0  0  0  0  0  0  0  0  0  0
   23.2450  -21.2285  -14.0989 N   0  0  0  0  0  0  0  0  0  0  0  0
   23.7013  -22.1846  -15.1429 C   0  0  0  0  0  0  0  0  0  0  0  0
   22.8196  -23.3723  -14.8056 C   0  0  0  0  0  0  0  0  0  0  0  0
   21.6135  -22.7791  -14.0997 C   0  0  0  0  0  0  0  0  0  0  0  0
   21.8514  -21.2773  -14.4268 C   0  0  1  0  0  0  0  0  0  0  0  0
   20.8962  -20.4292  -13.7975 C   0  0  0  0  0  0  0  0  0  0  0  0
   20.1140  -19.6560  -14.3360 O   0  0  0  0  0  0  0  0  0  0  0  0
   20.8225  -20.4658  -12.3814 O   0  0  0  0  0  0  0  0  0  0  0  0
  1  2  1  0
  2  3  2  0
  4  2  1  0
  4  5  1  0
  5  6  1  6
  7  8  2  0
  7  5  1  0
  9 10  1  0
 10 11  1  0
 11 12  1  1
 13 11  1  0
 13 14  1  6
 14  7  1  0
 15 13  1  0
 16 15  2  0
 17 18  1  0
 17 15  1  0
 19 18  1  0
 20 21  1  0
 20 19  1  0
 21 17  1  0
 22 24  1  0
 21 22  1  1
 23 22  2  0
M  END
$$$$
