NIP.pdb
     RDKit          3D

 24 24  0  0  1  0  0  0  0  0999 V2000
   19.3879  -22.3769  -14.6451 N   0  0  0  0  0  0  0  0  0  0  0  0
   20.2368  -22.1358  -15.7436 C   0  0  0  0  0  0  0  0  0  0  0  0
   20.0408  -22.6985  -16.8430 O   0  0  0  0  0  0  0  0  0  0  0  0
   21.3777  -21.2082  -15.6074 C   0  0  0  0  0  0  0  0  0  0  0  0
   21.4114  -20.7541  -14.1692 C   0  0  2  0  0  0  0  0  0  0  0  0
   20.3342  -19.7768  -13.9515 N   0  0  0  0  0  0  0  0  0  0  0  0
   22.6957  -20.2239  -13.7236 C   0  0  0  0  0  0  0  0  0  0  0  0
   22.9976  -19.0023  -13.9534 O   0  0  0  0  0  0  0  0  0  0  0  0
   24.4162  -20.9755   -8.9280 C   0  0  0  0  0  0  0  0  0  0  0  0
   24.2719  -20.3762  -10.2919 C   0  0  0  0  0  0  0  0  0  0  0  0
   25.2133  -20.8214  -11.3256 C   0  0  2  0  0  0  0  0  0  0  0  0
   26.6319  -20.5755  -10.8541 C   0  0  0  0  0  0  0  0  0  0  0  0
   24.9956  -20.5305  -12.7586 C   0  0  2  0  0  0  0  0  0  0  0  0
   23.6640  -20.9887  -13.0294 N   0  0  0  0  0  0  0  0  0  0  0  0
   26.0522  -20.8426  -13.7025 C   0  0  0  0  0  0  0  0  0  0  0  0
   26.4901  -22.0432  -13.5355 O   0  0  0  0  0  0  0  0  0  0  0  0
   26.6439  -20.0874  -14.7155 N   0  0  0  0  0  0  0  0  0  0  0  0
   26.2538  -18.7377  -15.2038 C   0  0  0  0  0  0  0  0  0  0  0  0
   27.5773  -18.0140  -15.0411 C   0  0  0  0  0  0  0  0  0  0  0  0
   28.6319  -19.1044  -15.1000 C   0  0  0  0  0  0  0  0  0  0  0  0
   27.7458  -20.2759  -15.6112 C   0  0  1  0  0  0  0  0  0  0  0  0
   28.4620  -21.5047  -15.6810 C   0  0  0  0  0  0  0  0  0  0  0  0
   28.7757  -22.1307  -16.6856 O   0  0  0  0  0  0  0  0  0  0  0  0
   28.8713  -22.0929  -14.4568 O   0  0  0  0  0  0  0  0  0  0  0  0
  1  2  1  0
  2  3  2  0
  4  2  1  0
  4  5  1  0
  5  6  1  6
  7  8  2  0
  7  5  1  0
  9 10  1  0
 10 11  1  0
 11 12  1  1
 13 11  1  0
 13 14  1  6
 14  7  1  0
 15 13  1  0
 16 15  2  0
 17 18  1  0
 17 15  1  0
 19 18  1  0
 20 21  1  0
 20 19  1  0
 21 17  1  0
 22 24  1  0
 21 22  1  1
 23 22  2  0
M  END
$$$$
