NIP.pdb
     RDKit          3D

 24 24  0  0  1  0  0  0  0  0999 V2000
   24.5894  -13.6041  -21.7789 N   0  0  0  0  0  0  0  0  0  0  0  0
   23.2807  -13.0889  -21.6926 C   0  0  0  0  0  0  0  0  0  0  0  0
   22.6109  -12.8596  -22.7234 O   0  0  0  0  0  0  0  0  0  0  0  0
   22.6805  -12.8112  -20.3723 C   0  0  0  0  0  0  0  0  0  0  0  0
   23.7497  -13.0596  -19.3375 C   0  0  2  0  0  0  0  0  0  0  0  0
   23.9636  -14.5090  -19.2100 N   0  0  0  0  0  0  0  0  0  0  0  0
   23.4955  -12.4524  -18.0352 C   0  0  0  0  0  0  0  0  0  0  0  0
   23.3906  -13.1901  -16.9954 O   0  0  0  0  0  0  0  0  0  0  0  0
   27.0579  -10.3142  -15.6450 C   0  0  0  0  0  0  0  0  0  0  0  0
   25.8366  -10.2929  -16.5098 C   0  0  0  0  0  0  0  0  0  0  0  0
   24.5722  -10.7192  -15.8994 C   0  0  2  0  0  0  0  0  0  0  0  0
   24.7198  -12.1307  -15.3695 C   0  0  0  0  0  0  0  0  0  0  0  0
   23.2661  -10.4483  -16.5368 C   0  0  2  0  0  0  0  0  0  0  0  0
   23.3542  -11.0585  -17.8314 N   0  0  0  0  0  0  0  0  0  0  0  0
   22.6967   -9.1186  -16.4235 C   0  0  0  0  0  0  0  0  0  0  0  0
   23.5589   -8.2118  -16.7321 O   0  0  0  0  0  0  0  0  0  0  0  0
   21.4245   -8.6831  -16.0514 N   0  0  0  0  0  0  0  0  0  0  0  0
   20.1640   -9.4704  -15.9910 C   0  0  0  0  0  0  0  0  0  0  0  0
   19.7615   -9.1999  -14.5534 C   0  0  0  0  0  0  0  0  0  0  0  0
   20.4262   -7.8814  -14.2001 C   0  0  0  0  0  0  0  0  0  0  0  0
   20.8622   -7.4364  -15.6253 C   0  0  1  0  0  0  0  0  0  0  0  0
   21.6209   -6.2315  -15.6067 C   0  0  0  0  0  0  0  0  0  0  0  0
   22.8211   -6.1075  -15.3977 O   0  0  0  0  0  0  0  0  0  0  0  0
   20.9282   -5.0192  -15.8567 O   0  0  0  0  0  0  0  0  0  0  0  0
  1  2  1  0
  2  3  2  0
  4  2  1  0
  4  5  1  0
  5  6  1  1
  7  8  2  0
  7  5  1  0
  9 10  1  0
 10 11  1  0
 11 12  1  6
 13 11  1  0
 13 14  1  6
 14  7  1  0
 15 13  1  0
 16 15  2  0
 17 18  1  0
 17 15  1  0
 19 18  1  0
 20 21  1  0
 20 19  1  0
 21 17  1  0
 22 24  1  0
 21 22  1  1
 23 22  2  0
M  END
$$$$
