TFW.pdb
     RDKit          3D

 33 35  0  0  1  0  0  0  0  0999 V2000
   10.2769  -20.3807   23.3691 C   0  0  0  0  0  0  0  0  0  0  0  0
   10.4961  -20.8884   21.9612 C   0  0  1  0  0  0  0  0  0  0  0  0
   10.4468  -22.2964   21.9710 O   0  0  0  0  0  0  0  0  0  0  0  0
    9.3912  -20.3414   21.0992 C   0  0  2  0  0  0  0  0  0  0  0  0
    9.3907  -21.0580   19.8409 N   0  0  0  0  0  0  0  0  0  0  0  0
    9.4975  -18.8933   20.8791 C   0  0  0  0  0  0  0  0  0  0  0  0
   10.4194  -18.3819   20.1837 O   0  0  0  0  0  0  0  0  0  0  0  0
    8.5282  -18.0426   21.4708 N   0  0  0  0  0  0  0  0  0  0  0  0
    8.6738  -16.6047   21.4696 C   0  0  1  0  0  0  0  0  0  0  0  0
    7.2633  -16.0382   21.5321 C   0  0  0  0  0  0  0  0  0  0  0  0
    7.2611  -14.5790   21.3409 C   0  0  0  0  0  0  0  0  0  0  0  0
    7.1817  -13.7344   22.4422 C   0  0  0  0  0  0  0  0  0  0  0  0
    7.1765  -12.3636   22.3234 C   0  0  0  0  0  0  0  0  0  0  0  0
    7.2518  -11.7723   21.0786 C   0  0  0  0  0  0  0  0  0  0  0  0
    7.3307  -12.5927   19.9795 C   0  0  0  0  0  0  0  0  0  0  0  0
    7.3350  -13.9727   20.1119 C   0  0  0  0  0  0  0  0  0  0  0  0
    9.5026  -16.2133   22.6268 C   0  0  0  0  0  0  0  0  0  0  0  0
   10.4188  -15.3724   22.4685 O   0  0  0  0  0  0  0  0  0  0  0  0
    9.3121  -16.7503   23.9481 N   0  0  0  0  0  0  0  0  0  0  0  0
   10.1082  -16.2471   25.0426 C   0  0  1  0  0  0  0  0  0  0  0  0
    9.3091  -16.2547   26.3429 C   0  0  0  0  0  0  0  0  0  0  0  0
    7.9961  -15.6267   26.1287 C   0  0  0  0  0  0  0  0  0  0  0  0
    6.7958  -16.2158   25.7488 C   0  0  0  0  0  0  0  0  0  0  0  0
    5.8863  -15.2544   25.6787 N   0  0  0  0  0  0  0  0  0  0  0  0
    6.4099  -14.0742   25.9874 C   0  0  0  0  0  0  0  0  0  0  0  0
    5.8893  -12.7843   26.0616 C   0  0  0  0  0  0  0  0  0  0  0  0
    6.7083  -11.7487   26.4189 C   0  0  0  0  0  0  0  0  0  0  0  0
    8.0352  -11.9326   26.7097 C   0  0  0  0  0  0  0  0  0  0  0  0
    8.5660  -13.2034   26.6408 C   0  0  0  0  0  0  0  0  0  0  0  0
    7.7438  -14.2678   26.2783 C   0  0  0  0  0  0  0  0  0  0  0  0
   11.2561  -17.1572   25.2448 C   0  0  0  0  0  0  0  0  0  0  0  0
   12.2720  -16.8651   26.1413 O   0  0  0  0  0  0  0  0  0  0  0  0
   11.3603  -18.2503   24.6019 O   0  0  0  0  0  0  0  0  0  0  0  0
  2  1  1  1
  2  3  1  0
  4  2  1  0
  4  5  1  6
  6  4  1  0
  6  7  2  0
  8  6  1  0
  9  8  1  0
  9 10  1  1
 10 11  1  0
 11 12  2  0
 12 13  1  0
 14 13  2  0
 15 14  1  0
 16 11  1  0
 16 15  2  0
 17  9  1  0
 18 17  2  0
 19 17  1  0
 20 21  1  1
 20 19  1  0
 21 22  1  0
 22 30  1  0
 23 22  2  0
 23 24  1  0
 24 25  1  0
 25 26  1  0
 26 27  2  0
 28 27  1  0
 29 28  2  0
 30 25  2  0
 30 29  1  0
 31 32  1  0
 31 20  1  0
 33 31  2  0
M  END
$$$$
