TFW.pdb
     RDKit          3D

 33 35  0  0  1  0  0  0  0  0999 V2000
    9.6733  -20.7617   23.0316 C   0  0  0  0  0  0  0  0  0  0  0  0
    9.9919  -21.2066   21.6214 C   0  0  1  0  0  0  0  0  0  0  0  0
    9.7863  -22.5970   21.5242 O   0  0  0  0  0  0  0  0  0  0  0  0
    9.0582  -20.4826   20.6902 C   0  0  2  0  0  0  0  0  0  0  0  0
    9.1556  -21.0873   19.3781 N   0  0  0  0  0  0  0  0  0  0  0  0
    9.3182  -19.0387   20.6239 C   0  0  0  0  0  0  0  0  0  0  0  0
   10.3929  -18.5668   20.1576 O   0  0  0  0  0  0  0  0  0  0  0  0
    8.3242  -18.1461   21.1019 N   0  0  0  0  0  0  0  0  0  0  0  0
    8.5508  -16.7205   21.1733 C   0  0  1  0  0  0  0  0  0  0  0  0
    7.1775  -16.0823   21.3196 C   0  0  0  0  0  0  0  0  0  0  0  0
    7.2555  -14.6149   21.2404 C   0  0  0  0  0  0  0  0  0  0  0  0
    7.1041  -13.8483   22.3902 C   0  0  0  0  0  0  0  0  0  0  0  0
    7.1684  -12.4740   22.3759 C   0  0  0  0  0  0  0  0  0  0  0  0
    7.3901  -11.7995   21.1924 C   0  0  0  0  0  0  0  0  0  0  0  0
    7.5418  -12.5422   20.0466 C   0  0  0  0  0  0  0  0  0  0  0  0
    7.4750  -13.9266   20.0736 C   0  0  0  0  0  0  0  0  0  0  0  0
    9.4399  -16.4406   22.3180 C   0  0  0  0  0  0  0  0  0  0  0  0
   10.4809  -15.7665   22.1353 O   0  0  0  0  0  0  0  0  0  0  0  0
    9.1720  -16.9041   23.6536 N   0  0  0  0  0  0  0  0  0  0  0  0
   10.1201  -16.6268   24.7068 C   0  0  1  0  0  0  0  0  0  0  0  0
    9.9234  -15.2166   25.2563 C   0  0  0  0  0  0  0  0  0  0  0  0
    8.5073  -15.0018   25.5919 C   0  0  0  0  0  0  0  0  0  0  0  0
    7.4626  -15.9186   25.6073 C   0  0  0  0  0  0  0  0  0  0  0  0
    6.3667  -15.2659   25.9671 N   0  0  0  0  0  0  0  0  0  0  0  0
    6.6229  -13.9824   26.1889 C   0  0  0  0  0  0  0  0  0  0  0  0
    5.8357  -12.9009   26.5777 C   0  0  0  0  0  0  0  0  0  0  0  0
    6.4115  -11.6690   26.7241 C   0  0  0  0  0  0  0  0  0  0  0  0
    7.7468  -11.4547   26.5006 C   0  0  0  0  0  0  0  0  0  0  0  0
    8.5398  -12.5149   26.1150 C   0  0  0  0  0  0  0  0  0  0  0  0
    7.9672  -13.7754   25.9620 C   0  0  0  0  0  0  0  0  0  0  0  0
    9.8629  -17.5581   25.8264 C   0  0  0  0  0  0  0  0  0  0  0  0
   10.7153  -17.6451   26.9158 O   0  0  0  0  0  0  0  0  0  0  0  0
    8.8452  -18.3217   25.8368 O   0  0  0  0  0  0  0  0  0  0  0  0
  2  1  1  1
  2  3  1  0
  4  2  1  0
  4  5  1  6
  6  4  1  0
  6  7  2  0
  8  6  1  0
  9  8  1  0
  9 10  1  1
 10 11  1  0
 11 12  2  0
 12 13  1  0
 14 13  2  0
 15 14  1  0
 16 11  1  0
 16 15  2  0
 17  9  1  0
 18 17  2  0
 19 17  1  0
 20 21  1  1
 20 19  1  0
 21 22  1  0
 22 30  1  0
 23 22  2  0
 23 24  1  0
 24 25  1  0
 25 26  1  0
 26 27  2  0
 28 27  1  0
 29 28  2  0
 30 25  2  0
 30 29  1  0
 31 32  1  0
 31 20  1  0
 33 31  2  0
M  END
$$$$
