TFW.pdb
     RDKit          3D

 33 35  0  0  1  0  0  0  0  0999 V2000
    8.7018  -20.4990   19.0131 C   0  0  0  0  0  0  0  0  0  0  0  0
    9.0455  -19.3420   19.9249 C   0  0  1  0  0  0  0  0  0  0  0  0
   10.4268  -19.0813   19.8304 O   0  0  0  0  0  0  0  0  0  0  0  0
    8.2633  -18.1439   19.4605 C   0  0  2  0  0  0  0  0  0  0  0  0
    8.5792  -17.8987   18.0688 N   0  0  0  0  0  0  0  0  0  0  0  0
    8.5096  -16.9463   20.2741 C   0  0  0  0  0  0  0  0  0  0  0  0
    9.2688  -16.0132   19.8896 O   0  0  0  0  0  0  0  0  0  0  0  0
    7.8701  -16.8382   21.5361 N   0  0  0  0  0  0  0  0  0  0  0  0
    8.0001  -15.6563   22.3576 C   0  0  1  0  0  0  0  0  0  0  0  0
    6.9872  -15.8113   23.4822 C   0  0  0  0  0  0  0  0  0  0  0  0
    6.9438  -14.6130   24.3354 C   0  0  0  0  0  0  0  0  0  0  0  0
    6.6441  -14.7336   25.6875 C   0  0  0  0  0  0  0  0  0  0  0  0
    6.5903  -13.6488   26.5322 C   0  0  0  0  0  0  0  0  0  0  0  0
    6.8380  -12.3791   26.0515 C   0  0  0  0  0  0  0  0  0  0  0  0
    7.1356  -12.2422   24.7173 C   0  0  0  0  0  0  0  0  0  0  0  0
    7.1868  -13.3428   23.8760 C   0  0  0  0  0  0  0  0  0  0  0  0
    9.3911  -15.5704   22.8443 C   0  0  0  0  0  0  0  0  0  0  0  0
   10.1705  -14.7347   22.3288 O   0  0  0  0  0  0  0  0  0  0  0  0
    9.9093  -16.4046   23.8960 N   0  0  0  0  0  0  0  0  0  0  0  0
   11.3375  -16.5186   24.0759 C   0  0  1  0  0  0  0  0  0  0  0  0
   11.8113  -15.6359   25.2273 C   0  0  0  0  0  0  0  0  0  0  0  0
   11.1391  -16.0335   26.4739 C   0  0  0  0  0  0  0  0  0  0  0  0
   10.7163  -17.2950   26.8764 C   0  0  0  0  0  0  0  0  0  0  0  0
   10.1592  -17.1645   28.0719 N   0  0  0  0  0  0  0  0  0  0  0  0
   10.1886  -15.9016   28.4803 C   0  0  0  0  0  0  0  0  0  0  0  0
    9.7453  -15.2562   29.6324 C   0  0  0  0  0  0  0  0  0  0  0  0
    9.9273  -13.9065   29.7586 C   0  0  0  0  0  0  0  0  0  0  0  0
   10.5351  -13.1564   28.7855 C   0  0  0  0  0  0  0  0  0  0  0  0
   10.9795  -13.7803   27.6388 C   0  0  0  0  0  0  0  0  0  0  0  0
   10.8010  -15.1544   27.4965 C   0  0  0  0  0  0  0  0  0  0  0  0
   11.6528  -17.9133   24.4529 C   0  0  0  0  0  0  0  0  0  0  0  0
   10.6588  -18.8534   24.6747 O   0  0  0  0  0  0  0  0  0  0  0  0
   12.8537  -18.3105   24.5905 O   0  0  0  0  0  0  0  0  0  0  0  0
  2  1  1  6
  2  3  1  0
  4  2  1  0
  4  5  1  6
  6  4  1  0
  6  7  2  0
  8  6  1  0
  9  8  1  0
  9 10  1  1
 10 11  1  0
 11 12  2  0
 12 13  1  0
 14 13  2  0
 15 14  1  0
 16 11  1  0
 16 15  2  0
 17  9  1  0
 18 17  2  0
 19 17  1  0
 20 21  1  1
 20 19  1  0
 21 22  1  0
 22 30  1  0
 23 22  2  0
 23 24  1  0
 24 25  1  0
 25 26  1  0
 26 27  2  0
 28 27  1  0
 29 28  2  0
 30 25  2  0
 30 29  1  0
 31 32  1  0
 31 20  1  0
 33 31  2  0
M  END
$$$$
