TFW.pdb
     RDKit          3D

 33 35  0  0  1  0  0  0  0  0999 V2000
   12.9874  -17.4432   19.1401 C   0  0  0  0  0  0  0  0  0  0  0  0
   11.7176  -16.8413   18.5801 C   0  0  1  0  0  0  0  0  0  0  0  0
   11.5567  -17.2730   17.2487 O   0  0  0  0  0  0  0  0  0  0  0  0
   10.5694  -17.3288   19.4209 C   0  0  2  0  0  0  0  0  0  0  0  0
    9.3383  -17.1104   18.6906 N   0  0  0  0  0  0  0  0  0  0  0  0
   10.5154  -16.6931   20.7437 C   0  0  0  0  0  0  0  0  0  0  0  0
   11.5571  -16.3737   21.3824 O   0  0  0  0  0  0  0  0  0  0  0  0
    9.2460  -16.4307   21.3208 N   0  0  0  0  0  0  0  0  0  0  0  0
    9.1127  -15.8657   22.6444 C   0  0  1  0  0  0  0  0  0  0  0  0
    7.7353  -15.2215   22.6908 C   0  0  0  0  0  0  0  0  0  0  0  0
    7.4747  -14.6036   24.0007 C   0  0  0  0  0  0  0  0  0  0  0  0
    6.8931  -15.3514   25.0181 C   0  0  0  0  0  0  0  0  0  0  0  0
    6.6274  -14.8266   26.2619 C   0  0  0  0  0  0  0  0  0  0  0  0
    6.9375  -13.5116   26.5435 C   0  0  0  0  0  0  0  0  0  0  0  0
    7.5128  -12.7583   25.5490 C   0  0  0  0  0  0  0  0  0  0  0  0
    7.7756  -13.2983   24.2995 C   0  0  0  0  0  0  0  0  0  0  0  0
    9.2762  -16.9458   23.6373 C   0  0  0  0  0  0  0  0  0  0  0  0
    8.7818  -18.0738   23.4032 O   0  0  0  0  0  0  0  0  0  0  0  0
    9.9853  -16.7734   24.8774 N   0  0  0  0  0  0  0  0  0  0  0  0
   10.8259  -17.8387   25.3709 C   0  0  1  0  0  0  0  0  0  0  0  0
   11.7779  -17.3243   26.4471 C   0  0  0  0  0  0  0  0  0  0  0  0
   11.0286  -17.0193   27.6758 C   0  0  0  0  0  0  0  0  0  0  0  0
   10.7623  -17.8405   28.7652 C   0  0  0  0  0  0  0  0  0  0  0  0
   10.0496  -17.1336   29.6306 N   0  0  0  0  0  0  0  0  0  0  0  0
    9.8306  -15.9037   29.1814 C   0  0  0  0  0  0  0  0  0  0  0  0
    9.1541  -14.8009   29.6976 C   0  0  0  0  0  0  0  0  0  0  0  0
    9.1057  -13.6424   28.9723 C   0  0  0  0  0  0  0  0  0  0  0  0
    9.7031  -13.5230   27.7444 C   0  0  0  0  0  0  0  0  0  0  0  0
   10.3768  -14.6055   27.2192 C   0  0  0  0  0  0  0  0  0  0  0  0
   10.4344  -15.7920   27.9467 C   0  0  0  0  0  0  0  0  0  0  0  0
    9.9657  -18.8544   26.0154 C   0  0  0  0  0  0  0  0  0  0  0  0
    8.5846  -18.7389   26.0321 O   0  0  0  0  0  0  0  0  0  0  0  0
   10.4587  -19.8802   26.5842 O   0  0  0  0  0  0  0  0  0  0  0  0
  2  1  1  1
  2  3  1  0
  4  2  1  0
  4  5  1  6
  6  4  1  0
  6  7  2  0
  8  6  1  0
  9  8  1  0
  9 10  1  6
 10 11  1  0
 11 12  2  0
 12 13  1  0
 14 13  2  0
 15 14  1  0
 16 11  1  0
 16 15  2  0
 17  9  1  0
 18 17  2  0
 19 17  1  0
 20 21  1  1
 20 19  1  0
 21 22  1  0
 22 30  1  0
 23 22  2  0
 23 24  1  0
 24 25  1  0
 25 26  1  0
 26 27  2  0
 28 27  1  0
 29 28  2  0
 30 25  2  0
 30 29  1  0
 31 32  1  0
 31 20  1  0
 33 31  2  0
M  END
$$$$
