TFW.pdb
     RDKit          3D

 33 35  0  0  1  0  0  0  0  0999 V2000
    9.0570  -18.7736   17.1717 C   0  0  0  0  0  0  0  0  0  0  0  0
    9.2916  -18.2685   18.5780 C   0  0  1  0  0  0  0  0  0  0  0  0
   10.5253  -18.7665   19.0418 O   0  0  0  0  0  0  0  0  0  0  0  0
    9.3312  -16.7656   18.5249 C   0  0  2  0  0  0  0  0  0  0  0  0
   10.3807  -16.3643   17.6116 N   0  0  0  0  0  0  0  0  0  0  0  0
    9.5188  -16.1488   19.8445 C   0  0  0  0  0  0  0  0  0  0  0  0
   10.6579  -15.8229   20.2818 O   0  0  0  0  0  0  0  0  0  0  0  0
    8.3771  -15.9129   20.6534 N   0  0  0  0  0  0  0  0  0  0  0  0
    8.4911  -15.4230   22.0083 C   0  0  1  0  0  0  0  0  0  0  0  0
    7.0960  -14.9692   22.4110 C   0  0  0  0  0  0  0  0  0  0  0  0
    7.0737  -14.4611   23.7920 C   0  0  0  0  0  0  0  0  0  0  0  0
    7.4660  -13.1541   24.0576 C   0  0  0  0  0  0  0  0  0  0  0  0
    7.4645  -12.6258   25.3281 C   0  0  0  0  0  0  0  0  0  0  0  0
    7.0645  -13.3952   26.4017 C   0  0  0  0  0  0  0  0  0  0  0  0
    6.6738  -14.6893   26.1566 C   0  0  0  0  0  0  0  0  0  0  0  0
    6.6796  -15.2105   24.8720 C   0  0  0  0  0  0  0  0  0  0  0  0
    9.0108  -16.5102   22.8610 C   0  0  0  0  0  0  0  0  0  0  0  0
    8.7085  -17.6970   22.5936 O   0  0  0  0  0  0  0  0  0  0  0  0
    9.8608  -16.2792   23.9989 N   0  0  0  0  0  0  0  0  0  0  0  0
   10.6610  -17.3618   24.5210 C   0  0  1  0  0  0  0  0  0  0  0  0
   11.6146  -16.8593   25.6014 C   0  0  0  0  0  0  0  0  0  0  0  0
   10.9070  -16.7564   26.8870 C   0  0  0  0  0  0  0  0  0  0  0  0
   10.4003  -17.7709   27.6909 C   0  0  0  0  0  0  0  0  0  0  0  0
    9.8421  -17.1987   28.7480 N   0  0  0  0  0  0  0  0  0  0  0  0
    9.9490  -15.8767   28.6911 C   0  0  0  0  0  0  0  0  0  0  0  0
    9.5379  -14.8446   29.5315 C   0  0  0  0  0  0  0  0  0  0  0  0
    9.8051  -13.5489   29.1848 C   0  0  0  0  0  0  0  0  0  0  0  0
   10.4686  -13.2228   28.0305 C   0  0  0  0  0  0  0  0  0  0  0  0
   10.8823  -14.2328   27.1876 C   0  0  0  0  0  0  0  0  0  0  0  0
   10.6170  -15.5573   27.5279 C   0  0  0  0  0  0  0  0  0  0  0  0
    9.7611  -18.3392   25.1705 C   0  0  0  0  0  0  0  0  0  0  0  0
   10.2261  -19.5511   25.6562 O   0  0  0  0  0  0  0  0  0  0  0  0
    8.5177  -18.1083   25.3110 O   0  0  0  0  0  0  0  0  0  0  0  0
  2  1  1  6
  2  3  1  0
  4  2  1  0
  4  5  1  6
  6  4  1  0
  6  7  2  0
  8  6  1  0
  9  8  1  0
  9 10  1  1
 10 11  1  0
 11 12  2  0
 12 13  1  0
 14 13  2  0
 15 14  1  0
 16 11  1  0
 16 15  2  0
 17  9  1  0
 18 17  2  0
 19 17  1  0
 20 21  1  1
 20 19  1  0
 21 22  1  0
 22 30  1  0
 23 22  2  0
 23 24  1  0
 24 25  1  0
 25 26  1  0
 26 27  2  0
 28 27  1  0
 29 28  2  0
 30 25  2  0
 30 29  1  0
 31 32  1  0
 31 20  1  0
 33 31  2  0
M  END
$$$$
