TFW.pdb
     RDKit          3D

 33 35  0  0  1  0  0  0  0  0999 V2000
    8.4133  -19.5476   18.2804 C   0  0  0  0  0  0  0  0  0  0  0  0
    8.6543  -18.8075   19.5774 C   0  0  1  0  0  0  0  0  0  0  0  0
    9.8361  -19.2961   20.1687 O   0  0  0  0  0  0  0  0  0  0  0  0
    8.8088  -17.3473   19.2504 C   0  0  2  0  0  0  0  0  0  0  0  0
    9.8782  -17.2019   18.2851 N   0  0  0  0  0  0  0  0  0  0  0  0
    9.0543  -16.5159   20.4359 C   0  0  0  0  0  0  0  0  0  0  0  0
   10.2112  -16.1263   20.7595 O   0  0  0  0  0  0  0  0  0  0  0  0
    7.9498  -16.1398   21.2434 N   0  0  0  0  0  0  0  0  0  0  0  0
    8.1164  -15.3517   22.4433 C   0  0  1  0  0  0  0  0  0  0  0  0
    6.8001  -14.6180   22.6517 C   0  0  0  0  0  0  0  0  0  0  0  0
    6.8416  -13.7703   23.8539 C   0  0  0  0  0  0  0  0  0  0  0  0
    7.3769  -12.4894   23.7825 C   0  0  0  0  0  0  0  0  0  0  0  0
    7.4407  -11.6532   24.8733 C   0  0  0  0  0  0  0  0  0  0  0  0
    6.9642  -12.0705   26.0994 C   0  0  0  0  0  0  0  0  0  0  0  0
    6.4319  -13.3340   26.1875 C   0  0  0  0  0  0  0  0  0  0  0  0
    6.3731  -14.1675   25.0813 C   0  0  0  0  0  0  0  0  0  0  0  0
    8.4532  -16.2570   23.5596 C   0  0  0  0  0  0  0  0  0  0  0  0
    7.6443  -16.3879   24.5083 O   0  0  0  0  0  0  0  0  0  0  0  0
    9.6771  -17.0114   23.6186 N   0  0  0  0  0  0  0  0  0  0  0  0
   10.9111  -16.3409   23.9539 C   0  0  1  0  0  0  0  0  0  0  0  0
   10.6758  -15.2713   25.0168 C   0  0  0  0  0  0  0  0  0  0  0  0
   10.5231  -15.9012   26.3375 C   0  0  0  0  0  0  0  0  0  0  0  0
   10.2241  -17.2228   26.6475 C   0  0  0  0  0  0  0  0  0  0  0  0
   10.1855  -17.3218   27.9686 N   0  0  0  0  0  0  0  0  0  0  0  0
   10.4392  -16.1535   28.5456 C   0  0  0  0  0  0  0  0  0  0  0  0
   10.5157  -15.7361   29.8723 C   0  0  0  0  0  0  0  0  0  0  0  0
   10.8043  -14.4283   30.1497 C   0  0  0  0  0  0  0  0  0  0  0  0
   11.0233  -13.5026   29.1627 C   0  0  0  0  0  0  0  0  0  0  0  0
   10.9512  -13.8997   27.8441 C   0  0  0  0  0  0  0  0  0  0  0  0
   10.6582  -15.2286   27.5466 C   0  0  0  0  0  0  0  0  0  0  0  0
   11.8368  -17.3307   24.5457 C   0  0  0  0  0  0  0  0  0  0  0  0
   11.4580  -18.6456   24.7663 O   0  0  0  0  0  0  0  0  0  0  0  0
   13.0238  -17.0161   24.8788 O   0  0  0  0  0  0  0  0  0  0  0  0
  2  1  1  6
  2  3  1  0
  4  2  1  0
  4  5  1  6
  6  4  1  0
  6  7  2  0
  8  6  1  0
  9  8  1  0
  9 10  1  1
 10 11  1  0
 11 12  2  0
 12 13  1  0
 14 13  2  0
 15 14  1  0
 16 11  1  0
 16 15  2  0
 17  9  1  0
 18 17  2  0
 19 17  1  0
 20 21  1  1
 20 19  1  0
 21 22  1  0
 22 30  1  0
 23 22  2  0
 23 24  1  0
 24 25  1  0
 25 26  1  0
 26 27  2  0
 28 27  1  0
 29 28  2  0
 30 25  2  0
 30 29  1  0
 31 32  1  0
 31 20  1  0
 33 31  2  0
M  END
$$$$
