TFW.pdb
     RDKit          3D

 33 35  0  0  1  0  0  0  0  0999 V2000
   10.2106  -19.3935   19.4651 C   0  0  0  0  0  0  0  0  0  0  0  0
   10.6452  -18.3294   18.4819 C   0  0  1  0  0  0  0  0  0  0  0  0
   10.5857  -18.8609   17.1784 O   0  0  0  0  0  0  0  0  0  0  0  0
    9.6933  -17.1715   18.6087 C   0  0  2  0  0  0  0  0  0  0  0  0
    9.9481  -16.2448   17.5257 N   0  0  0  0  0  0  0  0  0  0  0  0
    9.7804  -16.4959   19.9099 C   0  0  0  0  0  0  0  0  0  0  0  0
   10.8638  -16.0220   20.3534 O   0  0  0  0  0  0  0  0  0  0  0  0
    8.6035  -16.3739   20.6929 N   0  0  0  0  0  0  0  0  0  0  0  0
    8.6185  -15.7584   22.0005 C   0  0  1  0  0  0  0  0  0  0  0  0
    7.1826  -15.3467   22.2890 C   0  0  0  0  0  0  0  0  0  0  0  0
    7.0529  -14.7514   23.6285 C   0  0  0  0  0  0  0  0  0  0  0  0
    6.6560  -15.5389   24.7031 C   0  0  0  0  0  0  0  0  0  0  0  0
    6.5188  -15.0366   25.9767 C   0  0  0  0  0  0  0  0  0  0  0  0
    6.7770  -13.7050   26.2315 C   0  0  0  0  0  0  0  0  0  0  0  0
    7.1702  -12.9125   25.1805 C   0  0  0  0  0  0  0  0  0  0  0  0
    7.3049  -13.4302   23.9015 C   0  0  0  0  0  0  0  0  0  0  0  0
    9.1440  -16.7343   22.9755 C   0  0  0  0  0  0  0  0  0  0  0  0
    8.9734  -17.9591   22.7698 O   0  0  0  0  0  0  0  0  0  0  0  0
    9.8547  -16.3513   24.1666 N   0  0  0  0  0  0  0  0  0  0  0  0
   10.8936  -17.2109   24.6831 C   0  0  1  0  0  0  0  0  0  0  0  0
   11.7125  -16.4908   25.7508 C   0  0  0  0  0  0  0  0  0  0  0  0
   10.8643  -16.1864   26.9135 C   0  0  0  0  0  0  0  0  0  0  0  0
   10.1500  -17.0575   27.7278 C   0  0  0  0  0  0  0  0  0  0  0  0
    9.5303  -16.3270   28.6436 N   0  0  0  0  0  0  0  0  0  0  0  0
    9.7906  -15.0350   28.4845 C   0  0  0  0  0  0  0  0  0  0  0  0
    9.3946  -13.8863   29.1656 C   0  0  0  0  0  0  0  0  0  0  0  0
    9.8467  -12.6660   28.7447 C   0  0  0  0  0  0  0  0  0  0  0  0
   10.6829  -12.5279   27.6673 C   0  0  0  0  0  0  0  0  0  0  0  0
   11.0841  -13.6553   26.9821 C   0  0  0  0  0  0  0  0  0  0  0  0
   10.6316  -14.9048   27.3995 C   0  0  0  0  0  0  0  0  0  0  0  0
   10.2571  -18.3694   25.3462 C   0  0  0  0  0  0  0  0  0  0  0  0
    8.8811  -18.4718   25.4774 O   0  0  0  0  0  0  0  0  0  0  0  0
   10.9479  -19.3239   25.8262 O   0  0  0  0  0  0  0  0  0  0  0  0
  2  1  1  1
  2  3  1  0
  4  2  1  0
  4  5  1  6
  6  4  1  0
  6  7  2  0
  8  6  1  0
  9  8  1  0
  9 10  1  1
 10 11  1  0
 11 12  2  0
 12 13  1  0
 14 13  2  0
 15 14  1  0
 16 11  1  0
 16 15  2  0
 17  9  1  0
 18 17  2  0
 19 17  1  0
 20 21  1  1
 20 19  1  0
 21 22  1  0
 22 30  1  0
 23 22  2  0
 23 24  1  0
 24 25  1  0
 25 26  1  0
 26 27  2  0
 28 27  1  0
 29 28  2  0
 30 25  2  0
 30 29  1  0
 31 32  1  0
 31 20  1  0
 33 31  2  0
M  END
$$$$
