TFW.pdb
     RDKit          3D

 33 35  0  0  1  0  0  0  0  0999 V2000
    8.0694  -15.5648   19.2254 C   0  0  0  0  0  0  0  0  0  0  0  0
    8.4460  -16.0404   20.6111 C   0  0  1  0  0  0  0  0  0  0  0  0
    7.7609  -17.2411   20.8832 O   0  0  0  0  0  0  0  0  0  0  0  0
    9.9308  -16.2812   20.6256 C   0  0  2  0  0  0  0  0  0  0  0  0
   10.2456  -17.2792   19.6249 N   0  0  0  0  0  0  0  0  0  0  0  0
   10.4348  -16.6831   21.9453 C   0  0  0  0  0  0  0  0  0  0  0  0
   10.5536  -17.8944   22.2824 O   0  0  0  0  0  0  0  0  0  0  0  0
   10.7996  -15.6715   22.8709 N   0  0  0  0  0  0  0  0  0  0  0  0
   10.6882  -15.8685   24.2983 C   0  0  1  0  0  0  0  0  0  0  0  0
   11.1242  -14.5597   24.9397 C   0  0  0  0  0  0  0  0  0  0  0  0
   11.1436  -14.6606   26.4077 C   0  0  0  0  0  0  0  0  0  0  0  0
   10.4610  -13.7255   27.1773 C   0  0  0  0  0  0  0  0  0  0  0  0
   10.4437  -13.7711   28.5523 C   0  0  0  0  0  0  0  0  0  0  0  0
   11.1191  -14.7695   29.2245 C   0  0  0  0  0  0  0  0  0  0  0  0
   11.7990  -15.7018   28.4789 C   0  0  0  0  0  0  0  0  0  0  0  0
   11.8092  -15.6454   27.0938 C   0  0  0  0  0  0  0  0  0  0  0  0
    9.2926  -16.2285   24.6176 C   0  0  0  0  0  0  0  0  0  0  0  0
    8.3975  -15.3559   24.5239 O   0  0  0  0  0  0  0  0  0  0  0  0
    8.8964  -17.5475   25.0346 N   0  0  0  0  0  0  0  0  0  0  0  0
    8.7941  -17.8480   26.4432 C   0  0  1  0  0  0  0  0  0  0  0  0
    7.4339  -17.4244   26.9908 C   0  0  0  0  0  0  0  0  0  0  0  0
    6.7957  -16.4729   26.0681 C   0  0  0  0  0  0  0  0  0  0  0  0
    6.1531  -16.7214   24.8609 C   0  0  0  0  0  0  0  0  0  0  0  0
    5.7412  -15.5559   24.3829 N   0  0  0  0  0  0  0  0  0  0  0  0
    6.0707  -14.5597   25.1961 C   0  0  0  0  0  0  0  0  0  0  0  0
    5.8745  -13.1813   25.1519 C   0  0  0  0  0  0  0  0  0  0  0  0
    6.3466  -12.4023   26.1722 C   0  0  0  0  0  0  0  0  0  0  0  0
    7.0124  -12.9307   27.2476 C   0  0  0  0  0  0  0  0  0  0  0  0
    7.2150  -14.2934   27.3064 C   0  0  0  0  0  0  0  0  0  0  0  0
    6.7396  -15.0992   26.2744 C   0  0  0  0  0  0  0  0  0  0  0  0
    8.8840  -19.3137   26.6177 C   0  0  0  0  0  0  0  0  0  0  0  0
    8.9047  -19.9007   27.8731 O   0  0  0  0  0  0  0  0  0  0  0  0
    8.9469  -20.1003   25.6197 O   0  0  0  0  0  0  0  0  0  0  0  0
  2  1  1  6
  2  3  1  0
  4  2  1  0
  4  5  1  6
  6  4  1  0
  6  7  2  0
  8  6  1  0
  9  8  1  0
  9 10  1  1
 10 11  1  0
 11 12  2  0
 12 13  1  0
 14 13  2  0
 15 14  1  0
 16 11  1  0
 16 15  2  0
 17  9  1  0
 18 17  2  0
 19 17  1  0
 20 21  1  6
 20 19  1  0
 21 22  1  0
 22 30  1  0
 23 22  2  0
 23 24  1  0
 24 25  1  0
 25 26  1  0
 26 27  2  0
 28 27  1  0
 29 28  2  0
 30 25  2  0
 30 29  1  0
 31 32  1  0
 31 20  1  0
 33 31  2  0
M  END
$$$$
