TFW.pdb
     RDKit          3D

 33 35  0  0  1  0  0  0  0  0999 V2000
    9.0262  -19.2918   20.7177 C   0  0  0  0  0  0  0  0  0  0  0  0
    9.9077  -19.0409   19.5143 C   0  0  1  0  0  0  0  0  0  0  0  0
    9.3333  -19.6659   18.3898 O   0  0  0  0  0  0  0  0  0  0  0  0
    9.9752  -17.5538   19.2972 C   0  0  2  0  0  0  0  0  0  0  0  0
   10.5152  -17.3050   17.9770 N   0  0  0  0  0  0  0  0  0  0  0  0
   10.7598  -16.8582   20.3256 C   0  0  0  0  0  0  0  0  0  0  0  0
   12.0227  -16.8665   20.3320 O   0  0  0  0  0  0  0  0  0  0  0  0
   10.0703  -16.1534   21.3460 N   0  0  0  0  0  0  0  0  0  0  0  0
   10.7595  -15.6020   22.4905 C   0  0  1  0  0  0  0  0  0  0  0  0
   10.1636  -14.2204   22.7158 C   0  0  0  0  0  0  0  0  0  0  0  0
    8.9675  -14.0089   21.8850 C   0  0  0  0  0  0  0  0  0  0  0  0
    9.0703  -13.3194   20.6822 C   0  0  0  0  0  0  0  0  0  0  0  0
    7.9866  -13.0931   19.8651 C   0  0  0  0  0  0  0  0  0  0  0  0
    6.7361  -13.5542   20.2233 C   0  0  0  0  0  0  0  0  0  0  0  0
    6.6169  -14.2375   21.4092 C   0  0  0  0  0  0  0  0  0  0  0  0
    7.7162  -14.4594   22.2242 C   0  0  0  0  0  0  0  0  0  0  0  0
   10.5641  -16.5071   23.6402 C   0  0  0  0  0  0  0  0  0  0  0  0
    9.5435  -17.2337   23.6819 O   0  0  0  0  0  0  0  0  0  0  0  0
   11.4967  -16.6046   24.7316 N   0  0  0  0  0  0  0  0  0  0  0  0
   11.0031  -16.8024   26.0741 C   0  0  1  0  0  0  0  0  0  0  0  0
    9.5110  -16.4922   26.1546 C   0  0  0  0  0  0  0  0  0  0  0  0
    9.2936  -15.2750   26.9516 C   0  0  0  0  0  0  0  0  0  0  0  0
   10.0091  -14.8072   28.0477 C   0  0  0  0  0  0  0  0  0  0  0  0
    9.4427  -13.6742   28.4375 N   0  0  0  0  0  0  0  0  0  0  0  0
    8.4035  -13.3677   27.6703 C   0  0  0  0  0  0  0  0  0  0  0  0
    7.4969  -12.3103   27.6619 C   0  0  0  0  0  0  0  0  0  0  0  0
    6.5097  -12.2790   26.7157 C   0  0  0  0  0  0  0  0  0  0  0  0
    6.3764  -13.2579   25.7655 C   0  0  0  0  0  0  0  0  0  0  0  0
    7.2659  -14.3116   25.7602 C   0  0  0  0  0  0  0  0  0  0  0  0
    8.2764  -14.3567   26.7178 C   0  0  0  0  0  0  0  0  0  0  0  0
   11.1593  -18.2303   26.4256 C   0  0  0  0  0  0  0  0  0  0  0  0
   10.9364  -18.6953   27.7121 O   0  0  0  0  0  0  0  0  0  0  0  0
   11.5065  -19.0950   25.5592 O   0  0  0  0  0  0  0  0  0  0  0  0
  2  1  1  1
  2  3  1  0
  4  2  1  0
  4  5  1  6
  6  4  1  0
  6  7  2  0
  8  6  1  0
  9  8  1  0
  9 10  1  1
 10 11  1  0
 11 12  2  0
 12 13  1  0
 14 13  2  0
 15 14  1  0
 16 11  1  0
 16 15  2  0
 17  9  1  0
 18 17  2  0
 19 17  1  0
 20 21  1  6
 20 19  1  0
 21 22  1  0
 22 30  1  0
 23 22  2  0
 23 24  1  0
 24 25  1  0
 25 26  1  0
 26 27  2  0
 28 27  1  0
 29 28  2  0
 30 25  2  0
 30 29  1  0
 31 32  1  0
 31 20  1  0
 33 31  2  0
M  END
$$$$
