TFW.pdb
     RDKit          3D

 33 35  0  0  1  0  0  0  0  0999 V2000
   12.4439  -18.2739   19.1849 C   0  0  0  0  0  0  0  0  0  0  0  0
   11.1859  -19.0722   18.9240 C   0  0  1  0  0  0  0  0  0  0  0  0
   10.9580  -19.9342   20.0148 O   0  0  0  0  0  0  0  0  0  0  0  0
   10.0455  -18.1003   18.7899 C   0  0  2  0  0  0  0  0  0  0  0  0
   10.3068  -17.2366   17.6575 N   0  0  0  0  0  0  0  0  0  0  0  0
    9.8147  -17.3137   20.0085 C   0  0  0  0  0  0  0  0  0  0  0  0
   10.3376  -16.1783   20.1884 O   0  0  0  0  0  0  0  0  0  0  0  0
    8.9741  -17.8525   21.0167 N   0  0  0  0  0  0  0  0  0  0  0  0
    8.6352  -17.1049   22.2062 C   0  0  1  0  0  0  0  0  0  0  0  0
    7.2261  -17.5344   22.5866 C   0  0  0  0  0  0  0  0  0  0  0  0
    6.7857  -16.8890   23.8337 C   0  0  0  0  0  0  0  0  0  0  0  0
    6.8505  -17.5840   25.0359 C   0  0  0  0  0  0  0  0  0  0  0  0
    6.4536  -17.0310   26.2316 C   0  0  0  0  0  0  0  0  0  0  0  0
    5.9678  -15.7399   26.2744 C   0  0  0  0  0  0  0  0  0  0  0  0
    5.8970  -15.0389   25.0950 C   0  0  0  0  0  0  0  0  0  0  0  0
    6.2999  -15.6069   23.8964 C   0  0  0  0  0  0  0  0  0  0  0  0
    9.6309  -17.4070   23.2533 C   0  0  0  0  0  0  0  0  0  0  0  0
   10.3201  -18.4501   23.1613 O   0  0  0  0  0  0  0  0  0  0  0  0
    9.8595  -16.5554   24.3904 N   0  0  0  0  0  0  0  0  0  0  0  0
   11.1202  -16.6264   25.0909 C   0  0  1  0  0  0  0  0  0  0  0  0
   11.5167  -15.2563   25.6341 C   0  0  0  0  0  0  0  0  0  0  0  0
   10.4338  -14.7154   26.4701 C   0  0  0  0  0  0  0  0  0  0  0  0
   10.1292  -14.9956   27.7971 C   0  0  0  0  0  0  0  0  0  0  0  0
    9.0659  -14.2741   28.1214 N   0  0  0  0  0  0  0  0  0  0  0  0
    8.6527  -13.5394   27.0958 C   0  0  0  0  0  0  0  0  0  0  0  0
    7.6066  -12.6359   26.9236 C   0  0  0  0  0  0  0  0  0  0  0  0
    7.4397  -12.0243   25.7116 C   0  0  0  0  0  0  0  0  0  0  0  0
    8.2702  -12.2685   24.6488 C   0  0  0  0  0  0  0  0  0  0  0  0
    9.3106  -13.1603   24.8029 C   0  0  0  0  0  0  0  0  0  0  0  0
    9.4929  -13.7907   26.0316 C   0  0  0  0  0  0  0  0  0  0  0  0
   10.9571  -17.5158   26.2610 C   0  0  0  0  0  0  0  0  0  0  0  0
    9.7274  -18.0557   26.6034 O   0  0  0  0  0  0  0  0  0  0  0  0
   11.9419  -17.8238   27.0055 O   0  0  0  0  0  0  0  0  0  0  0  0
  2  1  1  1
  2  3  1  0
  4  2  1  0
  4  5  1  6
  6  4  1  0
  6  7  2  0
  8  6  1  0
  9  8  1  0
  9 10  1  1
 10 11  1  0
 11 12  2  0
 12 13  1  0
 14 13  2  0
 15 14  1  0
 16 11  1  0
 16 15  2  0
 17  9  1  0
 18 17  2  0
 19 17  1  0
 20 21  1  1
 20 19  1  0
 21 22  1  0
 22 30  1  0
 23 22  2  0
 23 24  1  0
 24 25  1  0
 25 26  1  0
 26 27  2  0
 28 27  1  0
 29 28  2  0
 30 25  2  0
 30 29  1  0
 31 32  1  0
 31 20  1  0
 33 31  2  0
M  END
$$$$
