TFW.pdb
     RDKit          3D

 33 35  0  0  1  0  0  0  0  0999 V2000
    8.1075  -12.6873   19.4898 C   0  0  0  0  0  0  0  0  0  0  0  0
    8.4277  -13.7782   20.4875 C   0  0  1  0  0  0  0  0  0  0  0  0
    8.1772  -13.2956   21.7873 O   0  0  0  0  0  0  0  0  0  0  0  0
    7.5296  -14.9483   20.1918 C   0  0  2  0  0  0  0  0  0  0  0  0
    6.1594  -14.4811   20.1607 N   0  0  0  0  0  0  0  0  0  0  0  0
    7.6875  -16.0502   21.1498 C   0  0  0  0  0  0  0  0  0  0  0  0
    6.7895  -16.3530   21.9847 O   0  0  0  0  0  0  0  0  0  0  0  0
    8.8931  -16.7982   21.1332 N   0  0  0  0  0  0  0  0  0  0  0  0
    9.1279  -17.8859   22.0555 C   0  0  1  0  0  0  0  0  0  0  0  0
   10.1671  -18.7804   21.3965 C   0  0  0  0  0  0  0  0  0  0  0  0
   10.4830  -19.9467   22.2365 C   0  0  0  0  0  0  0  0  0  0  0  0
   11.7720  -20.1207   22.7270 C   0  0  0  0  0  0  0  0  0  0  0  0
   12.1239  -21.1908   23.5171 C   0  0  0  0  0  0  0  0  0  0  0  0
   11.1862  -22.1456   23.8542 C   0  0  0  0  0  0  0  0  0  0  0  0
    9.9073  -21.9888   23.3775 C   0  0  0  0  0  0  0  0  0  0  0  0
    9.5647  -20.9063   22.5821 C   0  0  0  0  0  0  0  0  0  0  0  0
    9.5853  -17.3238   23.3416 C   0  0  0  0  0  0  0  0  0  0  0  0
    9.8376  -18.0985   24.2943 O   0  0  0  0  0  0  0  0  0  0  0  0
    9.7630  -15.9134   23.5647 N   0  0  0  0  0  0  0  0  0  0  0  0
   10.2775  -15.4525   24.8327 C   0  0  1  0  0  0  0  0  0  0  0  0
    9.4340  -15.9871   25.9868 C   0  0  0  0  0  0  0  0  0  0  0  0
    8.0889  -15.3929   25.9427 C   0  0  0  0  0  0  0  0  0  0  0  0
    6.8760  -15.9949   25.6290 C   0  0  0  0  0  0  0  0  0  0  0  0
    5.9362  -15.0646   25.7172 N   0  0  0  0  0  0  0  0  0  0  0  0
    6.4518  -13.8926   26.0678 C   0  0  0  0  0  0  0  0  0  0  0  0
    5.9031  -12.6316   26.2894 C   0  0  0  0  0  0  0  0  0  0  0  0
    6.7214  -11.5967   26.6502 C   0  0  0  0  0  0  0  0  0  0  0  0
    8.0745  -11.7536   26.8036 C   0  0  0  0  0  0  0  0  0  0  0  0
    8.6333  -12.9956   26.5879 C   0  0  0  0  0  0  0  0  0  0  0  0
    7.8122  -14.0590   26.2200 C   0  0  0  0  0  0  0  0  0  0  0  0
   11.6392  -16.0001   25.0132 C   0  0  0  0  0  0  0  0  0  0  0  0
   12.4220  -15.6675   26.1076 O   0  0  0  0  0  0  0  0  0  0  0  0
   12.1517  -16.8020   24.1687 O   0  0  0  0  0  0  0  0  0  0  0  0
  2  1  1  6
  2  3  1  0
  4  2  1  0
  4  5  1  1
  6  4  1  0
  6  7  2  0
  8  6  1  0
  9  8  1  0
  9 10  1  6
 10 11  1  0
 11 12  2  0
 12 13  1  0
 14 13  2  0
 15 14  1  0
 16 11  1  0
 16 15  2  0
 17  9  1  0
 18 17  2  0
 19 17  1  0
 20 21  1  1
 20 19  1  0
 21 22  1  0
 22 30  1  0
 23 22  2  0
 23 24  1  0
 24 25  1  0
 25 26  1  0
 26 27  2  0
 28 27  1  0
 29 28  2  0
 30 25  2  0
 30 29  1  0
 31 32  1  0
 31 20  1  0
 33 31  2  0
M  END
$$$$
